data_PCOD9363960
_publ_section_title
;
Structure prediction by ZEFSAII (Michael W. Deem and Ramdas Pophale) SiO2 
 PCOD9363960
Probable space group: A M A 2
;
_chemical_formula_sum "Si O2"
_cell_formula_units_Z 56
_cell_length_a 8.614985
_cell_length_b 14.896300
_cell_length_c 22.169782
_cell_angle_alpha 90.000000
_cell_angle_beta 90.000000
_cell_angle_gamma 90.000000
_cell_volume 2845.079185
_symmetry_space_group_name_H-M "A M A 2"
_symmetry_group_IT_number 40
_symmetry_cell_setting 'orthorhombic'
loop_
_space_group_symop_operation_xyz
x,y,z
-x,-y,z
1/2-x,y,z
1/2+x,-y,z
x,1/2+y,1/2+z
-x,1/2-y,1/2+z
1/2-x,1/2+y,1/2+z
1/2+x,1/2-y,1/2+z
loop_
_atom_site_type_symbol
_atom_site_label
_atom_site_fract_x
_atom_site_fract_y
_atom_site_fract_z
Si Si1 0.436111 0.403527 0.453250
Si Si2 0.564550 0.399229 0.093842
Si Si3 0.063536 0.282507 0.203741
Si Si4 0.063242 0.903639 0.813633
Si Si5 0.936758 0.596361 0.874051
Si Si6 0.936464 0.217493 0.483944
Si Si7 0.563889 0.596473 0.734435
O O1 0.500000 0.500000 0.473505
O O2 0.250000 0.404211 0.455249
O O3 0.487439 0.391658 0.382960
O O4 0.501063 0.318342 0.488574
O O5 0.500000 0.500000 0.093842
O O6 0.750000 0.401437 0.093843
O O7 0.503235 0.345797 0.151954
O O8 0.503235 0.345797 0.035731
O O9 0.250000 0.282297 0.200880
O O10 0.014132 0.325748 0.268002
O O11 0.001063 0.181658 0.199110
O O12 0.250000 0.907128 0.813375
O O13 0.000000 0.000000 0.792467
O O14 0.750000 0.592872 0.874310
O O15 0.987440 0.608342 0.804725
O O16 0.000000 0.500000 0.895217
O O17 0.985868 0.674252 0.919683
O O18 0.750000 0.217702 0.486805
O O19 0.500000 0.500000 0.714179
O O20 0.750000 0.595789 0.732436
#
# Coordination Sequence:
#
# PCOD9363960 Si02
#       7
#     8   8   8   8   8   8   8
#     4  10  20  36  57  85 118 153 190 234 284 339
#     4  12  26  44  63  86 115 150 190 236 284 336
#     4  11  22  38  59  85 115 152 194 238 285 338
#     4   9  19  33  54  84 118 152 189 232 283 338
#     4   9  19  33  54  84 118 152 189 232 283 338
#     4  11  22  38  59  85 115 152 194 238 285 338
#     4  10  20  36  57  85 118 153 190 234 284 339
#
# _framework density 19.683108000000001
#
# number of rings (size 3 to 8) (size 9 to 14) (size 15 to 20)
#    0.000    1.714    0.000    4.714    0.000    5.714 
#    0.000    0.714    0.000    0.000    0.000    0.000 
#    0.000    0.000    0.000    0.000    0.000    0.000 
#
# Total GULP energy -156507.284012 kJ/mol
# GULP energy per Si atom -5589.545858 kJ/mol
# Density = 1.963831 g / cm^3
# Si number density = 19.683108 Si / 1000 Ang^3
#
#
#
# Elastic Constant Matrix: (Units=GPa)
#
#
# Indices 1 2 3 4 5 6 
#
# 1 72.3414 55.2484 24.5800 0.0000 0.0000 0.0000
# 2 55.2484 202.7508 57.1246 0.0000 0.0000 0.0000
# 3 24.5800 57.1246 42.3074 0.0000 0.0000 0.0000
# 4 0.0000 0.0000 0.0000 35.4247 0.0000 0.0000
# 5 0.0000 0.0000 0.0000 0.0000 23.9987 0.0000
# 6 0.0000 0.0000 0.0000 0.0000 0.0000 38.3879
#
#
#
# Elastic Compliance Matrix: (Units=1/GPa)
#
#
# Indices 1 2 3 4 5 6 
#
# 1 0.018455 -0.003241 -0.006346 0.000000 0.000000 0.000000
# 2 -0.003241 0.008530 -0.009634 0.000000 0.000000 0.000000
# 3 -0.006346 -0.009634 0.040332 0.000000 0.000000 0.000000
# 4 0.000000 0.000000 0.000000 0.028229 0.000000 0.000000
# 5 0.000000 0.000000 0.000000 0.000000 0.041669 0.000000
# 6 0.000000 0.000000 0.000000 0.000000 0.000000 0.026050
#
#
# Mechanical properties :
#
#
# Convention : Reuss Voigt Hill
#
# Bulk Modulus (GPa) = 34.63313 65.70062 50.16688
# Shear Modulus (GPa) = 23.65963 31.59203 27.62583
#
# Velocity S-wave (km/s) = 3.47079 4.01063 3.75044
# Velocity P-wave (km/s) = 5.80477 7.40936 6.65560
#
# Compressibility (1/GPa) = 0.02887408
#
# Stress axis : x y z
#
# Youngs Moduli (GPa) = 54.18691 117.23817 24.79436
#
# Poissons Ratio (x) = 0.37994 0.15735
# Poissons Ratio (y) = 0.17561 0.23887
# Poissons Ratio (z) = 0.34387 1.12948
#
# Static dielectric constant tensor:
#      x y z
#    x 1.650710 0.000000 0.000000 
#    y 0.000000 1.669190 0.000000 
#    z 0.000000 0.000000 1.703110 
# 
# From -- ./inp_files/22202.got.cif
#   From: 2010.05.17/outbox.cif.g08.bks.cpg/sg40_12_cif.got.tgz:22202.got - 2010.06.03 18:35:42.
