data_PCOD9363367
_publ_section_title
;
Structure prediction by ZEFSAII (Michael W. Deem and Ramdas Pophale) SiO2 
 PCOD9363367
Probable space group: A M A 2
;
_chemical_formula_sum "Si O2"
_cell_formula_units_Z 60
_cell_length_a 9.618629
_cell_length_b 25.411064
_cell_length_c 12.957346
_cell_angle_alpha 90.000000
_cell_angle_beta 90.000000
_cell_angle_gamma 90.000000
_cell_volume 3167.029289
_symmetry_space_group_name_H-M "A M A 2"
_symmetry_group_IT_number 40
_symmetry_cell_setting 'orthorhombic'
loop_
_space_group_symop_operation_xyz
x,y,z
-x,-y,z
1/2-x,y,z
1/2+x,-y,z
x,1/2+y,1/2+z
-x,1/2-y,1/2+z
1/2-x,1/2+y,1/2+z
1/2+x,1/2-y,1/2+z
loop_
_atom_site_type_symbol
_atom_site_label
_atom_site_fract_x
_atom_site_fract_y
_atom_site_fract_z
Si Si1 0.912540 0.287007 0.152990
Si Si2 0.915375 0.554576 0.031618
Si Si3 0.013023 0.571373 0.662767
Si Si4 0.750000 0.014392 0.220227
Si Si5 0.087854 0.951560 0.931481
Si Si6 0.412500 0.649154 0.942339
Si Si7 0.088495 0.688601 0.716726
Si Si8 0.091849 0.377807 0.238623
O O1 0.750000 0.281286 0.175445
O O2 0.991644 0.232476 0.167007
O O3 0.984172 0.330991 0.224582
O O4 0.927623 0.311687 0.038860
O O5 0.750000 0.547440 0.008937
O O6 0.927821 0.578653 0.147893
O O7 0.000000 0.500000 0.022783
O O8 0.988949 0.598929 0.961113
O O9 0.130190 0.531174 0.700316
O O10 0.063156 0.630852 0.671455
O O11 0.873258 0.559185 0.725533
O O12 0.974197 0.561023 0.543105
O O13 0.250000 0.966014 0.946666
O O14 0.080225 0.904964 0.849445
O O15 0.000000 0.000000 0.888009
O O16 0.250000 0.631353 0.938520
O O17 0.441939 0.680487 0.838067
O O18 0.250000 0.703470 0.704830
O O19 0.250000 0.357796 0.225524
#
# Coordination Sequence:
#
# PCOD9363367 Si02
#       8
#     8   8   8   4   8   8   8   8
#     4  10  22  41  63  84 113 146 187 242 285 329
#     4  10  19  35  56  85 117 153 191 238 284 336
#     4  11  20  38  57  84 117 157 184 235 281 341
#     4  10  20  38  58  78 120 156 186 232 288 330
#     4  11  20  33  54  84 118 157 192 234 284 340
#     4   9  21  43  62  82 112 149 190 234 283 335
#     4  11  24  41  63  88 112 150 191 229 282 342
#     4   9  20  36  57  81 114 155 197 235 286 336
#
# _framework density 18.945198999999999
#
# number of rings (size 3 to 8) (size 9 to 14) (size 15 to 20)
#    0.000    1.867    2.667    1.200    0.933    3.200 
#    2.400    4.000    0.000    0.000    0.000    0.000 
#    0.000    0.000    0.000    0.000    0.000    0.000 
#
# Total GULP energy -167007.982576 kJ/mol
# GULP energy per Si atom -5566.932753 kJ/mol
# Density = 1.890208 g / cm^3
# Si number density = 18.945199 Si / 1000 Ang^3
#
#
#
# Elastic Constant Matrix: (Units=GPa)
#
#
# Indices 1 2 3 4 5 6 
#
# 1 122.1438 49.5346 26.1781 0.0000 0.0000 0.0000
# 2 49.5346 96.7298 15.4889 0.0000 0.0000 0.0000
# 3 26.1781 15.4889 32.2757 0.0000 0.0000 0.0000
# 4 0.0000 0.0000 0.0000 9.3549 0.0000 0.0000
# 5 0.0000 0.0000 0.0000 0.0000 5.7479 0.0000
# 6 0.0000 0.0000 0.0000 0.0000 0.0000 44.0650
#
#
#
# Elastic Compliance Matrix: (Units=1/GPa)
#
#
# Indices 1 2 3 4 5 6 
#
# 1 0.011682 -0.004837 -0.007154 0.000000 0.000000 0.000000
# 2 -0.004837 0.013201 -0.002412 0.000000 0.000000 0.000000
# 3 -0.007154 -0.002412 0.037943 0.000000 0.000000 0.000000
# 4 0.000000 0.000000 0.000000 0.106896 0.000000 0.000000
# 5 0.000000 0.000000 0.000000 0.000000 0.173975 0.000000
# 6 0.000000 0.000000 0.000000 0.000000 0.000000 0.022694
#
#
# Mechanical properties :
#
#
# Convention : Reuss Voigt Hill
#
# Bulk Modulus (GPa) = 29.39402 48.17253 38.78327
# Shear Modulus (GPa) = 12.29901 22.49673 17.39787
#
# Velocity S-wave (km/s) = 2.55068 3.44970 3.03368
# Velocity P-wave (km/s) = 4.92175 6.43037 5.72596
#
# Compressibility (1/GPa) = 0.03402053
#
# Stress axis : x y z
#
# Youngs Moduli (GPa) = 85.60372 75.75098 26.35539
#
# Poissons Ratio (x) = 0.36638 0.18854
# Poissons Ratio (y) = 0.41403 0.06358
# Poissons Ratio (z) = 0.61239 0.18273
#
# Static dielectric constant tensor:
#      x y z
#    x 1.650330 0.000000 0.000000 
#    y 0.000000 1.630530 0.000000 
#    z 0.000000 0.000000 1.693900 
# 
# From -- ./inp_files/15524.got.cif
#   From: 2010.05.17/outbox.cif.g08.bks.cpg/sg40_8_cif.got.tgz:15524.got - 2010.06.03 18:35:42.
