data_PCOD9363712
_publ_section_title
;
Structure prediction by ZEFSAII (Michael W. Deem and Ramdas Pophale) SiO2 
 PCOD9363712
Probable space group: A M A 2
;
_chemical_formula_sum "Si O2"
_cell_formula_units_Z 64
_cell_length_a 18.538337
_cell_length_b 21.469701
_cell_length_c 7.615500
_cell_angle_alpha 90.000000
_cell_angle_beta 90.000000
_cell_angle_gamma 90.000000
_cell_volume 3031.064593
_symmetry_space_group_name_H-M "A M A 2"
_symmetry_group_IT_number 40
_symmetry_cell_setting 'orthorhombic'
loop_
_space_group_symop_operation_xyz
x,y,z
-x,-y,z
1/2-x,y,z
1/2+x,-y,z
x,1/2+y,1/2+z
-x,1/2-y,1/2+z
1/2-x,1/2+y,1/2+z
1/2+x,1/2-y,1/2+z
loop_
_atom_site_type_symbol
_atom_site_label
_atom_site_fract_x
_atom_site_fract_y
_atom_site_fract_z
Si Si1 0.664927 0.499424 0.569970
Si Si2 0.418888 0.254026 0.924225
Si Si3 0.333770 0.875555 0.436485
Si Si4 0.414032 0.747384 0.002633
Si Si5 0.829696 0.860805 0.936474
Si Si6 0.331402 0.625998 0.018439
Si Si7 0.332162 0.368466 0.506173
Si Si8 0.085617 0.000051 0.430873
O O1 0.750000 0.504604 0.629329
O O2 0.657057 0.431974 0.486486
O O3 0.652810 0.560376 0.450199
O O4 0.607741 0.501297 0.726119
O O5 0.373409 0.312514 0.993511
O O6 0.408394 0.251041 0.714128
O O7 0.388419 0.188948 0.996983
O O8 0.502906 0.261724 0.958097
O O9 0.250000 0.877659 0.487947
O O10 0.335591 0.873170 0.220952
O O11 0.376103 0.936988 0.498963
O O12 0.368232 0.687790 0.939984
O O13 0.383899 0.814082 0.940712
O O14 0.750000 0.842184 0.001259
O O15 0.826985 0.860886 0.725728
O O16 0.250000 0.616155 0.950227
O O17 0.378156 0.563857 0.996262
O O18 0.250000 0.351782 0.461182
O O19 0.000000 0.000000 0.458178
#
# Coordination Sequence:
#
# PCOD9363712 Si02
#       8
#     8   8   8   8   8   8   8   8
#     4   9  18  34  55  78 103 135 177 216 252 301
#     4  10  20  34  53  76 104 133 167 211 259 305
#     4   9  17  32  53  73  95 131 176 210 240 290
#     4  10  20  34  52  76 102 132 167 211 260 307
#     4   9  19  35  55  78 104 138 177 215 258 311
#     4  10  20  36  56  77 104 139 176 213 258 313
#     4   8  15  30  52  74  95 127 172 212 243 290
#     4  11  21  33  52  80 109 135 168 214 262 307
#
# _framework density 21.114692999999999
#
# number of rings (size 3 to 8) (size 9 to 14) (size 15 to 20)
#    0.000    2.500    0.000    3.375    0.000    7.000 
#    0.000    4.375    0.000    3.750    0.000    0.000 
#    0.000    0.000    0.000    0.000    0.000    0.000 
#
# Total GULP energy -178578.891914 kJ/mol
# GULP energy per Si atom -5580.590372 kJ/mol
# Density = 2.106664 g / cm^3
# Si number density = 21.114693 Si / 1000 Ang^3
#
#
#
# Elastic Constant Matrix: (Units=GPa)
#
#
# Indices 1 2 3 4 5 6 
#
# 1 175.8570 112.0107 5.2237 0.0000 0.0000 0.0000
# 2 112.0107 183.9397 1.0187 0.0000 0.0000 0.0000
# 3 5.2237 1.0187 26.6897 0.0000 0.0000 0.0000
# 4 0.0000 0.0000 0.0000 15.3851 0.0000 0.0000
# 5 0.0000 0.0000 0.0000 0.0000 6.8879 0.0000
# 6 0.0000 0.0000 0.0000 0.0000 0.0000 60.0092
#
#
#
# Elastic Compliance Matrix: (Units=1/GPa)
#
#
# Indices 1 2 3 4 5 6 
#
# 1 0.009359 -0.005690 -0.001614 0.000000 0.000000 0.000000
# 2 -0.005690 0.008897 0.000774 0.000000 0.000000 0.000000
# 3 -0.001614 0.000774 0.037754 0.000000 0.000000 0.000000
# 4 0.000000 0.000000 0.000000 0.064998 0.000000 0.000000
# 5 0.000000 0.000000 0.000000 0.000000 0.145183 0.000000
# 6 0.000000 0.000000 0.000000 0.000000 0.000000 0.016664
#
#
# Mechanical properties :
#
#
# Convention : Reuss Voigt Hill
#
# Bulk Modulus (GPa) = 23.28344 69.22142 46.25243
# Shear Modulus (GPa) = 16.11695 34.33864 25.22780
#
# Velocity S-wave (km/s) = 2.76580 4.03711 3.46034
# Velocity P-wave (km/s) = 4.60983 7.38821 6.15777
#
# Compressibility (1/GPa) = 0.04294899
#
# Stress axis : x y z
#
# Youngs Moduli (GPa) = 106.85356 112.39456 26.48723
#
# Poissons Ratio (x) = 0.63953 0.04276
# Poissons Ratio (y) = 0.60800 -0.02050
# Poissons Ratio (z) = 0.17251 -0.08700
#
# Static dielectric constant tensor:
#      x y z
#    x 1.728450 0.000000 0.000000 
#    y 0.000000 1.780280 0.000000 
#    z 0.000000 0.000000 1.814790 
# 
# From -- ./inp_files/7820.got.cif
#   From: 2010.05.17/outbox.cif.g08.bks.cpg/sg40_4_cif.got.tgz:7820.got - 2010.06.03 18:35:42.
