data_PCOD9363810
_publ_section_title
;
Structure prediction by ZEFSAII (Michael W. Deem and Ramdas Pophale) SiO2 
 PCOD9363810
Probable space group: A M A 2
;
_chemical_formula_sum "Si O2"
_cell_formula_units_Z 64
_cell_length_a 8.792881
_cell_length_b 23.714695
_cell_length_c 19.410458
_cell_angle_alpha 90.000000
_cell_angle_beta 90.000000
_cell_angle_gamma 90.000000
_cell_volume 4047.478234
_symmetry_space_group_name_H-M "A M A 2"
_symmetry_group_IT_number 40
_symmetry_cell_setting 'orthorhombic'
loop_
_space_group_symop_operation_xyz
x,y,z
-x,-y,z
1/2-x,y,z
1/2+x,-y,z
x,1/2+y,1/2+z
-x,1/2-y,1/2+z
1/2-x,1/2+y,1/2+z
1/2+x,1/2-y,1/2+z
loop_
_atom_site_type_symbol
_atom_site_label
_atom_site_fract_x
_atom_site_fract_y
_atom_site_fract_z
Si Si1 0.432430 0.336841 0.826460
Si Si2 0.932109 0.339059 0.280789
Si Si3 0.568653 0.228299 0.190590
Si Si4 0.067635 0.937762 0.692610
Si Si5 0.932358 0.617117 0.044775
Si Si6 0.931196 0.228243 0.902964
Si Si7 0.568730 0.937965 0.408238
Si Si8 0.930841 0.250369 0.546268
O O1 0.250000 0.337811 0.834742
O O2 0.467118 0.318838 0.747981
O O3 0.497686 0.286647 0.874097
O O4 0.503573 0.395000 0.851407
O O5 0.750000 0.341769 0.287283
O O6 0.968096 0.288029 0.227439
O O7 0.998704 0.395965 0.249422
O O8 0.004821 0.320191 0.352915
O O9 0.750000 0.227440 0.178139
O O10 0.481640 0.224263 0.119087
O O11 0.250000 0.939039 0.698461
O O12 0.029553 0.911986 0.617351
O O13 0.000000 0.000000 0.698335
O O14 0.750000 0.612189 0.034009
O O15 0.969943 0.683486 0.047470
O O16 0.016359 0.587175 0.981865
O O17 0.750000 0.230996 0.898387
O O18 0.985235 0.222457 0.981308
O O19 0.750000 0.939958 0.405085
O O20 0.500000 0.000000 0.400229
O O21 0.750000 0.255008 0.537317
#
# Coordination Sequence:
#
# PCOD9363810 Si02
#       8
#     8   8   8   8   8   8   8   8
#     4  10  20  36  53  74 103 134 171 216 260 306
#     4  10  20  35  53  74 101 135 172 216 262 306
#     4   9  19  33  52  75 102 133 168 211 260 310
#     4  11  22  36  52  74 102 139 180 218 258 305
#     4  10  21  35  50  72 105 141 179 218 253 298
#     4  11  21  33  52  76 103 135 172 213 259 312
#     4  12  24  36  53  74 101 140 180 219 258 305
#     4  11  20  32  52  77 107 139 171 212 257 307
#
# _framework density 15.812315
#
# number of rings (size 3 to 8) (size 9 to 14) (size 15 to 20)
#    0.000    1.500    2.500    4.875    0.000    5.000 
#    0.000    0.000    0.000    0.000    0.000    0.875 
#    0.000    4.000    0.000    0.000    0.000    0.000 
#
# Total GULP energy -178773.619938 kJ/mol
# GULP energy per Si atom -5586.675623 kJ/mol
# Density = 1.577633 g / cm^3
# Si number density = 15.812315 Si / 1000 Ang^3
#
#
#
# Elastic Constant Matrix: (Units=GPa)
#
#
# Indices 1 2 3 4 5 6 
#
# 1 83.6801 50.7250 67.5204 0.0000 0.0000 0.0000
# 2 50.7250 94.8665 67.8001 0.0000 0.0000 0.0000
# 3 67.5204 67.8001 127.2378 0.0000 0.0000 0.0000
# 4 0.0000 0.0000 0.0000 20.1096 0.0000 0.0000
# 5 0.0000 0.0000 0.0000 0.0000 29.5105 0.0000
# 6 0.0000 0.0000 0.0000 0.0000 0.0000 24.7712
#
#
#
# Elastic Compliance Matrix: (Units=1/GPa)
#
#
# Indices 1 2 3 4 5 6 
#
# 1 0.022651 -0.005686 -0.008990 0.000000 0.000000 0.000000
# 2 -0.005686 0.018452 -0.006815 0.000000 0.000000 0.000000
# 3 -0.008990 -0.006815 0.016261 0.000000 0.000000 0.000000
# 4 0.000000 0.000000 0.000000 0.049727 0.000000 0.000000
# 5 0.000000 0.000000 0.000000 0.000000 0.033886 0.000000
# 6 0.000000 0.000000 0.000000 0.000000 0.000000 0.040369
#
#
# Mechanical properties :
#
#
# Convention : Reuss Voigt Hill
#
# Bulk Modulus (GPa) = 69.53141 75.31950 72.42545
# Shear Modulus (GPa) = 21.82216 22.86085 22.34151
#
# Velocity S-wave (km/s) = 3.71896 3.80644 3.76296
# Velocity P-wave (km/s) = 7.90628 8.18874 8.04875
#
# Compressibility (1/GPa) = 0.01438199
#
# Stress axis : x y z
#
# Youngs Moduli (GPa) = 44.14765 54.19406 61.49540
#
# Poissons Ratio (x) = 0.30817 0.55285
# Poissons Ratio (y) = 0.25105 0.41908
# Poissons Ratio (z) = 0.39689 0.36933
#
# Static dielectric constant tensor:
#      x y z
#    x 1.522230 0.000000 0.000000 
#    y 0.000000 1.503270 0.000000 
#    z 0.000000 0.000000 1.521610 
# 
# From -- ./inp_files/15694.got.cif
#   From: 2010.05.17/outbox.cif.g08.bks.cpg/sg40_8_cif.got.tgz:15694.got - 2010.06.03 18:35:42.
