data_PCOD9363158
_publ_section_title
;
Structure prediction by ZEFSAII (Michael W. Deem and Ramdas Pophale) SiO2 
 PCOD9363158
Probable space group: A M A 2
;
_chemical_formula_sum "Si O2"
_cell_formula_units_Z 64
_cell_length_a 8.014930
_cell_length_b 17.176788
_cell_length_c 22.701387
_cell_angle_alpha 90.000000
_cell_angle_beta 90.000000
_cell_angle_gamma 90.000000
_cell_volume 3125.317053
_symmetry_space_group_name_H-M "A M A 2"
_symmetry_group_IT_number 40
_symmetry_cell_setting 'orthorhombic'
loop_
_space_group_symop_operation_xyz
x,y,z
-x,-y,z
1/2-x,y,z
1/2+x,-y,z
x,1/2+y,1/2+z
-x,1/2-y,1/2+z
1/2-x,1/2+y,1/2+z
1/2+x,1/2-y,1/2+z
loop_
_atom_site_type_symbol
_atom_site_label
_atom_site_fract_x
_atom_site_fract_y
_atom_site_fract_z
Si Si1 0.054104 0.751771 0.190870
Si Si2 0.549960 0.918006 0.150819
Si Si3 0.449439 0.082533 0.479504
Si Si4 0.951733 0.413046 0.844271
Si Si5 0.944924 0.889738 0.020288
Si Si6 0.546812 0.776169 0.558512
Si Si7 0.442443 0.762575 0.816953
Si Si8 0.948458 0.415478 0.389799
O O1 0.250000 0.736627 0.198359
O O2 0.999439 0.720029 0.127112
O O3 0.023718 0.844324 0.184224
O O4 0.961687 0.719659 0.247769
O O5 0.750000 0.909320 0.149980
O O6 0.482636 0.917749 0.083093
O O7 0.500000 0.000000 0.177733
O O8 0.250000 0.087943 0.475969
O O9 0.510463 0.087326 0.412475
O O10 0.507680 0.150136 0.521628
O O11 0.500000 0.000000 0.504564
O O12 0.750000 0.411789 0.839818
O O13 0.011662 0.326881 0.822656
O O14 0.000000 0.500000 0.820908
O O15 0.750000 0.912356 0.020357
O O16 0.964673 0.797706 0.027682
O O17 0.019585 0.912240 0.957115
O O18 0.750000 0.767448 0.556480
O O19 0.250000 0.756624 0.834464
O O20 0.509330 0.835872 0.854712
O O21 0.750000 0.416079 0.394455
O O22 0.000000 0.500000 0.363992
#
# Coordination Sequence:
#
# PCOD9363158 Si02
#       8
#     8   8   8   8   8   8   8   8
#     4  10  21  37  55  76 103 140 183 228 274 324
#     4  10  19  33  53  80 112 144 177 217 267 328
#     4   9  17  31  50  76 105 132 164 207 258 317
#     4   9  19  34  55  82 112 143 177 217 267 325
#     4   9  19  33  53  82 113 141 174 218 272 332
#     4   9  18  33  54  77 105 140 177 217 268 326
#     4  11  23  40  59  80 109 149 192 236 282 331
#     4  11  23  39  59  85 114 147 187 234 285 339
#
# _framework density 20.477923000000001
#
# number of rings (size 3 to 8) (size 9 to 14) (size 15 to 20)
#    0.000    2.250    0.000    2.625    0.000    5.000 
#    0.000    4.375    0.000    1.500    0.000    0.000 
#    0.000    0.000    0.000    0.000    0.000    0.000 
#
# Total GULP energy -178379.315419 kJ/mol
# GULP energy per Si atom -5574.353607 kJ/mol
# Density = 2.043131 g / cm^3
# Si number density = 20.477923 Si / 1000 Ang^3
#
#
#
# Elastic Constant Matrix: (Units=GPa)
#
#
# Indices 1 2 3 4 5 6 
#
# 1 24.3890 8.8229 2.8698 0.0000 0.0000 0.0000
# 2 8.8229 123.1295 53.6683 0.0000 0.0000 0.0000
# 3 2.8698 53.6683 88.0297 0.0000 0.0000 0.0000
# 4 0.0000 0.0000 0.0000 -6.3448 0.0000 0.0000
# 5 0.0000 0.0000 0.0000 0.0000 16.5898 0.0000
# 6 0.0000 0.0000 0.0000 0.0000 0.0000 28.9083
#
#
#
# Elastic Compliance Matrix: (Units=1/GPa)
#
#
# Indices 1 2 3 4 5 6 
#
# 1 0.042119 -0.003295 0.000636 0.000000 0.000000 0.000000
# 2 -0.003295 0.011319 -0.006793 0.000000 0.000000 0.000000
# 3 0.000636 -0.006793 0.015481 0.000000 0.000000 0.000000
# 4 0.000000 0.000000 0.000000 -0.157610 0.000000 0.000000
# 5 0.000000 0.000000 0.000000 0.000000 0.060278 0.000000
# 6 0.000000 0.000000 0.000000 0.000000 0.000000 0.034592
#
#
# Mechanical properties :
#
#
# Convention : Reuss Voigt Hill
#
# Bulk Modulus (GPa) = 19.99458 40.69670 30.34564
# Shear Modulus (GPa) = 119.74845 19.17648 69.46247
#
# Velocity S-wave (km/s) = 7.65531 3.06346 5.83046
# Velocity P-wave (km/s) = 9.37676 5.69470 7.75736
#
# Compressibility (1/GPa) = 0.05001356
#
# Stress axis : x y z
#
# Youngs Moduli (GPa) = 23.74208 88.35061 64.59721
#
# Poissons Ratio (x) = 0.29114 -0.04108
# Poissons Ratio (y) = 0.07824 0.43881
# Poissons Ratio (z) = -0.01510 0.60017
#
# Static dielectric constant tensor:
#      x y z
#    x 1.732130 0.000000 0.000000 
#    y 0.000000 1.753710 0.000000 
#    z 0.000000 0.000000 1.745060 
# 
# From -- ./inp_files/24296.got.cif
#   From: 2010.05.17/outbox.cif.g08.bks.cpg/sg40_13_cif.got.tgz:24296.got - 2010.06.03 18:35:42.
