data_PCOD9363831
_publ_section_title
;
Structure prediction by ZEFSAII (Michael W. Deem and Ramdas Pophale) SiO2 
 PCOD9363831
Probable space group: A M A 2
;
_chemical_formula_sum "Si O2"
_cell_formula_units_Z 64
_cell_length_a 8.342419
_cell_length_b 33.781557
_cell_length_c 12.064250
_cell_angle_alpha 90.000000
_cell_angle_beta 90.000000
_cell_angle_gamma 90.000000
_cell_volume 3399.945764
_symmetry_space_group_name_H-M "A M A 2"
_symmetry_group_IT_number 40
_symmetry_cell_setting 'orthorhombic'
loop_
_space_group_symop_operation_xyz
x,y,z
-x,-y,z
1/2-x,y,z
1/2+x,-y,z
x,1/2+y,1/2+z
-x,1/2-y,1/2+z
1/2-x,1/2+y,1/2+z
1/2+x,1/2-y,1/2+z
loop_
_atom_site_type_symbol
_atom_site_label
_atom_site_fract_x
_atom_site_fract_y
_atom_site_fract_z
Si Si1 0.059848 0.623442 0.512450
Si Si2 0.935591 0.600590 0.062268
Si Si3 0.559070 0.275899 0.139246
Si Si4 0.557853 0.686957 0.690979
Si Si5 0.942471 0.545457 0.625972
Si Si6 0.562701 0.827338 0.434916
Si Si7 0.942488 0.647496 0.269754
Si Si8 0.943949 0.044725 0.374812
O O1 0.250000 0.624963 0.522596
O O2 0.985084 0.653964 0.600772
O O3 0.003674 0.578797 0.541678
O O4 0.009523 0.637587 0.390089
O O5 0.750000 0.590170 0.082504
O O6 0.008945 0.567441 0.982499
O O7 0.949589 0.639149 0.985276
O O8 0.004545 0.615133 0.179462
O O9 0.750000 0.276945 0.158295
O O10 0.504287 0.231123 0.156457
O O11 0.486378 0.309300 0.220321
O O12 0.531815 0.289366 0.012429
O O13 0.750000 0.687043 0.705258
O O14 0.475567 0.678162 0.807627
O O15 0.750000 0.544982 0.623063
O O16 0.994115 0.558526 0.751301
O O17 0.000000 0.500000 0.607873
O O18 0.750000 0.838360 0.450448
O O19 0.750000 0.645189 0.273522
O O20 0.750000 0.047472 0.376867
O O21 0.000000 0.000000 0.381637
#
# Coordination Sequence:
#
# PCOD9363831 Si02
#       8
#     8   8   8   8   8   8   8   8
#     4  12  25  40  59  86 117 154 202 249 297 356
#     4   9  18  35  57  80 108 147 187 227 278 343
#     4   9  21  39  57  81 113 148 188 237 290 346
#     4  11  23  38  57  83 114 150 190 238 293 349
#     4  10  20  37  61  89 122 157 193 241 298 355
#     4  10  20  35  55  81 109 141 183 232 281 336
#     4  10  21  38  60  82 112 154 197 241 292 349
#     4   9  18  32  54  84 115 143 178 225 280 340
#
# _framework density 18.823829
#
# number of rings (size 3 to 8) (size 9 to 14) (size 15 to 20)
#    0.000    2.000    0.000    3.375    1.750    4.000 
#    0.000    0.625    0.000    1.500    0.000    0.000 
#    0.000    0.000    0.000    0.000    0.000    0.000 
#
# Total GULP energy -178488.815611 kJ/mol
# GULP energy per Si atom -5577.775488 kJ/mol
# Density = 1.878098 g / cm^3
# Si number density = 18.823829 Si / 1000 Ang^3
#
#
#
# Elastic Constant Matrix: (Units=GPa)
#
#
# Indices 1 2 3 4 5 6 
#
# 1 30.1381 3.5535 4.7582 0.0000 0.0000 0.0000
# 2 3.5535 68.6285 43.5054 0.0000 0.0000 0.0000
# 3 4.7582 43.5054 117.7697 0.0000 0.0000 0.0000
# 4 0.0000 0.0000 0.0000 8.4585 0.0000 0.0000
# 5 0.0000 0.0000 0.0000 0.0000 25.1829 0.0000
# 6 0.0000 0.0000 0.0000 0.0000 0.0000 27.1559
#
#
#
# Elastic Compliance Matrix: (Units=1/GPa)
#
#
# Indices 1 2 3 4 5 6 
#
# 1 0.033462 -0.001143 -0.000930 0.000000 0.000000 0.000000
# 2 -0.001143 0.019066 -0.006997 0.000000 0.000000 0.000000
# 3 -0.000930 -0.006997 0.011113 0.000000 0.000000 0.000000
# 4 0.000000 0.000000 0.000000 0.118224 0.000000 0.000000
# 5 0.000000 0.000000 0.000000 0.000000 0.039710 0.000000
# 6 0.000000 0.000000 0.000000 0.000000 0.000000 0.036824
#
#
# Mechanical properties :
#
#
# Convention : Reuss Voigt Hill
#
# Bulk Modulus (GPa) = 21.97719 35.57450 28.77584
# Shear Modulus (GPa) = 17.14049 23.14074 20.14061
#
# Velocity S-wave (km/s) = 3.02085 3.50999 3.27456
# Velocity P-wave (km/s) = 4.88548 5.94696 5.44216
#
# Compressibility (1/GPa) = 0.04550173
#
# Stress axis : x y z
#
# Youngs Moduli (GPa) = 29.88455 52.44945 89.98092
#
# Poissons Ratio (x) = 0.05997 0.08364
# Poissons Ratio (y) = 0.03417 0.62959
# Poissons Ratio (z) = 0.02778 0.36699
#
# Static dielectric constant tensor:
#      x y z
#    x 1.652160 0.000000 0.000000 
#    y 0.000000 1.655100 0.000000 
#    z 0.000000 0.000000 1.662320 
# 
# From -- ./inp_files/10550.got.cif
#   From: 2010.05.17/outbox.cif.g08.bks.cpg/sg40_6_cif.got.tgz:10550.got - 2010.06.03 18:35:42.
