data_PCOD9363653
_publ_section_title
;
Structure prediction by ZEFSAII (Michael W. Deem and Ramdas Pophale) SiO2 
 PCOD9363653
Probable space group: A M A 2
;
_chemical_formula_sum "Si O2"
_cell_formula_units_Z 64
_cell_length_a 8.704740
_cell_length_b 30.955579
_cell_length_c 14.767330
_cell_angle_alpha 90.000000
_cell_angle_beta 90.000000
_cell_angle_gamma 90.000000
_cell_volume 3979.208681
_symmetry_space_group_name_H-M "A M A 2"
_symmetry_group_IT_number 40
_symmetry_cell_setting 'orthorhombic'
loop_
_space_group_symop_operation_xyz
x,y,z
-x,-y,z
1/2-x,y,z
1/2+x,-y,z
x,1/2+y,1/2+z
-x,1/2-y,1/2+z
1/2-x,1/2+y,1/2+z
1/2+x,1/2-y,1/2+z
loop_
_atom_site_type_symbol
_atom_site_label
_atom_site_fract_x
_atom_site_fract_y
_atom_site_fract_z
Si Si1 0.570413 0.825292 0.694490
Si Si2 0.565409 0.203536 0.366221
Si Si3 0.066157 0.209777 0.978668
Si Si4 0.569923 0.631366 0.367953
Si Si5 0.932590 0.768092 0.185612
Si Si6 0.433446 0.366683 0.016066
Si Si7 0.933055 0.452960 0.296780
Si Si8 0.934680 0.952531 0.584987
O O1 0.750000 0.833789 0.711484
O O2 0.470213 0.848196 0.770657
O O3 0.531744 0.775012 0.698775
O O4 0.520366 0.842590 0.597339
O O5 0.750000 0.206328 0.352355
O O6 0.518690 0.246797 0.423287
O O7 0.479095 0.202660 0.270647
O O8 0.534825 0.161125 0.426317
O O9 0.250000 0.207057 0.968140
O O10 0.032706 0.214588 0.085204
O O11 0.994368 0.166451 0.938161
O O12 0.750000 0.626619 0.380170
O O13 0.493382 0.584310 0.362628
O O14 0.750000 0.758126 0.188391
O O15 0.250000 0.365160 0.031696
O O16 0.491947 0.415709 0.022299
O O17 0.750000 0.454403 0.300184
O O18 0.975429 0.443190 0.191072
O O19 0.000000 0.500000 0.317971
O O20 0.750000 0.951983 0.577926
O O21 0.000000 0.000000 0.564743
#
# Coordination Sequence:
#
# PCOD9363653 Si02
#       8
#     8   8   8   8   8   8   8   8
#     4  12  22  32  49  73 105 141 176 217 260 306
#     4  10  21  36  53  75 106 139 174 216 264 310
#     4  10  21  37  53  74 105 139 175 218 262 307
#     4  12  23  34  52  77 104 140 181 216 257 312
#     4  11  22  37  54  74 102 138 180 222 261 304
#     4  11  21  35  53  75 105 141 178 217 259 310
#     4  10  20  34  52  76 107 140 172 213 260 308
#     4  10  20  33  51  76 106 140 174 213 259 310
#
# _framework density 16.083600000000001
#
# number of rings (size 3 to 8) (size 9 to 14) (size 15 to 20)
#    0.000    1.250    3.750    3.750    0.000    3.000 
#    0.000    0.000    0.000    0.000    0.000    0.875 
#    0.000    2.000    0.000    0.000    0.000    0.000 
#
# Total GULP energy -178687.838301 kJ/mol
# GULP energy per Si atom -5583.994947 kJ/mol
# Density = 1.604699 g / cm^3
# Si number density = 16.083600 Si / 1000 Ang^3
#
#
#
# Elastic Constant Matrix: (Units=GPa)
#
#
# Indices 1 2 3 4 5 6 
#
# 1 34.8151 29.1408 17.1478 0.0000 0.0000 0.0000
# 2 29.1408 106.5205 25.6379 0.0000 0.0000 0.0000
# 3 17.1478 25.6379 63.9889 0.0000 0.0000 0.0000
# 4 0.0000 0.0000 0.0000 19.4412 0.0000 0.0000
# 5 0.0000 0.0000 0.0000 0.0000 71.6890 0.0000
# 6 0.0000 0.0000 0.0000 0.0000 0.0000 25.5364
#
#
#
# Elastic Compliance Matrix: (Units=1/GPa)
#
#
# Indices 1 2 3 4 5 6 
#
# 1 0.039893 -0.009231 -0.006992 0.000000 0.000000 0.000000
# 2 -0.009231 0.012526 -0.002545 0.000000 0.000000 0.000000
# 3 -0.006992 -0.002545 0.018521 0.000000 0.000000 0.000000
# 4 0.000000 0.000000 0.000000 0.051437 0.000000 0.000000
# 5 0.000000 0.000000 0.000000 0.000000 0.013949 0.000000
# 6 0.000000 0.000000 0.000000 0.000000 0.000000 0.039160
#
#
# Mechanical properties :
#
#
# Convention : Reuss Voigt Hill
#
# Bulk Modulus (GPa) = 29.93616 38.79751 34.36683
# Shear Modulus (GPa) = 22.30582 32.22651 27.26617
#
# Velocity S-wave (km/s) = 3.72811 4.48111 4.12184
# Velocity P-wave (km/s) = 6.09795 7.13783 6.63828
#
# Compressibility (1/GPa) = 0.03340442
#
# Stress axis : x y z
#
# Youngs Moduli (GPa) = 25.06685 79.83634 53.99233
#
# Poissons Ratio (x) = 0.73694 0.37753
# Poissons Ratio (y) = 0.23138 0.13740
# Poissons Ratio (z) = 0.17527 0.20317
#
# Static dielectric constant tensor:
#      x y z
#    x 1.537290 0.000000 0.000000 
#    y 0.000000 1.552910 0.000000 
#    z 0.000000 0.000000 1.531860 
# 
# From -- ./inp_files/10605.got.cif
#   From: 2010.05.17/outbox.cif.g08.bks.cpg/sg40_6_cif.got.tgz:10605.got - 2010.06.03 18:35:42.
