data_PCOD9363988
_publ_section_title
;
Structure prediction by ZEFSAII (Michael W. Deem and Ramdas Pophale) SiO2 
 PCOD9363988
Probable space group: A M A 2
;
_chemical_formula_sum "Si O2"
_cell_formula_units_Z 64
_cell_length_a 22.312807
_cell_length_b 10.202637
_cell_length_c 14.106816
_cell_angle_alpha 90.000000
_cell_angle_beta 90.000000
_cell_angle_gamma 90.000000
_cell_volume 3211.409190
_symmetry_space_group_name_H-M "A M A 2"
_symmetry_group_IT_number 40
_symmetry_cell_setting 'orthorhombic'
loop_
_space_group_symop_operation_xyz
x,y,z
-x,-y,z
1/2-x,y,z
1/2+x,-y,z
x,1/2+y,1/2+z
-x,1/2-y,1/2+z
1/2-x,1/2+y,1/2+z
1/2+x,1/2-y,1/2+z
loop_
_atom_site_type_symbol
_atom_site_label
_atom_site_fract_x
_atom_site_fract_y
_atom_site_fract_z
Si Si1 0.647028 0.068875 0.204880
Si Si2 0.485165 0.641511 0.069368
Si Si3 0.060998 0.206463 0.748525
Si Si4 0.380731 0.229323 0.438260
Si Si5 0.316274 0.966024 0.415172
Si Si6 0.681320 0.010552 0.996693
Si Si7 0.593125 0.267512 0.463078
Si Si8 0.544042 0.891100 0.270019
O O1 0.620718 0.213964 0.222168
O O2 0.681878 0.031476 0.300377
O O3 0.680308 0.054418 0.106664
O O4 0.589495 0.971564 0.204937
O O5 0.500000 0.500000 0.024709
O O6 0.453835 0.598732 0.170543
O O7 0.431122 0.719468 0.018798
O O8 0.544009 0.727537 0.041393
O O9 0.062339 0.191442 0.861896
O O10 0.003770 0.297086 0.722522
O O11 0.347961 0.368325 0.439432
O O12 0.416723 0.192039 0.342933
O O13 0.334284 0.109800 0.451204
O O14 0.250000 0.927872 0.447420
O O15 0.366753 0.861861 0.444269
O O16 0.750000 0.984555 0.967347
O O17 0.638578 0.884422 0.987916
O O18 0.500000 0.000000 0.316933
#
# Coordination Sequence:
#
# PCOD9363988 Si02
#       8
#     8   8   8   8   8   8   8   8
#     4   9  19  35  60  87 117 159 208 250 302 358
#     4  12  22  39  63  93 124 158 204 258 310 377
#     4  10  20  36  58  90 125 159 196 246 319 375
#     4  11  21  37  62  89 120 158 203 252 305 358
#     4  10  20  39  65  87 115 166 215 247 295 365
#     4  12  25  41  59  90 129 163 207 259 305 362
#     4  11  24  40  63  91 126 166 200 256 314 373
#     4   9  17  34  60  88 122 154 196 250 302 375
#
# _framework density 19.928944000000001
#
# number of rings (size 3 to 8) (size 9 to 14) (size 15 to 20)
#    0.000    1.500    3.750    3.000    0.000    1.500 
#    0.000    0.000    0.000    0.000    0.000    0.000 
#    0.000    0.000    0.000    0.000    0.000    0.000 
#
# Total GULP energy -178220.889827 kJ/mol
# GULP energy per Si atom -5569.402807 kJ/mol
# Density = 1.988359 g / cm^3
# Si number density = 19.928944 Si / 1000 Ang^3
#
#
#
# Elastic Constant Matrix: (Units=GPa)
#
#
# Indices 1 2 3 4 5 6 
#
# 1 117.1161 24.8569 24.1294 0.0000 0.0000 0.0000
# 2 24.8569 67.2971 6.5400 0.0000 0.0000 0.0000
# 3 24.1294 6.5400 36.9141 0.0000 0.0000 0.0000
# 4 0.0000 0.0000 0.0000 12.4085 0.0000 0.0000
# 5 0.0000 0.0000 0.0000 0.0000 13.2989 0.0000
# 6 0.0000 0.0000 0.0000 0.0000 0.0000 23.3109
#
#
#
# Elastic Compliance Matrix: (Units=1/GPa)
#
#
# Indices 1 2 3 4 5 6 
#
# 1 0.010533 -0.003278 -0.006304 0.000000 0.000000 0.000000
# 2 -0.003278 0.016140 -0.000717 0.000000 0.000000 0.000000
# 3 -0.006304 -0.000717 0.031338 0.000000 0.000000 0.000000
# 4 0.000000 0.000000 0.000000 0.080590 0.000000 0.000000
# 5 0.000000 0.000000 0.000000 0.000000 0.075194 0.000000
# 6 0.000000 0.000000 0.000000 0.000000 0.000000 0.042898
#
#
# Mechanical properties :
#
#
# Convention : Reuss Voigt Hill
#
# Bulk Modulus (GPa) = 26.72891 36.93110 31.83001
# Shear Modulus (GPa) = 17.25553 20.85707 19.05630
#
# Velocity S-wave (km/s) = 2.94573 3.23859 3.09562
# Velocity P-wave (km/s) = 5.00110 5.70580 5.36503
#
# Compressibility (1/GPa) = 0.03741268
#
# Stress axis : x y z
#
# Youngs Moduli (GPa) = 94.93860 61.95839 31.91025
#
# Poissons Ratio (x) = 0.20309 0.20117
# Poissons Ratio (y) = 0.31119 0.02287
# Poissons Ratio (z) = 0.59853 0.04441
#
# Static dielectric constant tensor:
#      x y z
#    x 1.691530 0.000000 0.000000 
#    y 0.000000 1.846050 0.000000 
#    z 0.000000 0.000000 1.774340 
# 
# From -- ./inp_files/18549.got.cif
#   From: 2010.05.17/outbox.cif.g08.bks.cpg/sg40_10_cif.got.tgz:18549.got - 2010.06.03 18:35:42.
