data_PCOD9363695
_publ_section_title
;
Structure prediction by ZEFSAII (Michael W. Deem and Ramdas Pophale) SiO2 
 PCOD9363695
Probable space group: A M A 2
;
_chemical_formula_sum "Si O2"
_cell_formula_units_Z 64
_cell_length_a 14.072522
_cell_length_b 10.009989
_cell_length_c 18.814995
_cell_angle_alpha 90.000000
_cell_angle_beta 90.000000
_cell_angle_gamma 90.000000
_cell_volume 2650.389142
_symmetry_space_group_name_H-M "A M A 2"
_symmetry_group_IT_number 40
_symmetry_cell_setting 'orthorhombic'
loop_
_space_group_symop_operation_xyz
x,y,z
-x,-y,z
1/2-x,y,z
1/2+x,-y,z
x,1/2+y,1/2+z
-x,1/2-y,1/2+z
1/2-x,1/2+y,1/2+z
1/2+x,1/2-y,1/2+z
loop_
_atom_site_type_symbol
_atom_site_label
_atom_site_fract_x
_atom_site_fract_y
_atom_site_fract_z
Si Si1 0.140539 0.140308 0.878920
Si Si2 0.640886 0.880657 0.477423
Si Si3 0.356970 0.908773 0.585061
Si Si4 0.360391 0.433598 0.847771
Si Si5 0.606993 0.955886 0.726320
Si Si6 0.986732 0.308224 0.504490
Si Si7 0.561914 0.175718 0.155342
Si Si8 0.361751 0.591603 0.717022
O O1 0.250000 0.156930 0.902717
O O2 0.101610 0.283976 0.849940
O O3 0.143080 0.051556 0.807396
O O4 0.077550 0.108745 0.948930
O O5 0.750000 0.833744 0.477590
O O6 0.614561 0.947075 0.552585
O O7 0.632974 0.005904 0.425466
O O8 0.565373 0.769803 0.458687
O O9 0.250000 0.882264 0.561588
O O10 0.355030 0.936363 0.669288
O O11 0.419674 0.796713 0.547393
O O12 0.250000 0.416913 0.827572
O O13 0.391400 0.554545 0.797495
O O14 0.607897 0.811008 0.687078
O O15 0.500000 0.000000 0.734672
O O16 0.049091 0.357191 0.571573
O O17 0.626859 0.055003 0.182621
O O18 0.452834 0.169231 0.185358
O O19 0.250000 0.636528 0.710777
#
# Coordination Sequence:
#
# PCOD9363695 Si02
#       8
#     8   8   8   8   8   8   8   8
#     4  11  24  40  65  96 129 172 218 273 341 403
#     4  10  20  33  56  94 131 165 211 277 340 390
#     4  11  21  36  62  95 134 173 217 276 338 398
#     4   9  18  34  60  93 122 155 206 260 328 392
#     4  12  23  43  64  98 139 177 221 272 342 420
#     4  12  23  40  64  93 133 175 231 281 331 404
#     4  11  24  40  66  96 123 172 224 271 335 402
#     4  10  23  43  66  93 128 165 216 282 338 397
#
# _framework density 24.147397999999999
#
# number of rings (size 3 to 8) (size 9 to 14) (size 15 to 20)
#    0.000    1.250    5.000    1.125    1.750    2.000 
#    2.250    0.000    0.000    1.500    0.000    0.000 
#    0.000    0.000    0.000    0.000    0.000    0.000 
#
# Total GULP energy -178412.075722 kJ/mol
# GULP energy per Si atom -5575.377366 kJ/mol
# Density = 2.409244 g / cm^3
# Si number density = 24.147398 Si / 1000 Ang^3
#
#
#
# Elastic Constant Matrix: (Units=GPa)
#
#
# Indices 1 2 3 4 5 6 
#
# 1 74.2985 -1.8135 12.2945 0.0000 0.0000 0.0000
# 2 -1.8135 29.0075 2.2015 0.0000 0.0000 0.0000
# 3 12.2945 2.2015 144.9548 0.0000 0.0000 0.0000
# 4 0.0000 0.0000 0.0000 18.5254 0.0000 0.0000
# 5 0.0000 0.0000 0.0000 0.0000 -1.5885 0.0000
# 6 0.0000 0.0000 0.0000 0.0000 0.0000 24.6556
#
#
#
# Elastic Compliance Matrix: (Units=1/GPa)
#
#
# Indices 1 2 3 4 5 6 
#
# 1 0.013677 0.000944 -0.001174 0.000000 0.000000 0.000000
# 2 0.000944 0.034579 -0.000605 0.000000 0.000000 0.000000
# 3 -0.001174 -0.000605 0.007007 0.000000 0.000000 0.000000
# 4 0.000000 0.000000 0.000000 0.053980 0.000000 0.000000
# 5 0.000000 0.000000 0.000000 0.000000 -0.629508 0.000000
# 6 0.000000 0.000000 0.000000 0.000000 0.000000 0.040559
#
#
# Mechanical properties :
#
#
# Convention : Reuss Voigt Hill
#
# Bulk Modulus (GPa) = 18.65947 30.40287 24.53117
# Shear Modulus (GPa) = -10.86551 24.02370 6.57910
#
# Velocity S-wave (km/s) = -2.12354 3.15759 1.65241
# Velocity P-wave (km/s) = 1.31587 5.09035 3.71774
#
# Compressibility (1/GPa) = 0.05359208
#
# Stress axis : x y z
#
# Youngs Moduli (GPa) = 73.11766 28.91941 142.70434
#
# Poissons Ratio (x) = -0.02730 0.16758
# Poissons Ratio (y) = -0.06903 0.08637
# Poissons Ratio (z) = 0.08586 0.01750
#
# Static dielectric constant tensor:
#      x y z
#    x 1.936930 0.000000 0.000000 
#    y 0.000000 2.073510 0.000000 
#    z 0.000000 0.000000 2.022200 
# 
# From -- ./inp_files/20815.got.cif
#   From: 2010.05.17/outbox.cif.g08.bks.cpg/sg40_11_cif.got.tgz:20815.got - 2010.06.03 18:35:42.
