data_PCOD9363204
_publ_section_title
;
Structure prediction by ZEFSAII (Michael W. Deem and Ramdas Pophale) SiO2 
 PCOD9363204
Probable space group: A M A 2
;
_chemical_formula_sum "Si O2"
_cell_formula_units_Z 48
_cell_length_a 16.090824
_cell_length_b 18.210788
_cell_length_c 8.960813
_cell_angle_alpha 90.000000
_cell_angle_beta 90.000000
_cell_angle_gamma 90.000000
_cell_volume 2625.756429
_symmetry_space_group_name_H-M "A M A 2"
_symmetry_group_IT_number 40
_symmetry_cell_setting 'orthorhombic'
loop_
_space_group_symop_operation_xyz
x,y,z
-x,-y,z
1/2-x,y,z
1/2+x,-y,z
x,1/2+y,1/2+z
-x,1/2-y,1/2+z
1/2-x,1/2+y,1/2+z
1/2+x,1/2-y,1/2+z
loop_
_atom_site_type_symbol
_atom_site_label
_atom_site_fract_x
_atom_site_fract_y
_atom_site_fract_z
Si Si1 0.412004 0.463734 0.769900
Si Si2 0.086757 0.040856 0.780537
Si Si3 0.995188 0.322395 0.823272
Si Si4 0.653316 0.403919 0.968426
Si Si5 0.511286 0.329619 0.467171
Si Si6 0.842275 0.590301 0.460824
O O1 0.500000 0.500000 0.718523
O O2 0.441153 0.389649 0.852972
O O3 0.366350 0.522585 0.872427
O O4 0.359314 0.441244 0.626529
O O5 0.127129 0.077880 0.637074
O O6 0.064901 0.102985 0.902797
O O7 0.144193 0.978022 0.850332
O O8 0.000000 0.000000 0.739740
O O9 0.909212 0.342795 0.904478
O O10 0.980972 0.321252 0.645081
O O11 0.029623 0.245948 0.883459
O O12 0.750000 0.384901 0.957228
O O13 0.415656 0.351840 0.434070
O O14 0.750000 0.620570 0.448192
#
# Coordination Sequence:
#
# PCOD9363204 Si02
#       6
#     8   8   8   8   8   8
#     4   9  18  34  54  77 103 137 175 209 256 317
#     4  10  19  34  54  78 105 138 176 213 256 314
#     4  10  20  36  55  77 104 140 181 215 257 315
#     4  11  21  33  54  81 108 135 171 221 266 306
#     4  10  21  36  56  77 104 142 180 214 257 316
#     4  10  19  33  55  80 106 132 167 218 268 312
#
# _framework density 18.280446999999999
#
# number of rings (size 3 to 8) (size 9 to 14) (size 15 to 20)
#    0.000    2.000    0.000    7.000    0.000    2.000 
#    0.000    0.833    0.000    8.000    0.000    0.000 
#    0.000    0.000    0.000    0.000    0.000    0.000 
#
# Total GULP energy -133994.153195 kJ/mol
# GULP energy per Si atom -5583.089716 kJ/mol
# Density = 1.823884 g / cm^3
# Si number density = 18.280447 Si / 1000 Ang^3
#
#
#
# Elastic Constant Matrix: (Units=GPa)
#
#
# Indices 1 2 3 4 5 6 
#
# 1 54.2111 -12.9981 1.4239 0.0000 0.0000 0.0000
# 2 -12.9981 58.0219 -1.5699 0.0000 0.0000 0.0000
# 3 1.4239 -1.5699 45.7969 0.0000 0.0000 0.0000
# 4 0.0000 0.0000 0.0000 25.7618 0.0000 0.0000
# 5 0.0000 0.0000 0.0000 0.0000 14.9586 0.0000
# 6 0.0000 0.0000 0.0000 0.0000 0.0000 6.8761
#
#
#
# Elastic Compliance Matrix: (Units=1/GPa)
#
#
# Indices 1 2 3 4 5 6 
#
# 1 0.019503 0.004357 -0.000457 0.000000 0.000000 0.000000
# 2 0.004357 0.018224 0.000489 0.000000 0.000000 0.000000
# 3 -0.000457 0.000489 0.021866 0.000000 0.000000 0.000000
# 4 0.000000 0.000000 0.000000 0.038817 0.000000 0.000000
# 5 0.000000 0.000000 0.000000 0.000000 0.066851 0.000000
# 6 0.000000 0.000000 0.000000 0.000000 0.000000 0.145432
#
#
# Mechanical properties :
#
#
# Convention : Reuss Voigt Hill
#
# Bulk Modulus (GPa) = 14.62599 14.63798 14.63198
# Shear Modulus (GPa) = 15.39851 20.93090 18.16471
#
# Velocity S-wave (km/s) = 2.90547 3.38744 3.15567
# Velocity P-wave (km/s) = 4.39021 4.82954 4.61511
#
# Compressibility (1/GPa) = 0.06837144
#
# Stress axis : x y z
#
# Youngs Moduli (GPa) = 51.27419 54.87237 45.73206
#
# Poissons Ratio (x) = -0.23906 0.02090
# Poissons Ratio (y) = -0.22339 -0.02238
# Poissons Ratio (z) = 0.02343 -0.02685
#
# Static dielectric constant tensor:
#      x y z
#    x 1.619990 0.000000 0.000000 
#    y 0.000000 1.619880 0.000000 
#    z 0.000000 0.000000 1.618180 
# 
# From -- ./inp_files/6416.got.cif
#   From: 2010.05.17/outbox.cif.g08.bks.cpg/sg40_4_cif.got.tgz:6416.got - 2010.06.03 18:35:42.
