data_PCOD9363229
_publ_section_title
;
Structure prediction by ZEFSAII (Michael W. Deem and Ramdas Pophale) SiO2 
 PCOD9363229
Probable space group: A M A 2
;
_chemical_formula_sum "Si O2"
_cell_formula_units_Z 64
_cell_length_a 19.016997
_cell_length_b 9.700762
_cell_length_c 17.030595
_cell_angle_alpha 90.000000
_cell_angle_beta 90.000000
_cell_angle_gamma 90.000000
_cell_volume 3141.793298
_symmetry_space_group_name_H-M "A M A 2"
_symmetry_group_IT_number 40
_symmetry_cell_setting 'orthorhombic'
loop_
_space_group_symop_operation_xyz
x,y,z
-x,-y,z
1/2-x,y,z
1/2+x,-y,z
x,1/2+y,1/2+z
-x,1/2-y,1/2+z
1/2-x,1/2+y,1/2+z
1/2+x,1/2-y,1/2+z
loop_
_atom_site_type_symbol
_atom_site_label
_atom_site_fract_x
_atom_site_fract_y
_atom_site_fract_z
Si Si1 0.828470 0.366125 0.035770
Si Si2 0.422037 0.472074 0.848849
Si Si3 0.667992 0.603217 0.616449
Si Si4 0.415183 0.499899 0.351907
Si Si5 0.829935 0.783826 0.353744
Si Si6 0.070396 0.090934 0.030429
Si Si7 0.065535 0.918660 0.534254
Si Si8 0.667580 0.763427 0.781253
O O1 0.750000 0.364735 0.069016
O O2 0.864697 0.225561 0.063264
O O3 0.864765 0.505308 0.064035
O O4 0.823680 0.342392 0.942642
O O5 0.500000 0.500000 0.815979
O O6 0.371506 0.590516 0.814525
O O7 0.382353 0.330427 0.834485
O O8 0.431688 0.466293 0.942928
O O9 0.750000 0.577652 0.596331
O O10 0.624842 0.467965 0.594498
O O11 0.665777 0.676538 0.700705
O O12 0.500000 0.500000 0.337875
O O13 0.379912 0.348916 0.352242
O O14 0.404738 0.560851 0.440465
O O15 0.371395 0.590077 0.288842
O O16 0.750000 0.758331 0.325921
O O17 0.060254 0.254987 0.039963
O O18 0.000000 0.000000 0.039528
O O19 0.000000 0.000000 0.570807
O O20 0.750000 0.774564 0.804668
#
# Coordination Sequence:
#
# PCOD9363229 Si02
#       8
#     8   8   8   8   8   8   8   8
#     4   9  18  34  54  80 112 152 191 240 300 358
#     4  10  20  35  57  84 119 158 195 252 310 365
#     4  10  22  40  60  84 125 166 201 251 313 374
#     4  11  22  37  61  91 119 156 210 264 308 362
#     4  10  19  33  56  84 115 150 195 247 305 361
#     4  11  22  37  62  91 119 155 204 260 312 372
#     4  10  20  34  57  87 118 149 190 252 308 359
#     4  11  23  40  59  87 125 166 206 252 310 377
#
# _framework density 20.370532000000001
#
# number of rings (size 3 to 8) (size 9 to 14) (size 15 to 20)
#    0.000    1.750    2.500    2.250    7.000    2.000 
#    0.000    3.125    0.000    3.000    0.000    0.000 
#    0.000    0.000    0.000    0.000    0.000    0.000 
#
# Total GULP energy -178149.085044 kJ/mol
# GULP energy per Si atom -5567.158908 kJ/mol
# Density = 2.032417 g / cm^3
# Si number density = 20.370532 Si / 1000 Ang^3
#
#
#
# Elastic Constant Matrix: (Units=GPa)
#
#
# Indices 1 2 3 4 5 6 
#
# 1 124.1680 58.0219 15.8859 0.0000 0.0000 0.0000
# 2 58.0219 156.7454 -6.9229 0.0000 0.0000 0.0000
# 3 15.8859 -6.9229 13.6097 0.0000 0.0000 0.0000
# 4 0.0000 0.0000 0.0000 9.0108 0.0000 0.0000
# 5 0.0000 0.0000 0.0000 0.0000 12.2803 0.0000
# 6 0.0000 0.0000 0.0000 0.0000 0.0000 34.0333
#
#
#
# Elastic Compliance Matrix: (Units=1/GPa)
#
#
# Indices 1 2 3 4 5 6 
#
# 1 0.012969 -0.005595 -0.017984 0.000000 0.000000 0.000000
# 2 -0.005595 0.008940 0.011078 0.000000 0.000000 0.000000
# 3 -0.017984 0.011078 0.100103 0.000000 0.000000 0.000000
# 4 0.000000 0.000000 0.000000 0.110977 0.000000 0.000000
# 5 0.000000 0.000000 0.000000 0.000000 0.081431 0.000000
# 6 0.000000 0.000000 0.000000 0.000000 0.000000 0.029383
#
#
# Mechanical properties :
#
#
# Convention : Reuss Voigt Hill
#
# Bulk Modulus (GPa) = 10.30806 47.61034 28.95920
# Shear Modulus (GPa) = 12.46441 26.23412 19.34927
#
# Velocity S-wave (km/s) = 2.47631 3.59255 3.08533
# Velocity P-wave (km/s) = 3.63970 6.37428 5.19032
#
# Compressibility (1/GPa) = 0.09701143
#
# Stress axis : x y z
#
# Youngs Moduli (GPa) = 77.10789 111.85559 9.98966
#
# Poissons Ratio (x) = 0.62582 0.17965
# Poissons Ratio (y) = 0.43141 -0.11067
# Poissons Ratio (z) = 1.38669 -1.23916
#
# Static dielectric constant tensor:
#      x y z
#    x 1.758580 0.000000 0.000000 
#    y 0.000000 1.891210 0.000000 
#    z 0.000000 0.000000 1.786160 
# 
# From -- ./inp_files/21416.got.cif
#   From: 2010.05.17/outbox.cif.g08.bks.cpg/sg40_11_cif.got.tgz:21416.got - 2010.06.03 18:35:42.
