data_PCOD9363464
_publ_section_title
;
Structure prediction by ZEFSAII (Michael W. Deem and Ramdas Pophale) SiO2 
 PCOD9363464
Probable space group: A M A 2
;
_chemical_formula_sum "Si O2"
_cell_formula_units_Z 52
_cell_length_a 20.207388
_cell_length_b 8.602973
_cell_length_c 12.372730
_cell_angle_alpha 90.000000
_cell_angle_beta 90.000000
_cell_angle_gamma 90.000000
_cell_volume 2150.920090
_symmetry_space_group_name_H-M "A M A 2"
_symmetry_group_IT_number 40
_symmetry_cell_setting 'orthorhombic'
loop_
_space_group_symop_operation_xyz
x,y,z
-x,-y,z
1/2-x,y,z
1/2+x,-y,z
x,1/2+y,1/2+z
-x,1/2-y,1/2+z
1/2-x,1/2+y,1/2+z
1/2+x,1/2-y,1/2+z
loop_
_atom_site_type_symbol
_atom_site_label
_atom_site_fract_x
_atom_site_fract_y
_atom_site_fract_z
Si Si1 0.569591 0.528697 0.423700
Si Si2 0.250000 0.701296 0.253494
Si Si3 0.325912 0.721304 0.906347
Si Si4 0.363627 0.960363 0.255803
Si Si5 0.353047 0.051322 0.618423
Si Si6 0.616794 0.790719 0.084032
Si Si7 0.968269 0.728325 0.639514
O O1 0.500000 0.500000 0.363228
O O2 0.628028 0.633574 0.377968
O O3 0.600032 0.368738 0.469154
O O4 0.546979 0.631263 0.529066
O O5 0.307956 0.575287 0.221652
O O6 0.307575 0.833817 0.269902
O O7 0.250000 0.734849 0.869640
O O8 0.362817 0.573487 0.856651
O O9 0.324426 0.680252 0.033916
O O10 0.347855 0.075405 0.154169
O O11 0.432628 0.874867 0.230832
O O12 0.427932 0.111140 0.634393
O O13 0.348764 0.875219 0.577902
O O14 0.546645 0.762165 0.144549
#
# Coordination Sequence:
#
# PCOD9363464 Si02
#       7
#     8   4   8   8   8   8   8
#     4   8  17  36  60  84 117 158 207 250 305 368
#     4  10  20  38  54  80 114 170 202 240 288 370
#     4  11  21  38  58  89 125 165 202 255 313 380
#     4  10  20  36  61  82 119 160 202 242 308 368
#     4  10  20  35  61  86 120 150 205 253 302 356
#     4  10  19  36  60  89 111 152 207 253 303 367
#     4   8  17  36  60  84 113 155 201 249 294 366
#
# _framework density 24.175702000000001
#
# number of rings (size 3 to 8) (size 9 to 14) (size 15 to 20)
#    0.000    2.462    1.538    2.769    0.000    0.615 
#    1.385   13.846    0.000    0.000    0.000    0.000 
#    0.000    0.000    0.000    0.000    0.000    0.000 
#
# Total GULP energy -144812.882975 kJ/mol
# GULP energy per Si atom -5569.726268 kJ/mol
# Density = 2.412068 g / cm^3
# Si number density = 24.175702 Si / 1000 Ang^3
#
#
#
# Elastic Constant Matrix: (Units=GPa)
#
#
# Indices 1 2 3 4 5 6 
#
# 1 79.3934 23.7593 10.8629 0.0000 0.0000 0.0000
# 2 23.7593 151.9668 9.6747 0.0000 0.0000 0.0000
# 3 10.8629 9.6747 37.2718 0.0000 0.0000 0.0000
# 4 0.0000 0.0000 0.0000 25.3889 0.0000 0.0000
# 5 0.0000 0.0000 0.0000 0.0000 19.3313 0.0000
# 6 0.0000 0.0000 0.0000 0.0000 0.0000 -7.0070
#
#
#
# Elastic Compliance Matrix: (Units=1/GPa)
#
#
# Indices 1 2 3 4 5 6 
#
# 1 0.013644 -0.001912 -0.003480 0.000000 0.000000 0.000000
# 2 -0.001912 0.006959 -0.001249 0.000000 0.000000 0.000000
# 3 -0.003480 -0.001249 0.028169 0.000000 0.000000 0.000000
# 4 0.000000 0.000000 0.000000 0.039387 0.000000 0.000000
# 5 0.000000 0.000000 0.000000 0.000000 0.051730 0.000000
# 6 0.000000 0.000000 0.000000 0.000000 0.000000 -0.142715
#
#
# Mechanical properties :
#
#
# Convention : Reuss Voigt Hill
#
# Bulk Modulus (GPa) = 28.17778 39.69177 33.93477
# Shear Modulus (GPa) = 224.36611 22.49830 123.43221
#
# Velocity S-wave (km/s) = 9.64406 3.05391 7.15312
# Velocity P-wave (km/s) = 11.64866 5.37483 9.07139
#
# Compressibility (1/GPa) = 0.03548896
#
# Stress axis : x y z
#
# Youngs Moduli (GPa) = 73.29362 143.70339 35.50060
#
# Poissons Ratio (x) = 0.27470 0.12355
# Poissons Ratio (y) = 0.14011 0.04435
# Poissons Ratio (z) = 0.25508 0.17951
#
# Static dielectric constant tensor:
#      x y z
#    x 1.907380 0.000000 0.000000 
#    y 0.000000 1.943560 0.000000 
#    z 0.000000 0.000000 2.076140 
# 
# From -- ./inp_files/18156.got.cif
#   From: 2010.05.17/outbox.cif.g08.bks.cpg/sg40_10_cif.got.tgz:18156.got - 2010.06.03 18:35:42.
