data_PCOD9363465
_publ_section_title
;
Structure prediction by ZEFSAII (Michael W. Deem and Ramdas Pophale) SiO2 
 PCOD9363465
Probable space group: A M A 2
;
_chemical_formula_sum "Si O2"
_cell_formula_units_Z 64
_cell_length_a 8.554402
_cell_length_b 15.880796
_cell_length_c 24.395178
_cell_angle_alpha 90.000000
_cell_angle_beta 90.000000
_cell_angle_gamma 90.000000
_cell_volume 3314.102327
_symmetry_space_group_name_H-M "A M A 2"
_symmetry_group_IT_number 40
_symmetry_cell_setting 'orthorhombic'
loop_
_space_group_symop_operation_xyz
x,y,z
-x,-y,z
1/2-x,y,z
1/2+x,-y,z
x,1/2+y,1/2+z
-x,1/2-y,1/2+z
1/2-x,1/2+y,1/2+z
1/2+x,1/2-y,1/2+z
loop_
_atom_site_type_symbol
_atom_site_label
_atom_site_fract_x
_atom_site_fract_y
_atom_site_fract_z
Si Si1 0.437466 0.408825 0.591110
Si Si2 0.061010 0.847547 0.709515
Si Si3 0.937852 0.252680 0.521108
Si Si4 0.437852 0.747320 0.897922
Si Si5 0.561607 0.590025 0.327824
Si Si6 0.438715 0.343008 0.709515
Si Si7 0.437466 0.908825 0.327921
Si Si8 0.938393 0.090025 0.591206
O O1 0.500000 0.500000 0.574427
O O2 0.250000 0.408931 0.589486
O O3 0.499875 0.334301 0.552911
O O4 0.488914 0.388980 0.653717
O O5 0.250000 0.846752 0.709515
O O6 0.007913 0.892255 0.765373
O O7 0.007913 0.892254 0.653657
O O8 0.003410 0.751604 0.709515
O O9 0.750000 0.254832 0.521006
O O10 0.988279 0.168589 0.553860
O O11 0.000003 0.250001 0.459515
O O12 0.250000 0.745168 0.898021
O O13 0.488280 0.831411 0.865169
O O14 0.500128 0.665698 0.866120
O O15 0.500000 0.500000 0.346866
O O16 0.750000 0.588102 0.327865
O O17 0.250000 0.339321 0.709515
O O18 0.488914 0.388979 0.765314
O O19 0.250000 0.908931 0.329544
O O20 0.500000 0.000000 0.344604
O O21 0.750000 0.088103 0.591165
O O22 0.000000 0.000000 0.572164
#
# Coordination Sequence:
#
# PCOD9363465 Si02
#       8
#     8   8   8   8   8   8   8   8
#     4  11  23  40  63  93 125 161 203 250 306 367
#     4  10  19  36  60  89 123 157 193 241 301 364
#     4  11  24  43  64  88 120 161 207 257 307 359
#     4  11  24  43  64  88 120 161 207 257 307 359
#     4  10  22  38  61  90 121 157 196 242 299 358
#     4  10  21  36  60  93 125 159 199 245 303 366
#     4  11  23  40  63  93 125 161 203 250 306 367
#     4  10  22  38  61  90 121 157 196 242 299 358
#
# _framework density 19.311415
#
# number of rings (size 3 to 8) (size 9 to 14) (size 15 to 20)
#    0.000    1.500    2.500    2.250    0.000    5.000 
#    0.000    2.500    0.000    0.000    0.000    0.000 
#    0.000    0.000    0.000    0.000    0.000    0.000 
#
# Total GULP energy -178889.661334 kJ/mol
# GULP energy per Si atom -5590.301917 kJ/mol
# Density = 1.926746 g / cm^3
# Si number density = 19.311415 Si / 1000 Ang^3
#
#
#
# Elastic Constant Matrix: (Units=GPa)
#
#
# Indices 1 2 3 4 5 6 
#
# 1 32.5624 38.5678 37.5172 0.0000 0.0000 0.0000
# 2 38.5678 206.7278 93.6008 0.0000 0.0000 0.0000
# 3 37.5172 93.6008 161.4411 0.0000 0.0000 0.0000
# 4 0.0000 0.0000 0.0000 -0.4526 0.0000 0.0000
# 5 0.0000 0.0000 0.0000 0.0000 26.7145 0.0000
# 6 0.0000 0.0000 0.0000 0.0000 0.0000 38.7388
#
#
#
# Elastic Compliance Matrix: (Units=1/GPa)
#
#
# Indices 1 2 3 4 5 6 
#
# 1 0.045477 -0.005016 -0.007660 0.000000 0.000000 0.000000
# 2 -0.005016 0.007112 -0.002958 0.000000 0.000000 0.000000
# 3 -0.007660 -0.002958 0.009689 0.000000 0.000000 0.000000
# 4 0.000000 0.000000 0.000000 -2.209436 0.000000 0.000000
# 5 0.000000 0.000000 0.000000 0.000000 0.037433 0.000000
# 6 0.000000 0.000000 0.000000 0.000000 0.000000 0.025814
#
#
# Mechanical properties :
#
#
# Convention : Reuss Voigt Hill
#
# Bulk Modulus (GPa) = 32.24715 82.23365 57.24040
# Shear Modulus (GPa) = -2.44821 28.40319 12.97749
#
# Velocity S-wave (km/s) = -1.12717 3.83926 2.59513
# Velocity P-wave (km/s) = 3.87824 7.89485 6.21970
#
# Compressibility (1/GPa) = 0.03101049
#
# Stress axis : x y z
#
# Youngs Moduli (GPa) = 21.98905 140.60002 103.20630
#
# Poissons Ratio (x) = 0.70526 0.79058
# Poissons Ratio (y) = 0.11030 0.30528
# Poissons Ratio (z) = 0.16844 0.41589
#
# Static dielectric constant tensor:
#      x y z
#    x 1.658560 0.000000 0.000000 
#    y 0.000000 1.646170 0.000000 
#    z 0.000000 0.000000 1.668760 
# 
# From -- ./inp_files/24326.got.cif
#   From: 2010.05.17/outbox.cif.g08.bks.cpg/sg40_13_cif.got.tgz:24326.got - 2010.06.03 18:35:42.
