data_PCOD9363364
_publ_section_title
;
Structure prediction by ZEFSAII (Michael W. Deem and Ramdas Pophale) SiO2 
 PCOD9363364
Probable space group: A M A 2
;
_chemical_formula_sum "Si O2"
_cell_formula_units_Z 56
_cell_length_a 22.981154
_cell_length_b 15.368030
_cell_length_c 8.295823
_cell_angle_alpha 90.000000
_cell_angle_beta 90.000000
_cell_angle_gamma 90.000000
_cell_volume 2929.877820
_symmetry_space_group_name_H-M "A M A 2"
_symmetry_group_IT_number 40
_symmetry_cell_setting 'orthorhombic'
loop_
_space_group_symop_operation_xyz
x,y,z
-x,-y,z
1/2-x,y,z
1/2+x,-y,z
x,1/2+y,1/2+z
-x,1/2-y,1/2+z
1/2-x,1/2+y,1/2+z
1/2+x,1/2-y,1/2+z
loop_
_atom_site_type_symbol
_atom_site_label
_atom_site_fract_x
_atom_site_fract_y
_atom_site_fract_z
Si Si1 0.379810 0.691275 0.804700
Si Si2 0.531939 0.910720 0.510672
Si Si3 0.609664 0.383054 0.317560
Si Si4 0.815791 0.108508 0.346199
Si Si5 0.580123 0.206474 0.508517
Si Si6 0.313754 0.728551 0.106880
Si Si7 0.317705 0.553464 0.607512
O O1 0.411235 0.756951 0.686810
O O2 0.329724 0.643576 0.701965
O O3 0.420772 0.616171 0.877510
O O4 0.356411 0.741263 0.959203
O O5 0.562772 0.916245 0.687028
O O6 0.482475 0.837247 0.500614
O O7 0.500000 0.000000 0.473984
O O8 0.586222 0.292563 0.396056
O O9 0.664499 0.352898 0.210404
O O10 0.635786 0.443354 0.459913
O O11 0.750000 0.100299 0.418658
O O12 0.868546 0.137398 0.463055
O O13 0.813075 0.188736 0.221762
O O14 0.827087 0.023629 0.236920
O O15 0.250000 0.711852 0.041905
O O16 0.250000 0.548601 0.553919
#
# Coordination Sequence:
#
# PCOD9363364 Si02
#       7
#     8   8   8   8   8   8   8
#     4  10  21  34  55  81 105 141 184 223 274 330
#     4  11  22  37  54  77 110 142 182 232 276 324
#     4   9  20  35  54  77 104 144 186 219 270 331
#     4   9  19  34  55  81 110 141 178 222 274 327
#     4  10  20  37  56  76 107 144 182 226 272 331
#     4   9  17  32  52  77 106 138 175 221 269 325
#     4  10  19  35  56  81 110 140 177 225 275 326
#
# _framework density 19.113424999999999
#
# number of rings (size 3 to 8) (size 9 to 14) (size 15 to 20)
#    0.000    2.286    0.000    2.571    0.000    5.143 
#    0.000    7.143    0.000    7.714    0.000    0.000 
#    0.000    0.000    0.000    0.000    0.000    0.000 
#
# Total GULP energy -156037.123355 kJ/mol
# GULP energy per Si atom -5572.754406 kJ/mol
# Density = 1.906992 g / cm^3
# Si number density = 19.113425 Si / 1000 Ang^3
#
#
#
# Elastic Constant Matrix: (Units=GPa)
#
#
# Indices 1 2 3 4 5 6 
#
# 1 86.0795 24.2276 26.1935 0.0000 0.0000 0.0000
# 2 24.2276 31.9952 3.3212 0.0000 0.0000 0.0000
# 3 26.1935 3.3212 70.9123 0.0000 0.0000 0.0000
# 4 0.0000 0.0000 0.0000 14.2625 0.0000 0.0000
# 5 0.0000 0.0000 0.0000 0.0000 17.2011 0.0000
# 6 0.0000 0.0000 0.0000 0.0000 0.0000 23.3187
#
#
#
# Elastic Compliance Matrix: (Units=1/GPa)
#
#
# Indices 1 2 3 4 5 6 
#
# 1 0.016726 -0.012082 -0.005612 0.000000 0.000000 0.000000
# 2 -0.012082 0.040136 0.002583 0.000000 0.000000 0.000000
# 3 -0.005612 0.002583 0.016054 0.000000 0.000000 0.000000
# 4 0.000000 0.000000 0.000000 0.070114 0.000000 0.000000
# 5 0.000000 0.000000 0.000000 0.000000 0.058136 0.000000
# 6 0.000000 0.000000 0.000000 0.000000 0.000000 0.042884
#
#
# Mechanical properties :
#
#
# Convention : Reuss Voigt Hill
#
# Bulk Modulus (GPa) = 23.42338 32.94128 28.18233
# Shear Modulus (GPa) = 17.33086 19.97277 18.65181
#
# Velocity S-wave (km/s) = 3.01447 3.23609 3.12725
# Velocity P-wave (km/s) = 4.93939 5.58884 5.27412
#
# Compressibility (1/GPa) = 0.04269239
#
# Stress axis : x y z
#
# Youngs Moduli (GPa) = 59.78847 24.91550 62.28983
#
# Poissons Ratio (x) = 0.30104 0.34958
# Poissons Ratio (y) = 0.72239 -0.16091
# Poissons Ratio (z) = 0.33555 -0.06436
#
# Static dielectric constant tensor:
#      x y z
#    x 1.683700 0.000000 0.000000 
#    y 0.000000 1.654720 0.000000 
#    z 0.000000 0.000000 1.660960 
# 
# From -- ./inp_files/8312.got.cif
#   From: 2010.05.17/outbox.cif.g08.bks.cpg/sg40_5_cif.got.tgz:8312.got - 2010.06.03 18:35:42.
