data_PCOD9363185
_publ_section_title
;
Structure prediction by ZEFSAII (Michael W. Deem and Ramdas Pophale) SiO2 
 PCOD9363185
Probable space group: A M A 2
;
_chemical_formula_sum "Si O2"
_cell_formula_units_Z 56
_cell_length_a 8.804649
_cell_length_b 14.932347
_cell_length_c 22.207420
_cell_angle_alpha 90.000000
_cell_angle_beta 90.000000
_cell_angle_gamma 90.000000
_cell_volume 2919.699982
_symmetry_space_group_name_H-M "A M A 2"
_symmetry_group_IT_number 40
_symmetry_cell_setting 'orthorhombic'
loop_
_space_group_symop_operation_xyz
x,y,z
-x,-y,z
1/2-x,y,z
1/2+x,-y,z
x,1/2+y,1/2+z
-x,1/2-y,1/2+z
1/2-x,1/2+y,1/2+z
1/2+x,1/2-y,1/2+z
loop_
_atom_site_type_symbol
_atom_site_label
_atom_site_fract_x
_atom_site_fract_y
_atom_site_fract_z
Si Si1 0.931031 0.098709 0.800890
Si Si2 0.567316 0.224795 0.688123
Si Si3 0.569249 0.094603 0.156090
Si Si4 0.932849 0.594717 0.082450
Si Si5 0.931906 0.905954 0.023112
Si Si6 0.933019 0.594333 0.942266
Si Si7 0.567610 0.287523 0.408853
O O1 0.750000 0.090879 0.803708
O O2 0.970116 0.157947 0.742414
O O3 0.990636 0.151435 0.859003
O O4 0.000000 0.000000 0.797420
O O5 0.750000 0.237989 0.686639
O O6 0.486999 0.320124 0.693352
O O7 0.521083 0.175087 0.626184
O O8 0.750000 0.088703 0.154845
O O9 0.505905 0.109113 0.088187
O O10 0.500000 0.000000 0.176984
O O11 0.750000 0.589609 0.084564
O O12 0.000000 0.500000 0.103661
O O13 0.977839 0.606409 0.012711
O O14 0.750000 0.913509 0.030454
O O15 0.963460 0.828900 0.974830
O O16 0.000000 0.000000 0.999976
O O17 0.750000 0.589689 0.940518
O O18 0.981226 0.683837 0.907567
O O19 0.000000 0.500000 0.921079
O O20 0.750000 0.290970 0.400734
#
# Coordination Sequence:
#
# PCOD9363185 Si02
#       7
#     8   8   8   8   8   8   8
#     4  11  24  40  60  84 112 145 183 228 275 324
#     4  10  21  38  57  79 110 148 186 225 271 325
#     4  11  22  36  57  84 113 145 181 227 278 331
#     4   9  17  31  53  80 111 142 175 217 268 325
#     4  10  19  33  54  81 113 147 182 225 277 333
#     4   9  18  33  53  79 108 140 176 219 270 323
#     4  10  21  37  57  79 109 149 190 231 277 327
#
# _framework density 19.180052
#
# number of rings (size 3 to 8) (size 9 to 14) (size 15 to 20)
#    0.000    2.000    0.000    4.714    0.000    6.857 
#    0.000    3.571    0.000    1.714    0.000    0.000 
#    0.000    0.000    0.000    0.000    0.000    0.000 
#
# Total GULP energy -156403.402340 kJ/mol
# GULP energy per Si atom -5585.835798 kJ/mol
# Density = 1.913640 g / cm^3
# Si number density = 19.180052 Si / 1000 Ang^3
#
#
#
# Elastic Constant Matrix: (Units=GPa)
#
#
# Indices 1 2 3 4 5 6 
#
# 1 52.0689 63.6062 29.9816 0.0000 0.0000 0.0000
# 2 63.6062 199.6745 57.0862 0.0000 0.0000 0.0000
# 3 29.9816 57.0862 40.3248 0.0000 0.0000 0.0000
# 4 0.0000 0.0000 0.0000 27.2131 0.0000 0.0000
# 5 0.0000 0.0000 0.0000 0.0000 25.1494 0.0000
# 6 0.0000 0.0000 0.0000 0.0000 0.0000 34.4055
#
#
#
# Elastic Compliance Matrix: (Units=1/GPa)
#
#
# Indices 1 2 3 4 5 6 
#
# 1 0.038447 -0.006845 -0.018895 0.000000 0.000000 0.000000
# 2 -0.006845 0.009632 -0.008546 0.000000 0.000000 0.000000
# 3 -0.018895 -0.008546 0.050946 0.000000 0.000000 0.000000
# 4 0.000000 0.000000 0.000000 0.036747 0.000000 0.000000
# 5 0.000000 0.000000 0.000000 0.000000 0.039762 0.000000
# 6 0.000000 0.000000 0.000000 0.000000 0.000000 0.029065
#
#
# Mechanical properties :
#
#
# Convention : Reuss Voigt Hill
#
# Bulk Modulus (GPa) = 32.83863 65.93513 49.38688
# Shear Modulus (GPa) = 17.64770 26.77988 22.21379
#
# Velocity S-wave (km/s) = 3.03662 3.74068 3.40688
# Velocity P-wave (km/s) = 5.42707 7.28755 6.42501
#
# Compressibility (1/GPa) = 0.03045194
#
# Stress axis : x y z
#
# Youngs Moduli (GPa) = 26.00967 103.82002 19.62879
#
# Poissons Ratio (x) = 0.71068 0.37088
# Poissons Ratio (y) = 0.17805 0.16775
# Poissons Ratio (z) = 0.49145 0.88726
#
# Static dielectric constant tensor:
#      x y z
#    x 1.642130 0.000000 0.000000 
#    y 0.000000 1.674100 0.000000 
#    z 0.000000 0.000000 1.662420 
# 
# From -- ./inp_files/22120.got.cif
#   From: 2010.05.17/outbox.cif.g08.bks.cpg/sg40_12_cif.got.tgz:22120.got - 2010.06.03 18:35:42.
