data_PCOD9363423
_publ_section_title
;
Structure prediction by ZEFSAII (Michael W. Deem and Ramdas Pophale) SiO2 
 PCOD9363423
Probable space group: A M A 2
;
_chemical_formula_sum "Si O2"
_cell_formula_units_Z 64
_cell_length_a 32.027755
_cell_length_b 11.261771
_cell_length_c 8.672012
_cell_angle_alpha 90.000000
_cell_angle_beta 90.000000
_cell_angle_gamma 90.000000
_cell_volume 3127.901439
_symmetry_space_group_name_H-M "A M A 2"
_symmetry_group_IT_number 40
_symmetry_cell_setting 'orthorhombic'
loop_
_space_group_symop_operation_xyz
x,y,z
-x,-y,z
1/2-x,y,z
1/2+x,-y,z
x,1/2+y,1/2+z
-x,1/2-y,1/2+z
1/2-x,1/2+y,1/2+z
1/2+x,1/2-y,1/2+z
loop_
_atom_site_type_symbol
_atom_site_label
_atom_site_fract_x
_atom_site_fract_y
_atom_site_fract_z
Si Si1 0.870151 0.099736 0.205100
Si Si2 0.406172 0.784047 0.635564
Si Si3 0.552728 0.247924 0.097669
Si Si4 0.297297 0.825178 0.439895
Si Si5 0.341155 0.500203 0.137629
Si Si6 0.149293 0.110976 0.971772
Si Si7 0.602651 0.399711 0.909009
Si Si8 0.988072 0.138413 0.797236
O O1 0.901914 0.192589 0.131473
O O2 0.830873 0.147642 0.303414
O O3 0.899189 0.023554 0.320798
O O4 0.854798 0.003185 0.080658
O O5 0.377208 0.899495 0.637797
O O6 0.391986 0.695190 0.496945
O O7 0.395201 0.703710 0.784068
O O8 0.452849 0.827212 0.669662
O O9 0.526311 0.276790 0.248516
O O10 0.563345 0.373044 0.015788
O O11 0.529387 0.169690 0.967781
O O12 0.250000 0.818044 0.385029
O O13 0.302323 0.927913 0.568958
O O14 0.313265 0.701172 0.511967
O O15 0.341816 0.562941 0.301314
O O16 0.355539 0.593788 0.009292
O O17 0.000000 0.000000 0.792051
#
# Coordination Sequence:
#
# PCOD9363423 Si02
#       8
#     8   8   8   8   8   8   8   8
#     4  10  22  41  64  86 119 163 203 247 306 369
#     4   9  20  37  54  82 117 154 202 246 295 360
#     4  11  24  39  58  87 120 161 211 255 301 360
#     4  10  23  40  60  92 125 154 198 252 308 377
#     4  10  19  35  62  86 113 152 195 244 302 363
#     4  10  20  37  65  90 117 158 200 246 303 365
#     4   9  19  36  56  80 110 149 193 239 295 353
#     4  11  25  39  57  87 125 163 208 263 309 351
#
# _framework density 20.461003000000002
#
# number of rings (size 3 to 8) (size 9 to 14) (size 15 to 20)
#    0.000    2.000    0.000    3.000    0.000   11.000 
#    0.000    0.000    0.000    0.000    0.000    0.000 
#    0.000    0.000    0.000    0.000    0.000    0.000 
#
# Total GULP energy -178467.045472 kJ/mol
# GULP energy per Si atom -5577.095171 kJ/mol
# Density = 2.041443 g / cm^3
# Si number density = 20.461003 Si / 1000 Ang^3
#
#
#
# Elastic Constant Matrix: (Units=GPa)
#
#
# Indices 1 2 3 4 5 6 
#
# 1 104.0611 52.4585 27.1797 0.0000 0.0000 0.0000
# 2 52.4585 96.5371 29.3452 0.0000 0.0000 0.0000
# 3 27.1797 29.3452 73.2603 0.0000 0.0000 0.0000
# 4 0.0000 0.0000 0.0000 21.4581 0.0000 0.0000
# 5 0.0000 0.0000 0.0000 0.0000 26.2948 0.0000
# 6 0.0000 0.0000 0.0000 0.0000 0.0000 17.8654
#
#
#
# Elastic Compliance Matrix: (Units=1/GPa)
#
#
# Indices 1 2 3 4 5 6 
#
# 1 0.013588 -0.006663 -0.002372 0.000000 0.000000 0.000000
# 2 -0.006663 0.015062 -0.003561 0.000000 0.000000 0.000000
# 3 -0.002372 -0.003561 0.015957 0.000000 0.000000 0.000000
# 4 0.000000 0.000000 0.000000 0.046602 0.000000 0.000000
# 5 0.000000 0.000000 0.000000 0.000000 0.038030 0.000000
# 6 0.000000 0.000000 0.000000 0.000000 0.000000 0.055974
#
#
# Mechanical properties :
#
#
# Convention : Reuss Voigt Hill
#
# Bulk Modulus (GPa) = 51.50976 54.64725 53.07850
# Shear Modulus (GPa) = 23.05449 24.11533 23.58491
#
# Velocity S-wave (km/s) = 3.36035 3.43680 3.39879
# Velocity P-wave (km/s) = 6.34707 6.52033 6.43428
#
# Compressibility (1/GPa) = 0.01941380
#
# Stress axis : x y z
#
# Youngs Moduli (GPa) = 73.59371 66.39320 62.66985
#
# Poissons Ratio (x) = 0.44236 0.14868
# Poissons Ratio (y) = 0.49033 0.22319
# Poissons Ratio (z) = 0.17459 0.23645
#
# Static dielectric constant tensor:
#      x y z
#    x 1.726810 0.000000 0.000000 
#    y 0.000000 1.750470 0.000000 
#    z 0.000000 0.000000 1.806440 
# 
# From -- ./inp_files/9447.got.cif
#   From: 2010.05.17/outbox.cif.g08.bks.cpg/sg40_5_cif.got.tgz:9447.got - 2010.06.03 18:35:42.
