data_PCOD9363482
_publ_section_title
;
Structure prediction by ZEFSAII (Michael W. Deem and Ramdas Pophale) SiO2 
 PCOD9363482
Probable space group: A M A 2
;
_chemical_formula_sum "Si O2"
_cell_formula_units_Z 56
_cell_length_a 15.016753
_cell_length_b 14.559661
_cell_length_c 12.479709
_cell_angle_alpha 90.000000
_cell_angle_beta 90.000000
_cell_angle_gamma 90.000000
_cell_volume 2728.549012
_symmetry_space_group_name_H-M "A M A 2"
_symmetry_group_IT_number 40
_symmetry_cell_setting 'orthorhombic'
loop_
_space_group_symop_operation_xyz
x,y,z
-x,-y,z
1/2-x,y,z
1/2+x,-y,z
x,1/2+y,1/2+z
-x,1/2-y,1/2+z
1/2-x,1/2+y,1/2+z
1/2+x,1/2-y,1/2+z
loop_
_atom_site_type_symbol
_atom_site_label
_atom_site_fract_x
_atom_site_fract_y
_atom_site_fract_z
Si Si1 0.152261 0.383100 0.557750
Si Si2 0.907218 0.975771 0.213291
Si Si3 0.146899 0.690005 0.419066
Si Si4 0.145913 0.892348 0.392243
Si Si5 0.394028 0.492171 0.341702
Si Si6 0.033184 0.700071 0.633097
Si Si7 0.352071 0.372231 0.143095
O O1 0.250000 0.337344 0.559202
O O2 0.158415 0.473487 0.633489
O O3 0.133021 0.424121 0.439597
O O4 0.070822 0.321477 0.606640
O O5 0.918008 0.867509 0.218364
O O6 0.902469 0.030326 0.323849
O O7 0.000000 0.000000 0.155705
O O8 0.250000 0.704669 0.451057
O O9 0.118682 0.786995 0.364930
O O10 0.141494 0.595403 0.356312
O O11 0.084870 0.678885 0.522227
O O12 0.250000 0.901487 0.365232
O O13 0.136484 0.902990 0.519695
O O14 0.500000 0.500000 0.342492
O O15 0.360682 0.450663 0.230630
O O16 0.067174 0.800994 0.663172
O O17 0.250000 0.333985 0.151055
#
# Coordination Sequence:
#
# PCOD9363482 Si02
#       7
#     8   8   8   8   8   8   8
#     4  11  21  36  61  94 126 159 207 270 322 360
#     4  10  20  35  60  89 121 153 208 263 319 369
#     4  10  19  36  63  89 120 160 209 255 304 376
#     4   9  20  37  59  88 119 162 211 250 305 379
#     4  12  22  38  63  95 130 165 213 261 322 377
#     4  10  20  39  60  96 120 164 215 256 315 382
#     4  10  23  41  63  92 130 172 211 255 315 386
#
# _framework density 20.523728999999999
#
# number of rings (size 3 to 8) (size 9 to 14) (size 15 to 20)
#    0.000    1.714    2.857    3.429    0.000    4.571 
#    0.000    0.000    3.143    1.714    0.000    0.000 
#    0.000    0.000    0.000    0.000    0.000    0.000 
#
# Total GULP energy -155998.795734 kJ/mol
# GULP energy per Si atom -5571.385562 kJ/mol
# Density = 2.047702 g / cm^3
# Si number density = 20.523729 Si / 1000 Ang^3
#
#
#
# Elastic Constant Matrix: (Units=GPa)
#
#
# Indices 1 2 3 4 5 6 
#
# 1 137.1337 34.2358 19.8200 0.0000 0.0000 0.0000
# 2 34.2358 100.9029 57.4544 0.0000 0.0000 0.0000
# 3 19.8200 57.4544 77.6552 0.0000 0.0000 0.0000
# 4 0.0000 0.0000 0.0000 42.0888 0.0000 0.0000
# 5 0.0000 0.0000 0.0000 0.0000 25.3425 0.0000
# 6 0.0000 0.0000 0.0000 0.0000 0.0000 41.2309
#
#
#
# Elastic Compliance Matrix: (Units=1/GPa)
#
#
# Indices 1 2 3 4 5 6 
#
# 1 0.007967 -0.002670 -0.000058 0.000000 0.000000 0.000000
# 2 -0.002670 0.018020 -0.012651 0.000000 0.000000 0.000000
# 3 -0.000058 -0.012651 0.022252 0.000000 0.000000 0.000000
# 4 0.000000 0.000000 0.000000 0.023759 0.000000 0.000000
# 5 0.000000 0.000000 0.000000 0.000000 0.039459 0.000000
# 6 0.000000 0.000000 0.000000 0.000000 0.000000 0.024254
#
#
# Mechanical properties :
#
#
# Convention : Reuss Voigt Hill
#
# Bulk Modulus (GPa) = 57.20372 59.85694 58.53033
# Shear Modulus (GPa) = 29.01977 35.34454 32.18215
#
# Velocity S-wave (km/s) = 3.76435 4.15436 3.96415
# Velocity P-wave (km/s) = 6.84297 7.22770 7.03796
#
# Compressibility (1/GPa) = 0.01748138
#
# Stress axis : x y z
#
# Youngs Moduli (GPa) = 125.51531 55.49413 44.93965
#
# Poissons Ratio (x) = 0.14819 0.00260
# Poissons Ratio (y) = 0.33516 0.56852
# Poissons Ratio (z) = 0.00725 0.70204
#
# Static dielectric constant tensor:
#      x y z
#    x 1.771660 0.000000 0.000000 
#    y 0.000000 1.813030 0.000000 
#    z 0.000000 0.000000 1.734780 
# 
# From -- ./inp_files/17080.got.cif
#   From: 2010.05.17/outbox.cif.g08.bks.cpg/sg40_9_cif.got.tgz:17080.got - 2010.06.03 18:35:42.
