data_PCOD9363834
_publ_section_title
;
Structure prediction by ZEFSAII (Michael W. Deem and Ramdas Pophale) SiO2 
 PCOD9363834
Probable space group: A M A 2
;
_chemical_formula_sum "Si O2"
_cell_formula_units_Z 64
_cell_length_a 7.855921
_cell_length_b 16.827335
_cell_length_c 23.369806
_cell_angle_alpha 90.000000
_cell_angle_beta 90.000000
_cell_angle_gamma 90.000000
_cell_volume 3089.353145
_symmetry_space_group_name_H-M "A M A 2"
_symmetry_group_IT_number 40
_symmetry_cell_setting 'orthorhombic'
loop_
_space_group_symop_operation_xyz
x,y,z
-x,-y,z
1/2-x,y,z
1/2+x,-y,z
x,1/2+y,1/2+z
-x,1/2-y,1/2+z
1/2-x,1/2+y,1/2+z
1/2+x,1/2-y,1/2+z
loop_
_atom_site_type_symbol
_atom_site_label
_atom_site_fract_x
_atom_site_fract_y
_atom_site_fract_z
Si Si1 0.453162 0.410984 0.947040
Si Si2 0.045624 0.582789 0.138982
Si Si3 0.452020 0.769982 0.977436
Si Si4 0.950945 0.705366 0.725240
Si Si5 0.548121 0.912182 0.891319
Si Si6 0.450385 0.113400 0.763701
Si Si7 0.954796 0.586143 0.816838
Si Si8 0.959023 0.244946 0.101435
O O1 0.500000 0.500000 0.969796
O O2 0.250000 0.409658 0.947574
O O3 0.508004 0.324290 0.970259
O O4 0.520757 0.408710 0.881495
O O5 0.250000 0.588726 0.143037
O O6 0.973386 0.581525 0.204045
O O7 0.988784 0.662361 0.107246
O O8 0.000000 0.500000 0.110319
O O9 0.250000 0.775886 0.977837
O O10 0.507572 0.834462 0.929806
O O11 0.517254 0.790619 0.041375
O O12 0.750000 0.685480 0.719729
O O13 0.957884 0.792795 0.752121
O O14 0.027966 0.648271 0.772258
O O15 0.019005 0.705658 0.660676
O O16 0.750000 0.911044 0.885696
O O17 0.475376 0.905984 0.826056
O O18 0.500000 0.000000 0.914575
O O19 0.250000 0.090052 0.764801
O O20 0.750000 0.596252 0.820844
O O21 0.000000 0.500000 0.794470
O O22 0.750000 0.243634 0.101989
#
# Coordination Sequence:
#
# PCOD9363834 Si02
#       8
#     8   8   8   8   8   8   8   8
#     4  10  20  35  55  82 112 143 176 215 262 317
#     4   9  16  29  49  74 101 129 158 197 247 304
#     4  11  22  37  55  77 106 144 184 223 263 308
#     4   8  13  27  50  73  95 126 163 202 250 307
#     4  11  22  37  56  80 107 139 178 222 268 317
#     4   8  15  28  50  76 101 127 161 203 253 310
#     4   9  17  29  49  74 100 127 160 203 256 311
#     4   8  17  32  50  70  95 129 171 209 247 298
#
# _framework density 20.716311999999999
#
# number of rings (size 3 to 8) (size 9 to 14) (size 15 to 20)
#    0.000    2.750    0.000    3.750    0.000    3.000 
#    0.000    3.750    0.000    6.000    0.000    0.000 
#    0.000    0.000    0.000    0.000    0.000    0.000 
#
# Total GULP energy -178187.051802 kJ/mol
# GULP energy per Si atom -5568.345369 kJ/mol
# Density = 2.066916 g / cm^3
# Si number density = 20.716312 Si / 1000 Ang^3
#
#
#
# Elastic Constant Matrix: (Units=GPa)
#
#
# Indices 1 2 3 4 5 6 
#
# 1 35.4194 4.3200 7.5822 0.0000 0.0000 0.0000
# 2 4.3200 54.1881 47.8687 0.0000 0.0000 0.0000
# 3 7.5822 47.8687 109.7063 0.0000 0.0000 0.0000
# 4 0.0000 0.0000 0.0000 0.8095 0.0000 0.0000
# 5 0.0000 0.0000 0.0000 0.0000 6.5460 0.0000
# 6 0.0000 0.0000 0.0000 0.0000 0.0000 27.4704
#
#
#
# Elastic Compliance Matrix: (Units=1/GPa)
#
#
# Indices 1 2 3 4 5 6 
#
# 1 0.028682 -0.000871 -0.001602 0.000000 0.000000 0.000000
# 2 -0.000871 0.030055 -0.013054 0.000000 0.000000 0.000000
# 3 -0.001602 -0.013054 0.014922 0.000000 0.000000 0.000000
# 4 0.000000 0.000000 0.000000 1.235403 0.000000 0.000000
# 5 0.000000 0.000000 0.000000 0.000000 0.152764 0.000000
# 6 0.000000 0.000000 0.000000 0.000000 0.000000 0.036403
#
#
# Mechanical properties :
#
#
# Convention : Reuss Voigt Hill
#
# Bulk Modulus (GPa) = 23.47157 35.42840 29.44998
# Shear Modulus (GPa) = 3.23942 16.26803 9.75373
#
# Velocity S-wave (km/s) = 1.25184 2.80532 2.17220
# Velocity P-wave (km/s) = 3.66661 5.25661 4.53188
#
# Compressibility (1/GPa) = 0.04260473
#
# Stress axis : x y z
#
# Youngs Moduli (GPa) = 34.86463 33.27195 67.01562
#
# Poissons Ratio (x) = 0.02899 0.10737
# Poissons Ratio (y) = 0.03038 0.87482
# Poissons Ratio (z) = 0.05586 0.43433
#
# Static dielectric constant tensor:
#      x y z
#    x 1.760530 0.000000 0.000000 
#    y 0.000000 1.805300 0.000000 
#    z 0.000000 0.000000 1.797970 
# 
# From -- ./inp_files/24334.got.cif
#   From: 2010.05.17/outbox.cif.g08.bks.cpg/sg40_13_cif.got.tgz:24334.got - 2010.06.03 18:35:42.
