data_PCOD9363992
_publ_section_title
;
Structure prediction by ZEFSAII (Michael W. Deem and Ramdas Pophale) SiO2 
 PCOD9363992
Probable space group: A M A 2
;
_chemical_formula_sum "Si O2"
_cell_formula_units_Z 48
_cell_length_a 8.708172
_cell_length_b 15.491136
_cell_length_c 18.487605
_cell_angle_alpha 90.000000
_cell_angle_beta 90.000000
_cell_angle_gamma 90.000000
_cell_volume 2493.968241
_symmetry_space_group_name_H-M "A M A 2"
_symmetry_group_IT_number 40
_symmetry_cell_setting 'orthorhombic'
loop_
_space_group_symop_operation_xyz
x,y,z
-x,-y,z
1/2-x,y,z
1/2+x,-y,z
x,1/2+y,1/2+z
-x,1/2-y,1/2+z
1/2-x,1/2+y,1/2+z
1/2+x,1/2-y,1/2+z
loop_
_atom_site_type_symbol
_atom_site_label
_atom_site_fract_x
_atom_site_fract_y
_atom_site_fract_z
Si Si1 0.434427 0.406607 0.981020
Si Si2 0.065644 0.407450 0.811709
Si Si3 0.434427 0.761356 0.199918
Si Si4 0.567195 0.230368 0.035803
Si Si5 0.932723 0.092304 0.764451
Si Si6 0.566663 0.406948 0.424774
O O1 0.500000 0.500000 0.002593
O O2 0.250000 0.405969 0.987871
O O3 0.475002 0.393432 0.895880
O O4 0.508050 0.327438 0.023464
O O5 0.250000 0.411156 0.807810
O O6 0.013603 0.330358 0.759918
O O7 0.000000 0.500000 0.789260
O O8 0.250000 0.749639 0.207194
O O9 0.464817 0.793902 0.118965
O O10 0.514340 0.670277 0.214150
O O11 0.750000 0.226683 0.023844
O O12 0.484938 0.166802 0.979883
O O13 0.750000 0.086661 0.768451
O O14 0.999688 0.109976 0.844754
O O15 0.000000 0.000000 0.740857
O O16 0.500000 0.500000 0.447783
O O17 0.750000 0.411117 0.420162
#
# Coordination Sequence:
#
# PCOD9363992 Si02
#       6
#     8   8   8   8   8   8
#     4  10  20  36  59  84 111 146 189 237 286 338
#     4   9  19  36  58  82 108 141 181 227 277 328
#     4  10  22  39  57  82 118 154 187 230 284 339
#     4  11  23  38  57  84 118 154 192 235 285 341
#     4  11  22  38  62  88 114 147 191 239 288 343
#     4  11  22  39  62  86 115 150 192 240 290 343
#
# _framework density 19.246437
#
# number of rings (size 3 to 8) (size 9 to 14) (size 15 to 20)
#    0.000    1.667    0.000    6.000    0.000    5.333 
#    0.000    1.667    0.000    0.000    0.000    0.000 
#    0.000    0.000    0.000    0.000    0.000    0.000 
#
# Total GULP energy -134167.293222 kJ/mol
# GULP energy per Si atom -5590.303884 kJ/mol
# Density = 1.920263 g / cm^3
# Si number density = 19.246437 Si / 1000 Ang^3
#
#
#
# Elastic Constant Matrix: (Units=GPa)
#
#
# Indices 1 2 3 4 5 6 
#
# 1 74.3113 11.7050 14.1508 0.0000 0.0000 0.0000
# 2 11.7050 51.3858 8.6111 0.0000 0.0000 0.0000
# 3 14.1508 8.6111 14.0387 0.0000 0.0000 0.0000
# 4 0.0000 0.0000 0.0000 -30.2301 0.0000 0.0000
# 5 0.0000 0.0000 0.0000 0.0000 16.8019 0.0000
# 6 0.0000 0.0000 0.0000 0.0000 0.0000 38.1038
#
#
#
# Elastic Compliance Matrix: (Units=1/GPa)
#
#
# Indices 1 2 3 4 5 6 
#
# 1 0.016709 -0.001096 -0.016170 0.000000 0.000000 0.000000
# 2 -0.001096 0.021762 -0.012243 0.000000 0.000000 0.000000
# 3 -0.016170 -0.012243 0.095040 0.000000 0.000000 0.000000
# 4 0.000000 0.000000 0.000000 -0.033080 0.000000 0.000000
# 5 0.000000 0.000000 0.000000 0.000000 0.059517 0.000000
# 6 0.000000 0.000000 0.000000 0.000000 0.000000 0.026244
#
#
# Mechanical properties :
#
#
# Convention : Reuss Voigt Hill
#
# Bulk Modulus (GPa) = 13.42421 23.18553 18.30487
# Shear Modulus (GPa) = 18.51562 11.95306 15.23434
#
# Velocity S-wave (km/s) = 3.10502 2.49480 2.81649
# Velocity P-wave (km/s) = 4.45477 4.51348 4.48422
#
# Compressibility (1/GPa) = 0.07449228
#
# Stress axis : x y z
#
# Youngs Moduli (GPa) = 59.84900 45.95148 10.52185
#
# Poissons Ratio (x) = 0.05038 0.17013
# Poissons Ratio (y) = 0.06562 0.12882
# Poissons Ratio (z) = 0.96774 0.56260
#
# Static dielectric constant tensor:
#      x y z
#    x 1.641600 0.000000 0.000000 
#    y 0.000000 1.647140 0.000000 
#    z 0.000000 0.000000 1.666300 
# 
# From -- ./inp_files/19198.got.cif
#   From: 2010.05.17/outbox.cif.g08.bks.cpg/sg40_10_cif.got.tgz:19198.got - 2010.06.03 18:35:42.
