data_PCOD9363091
_publ_section_title
;
Structure prediction by ZEFSAII (Michael W. Deem and Ramdas Pophale) SiO2 
 PCOD9363091
Probable space group: A M A 2
;
_chemical_formula_sum "Si O2"
_cell_formula_units_Z 56
_cell_length_a 9.225562
_cell_length_b 15.582677
_cell_length_c 20.138434
_cell_angle_alpha 90.000000
_cell_angle_beta 90.000000
_cell_angle_gamma 90.000000
_cell_volume 2895.080183
_symmetry_space_group_name_H-M "A M A 2"
_symmetry_group_IT_number 40
_symmetry_cell_setting 'orthorhombic'
loop_
_space_group_symop_operation_xyz
x,y,z
-x,-y,z
1/2-x,y,z
1/2+x,-y,z
x,1/2+y,1/2+z
-x,1/2-y,1/2+z
1/2-x,1/2+y,1/2+z
1/2+x,1/2-y,1/2+z
loop_
_atom_site_type_symbol
_atom_site_label
_atom_site_fract_x
_atom_site_fract_y
_atom_site_fract_z
Si Si1 0.585443 0.573118 0.078630
Si Si2 0.426786 0.092438 0.849447
Si Si3 0.916540 0.878948 0.447380
Si Si4 0.916330 0.272968 0.611623
Si Si5 0.586279 0.755488 0.744829
Si Si6 0.586136 0.574216 0.816646
Si Si7 0.920378 0.677622 0.476752
O O1 0.500000 0.500000 0.119068
O O2 0.750000 0.545163 0.068912
O O3 0.587682 0.669550 0.104505
O O4 0.497192 0.585988 0.011323
O O5 0.250000 0.086730 0.853469
O O6 0.461055 0.164750 0.792356
O O7 0.493058 0.123641 0.920715
O O8 0.500000 0.000000 0.834127
O O9 0.750000 0.904788 0.447136
O O10 0.922691 0.775755 0.450919
O O11 0.999387 0.911846 0.383955
O O12 0.750000 0.304131 0.611033
O O13 0.992342 0.276578 0.682686
O O14 0.003338 0.315615 0.549674
O O15 0.750000 0.777115 0.721346
O O16 0.592198 0.669148 0.787526
O O17 0.500000 0.500000 0.777397
O O18 0.750000 0.544895 0.826894
O O19 0.750000 0.651362 0.481908
#
# Coordination Sequence:
#
# PCOD9363091 Si02
#       7
#     8   8   8   8   8   8   8
#     4  10  20  33  50  77 112 149 189 236 289 351
#     4  11  23  41  65  95 129 168 215 267 322 380
#     4  10  19  32  54  83 114 149 186 233 287 344
#     4  10  22  38  60  85 116 159 205 256 314 374
#     4  10  23  42  62  86 123 164 204 256 314 376
#     4  11  22  37  57  84 116 152 191 238 296 355
#     4  10  20  37  62  90 120 157 204 254 306 366
#
# _framework density 19.343160000000001
#
# number of rings (size 3 to 8) (size 9 to 14) (size 15 to 20)
#    0.000    1.714    1.429    3.000    0.000    5.714 
#    0.000    3.571    0.000    1.714    0.000    0.000 
#    0.000    0.000    0.000    0.000    0.000    0.000 
#
# Total GULP energy -156016.398156 kJ/mol
# GULP energy per Si atom -5572.014220 kJ/mol
# Density = 1.929913 g / cm^3
# Si number density = 19.343160 Si / 1000 Ang^3
#
#
#
# Elastic Constant Matrix: (Units=GPa)
#
#
# Indices 1 2 3 4 5 6 
#
# 1 132.4466 15.5099 34.5391 0.0000 0.0000 0.0000
# 2 15.5099 67.6643 3.0834 0.0000 0.0000 0.0000
# 3 34.5391 3.0834 70.7065 0.0000 0.0000 0.0000
# 4 0.0000 0.0000 0.0000 4.7474 0.0000 0.0000
# 5 0.0000 0.0000 0.0000 0.0000 112.2096 0.0000
# 6 0.0000 0.0000 0.0000 0.0000 0.0000 33.9240
#
#
#
# Elastic Compliance Matrix: (Units=1/GPa)
#
#
# Indices 1 2 3 4 5 6 
#
# 1 0.008875 -0.001841 -0.004255 0.000000 0.000000 0.000000
# 2 -0.001841 0.015190 0.000237 0.000000 0.000000 0.000000
# 3 -0.004255 0.000237 0.016211 0.000000 0.000000 0.000000
# 4 0.000000 0.000000 0.000000 0.210643 0.000000 0.000000
# 5 0.000000 0.000000 0.000000 0.000000 0.008912 0.000000
# 6 0.000000 0.000000 0.000000 0.000000 0.000000 0.029478
#
#
# Mechanical properties :
#
#
# Convention : Reuss Voigt Hill
#
# Bulk Modulus (GPa) = 35.01594 41.89804 38.45699
# Shear Modulus (GPa) = 16.10065 44.68853 30.39459
#
# Velocity S-wave (km/s) = 2.88821 4.81177 3.96831
# Velocity P-wave (km/s) = 5.40963 7.25109 6.39697
#
# Compressibility (1/GPa) = 0.02855842
#
# Stress axis : x y z
#
# Youngs Moduli (GPa) = 112.67080 65.83301 61.68546
#
# Poissons Ratio (x) = 0.12117 0.26249
# Poissons Ratio (y) = 0.20737 -0.01460
# Poissons Ratio (z) = 0.47944 -0.01558
#
# Static dielectric constant tensor:
#      x y z
#    x 1.290790 0.000000 0.000000 
#    y 0.000000 1.785590 0.000000 
#    z 0.000000 0.000000 1.687090 
# 
# From -- ./inp_files/22196.got.cif
#   From: 2010.05.17/outbox.cif.g08.bks.cpg/sg40_12_cif.got.tgz:22196.got - 2010.06.03 18:35:42.
