data_PCOD9363828
_publ_section_title
;
Structure prediction by ZEFSAII (Michael W. Deem and Ramdas Pophale) SiO2 
 PCOD9363828
Probable space group: A M A 2
;
_chemical_formula_sum "Si O2"
_cell_formula_units_Z 64
_cell_length_a 17.966893
_cell_length_b 7.688776
_cell_length_c 21.838714
_cell_angle_alpha 90.000000
_cell_angle_beta 90.000000
_cell_angle_gamma 90.000000
_cell_volume 3016.874546
_symmetry_space_group_name_H-M "A M A 2"
_symmetry_group_IT_number 40
_symmetry_cell_setting 'orthorhombic'
loop_
_space_group_symop_operation_xyz
x,y,z
-x,-y,z
1/2-x,y,z
1/2+x,-y,z
x,1/2+y,1/2+z
-x,1/2-y,1/2+z
1/2-x,1/2+y,1/2+z
1/2+x,1/2-y,1/2+z
loop_
_atom_site_type_symbol
_atom_site_label
_atom_site_fract_x
_atom_site_fract_y
_atom_site_fract_z
Si Si1 0.087474 0.530432 0.888810
Si Si2 0.410001 0.522936 0.021865
Si Si3 0.414472 0.949247 0.900386
Si Si4 0.666816 0.038781 0.779939
Si Si5 0.666637 0.952356 0.267498
Si Si6 0.586783 0.957661 0.654355
Si Si7 0.586264 0.044413 0.143090
Si Si8 0.161217 0.910667 0.021890
O O1 0.093345 0.739909 0.894804
O O2 0.130924 0.467784 0.828869
O O3 0.000000 0.500000 0.880147
O O4 0.113088 0.453769 0.954718
O O5 0.500000 0.500000 0.021792
O O6 0.387509 0.457086 0.089642
O O7 0.380690 0.722548 0.021940
O O8 0.383948 0.022337 0.836310
O O9 0.500000 0.000000 0.909729
O O10 0.366409 0.000750 0.959576
O O11 0.750000 0.967624 0.785831
O O12 0.671344 0.247884 0.782138
O O13 0.632977 0.003445 0.713810
O O14 0.750000 0.018959 0.255808
O O15 0.617225 0.971948 0.206903
O O16 0.592783 0.751424 0.647970
O O17 0.500000 0.000000 0.663921
O O18 0.633262 0.993123 0.083096
O O19 0.500000 0.000000 0.134289
O O20 0.250000 0.886840 0.022261
#
# Coordination Sequence:
#
# PCOD9363828 Si02
#       8
#     8   8   8   8   8   8   8   8
#     4   9  18  34  55  78 104 139 181 224 271 325
#     4   8  17  33  54  80 109 140 178 226 272 324
#     4  10  20  35  56  81 108 142 185 229 273 327
#     4  10  21  36  54  78 110 146 183 228 281 331
#     4  10  21  36  54  79 112 147 183 228 283 334
#     4  10  20  35  55  80 108 141 182 227 274 328
#     4  11  22  36  57  82 110 146 186 229 278 333
#     4  10  20  35  57  84 112 143 184 231 277 328
#
# _framework density 21.214008
#
# number of rings (size 3 to 8) (size 9 to 14) (size 15 to 20)
#    0.000    2.250    0.000    2.625    0.000    8.500 
#    0.000    1.250    0.000    0.750    0.000   12.250 
#    0.000    0.000    0.000    0.000    0.000    0.000 
#
# Total GULP energy -178476.570996 kJ/mol
# GULP energy per Si atom -5577.392844 kJ/mol
# Density = 2.116572 g / cm^3
# Si number density = 21.214008 Si / 1000 Ang^3
#
#
#
# Elastic Constant Matrix: (Units=GPa)
#
#
# Indices 1 2 3 4 5 6 
#
# 1 108.6905 8.4431 83.3816 0.0000 0.0000 0.0000
# 2 8.4431 36.3875 7.5919 0.0000 0.0000 0.0000
# 3 83.3816 7.5919 200.2496 0.0000 0.0000 0.0000
# 4 0.0000 0.0000 0.0000 13.7603 0.0000 0.0000
# 5 0.0000 0.0000 0.0000 0.0000 44.8779 0.0000
# 6 0.0000 0.0000 0.0000 0.0000 0.0000 11.5926
#
#
#
# Elastic Compliance Matrix: (Units=1/GPa)
#
#
# Indices 1 2 3 4 5 6 
#
# 1 0.013661 -0.001999 -0.005613 0.000000 0.000000 0.000000
# 2 -0.001999 0.027994 -0.000229 0.000000 0.000000 0.000000
# 3 -0.005613 -0.000229 0.007340 0.000000 0.000000 0.000000
# 4 0.000000 0.000000 0.000000 0.072673 0.000000 0.000000
# 5 0.000000 0.000000 0.000000 0.000000 0.022283 0.000000
# 6 0.000000 0.000000 0.000000 0.000000 0.000000 0.086262
#
#
# Mechanical properties :
#
#
# Convention : Reuss Voigt Hill
#
# Bulk Modulus (GPa) = 30.01792 60.46230 45.24011
# Shear Modulus (GPa) = 19.45545 30.44023 24.94784
#
# Velocity S-wave (km/s) = 3.03166 3.79213 3.43302
# Velocity P-wave (km/s) = 5.14153 6.90917 6.08983
#
# Compressibility (1/GPa) = 0.03331343
#
# Stress axis : x y z
#
# Youngs Moduli (GPa) = 73.19857 35.72247 136.24890
#
# Poissons Ratio (x) = 0.07141 0.76472
# Poissons Ratio (y) = 0.14632 0.03120
# Poissons Ratio (z) = 0.41084 0.00818
#
# Static dielectric constant tensor:
#      x y z
#    x 1.721660 0.000000 0.000000 
#    y 0.000000 1.826730 0.000000 
#    z 0.000000 0.000000 1.817810 
# 
# From -- ./inp_files/21399.got.cif
#   From: 2010.05.17/outbox.cif.g08.bks.cpg/sg40_11_cif.got.tgz:21399.got - 2010.06.03 18:35:42.
