data_PCOD9363658
_publ_section_title
;
Structure prediction by ZEFSAII (Michael W. Deem and Ramdas Pophale) SiO2 
 PCOD9363658
Probable space group: A M A 2
;
_chemical_formula_sum "Si O2"
_cell_formula_units_Z 64
_cell_length_a 7.976488
_cell_length_b 29.194302
_cell_length_c 13.006789
_cell_angle_alpha 90.000000
_cell_angle_beta 90.000000
_cell_angle_gamma 90.000000
_cell_volume 3028.864935
_symmetry_space_group_name_H-M "A M A 2"
_symmetry_group_IT_number 40
_symmetry_cell_setting 'orthorhombic'
loop_
_space_group_symop_operation_xyz
x,y,z
-x,-y,z
1/2-x,y,z
1/2+x,-y,z
x,1/2+y,1/2+z
-x,1/2-y,1/2+z
1/2-x,1/2+y,1/2+z
1/2+x,1/2-y,1/2+z
loop_
_atom_site_type_symbol
_atom_site_label
_atom_site_fract_x
_atom_site_fract_y
_atom_site_fract_z
Si Si1 0.942904 0.177020 0.036010
Si Si2 0.547829 0.047864 0.206902
Si Si3 0.450336 0.591177 0.269483
Si Si4 0.558381 0.068797 0.989740
Si Si5 0.044169 0.792034 0.261933
Si Si6 0.555332 0.307074 0.315857
Si Si7 0.050627 0.051814 0.555364
Si Si8 0.452306 0.380098 0.874232
O O1 0.750000 0.193105 0.026746
O O2 0.003376 0.189586 0.149281
O O3 0.940587 0.122473 0.020130
O O4 0.044205 0.195618 0.939340
O O5 0.750000 0.051562 0.199079
O O6 0.489891 0.089521 0.276905
O O7 0.500000 0.000000 0.257713
O O8 0.475447 0.047919 0.091384
O O9 0.250000 0.594800 0.259105
O O10 0.481760 0.565440 0.377051
O O11 0.517810 0.643589 0.281611
O O12 0.517142 0.565706 0.168591
O O13 0.750000 0.052619 0.980855
O O14 0.250000 0.791356 0.265060
O O15 0.981259 0.740291 0.274809
O O16 0.990776 0.828245 0.349994
O O17 0.750000 0.307867 0.284648
O O18 0.250000 0.051378 0.560644
O O19 0.002630 0.091605 0.474890
O O20 0.000000 0.000000 0.526753
O O21 0.250000 0.379500 0.873370
#
# Coordination Sequence:
#
# PCOD9363658 Si02
#       8
#     8   8   8   8   8   8   8   8
#     4   9  16  31  53  74 101 139 178 219 269 324
#     4  10  20  33  51  77 107 134 168 215 266 321
#     4   9  20  37  55  77 110 145 181 228 280 330
#     4   9  17  32  54  77 101 133 175 220 266 324
#     4   9  17  32  56  80 107 147 187 222 274 338
#     4   9  18  33  53  80 110 144 183 227 280 332
#     4  11  24  41  59  81 112 151 194 239 287 338
#     4  10  20  37  58  80 109 145 186 228 274 333
#
# _framework density 21.130026999999998
#
# number of rings (size 3 to 8) (size 9 to 14) (size 15 to 20)
#    0.000    2.500    1.250    0.750    0.000    4.500 
#    0.000    5.625    0.000    0.000    0.000    0.000 
#    0.000    0.000    0.000    0.000    0.000    0.000 
#
# Total GULP energy -178393.381955 kJ/mol
# GULP energy per Si atom -5574.793186 kJ/mol
# Density = 2.108193 g / cm^3
# Si number density = 21.130027 Si / 1000 Ang^3
#
#
#
# Elastic Constant Matrix: (Units=GPa)
#
#
# Indices 1 2 3 4 5 6 
#
# 1 17.8042 5.1409 2.7795 0.0000 0.0000 0.0000
# 2 5.1409 48.8672 10.4737 0.0000 0.0000 0.0000
# 3 2.7795 10.4737 96.1344 0.0000 0.0000 0.0000
# 4 0.0000 0.0000 0.0000 18.8522 0.0000 0.0000
# 5 0.0000 0.0000 0.0000 0.0000 93.9033 0.0000
# 6 0.0000 0.0000 0.0000 0.0000 0.0000 16.2154
#
#
#
# Elastic Compliance Matrix: (Units=1/GPa)
#
#
# Indices 1 2 3 4 5 6 
#
# 1 0.058027 -0.005882 -0.001037 0.000000 0.000000 0.000000
# 2 -0.005882 0.021549 -0.002178 0.000000 0.000000 0.000000
# 3 -0.001037 -0.002178 0.010669 0.000000 0.000000 0.000000
# 4 0.000000 0.000000 0.000000 0.053044 0.000000 0.000000
# 5 0.000000 0.000000 0.000000 0.000000 0.010649 0.000000
# 6 0.000000 0.000000 0.000000 0.000000 0.000000 0.061670
#
#
# Mechanical properties :
#
#
# Convention : Reuss Voigt Hill
#
# Bulk Modulus (GPa) = 13.87891 22.17711 18.02801
# Shear Modulus (GPa) = 19.39342 35.42164 27.40753
#
# Velocity S-wave (km/s) = 3.03283 4.09879 3.60542
# Velocity P-wave (km/s) = 4.34128 5.73745 5.08749
#
# Compressibility (1/GPa) = 0.07205175
#
# Stress axis : x y z
#
# Youngs Moduli (GPa) = 17.23339 46.40544 93.72656
#
# Poissons Ratio (x) = 0.27297 0.09718
# Poissons Ratio (y) = 0.10137 0.20411
# Poissons Ratio (z) = 0.01787 0.10106
#
# Static dielectric constant tensor:
#      x y z
#    x 1.707790 0.000000 0.000000 
#    y 0.000000 1.796200 0.000000 
#    z 0.000000 0.000000 1.769550 
# 
# From -- ./inp_files/10551.got.cif
#   From: 2010.05.17/outbox.cif.g08.bks.cpg/sg40_6_cif.got.tgz:10551.got - 2010.06.03 18:35:42.
