data_PCOD9363602
_publ_section_title
;
Structure prediction by ZEFSAII (Michael W. Deem and Ramdas Pophale) SiO2 
 PCOD9363602
Probable space group: A M A 2
;
_chemical_formula_sum "Si O2"
_cell_formula_units_Z 48
_cell_length_a 9.187611
_cell_length_b 32.821350
_cell_length_c 7.359452
_cell_angle_alpha 90.000000
_cell_angle_beta 90.000000
_cell_angle_gamma 90.000000
_cell_volume 2219.241251
_symmetry_space_group_name_H-M "A M A 2"
_symmetry_group_IT_number 40
_symmetry_cell_setting 'orthorhombic'
loop_
_space_group_symop_operation_xyz
x,y,z
-x,-y,z
1/2-x,y,z
1/2+x,-y,z
x,1/2+y,1/2+z
-x,1/2-y,1/2+z
1/2-x,1/2+y,1/2+z
1/2+x,1/2-y,1/2+z
loop_
_atom_site_type_symbol
_atom_site_label
_atom_site_fract_x
_atom_site_fract_y
_atom_site_fract_z
Si Si1 0.419552 0.041142 0.301110
Si Si2 0.074463 0.628500 0.386368
Si Si3 0.574721 0.622206 0.782765
Si Si4 0.917486 0.459800 0.356683
Si Si5 0.587638 0.210886 0.306336
Si Si6 0.087006 0.292063 0.371384
O O1 0.250000 0.042264 0.352809
O O2 0.504831 0.081459 0.363888
O O3 0.423764 0.040661 0.078655
O O4 0.500000 0.000000 0.360276
O O5 0.250000 0.629649 0.397402
O O6 0.030897 0.585197 0.297629
O O7 0.004637 0.625793 0.587398
O O8 0.012724 0.670487 0.306677
O O9 0.750000 0.618115 0.761792
O O10 0.547594 0.665878 0.877930
O O11 0.750000 0.463749 0.304580
O O12 0.000000 0.500000 0.294889
O O13 0.750000 0.222084 0.371166
O O14 0.478974 0.247748 0.336783
O O15 0.595641 0.205387 0.089453
O O16 0.250000 0.296147 0.298187
#
# Coordination Sequence:
#
# PCOD9363602 Si02
#       6
#     8   8   8   8   8   8
#     4   9  15  22  33  51  76 108 143 177 217 263
#     4   9  16  26  39  56  81 113 145 178 221 266
#     4   9  16  26  39  57  82 111 145 182 220 266
#     4   8  14  21  31  49  73 104 138 170 208 254
#     4   9  19  33  47  66  92 120 151 189 230 271
#     4  10  20  32  48  69  90 118 155 190 228 272
#
# _framework density 21.629013
#
# number of rings (size 3 to 8) (size 9 to 14) (size 15 to 20)
#    0.000    3.000    0.000    4.000    0.000    8.667 
#    0.000    0.000    0.000    0.000    0.000    0.000 
#    0.000    1.333    0.000    7.333    0.000    9.333 
#
# Total GULP energy -133822.572830 kJ/mol
# GULP energy per Si atom -5575.940535 kJ/mol
# Density = 2.157978 g / cm^3
# Si number density = 21.629013 Si / 1000 Ang^3
#
#
#
# Elastic Constant Matrix: (Units=GPa)
#
#
# Indices 1 2 3 4 5 6 
#
# 1 135.3648 125.4279 7.3341 0.0000 0.0000 0.0000
# 2 125.4279 247.9919 1.7226 0.0000 0.0000 0.0000
# 3 7.3341 1.7226 65.1178 0.0000 0.0000 0.0000
# 4 0.0000 0.0000 0.0000 -0.0009 0.0000 0.0000
# 5 0.0000 0.0000 0.0000 0.0000 1.1770 0.0000
# 6 0.0000 0.0000 0.0000 0.0000 0.0000 55.3215
#
#
#
# Elastic Compliance Matrix: (Units=1/GPa)
#
#
# Indices 1 2 3 4 5 6 
#
# 1 0.014028 -0.007085 -0.001393 -0.000001 0.000000 0.000000
# 2 -0.007085 0.007612 0.000597 0.000000 0.000000 0.000000
# 3 -0.001393 0.000597 0.015498 0.000000 0.000000 0.000000
# 4 -0.000001 0.000000 0.000000********** -0.000083 0.000000
# 5 0.000000 0.000000 0.000000 -0.000083 0.849589 0.000000
# 6 0.000000 0.000000 0.000000 0.000000 0.000000 0.018076
#
#
# Mechanical properties :
#
#
# Convention : Reuss Voigt Hill
#
# Bulk Modulus (GPa) = 46.78296 79.71594 63.24945
# Shear Modulus (GPa) = -0.00437 32.23220 16.11391
#
# Velocity S-wave (km/s) = -0.04502 3.86454 2.73246
# Velocity P-wave (km/s) = 4.65553 7.53982 6.26589
#
# Compressibility (1/GPa) = 0.02137530
#
# Stress axis : x y z
#
# Youngs Moduli (GPa) = 71.28510 131.37383 64.52509
#
# Poissons Ratio (x) = 0.93084 0.08985
# Poissons Ratio (y) = 0.50508 -0.03850
# Poissons Ratio (z) = 0.09927 -0.07839
#
# Static dielectric constant tensor:
#      x y z
#    x 1.504460 0.000000 0.000000 
#    y 0.000000 1.837080 0.000000 
#    z 0.000000 0.000000 1.923360 
# 
# From -- ./inp_files/10314.got.cif
#   From: 2010.05.17/outbox.cif.g08.bks.cpg/sg40_6_cif.got.tgz:10314.got - 2010.06.03 18:35:42.
