data_PCOD9363390
_publ_section_title
;
Structure prediction by ZEFSAII (Michael W. Deem and Ramdas Pophale) SiO2 
 PCOD9363390
Probable space group: A M A 2
;
_chemical_formula_sum "Si O2"
_cell_formula_units_Z 48
_cell_length_a 8.749627
_cell_length_b 29.053017
_cell_length_c 10.552175
_cell_angle_alpha 90.000000
_cell_angle_beta 90.000000
_cell_angle_gamma 90.000000
_cell_volume 2682.395195
_symmetry_space_group_name_H-M "A M A 2"
_symmetry_group_IT_number 40
_symmetry_cell_setting 'orthorhombic'
loop_
_space_group_symop_operation_xyz
x,y,z
-x,-y,z
1/2-x,y,z
1/2+x,-y,z
x,1/2+y,1/2+z
-x,1/2-y,1/2+z
1/2-x,1/2+y,1/2+z
1/2+x,1/2-y,1/2+z
loop_
_atom_site_type_symbol
_atom_site_label
_atom_site_fract_x
_atom_site_fract_y
_atom_site_fract_z
Si Si1 0.933487 0.143717 0.427960
Si Si2 0.565458 0.854532 0.936413
Si Si3 0.065734 0.306873 0.188399
Si Si4 0.565215 0.800001 0.191326
Si Si5 0.933222 0.450660 0.841792
Si Si6 0.433613 0.548830 0.544311
O O1 0.750000 0.142044 0.424019
O O2 0.981758 0.168822 0.557613
O O3 0.993873 0.172692 0.308419
O O4 0.999566 0.092371 0.417041
O O5 0.750000 0.854071 0.928543
O O6 0.498130 0.833475 0.809381
O O7 0.522414 0.824019 0.058818
O O8 0.515733 0.906888 0.964925
O O9 0.250000 0.307642 0.192606
O O10 0.018421 0.253375 0.191454
O O11 0.750000 0.802678 0.201809
O O12 0.750000 0.451056 0.850492
O O13 0.975332 0.444271 0.692657
O O14 0.000000 0.500000 0.881606
O O15 0.500000 0.500000 0.502245
O O16 0.250000 0.546661 0.539440
#
# Coordination Sequence:
#
# PCOD9363390 Si02
#       6
#     8   8   8   8   8   8
#     4  11  22  37  57  84 115 149 189 231 278 334
#     4  10  20  37  58  81 111 147 184 226 280 335
#     4  10  23  38  54  80 115 150 186 231 279 331
#     4  10  20  38  59  80 110 147 189 236 280 327
#     4  10  19  35  58  85 114 144 183 232 280 329
#     4   9  18  33  55  82 109 139 176 224 274 322
#
# _framework density 17.894456000000002
#
# number of rings (size 3 to 8) (size 9 to 14) (size 15 to 20)
#    0.000    2.000    1.667    2.000    0.000    5.333 
#    0.000    0.833    0.000    2.000    0.000    0.000 
#    0.000    0.000    0.000    0.000    0.000    0.000 
#
# Total GULP energy -134020.767368 kJ/mol
# GULP energy per Si atom -5584.198640 kJ/mol
# Density = 1.785373 g / cm^3
# Si number density = 17.894456 Si / 1000 Ang^3
#
#
#
# Elastic Constant Matrix: (Units=GPa)
#
#
# Indices 1 2 3 4 5 6 
#
# 1 21.9788 41.1569 31.9091 0.0000 0.0000 0.0000
# 2 41.1569 194.9537 87.6645 0.0000 0.0000 0.0000
# 3 31.9091 87.6645 130.3175 0.0000 0.0000 0.0000
# 4 0.0000 0.0000 0.0000 0.8177 0.0000 0.0000
# 5 0.0000 0.0000 0.0000 0.0000 -51.6602 0.0000
# 6 0.0000 0.0000 0.0000 0.0000 0.0000 33.0658
#
#
#
# Elastic Compliance Matrix: (Units=1/GPa)
#
#
# Indices 1 2 3 4 5 6 
#
# 1 0.088385 -0.012799 -0.013032 0.000000 0.000000 0.000000
# 2 -0.012799 0.009207 -0.003060 0.000000 0.000000 0.000000
# 3 -0.013032 -0.003060 0.012923 0.000000 0.000000 0.000000
# 4 0.000000 0.000000 0.000000 1.222932 0.000000 0.000000
# 5 0.000000 0.000000 0.000000 0.000000 -0.019357 0.000000
# 6 0.000000 0.000000 0.000000 0.000000 0.000000 0.030243
#
#
# Mechanical properties :
#
#
# Convention : Reuss Voigt Hill
#
# Bulk Modulus (GPa) = 18.96305 74.30122 46.63214
# Shear Modulus (GPa) = 3.52189 8.87928 6.20059
#
# Velocity S-wave (km/s) = 1.40443 2.22998 1.86349
# Velocity P-wave (km/s) = 3.64006 6.94568 5.54493
#
# Compressibility (1/GPa) = 0.05273413
#
# Stress axis : x y z
#
# Youngs Moduli (GPa) = 11.31407 108.60841 77.38242
#
# Poissons Ratio (x) = 1.39010 1.00843
# Poissons Ratio (y) = 0.14481 0.23678
# Poissons Ratio (z) = 0.14744 0.33232
#
# Static dielectric constant tensor:
#      x y z
#    x 1.606610 0.000000 0.000000 
#    y 0.000000 1.607570 0.000000 
#    z 0.000000 0.000000 1.577650 
# 
# From -- ./inp_files/4599.got.cif
#   From: 2010.05.17/outbox.cif.g08.bks.cpg/sg40_3_cif.got.tgz:4599.got - 2010.06.03 18:35:42.
