data_PCOD9363930
_publ_section_title
;
Structure prediction by ZEFSAII (Michael W. Deem and Ramdas Pophale) SiO2 
 PCOD9363930
Probable space group: A M A 2
;
_chemical_formula_sum "Si O2"
_cell_formula_units_Z 56
_cell_length_a 8.640530
_cell_length_b 24.507584
_cell_length_c 14.123248
_cell_angle_alpha 90.000000
_cell_angle_beta 90.000000
_cell_angle_gamma 90.000000
_cell_volume 2990.718020
_symmetry_space_group_name_H-M "A M A 2"
_symmetry_group_IT_number 40
_symmetry_cell_setting 'orthorhombic'
loop_
_space_group_symop_operation_xyz
x,y,z
-x,-y,z
1/2-x,y,z
1/2+x,-y,z
x,1/2+y,1/2+z
-x,1/2-y,1/2+z
1/2-x,1/2+y,1/2+z
1/2+x,1/2-y,1/2+z
loop_
_atom_site_type_symbol
_atom_site_label
_atom_site_fract_x
_atom_site_fract_y
_atom_site_fract_z
Si Si1 0.064157 0.618463 0.074790
Si Si2 0.934882 0.059336 0.757195
Si Si3 0.063804 0.667179 0.579550
Si Si4 0.434938 0.940411 0.397739
Si Si5 0.435656 0.228751 0.682471
Si Si6 0.936102 0.440960 0.687501
Si Si7 0.562244 0.336852 0.364566
O O1 0.250000 0.613950 0.072311
O O2 0.023244 0.679050 0.111466
O O3 0.999012 0.577413 0.154355
O O4 0.993730 0.602907 0.974132
O O5 0.750000 0.058541 0.755242
O O6 0.995154 0.105740 0.828672
O O7 0.000000 0.000000 0.781686
O O8 0.250000 0.668139 0.579750
O O9 0.015817 0.608090 0.618864
O O10 0.012255 0.675541 0.471240
O O11 0.005657 0.715164 0.646846
O O12 0.250000 0.942254 0.395328
O O13 0.499846 0.929619 0.292836
O O14 0.500000 0.000000 0.426127
O O15 0.250000 0.233468 0.682755
O O16 0.484260 0.208434 0.786921
O O17 0.750000 0.443553 0.691698
O O18 0.000000 0.500000 0.657948
O O19 0.750000 0.340660 0.361737
#
# Coordination Sequence:
#
# PCOD9363930 Si02
#       7
#     8   8   8   8   8   8   8
#     4  10  20  36  55  80 114 150 187 232 277 325
#     4  11  21  34  54  82 113 149 188 230 277 331
#     4  10  22  39  61  84 111 144 183 228 278 330
#     4  11  21  34  54  81 112 149 188 231 278 331
#     4   9  20  37  58  81 110 144 182 226 275 327
#     4  10  21  38  57  81 111 145 183 230 278 328
#     4   9  20  40  58  79 111 147 185 231 277 324
#
# _framework density 18.724599999999999
#
# number of rings (size 3 to 8) (size 9 to 14) (size 15 to 20)
#    0.000    2.000    0.000    5.571    0.000    6.286 
#    0.000    4.286    0.000    0.000    0.000    0.000 
#    0.000    0.000    0.000    0.000    0.000    0.000 
#
# Total GULP energy -156395.004949 kJ/mol
# GULP energy per Si atom -5585.535891 kJ/mol
# Density = 1.868198 g / cm^3
# Si number density = 18.724600 Si / 1000 Ang^3
#
#
#
# Elastic Constant Matrix: (Units=GPa)
#
#
# Indices 1 2 3 4 5 6 
#
# 1 66.3857 35.9641 33.6451 0.0000 0.0000 0.0000
# 2 35.9641 135.1132 95.9628 0.0000 0.0000 0.0000
# 3 33.6451 95.9628 119.3267 0.0000 0.0000 0.0000
# 4 0.0000 0.0000 0.0000 17.1545 0.0000 0.0000
# 5 0.0000 0.0000 0.0000 0.0000 45.1620 0.0000
# 6 0.0000 0.0000 0.0000 0.0000 0.0000 33.7118
#
#
#
# Elastic Compliance Matrix: (Units=1/GPa)
#
#
# Indices 1 2 3 4 5 6 
#
# 1 0.018008 -0.002768 -0.002851 0.000000 0.000000 0.000000
# 2 -0.002768 0.017685 -0.013442 0.000000 0.000000 0.000000
# 3 -0.002851 -0.013442 0.019994 0.000000 0.000000 0.000000
# 4 0.000000 0.000000 0.000000 0.058294 0.000000 0.000000
# 5 0.000000 0.000000 0.000000 0.000000 0.022142 0.000000
# 6 0.000000 0.000000 0.000000 0.000000 0.000000 0.029663
#
#
# Mechanical properties :
#
#
# Convention : Reuss Voigt Hill
#
# Bulk Modulus (GPa) = 56.93228 72.44109 64.68668
# Shear Modulus (GPa) = 23.83631 29.55592 26.69611
#
# Velocity S-wave (km/s) = 3.57178 3.97729 3.77997
# Velocity P-wave (km/s) = 6.89066 7.73714 7.32614
#
# Compressibility (1/GPa) = 0.01756473
#
# Stress axis : x y z
#
# Youngs Moduli (GPa) = 55.53000 56.54549 50.01467
#
# Poissons Ratio (x) = 0.15653 0.14261
# Poissons Ratio (y) = 0.15372 0.67228
# Poissons Ratio (z) = 0.15833 0.76007
#
# Static dielectric constant tensor:
#      x y z
#    x 1.629470 0.000000 0.000000 
#    y 0.000000 1.630340 0.000000 
#    z 0.000000 0.000000 1.644760 
# 
# From -- ./inp_files/15337.got.cif
#   From: 2010.05.17/outbox.cif.g08.bks.cpg/sg40_8_cif.got.tgz:15337.got - 2010.06.03 18:35:42.
