data_PCOD9363217
_publ_section_title
;
Structure prediction by ZEFSAII (Michael W. Deem and Ramdas Pophale) SiO2 
 PCOD9363217
Probable space group: A M A 2
;
_chemical_formula_sum "Si O2"
_cell_formula_units_Z 64
_cell_length_a 9.361168
_cell_length_b 20.448424
_cell_length_c 16.882070
_cell_angle_alpha 90.000000
_cell_angle_beta 90.000000
_cell_angle_gamma 90.000000
_cell_volume 3231.584957
_symmetry_space_group_name_H-M "A M A 2"
_symmetry_group_IT_number 40
_symmetry_cell_setting 'orthorhombic'
loop_
_space_group_symop_operation_xyz
x,y,z
-x,-y,z
1/2-x,y,z
1/2+x,-y,z
x,1/2+y,1/2+z
-x,1/2-y,1/2+z
1/2-x,1/2+y,1/2+z
1/2+x,1/2-y,1/2+z
loop_
_atom_site_type_symbol
_atom_site_label
_atom_site_fract_x
_atom_site_fract_y
_atom_site_fract_z
Si Si1 0.408443 0.825379 0.685420
Si Si2 0.077931 0.431984 0.723802
Si Si3 0.586830 0.380372 0.428301
Si Si4 0.918750 0.166126 0.078103
Si Si5 0.417686 0.136008 0.363336
Si Si6 0.416677 0.177319 0.544520
Si Si7 0.587766 0.757252 0.808181
Si Si8 0.593431 0.552259 0.299408
O O1 0.250000 0.794504 0.677093
O O2 0.467683 0.852531 0.603587
O O3 0.535705 0.782724 0.723248
O O4 0.395262 0.882937 0.748374
O O5 0.250000 0.440632 0.727699
O O6 0.050371 0.370937 0.662140
O O7 0.000000 0.500000 0.698643
O O8 0.012400 0.412868 0.809997
O O9 0.750000 0.401209 0.436902
O O10 0.515021 0.368133 0.512113
O O11 0.587505 0.314390 0.374053
O O12 0.491588 0.429658 0.378053
O O13 0.750000 0.155388 0.064083
O O14 0.940972 0.243980 0.058297
O O15 0.250000 0.123201 0.349878
O O16 0.439767 0.146766 0.457508
O O17 0.467681 0.206236 0.331633
O O18 0.250000 0.165644 0.564796
O O19 0.750000 0.730827 0.803777
O O20 0.500000 0.500000 0.253234
O O21 0.750000 0.526443 0.315966
#
# Coordination Sequence:
#
# PCOD9363217 Si02
#       8
#     8   8   8   8   8   8   8   8
#     4  10  21  35  55  83 115 151 192 241 296 355
#     4  11  25  44  65  88 121 167 214 259 307 367
#     4  10  20  33  55  87 120 154 192 238 292 354
#     4  10  21  39  61  87 121 159 198 248 303 355
#     4  11  22  38  63  90 118 155 200 252 306 364
#     4  10  21  37  60  91 123 152 191 246 310 365
#     4  10  19  33  55  85 120 156 193 238 298 361
#     4  10  21  37  56  79 111 152 196 240 288 348
#
# _framework density 19.804523
#
# number of rings (size 3 to 8) (size 9 to 14) (size 15 to 20)
#    0.000    1.750    1.250    3.000    0.000    6.500 
#    0.000    1.875    0.000    1.500    0.000    0.000 
#    0.000    0.000    0.000    0.000    0.000    0.000 
#
# Total GULP energy -178267.367464 kJ/mol
# GULP energy per Si atom -5570.855233 kJ/mol
# Density = 1.975945 g / cm^3
# Si number density = 19.804523 Si / 1000 Ang^3
#
#
#
# Elastic Constant Matrix: (Units=GPa)
#
#
# Indices 1 2 3 4 5 6 
#
# 1 94.6688 21.9654 70.9024 0.0000 0.0000 0.0000
# 2 21.9654 38.0485 6.9130 0.0000 0.0000 0.0000
# 3 70.9024 6.9130 107.8684 0.0000 0.0000 0.0000
# 4 0.0000 0.0000 0.0000 8.1464 0.0000 0.0000
# 5 0.0000 0.0000 0.0000 0.0000 -24.2945 0.0000
# 6 0.0000 0.0000 0.0000 0.0000 0.0000 28.5011
#
#
#
# Elastic Compliance Matrix: (Units=1/GPa)
#
#
# Indices 1 2 3 4 5 6 
#
# 1 0.025004 -0.011584 -0.015693 0.000000 0.000000 0.000000
# 2 -0.011584 0.031958 0.005566 0.000000 0.000000 0.000000
# 3 -0.015693 0.005566 0.019229 0.000000 0.000000 0.000000
# 4 0.000000 0.000000 0.000000 0.122754 0.000000 0.000000
# 5 0.000000 0.000000 0.000000 0.000000 -0.041162 0.000000
# 6 0.000000 0.000000 0.000000 0.000000 0.000000 0.035086
#
#
# Mechanical properties :
#
#
# Convention : Reuss Voigt Hill
#
# Bulk Modulus (GPa) = 30.51593 48.90525 39.71059
# Shear Modulus (GPa) = 20.22535 11.85760 16.04147
#
# Velocity S-wave (km/s) = 3.19917 2.44955 2.84912
# Velocity P-wave (km/s) = 5.39335 5.72259 5.56041
#
# Compressibility (1/GPa) = 0.03276977
#
# Stress axis : x y z
#
# Youngs Moduli (GPa) = 39.99347 31.29087 52.00503
#
# Poissons Ratio (x) = 0.36246 0.81611
# Poissons Ratio (y) = 0.46327 -0.28945
# Poissons Ratio (z) = 0.62762 -0.17416
#
# Static dielectric constant tensor:
#      x y z
#    x 1.695460 0.000000 0.000000 
#    y 0.000000 1.784260 0.000000 
#    z 0.000000 0.000000 1.720990 
# 
# From -- ./inp_files/15589.got.cif
#   From: 2010.05.17/outbox.cif.g08.bks.cpg/sg40_8_cif.got.tgz:15589.got - 2010.06.03 18:35:42.
