data_PCOD9363009
_publ_section_title
;
Structure prediction by ZEFSAII (Michael W. Deem and Ramdas Pophale) SiO2 
 PCOD9363009
Probable space group: A M A 2
;
_chemical_formula_sum "Si O2"
_cell_formula_units_Z 48
_cell_length_a 8.729972
_cell_length_b 13.958743
_cell_length_c 24.464497
_cell_angle_alpha 90.000000
_cell_angle_beta 90.000000
_cell_angle_gamma 90.000000
_cell_volume 2981.229795
_symmetry_space_group_name_H-M "A M A 2"
_symmetry_group_IT_number 40
_symmetry_cell_setting 'orthorhombic'
loop_
_space_group_symop_operation_xyz
x,y,z
-x,-y,z
1/2-x,y,z
1/2+x,-y,z
x,1/2+y,1/2+z
-x,1/2-y,1/2+z
1/2-x,1/2+y,1/2+z
1/2+x,1/2-y,1/2+z
loop_
_atom_site_type_symbol
_atom_site_label
_atom_site_fract_x
_atom_site_fract_y
_atom_site_fract_z
Si Si1 0.065530 0.393512 0.085740
Si Si2 0.432578 0.602402 0.303023
Si Si3 0.066100 0.296791 0.198242
Si Si4 0.933658 0.397617 0.757082
Si Si5 0.065995 0.297014 0.863071
Si Si6 0.566797 0.393000 0.969006
O O1 0.250000 0.398380 0.081299
O O2 0.023511 0.327464 0.137191
O O3 0.000000 0.500000 0.095843
O O4 0.995810 0.360719 0.028079
O O5 0.500000 0.500000 0.318589
O O6 0.250000 0.596446 0.301338
O O7 0.492467 0.633792 0.243332
O O8 0.475084 0.689518 0.343568
O O9 0.250000 0.305871 0.202982
O O10 0.025529 0.188467 0.215521
O O11 0.750000 0.402438 0.761527
O O12 0.000000 0.500000 0.740712
O O13 0.003367 0.366572 0.815474
O O14 0.250000 0.304903 0.865721
O O15 0.992753 0.326861 0.920194
O O16 0.500000 0.500000 0.960152
O O17 0.750000 0.397570 0.969577
#
# Coordination Sequence:
#
# PCOD9363009 Si02
#       6
#     8   8   8   8   8   8
#     4  10  19  32  49  71  97 126 158 195 237 284
#     4  10  20  32  50  73  99 128 159 195 237 282
#     4   9  19  33  50  71  98 129 161 196 237 281
#     4  10  19  32  49  72  99 128 160 197 238 283
#     4  10  20  34  50  71  97 128 161 196 237 283
#     4  11  21  33  50  72  97 127 159 197 240 285
#
# _framework density 16.100738
#
# number of rings (size 3 to 8) (size 9 to 14) (size 15 to 20)
#    0.000    2.000    0.000    5.500    0.000    5.333 
#    0.000    0.000    0.000    1.000    0.000    2.333 
#    0.000    0.000    0.000    0.000    0.000    0.000 
#
# Total GULP energy -133970.545763 kJ/mol
# GULP energy per Si atom -5582.106073 kJ/mol
# Density = 1.606409 g / cm^3
# Si number density = 16.100738 Si / 1000 Ang^3
#
#
#
# Elastic Constant Matrix: (Units=GPa)
#
#
# Indices 1 2 3 4 5 6 
#
# 1 70.8028 40.6041 55.1990 0.0000 0.0000 0.0000
# 2 40.6041 92.4413 69.1048 0.0000 0.0000 0.0000
# 3 55.1990 69.1048 150.7163 0.0000 0.0000 0.0000
# 4 0.0000 0.0000 0.0000 18.0496 0.0000 0.0000
# 5 0.0000 0.0000 0.0000 0.0000 26.7613 0.0000
# 6 0.0000 0.0000 0.0000 0.0000 0.0000 26.7072
#
#
#
# Elastic Compliance Matrix: (Units=1/GPa)
#
#
# Indices 1 2 3 4 5 6 
#
# 1 0.021397 -0.005386 -0.005367 0.000000 0.000000 0.000000
# 2 -0.005386 0.017815 -0.006196 0.000000 0.000000 0.000000
# 3 -0.005367 -0.006196 0.011441 0.000000 0.000000 0.000000
# 4 0.000000 0.000000 0.000000 0.055403 0.000000 0.000000
# 5 0.000000 0.000000 0.000000 0.000000 0.037367 0.000000
# 6 0.000000 0.000000 0.000000 0.000000 0.000000 0.037443
#
#
# Mechanical properties :
#
#
# Convention : Reuss Voigt Hill
#
# Bulk Modulus (GPa) = 59.68161 71.53067 65.60614
# Shear Modulus (GPa) = 22.69123 24.24046 23.46584
#
# Velocity S-wave (km/s) = 3.75818 3.88435 3.82178
# Velocity P-wave (km/s) = 7.48197 8.03996 7.76598
#
# Compressibility (1/GPa) = 0.01675558
#
# Stress axis : x y z
#
# Youngs Moduli (GPa) = 46.73616 56.13172 87.40271
#
# Poissons Ratio (x) = 0.30235 0.46906
# Poissons Ratio (y) = 0.25174 0.54152
# Poissons Ratio (z) = 0.25082 0.34778
#
# Static dielectric constant tensor:
#      x y z
#    x 1.538100 0.000000 0.000000 
#    y 0.000000 1.532080 0.000000 
#    z 0.000000 0.000000 1.524790 
# 
# From -- ./inp_files/21984.got.cif
#   From: 2010.05.17/outbox.cif.g08.bks.cpg/sg40_11_cif.got.tgz:21984.got - 2010.06.03 18:35:42.
