data_PCOD9363945
_publ_section_title
;
Structure prediction by ZEFSAII (Michael W. Deem and Ramdas Pophale) SiO2 
 PCOD9363945
Probable space group: A M A 2
;
_chemical_formula_sum "Si O2"
_cell_formula_units_Z 40
_cell_length_a 8.579377
_cell_length_b 9.734881
_cell_length_c 26.129745
_cell_angle_alpha 90.000000
_cell_angle_beta 90.000000
_cell_angle_gamma 90.000000
_cell_volume 2182.335768
_symmetry_space_group_name_H-M "A M A 2"
_symmetry_group_IT_number 40
_symmetry_cell_setting 'orthorhombic'
loop_
_space_group_symop_operation_xyz
x,y,z
-x,-y,z
1/2-x,y,z
1/2+x,-y,z
x,1/2+y,1/2+z
-x,1/2-y,1/2+z
1/2-x,1/2+y,1/2+z
1/2+x,1/2-y,1/2+z
loop_
_atom_site_type_symbol
_atom_site_label
_atom_site_fract_x
_atom_site_fract_y
_atom_site_fract_z
Si Si1 0.063529 0.345018 0.984550
Si Si2 0.437772 0.346001 0.804492
Si Si3 0.063742 0.845005 0.893966
Si Si4 0.562122 0.846798 0.595547
Si Si5 0.062515 0.348436 0.687688
O O1 0.250000 0.349424 0.983250
O O2 0.000000 0.500000 0.975582
O O3 0.000248 0.241484 0.942060
O O4 0.005393 0.300961 0.040849
O O5 0.500000 0.500000 0.815431
O O6 0.250000 0.347045 0.808388
O O7 0.506745 0.237221 0.843895
O O8 0.483683 0.311323 0.745833
O O9 0.250000 0.847547 0.895507
O O10 0.000000 0.000000 0.894286
O O11 0.750000 0.847845 0.592488
O O12 0.511234 0.753644 0.643106
O O13 0.500000 0.000000 0.603734
O O14 0.250000 0.351547 0.687058
O O15 0.000000 0.500000 0.677327
#
# Coordination Sequence:
#
# PCOD9363945 Si02
#       5
#     8   8   8   8   8
#     4  11  22  39  61  85 112 149 190 232 278 334
#     4  10  20  38  60  85 114 150 191 232 276 332
#     4  12  25  41  59  84 114 147 185 233 285 336
#     4  10  20  36  56  83 114 148 188 232 277 330
#     4   9  20  36  57  83 114 148 187 229 275 328
#
# _framework density 18.328987000000001
#
# number of rings (size 3 to 8) (size 9 to 14) (size 15 to 20)
#    0.000    1.600    0.000    6.600    0.000    4.000 
#    0.000    4.000    0.000    0.000    0.000    0.000 
#    0.000    0.000    0.000    0.000    0.000    0.000 
#
# Total GULP energy -111761.963784 kJ/mol
# GULP energy per Si atom -5588.098189 kJ/mol
# Density = 1.828727 g / cm^3
# Si number density = 18.328987 Si / 1000 Ang^3
#
#
#
# Elastic Constant Matrix: (Units=GPa)
#
#
# Indices 1 2 3 4 5 6 
#
# 1 124.3222 57.6353 67.1374 0.0000 0.0000 0.0000
# 2 57.6353 127.4960 132.0965 0.0000 0.0000 0.0000
# 3 67.1374 132.0965 185.5968 0.0000 0.0000 0.0000
# 4 0.0000 0.0000 0.0000 16.4881 0.0000 0.0000
# 5 0.0000 0.0000 0.0000 0.0000 35.2890 0.0000
# 6 0.0000 0.0000 0.0000 0.0000 0.0000 32.6202
#
#
#
# Elastic Compliance Matrix: (Units=1/GPa)
#
#
# Indices 1 2 3 4 5 6 
#
# 1 0.010295 -0.003029 -0.001568 0.000000 0.000000 0.000000
# 2 -0.003029 0.030762 -0.020799 0.000000 0.000000 0.000000
# 3 -0.001568 -0.020799 0.020758 0.000000 0.000000 0.000000
# 4 0.000000 0.000000 0.000000 0.060650 0.000000 0.000000
# 5 0.000000 0.000000 0.000000 0.000000 0.028337 0.000000
# 6 0.000000 0.000000 0.000000 0.000000 0.000000 0.030656
#
#
# Mechanical properties :
#
#
# Convention : Reuss Voigt Hill
#
# Bulk Modulus (GPa) = 90.71677 105.68372 98.20025
# Shear Modulus (GPa) = 21.19324 28.91584 25.05454
#
# Velocity S-wave (km/s) = 3.40408 3.97621 3.70122
# Velocity P-wave (km/s) = 8.06545 8.88059 8.48282
#
# Compressibility (1/GPa) = 0.01102332
#
# Stress axis : x y z
#
# Youngs Moduli (GPa) = 97.13730 32.50777 48.17329
#
# Poissons Ratio (x) = 0.09847 0.07553
# Poissons Ratio (y) = 0.29426 1.00194
# Poissons Ratio (z) = 0.15231 0.67612
#
# Static dielectric constant tensor:
#      x y z
#    x 1.617090 0.000000 0.000000 
#    y 0.000000 1.598300 0.000000 
#    z 0.000000 0.000000 1.636370 
# 
# From -- ./inp_files/23817.got.cif
#   From: 2010.05.17/outbox.cif.g08.bks.cpg/sg40_12_cif.got.tgz:23817.got - 2010.06.03 18:35:42.
