data_PCOD9363802
_publ_section_title
;
Structure prediction by ZEFSAII (Michael W. Deem and Ramdas Pophale) SiO2 
 PCOD9363802
Probable space group: A M A 2
;
_chemical_formula_sum "Si O2"
_cell_formula_units_Z 36
_cell_length_a 14.732137
_cell_length_b 17.566279
_cell_length_c 7.385574
_cell_angle_alpha 90.000000
_cell_angle_beta 90.000000
_cell_angle_gamma 90.000000
_cell_volume 1911.304046
_symmetry_space_group_name_H-M "A M A 2"
_symmetry_group_IT_number 40
_symmetry_cell_setting 'orthorhombic'
loop_
_space_group_symop_operation_xyz
x,y,z
-x,-y,z
1/2-x,y,z
1/2+x,-y,z
x,1/2+y,1/2+z
-x,1/2-y,1/2+z
1/2-x,1/2+y,1/2+z
1/2+x,1/2-y,1/2+z
loop_
_atom_site_type_symbol
_atom_site_label
_atom_site_fract_x
_atom_site_fract_y
_atom_site_fract_z
Si Si1 0.750000 0.168408 0.691251
Si Si2 0.750000 0.640927 0.765974
Si Si3 0.057819 0.352633 0.347362
Si Si4 0.445433 0.681557 0.992390
Si Si5 0.750000 0.787408 0.489005
Si Si6 0.048285 0.922197 0.212621
O O1 0.750000 0.169154 0.474682
O O2 0.841707 0.131678 0.769157
O O3 0.750000 0.251355 0.786662
O O4 0.750000 0.714611 0.629531
O O5 0.843113 0.592689 0.737464
O O6 0.055963 0.271869 0.453264
O O7 0.030579 0.412124 0.499236
O O8 0.994298 0.342155 0.175656
O O9 0.497667 0.642590 0.827842
O O10 0.339644 0.663176 0.009371
O O11 0.000000 0.000000 0.273911
#
# Coordination Sequence:
#
# PCOD9363802 Si02
#       6
#     4   4   8   8   4   8
#     4  10  20  34  65  92 117 162 217 258 316 384
#     4  12  20  43  64  90 132 179 209 260 339 388
#     4  11  20  39  64  94 122 165 221 267 315 384
#     4  11  21  38  66  96 124 166 221 269 316 383
#     4  10  22  37  65 100 127 161 224 278 313 388
#     4  12  26  41  66  95 135 175 214 268 328 392
#
# _framework density 18.835305999999999
#
# number of rings (size 3 to 8) (size 9 to 14) (size 15 to 20)
#    0.000    0.889    8.889    0.000    0.000    1.778 
#    0.000    1.111    0.000    0.000    0.000    0.000 
#    0.000    0.000    0.000    0.000    0.000    0.000 
#
# Total GULP energy -100371.394217 kJ/mol
# GULP energy per Si atom -5576.188568 kJ/mol
# Density = 1.879244 g / cm^3
# Si number density = 18.835306 Si / 1000 Ang^3
#
#
#
# Elastic Constant Matrix: (Units=GPa)
#
#
# Indices 1 2 3 4 5 6 
#
# 1 169.0449 26.5138 46.9897 0.0000 0.0000 0.0000
# 2 26.5138 46.7977 11.0214 0.0000 0.0000 0.0000
# 3 46.9897 11.0214 141.6910 0.0000 0.0000 0.0000
# 4 0.0000 0.0000 0.0000 15.0278 0.0000 0.0000
# 5 0.0000 0.0000 0.0000 0.0000 28.0966 0.0000
# 6 0.0000 0.0000 0.0000 0.0000 0.0000 16.7773
#
#
#
# Elastic Compliance Matrix: (Units=1/GPa)
#
#
# Indices 1 2 3 4 5 6 
#
# 1 0.007038 -0.003502 -0.002062 0.000000 0.000000 0.000000
# 2 -0.003502 0.023510 -0.000667 0.000000 0.000000 0.000000
# 3 -0.002062 -0.000667 0.007793 0.000000 0.000000 0.000000
# 4 0.000000 0.000000 0.000000 0.066544 0.000000 0.000000
# 5 0.000000 0.000000 0.000000 0.000000 0.035591 0.000000
# 6 0.000000 0.000000 0.000000 0.000000 0.000000 0.059604
#
#
# Mechanical properties :
#
#
# Convention : Reuss Voigt Hill
#
# Bulk Modulus (GPa) = 38.64106 58.50926 48.57516
# Shear Modulus (GPa) = 22.60720 30.18092 26.39406
#
# Velocity S-wave (km/s) = 3.46823 4.00729 3.74747
# Velocity P-wave (km/s) = 6.04962 7.24860 6.67608
#
# Compressibility (1/GPa) = 0.02587920
#
# Stress axis : x y z
#
# Youngs Moduli (GPa) = 142.08761 42.53548 128.31655
#
# Poissons Ratio (x) = 0.14895 0.26454
# Poissons Ratio (y) = 0.49757 0.08563
# Poissons Ratio (z) = 0.29293 0.02839
#
# Static dielectric constant tensor:
#      x y z
#    x 1.710230 0.000000 0.000000 
#    y 0.000000 1.623990 0.000000 
#    z 0.000000 0.000000 1.641210 
# 
# From -- ./inp_files/6108.got.cif
#   From: 2010.05.17/outbox.cif.g08.bks.cpg/sg40_4_cif.got.tgz:6108.got - 2010.06.03 18:35:42.
