data_PCOD9363033
_publ_section_title
;
Structure prediction by ZEFSAII (Michael W. Deem and Ramdas Pophale) SiO2 
 PCOD9363033
Probable space group: A M A 2
;
_chemical_formula_sum "Si O2"
_cell_formula_units_Z 48
_cell_length_a 8.351646
_cell_length_b 9.645151
_cell_length_c 32.427168
_cell_angle_alpha 90.000000
_cell_angle_beta 90.000000
_cell_angle_gamma 90.000000
_cell_volume 2612.101992
_symmetry_space_group_name_H-M "A M A 2"
_symmetry_group_IT_number 40
_symmetry_cell_setting 'orthorhombic'
loop_
_space_group_symop_operation_xyz
x,y,z
-x,-y,z
1/2-x,y,z
1/2+x,-y,z
x,1/2+y,1/2+z
-x,1/2-y,1/2+z
1/2-x,1/2+y,1/2+z
1/2+x,1/2-y,1/2+z
loop_
_atom_site_type_symbol
_atom_site_label
_atom_site_fract_x
_atom_site_fract_y
_atom_site_fract_z
Si Si1 0.941062 0.841060 0.614650
Si Si2 0.056391 0.841690 0.437064
Si Si3 0.443440 0.157017 0.768497
Si Si4 0.443843 0.842194 0.191958
Si Si5 0.441648 0.840526 0.527125
Si Si6 0.943541 0.843510 0.861279
O O1 0.750000 0.845854 0.615760
O O2 0.999037 0.745596 0.652159
O O3 0.992480 0.782484 0.569981
O O4 0.000000 0.000000 0.618887
O O5 0.250000 0.841367 0.436583
O O6 0.006964 0.784013 0.482282
O O7 0.997913 0.754045 0.398120
O O8 0.000000 0.000000 0.433835
O O9 0.250000 0.156060 0.768108
O O10 0.498712 0.262050 0.733206
O O11 0.496198 0.196611 0.814911
O O12 0.500000 0.000000 0.760263
O O13 0.250000 0.841161 0.191843
O O14 0.500000 0.000000 0.190833
O O15 0.250000 0.838033 0.529205
O O16 0.500000 0.000000 0.526757
O O17 0.750000 0.840690 0.861622
O O18 0.000000 0.000000 0.868260
#
# Coordination Sequence:
#
# PCOD9363033 Si02
#       6
#     8   8   8   8   8   8
#     4  10  19  32  51  74  97 124 162 202 239 282
#     4   9  18  31  48  72 100 128 160 199 239 282
#     4   9  18  34  54  74  96 125 162 200 237 282
#     4  10  22  36  50  72 101 129 158 196 241 288
#     4   9  16  28  47  70  96 126 161 199 238 279
#     4   9  18  33  51  72  99 128 160 198 238 283
#
# _framework density 18.376004999999999
#
# number of rings (size 3 to 8) (size 9 to 14) (size 15 to 20)
#    0.000    2.667    0.000    2.500    0.000    4.000 
#    0.000    0.833    0.000    4.000    0.000    0.000 
#    0.000    0.000    0.000    0.000    0.000    0.000 
#
# Total GULP energy -133764.704226 kJ/mol
# GULP energy per Si atom -5573.529343 kJ/mol
# Density = 1.833418 g / cm^3
# Si number density = 18.376005 Si / 1000 Ang^3
#
#
#
# Elastic Constant Matrix: (Units=GPa)
#
#
# Indices 1 2 3 4 5 6 
#
# 1 13.7991 10.6117 25.6579 0.0000 0.0000 0.0000
# 2 10.6117 86.9844 108.4466 0.0000 0.0000 0.0000
# 3 25.6579 108.4466 220.2983 0.0000 0.0000 0.0000
# 4 0.0000 0.0000 0.0000 29.4850 0.0000 0.0000
# 5 0.0000 0.0000 0.0000 0.0000 20.1696 0.0000
# 6 0.0000 0.0000 0.0000 0.0000 0.0000 24.0586
#
#
#
# Elastic Compliance Matrix: (Units=1/GPa)
#
#
# Indices 1 2 3 4 5 6 
#
# 1 0.093550 0.005621 -0.013663 0.000000 0.000000 0.000000
# 2 0.005621 0.030100 -0.015472 0.000000 0.000000 0.000000
# 3 -0.013663 -0.015472 0.013747 0.000000 0.000000 0.000000
# 4 0.000000 0.000000 0.000000 0.033916 0.000000 0.000000
# 5 0.000000 0.000000 0.000000 0.000000 0.049580 0.000000
# 6 0.000000 0.000000 0.000000 0.000000 0.000000 0.041565
#
#
# Mechanical properties :
#
#
# Convention : Reuss Voigt Hill
#
# Bulk Modulus (GPa) = 11.06559 67.83491 39.45025
# Shear Modulus (GPa) = 14.72280 26.50034 20.61157
#
# Velocity S-wave (km/s) = 2.83361 3.80164 3.35275
# Velocity P-wave (km/s) = 4.09153 7.50100 6.04176
#
# Compressibility (1/GPa) = 0.09037022
#
# Stress axis : x y z
#
# Youngs Moduli (GPa) = 10.68943 33.22220 72.74229
#
# Poissons Ratio (x) = -0.18675 0.99388
# Poissons Ratio (y) = -0.06009 1.12549
# Poissons Ratio (z) = 0.14605 0.51402
#
# Static dielectric constant tensor:
#      x y z
#    x 1.635780 0.000000 0.000000 
#    y 0.000000 1.582110 0.000000 
#    z 0.000000 0.000000 1.690540 
# 
# From -- ./inp_files/26113.got.cif
#   From: 2010.05.17/outbox.cif.g08.bks.cpg/sg40_14_cif.got.tgz:26113.got - 2010.06.03 18:35:42.
