data_PCOD9363124
_publ_section_title
;
Structure prediction by ZEFSAII (Michael W. Deem and Ramdas Pophale) SiO2 
 PCOD9363124
Probable space group: A M A 2
;
_chemical_formula_sum "Si O2"
_cell_formula_units_Z 48
_cell_length_a 10.530320
_cell_length_b 7.098095
_cell_length_c 28.778282
_cell_angle_alpha 90.000000
_cell_angle_beta 90.000000
_cell_angle_gamma 90.000000
_cell_volume 2151.038782
_symmetry_space_group_name_H-M "A M A 2"
_symmetry_group_IT_number 40
_symmetry_cell_setting 'orthorhombic'
loop_
_space_group_symop_operation_xyz
x,y,z
-x,-y,z
1/2-x,y,z
1/2+x,-y,z
x,1/2+y,1/2+z
-x,1/2-y,1/2+z
1/2-x,1/2+y,1/2+z
1/2+x,1/2-y,1/2+z
loop_
_atom_site_type_symbol
_atom_site_label
_atom_site_fract_x
_atom_site_fract_y
_atom_site_fract_z
Si Si1 0.899188 0.327847 0.860790
Si Si2 0.485095 0.289268 0.559821
Si Si3 0.513564 0.770507 0.263366
Si Si4 0.250000 0.262415 0.719722
Si Si5 0.250000 0.716515 0.701611
Si Si6 0.102232 0.169260 0.463454
Si Si7 0.250000 0.202109 0.093460
Si Si8 0.250000 0.245166 0.612772
O O1 0.750000 0.386239 0.854294
O O2 0.940596 0.216127 0.814921
O O3 0.907616 0.238756 0.912176
O O4 0.000000 0.500000 0.862840
O O5 0.500000 0.500000 0.579213
O O6 0.433097 0.295285 0.507539
O O7 0.628354 0.224376 0.565556
O O8 0.380807 0.181300 0.589696
O O9 0.375494 0.705643 0.247512
O O10 0.621742 0.717725 0.226605
O O11 0.500000 0.000000 0.263657
O O12 0.250000 0.490092 0.711579
O O13 0.250000 0.197138 0.666660
O O14 0.250000 0.761064 0.647296
O O15 0.250000 0.107329 0.467810
O O16 0.000000 0.000000 0.465553
O O17 0.250000 0.971570 0.099609
#
# Coordination Sequence:
#
# PCOD9363124 Si02
#       8
#     8   8   8   4   4   8   4   4
#     4   9  17  28  42  60  87 123 158 193 239 288
#     4  10  19  33  51  72  99 132 167 204 247 292
#     4   9  15  22  35  57  85 121 155 185 228 288
#     4   9  16  22  37  59  89 123 157 185 232 287
#     4   9  14  24  35  57  89 121 153 189 226 289
#     4  10  21  36  52  72  99 132 168 209 250 294
#     4   9  18  26  44  67  95 127 161 199 242 295
#     4   9  16  30  44  65  95 133 163 197 244 287
#
# _framework density 22.314800000000002
#
# number of rings (size 3 to 8) (size 9 to 14) (size 15 to 20)
#    0.000    2.667    1.667    1.000    4.667    4.000 
#    0.000    0.000    0.000    0.000    0.000    0.000 
#    0.000    8.000    0.000    0.000    0.000    0.000 
#
# Total GULP energy -133799.602186 kJ/mol
# GULP energy per Si atom -5574.983424 kJ/mol
# Density = 2.226401 g / cm^3
# Si number density = 22.314800 Si / 1000 Ang^3
#
#
#
# Elastic Constant Matrix: (Units=GPa)
#
#
# Indices 1 2 3 4 5 6 
#
# 1 234.0995 -3.5767 80.9598 0.0000 0.0000 0.0000
# 2 -3.5767 51.8507 -44.6452 0.0000 0.0000 0.0000
# 3 80.9598 -44.6452 104.1092 0.0000 0.0000 0.0000
# 4 0.0000 0.0000 0.0000 7.7064 0.0000 0.0000
# 5 0.0000 0.0000 0.0000 0.0000 35.4515 0.0000
# 6 0.0000 0.0000 0.0000 0.0000 0.0000 -5.7707
#
#
#
# Elastic Compliance Matrix: (Units=1/GPa)
#
#
# Indices 1 2 3 4 5 6 
#
# 1 0.007068 -0.006730 -0.008382 0.000000 0.000000 0.000000
# 2 -0.006730 0.036984 0.021093 0.000000 0.000000 0.000000
# 3 -0.008382 0.021093 0.025169 0.000000 0.000000 0.000000
# 4 0.000000 0.000000 0.000000 0.129762 0.000000 0.000000
# 5 0.000000 0.000000 0.000000 0.000000 0.028208 0.000000
# 6 0.000000 0.000000 0.000000 0.000000 0.000000 -0.173288
#
#
# Mechanical properties :
#
#
# Convention : Reuss Voigt Hill
#
# Bulk Modulus (GPa) = 12.31785 50.61503 31.46644
# Shear Modulus (GPa) = 72.46372 31.29887 51.88129
#
# Velocity S-wave (km/s) = 5.70473 3.74920 4.82703
# Velocity P-wave (km/s) = 6.99456 6.43999 6.72300
#
# Compressibility (1/GPa) = 0.08118299
#
# Stress axis : x y z
#
# Youngs Moduli (GPa) = 141.48949 27.03891 39.73165
#
# Poissons Ratio (x) = 0.18196 0.33303
# Poissons Ratio (y) = 0.95218 -0.83806
# Poissons Ratio (z) = 1.18597 -0.57033
#
# Static dielectric constant tensor:
#      x y z
#    x 1.835810 0.000000 0.000000 
#    y 0.000000 1.886130 0.000000 
#    z 0.000000 0.000000 1.812810 
# 
# From -- ./inp_files/25300.got.cif
#   From: 2010.05.17/outbox.cif.g08.bks.cpg/sg40_13_cif.got.tgz:25300.got - 2010.06.03 18:35:42.
