data_PCOD9363478
_publ_section_title
;
Structure prediction by ZEFSAII (Michael W. Deem and Ramdas Pophale) SiO2 
 PCOD9363478
Probable space group: A M A 2
;
_chemical_formula_sum "Si O2"
_cell_formula_units_Z 64
_cell_length_a 8.652208
_cell_length_b 24.317146
_cell_length_c 15.851377
_cell_angle_alpha 90.000000
_cell_angle_beta 90.000000
_cell_angle_gamma 90.000000
_cell_volume 3335.082248
_symmetry_space_group_name_H-M "A M A 2"
_symmetry_group_IT_number 40
_symmetry_cell_setting 'orthorhombic'
loop_
_space_group_symop_operation_xyz
x,y,z
-x,-y,z
1/2-x,y,z
1/2+x,-y,z
x,1/2+y,1/2+z
-x,1/2-y,1/2+z
1/2-x,1/2+y,1/2+z
1/2+x,1/2-y,1/2+z
loop_
_atom_site_type_symbol
_atom_site_label
_atom_site_fract_x
_atom_site_fract_y
_atom_site_fract_z
Si Si1 0.064957 0.061357 0.000000
Si Si2 0.063640 0.246085 0.100623
Si Si3 0.937290 0.129127 0.345085
Si Si4 0.434104 0.561297 0.001745
Si Si5 0.437413 0.750378 0.403113
Si Si6 0.564988 0.131769 0.656446
Si Si7 0.065439 0.869414 0.155513
Si Si8 0.062935 0.132471 0.836789
O O1 0.250000 0.059751 0.001047
O O2 0.017279 0.094417 0.915659
O O3 0.000000 0.000000 0.999653
O O4 0.008739 0.094455 0.081936
O O5 0.250000 0.239633 0.105123
O O6 0.021323 0.304241 0.141917
O O7 0.984704 0.193736 0.142531
O O8 0.019980 0.248139 0.001688
O O9 0.750000 0.127620 0.351617
O O10 0.987838 0.192152 0.362784
O O11 0.980915 0.113024 0.250003
O O12 0.006415 0.090781 0.416970
O O13 0.500000 0.500000 0.006242
O O14 0.250000 0.559858 0.001989
O O15 0.493537 0.596118 0.081547
O O16 0.250000 0.750020 0.400308
O O17 0.489652 0.694929 0.357077
O O18 0.750000 0.128054 0.651300
O O19 0.506367 0.114038 0.748107
O O20 0.250000 0.873306 0.149270
O O21 0.250000 0.132212 0.831475
#
# Coordination Sequence:
#
# PCOD9363478 Si02
#       8
#     8   8   8   8   8   8   8   8
#     4  11  24  43  65  87 120 163 207 259 309 362
#     4  10  19  36  62  90 125 167 202 244 304 362
#     4  10  21  40  64  91 125 162 199 247 307 363
#     4  12  26  44  66  90 119 159 207 257 304 362
#     4   9  16  34  62  88 122 163 198 242 303 360
#     4  11  23  40  64  93 128 164 200 249 305 364
#     4  11  23  38  63  95 126 161 204 254 304 364
#     4  10  21  39  63  90 122 164 207 250 303 360
#
# _framework density 19.18993
#
# number of rings (size 3 to 8) (size 9 to 14) (size 15 to 20)
#    0.000    1.500    2.500    3.000    0.000    5.000 
#    0.000    1.875    0.000    0.000    0.000    0.000 
#    0.000    0.000    0.000    0.000    0.000    0.000 
#
# Total GULP energy -178885.643542 kJ/mol
# GULP energy per Si atom -5590.176361 kJ/mol
# Density = 1.914625 g / cm^3
# Si number density = 19.189930 Si / 1000 Ang^3
#
#
#
# Elastic Constant Matrix: (Units=GPa)
#
#
# Indices 1 2 3 4 5 6 
#
# 1 48.1258 45.4854 54.4132 0.0000 0.0000 0.0000
# 2 45.4854 143.7353 82.2787 0.0000 0.0000 0.0000
# 3 54.4132 82.2787 189.9833 0.0000 0.0000 0.0000
# 4 0.0000 0.0000 0.0000 -4.2289 0.0000 0.0000
# 5 0.0000 0.0000 0.0000 0.0000 23.6256 0.0000
# 6 0.0000 0.0000 0.0000 0.0000 0.0000 30.7862
#
#
#
# Elastic Compliance Matrix: (Units=1/GPa)
#
#
# Indices 1 2 3 4 5 6 
#
# 1 0.035592 -0.007217 -0.007068 0.000000 0.000000 0.000000
# 2 -0.007217 0.010714 -0.002573 0.000000 0.000000 0.000000
# 3 -0.007068 -0.002573 0.008402 0.000000 0.000000 0.000000
# 4 0.000000 0.000000 0.000000 -0.236470 0.000000 0.000000
# 5 0.000000 0.000000 0.000000 0.000000 0.042327 0.000000
# 6 0.000000 0.000000 0.000000 0.000000 0.000000 0.032482
#
#
# Mechanical properties :
#
#
# Convention : Reuss Voigt Hill
#
# Bulk Modulus (GPa) = 47.63845 82.91101 65.27473
# Shear Modulus (GPa) = -75.48345 23.34772 -26.06787
#
# Velocity S-wave (km/s) = -6.27856 3.49186 -3.68966
# Velocity P-wave (km/s) = 5.26135 7.71730 3.99217
#
# Compressibility (1/GPa) = 0.02099145
#
# Stress axis : x y z
#
# Youngs Moduli (GPa) = 28.09649 93.33629 119.01389
#
# Poissons Ratio (x) = 0.67361 0.84122
# Poissons Ratio (y) = 0.20277 0.30623
# Poissons Ratio (z) = 0.19859 0.24016
#
# Static dielectric constant tensor:
#      x y z
#    x 1.644200 0.000000 0.000000 
#    y 0.000000 1.644360 0.000000 
#    z 0.000000 0.000000 1.654270 
# 
# From -- ./inp_files/15595.got.cif
#   From: 2010.05.17/outbox.cif.g08.bks.cpg/sg40_8_cif.got.tgz:15595.got - 2010.06.03 18:35:42.
