data_PCOD9363043
_publ_section_title
;
Structure prediction by ZEFSAII (Michael W. Deem and Ramdas Pophale) SiO2 
 PCOD9363043
Probable space group: A M A 2
;
_chemical_formula_sum "Si O2"
_cell_formula_units_Z 64
_cell_length_a 13.819565
_cell_length_b 10.207692
_cell_length_c 18.590491
_cell_angle_alpha 90.000000
_cell_angle_beta 90.000000
_cell_angle_gamma 90.000000
_cell_volume 2622.483658
_symmetry_space_group_name_H-M "A M A 2"
_symmetry_group_IT_number 40
_symmetry_cell_setting 'orthorhombic'
loop_
_space_group_symop_operation_xyz
x,y,z
-x,-y,z
1/2-x,y,z
1/2+x,-y,z
x,1/2+y,1/2+z
-x,1/2-y,1/2+z
1/2-x,1/2+y,1/2+z
1/2+x,1/2-y,1/2+z
loop_
_atom_site_type_symbol
_atom_site_label
_atom_site_fract_x
_atom_site_fract_y
_atom_site_fract_z
Si Si1 0.368016 0.577370 0.159910
Si Si2 0.395049 0.437482 0.977716
Si Si3 0.355639 0.210939 0.530499
Si Si4 0.867372 0.421613 0.325398
Si Si5 0.140493 0.356364 0.823173
Si Si6 0.131261 0.601472 0.741239
Si Si7 0.131259 0.792817 0.873930
Si Si8 0.367242 0.786590 0.611710
O O1 0.250000 0.583427 0.157580
O O2 0.393126 0.594800 0.242209
O O3 0.398819 0.428163 0.143002
O O4 0.405359 0.695691 0.108350
O O5 0.500000 0.500000 0.972969
O O6 0.342689 0.555073 0.018723
O O7 0.355323 0.433494 0.897856
O O8 0.391087 0.307172 0.026748
O O9 0.250000 0.275890 0.538751
O O10 0.399416 0.260557 0.455814
O O11 0.750000 0.429599 0.334520
O O12 0.902422 0.280567 0.352221
O O13 0.900478 0.560303 0.355090
O O14 0.250000 0.326259 0.798545
O O15 0.099605 0.453490 0.762614
O O16 0.250000 0.597927 0.741089
O O17 0.103559 0.694874 0.808998
O O18 0.102216 0.669463 0.665632
O O19 0.250000 0.786068 0.875497
O O20 0.250000 0.783541 0.614240
#
# Coordination Sequence:
#
# PCOD9363043 Si02
#       8
#     8   8   8   8   8   8   8   8
#     4   8  13  23  41  67  94 121 154 201 249 294
#     4  11  21  32  49  71 106 140 178 215 262 315
#     4   9  16  28  50  73  94 126 175 218 255 304
#     4   9  16  26  44  74 107 128 154 204 264 308
#     4  10  19  32  51  76 105 136 167 210 266 319
#     4   9  15  26  49  77 100 124 163 209 255 305
#     4   9  14  24  45  75 101 124 161 211 255 301
#     4   9  16  29  52  77  99 128 173 224 263 300
#
# _framework density 24.404347000000001
#
# number of rings (size 3 to 8) (size 9 to 14) (size 15 to 20)
#    0.000    2.750    2.500    1.875    0.000    0.000 
#    0.000    1.250    5.500    6.750    0.000    0.000 
#    0.000    0.000    0.000    0.000    0.000    0.000 
#
# Total GULP energy -178314.544916 kJ/mol
# GULP energy per Si atom -5572.329529 kJ/mol
# Density = 2.434880 g / cm^3
# Si number density = 24.404347 Si / 1000 Ang^3
#
#
#
# Elastic Constant Matrix: (Units=GPa)
#
#
# Indices 1 2 3 4 5 6 
#
# 1 70.4589 6.4554 -2.7598 0.0000 0.0000 0.0000
# 2 6.4554 125.2467 48.6758 0.0000 0.0000 0.0000
# 3 -2.7598 48.6758 113.5790 0.0000 0.0000 0.0000
# 4 0.0000 0.0000 0.0000 37.4949 0.0000 0.0000
# 5 0.0000 0.0000 0.0000 0.0000 9.6071 0.0000
# 6 0.0000 0.0000 0.0000 0.0000 0.0000 14.8301
#
#
#
# Elastic Compliance Matrix: (Units=1/GPa)
#
#
# Indices 1 2 3 4 5 6 
#
# 1 0.014320 -0.001048 0.000797 0.000000 0.000000 0.000000
# 2 -0.001048 0.009656 -0.004164 0.000000 0.000000 0.000000
# 3 0.000797 -0.004164 0.010608 0.000000 0.000000 0.000000
# 4 0.000000 0.000000 0.000000 0.026670 0.000000 0.000000
# 5 0.000000 0.000000 0.000000 0.000000 0.104090 0.000000
# 6 0.000000 0.000000 0.000000 0.000000 0.000000 0.067431
#
#
# Mechanical properties :
#
#
# Convention : Reuss Voigt Hill
#
# Bulk Modulus (GPa) = 38.82695 46.00305 42.41500
# Shear Modulus (GPa) = 19.98481 29.51396 24.74938
#
# Velocity S-wave (km/s) = 2.86475 3.48138 3.18801
# Velocity P-wave (km/s) = 5.18525 5.92041 5.56498
#
# Compressibility (1/GPa) = 0.02575530
#
# Stress axis : x y z
#
# Youngs Moduli (GPa) = 69.83291 103.55725 94.26586
#
# Poissons Ratio (x) = 0.10851 -0.07513
# Poissons Ratio (y) = 0.07317 0.39251
# Poissons Ratio (z) = -0.05566 0.43120
#
# Static dielectric constant tensor:
#      x y z
#    x 2.078250 0.000000 0.000000 
#    y 0.000000 1.974580 0.000000 
#    z 0.000000 0.000000 1.958600 
# 
# From -- ./inp_files/21459.got.cif
#   From: 2010.05.17/outbox.cif.g08.bks.cpg/sg40_11_cif.got.tgz:21459.got - 2010.06.03 18:35:42.
