data_PCOD9363905
_publ_section_title
;
Structure prediction by ZEFSAII (Michael W. Deem and Ramdas Pophale) SiO2 
 PCOD9363905
Probable space group: A M A 2
;
_chemical_formula_sum "Si O2"
_cell_formula_units_Z 40
_cell_length_a 8.504360
_cell_length_b 14.678436
_cell_length_c 14.011482
_cell_angle_alpha 90.000000
_cell_angle_beta 90.000000
_cell_angle_gamma 90.000000
_cell_volume 1749.063162
_symmetry_space_group_name_H-M "A M A 2"
_symmetry_group_IT_number 40
_symmetry_cell_setting 'orthorhombic'
loop_
_space_group_symop_operation_xyz
x,y,z
-x,-y,z
1/2-x,y,z
1/2+x,-y,z
x,1/2+y,1/2+z
-x,1/2-y,1/2+z
1/2-x,1/2+y,1/2+z
1/2+x,1/2-y,1/2+z
loop_
_atom_site_type_symbol
_atom_site_label
_atom_site_fract_x
_atom_site_fract_y
_atom_site_fract_z
Si Si1 0.070726 0.757974 0.460520
Si Si2 0.068509 0.593570 0.851372
Si Si3 0.438006 0.413885 0.647481
Si Si4 0.066116 0.199767 0.642490
Si Si5 0.063764 0.396915 0.331829
O O1 0.250000 0.742507 0.487770
O O2 0.049352 0.823263 0.368890
O O3 0.993069 0.827377 0.537901
O O4 0.998882 0.664006 0.420180
O O5 0.250000 0.612253 0.877214
O O6 0.000000 0.500000 0.893420
O O7 0.055202 0.580957 0.737846
O O8 0.500000 0.500000 0.585710
O O9 0.250000 0.423092 0.664247
O O10 0.458819 0.308002 0.622039
O O11 0.250000 0.183075 0.656038
O O12 0.980727 0.154656 0.732263
O O13 0.250000 0.399610 0.339959
O O14 0.000000 0.500000 0.330080
#
# Coordination Sequence:
#
# PCOD9363905 Si02
#       5
#     8   8   8   8   8
#     4  12  25  43  67  98 135 177 228 282 338 406
#     4  11  21  36  61  91 125 162 207 259 323 388
#     4  10  20  35  60  90 125 161 204 256 319 384
#     4  11  24  43  67  98 135 177 227 281 337 406
#     4  12  26  47  73 101 137 185 234 287 350 417
#
# _framework density 22.869385999999999
#
# number of rings (size 3 to 8) (size 9 to 14) (size 15 to 20)
#    0.000    0.800    2.000    7.800    0.000    4.000 
#    0.000    6.000    0.000    0.000    0.000    0.000 
#    0.000    0.000    0.000    0.000    0.000    0.000 
#
# Total GULP energy -111452.411376 kJ/mol
# GULP energy per Si atom -5572.620569 kJ/mol
# Density = 2.281733 g / cm^3
# Si number density = 22.869386 Si / 1000 Ang^3
#
#
#
# Elastic Constant Matrix: (Units=GPa)
#
#
# Indices 1 2 3 4 5 6 
#
# 1 102.7136 13.6058 -15.3612 0.0000 0.0000 0.0000
# 2 13.6058 104.3806 10.8697 0.0000 0.0000 0.0000
# 3 -15.3612 10.8697 50.6175 0.0000 0.0000 0.0000
# 4 0.0000 0.0000 0.0000 15.3452 0.0000 0.0000
# 5 0.0000 0.0000 0.0000 0.0000 -30.6248 0.0000
# 6 0.0000 0.0000 0.0000 0.0000 0.0000 36.3459
#
#
#
# Elastic Compliance Matrix: (Units=1/GPa)
#
#
# Indices 1 2 3 4 5 6 
#
# 1 0.010499 -0.001739 0.003560 0.000000 0.000000 0.000000
# 2 -0.001739 0.010088 -0.002694 0.000000 0.000000 0.000000
# 3 0.003560 -0.002694 0.021415 0.000000 0.000000 0.000000
# 4 0.000000 0.000000 0.000000 0.065167 0.000000 0.000000
# 5 0.000000 0.000000 0.000000 0.000000 -0.032653 0.000000
# 6 0.000000 0.000000 0.000000 0.000000 0.000000 0.027513
#
#
# Mechanical properties :
#
#
# Convention : Reuss Voigt Hill
#
# Bulk Modulus (GPa) = 24.84252 30.66004 27.75128
# Shear Modulus (GPa) = 42.66461 20.78642 31.72552
#
# Velocity S-wave (km/s) = 4.32392 3.01810 3.72862
# Velocity P-wave (km/s) = 5.98454 5.05776 5.54056
#
# Compressibility (1/GPa) = 0.04025357
#
# Stress axis : x y z
#
# Youngs Moduli (GPa) = 95.25158 99.13207 46.69680
#
# Poissons Ratio (x) = 0.17240 -0.16622
# Poissons Ratio (y) = 0.16565 0.12580
# Poissons Ratio (z) = -0.33905 0.26706
#
# Static dielectric constant tensor:
#      x y z
#    x 1.847680 0.000000 0.000000 
#    y 0.000000 2.067700 0.000000 
#    z 0.000000 0.000000 2.096920 
# 
# From -- ./inp_files/14790.got.cif
#   From: 2010.05.17/outbox.cif.g08.bks.cpg/sg40_8_cif.got.tgz:14790.got - 2010.06.03 18:35:42.
