data_PCOD9363203
_publ_section_title
;
Structure prediction by ZEFSAII (Michael W. Deem and Ramdas Pophale) SiO2 
 PCOD9363203
Probable space group: A M A 2
;
_chemical_formula_sum "Si O2"
_cell_formula_units_Z 64
_cell_length_a 16.177245
_cell_length_b 22.439635
_cell_length_c 7.370355
_cell_angle_alpha 90.000000
_cell_angle_beta 90.000000
_cell_angle_gamma 90.000000
_cell_volume 2675.523426
_symmetry_space_group_name_H-M "A M A 2"
_symmetry_group_IT_number 40
_symmetry_cell_setting 'orthorhombic'
loop_
_space_group_symop_operation_xyz
x,y,z
-x,-y,z
1/2-x,y,z
1/2+x,-y,z
x,1/2+y,1/2+z
-x,1/2-y,1/2+z
1/2-x,1/2+y,1/2+z
1/2+x,1/2-y,1/2+z
loop_
_atom_site_type_symbol
_atom_site_label
_atom_site_fract_x
_atom_site_fract_y
_atom_site_fract_z
Si Si1 0.849274 0.497603 0.604540
Si Si2 0.576610 0.753011 0.128293
Si Si3 0.345775 0.991651 0.508308
Si Si4 0.435781 0.372118 0.107984
Si Si5 0.115112 0.248502 0.555723
Si Si6 0.655895 0.629680 0.454302
Si Si7 0.125978 0.121758 0.510896
Si Si8 0.344882 0.627455 0.577419
O O1 0.750000 0.487510 0.614231
O O2 0.882813 0.500904 0.807732
O O3 0.857828 0.563334 0.527011
O O4 0.880989 0.436559 0.514010
O O5 0.603010 0.690353 0.036049
O O6 0.610765 0.756403 0.334015
O O7 0.605261 0.813224 0.031955
O O8 0.477525 0.750799 0.132959
O O9 0.250000 0.974849 0.496257
O O10 0.391809 0.935317 0.587883
O O11 0.348706 0.057815 0.592117
O O12 0.421921 0.360965 0.321382
O O13 0.526704 0.376560 0.027746
O O14 0.154376 0.313344 0.587628
O O15 0.153728 0.183970 0.602447
O O16 0.750000 0.630217 0.372410
O O17 0.153430 0.121751 0.299569
O O18 0.250000 0.635053 0.520972
#
# Coordination Sequence:
#
# PCOD9363203 Si02
#       8
#     8   8   8   8   8   8   8   8
#     4   8  17  33  52  76 102 130 169 217 262 305
#     4   9  19  34  52  76 105 139 175 220 269 319
#     4  10  19  33  55  78 102 134 176 224 267 311
#     4  10  20  33  51  77 110 142 173 214 268 326
#     4   9  19  34  53  75 104 139 176 221 270 318
#     4  10  20  35  55  79 109 144 180 217 265 327
#     4   9  18  33  52  75 103 134 173 221 264 308
#     4   9  17  33  58  82 103 134 182 230 267 312
#
# _framework density 23.920553999999999
#
# number of rings (size 3 to 8) (size 9 to 14) (size 15 to 20)
#    0.000    2.750    0.000    1.875    0.000    8.500 
#    0.000    8.125    0.000    0.750    0.000    2.625 
#    0.000    0.000    0.000    0.000    0.000    0.000 
#
# Total GULP energy -178248.967446 kJ/mol
# GULP energy per Si atom -5570.280233 kJ/mol
# Density = 2.386611 g / cm^3
# Si number density = 23.920554 Si / 1000 Ang^3
#
#
#
# Elastic Constant Matrix: (Units=GPa)
#
#
# Indices 1 2 3 4 5 6 
#
# 1 56.7034 45.2815 3.5697 0.0000 0.0000 0.0000
# 2 45.2815 242.8272 -0.8613 0.0000 0.0000 0.0000
# 3 3.5697 -0.8613 45.4097 0.0000 0.0000 0.0000
# 4 0.0000 0.0000 0.0000 16.0435 0.0000 0.0000
# 5 0.0000 0.0000 0.0000 0.0000 15.5995 0.0000
# 6 0.0000 0.0000 0.0000 0.0000 0.0000 53.4502
#
#
#
# Elastic Compliance Matrix: (Units=1/GPa)
#
#
# Indices 1 2 3 4 5 6 
#
# 1 0.020854 -0.003895 -0.001713 0.000000 0.000000 0.000000
# 2 -0.003895 0.004846 0.000398 0.000000 0.000000 0.000000
# 3 -0.001713 0.000398 0.022164 0.000000 0.000000 0.000000
# 4 0.000000 0.000000 0.000000 0.062330 0.000000 0.000000
# 5 0.000000 0.000000 0.000000 0.000000 0.064105 0.000000
# 6 0.000000 0.000000 0.000000 0.000000 0.000000 0.018709
#
#
# Mechanical properties :
#
#
# Convention : Reuss Voigt Hill
#
# Bulk Modulus (GPa) = 26.70676 48.99112 37.84894
# Shear Modulus (GPa) = 23.15792 36.81533 29.98663
#
# Velocity S-wave (km/s) = 3.11484 3.92735 3.54445
# Velocity P-wave (km/s) = 4.91175 6.41020 5.71034
#
# Compressibility (1/GPa) = 0.03744371
#
# Stress axis : x y z
#
# Youngs Moduli (GPa) = 47.95305 206.36198 45.11827
#
# Poissons Ratio (x) = 0.80374 0.07730
# Poissons Ratio (y) = 0.18677 -0.01796
# Poissons Ratio (z) = 0.08215 -0.08215
#
# Static dielectric constant tensor:
#      x y z
#    x 1.933780 0.000000 0.000000 
#    y 0.000000 2.056110 0.000000 
#    z 0.000000 0.000000 1.998790 
# 
# From -- ./inp_files/6892.got.cif
#   From: 2010.05.17/outbox.cif.g08.bks.cpg/sg40_4_cif.got.tgz:6892.got - 2010.06.03 18:35:42.
