data_PCOD9363570
_publ_section_title
;
Structure prediction by ZEFSAII (Michael W. Deem and Ramdas Pophale) SiO2 
 PCOD9363570
Probable space group: A M A 2
;
_chemical_formula_sum "Si O2"
_cell_formula_units_Z 60
_cell_length_a 9.348254
_cell_length_b 19.633509
_cell_length_c 16.061610
_cell_angle_alpha 90.000000
_cell_angle_beta 90.000000
_cell_angle_gamma 90.000000
_cell_volume 2947.932304
_symmetry_space_group_name_H-M "A M A 2"
_symmetry_group_IT_number 40
_symmetry_cell_setting 'orthorhombic'
loop_
_space_group_symop_operation_xyz
x,y,z
-x,-y,z
1/2-x,y,z
1/2+x,-y,z
x,1/2+y,1/2+z
-x,1/2-y,1/2+z
1/2-x,1/2+y,1/2+z
1/2+x,1/2-y,1/2+z
loop_
_atom_site_type_symbol
_atom_site_label
_atom_site_fract_x
_atom_site_fract_y
_atom_site_fract_z
Si Si1 0.081084 0.208586 0.043330
Si Si2 0.079450 0.340051 0.131901
Si Si3 0.586750 0.741988 0.376639
Si Si4 0.082222 0.431819 0.975486
Si Si5 0.522163 0.098893 0.799240
Si Si6 0.078246 0.570576 0.638123
Si Si7 0.750000 0.978061 0.828498
Si Si8 0.078214 0.364482 0.797363
O O1 0.250000 0.218344 0.023780
O O2 0.049891 0.259949 0.120368
O O3 0.058071 0.130763 0.070623
O O4 0.985972 0.231945 0.966316
O O5 0.250000 0.347653 0.149443
O O6 0.996772 0.381005 0.202711
O O7 0.048858 0.373983 0.042792
O O8 0.750000 0.767694 0.382449
O O9 0.586775 0.667200 0.337377
O O10 0.491922 0.791961 0.319819
O O11 0.250000 0.445368 0.982027
O O12 0.053728 0.407377 0.881981
O O13 0.000000 0.500000 0.995835
O O14 0.628724 0.036218 0.807414
O O15 0.375736 0.078742 0.843021
O O16 0.250000 0.560674 0.649127
O O17 0.000000 0.500000 0.614793
O O18 0.003392 0.598788 0.721892
O O19 0.250000 0.359985 0.782634
#
# Coordination Sequence:
#
# PCOD9363570 Si02
#       8
#     8   8   8   8   8   8   4   8
#     4  10  23  45  67  92 128 171 219 271 328 393
#     4  10  19  39  65  89 127 168 211 257 317 382
#     4  12  24  42  65  97 131 169 221 273 326 391
#     4  10  22  36  58  90 125 167 206 254 314 380
#     4  11  23  42  64  94 124 175 210 265 316 384
#     4  11  24  44  70  98 130 174 223 277 339 398
#     4  10  24  42  62  92 132 160 220 262 316 380
#     4  11  23  42  67  93 129 171 221 271 328 396
#
# _framework density 20.353248000000001
#
# number of rings (size 3 to 8) (size 9 to 14) (size 15 to 20)
#    0.000    1.333    2.667    2.400    3.733    4.267 
#    3.600    0.000    0.000    0.000    0.000    0.000 
#    0.000    0.000    0.000    0.000    0.000    0.000 
#
# Total GULP energy -167065.376722 kJ/mol
# GULP energy per Si atom -5568.845891 kJ/mol
# Density = 2.030692 g / cm^3
# Si number density = 20.353248 Si / 1000 Ang^3
#
#
#
# Elastic Constant Matrix: (Units=GPa)
#
#
# Indices 1 2 3 4 5 6 
#
# 1 93.2247 29.3455 4.9802 0.0000 0.0000 0.0000
# 2 29.3455 106.9575 -6.1712 0.0000 0.0000 0.0000
# 3 4.9802 -6.1712 26.7212 0.0000 0.0000 0.0000
# 4 0.0000 0.0000 0.0000 34.8059 0.0000 0.0000
# 5 0.0000 0.0000 0.0000 0.0000 11.7011 0.0000
# 6 0.0000 0.0000 0.0000 0.0000 0.0000 31.8903
#
#
#
# Elastic Compliance Matrix: (Units=1/GPa)
#
#
# Indices 1 2 3 4 5 6 
#
# 1 0.011978 -0.003461 -0.003032 0.000000 0.000000 0.000000
# 2 -0.003461 0.010476 0.003065 0.000000 0.000000 0.000000
# 3 -0.003032 0.003065 0.038696 0.000000 0.000000 0.000000
# 4 0.000000 0.000000 0.000000 0.028731 0.000000 0.000000
# 5 0.000000 0.000000 0.000000 0.000000 0.085462 0.000000
# 6 0.000000 0.000000 0.000000 0.000000 0.000000 0.031358
#
#
# Mechanical properties :
#
#
# Convention : Reuss Voigt Hill
#
# Bulk Modulus (GPa) = 18.41853 31.46804 24.94329
# Shear Modulus (GPa) = 21.58372 28.92938 25.25655
#
# Velocity S-wave (km/s) = 3.26000 3.77419 3.52648
# Velocity P-wave (km/s) = 4.82070 5.87258 5.37245
#
# Compressibility (1/GPa) = 0.05429316
#
# Stress axis : x y z
#
# Youngs Moduli (GPa) = 83.48417 95.45621 25.84229
#
# Poissons Ratio (x) = 0.33041 0.07835
# Poissons Ratio (y) = 0.28897 -0.07919
# Poissons Ratio (z) = 0.25311 -0.29253
#
# Static dielectric constant tensor:
#      x y z
#    x 1.686100 0.000000 0.000000 
#    y 0.000000 1.707140 0.000000 
#    z 0.000000 0.000000 1.749600 
# 
# From -- ./inp_files/19409.got.cif
#   From: 2010.05.17/outbox.cif.g08.bks.cpg/sg40_10_cif.got.tgz:19409.got - 2010.06.03 18:35:42.
