data_PCOD9363154
_publ_section_title
;
Structure prediction by ZEFSAII (Michael W. Deem and Ramdas Pophale) SiO2 
 PCOD9363154
Probable space group: A M A 2
;
_chemical_formula_sum "Si O2"
_cell_formula_units_Z 48
_cell_length_a 17.205496
_cell_length_b 9.143966
_cell_length_c 16.086813
_cell_angle_alpha 90.000000
_cell_angle_beta 90.000000
_cell_angle_gamma 90.000000
_cell_volume 2530.881510
_symmetry_space_group_name_H-M "A M A 2"
_symmetry_group_IT_number 40
_symmetry_cell_setting 'orthorhombic'
loop_
_space_group_symop_operation_xyz
x,y,z
-x,-y,z
1/2-x,y,z
1/2+x,-y,z
x,1/2+y,1/2+z
-x,1/2-y,1/2+z
1/2-x,1/2+y,1/2+z
1/2+x,1/2-y,1/2+z
loop_
_atom_site_type_symbol
_atom_site_label
_atom_site_fract_x
_atom_site_fract_y
_atom_site_fract_z
Si Si1 0.839079 0.008012 0.099570
Si Si2 0.438484 0.709139 0.500569
Si Si3 0.119501 0.288704 0.452483
Si Si4 0.157392 0.805667 0.257555
Si Si5 0.411869 0.028478 0.831566
Si Si6 0.659773 0.046722 0.433365
O O1 0.750000 0.954253 0.114563
O O2 0.867948 0.103539 0.177344
O O3 0.900724 0.882057 0.075743
O O4 0.835902 0.116804 0.020834
O O5 0.530965 0.715471 0.488665
O O6 0.412911 0.619140 0.418188
O O7 0.397539 0.865713 0.494079
O O8 0.122145 0.374460 0.363965
O O9 0.149563 0.125560 0.442181
O O10 0.250000 0.796024 0.252572
O O11 0.127218 0.639995 0.267741
O O12 0.138576 0.898511 0.340475
O O13 0.500000 0.000000 0.805119
O O14 0.750000 0.087901 0.448207
#
# Coordination Sequence:
#
# PCOD9363154 Si02
#       6
#     8   8   8   8   8   8
#     4  10  19  34  54  76 103 138 174 214 263 317
#     4   9  18  34  53  74 103 139 178 216 255 310
#     4  10  19  33  53  78 104 135 176 219 261 312
#     4   9  19  34  53  77 106 136 173 218 266 318
#     4   8  16  32  52  73 100 136 175 211 256 313
#     4  10  19  33  54  80 105 136 176 220 265 312
#
# _framework density 18.965724999999999
#
# number of rings (size 3 to 8) (size 9 to 14) (size 15 to 20)
#    0.000    2.667    0.000    3.000    0.000    4.667 
#    0.000   13.333    0.000    4.000    0.000    0.000 
#    0.000    0.000    0.000    0.000    0.000    0.000 
#
# Total GULP energy -133686.256935 kJ/mol
# GULP energy per Si atom -5570.260706 kJ/mol
# Density = 1.892256 g / cm^3
# Si number density = 18.965725 Si / 1000 Ang^3
#
#
#
# Elastic Constant Matrix: (Units=GPa)
#
#
# Indices 1 2 3 4 5 6 
#
# 1 44.2239 20.5375 28.2872 0.0000 0.0000 0.0000
# 2 20.5375 66.6176 15.3073 0.0000 0.0000 0.0000
# 3 28.2872 15.3073 56.2771 0.0000 0.0000 0.0000
# 4 0.0000 0.0000 0.0000 29.6157 0.0000 0.0000
# 5 0.0000 0.0000 0.0000 0.0000 3.1888 0.0000
# 6 0.0000 0.0000 0.0000 0.0000 0.0000 33.9992
#
#
#
# Elastic Compliance Matrix: (Units=1/GPa)
#
#
# Indices 1 2 3 4 5 6 
#
# 1 0.036544 -0.007515 -0.016324 0.000000 0.000000 0.000000
# 2 -0.007515 0.017557 -0.000998 0.000000 0.000000 0.000000
# 3 -0.016324 -0.000998 0.026246 0.000000 0.000000 0.000000
# 4 0.000000 0.000000 0.000000 0.033766 0.000000 0.000000
# 5 0.000000 0.000000 0.000000 0.000000 0.313601 0.000000
# 6 0.000000 0.000000 0.000000 0.000000 0.000000 0.029412
#
#
# Mechanical properties :
#
#
# Convention : Reuss Voigt Hill
#
# Bulk Modulus (GPa) = 32.60315 32.82030 32.71172
# Shear Modulus (GPa) = 9.67070 20.22649 14.94859
#
# Velocity S-wave (km/s) = 2.26056 3.26924 2.81052
# Velocity P-wave (km/s) = 4.90320 5.62078 5.27421
#
# Compressibility (1/GPa) = 0.03067188
#
# Stress axis : x y z
#
# Youngs Moduli (GPa) = 27.36431 56.95662 38.10100
#
# Poissons Ratio (x) = 0.42804 0.62198
# Poissons Ratio (y) = 0.20565 0.03803
# Poissons Ratio (z) = 0.44671 0.05685
#
# Static dielectric constant tensor:
#      x y z
#    x 1.688490 0.000000 0.000000 
#    y 0.000000 1.688850 0.000000 
#    z 0.000000 0.000000 1.671820 
# 
# From -- ./inp_files/17601.got.cif
#   From: 2010.05.17/outbox.cif.g08.bks.cpg/sg40_9_cif.got.tgz:17601.got - 2010.06.03 18:35:42.
