data_PCOD9363359
_publ_section_title
;
Structure prediction by ZEFSAII (Michael W. Deem and Ramdas Pophale) SiO2 
 PCOD9363359
Probable space group: A M A 2
;
_chemical_formula_sum "Si O2"
_cell_formula_units_Z 64
_cell_length_a 8.605852
_cell_length_b 14.696814
_cell_length_c 28.845609
_cell_angle_alpha 90.000000
_cell_angle_beta 90.000000
_cell_angle_gamma 90.000000
_cell_volume 3648.352420
_symmetry_space_group_name_H-M "A M A 2"
_symmetry_group_IT_number 40
_symmetry_cell_setting 'orthorhombic'
loop_
_space_group_symop_operation_xyz
x,y,z
-x,-y,z
1/2-x,y,z
1/2+x,-y,z
x,1/2+y,1/2+z
-x,1/2-y,1/2+z
1/2-x,1/2+y,1/2+z
1/2+x,1/2-y,1/2+z
loop_
_atom_site_type_symbol
_atom_site_label
_atom_site_fract_x
_atom_site_fract_y
_atom_site_fract_z
Si Si1 0.426631 0.643957 0.850880
Si Si2 0.938249 0.793762 0.449812
Si Si3 0.932411 0.595674 0.756082
Si Si4 0.062492 0.288351 0.224169
Si Si5 0.573647 0.644848 0.319524
Si Si6 0.935671 0.898104 0.638040
Si Si7 0.438308 0.906820 0.917225
Si Si8 0.935301 0.101155 0.537306
O O1 0.250000 0.606891 0.848632
O O2 0.482782 0.647860 0.903881
O O3 0.531286 0.600686 0.811268
O O4 0.415544 0.750082 0.836056
O O5 0.750000 0.797651 0.451936
O O6 0.982261 0.688159 0.441451
O O7 0.010940 0.834263 0.495853
O O8 0.750000 0.599785 0.748323
O O9 0.000000 0.500000 0.738770
O O10 0.010767 0.684616 0.733396
O O11 0.250000 0.291252 0.224814
O O12 0.003583 0.348590 0.268343
O O13 0.997939 0.330635 0.177295
O O14 0.750000 0.609095 0.314664
O O15 0.498710 0.598194 0.364091
O O16 0.750000 0.900755 0.638289
O O17 0.995551 0.870657 0.587061
O O18 0.000000 0.000000 0.646778
O O19 0.250000 0.908070 0.915413
O O20 0.500000 0.000000 0.938798
O O21 0.750000 0.097571 0.540480
O O22 0.000000 0.000000 0.527863
#
# Coordination Sequence:
#
# PCOD9363359 Si02
#       8
#     8   8   8   8   8   8   8   8
#     4   8  15  30  49  68  95 133 174 214 256 301
#     4   9  18  34  54  75 103 139 176 216 263 313
#     4  11  21  33  50  75 107 144 183 220 260 307
#     4  10  19  35  56  78 106 139 176 218 264 313
#     4   7  13  27  46  67  95 132 169 206 247 291
#     4  11  22  38  58  81 107 135 169 210 261 317
#     4   9  17  30  48  72 104 141 177 211 250 296
#     4  11  22  37  57  80 104 131 166 211 264 318
#
# _framework density 17.542164
#
# number of rings (size 3 to 8) (size 9 to 14) (size 15 to 20)
#    0.000    2.500    0.000    6.750    0.000    2.000 
#    0.000    6.875    0.000    0.750    0.000    3.500 
#    0.000    0.000    0.000    0.000    0.000    0.000 
#
# Total GULP energy -178369.506431 kJ/mol
# GULP energy per Si atom -5574.047076 kJ/mol
# Density = 1.750224 g / cm^3
# Si number density = 17.542164 Si / 1000 Ang^3
#
#
#
# Elastic Constant Matrix: (Units=GPa)
#
#
# Indices 1 2 3 4 5 6 
#
# 1 85.5420 34.7429 47.9196 0.0000 0.0000 0.0000
# 2 34.7429 81.3179 70.4312 0.0000 0.0000 0.0000
# 3 47.9196 70.4312 137.2340 0.0000 0.0000 0.0000
# 4 0.0000 0.0000 0.0000 22.0042 0.0000 0.0000
# 5 0.0000 0.0000 0.0000 0.0000 23.5628 0.0000
# 6 0.0000 0.0000 0.0000 0.0000 0.0000 24.7446
#
#
#
# Elastic Compliance Matrix: (Units=1/GPa)
#
#
# Indices 1 2 3 4 5 6 
#
# 1 0.015031 -0.003377 -0.003515 0.000000 0.000000 0.000000
# 2 -0.003377 0.022897 -0.010572 0.000000 0.000000 0.000000
# 3 -0.003515 -0.010572 0.013940 0.000000 0.000000 0.000000
# 4 0.000000 0.000000 0.000000 0.045446 0.000000 0.000000
# 5 0.000000 0.000000 0.000000 0.000000 0.042440 0.000000
# 6 0.000000 0.000000 0.000000 0.000000 0.000000 0.040413
#
#
# Mechanical properties :
#
#
# Convention : Reuss Voigt Hill
#
# Bulk Modulus (GPa) = 59.03519 67.80901 63.42210
# Shear Modulus (GPa) = 22.65093 24.12901 23.38997
#
# Velocity S-wave (km/s) = 3.59726 3.71278 3.65548
# Velocity P-wave (km/s) = 7.14004 7.55767 7.35182
#
# Compressibility (1/GPa) = 0.01693905
#
# Stress axis : x y z
#
# Youngs Moduli (GPa) = 66.52881 43.67407 71.73627
#
# Poissons Ratio (x) = 0.14750 0.25217
# Poissons Ratio (y) = 0.22469 0.75838
# Poissons Ratio (z) = 0.23386 0.46171
#
# Static dielectric constant tensor:
#      x y z
#    x 1.596330 0.000000 0.000000 
#    y 0.000000 1.604170 0.000000 
#    z 0.000000 0.000000 1.603540 
# 
# From -- ./inp_files/26482.got.cif
#   From: 2010.05.17/outbox.cif.g08.bks.cpg/sg40_14_cif.got.tgz:26482.got - 2010.06.03 18:35:42.
