data_PCOD9363823
_publ_section_title
;
Structure prediction by ZEFSAII (Michael W. Deem and Ramdas Pophale) SiO2 
 PCOD9363823
Probable space group: A M A 2
;
_chemical_formula_sum "Si O2"
_cell_formula_units_Z 64
_cell_length_a 8.716478
_cell_length_b 20.835489
_cell_length_c 19.930054
_cell_angle_alpha 90.000000
_cell_angle_beta 90.000000
_cell_angle_gamma 90.000000
_cell_volume 3619.538591
_symmetry_space_group_name_H-M "A M A 2"
_symmetry_group_IT_number 40
_symmetry_cell_setting 'orthorhombic'
loop_
_space_group_symop_operation_xyz
x,y,z
-x,-y,z
1/2-x,y,z
1/2+x,-y,z
x,1/2+y,1/2+z
-x,1/2-y,1/2+z
1/2-x,1/2+y,1/2+z
1/2+x,1/2-y,1/2+z
loop_
_atom_site_type_symbol
_atom_site_label
_atom_site_fract_x
_atom_site_fract_y
_atom_site_fract_z
Si Si1 0.565534 0.184038 0.239410
Si Si2 0.432811 0.322760 0.082593
Si Si3 0.434519 0.930829 0.984365
Si Si4 0.567073 0.430834 0.986978
Si Si5 0.432927 0.569166 0.336074
Si Si6 0.934519 0.569171 0.838688
Si Si7 0.065534 0.815962 0.083643
Si Si8 0.067189 0.822760 0.740460
O O1 0.750000 0.191968 0.243458
O O2 0.521778 0.125511 0.287516
O O3 0.526691 0.170445 0.161526
O O4 0.487459 0.251099 0.258698
O O5 0.250000 0.327983 0.074346
O O6 0.487460 0.251099 0.064354
O O7 0.469683 0.331880 0.161526
O O8 0.514896 0.375679 0.037569
O O9 0.250000 0.934451 0.980921
O O10 0.499864 0.917649 0.910202
O O11 0.500000 0.000000 0.005599
O O12 0.478223 0.874489 0.035537
O O13 0.500000 0.500000 0.008138
O O14 0.750000 0.434823 0.983260
O O15 0.499864 0.417650 0.912850
O O16 0.500000 0.500000 0.314914
O O17 0.250000 0.565177 0.339793
O O18 0.485104 0.624321 0.285484
O O19 0.750000 0.565549 0.842132
O O20 0.000000 0.500000 0.817453
O O21 0.250000 0.808032 0.079595
O O22 0.250000 0.827983 0.748706
#
# Coordination Sequence:
#
# PCOD9363823 Si02
#       8
#     8   8   8   8   8   8   8   8
#     4   9  19  36  56  79 108 142 179 219 264 313
#     4  10  21  37  57  81 108 138 175 219 265 315
#     4  10  20  35  55  79 109 142 178 221 265 313
#     4  11  22  37  57  79 107 141 177 219 264 314
#     4  11  22  37  57  79 107 141 177 219 264 314
#     4  10  20  35  55  79 109 142 178 221 265 313
#     4   9  19  36  56  79 108 142 179 219 264 313
#     4  10  21  37  57  81 108 138 175 219 265 315
#
# _framework density 17.681809999999999
#
# number of rings (size 3 to 8) (size 9 to 14) (size 15 to 20)
#    0.000    2.000    0.000    5.250    0.000    5.500 
#    0.000    0.000    0.000    0.000    0.000    0.000 
#    0.000    0.000    0.000    0.000    0.000    0.000 
#
# Total GULP energy -178713.432350 kJ/mol
# GULP energy per Si atom -5584.794761 kJ/mol
# Density = 1.764157 g / cm^3
# Si number density = 17.681810 Si / 1000 Ang^3
#
#
#
# Elastic Constant Matrix: (Units=GPa)
#
#
# Indices 1 2 3 4 5 6 
#
# 1 87.2581 77.5505 55.2912 0.0000 0.0000 0.0000
# 2 77.5505 175.5184 108.7661 0.0000 0.0000 0.0000
# 3 55.2912 108.7661 80.8620 0.0000 0.0000 0.0000
# 4 0.0000 0.0000 0.0000 43.8278 0.0000 0.0000
# 5 0.0000 0.0000 0.0000 0.0000 257.1274 0.0000
# 6 0.0000 0.0000 0.0000 0.0000 0.0000 36.9098
#
#
#
# Elastic Compliance Matrix: (Units=1/GPa)
#
#
# Indices 1 2 3 4 5 6 
#
# 1 0.020364 -0.002216 -0.010944 0.000000 0.000000 0.000000
# 2 -0.002216 0.034466 -0.044844 0.000000 0.000000 0.000000
# 3 -0.010944 -0.044844 0.080169 0.000000 0.000000 0.000000
# 4 0.000000 0.000000 0.000000 0.022817 0.000000 0.000000
# 5 0.000000 0.000000 0.000000 0.000000 0.003889 0.000000
# 6 0.000000 0.000000 0.000000 0.000000 0.000000 0.027093
#
#
# Mechanical properties :
#
#
# Convention : Reuss Voigt Hill
#
# Bulk Modulus (GPa) = 52.65649 91.87268 72.26458
# Shear Modulus (GPa) = 16.07017 74.37503 45.22260
#
# Velocity S-wave (km/s) = 3.01799 6.49264 5.06274
# Velocity P-wave (km/s) = 6.47989 10.40564 8.66794
#
# Compressibility (1/GPa) = 0.01899101
#
# Stress axis : x y z
#
# Youngs Moduli (GPa) = 49.10555 29.01449 12.47368
#
# Poissons Ratio (x) = 0.06429 0.13651
# Poissons Ratio (y) = 0.10881 0.55937
# Poissons Ratio (z) = 0.53742 1.30112
#
# Static dielectric constant tensor:
#      x y z
#    x 1.591180 0.000000 0.000000 
#    y 0.000000 1.575290 0.000000 
#    z 0.000000 0.000000 1.584540 
# 
# From -- ./inp_files/22435.got.cif
#   From: 2010.05.17/outbox.cif.g08.bks.cpg/sg40_12_cif.got.tgz:22435.got - 2010.06.03 18:35:42.
