data_PCOD9363786
_publ_section_title
;
Structure prediction by ZEFSAII (Michael W. Deem and Ramdas Pophale) SiO2 
 PCOD9363786
Probable space group: A M A 2
;
_chemical_formula_sum "Si O2"
_cell_formula_units_Z 40
_cell_length_a 8.810818
_cell_length_b 23.562243
_cell_length_c 10.233505
_cell_angle_alpha 90.000000
_cell_angle_beta 90.000000
_cell_angle_gamma 90.000000
_cell_volume 2124.502601
_symmetry_space_group_name_H-M "A M A 2"
_symmetry_group_IT_number 40
_symmetry_cell_setting 'orthorhombic'
loop_
_space_group_symop_operation_xyz
x,y,z
-x,-y,z
1/2-x,y,z
1/2+x,-y,z
x,1/2+y,1/2+z
-x,1/2-y,1/2+z
1/2-x,1/2+y,1/2+z
1/2+x,1/2-y,1/2+z
loop_
_atom_site_type_symbol
_atom_site_label
_atom_site_fract_x
_atom_site_fract_y
_atom_site_fract_z
Si Si1 0.929008 0.753059 0.141220
Si Si2 0.931930 0.439568 0.793409
Si Si3 0.930474 0.127446 0.062977
Si Si4 0.427352 0.653567 0.007386
Si Si5 0.073070 0.157436 0.797366
O O1 0.750000 0.761755 0.151409
O O2 0.992974 0.717580 0.264493
O O3 0.012103 0.812193 0.119858
O O4 0.971811 0.709851 0.023196
O O5 0.750000 0.442395 0.789069
O O6 0.973915 0.390664 0.897841
O O7 0.000000 0.500000 0.831481
O O8 0.997031 0.420479 0.653962
O O9 0.750000 0.124476 0.066637
O O10 0.990764 0.126316 0.914831
O O11 0.250000 0.669655 0.986271
O O12 0.435148 0.627684 0.154720
O O13 0.250000 0.166080 0.829886
#
# Coordination Sequence:
#
# PCOD9363786 Si02
#       5
#     8   8   8   8   8
#     4  10  20  34  58  90 125 160 198 250 313 374
#     4  11  24  44  65  90 123 166 215 262 313 372
#     4  12  24  38  59  90 127 168 209 256 312 375
#     4   8  19  38  61  85 119 158 202 253 306 370
#     4   9  19  38  59  87 121 156 198 251 308 369
#
# _framework density 18.827936999999999
#
# number of rings (size 3 to 8) (size 9 to 14) (size 15 to 20)
#    1.200    0.800    0.000    4.200    2.800    1.600 
#    0.000    1.000    0.000    2.400    0.000    0.000 
#    0.000    0.000    0.000    0.000    0.000    0.000 
#
# Total GULP energy -111526.637003 kJ/mol
# GULP energy per Si atom -5576.331850 kJ/mol
# Density = 1.878508 g / cm^3
# Si number density = 18.827937 Si / 1000 Ang^3
#
#
#
# Elastic Constant Matrix: (Units=GPa)
#
#
# Indices 1 2 3 4 5 6 
#
# 1 95.3923 17.1006 21.7840 0.0000 0.0000 0.0000
# 2 17.1006 41.2140 9.1570 0.0000 0.0000 0.0000
# 3 21.7840 9.1570 78.4392 0.0000 0.0000 0.0000
# 4 0.0000 0.0000 0.0000 93.4419 0.0000 0.0000
# 5 0.0000 0.0000 0.0000 0.0000 -11.3408 0.0000
# 6 0.0000 0.0000 0.0000 0.0000 0.0000 29.4382
#
#
#
# Elastic Compliance Matrix: (Units=1/GPa)
#
#
# Indices 1 2 3 4 5 6 
#
# 1 0.011896 -0.004314 -0.002800 0.000000 0.000000 0.000000
# 2 -0.004314 0.026474 -0.001893 0.000000 0.000000 0.000000
# 3 -0.002800 -0.001893 0.013747 0.000000 0.000000 0.000000
# 4 0.000000 0.000000 0.000000 0.010702 0.000000 0.000000
# 5 0.000000 0.000000 0.000000 0.000000 -0.088177 0.000000
# 6 0.000000 0.000000 0.000000 0.000000 0.000000 0.033969
#
#
# Mechanical properties :
#
#
# Convention : Reuss Voigt Hill
#
# Bulk Modulus (GPa) = 29.32183 34.56986 31.94585
# Shear Modulus (GPa) = 131.60621 33.44145 82.52383
#
# Velocity S-wave (km/s) = 8.36966 4.21902 6.62764
# Velocity P-wave (km/s) = 10.44074 6.49110 8.69320
#
# Compressibility (1/GPa) = 0.03410428
#
# Stress axis : x y z
#
# Youngs Moduli (GPa) = 84.06357 37.77298 72.74158
#
# Poissons Ratio (x) = 0.16294 0.20368
# Poissons Ratio (y) = 0.36262 0.13767
# Poissons Ratio (z) = 0.23538 0.07149
#
# Static dielectric constant tensor:
#      x y z
#    x 1.623560 0.000000 0.000000 
#    y 0.000000 1.596540 0.000000 
#    z 0.000000 0.000000 1.701650 
# 
# From -- ./inp_files/4232.got.cif
#   From: 2010.05.17/outbox.cif.g08.bks.cpg/sg40_3_cif.got.tgz:4232.got - 2010.06.03 18:35:42.
