data_PCOD9363674
_publ_section_title
;
Structure prediction by ZEFSAII (Michael W. Deem and Ramdas Pophale) SiO2 
 PCOD9363674
Probable space group: A M A 2
;
_chemical_formula_sum "Si O2"
_cell_formula_units_Z 64
_cell_length_a 8.912133
_cell_length_b 16.382345
_cell_length_c 22.711606
_cell_angle_alpha 90.000000
_cell_angle_beta 90.000000
_cell_angle_gamma 90.000000
_cell_volume 3315.931666
_symmetry_space_group_name_H-M "A M A 2"
_symmetry_group_IT_number 40
_symmetry_cell_setting 'orthorhombic'
loop_
_space_group_symop_operation_xyz
x,y,z
-x,-y,z
1/2-x,y,z
1/2+x,-y,z
x,1/2+y,1/2+z
-x,1/2-y,1/2+z
1/2-x,1/2+y,1/2+z
1/2+x,1/2-y,1/2+z
loop_
_atom_site_type_symbol
_atom_site_label
_atom_site_fract_x
_atom_site_fract_y
_atom_site_fract_z
Si Si1 0.430784 0.414193 0.703690
Si Si2 0.928667 0.252136 0.500699
Si Si3 0.575586 0.580094 0.288874
Si Si4 0.568513 0.587108 0.152594
Si Si5 0.072785 0.082663 0.461117
Si Si6 0.416966 0.198983 0.870199
Si Si7 0.069901 0.262192 0.620258
Si Si8 0.078648 0.388936 0.839864
O O1 0.500000 0.500000 0.681980
O O2 0.250000 0.419082 0.700165
O O3 0.475037 0.332000 0.667881
O O4 0.469545 0.406265 0.773175
O O5 0.750000 0.247063 0.511167
O O6 0.951342 0.299858 0.439431
O O7 0.993470 0.161633 0.488700
O O8 0.014078 0.289748 0.555953
O O9 0.500000 0.500000 0.314233
O O10 0.750000 0.566483 0.285280
O O11 0.523386 0.592243 0.221802
O O12 0.535238 0.653998 0.330372
O O13 0.500000 0.500000 0.131202
O O14 0.750000 0.585356 0.146308
O O15 0.504142 0.672374 0.127885
O O16 0.250000 0.085235 0.470596
O O17 0.032950 0.084032 0.391375
O O18 0.000000 0.000000 0.485275
O O19 0.250000 0.163500 0.860941
O O20 0.411602 0.292055 0.848963
O O21 0.250000 0.253579 0.622627
O O22 0.250000 0.420815 0.849601
#
# Coordination Sequence:
#
# PCOD9363674 Si02
#       8
#     8   8   8   8   8   8   8   8
#     4  10  22  38  58  84 115 150 191 236 284 335
#     4  10  22  40  58  78 105 141 184 229 275 328
#     4  10  20  33  53  81 112 142 178 222 272 329
#     4  10  21  37  58  87 119 152 187 228 278 337
#     4  11  21  34  54  82 114 146 179 220 268 325
#     4   9  18  34  56  79 108 142 176 219 277 334
#     4  11  23  40  60  83 112 150 193 239 285 332
#     4   9  18  34  55  82 114 147 179 219 273 332
#
# _framework density 19.300761000000001
#
# number of rings (size 3 to 8) (size 9 to 14) (size 15 to 20)
#    0.000    2.000    0.000    4.500    0.000    8.000 
#    0.000    3.125    0.000    1.500    0.000    0.000 
#    0.000    0.000    0.000    0.000    0.000    0.000 
#
# Total GULP energy -178567.961557 kJ/mol
# GULP energy per Si atom -5580.248799 kJ/mol
# Density = 1.925683 g / cm^3
# Si number density = 19.300761 Si / 1000 Ang^3
#
#
#
# Elastic Constant Matrix: (Units=GPa)
#
#
# Indices 1 2 3 4 5 6 
#
# 1 47.3490 22.1819 21.3688 0.0000 0.0000 0.0000
# 2 22.1819 67.6180 30.8770 0.0000 0.0000 0.0000
# 3 21.3688 30.8770 78.3643 0.0000 0.0000 0.0000
# 4 0.0000 0.0000 0.0000 -9.3178 0.0000 0.0000
# 5 0.0000 0.0000 0.0000 0.0000 22.9810 0.0000
# 6 0.0000 0.0000 0.0000 0.0000 0.0000 34.8140
#
#
#
# Elastic Compliance Matrix: (Units=1/GPa)
#
#
# Indices 1 2 3 4 5 6 
#
# 1 0.026242 -0.006513 -0.004590 0.000000 0.000000 0.000000
# 2 -0.006513 0.019650 -0.005967 0.000000 0.000000 0.000000
# 3 -0.004590 -0.005967 0.016363 0.000000 0.000000 0.000000
# 4 0.000000 0.000000 0.000000 -0.107321 0.000000 0.000000
# 5 0.000000 0.000000 0.000000 0.000000 0.043514 0.000000
# 6 0.000000 0.000000 0.000000 0.000000 0.000000 0.028724
#
#
# Mechanical properties :
#
#
# Convention : Reuss Voigt Hill
#
# Bulk Modulus (GPa) = 35.56501 38.02072 36.79287
# Shear Modulus (GPa) = 70.73834 17.62237 44.18036
#
# Velocity S-wave (km/s) = 6.06054 3.02493 4.78959
# Velocity P-wave (km/s) = 8.21220 5.65174 7.04920
#
# Compressibility (1/GPa) = 0.02811752
#
# Stress axis : x y z
#
# Youngs Moduli (GPa) = 38.10657 50.89059 61.11218
#
# Poissons Ratio (x) = 0.33144 0.28048
# Poissons Ratio (y) = 0.24818 0.36463
# Poissons Ratio (z) = 0.17490 0.30364
#
# Static dielectric constant tensor:
#      x y z
#    x 1.670300 0.000000 0.000000 
#    y 0.000000 1.708420 0.000000 
#    z 0.000000 0.000000 1.691810 
# 
# From -- ./inp_files/24280.got.cif
#   From: 2010.05.17/outbox.cif.g08.bks.cpg/sg40_13_cif.got.tgz:24280.got - 2010.06.03 18:35:42.
