data_PCOD9363892
_publ_section_title
;
Structure prediction by ZEFSAII (Michael W. Deem and Ramdas Pophale) SiO2 
 PCOD9363892
Probable space group: A M A 2
;
_chemical_formula_sum "Si O2"
_cell_formula_units_Z 64
_cell_length_a 17.254078
_cell_length_b 12.417822
_cell_length_c 16.599637
_cell_angle_alpha 90.000000
_cell_angle_beta 90.000000
_cell_angle_gamma 90.000000
_cell_volume 3556.606176
_symmetry_space_group_name_H-M "A M A 2"
_symmetry_group_IT_number 40
_symmetry_cell_setting 'orthorhombic'
loop_
_space_group_symop_operation_xyz
x,y,z
-x,-y,z
1/2-x,y,z
1/2+x,-y,z
x,1/2+y,1/2+z
-x,1/2-y,1/2+z
1/2-x,1/2+y,1/2+z
1/2+x,1/2-y,1/2+z
loop_
_atom_site_type_symbol
_atom_site_label
_atom_site_fract_x
_atom_site_fract_y
_atom_site_fract_z
Si Si1 0.657271 0.231779 0.649680
Si Si2 0.092127 0.520510 0.391933
Si Si3 0.157064 0.803896 0.948971
Si Si4 0.909107 0.025804 0.422192
Si Si5 0.592335 0.504438 0.207953
Si Si6 0.656591 0.857805 0.305456
Si Si7 0.656158 0.257113 0.460917
Si Si8 0.342511 0.120698 0.563760
O O1 0.750000 0.218686 0.657735
O O2 0.633705 0.320713 0.716077
O O3 0.641321 0.259089 0.557143
O O4 0.619665 0.118481 0.673065
O O5 0.127874 0.424365 0.444225
O O6 0.119901 0.507604 0.299584
O O7 0.119195 0.636140 0.422999
O O8 0.000000 0.500000 0.393021
O O9 0.250000 0.804454 0.950144
O O10 0.133946 0.737295 0.868478
O O11 0.130193 0.733439 0.025208
O O12 0.884988 0.150352 0.425573
O O13 0.880031 0.965731 0.341595
O O14 0.866174 0.968534 0.497479
O O15 0.000000 0.000000 0.431360
O O16 0.500000 0.500000 0.207666
O O17 0.622967 0.412003 0.148887
O O18 0.750000 0.868293 0.308811
O O19 0.750000 0.252611 0.448749
O O20 0.250000 0.121726 0.569641
#
# Coordination Sequence:
#
# PCOD9363892 Si02
#       8
#     8   8   8   8   8   8   8   8
#     4  10  20  36  60  83 110 151 203 245 287 351
#     4  11  25  39  58  84 123 160 199 243 302 368
#     4   9  18  34  57  81 109 151 196 237 287 354
#     4  11  22  34  60  89 124 151 189 243 307 350
#     4  11  22  35  56  89 119 153 196 252 300 353
#     4   9  18  35  60  84 108 149 198 241 280 351
#     4  11  24  40  59  88 122 157 196 251 307 360
#     4  10  20  35  59  88 116 148 197 248 289 345
#
# _framework density 17.994682999999998
#
# number of rings (size 3 to 8) (size 9 to 14) (size 15 to 20)
#    0.000    1.750    2.500    3.000    3.500    1.500 
#    0.000    1.875    0.000    1.500    0.000    0.000 
#    0.000    0.000    0.000    0.000    0.000    0.000 
#
# Total GULP energy -178622.476773 kJ/mol
# GULP energy per Si atom -5581.952399 kJ/mol
# Density = 1.795373 g / cm^3
# Si number density = 17.994683 Si / 1000 Ang^3
#
#
#
# Elastic Constant Matrix: (Units=GPa)
#
#
# Indices 1 2 3 4 5 6 
#
# 1 41.4017 39.7129 34.7227 0.0000 0.0000 0.0000
# 2 39.7129 152.5114 61.4669 0.0000 0.0000 0.0000
# 3 34.7227 61.4669 89.9605 0.0000 0.0000 0.0000
# 4 0.0000 0.0000 0.0000 34.5948 0.0000 0.0000
# 5 0.0000 0.0000 0.0000 0.0000 138.4202 0.0000
# 6 0.0000 0.0000 0.0000 0.0000 0.0000 5.3878
#
#
#
# Elastic Compliance Matrix: (Units=1/GPa)
#
#
# Indices 1 2 3 4 5 6 
#
# 1 0.038931 -0.005632 -0.011178 0.000000 0.000000 0.000000
# 2 -0.005632 0.009864 -0.004566 0.000000 0.000000 0.000000
# 3 -0.011178 -0.004566 0.018550 0.000000 0.000000 0.000000
# 4 0.000000 0.000000 0.000000 0.028906 0.000000 0.000000
# 5 0.000000 0.000000 0.000000 0.000000 0.007224 0.000000
# 6 0.000000 0.000000 0.000000 0.000000 0.000000 0.185605
#
#
# Mechanical properties :
#
#
# Convention : Reuss Voigt Hill
#
# Bulk Modulus (GPa) = 40.66253 61.74207 51.20230
# Shear Modulus (GPa) = 14.70465 45.54530 30.12497
#
# Velocity S-wave (km/s) = 2.86171 5.03640 4.09602
# Velocity P-wave (km/s) = 5.79355 8.25871 7.13342
#
# Compressibility (1/GPa) = 0.02459266
#
# Stress axis : x y z
#
# Youngs Moduli (GPa) = 25.68656 101.38377 53.90851
#
# Poissons Ratio (x) = 0.57101 0.60260
# Poissons Ratio (y) = 0.14467 0.24612
# Poissons Ratio (z) = 0.28713 0.46287
#
# Static dielectric constant tensor:
#      x y z
#    x 1.560260 0.000000 0.000000 
#    y 0.000000 1.598360 0.000000 
#    z 0.000000 0.000000 1.617000 
# 
# From -- ./inp_files/17868.got.cif
#   From: 2010.05.17/outbox.cif.g08.bks.cpg/sg40_9_cif.got.tgz:17868.got - 2010.06.03 18:35:42.
