data_PCOD9363206
_publ_section_title
;
Structure prediction by ZEFSAII (Michael W. Deem and Ramdas Pophale) SiO2 
 PCOD9363206
Probable space group: A M A 2
;
_chemical_formula_sum "Si O2"
_cell_formula_units_Z 60
_cell_length_a 26.282361
_cell_length_b 7.260458
_cell_length_c 14.830595
_cell_angle_alpha 90.000000
_cell_angle_beta 90.000000
_cell_angle_gamma 90.000000
_cell_volume 2830.003476
_symmetry_space_group_name_H-M "A M A 2"
_symmetry_group_IT_number 40
_symmetry_cell_setting 'orthorhombic'
loop_
_space_group_symop_operation_xyz
x,y,z
-x,-y,z
1/2-x,y,z
1/2+x,-y,z
x,1/2+y,1/2+z
-x,1/2-y,1/2+z
1/2-x,1/2+y,1/2+z
1/2+x,1/2-y,1/2+z
loop_
_atom_site_type_symbol
_atom_site_label
_atom_site_fract_x
_atom_site_fract_y
_atom_site_fract_z
Si Si1 0.619088 0.470426 0.102770
Si Si2 0.963579 0.665444 0.227037
Si Si3 0.691673 0.025566 0.752753
Si Si4 0.809348 0.983245 0.443142
Si Si5 0.104353 0.939453 0.082420
Si Si6 0.000000 0.000000 0.120641
Si Si7 0.629624 0.389647 0.773079
Si Si8 0.305360 0.463753 0.459510
O O1 0.573465 0.587112 0.146869
O O2 0.655643 0.416925 0.186207
O O3 0.599282 0.277765 0.065447
O O4 0.657426 0.553662 0.027999
O O5 0.999983 0.821580 0.185055
O O6 0.922118 0.768474 0.291868
O O7 0.000000 0.500000 0.260511
O O8 0.750000 0.011240 0.725375
O O9 0.671652 0.235718 0.746884
O O10 0.687551 0.970830 0.857170
O O11 0.750000 0.047072 0.436307
O O12 0.844479 0.001676 0.354154
O O13 0.805430 0.760118 0.455366
O O14 0.049729 0.020759 0.061491
O O15 0.115439 0.989878 0.186399
O O16 0.149280 0.017674 0.023121
O O17 0.250000 0.521934 0.493000
#
# Coordination Sequence:
#
# PCOD9363206 Si02
#       8
#     8   8   8   8   8   4   8   8
#     4  10  19  33  60  81 114 151 197 239 288 354
#     4  10  19  36  61  84 112 154 199 249 298 346
#     4   9  17  33  53  78 109 149 189 230 285 349
#     4   9  17  33  55  83 119 158 193 234 294 358
#     4  10  19  33  55  80 110 146 192 234 293 347
#     4  10  20  36  60  84 116 154 194 252 294 348
#     4   9  19  32  55  80 113 152 190 239 290 349
#     4   8  16  30  52  77 112 147 186 237 286 345
#
# _framework density 21.201388000000001
#
# number of rings (size 3 to 8) (size 9 to 14) (size 15 to 20)
#    0.000    2.667    1.333    1.600    0.000    1.600 
#    0.000    4.000   29.333    4.800    0.000    0.000 
#    0.000    0.000    0.000    0.000    0.000    0.000 
#
# Total GULP energy -167177.498855 kJ/mol
# GULP energy per Si atom -5572.583295 kJ/mol
# Density = 2.115313 g / cm^3
# Si number density = 21.201388 Si / 1000 Ang^3
#
#
#
# Elastic Constant Matrix: (Units=GPa)
#
#
# Indices 1 2 3 4 5 6 
#
# 1 136.5730 17.4989 48.2410 0.0000 0.0000 0.0000
# 2 17.4989 61.2453 -3.8996 0.0000 0.0000 0.0000
# 3 48.2410 -3.8996 44.1991 0.0000 0.0000 0.0000
# 4 0.0000 0.0000 0.0000 9.0454 0.0000 0.0000
# 5 0.0000 0.0000 0.0000 0.0000 -31.5957 0.0000
# 6 0.0000 0.0000 0.0000 0.0000 0.0000 14.6698
#
#
#
# Elastic Compliance Matrix: (Units=1/GPa)
#
#
# Indices 1 2 3 4 5 6 
#
# 1 0.013132 -0.004691 -0.014747 0.000000 0.000000 0.000000
# 2 -0.004691 0.018096 0.006717 0.000000 0.000000 0.000000
# 3 -0.014747 0.006717 0.039313 0.000000 0.000000 0.000000
# 4 0.000000 0.000000 0.000000 0.110554 0.000000 0.000000
# 5 0.000000 0.000000 0.000000 0.000000 -0.031650 0.000000
# 6 0.000000 0.000000 0.000000 0.000000 0.000000 0.068167
#
#
# Mechanical properties :
#
#
# Convention : Reuss Voigt Hill
#
# Bulk Modulus (GPa) = 22.17384 40.63311 31.40348
# Shear Modulus (GPa) = 19.37324 10.43568 14.90446
#
# Velocity S-wave (km/s) = 3.02615 2.22100 2.65428
# Velocity P-wave (km/s) = 4.76356 5.07780 4.92319
#
# Compressibility (1/GPa) = 0.04509818
#
# Stress axis : x y z
#
# Youngs Moduli (GPa) = 76.14898 55.26149 25.43686
#
# Poissons Ratio (x) = 0.25924 0.37512
# Poissons Ratio (y) = 0.35722 -0.17085
# Poissons Ratio (z) = 1.12297 -0.37117
#
# Static dielectric constant tensor:
#      x y z
#    x 1.798100 0.000000 0.000000 
#    y 0.000000 1.807460 0.000000 
#    z 0.000000 0.000000 1.773950 
# 
# From -- ./inp_files/18490.got.cif
#   From: 2010.05.17/outbox.cif.g08.bks.cpg/sg40_10_cif.got.tgz:18490.got - 2010.06.03 18:35:42.
