data_PCOD9363589
_publ_section_title
;
Structure prediction by ZEFSAII (Michael W. Deem and Ramdas Pophale) SiO2 
 PCOD9363589
Probable space group: A M A 2
;
_chemical_formula_sum "Si O2"
_cell_formula_units_Z 48
_cell_length_a 17.242570
_cell_length_b 9.215190
_cell_length_c 12.786409
_cell_angle_alpha 90.000000
_cell_angle_beta 90.000000
_cell_angle_gamma 90.000000
_cell_volume 2031.678028
_symmetry_space_group_name_H-M "A M A 2"
_symmetry_group_IT_number 40
_symmetry_cell_setting 'orthorhombic'
loop_
_space_group_symop_operation_xyz
x,y,z
-x,-y,z
1/2-x,y,z
1/2+x,-y,z
x,1/2+y,1/2+z
-x,1/2-y,1/2+z
1/2-x,1/2+y,1/2+z
1/2+x,1/2-y,1/2+z
loop_
_atom_site_type_symbol
_atom_site_label
_atom_site_fract_x
_atom_site_fract_y
_atom_site_fract_z
Si Si1 0.901643 0.170054 0.584600
Si Si2 0.097452 0.106911 0.732807
Si Si3 0.066379 0.288557 0.549077
Si Si4 0.750000 0.365442 0.346768
Si Si5 0.750000 0.030739 0.280158
Si Si6 0.750000 0.353381 0.590698
Si Si7 0.000000 0.500000 0.406968
Si Si8 0.088524 0.524795 0.887585
O O1 0.825282 0.255929 0.614391
O O2 0.977312 0.268877 0.585726
O O3 0.917017 0.030499 0.657419
O O4 0.895808 0.108740 0.467012
O O5 0.108822 0.245715 0.656809
O O6 0.175120 0.070595 0.792861
O O7 0.034014 0.118233 0.825304
O O8 0.066041 0.435697 0.482953
O O9 0.084206 0.164599 0.463520
O O10 0.750000 0.386930 0.469070
O O11 0.750000 0.194719 0.319588
O O12 0.750000 0.998629 0.157674
O O13 0.832883 0.964760 0.320091
O O14 0.000000 0.500000 0.843135
#
# Coordination Sequence:
#
# PCOD9363589 Si02
#       8
#     8   8   8   4   4   4   4   8
#     4  10  19  45  71  97 137 190 237 295 362 438
#     4  11  24  45  71  99 141 193 239 291 374 426
#     4  10  23  42  71 107 140 183 245 301 362 446
#     4  12  27  46  67 102 150 190 234 309 366 437
#     4  12  26  43  70 109 147 193 245 309 371 438
#     4  12  25  41  69  99 145 187 245 302 367 435
#     4  12  24  42  76 110 148 186 240 306 358 438
#     4   9  20  42  74 104 140 192 242 299 368 438
#
# _framework density 23.625792000000001
#
# number of rings (size 3 to 8) (size 9 to 14) (size 15 to 20)
#    0.000    1.333    3.333    2.500    4.667    4.667 
#    0.000    0.000    1.833    0.000    0.000    0.000 
#    0.000    0.000    0.000    0.000    0.000    0.000 
#
# Total GULP energy -134056.424397 kJ/mol
# GULP energy per Si atom -5585.684350 kJ/mol
# Density = 2.357202 g / cm^3
# Si number density = 23.625792 Si / 1000 Ang^3
#
#
#
# Elastic Constant Matrix: (Units=GPa)
#
#
# Indices 1 2 3 4 5 6 
#
# 1 113.4764 5.6652 42.2307 0.0000 0.0000 0.0000
# 2 5.6652 44.0682 42.4852 0.0000 0.0000 0.0000
# 3 42.2307 42.4852 152.2937 0.0000 0.0000 0.0000
# 4 0.0000 0.0000 0.0000 31.9151 0.0000 0.0000
# 5 0.0000 0.0000 0.0000 0.0000 8.6390 0.0000
# 6 0.0000 0.0000 0.0000 0.0000 0.0000 27.7783
#
#
#
# Elastic Compliance Matrix: (Units=1/GPa)
#
#
# Indices 1 2 3 4 5 6 
#
# 1 0.009940 0.001887 -0.003283 0.000000 0.000000 0.000000
# 2 0.001887 0.031399 -0.009282 0.000000 0.000000 0.000000
# 3 -0.003283 -0.009282 0.010066 0.000000 0.000000 0.000000
# 4 0.000000 0.000000 0.000000 0.031333 0.000000 0.000000
# 5 0.000000 0.000000 0.000000 0.000000 0.115754 0.000000
# 6 0.000000 0.000000 0.000000 0.000000 0.000000 0.035999
#
#
# Mechanical properties :
#
#
# Convention : Reuss Voigt Hill
#
# Bulk Modulus (GPa) = 33.28003 54.51116 43.89560
# Shear Modulus (GPa) = 18.80667 28.29697 23.55182
#
# Velocity S-wave (km/s) = 2.82445 3.46456 3.16075
# Velocity P-wave (km/s) = 4.97530 6.25516 5.65158
#
# Compressibility (1/GPa) = 0.03004805
#
# Stress axis : x y z
#
# Youngs Moduli (GPa) = 100.60491 31.84864 99.34370
#
# Poissons Ratio (x) = -0.06010 0.32612
# Poissons Ratio (y) = -0.18984 0.92215
# Poissons Ratio (z) = 0.33026 0.29563
#
# Static dielectric constant tensor:
#      x y z
#    x 1.925050 0.000000 0.000000 
#    y 0.000000 1.901980 0.000000 
#    z 0.000000 0.000000 1.895540 
# 
# From -- ./inp_files/12968.got.cif
#   From: 2010.05.17/outbox.cif.g08.bks.cpg/sg40_7_cif.got.tgz:12968.got - 2010.06.03 18:35:42.
