data_PCOD9363428
_publ_section_title
;
Structure prediction by ZEFSAII (Michael W. Deem and Ramdas Pophale) SiO2 
 PCOD9363428
Probable space group: A M A 2
;
_chemical_formula_sum "Si O2"
_cell_formula_units_Z 52
_cell_length_a 16.844121
_cell_length_b 8.850948
_cell_length_c 16.981030
_cell_angle_alpha 90.000000
_cell_angle_beta 90.000000
_cell_angle_gamma 90.000000
_cell_volume 2531.641295
_symmetry_space_group_name_H-M "A M A 2"
_symmetry_group_IT_number 40
_symmetry_cell_setting 'orthorhombic'
loop_
_space_group_symop_operation_xyz
x,y,z
-x,-y,z
1/2-x,y,z
1/2+x,-y,z
x,1/2+y,1/2+z
-x,1/2-y,1/2+z
1/2-x,1/2+y,1/2+z
1/2+x,1/2-y,1/2+z
loop_
_atom_site_type_symbol
_atom_site_label
_atom_site_fract_x
_atom_site_fract_y
_atom_site_fract_z
Si Si1 0.927268 0.610806 0.279950
Si Si2 0.415246 0.579459 0.849179
Si Si3 0.843181 0.062149 0.201494
Si Si4 0.500000 0.500000 0.603046
Si Si5 0.844420 0.141475 0.460146
Si Si6 0.041592 0.833394 0.598087
Si Si7 0.842037 0.324743 0.307638
O O1 0.927038 0.744643 0.341455
O O2 0.938299 0.670782 0.191243
O O3 0.853919 0.499654 0.291933
O O4 0.000000 0.500000 0.295922
O O5 0.500000 0.500000 0.832614
O O6 0.352194 0.532768 0.782023
O O7 0.380686 0.515835 0.929449
O O8 0.750000 0.061261 0.175039
O O9 0.871490 0.228429 0.232436
O O10 0.913609 0.001678 0.146533
O O11 0.501193 0.675592 0.571690
O O12 0.750000 0.139073 0.462329
O O13 0.880106 0.170207 0.544926
O O14 0.872195 0.260496 0.391574
O O15 0.000000 0.000000 0.586282
O O16 0.750000 0.286838 0.309319
#
# Coordination Sequence:
#
# PCOD9363428 Si02
#       7
#     8   8   8   4   8   8   8
#     4  11  21  35  64  97 124 160 219 280 331 392
#     4  11  19  37  64  93 126 173 218 264 326 405
#     4  10  19  35  62  95 127 167 217 274 330 393
#     4  12  22  44  68  92 136 176 224 276 340 412
#     4  10  23  44  63  89 134 176 216 273 341 407
#     4  11  24  43  65  96 132 171 222 277 338 404
#     4   9  20  38  61  91 128 163 212 274 328 392
#
# _framework density 20.540035
#
# number of rings (size 3 to 8) (size 9 to 14) (size 15 to 20)
#    0.000    1.538    2.308    5.538    0.000    2.462 
#    6.923    0.769    0.000    0.000    0.000    0.000 
#    0.000    0.000    0.000    0.000    0.000    0.000 
#
# Total GULP energy -144760.709679 kJ/mol
# GULP energy per Si atom -5567.719603 kJ/mol
# Density = 2.049328 g / cm^3
# Si number density = 20.540035 Si / 1000 Ang^3
#
#
#
# Elastic Constant Matrix: (Units=GPa)
#
#
# Indices 1 2 3 4 5 6 
#
# 1 97.4078 24.6415 26.7879 0.0000 0.0000 0.0000
# 2 24.6415 147.2407 12.9191 0.0000 0.0000 0.0000
# 3 26.7879 12.9191 15.7634 0.0000 0.0000 0.0000
# 4 0.0000 0.0000 0.0000 9.6524 0.0000 0.0000
# 5 0.0000 0.0000 0.0000 0.0000 27.1989 0.0000
# 6 0.0000 0.0000 0.0000 0.0000 0.0000 27.3466
#
#
#
# Elastic Compliance Matrix: (Units=1/GPa)
#
#
# Indices 1 2 3 4 5 6 
#
# 1 0.019293 -0.000379 -0.032475 0.000000 0.000000 0.000000
# 2 -0.000379 0.007325 -0.005359 0.000000 0.000000 0.000000
# 3 -0.032475 -0.005359 0.123017 0.000000 0.000000 0.000000
# 4 0.000000 0.000000 0.000000 0.103601 0.000000 0.000000
# 5 0.000000 0.000000 0.000000 0.000000 0.036766 0.000000
# 6 0.000000 0.000000 0.000000 0.000000 0.000000 0.036568
#
#
# Mechanical properties :
#
#
# Convention : Reuss Voigt Hill
#
# Bulk Modulus (GPa) = 13.65953 43.23432 28.44693
# Shear Modulus (GPa) = 11.69865 25.91048 18.80456
#
# Velocity S-wave (km/s) = 2.38912 3.55556 3.02902
# Velocity P-wave (km/s) = 3.77825 6.16040 5.11007
#
# Compressibility (1/GPa) = 0.07320897
#
# Stress axis : x y z
#
# Youngs Moduli (GPa) = 51.83234 136.51360 8.12895
#
# Poissons Ratio (x) = 0.05179 0.26399
# Poissons Ratio (y) = 0.01966 0.04356
# Poissons Ratio (z) = 1.68326 0.73155
#
# Static dielectric constant tensor:
#      x y z
#    x 1.405450 0.000000 0.000000 
#    y 0.000000 1.895640 0.000000 
#    z 0.000000 0.000000 1.733690 
# 
# From -- ./inp_files/21077.got.cif
#   From: 2010.05.17/outbox.cif.g08.bks.cpg/sg40_11_cif.got.tgz:21077.got - 2010.06.03 18:35:42.
