data_PCOD9363407
_publ_section_title
;
Structure prediction by ZEFSAII (Michael W. Deem and Ramdas Pophale) SiO2 
 PCOD9363407
Probable space group: A M A 2
;
_chemical_formula_sum "Si O2"
_cell_formula_units_Z 64
_cell_length_a 16.933063
_cell_length_b 15.473273
_cell_length_c 12.148965
_cell_angle_alpha 90.000000
_cell_angle_beta 90.000000
_cell_angle_gamma 90.000000
_cell_volume 3183.149184
_symmetry_space_group_name_H-M "A M A 2"
_symmetry_group_IT_number 40
_symmetry_cell_setting 'orthorhombic'
loop_
_space_group_symop_operation_xyz
x,y,z
-x,-y,z
1/2-x,y,z
1/2+x,-y,z
x,1/2+y,1/2+z
-x,1/2-y,1/2+z
1/2-x,1/2+y,1/2+z
1/2+x,1/2-y,1/2+z
loop_
_atom_site_type_symbol
_atom_site_label
_atom_site_fract_x
_atom_site_fract_y
_atom_site_fract_z
Si Si1 0.926226 0.792293 0.381440
Si Si2 0.934180 0.760812 0.745152
Si Si3 0.658312 0.115316 0.867460
Si Si4 0.841694 0.605866 0.627531
Si Si5 0.160827 0.454703 0.003821
Si Si6 0.337776 0.146704 0.594485
Si Si7 0.590076 0.975802 0.279472
Si Si8 0.950117 0.086106 0.677512
O O1 0.868854 0.714012 0.349946
O O2 0.900972 0.816053 0.506174
O O3 0.906334 0.875110 0.307080
O O4 0.018127 0.768093 0.355410
O O5 0.903060 0.673980 0.683378
O O6 0.858429 0.822297 0.717840
O O7 0.998688 0.828513 0.697534
O O8 0.750000 0.101363 0.840426
O O9 0.600038 0.064259 0.786936
O O10 0.645907 0.099998 0.996992
O O11 0.750000 0.630980 0.647465
O O12 0.857451 0.513312 0.682237
O O13 0.250000 0.425797 0.984824
O O14 0.162848 0.544666 0.072882
O O15 0.109190 0.393318 0.078731
O O16 0.119005 0.475568 0.889555
O O17 0.250000 0.178447 0.563622
O O18 0.500000 0.000000 0.257256
O O19 0.000000 0.000000 0.648371
#
# Coordination Sequence:
#
# PCOD9363407 Si02
#       8
#     8   8   8   8   8   8   8   8
#     4  10  21  36  59  89 116 154 203 253 301 361
#     4  11  21  35  57  88 116 151 196 252 304 351
#     4  10  22  39  60  83 117 161 205 247 293 367
#     4  11  23  40  61  88 121 159 204 249 305 372
#     4  10  21  36  59  88 118 153 197 253 308 359
#     4  10  19  35  60  85 114 156 203 246 298 369
#     4  11  22  37  60  90 123 157 195 252 313 364
#     4  11  22  38  58  88 117 153 199 251 303 362
#
# _framework density 20.105875000000001
#
# number of rings (size 3 to 8) (size 9 to 14) (size 15 to 20)
#    0.000    1.500    3.750    1.875    1.750    2.000 
#    0.000    0.000    0.000    0.000    0.000    1.750 
#    0.000    0.000    0.000    0.000    0.000    0.000 
#
# Total GULP energy -178242.548724 kJ/mol
# GULP energy per Si atom -5570.079648 kJ/mol
# Density = 2.006011 g / cm^3
# Si number density = 20.105875 Si / 1000 Ang^3
#
#
#
# Elastic Constant Matrix: (Units=GPa)
#
#
# Indices 1 2 3 4 5 6 
#
# 1 100.0629 0.8983 50.3313 0.0000 0.0000 0.0000
# 2 0.8983 45.6243 15.4938 0.0000 0.0000 0.0000
# 3 50.3313 15.4938 61.0665 0.0000 0.0000 0.0000
# 4 0.0000 0.0000 0.0000 11.0683 0.0000 0.0000
# 5 0.0000 0.0000 0.0000 0.0000 33.1285 0.0000
# 6 0.0000 0.0000 0.0000 0.0000 0.0000 48.3812
#
#
#
# Elastic Compliance Matrix: (Units=1/GPa)
#
#
# Indices 1 2 3 4 5 6 
#
# 1 0.018116 0.005158 -0.016240 0.000000 0.000000 0.000000
# 2 0.005158 0.025454 -0.010710 0.000000 0.000000 0.000000
# 3 -0.016240 -0.010710 0.032478 0.000000 0.000000 0.000000
# 4 0.000000 0.000000 0.000000 0.090348 0.000000 0.000000
# 5 0.000000 0.000000 0.000000 0.000000 0.030185 0.000000
# 6 0.000000 0.000000 0.000000 0.000000 0.000000 0.020669
#
#
# Mechanical properties :
#
#
# Convention : Reuss Voigt Hill
#
# Bulk Modulus (GPa) = 30.80251 37.80003 34.30127
# Shear Modulus (GPa) = 18.40569 27.85096 23.12833
#
# Velocity S-wave (km/s) = 3.02890 3.72589 3.39533
# Velocity P-wave (km/s) = 5.25221 6.11154 5.69810
#
# Compressibility (1/GPa) = 0.03246489
#
# Stress axis : x y z
#
# Youngs Moduli (GPa) = 55.19926 39.28731 30.78997
#
# Poissons Ratio (x) = -0.20266 0.50004
# Poissons Ratio (y) = -0.28474 0.32975
# Poissons Ratio (z) = 0.89645 0.42075
#
# Static dielectric constant tensor:
#      x y z
#    x 1.751960 0.000000 0.000000 
#    y 0.000000 1.756980 0.000000 
#    z 0.000000 0.000000 1.740220 
# 
# From -- ./inp_files/12459.got.cif
#   From: 2010.05.17/outbox.cif.g08.bks.cpg/sg40_7_cif.got.tgz:12459.got - 2010.06.03 18:35:42.
