data_PCOD9363166
_publ_section_title
;
Structure prediction by ZEFSAII (Michael W. Deem and Ramdas Pophale) SiO2 
 PCOD9363166
Probable space group: A M A 2
;
_chemical_formula_sum "Si O2"
_cell_formula_units_Z 48
_cell_length_a 16.535503
_cell_length_b 9.224652
_cell_length_c 16.574253
_cell_angle_alpha 90.000000
_cell_angle_beta 90.000000
_cell_angle_gamma 90.000000
_cell_volume 2528.141430
_symmetry_space_group_name_H-M "A M A 2"
_symmetry_group_IT_number 40
_symmetry_cell_setting 'orthorhombic'
loop_
_space_group_symop_operation_xyz
x,y,z
-x,-y,z
1/2-x,y,z
1/2+x,-y,z
x,1/2+y,1/2+z
-x,1/2-y,1/2+z
1/2-x,1/2+y,1/2+z
1/2+x,1/2-y,1/2+z
loop_
_atom_site_type_symbol
_atom_site_label
_atom_site_fract_x
_atom_site_fract_y
_atom_site_fract_z
Si Si1 0.618841 0.786777 0.651400
Si Si2 0.341564 0.028045 0.500601
Si Si3 0.930002 0.699614 0.103160
Si Si4 0.154963 0.497796 0.577646
Si Si5 0.653075 0.188162 0.921763
Si Si6 0.095295 0.972156 0.762752
O O1 0.664843 0.871658 0.580674
O O2 0.525274 0.801326 0.622370
O O3 0.643470 0.620085 0.648492
O O4 0.630422 0.872281 0.734860
O O5 0.250000 0.976849 0.480740
O O6 0.373891 0.144706 0.435136
O O7 0.401080 0.899249 0.527830
O O8 0.897165 0.860046 0.090957
O O9 0.892535 0.627611 0.183661
O O10 0.250000 0.534247 0.570139
O O11 0.127208 0.412366 0.497015
O O12 0.750000 0.196331 0.925881
O O13 0.628637 0.109430 0.840008
O O14 0.000000 0.000000 0.774788
#
# Coordination Sequence:
#
# PCOD9363166 Si02
#       6
#     8   8   8   8   8   8
#     4   9  18  33  52  75 104 136 175 216 256 310
#     4   9  17  31  50  74 101 132 170 212 253 308
#     4  10  19  33  54  77 101 133 176 221 262 308
#     4  10  20  34  53  79 104 134 176 222 265 312
#     4   9  19  33  50  73 103 135 169 209 261 316
#     4   9  19  34  52  76 104 136 174 212 257 314
#
# _framework density 18.986281000000002
#
# number of rings (size 3 to 8) (size 9 to 14) (size 15 to 20)
#    0.000    2.667    0.000    4.000    0.000    6.667 
#    0.000    1.667    0.000    6.000    0.000    0.000 
#    0.000    0.000    0.000    0.000    0.000    0.000 
#
# Total GULP energy -133720.154872 kJ/mol
# GULP energy per Si atom -5571.673120 kJ/mol
# Density = 1.894307 g / cm^3
# Si number density = 18.986281 Si / 1000 Ang^3
#
#
#
# Elastic Constant Matrix: (Units=GPa)
#
#
# Indices 1 2 3 4 5 6 
#
# 1 40.3611 16.5675 9.2069 0.0000 0.0000 0.0000
# 2 16.5675 94.6522 30.9506 0.0000 0.0000 0.0000
# 3 9.2069 30.9506 76.9883 0.0000 0.0000 0.0000
# 4 0.0000 0.0000 0.0000 33.6682 0.0000 0.0000
# 5 0.0000 0.0000 0.0000 0.0000 20.7968 0.0000
# 6 0.0000 0.0000 0.0000 0.0000 0.0000 15.3447
#
#
#
# Elastic Compliance Matrix: (Units=1/GPa)
#
#
# Indices 1 2 3 4 5 6 
#
# 1 0.026848 -0.004202 -0.001521 0.000000 0.000000 0.000000
# 2 -0.004202 0.012822 -0.004652 0.000000 0.000000 0.000000
# 3 -0.001521 -0.004652 0.015041 0.000000 0.000000 0.000000
# 4 0.000000 0.000000 0.000000 0.029702 0.000000 0.000000
# 5 0.000000 0.000000 0.000000 0.000000 0.048084 0.000000
# 6 0.000000 0.000000 0.000000 0.000000 0.000000 0.065169
#
#
# Mechanical properties :
#
#
# Convention : Reuss Voigt Hill
#
# Bulk Modulus (GPa) = 29.44626 36.16129 32.80377
# Shear Modulus (GPa) = 21.76401 24.31370 23.03886
#
# Velocity S-wave (km/s) = 3.38938 3.58242 3.48724
# Velocity P-wave (km/s) = 5.55519 6.01656 5.79047
#
# Compressibility (1/GPa) = 0.03396017
#
# Stress axis : x y z
#
# Youngs Moduli (GPa) = 37.24648 77.99308 66.48434
#
# Poissons Ratio (x) = 0.32772 0.10116
# Poissons Ratio (y) = 0.15651 0.30929
# Poissons Ratio (z) = 0.05667 0.36283
#
# Static dielectric constant tensor:
#      x y z
#    x 1.726890 0.000000 0.000000 
#    y 0.000000 1.689980 0.000000 
#    z 0.000000 0.000000 1.661040 
# 
# From -- ./inp_files/17611.got.cif
#   From: 2010.05.17/outbox.cif.g08.bks.cpg/sg40_9_cif.got.tgz:17611.got - 2010.06.03 18:35:42.
