data_PCOD9363750
_publ_section_title
;
Structure prediction by ZEFSAII (Michael W. Deem and Ramdas Pophale) SiO2 
 PCOD9363750
Probable space group: A M A 2
;
_chemical_formula_sum "Si O2"
_cell_formula_units_Z 56
_cell_length_a 7.908738
_cell_length_b 16.309465
_cell_length_c 20.767601
_cell_angle_alpha 90.000000
_cell_angle_beta 90.000000
_cell_angle_gamma 90.000000
_cell_volume 2678.756482
_symmetry_space_group_name_H-M "A M A 2"
_symmetry_group_IT_number 40
_symmetry_cell_setting 'orthorhombic'
loop_
_space_group_symop_operation_xyz
x,y,z
-x,-y,z
1/2-x,y,z
1/2+x,-y,z
x,1/2+y,1/2+z
-x,1/2-y,1/2+z
1/2-x,1/2+y,1/2+z
1/2+x,1/2-y,1/2+z
loop_
_atom_site_type_symbol
_atom_site_label
_atom_site_fract_x
_atom_site_fract_y
_atom_site_fract_z
Si Si1 0.953212 0.585836 0.040610
Si Si2 0.441908 0.740142 0.845238
Si Si3 0.545669 0.904818 0.080364
Si Si4 0.953025 0.810150 0.207128
Si Si5 0.051387 0.743453 0.489466
Si Si6 0.547443 0.119338 0.682368
Si Si7 0.561389 0.413708 0.317180
O O1 0.750000 0.590721 0.039116
O O2 0.024152 0.671394 0.014922
O O3 0.007842 0.584867 0.114515
O O4 0.000000 0.500000 0.008028
O O5 0.250000 0.711504 0.855479
O O6 0.514834 0.693022 0.782036
O O7 0.441502 0.836594 0.827706
O O8 0.535058 0.744822 0.913026
O O9 0.750000 0.901773 0.081518
O O10 0.485801 0.871920 0.151204
O O11 0.486135 0.839403 0.025072
O O12 0.500000 0.000000 0.069212
O O13 0.750000 0.821627 0.212325
O O14 0.979623 0.717667 0.181830
O O15 0.250000 0.742989 0.505644
O O16 0.750000 0.106545 0.691761
O O17 0.441846 0.081583 0.740113
O O18 0.500000 0.500000 0.344545
O O19 0.750000 0.395307 0.340538
#
# Coordination Sequence:
#
# PCOD9363750 Si02
#       7
#     8   8   8   8   8   8   8
#     4  10  20  34  55  81 110 147 186 230 285 346
#     4  10  21  37  59  81 108 149 195 242 295 353
#     4  10  20  37  61  87 116 155 199 244 296 351
#     4   8  15  33  58  80 106 146 188 227 282 346
#     4  10  21  39  59  81 116 158 195 238 297 359
#     4   9  16  31  54  79 108 142 180 222 277 336
#     4  11  21  33  50  77 111 145 183 227 279 341
#
# _framework density 20.905222999999999
#
# number of rings (size 3 to 8) (size 9 to 14) (size 15 to 20)
#    0.000    2.286    1.429    3.000    0.000    3.429 
#    0.000    5.714    0.000    3.429    0.000    0.000 
#    0.000    0.000    0.000    0.000    0.000    0.000 
#
# Total GULP energy -155916.700209 kJ/mol
# GULP energy per Si atom -5568.453579 kJ/mol
# Density = 2.085764 g / cm^3
# Si number density = 20.905223 Si / 1000 Ang^3
#
#
#
# Elastic Constant Matrix: (Units=GPa)
#
#
# Indices 1 2 3 4 5 6 
#
# 1 31.7406 6.6294 0.3916 0.0000 0.0000 0.0000
# 2 6.6294 119.5024 57.4832 0.0000 0.0000 0.0000
# 3 0.3916 57.4832 95.3829 0.0000 0.0000 0.0000
# 4 0.0000 0.0000 0.0000 -1.2886 0.0000 0.0000
# 5 0.0000 0.0000 0.0000 0.0000 25.2915 0.0000
# 6 0.0000 0.0000 0.0000 0.0000 0.0000 15.7920
#
#
#
# Elastic Compliance Matrix: (Units=1/GPa)
#
#
# Indices 1 2 3 4 5 6 
#
# 1 0.031993 -0.002410 0.001321 0.000000 0.000000 0.000000
# 2 -0.002410 0.011966 -0.007201 0.000000 0.000000 0.000000
# 3 0.001321 -0.007201 0.014819 0.000000 0.000000 0.000000
# 4 0.000000 0.000000 0.000000 -0.776034 0.000000 0.000000
# 5 0.000000 0.000000 0.000000 0.000000 0.039539 0.000000
# 6 0.000000 0.000000 0.000000 0.000000 0.000000 0.063323
#
#
# Mechanical properties :
#
#
# Convention : Reuss Voigt Hill
#
# Bulk Modulus (GPa) = 23.69895 41.73715 32.71805
# Shear Modulus (GPa) = -8.56533 20.10044 5.76756
#
# Velocity S-wave (km/s) = -2.02635 3.10418 1.66280
# Velocity P-wave (km/s) = 2.42614 5.73203 4.40127
#
# Compressibility (1/GPa) = 0.04219597
#
# Stress axis : x y z
#
# Youngs Moduli (GPa) = 31.25732 83.57193 67.48293
#
# Poissons Ratio (x) = 0.20144 -0.08916
# Poissons Ratio (y) = 0.07534 0.48597
# Poissons Ratio (z) = -0.04130 0.60183
#
# Static dielectric constant tensor:
#      x y z
#    x 1.730560 0.000000 0.000000 
#    y 0.000000 1.798630 0.000000 
#    z 0.000000 0.000000 1.832250 
# 
# From -- ./inp_files/22132.got.cif
#   From: 2010.05.17/outbox.cif.g08.bks.cpg/sg40_12_cif.got.tgz:22132.got - 2010.06.03 18:35:42.
