data_PCOD9363120
_publ_section_title
;
Structure prediction by ZEFSAII (Michael W. Deem and Ramdas Pophale) SiO2 
 PCOD9363120
Probable space group: A M A 2
;
_chemical_formula_sum "Si O2"
_cell_formula_units_Z 64
_cell_length_a 8.690983
_cell_length_b 31.139906
_cell_length_c 14.758546
_cell_angle_alpha 90.000000
_cell_angle_beta 90.000000
_cell_angle_gamma 90.000000
_cell_volume 3994.199665
_symmetry_space_group_name_H-M "A M A 2"
_symmetry_group_IT_number 40
_symmetry_cell_setting 'orthorhombic'
loop_
_space_group_symop_operation_xyz
x,y,z
-x,-y,z
1/2-x,y,z
1/2+x,-y,z
x,1/2+y,1/2+z
-x,1/2-y,1/2+z
1/2-x,1/2+y,1/2+z
1/2+x,1/2-y,1/2+z
loop_
_atom_site_type_symbol
_atom_site_label
_atom_site_fract_x
_atom_site_fract_y
_atom_site_fract_z
Si Si1 0.068778 0.628923 0.889760
Si Si2 0.565492 0.730279 0.566941
Si Si3 0.436496 0.703265 0.752306
Si Si4 0.436819 0.289772 0.361250
Si Si5 0.932670 0.453726 0.171571
Si Si6 0.070643 0.371305 0.249091
Si Si7 0.427141 0.823873 0.556734
Si Si8 0.567195 0.546195 0.970292
O O1 0.250000 0.620460 0.881876
O O2 0.021269 0.660883 0.809129
O O3 0.981506 0.584188 0.903132
O O4 0.034730 0.655510 0.981161
O O5 0.750000 0.735546 0.569663
O O6 0.509188 0.703366 0.652937
O O7 0.523791 0.712964 0.467139
O O8 0.482456 0.776013 0.575865
O O9 0.250000 0.704783 0.746046
O O10 0.485786 0.746582 0.807243
O O11 0.250000 0.290082 0.354342
O O12 0.490576 0.334104 0.315607
O O13 0.750000 0.456326 0.163894
O O14 0.000000 0.500000 0.198607
O O15 0.981608 0.415853 0.239166
O O16 0.000327 0.444416 0.070932
O O17 0.250000 0.379995 0.271034
O O18 0.066056 0.349965 0.149666
O O19 0.250000 0.824558 0.524596
O O20 0.500000 0.500000 0.943009
O O21 0.750000 0.543893 0.977863
#
# Coordination Sequence:
#
# PCOD9363120 Si02
#       8
#     8   8   8   8   8   8   8   8
#     4  11  21  34  52  73 102 139 175 211 254 303
#     4  11  21  34  51  73 101 135 177 218 253 296
#     4  10  20  36  52  71 102 138 173 209 256 304
#     4   9  18  34  51  69  98 137 172 207 252 300
#     4  11  21  33  50  73 103 133 168 207 252 304
#     4  10  19  33  51  70  98 137 175 207 252 302
#     4  11  20  30  49  73 102 138 173 211 253 299
#     4  11  21  34  51  74 104 135 170 208 253 306
#
# _framework density 16.023235
#
# number of rings (size 3 to 8) (size 9 to 14) (size 15 to 20)
#    0.000    1.500    3.750    4.125    0.000    1.500 
#    0.000    1.250    0.000    0.000    0.000    0.875 
#    0.000    6.000    0.000    0.000    0.000    0.000 
#
# Total GULP energy -178602.981611 kJ/mol
# GULP energy per Si atom -5581.343175 kJ/mol
# Density = 1.598677 g / cm^3
# Si number density = 16.023235 Si / 1000 Ang^3
#
#
#
# Elastic Constant Matrix: (Units=GPa)
#
#
# Indices 1 2 3 4 5 6 
#
# 1 65.4586 40.8389 18.6899 0.0000 0.0000 0.0000
# 2 40.8389 115.7229 32.3542 0.0000 0.0000 0.0000
# 3 18.6899 32.3542 63.7654 0.0000 0.0000 0.0000
# 4 0.0000 0.0000 0.0000 19.6113 0.0000 0.0000
# 5 0.0000 0.0000 0.0000 0.0000 14.5776 0.0000
# 6 0.0000 0.0000 0.0000 0.0000 0.0000 24.3353
#
#
#
# Elastic Compliance Matrix: (Units=1/GPa)
#
#
# Indices 1 2 3 4 5 6 
#
# 1 0.019968 -0.006305 -0.002654 0.000000 0.000000 0.000000
# 2 -0.006305 0.012061 -0.004271 0.000000 0.000000 0.000000
# 3 -0.002654 -0.004271 0.018628 0.000000 0.000000 0.000000
# 4 0.000000 0.000000 0.000000 0.050991 0.000000 0.000000
# 5 0.000000 0.000000 0.000000 0.000000 0.068599 0.000000
# 6 0.000000 0.000000 0.000000 0.000000 0.000000 0.041093
#
#
# Mechanical properties :
#
#
# Convention : Reuss Voigt Hill
#
# Bulk Modulus (GPa) = 41.32879 47.63478 44.48179
# Shear Modulus (GPa) = 20.33646 21.90908 21.12277
#
# Velocity S-wave (km/s) = 3.56643 3.70176 3.63472
# Velocity P-wave (km/s) = 6.54280 6.93280 6.74062
#
# Compressibility (1/GPa) = 0.02419621
#
# Stress axis : x y z
#
# Youngs Moduli (GPa) = 50.07999 82.91478 53.68370
#
# Poissons Ratio (x) = 0.52277 0.14246
# Poissons Ratio (y) = 0.31575 0.22931
# Poissons Ratio (z) = 0.13290 0.35417
#
# Static dielectric constant tensor:
#      x y z
#    x 1.543870 0.000000 0.000000 
#    y 0.000000 1.549670 0.000000 
#    z 0.000000 0.000000 1.523530 
# 
# From -- ./inp_files/15888.got.cif
#   From: 2010.05.17/outbox.cif.g08.bks.cpg/sg40_8_cif.got.tgz:15888.got - 2010.06.03 18:35:42.
