data_PCOD9363746
_publ_section_title
;
Structure prediction by ZEFSAII (Michael W. Deem and Ramdas Pophale) SiO2 
 PCOD9363746
Probable space group: A M A 2
;
_chemical_formula_sum "Si O2"
_cell_formula_units_Z 52
_cell_length_a 27.716344
_cell_length_b 7.617669
_cell_length_c 10.104416
_cell_angle_alpha 90.000000
_cell_angle_beta 90.000000
_cell_angle_gamma 90.000000
_cell_volume 2133.385106
_symmetry_space_group_name_H-M "A M A 2"
_symmetry_group_IT_number 40
_symmetry_cell_setting 'orthorhombic'
loop_
_space_group_symop_operation_xyz
x,y,z
-x,-y,z
1/2-x,y,z
1/2+x,-y,z
x,1/2+y,1/2+z
-x,1/2-y,1/2+z
1/2-x,1/2+y,1/2+z
1/2+x,1/2-y,1/2+z
loop_
_atom_site_type_symbol
_atom_site_label
_atom_site_fract_x
_atom_site_fract_y
_atom_site_fract_z
Si Si1 0.593035 0.665137 0.973830
Si Si2 0.750000 0.337611 0.191941
Si Si3 0.995952 0.213602 0.641051
Si Si4 0.750000 0.988556 0.452302
Si Si5 0.335871 0.375764 0.769429
Si Si6 0.556972 0.778676 0.405168
Si Si7 0.144825 0.766665 0.728777
Si Si8 0.750000 0.636386 0.335044
O O1 0.622290 0.729929 0.845695
O O2 0.571505 0.480108 0.927720
O O3 0.549988 0.763367 0.048930
O O4 0.630621 0.639510 0.093409
O O5 0.699234 0.238974 0.180660
O O6 0.750000 0.425263 0.341800
O O7 0.750000 0.516250 0.106828
O O8 0.984534 0.269675 0.791159
O O9 0.039881 0.283077 0.550664
O O10 0.000000 0.000000 0.645935
O O11 0.750000 0.775384 0.456161
O O12 0.703037 0.055109 0.378055
O O13 0.355644 0.554668 0.705072
O O14 0.603870 0.691821 0.338569
O O15 0.197446 0.813109 0.778093
#
# Coordination Sequence:
#
# PCOD9363746 Si02
#       8
#     8   4   8   4   8   8   8   4
#     4   9  17  33  57  82 113 152 195 244 298 355
#     4  11  21  33  54  82 112 151 199 247 295 351
#     4   9  18  35  58  84 114 151 195 245 301 357
#     4   9  19  35  50  72 108 145 187 241 294 352
#     4   9  19  34  53  79 110 148 193 242 298 354
#     4   9  18  35  60  87 118 156 200 249 303 361
#     4   9  18  35  60  85 116 161 200 242 303 360
#     4  10  20  34  54  84 116 152 200 244 293 359
#
# _framework density 24.374407999999999
#
# number of rings (size 3 to 8) (size 9 to 14) (size 15 to 20)
#    0.000    2.769    0.000    1.385    0.000    1.846 
#    0.000   14.615    0.000   20.308    0.000    0.000 
#    0.000    0.000    0.000    0.000    0.000    0.000 
#
# Total GULP energy -144875.883970 kJ/mol
# GULP energy per Si atom -5572.149383 kJ/mol
# Density = 2.431893 g / cm^3
# Si number density = 24.374408 Si / 1000 Ang^3
#
#
#
# Elastic Constant Matrix: (Units=GPa)
#
#
# Indices 1 2 3 4 5 6 
#
# 1 67.8217 7.4553 33.9068 0.0000 0.0000 0.0000
# 2 7.4553 46.7898 13.2968 0.0000 0.0000 0.0000
# 3 33.9068 13.2968 98.7053 0.0000 0.0000 0.0000
# 4 0.0000 0.0000 0.0000 22.9504 0.0000 0.0000
# 5 0.0000 0.0000 0.0000 0.0000 55.5153 0.0000
# 6 0.0000 0.0000 0.0000 0.0000 0.0000 9.0401
#
#
#
# Elastic Compliance Matrix: (Units=1/GPa)
#
#
# Indices 1 2 3 4 5 6 
#
# 1 0.017861 -0.001146 -0.005981 0.000000 0.000000 0.000000
# 2 -0.001146 0.022296 -0.002610 0.000000 0.000000 0.000000
# 3 -0.005981 -0.002610 0.012537 0.000000 0.000000 0.000000
# 4 0.000000 0.000000 0.000000 0.043572 0.000000 0.000000
# 5 0.000000 0.000000 0.000000 0.000000 0.018013 0.000000
# 6 0.000000 0.000000 0.000000 0.000000 0.000000 0.110618
#
#
# Mechanical properties :
#
#
# Convention : Reuss Voigt Hill
#
# Bulk Modulus (GPa) = 30.10201 35.84831 32.97516
# Shear Modulus (GPa) = 19.57365 28.07835 23.82600
#
# Velocity S-wave (km/s) = 2.83687 3.39774 3.12989
# Velocity P-wave (km/s) = 4.80699 5.48927 5.15942
#
# Compressibility (1/GPa) = 0.03322037
#
# Stress axis : x y z
#
# Youngs Moduli (GPa) = 55.98883 44.85011 79.76183
#
# Poissons Ratio (x) = 0.05141 0.47706
# Poissons Ratio (y) = 0.06417 0.20817
# Poissons Ratio (z) = 0.33487 0.11705
#
# Static dielectric constant tensor:
#      x y z
#    x 1.965180 0.000000 0.000000 
#    y 0.000000 1.970570 0.000000 
#    z 0.000000 0.000000 1.986390 
# 
# From -- ./inp_files/14213.got.cif
#   From: 2010.05.17/outbox.cif.g08.bks.cpg/sg40_8_cif.got.tgz:14213.got - 2010.06.03 18:35:42.
