data_PCOD9363521
_publ_section_title
;
Structure prediction by ZEFSAII (Michael W. Deem and Ramdas Pophale) SiO2 
 PCOD9363521
Probable space group: A M A 2
;
_chemical_formula_sum "Si O2"
_cell_formula_units_Z 40
_cell_length_a 14.585324
_cell_length_b 18.856129
_cell_length_c 7.234860
_cell_angle_alpha 90.000000
_cell_angle_beta 90.000000
_cell_angle_gamma 90.000000
_cell_volume 1989.751099
_symmetry_space_group_name_H-M "A M A 2"
_symmetry_group_IT_number 40
_symmetry_cell_setting 'orthorhombic'
loop_
_space_group_symop_operation_xyz
x,y,z
-x,-y,z
1/2-x,y,z
1/2+x,-y,z
x,1/2+y,1/2+z
-x,1/2-y,1/2+z
1/2-x,1/2+y,1/2+z
1/2+x,1/2-y,1/2+z
loop_
_atom_site_type_symbol
_atom_site_label
_atom_site_fract_x
_atom_site_fract_y
_atom_site_fract_z
Si Si1 0.951565 0.175477 0.072400
Si Si2 0.854191 0.322147 0.013541
Si Si3 0.487034 0.922637 0.422920
Si Si4 0.349798 0.222619 0.083173
Si Si5 0.645390 0.117115 0.716234
O O1 0.957017 0.131600 0.261604
O O2 0.055255 0.192926 0.004487
O O3 0.898844 0.250480 0.097573
O O4 0.900076 0.131992 0.913617
O O5 0.750000 0.334480 0.077034
O O6 0.848513 0.305612 0.793907
O O7 0.924479 0.387306 0.021625
O O8 0.412108 0.932426 0.582893
O O9 0.500000 0.000000 0.336914
O O10 0.250000 0.205297 0.999127
O O11 0.356437 0.307018 0.109402
O O12 0.750000 0.095145 0.739427
#
# Coordination Sequence:
#
# PCOD9363521 Si02
#       5
#     8   8   8   8   8
#     4  10  19  37  63  88 121 162 213 257 305 368
#     4   9  18  35  59  87 119 160 208 257 304 364
#     4  11  24  39  61  93 129 161 199 259 322 375
#     4   8  15  30  56  88 117 151 200 254 296 350
#     4  10  21  37  58  86 122 160 204 251 303 369
#
# _framework density 20.103017999999999
#
# number of rings (size 3 to 8) (size 9 to 14) (size 15 to 20)
#    0.000    2.400    2.000    1.800    0.000    3.200 
#    0.000    3.000    0.000    4.800    0.000    0.000 
#    0.000    0.000    0.000    0.000    0.000    0.000 
#
# Total GULP energy -111566.213473 kJ/mol
# GULP energy per Si atom -5578.310674 kJ/mol
# Density = 2.005726 g / cm^3
# Si number density = 20.103018 Si / 1000 Ang^3
#
#
#
# Elastic Constant Matrix: (Units=GPa)
#
#
# Indices 1 2 3 4 5 6 
#
# 1 169.9327 34.0940 46.7941 0.0000 0.0000 0.0000
# 2 34.0940 56.8938 21.5682 0.0000 0.0000 0.0000
# 3 46.7941 21.5682 75.8690 0.0000 0.0000 0.0000
# 4 0.0000 0.0000 0.0000 18.0210 0.0000 0.0000
# 5 0.0000 0.0000 0.0000 0.0000 30.5321 0.0000
# 6 0.0000 0.0000 0.0000 0.0000 0.0000 0.3773
#
#
#
# Elastic Compliance Matrix: (Units=1/GPa)
#
#
# Indices 1 2 3 4 5 6 
#
# 1 0.007544 -0.003090 -0.003775 0.000000 0.000000 0.000000
# 2 -0.003090 0.020965 -0.004054 0.000000 0.000000 0.000000
# 3 -0.003775 -0.004054 0.016661 0.000000 0.000000 0.000000
# 4 0.000000 0.000000 0.000000 0.055491 0.000000 0.000000
# 5 0.000000 0.000000 0.000000 0.000000 0.032752 0.000000
# 6 0.000000 0.000000 0.000000 0.000000 0.000000 2.650484
#
#
# Mechanical properties :
#
#
# Convention : Reuss Voigt Hill
#
# Bulk Modulus (GPa) = 42.85774 56.40091 49.62932
# Shear Modulus (GPa) = 1.77714 23.13535 12.45625
#
# Velocity S-wave (km/s) = 0.94124 3.39608 2.49192
# Velocity P-wave (km/s) = 4.74832 6.59505 5.74636
#
# Compressibility (1/GPa) = 0.02333301
#
# Stress axis : x y z
#
# Youngs Moduli (GPa) = 132.55558 47.69812 60.01960
#
# Poissons Ratio (x) = 0.14738 0.22655
# Poissons Ratio (y) = 0.40958 0.24334
# Poissons Ratio (z) = 0.50034 0.19338
#
# Static dielectric constant tensor:
#      x y z
#    x 1.757860 0.000000 0.000000 
#    y 0.000000 1.676530 0.000000 
#    z 0.000000 0.000000 1.719470 
# 
# From -- ./inp_files/6304.got.cif
#   From: 2010.05.17/outbox.cif.g08.bks.cpg/sg40_4_cif.got.tgz:6304.got - 2010.06.03 18:35:42.
