data_PCOD9363856
_publ_section_title
;
Structure prediction by ZEFSAII (Michael W. Deem and Ramdas Pophale) SiO2 
 PCOD9363856
Probable space group: A M A 2
;
_chemical_formula_sum "Si O2"
_cell_formula_units_Z 64
_cell_length_a 8.226066
_cell_length_b 14.521307
_cell_length_c 25.242170
_cell_angle_alpha 90.000000
_cell_angle_beta 90.000000
_cell_angle_gamma 90.000000
_cell_volume 3015.258733
_symmetry_space_group_name_H-M "A M A 2"
_symmetry_group_IT_number 40
_symmetry_cell_setting 'orthorhombic'
loop_
_space_group_symop_operation_xyz
x,y,z
-x,-y,z
1/2-x,y,z
1/2+x,-y,z
x,1/2+y,1/2+z
-x,1/2-y,1/2+z
1/2-x,1/2+y,1/2+z
1/2+x,1/2-y,1/2+z
loop_
_atom_site_type_symbol
_atom_site_label
_atom_site_fract_x
_atom_site_fract_y
_atom_site_fract_z
Si Si1 0.946962 0.106175 0.153630
Si Si2 0.446110 0.393031 0.539600
Si Si3 0.943361 0.782884 0.369330
Si Si4 0.057388 0.104637 0.701551
Si Si5 0.445009 0.392812 0.087098
Si Si6 0.553547 0.104747 0.923164
Si Si7 0.554316 0.717906 0.755425
Si Si8 0.444913 0.893704 0.471864
O O1 0.750000 0.109882 0.153428
O O2 0.003939 0.145490 0.096270
O O3 0.006071 0.157890 0.205881
O O4 0.000000 0.000000 0.156247
O O5 0.500000 0.500000 0.540525
O O6 0.250000 0.387695 0.539343
O O7 0.503320 0.361202 0.481726
O O8 0.750000 0.780905 0.366361
O O9 0.004854 0.678958 0.380731
O O10 0.006679 0.816998 0.313077
O O11 0.990805 0.841817 0.420531
O O12 0.250000 0.101849 0.705024
O O13 0.994246 0.177923 0.744232
O O14 0.014492 0.141931 0.642681
O O15 0.000000 0.000000 0.707649
O O16 0.500000 0.500000 0.086196
O O17 0.250000 0.388700 0.089826
O O18 0.500384 0.355062 0.029724
O O19 0.750000 0.105069 0.923463
O O20 0.500000 0.000000 0.914597
O O21 0.750000 0.718369 0.753040
O O22 0.250000 0.890650 0.471560
O O23 0.500000 0.000000 0.469262
#
# Coordination Sequence:
#
# PCOD9363856 Si02
#       8
#     8   8   8   8   8   8   8   8
#     4   9  18  34  56  80 105 135 170 210 261 317
#     4   8  14  28  51  78 106 132 164 208 258 317
#     4  11  24  39  56  80 109 145 190 235 277 325
#     4  10  20  35  57  82 110 146 183 226 279 331
#     4   9  17  31  54  84 114 142 175 219 272 331
#     4   9  19  35  56  82 110 141 176 218 270 324
#     4  10  23  40  55  75 106 146 189 229 272 323
#     4  10  21  38  60  85 114 147 182 225 278 334
#
# _framework density 21.225377000000002
#
# number of rings (size 3 to 8) (size 9 to 14) (size 15 to 20)
#    0.000    2.500    0.000    2.250    0.000    6.000 
#    0.000    6.250    0.000    6.000    0.000    0.000 
#    0.000    0.000    0.000    0.000    0.000    0.000 
#
# Total GULP energy -178506.107840 kJ/mol
# GULP energy per Si atom -5578.315870 kJ/mol
# Density = 2.117707 g / cm^3
# Si number density = 21.225377 Si / 1000 Ang^3
#
#
#
# Elastic Constant Matrix: (Units=GPa)
#
#
# Indices 1 2 3 4 5 6 
#
# 1 20.4966 -5.9909 -0.0971 0.0000 0.0000 0.0000
# 2 -5.9909 35.2121 5.5063 0.0000 0.0000 0.0000
# 3 -0.0971 5.5063 91.6185 0.0000 0.0000 0.0000
# 4 0.0000 0.0000 0.0000 56.7277 0.0000 0.0000
# 5 0.0000 0.0000 0.0000 0.0000 12.5926 0.0000
# 6 0.0000 0.0000 0.0000 0.0000 0.0000 15.4447
#
#
#
# Elastic Compliance Matrix: (Units=1/GPa)
#
#
# Indices 1 2 3 4 5 6 
#
# 1 0.051362 0.008813 -0.000475 0.000000 0.000000 0.000000
# 2 0.008813 0.030181 -0.001805 0.000000 0.000000 0.000000
# 3 -0.000475 -0.001805 0.011023 0.000000 0.000000 0.000000
# 4 0.000000 0.000000 0.000000 0.017628 0.000000 0.000000
# 5 0.000000 0.000000 0.000000 0.000000 0.079412 0.000000
# 6 0.000000 0.000000 0.000000 0.000000 0.000000 0.064747
#
#
# Mechanical properties :
#
#
# Convention : Reuss Voigt Hill
#
# Bulk Modulus (GPa) = 9.46678 16.24041 12.85359
# Shear Modulus (GPa) = 18.08338 26.81360 22.44849
#
# Velocity S-wave (km/s) = 2.92202 3.55812 3.25564
# Velocity P-wave (km/s) = 3.98172 4.95463 4.49457
#
# Compressibility (1/GPa) = 0.10563256
#
# Stress axis : x y z
#
# Youngs Moduli (GPa) = 19.46952 33.13348 90.72122
#
# Poissons Ratio (x) = -0.29201 0.04312
# Poissons Ratio (y) = -0.17159 0.16371
# Poissons Ratio (z) = 0.00925 0.05979
#
# Static dielectric constant tensor:
#      x y z
#    x 1.732950 0.000000 0.000000 
#    y 0.000000 1.682740 0.000000 
#    z 0.000000 0.000000 1.800860 
# 
# From -- ./inp_files/24259.got.cif
#   From: 2010.05.17/outbox.cif.g08.bks.cpg/sg40_13_cif.got.tgz:24259.got - 2010.06.03 18:35:42.
