data_PCOD9363456
_publ_section_title
;
Structure prediction by ZEFSAII (Michael W. Deem and Ramdas Pophale) SiO2 
 PCOD9363456
Probable space group: A M A 2
;
_chemical_formula_sum "Si O2"
_cell_formula_units_Z 64
_cell_length_a 8.243010
_cell_length_b 28.804819
_cell_length_c 12.754005
_cell_angle_alpha 90.000000
_cell_angle_beta 90.000000
_cell_angle_gamma 90.000000
_cell_volume 3028.290682
_symmetry_space_group_name_H-M "A M A 2"
_symmetry_group_IT_number 40
_symmetry_cell_setting 'orthorhombic'
loop_
_space_group_symop_operation_xyz
x,y,z
-x,-y,z
1/2-x,y,z
1/2+x,-y,z
x,1/2+y,1/2+z
-x,1/2-y,1/2+z
1/2-x,1/2+y,1/2+z
1/2+x,1/2-y,1/2+z
loop_
_atom_site_type_symbol
_atom_site_label
_atom_site_fract_x
_atom_site_fract_y
_atom_site_fract_z
Si Si1 0.064387 0.176810 0.983340
Si Si2 0.563761 0.049336 0.176228
Si Si3 0.555257 0.584508 0.231679
Si Si4 0.432989 0.066016 0.955794
Si Si5 0.550626 0.789691 0.211807
Si Si6 0.438228 0.310833 0.263132
Si Si7 0.055340 0.051413 0.505726
Si Si8 0.940929 0.377139 0.831812
O O1 0.250000 0.193780 0.968890
O O2 0.068789 0.121438 0.972989
O O3 0.954701 0.193722 0.888328
O O4 0.007122 0.190859 0.097876
O O5 0.750000 0.056069 0.204476
O O6 0.462527 0.090420 0.229402
O O7 0.500000 0.000000 0.215814
O O8 0.543260 0.048964 0.050724
O O9 0.750000 0.585269 0.238867
O O10 0.490713 0.559624 0.336732
O O11 0.493513 0.638445 0.233046
O O12 0.502213 0.561101 0.123982
O O13 0.250000 0.048138 0.969440
O O14 0.750000 0.789189 0.217452
O O15 0.490200 0.736985 0.220053
O O16 0.493406 0.826341 0.300275
O O17 0.250000 0.312109 0.231800
O O18 0.250000 0.052215 0.502842
O O19 0.992140 0.092184 0.428140
O O20 0.000000 0.000000 0.473235
O O21 0.750000 0.371103 0.852379
#
# Coordination Sequence:
#
# PCOD9363456 Si02
#       8
#     8   8   8   8   8   8   8   8
#     4   9  17  32  55  77 108 149 188 233 288 346
#     4  12  24  37  57  86 118 149 187 235 293 354
#     4  10  21  38  59  86 122 158 198 248 299 355
#     4  10  19  36  60  84 111 148 191 238 292 351
#     4   9  17  34  58  83 114 157 198 238 296 355
#     4   9  19  34  55  84 118 156 196 242 295 349
#     4  11  24  41  63  87 116 159 207 255 308 367
#     4  10  21  40  62  85 116 156 202 247 296 357
#
# _framework density 21.134035000000001
#
# number of rings (size 3 to 8) (size 9 to 14) (size 15 to 20)
#    0.000    2.000    1.250    2.625    0.000    4.500 
#    0.000    3.750    0.000    0.000    0.000    0.000 
#    0.000    0.000    0.000    0.000    0.000    0.000 
#
# Total GULP energy -178600.029717 kJ/mol
# GULP energy per Si atom -5581.250929 kJ/mol
# Density = 2.108593 g / cm^3
# Si number density = 21.134035 Si / 1000 Ang^3
#
#
#
# Elastic Constant Matrix: (Units=GPa)
#
#
# Indices 1 2 3 4 5 6 
#
# 1 25.9110 -1.2264 -4.4228 0.0000 0.0000 0.0000
# 2 -1.2264 67.2463 8.2488 0.0000 0.0000 0.0000
# 3 -4.4228 8.2488 86.4143 0.0000 0.0000 0.0000
# 4 0.0000 0.0000 0.0000 78.6711 0.0000 0.0000
# 5 0.0000 0.0000 0.0000 0.0000 23.3872 0.0000
# 6 0.0000 0.0000 0.0000 0.0000 0.0000 13.3324
#
#
#
# Elastic Compliance Matrix: (Units=1/GPa)
#
#
# Indices 1 2 3 4 5 6 
#
# 1 0.038949 0.000471 0.001948 0.000000 0.000000 0.000000
# 2 0.000471 0.015053 -0.001413 0.000000 0.000000 0.000000
# 3 0.001948 -0.001413 0.011807 0.000000 0.000000 0.000000
# 4 0.000000 0.000000 0.000000 0.012711 0.000000 0.000000
# 5 0.000000 0.000000 0.000000 0.000000 0.042759 0.000000
# 6 0.000000 0.000000 0.000000 0.000000 0.000000 0.075005
#
#
# Mechanical properties :
#
#
# Convention : Reuss Voigt Hill
#
# Bulk Modulus (GPa) = 14.74451 20.53010 17.63731
# Shear Modulus (GPa) = 23.05466 34.87628 28.96547
#
# Velocity S-wave (km/s) = 3.30643 4.06672 3.70612
# Velocity P-wave (km/s) = 4.64418 5.63794 5.16501
#
# Compressibility (1/GPa) = 0.06782184
#
# Stress axis : x y z
#
# Youngs Moduli (GPa) = 25.67492 66.43372 84.69744
#
# Poissons Ratio (x) = -0.03131 -0.16503
# Poissons Ratio (y) = -0.01210 0.11966
# Poissons Ratio (z) = -0.05003 0.09385
#
# Static dielectric constant tensor:
#      x y z
#    x 1.748050 0.000000 0.000000 
#    y 0.000000 1.787570 0.000000 
#    z 0.000000 0.000000 1.743520 
# 
# From -- ./inp_files/10589.got.cif
#   From: 2010.05.17/outbox.cif.g08.bks.cpg/sg40_6_cif.got.tgz:10589.got - 2010.06.03 18:35:42.
