data_PCOD9363197
_publ_section_title
;
Structure prediction by ZEFSAII (Michael W. Deem and Ramdas Pophale) SiO2 
 PCOD9363197
Probable space group: A M A 2
;
_chemical_formula_sum "Si O2"
_cell_formula_units_Z 56
_cell_length_a 8.708960
_cell_length_b 14.437334
_cell_length_c 23.313212
_cell_angle_alpha 90.000000
_cell_angle_beta 90.000000
_cell_angle_gamma 90.000000
_cell_volume 2931.267228
_symmetry_space_group_name_H-M "A M A 2"
_symmetry_group_IT_number 40
_symmetry_cell_setting 'orthorhombic'
loop_
_space_group_symop_operation_xyz
x,y,z
-x,-y,z
1/2-x,y,z
1/2+x,-y,z
x,1/2+y,1/2+z
-x,1/2-y,1/2+z
1/2-x,1/2+y,1/2+z
1/2+x,1/2-y,1/2+z
loop_
_atom_site_type_symbol
_atom_site_label
_atom_site_fract_x
_atom_site_fract_y
_atom_site_fract_z
Si Si1 0.936074 0.404732 0.107940
Si Si2 0.922446 0.858616 0.483742
Si Si3 0.933883 0.294311 0.639915
Si Si4 0.432573 0.094750 0.904892
Si Si5 0.435519 0.896321 0.251149
Si Si6 0.576133 0.144335 0.023011
Si Si7 0.565818 0.201229 0.369372
O O1 0.750000 0.402506 0.108479
O O2 0.000000 0.500000 0.133980
O O3 0.999569 0.310240 0.135296
O O4 0.990577 0.402611 0.041194
O O5 0.750000 0.894585 0.474559
O O6 0.912490 0.751179 0.502757
O O7 0.011239 0.858071 0.424161
O O8 0.750000 0.291568 0.638861
O O9 0.996779 0.342559 0.696783
O O10 0.995087 0.351194 0.584477
O O11 0.250000 0.091762 0.900782
O O12 0.487985 0.191908 0.877152
O O13 0.500000 0.000000 0.879699
O O14 0.481768 0.099037 0.971641
O O15 0.250000 0.897656 0.247850
O O16 0.482270 0.844117 0.309752
O O17 0.500000 0.000000 0.251961
O O18 0.750000 0.107110 0.027048
O O19 0.750000 0.203748 0.370741
#
# Coordination Sequence:
#
# PCOD9363197 Si02
#       7
#     8   8   8   8   8   8   8
#     4  10  20  35  56  86 120 155 190 230 278 334
#     4   8  16  30  51  78 110 144 180 221 269 319
#     4  11  22  38  59  84 113 149 189 235 285 336
#     4  10  19  33  54  84 116 149 185 225 274 332
#     4  11  24  43  62  82 107 141 186 237 286 338
#     4   9  17  32  53  79 110 146 182 223 271 323
#     4   9  20  37  57  79 110 148 186 229 279 330
#
# _framework density 19.104365999999999
#
# number of rings (size 3 to 8) (size 9 to 14) (size 15 to 20)
#    0.000    2.286    0.000    3.857    0.000    6.857 
#    0.000    6.429    0.000    1.714    0.000    0.000 
#    0.000    0.000    0.000    0.000    0.000    0.000 
#
# Total GULP energy -156189.677452 kJ/mol
# GULP energy per Si atom -5578.202766 kJ/mol
# Density = 1.906088 g / cm^3
# Si number density = 19.104366 Si / 1000 Ang^3
#
#
#
# Elastic Constant Matrix: (Units=GPa)
#
#
# Indices 1 2 3 4 5 6 
#
# 1 75.6951 34.2539 44.9155 0.0000 0.0000 0.0000
# 2 34.2539 123.8767 62.3646 0.0000 0.0000 0.0000
# 3 44.9155 62.3646 140.1034 0.0000 0.0000 0.0000
# 4 0.0000 0.0000 0.0000 17.6432 0.0000 0.0000
# 5 0.0000 0.0000 0.0000 0.0000 25.6911 0.0000
# 6 0.0000 0.0000 0.0000 0.0000 0.0000 -127.0007
#
#
#
# Elastic Compliance Matrix: (Units=1/GPa)
#
#
# Indices 1 2 3 4 5 6 
#
# 1 0.016898 -0.002507 -0.004301 0.000000 0.000000 0.000000
# 2 -0.002507 0.010776 -0.003993 0.000000 0.000000 0.000000
# 3 -0.004301 -0.003993 0.010294 0.000000 0.000000 0.000000
# 4 0.000000 0.000000 0.000000 0.056679 0.000000 0.000000
# 5 0.000000 0.000000 0.000000 0.000000 0.038924 0.000000
# 6 0.000000 0.000000 0.000000 0.000000 0.000000 -0.007874
#
#
# Mechanical properties :
#
#
# Convention : Reuss Voigt Hill
#
# Bulk Modulus (GPa) = 61.10604 69.19371 65.14988
# Shear Modulus (GPa) = 32.73231 -3.52387 14.60422
#
# Velocity S-wave (km/s) = 4.14374 -1.35961 2.76786
# Velocity P-wave (km/s) = 7.41276 5.81659 6.66264
#
# Compressibility (1/GPa) = 0.01636499
#
# Stress axis : x y z
#
# Youngs Moduli (GPa) = 59.17988 92.79844 97.14464
#
# Poissons Ratio (x) = 0.23265 0.41784
# Poissons Ratio (y) = 0.14837 0.38790
# Poissons Ratio (z) = 0.25454 0.37055
#
# Static dielectric constant tensor:
#      x y z
#    x 1.661990 0.000000 0.000000 
#    y 0.000000 1.702370 0.000000 
#    z 0.000000 0.000000 1.643410 
# 
# From -- ./inp_files/22181.got.cif
#   From: 2010.05.17/outbox.cif.g08.bks.cpg/sg40_12_cif.got.tgz:22181.got - 2010.06.03 18:35:42.
