data_PCOD9363173
_publ_section_title
;
Structure prediction by ZEFSAII (Michael W. Deem and Ramdas Pophale) SiO2 
 PCOD9363173
Probable space group: A M A 2
;
_chemical_formula_sum "Si O2"
_cell_formula_units_Z 48
_cell_length_a 9.115709
_cell_length_b 31.978647
_cell_length_c 9.061900
_cell_angle_alpha 90.000000
_cell_angle_beta 90.000000
_cell_angle_gamma 90.000000
_cell_volume 2641.616710
_symmetry_space_group_name_H-M "A M A 2"
_symmetry_group_IT_number 40
_symmetry_cell_setting 'orthorhombic'
loop_
_space_group_symop_operation_xyz
x,y,z
-x,-y,z
1/2-x,y,z
1/2+x,-y,z
x,1/2+y,1/2+z
-x,1/2-y,1/2+z
1/2-x,1/2+y,1/2+z
1/2+x,1/2-y,1/2+z
loop_
_atom_site_type_symbol
_atom_site_label
_atom_site_fract_x
_atom_site_fract_y
_atom_site_fract_z
Si Si1 0.927328 0.633176 0.643580
Si Si2 0.921460 0.287090 0.132604
Si Si3 0.075160 0.127283 0.462729
Si Si4 0.080004 0.957725 0.481042
Si Si5 0.418091 0.958587 0.120922
Si Si6 0.077625 0.709777 0.483075
O O1 0.750000 0.633367 0.655711
O O2 0.973333 0.587635 0.579605
O O3 0.998116 0.636417 0.805962
O O4 0.985703 0.671243 0.547521
O O5 0.750000 0.277082 0.101718
O O6 0.942153 0.287027 0.307745
O O7 0.021585 0.252301 0.057417
O O8 0.950073 0.333002 0.067104
O O9 0.250000 0.121762 0.441922
O O10 0.004969 0.084448 0.523317
O O11 0.250000 0.956612 0.525890
O O12 0.077528 0.958537 0.300812
O O13 0.000000 0.000000 0.531485
O O14 0.250000 0.961842 0.074917
O O15 0.500000 0.000000 0.069222
O O16 0.250000 0.703337 0.514397
#
# Coordination Sequence:
#
# PCOD9363173 Si02
#       6
#     8   8   8   8   8   8
#     4  10  20  34  52  78 110 140 175 218 262 311
#     4  10  23  40  56  78 107 136 171 216 263 316
#     4  10  19  33  54  79 108 142 178 218 265 312
#     4   9  16  27  45  73 107 141 178 220 263 307
#     4   8  15  26  43  69 101 134 167 207 251 295
#     4  11  23  38  57  79 103 135 174 215 262 315
#
# _framework density 18.17069
#
# number of rings (size 3 to 8) (size 9 to 14) (size 15 to 20)
#    0.000    2.333    0.000    4.000    0.000   10.000 
#    0.000    0.000    0.000    1.000    0.000    2.333 
#    0.000    0.000    0.000    0.000    0.000    0.000 
#
# Total GULP energy -133902.974017 kJ/mol
# GULP energy per Si atom -5579.290584 kJ/mol
# Density = 1.812933 g / cm^3
# Si number density = 18.170690 Si / 1000 Ang^3
#
#
#
# Elastic Constant Matrix: (Units=GPa)
#
#
# Indices 1 2 3 4 5 6 
#
# 1 107.9555 89.2008 38.9143 0.0000 0.0000 0.0000
# 2 89.2008 159.0691 40.1686 0.0000 0.0000 0.0000
# 3 38.9143 40.1686 30.0074 0.0000 0.0000 0.0000
# 4 0.0000 0.0000 0.0000 18.1430 0.0000 0.0000
# 5 0.0000 0.0000 0.0000 0.0000 5.5601 0.0000
# 6 0.0000 0.0000 0.0000 0.0000 0.0000 40.0751
#
#
#
# Elastic Compliance Matrix: (Units=1/GPa)
#
#
# Indices 1 2 3 4 5 6 
#
# 1 0.022516 -0.007935 -0.018577 0.000000 0.000000 0.000000
# 2 -0.007935 0.012293 -0.006166 0.000000 0.000000 0.000000
# 3 -0.018577 -0.006166 0.065670 0.000000 0.000000 0.000000
# 4 0.000000 0.000000 0.000000 0.055118 0.000000 0.000000
# 5 0.000000 0.000000 0.000000 0.000000 0.179851 0.000000
# 6 0.000000 0.000000 0.000000 0.000000 0.000000 0.024953
#
#
# Mechanical properties :
#
#
# Convention : Reuss Voigt Hill
#
# Bulk Modulus (GPa) = 28.47104 70.39994 49.43549
# Shear Modulus (GPa) = 11.42945 21.33886 16.38416
#
# Velocity S-wave (km/s) = 2.51072 3.43061 3.00606
# Velocity P-wave (km/s) = 4.90995 7.38376 6.27007
#
# Compressibility (1/GPa) = 0.03512341
#
# Stress axis : x y z
#
# Youngs Moduli (GPa) = 44.41242 81.34498 15.22759
#
# Poissons Ratio (x) = 0.64548 0.28289
# Poissons Ratio (y) = 0.35242 0.09389
# Poissons Ratio (z) = 0.82507 0.50154
#
# Static dielectric constant tensor:
#      x y z
#    x 1.616570 0.000000 0.000000 
#    y 0.000000 1.628100 0.000000 
#    z 0.000000 0.000000 1.603690 
# 
# From -- ./inp_files/4620.got.cif
#   From: 2010.05.17/outbox.cif.g08.bks.cpg/sg40_3_cif.got.tgz:4620.got - 2010.06.03 18:35:42.
