data_PCOD9363946
_publ_section_title
;
Structure prediction by ZEFSAII (Michael W. Deem and Ramdas Pophale) SiO2 
 PCOD9363946
Probable space group: A M A 2
;
_chemical_formula_sum "Si O2"
_cell_formula_units_Z 48
_cell_length_a 16.095228
_cell_length_b 25.347802
_cell_length_c 5.355031
_cell_angle_alpha 90.000000
_cell_angle_beta 90.000000
_cell_angle_gamma 90.000000
_cell_volume 2184.738331
_symmetry_space_group_name_H-M "A M A 2"
_symmetry_group_IT_number 40
_symmetry_cell_setting 'orthorhombic'
loop_
_space_group_symop_operation_xyz
x,y,z
-x,-y,z
1/2-x,y,z
1/2+x,-y,z
x,1/2+y,1/2+z
-x,1/2-y,1/2+z
1/2-x,1/2+y,1/2+z
1/2+x,1/2-y,1/2+z
loop_
_atom_site_type_symbol
_atom_site_label
_atom_site_fract_x
_atom_site_fract_y
_atom_site_fract_z
Si Si1 0.750000 0.386230 0.591671
Si Si2 0.439273 0.952513 0.161213
Si Si3 0.911340 0.775133 0.366724
Si Si4 0.951078 0.669144 0.147987
Si Si5 0.848046 0.569592 0.142386
Si Si6 0.426320 0.625691 0.533293
Si Si7 0.250000 0.679833 0.093779
O O1 0.657565 0.409567 0.543722
O O2 0.750000 0.343384 0.368476
O O3 0.750000 0.365523 0.877099
O O4 0.390931 0.962981 0.418352
O O5 0.501606 0.902422 0.193227
O O6 0.500000 0.000000 0.097157
O O7 0.381278 0.942433 0.920948
O O8 0.912493 0.712877 0.330452
O O9 0.900908 0.816814 0.138974
O O10 0.834315 0.788392 0.545599
O O11 0.002426 0.792653 0.456639
O O12 0.878793 0.629039 0.079990
O O13 0.026804 0.635713 0.272589
O O14 0.750000 0.563979 0.133192
#
# Coordination Sequence:
#
# PCOD9363946 Si02
#       7
#     4   8   8   8   8   8   4
#     4  10  20  36  56  84 118 158 204 268 322 378
#     4  11  24  46  75  98 133 178 227 283 350 411
#     4  11  20  36  57  90 123 174 220 268 320 399
#     4  11  21  35  63  88 132 179 222 265 333 403
#     4  11  25  46  70 103 140 177 225 285 341 411
#     4  10  21  38  59  89 126 168 213 274 331 390
#     4  10  22  34  56  82 122 158 214 264 314 372
#
# _framework density 21.970594999999999
#
# number of rings (size 3 to 8) (size 9 to 14) (size 15 to 20)
#    0.000    1.333    5.000    1.000    1.167    0.000 
#    3.000    0.000    1.833    0.000    0.000    0.000 
#    0.000    0.000    0.000    0.000    0.000    0.000 
#
# Total GULP energy -133785.492982 kJ/mol
# GULP energy per Si atom -5574.395541 kJ/mol
# Density = 2.192059 g / cm^3
# Si number density = 21.970595 Si / 1000 Ang^3
#
#
#
# Elastic Constant Matrix: (Units=GPa)
#
#
# Indices 1 2 3 4 5 6 
#
# 1 145.1840 3.3178 30.7413 0.0000 0.0000 0.0000
# 2 3.3178 29.4536 -9.4276 0.0000 0.0000 0.0000
# 3 30.7413 -9.4276 70.6433 0.0000 0.0000 0.0000
# 4 0.0000 0.0000 0.0000 15.0065 0.0000 0.0000
# 5 0.0000 0.0000 0.0000 0.0000 31.1927 0.0000
# 6 0.0000 0.0000 0.0000 0.0000 0.0000 15.2171
#
#
#
# Elastic Compliance Matrix: (Units=1/GPa)
#
#
# Indices 1 2 3 4 5 6 
#
# 1 0.007701 -0.002027 -0.003622 0.000000 0.000000 0.000000
# 2 -0.002027 0.036000 0.005686 0.000000 0.000000 0.000000
# 3 -0.003622 0.005686 0.016490 0.000000 0.000000 0.000000
# 4 0.000000 0.000000 0.000000 0.066638 0.000000 0.000000
# 5 0.000000 0.000000 0.000000 0.000000 0.032059 0.000000
# 6 0.000000 0.000000 0.000000 0.000000 0.000000 0.065716
#
#
# Mechanical properties :
#
#
# Convention : Reuss Voigt Hill
#
# Bulk Modulus (GPa) = 16.59268 32.72709 24.65989
# Shear Modulus (GPa) = 20.44008 26.99320 23.71664
#
# Velocity S-wave (km/s) = 3.05345 3.50895 3.28910
# Velocity P-wave (km/s) = 4.47214 5.59868 5.06681
#
# Compressibility (1/GPa) = 0.06026754
#
# Stress axis : x y z
#
# Youngs Moduli (GPa) = 129.85363 27.77765 60.64100
#
# Poissons Ratio (x) = 0.05630 0.21962
# Poissons Ratio (y) = 0.26318 -0.34482
# Poissons Ratio (z) = 0.47028 -0.15795
#
# Static dielectric constant tensor:
#      x y z
#    x 1.841200 0.000000 0.000000 
#    y 0.000000 1.845580 0.000000 
#    z 0.000000 0.000000 1.863930 
# 
# From -- ./inp_files/1367.got.cif
#   From: 2010.05.17/outbox.cif.g08.bks.cpg/sg40_1_cif.got.tgz:1367.got - 2010.06.03 18:35:42.
