data_PCOD9363053
_publ_section_title
;
Structure prediction by ZEFSAII (Michael W. Deem and Ramdas Pophale) SiO2 
 PCOD9363053
Probable space group: A M A 2
;
_chemical_formula_sum "Si O2"
_cell_formula_units_Z 64
_cell_length_a 8.776037
_cell_length_b 21.834228
_cell_length_c 16.144246
_cell_angle_alpha 90.000000
_cell_angle_beta 90.000000
_cell_angle_gamma 90.000000
_cell_volume 3093.528014
_symmetry_space_group_name_H-M "A M A 2"
_symmetry_group_IT_number 40
_symmetry_cell_setting 'orthorhombic'
loop_
_space_group_symop_operation_xyz
x,y,z
-x,-y,z
1/2-x,y,z
1/2+x,-y,z
x,1/2+y,1/2+z
-x,1/2-y,1/2+z
1/2-x,1/2+y,1/2+z
1/2+x,1/2-y,1/2+z
loop_
_atom_site_type_symbol
_atom_site_label
_atom_site_fract_x
_atom_site_fract_y
_atom_site_fract_z
Si Si1 0.432198 0.432100 0.322940
Si Si2 0.433016 0.698220 0.072791
Si Si3 0.567906 0.068653 0.009207
Si Si4 0.934433 0.316198 0.253228
Si Si5 0.568230 0.937242 0.512212
Si Si6 0.075447 0.894365 0.345698
Si Si7 0.424053 0.255392 0.911603
Si Si8 0.431689 0.068928 0.176113
O O1 0.500000 0.500000 0.315364
O O2 0.250000 0.434131 0.313726
O O3 0.466340 0.408052 0.416885
O O4 0.508966 0.385636 0.259608
O O5 0.250000 0.700108 0.069697
O O6 0.483344 0.713049 0.166100
O O7 0.478676 0.627235 0.054310
O O8 0.493541 0.740970 0.999568
O O9 0.750000 0.066583 0.019481
O O10 0.493698 0.098067 0.090457
O O11 0.500000 0.000000 0.007736
O O12 0.750000 0.314431 0.254931
O O13 0.992883 0.282694 0.335636
O O14 0.750000 0.940852 0.514746
O O15 0.511025 0.931090 0.417490
O O16 0.500000 0.000000 0.548195
O O17 0.250000 0.916429 0.337584
O O18 0.078973 0.824741 0.377263
O O19 0.992292 0.898470 0.258127
O O20 0.250000 0.234954 0.925149
O O21 0.250000 0.066023 0.174166
O O22 0.500000 0.000000 0.180691
#
# Coordination Sequence:
#
# PCOD9363053 Si02
#       8
#     8   8   8   8   8   8   8   8
#     4  10  21  37  59  87 117 152 189 233 286 344
#     4   9  20  38  60  84 116 153 191 238 290 343
#     4   9  17  31  49  71 103 141 181 224 274 328
#     4  10  21  40  63  88 118 153 192 238 292 348
#     4  10  19  32  51  78 110 146 186 230 282 342
#     4  10  19  33  51  73 105 146 189 236 286 340
#     4   9  20  39  61  82 111 150 192 240 291 339
#     4  11  20  30  47  73 106 145 188 235 286 340
#
# _framework density 20.688354
#
# number of rings (size 3 to 8) (size 9 to 14) (size 15 to 20)
#    0.000    2.250    0.000    3.750    0.000    4.000 
#    2.250    1.250    0.000    0.000    0.000    0.000 
#    0.000    0.000    0.000    0.000    0.000    0.000 
#
# Total GULP energy -178598.228360 kJ/mol
# GULP energy per Si atom -5581.194636 kJ/mol
# Density = 2.064127 g / cm^3
# Si number density = 20.688354 Si / 1000 Ang^3
#
#
#
# Elastic Constant Matrix: (Units=GPa)
#
#
# Indices 1 2 3 4 5 6 
#
# 1 49.5329 2.5407 33.0280 0.0000 0.0000 0.0000
# 2 2.5407 36.2733 29.4246 0.0000 0.0000 0.0000
# 3 33.0280 29.4246 150.2537 0.0000 0.0000 0.0000
# 4 0.0000 0.0000 0.0000 19.0910 0.0000 0.0000
# 5 0.0000 0.0000 0.0000 0.0000 22.3808 0.0000
# 6 0.0000 0.0000 0.0000 0.0000 0.0000 0.3778
#
#
#
# Elastic Compliance Matrix: (Units=1/GPa)
#
#
# Indices 1 2 3 4 5 6 
#
# 1 0.023942 0.003082 -0.005866 0.000000 0.000000 0.000000
# 2 0.003082 0.033172 -0.007174 0.000000 0.000000 0.000000
# 3 -0.005866 -0.007174 0.009350 0.000000 0.000000 0.000000
# 4 0.000000 0.000000 0.000000 0.052381 0.000000 0.000000
# 5 0.000000 0.000000 0.000000 0.000000 0.044681 0.000000
# 6 0.000000 0.000000 0.000000 0.000000 0.000000 2.646736
#
#
# Mechanical properties :
#
#
# Convention : Reuss Voigt Hill
#
# Bulk Modulus (GPa) = 21.48348 40.67182 31.07765
# Shear Modulus (GPa) = 1.75704 19.77437 10.76570
#
# Velocity S-wave (km/s) = 0.92257 3.09499 2.28365
# Velocity P-wave (km/s) = 3.39731 5.69859 4.69125
#
# Compressibility (1/GPa) = 0.04654739
#
# Stress axis : x y z
#
# Youngs Moduli (GPa) = 41.76733 30.14617 106.95499
#
# Poissons Ratio (x) = -0.09290 0.62744
# Poissons Ratio (y) = -0.12872 0.76724
# Poissons Ratio (z) = 0.24502 0.21625
#
# Static dielectric constant tensor:
#      x y z
#    x 1.701360 0.000000 0.000000 
#    y 0.000000 1.756990 0.000000 
#    z 0.000000 0.000000 1.773300 
# 
# From -- ./inp_files/15668.got.cif
#   From: 2010.05.17/outbox.cif.g08.bks.cpg/sg40_8_cif.got.tgz:15668.got - 2010.06.03 18:35:42.
