data_PCOD9363405
_publ_section_title
;
Structure prediction by ZEFSAII (Michael W. Deem and Ramdas Pophale) SiO2 
 PCOD9363405
Probable space group: A M A 2
;
_chemical_formula_sum "Si O2"
_cell_formula_units_Z 56
_cell_length_a 16.519368
_cell_length_b 21.064553
_cell_length_c 8.956514
_cell_angle_alpha 90.000000
_cell_angle_beta 90.000000
_cell_angle_gamma 90.000000
_cell_volume 3116.625967
_symmetry_space_group_name_H-M "A M A 2"
_symmetry_group_IT_number 40
_symmetry_cell_setting 'orthorhombic'
loop_
_space_group_symop_operation_xyz
x,y,z
-x,-y,z
1/2-x,y,z
1/2+x,-y,z
x,1/2+y,1/2+z
-x,1/2-y,1/2+z
1/2-x,1/2+y,1/2+z
1/2+x,1/2-y,1/2+z
loop_
_atom_site_type_symbol
_atom_site_label
_atom_site_fract_x
_atom_site_fract_y
_atom_site_fract_z
Si Si1 0.161243 0.277259 0.634290
Si Si2 0.657330 0.601544 0.827513
Si Si3 0.509395 0.381214 0.975928
Si Si4 0.901054 0.261076 0.828658
Si Si5 0.845423 0.351165 0.564453
Si Si6 0.917289 0.971961 0.231808
Si Si7 0.046510 0.672961 0.274880
O O1 0.250000 0.259545 0.691897
O O2 0.145701 0.348597 0.690947
O O3 0.158041 0.263006 0.458658
O O4 0.095885 0.231815 0.706721
O O5 0.750000 0.607844 0.880384
O O6 0.586968 0.616126 0.947667
O O7 0.639765 0.530906 0.769502
O O8 0.542865 0.316342 0.901423
O O9 0.549976 0.437634 0.881859
O O10 0.537948 0.379981 0.146756
O O11 0.862764 0.294071 0.682945
O O12 0.957637 0.201125 0.797918
O O13 0.750000 0.350987 0.526142
O O14 0.871040 0.417357 0.642144
O O15 0.905387 0.344616 0.423777
O O16 0.000000 0.000000 0.158317
#
# Coordination Sequence:
#
# PCOD9363405 Si02
#       7
#     8   8   8   8   8   8   8
#     4  10  20  34  55  84 114 143 178 226 287 340
#     4  10  19  35  60  84 111 146 191 240 286 338
#     4   9  19  36  55  82 108 150 190 228 277 344
#     4  10  20  34  56  82 116 147 182 224 285 346
#     4  11  22  37  59  88 116 150 195 243 288 337
#     4   9  20  37  61  82 110 152 200 235 282 342
#     4  11  21  35  57  82 116 148 187 234 286 341
#
# _framework density 17.968147999999999
#
# number of rings (size 3 to 8) (size 9 to 14) (size 15 to 20)
#    0.000    2.000    1.429    3.000    4.000    0.000 
#    0.000    5.000    0.000    0.000    0.000    0.000 
#    0.000    0.000    0.000    0.000    0.000    0.000 
#
# Total GULP energy -156040.819583 kJ/mol
# GULP energy per Si atom -5572.886414 kJ/mol
# Density = 1.792725 g / cm^3
# Si number density = 17.968148 Si / 1000 Ang^3
#
#
#
# Elastic Constant Matrix: (Units=GPa)
#
#
# Indices 1 2 3 4 5 6 
#
# 1 97.2115 34.3180 32.7231 0.0000 0.0000 0.0000
# 2 34.3180 79.5076 38.8277 0.0000 0.0000 0.0000
# 3 32.7231 38.8277 93.5413 0.0000 0.0000 0.0000
# 4 0.0000 0.0000 0.0000 10.7485 0.0000 0.0000
# 5 0.0000 0.0000 0.0000 0.0000 26.8718 0.0000
# 6 0.0000 0.0000 0.0000 0.0000 0.0000 11.1928
#
#
#
# Elastic Compliance Matrix: (Units=1/GPa)
#
#
# Indices 1 2 3 4 5 6 
#
# 1 0.012661 -0.004141 -0.002710 0.000000 0.000000 0.000000
# 2 -0.004141 0.017130 -0.005662 0.000000 0.000000 0.000000
# 3 -0.002710 -0.005662 0.013989 0.000000 0.000000 0.000000
# 4 0.000000 0.000000 0.000000 0.093036 0.000000 0.000000
# 5 0.000000 0.000000 0.000000 0.000000 0.037214 0.000000
# 6 0.000000 0.000000 0.000000 0.000000 0.000000 0.089343
#
#
# Mechanical properties :
#
#
# Convention : Reuss Voigt Hill
#
# Bulk Modulus (GPa) = 53.32407 53.55532 53.43970
# Shear Modulus (GPa) = 16.96927 20.72206 18.84567
#
# Velocity S-wave (km/s) = 3.07646 3.39966 3.24209
# Velocity P-wave (km/s) = 6.50852 6.72909 6.61973
#
# Compressibility (1/GPa) = 0.01875326
#
# Stress axis : x y z
#
# Youngs Moduli (GPa) = 78.98169 58.37768 71.48690
#
# Poissons Ratio (x) = 0.24177 0.19374
# Poissons Ratio (y) = 0.32710 0.40473
# Poissons Ratio (z) = 0.21405 0.33051
#
# Static dielectric constant tensor:
#      x y z
#    x 1.570520 0.000000 0.000000 
#    y 0.000000 1.605320 0.000000 
#    z 0.000000 0.000000 1.629000 
# 
# From -- ./inp_files/6703.got.cif
#   From: 2010.05.17/outbox.cif.g08.bks.cpg/sg40_4_cif.got.tgz:6703.got - 2010.06.03 18:35:42.
