data_PCOD9363347
_publ_section_title
;
Structure prediction by ZEFSAII (Michael W. Deem and Ramdas Pophale) SiO2 
 PCOD9363347
Probable space group: A M A 2
;
_chemical_formula_sum "Si O2"
_cell_formula_units_Z 64
_cell_length_a 16.900933
_cell_length_b 12.275299
_cell_length_c 16.674024
_cell_angle_alpha 90.000000
_cell_angle_beta 90.000000
_cell_angle_gamma 90.000000
_cell_volume 3459.259814
_symmetry_space_group_name_H-M "A M A 2"
_symmetry_group_IT_number 40
_symmetry_cell_setting 'orthorhombic'
loop_
_space_group_symop_operation_xyz
x,y,z
-x,-y,z
1/2-x,y,z
1/2+x,-y,z
x,1/2+y,1/2+z
-x,1/2-y,1/2+z
1/2-x,1/2+y,1/2+z
1/2+x,1/2-y,1/2+z
loop_
_atom_site_type_symbol
_atom_site_label
_atom_site_fract_x
_atom_site_fract_y
_atom_site_fract_z
Si Si1 0.419237 0.684229 0.041290
Si Si2 0.155189 0.837225 0.904790
Si Si3 0.344417 0.852578 0.153645
Si Si4 0.346165 0.985106 0.302828
Si Si5 0.654435 0.775275 0.240736
Si Si6 0.094629 0.014265 0.016869
Si Si7 0.158923 0.473535 0.986042
Si Si8 0.601703 0.239742 0.561074
O O1 0.383785 0.744359 0.119083
O O2 0.512197 0.704441 0.042211
O O3 0.381754 0.747211 0.964652
O O4 0.393398 0.559753 0.034432
O O5 0.250000 0.832700 0.913348
O O6 0.135299 0.806537 0.813568
O O7 0.124176 0.952720 0.937218
O O8 0.250000 0.839642 0.154275
O O9 0.372782 0.892888 0.240509
O O10 0.366316 0.948080 0.090549
O O11 0.250000 0.982644 0.302422
O O12 0.369204 0.103636 0.269710
O O13 0.370915 0.969684 0.394305
O O14 0.750000 0.775209 0.230253
O O15 0.615491 0.748193 0.156208
O O16 0.115742 0.140702 0.024098
O O17 0.000000 0.000000 0.023236
O O18 0.250000 0.513192 0.985338
O O19 0.155110 0.354473 0.023871
#
# Coordination Sequence:
#
# PCOD9363347 Si02
#       8
#     8   8   8   8   8   8   8   8
#     4  11  21  39  58  88 123 160 201 242 305 372
#     4  10  20  37  65  89 112 159 214 249 284 358
#     4  10  19  34  61  90 116 154 204 252 293 354
#     4   9  18  34  59  90 115 145 204 260 297 342
#     4  10  20  38  62  89 118 159 211 252 293 362
#     4  11  20  36  57  88 126 153 189 250 311 357
#     4  11  23  41  62  85 120 164 204 251 302 364
#     4  12  24  38  59  91 127 156 194 251 317 365
#
# _framework density 18.501068
#
# number of rings (size 3 to 8) (size 9 to 14) (size 15 to 20)
#    0.000    1.500    5.000    3.000    0.000    1.500 
#    2.250    3.750    0.000    3.000    0.000    0.000 
#    0.000    0.000    0.000    0.000    0.000    0.000 
#
# Total GULP energy -178698.290652 kJ/mol
# GULP energy per Si atom -5584.321583 kJ/mol
# Density = 1.845896 g / cm^3
# Si number density = 18.501068 Si / 1000 Ang^3
#
#
#
# Elastic Constant Matrix: (Units=GPa)
#
#
# Indices 1 2 3 4 5 6 
#
# 1 41.3939 3.1144 9.8529 0.0000 0.0000 0.0000
# 2 3.1144 108.4352 53.8101 0.0000 0.0000 0.0000
# 3 9.8529 53.8101 104.3494 0.0000 0.0000 0.0000
# 4 0.0000 0.0000 0.0000 31.5101 0.0000 0.0000
# 5 0.0000 0.0000 0.0000 0.0000 -9.8907 0.0000
# 6 0.0000 0.0000 0.0000 0.0000 0.0000 18.0759
#
#
#
# Elastic Compliance Matrix: (Units=1/GPa)
#
#
# Indices 1 2 3 4 5 6 
#
# 1 0.024743 0.000603 -0.002647 0.000000 0.000000 0.000000
# 2 0.000603 0.012408 -0.006456 0.000000 0.000000 0.000000
# 3 -0.002647 -0.006456 0.013162 0.000000 0.000000 0.000000
# 4 0.000000 0.000000 0.000000 0.031736 0.000000 0.000000
# 5 0.000000 0.000000 0.000000 0.000000 -0.101105 0.000000
# 6 0.000000 0.000000 0.000000 0.000000 0.000000 0.055322
#
#
# Mechanical properties :
#
#
# Convention : Reuss Voigt Hill
#
# Bulk Modulus (GPa) = 30.01766 43.08148 36.54957
# Shear Modulus (GPa) = 77.67555 20.43248 49.05401
#
# Velocity S-wave (km/s) = 6.48656 3.32685 5.15478
# Velocity P-wave (km/s) = 8.50651 6.17201 7.43150
#
# Compressibility (1/GPa) = 0.03331372
#
# Stress axis : x y z
#
# Youngs Moduli (GPa) = 40.41568 80.59129 75.97580
#
# Poissons Ratio (x) = -0.04860 0.20113
# Poissons Ratio (y) = -0.02437 0.49047
# Poissons Ratio (z) = 0.10699 0.52026
#
# Static dielectric constant tensor:
#      x y z
#    x 1.636030 0.000000 0.000000 
#    y 0.000000 1.635040 0.000000 
#    z 0.000000 0.000000 1.626680 
# 
# From -- ./inp_files/20817.got.cif
#   From: 2010.05.17/outbox.cif.g08.bks.cpg/sg40_11_cif.got.tgz:20817.got - 2010.06.03 18:35:42.
