data_PCOD9363920
_publ_section_title
;
Structure prediction by ZEFSAII (Michael W. Deem and Ramdas Pophale) SiO2 
 PCOD9363920
Probable space group: A M A 2
;
_chemical_formula_sum "Si O2"
_cell_formula_units_Z 48
_cell_length_a 22.740398
_cell_length_b 7.284186
_cell_length_c 12.865888
_cell_angle_alpha 90.000000
_cell_angle_beta 90.000000
_cell_angle_gamma 90.000000
_cell_volume 2131.173733
_symmetry_space_group_name_H-M "A M A 2"
_symmetry_group_IT_number 40
_symmetry_cell_setting 'orthorhombic'
loop_
_space_group_symop_operation_xyz
x,y,z
-x,-y,z
1/2-x,y,z
1/2+x,-y,z
x,1/2+y,1/2+z
-x,1/2-y,1/2+z
1/2-x,1/2+y,1/2+z
1/2+x,1/2-y,1/2+z
loop_
_atom_site_type_symbol
_atom_site_label
_atom_site_fract_x
_atom_site_fract_y
_atom_site_fract_z
Si Si1 0.750000 0.506154 0.843421
Si Si2 0.250000 0.898272 0.918346
Si Si3 0.500000 0.500000 0.380313
Si Si4 0.624880 0.014285 0.431144
Si Si5 0.376669 0.047477 0.656877
Si Si6 0.122468 0.415040 0.386316
Si Si7 0.959921 0.165730 0.250942
Si Si8 0.250000 0.233688 0.647256
O O1 0.750000 0.281617 0.841790
O O2 0.691501 0.564890 0.903511
O O3 0.750000 0.605483 0.732708
O O4 0.187358 0.997567 0.906402
O O5 0.250000 0.818455 0.033462
O O6 0.436416 0.502821 0.435079
O O7 0.500925 0.318792 0.308761
O O8 0.609592 0.057530 0.550217
O O9 0.623987 0.793247 0.423558
O O10 0.582461 0.090416 0.342482
O O11 0.419402 0.224119 0.669950
O O12 0.309274 0.115330 0.655997
O O13 0.384599 0.933743 0.762184
O O14 0.000000 0.000000 0.210958
#
# Coordination Sequence:
#
# PCOD9363920 Si02
#       8
#     4   4   4   8   8   8   8   4
#     4  10  20  35  68  93 127 172 214 278 342 404
#     4  10  21  40  65  89 131 180 221 281 340 409
#     4  10  22  42  68 100 136 180 228 278 344 406
#     4  11  21  44  67  95 132 178 224 279 348 401
#     4  11  23  40  68  98 129 176 228 279 340 415
#     4  10  21  41  66  92 133 174 223 284 333 402
#     4  11  23  44  68  94 141 181 224 289 340 403
#     4  12  19  37  67  94 130 174 221 273 354 403
#
# _framework density 22.522801999999999
#
# number of rings (size 3 to 8) (size 9 to 14) (size 15 to 20)
#    0.000    1.333    6.667    0.500    0.000    0.000 
#    7.500   10.000    0.000    0.000    0.000    0.000 
#    0.000    0.000    0.000    0.000    0.000    0.000 
#
# Total GULP energy -134055.321619 kJ/mol
# GULP energy per Si atom -5585.638401 kJ/mol
# Density = 2.247154 g / cm^3
# Si number density = 22.522802 Si / 1000 Ang^3
#
#
#
# Elastic Constant Matrix: (Units=GPa)
#
#
# Indices 1 2 3 4 5 6 
#
# 1 188.4727 13.3205 23.0661 0.0000 0.0000 0.0000
# 2 13.3205 53.2100 -5.1977 0.0000 0.0000 0.0000
# 3 23.0661 -5.1977 84.4719 0.0000 0.0000 0.0000
# 4 0.0000 0.0000 0.0000 33.1799 0.0000 0.0000
# 5 0.0000 0.0000 0.0000 0.0000 -5.3747 0.0000
# 6 0.0000 0.0000 0.0000 0.0000 0.0000 31.8904
#
#
#
# Elastic Compliance Matrix: (Units=1/GPa)
#
#
# Indices 1 2 3 4 5 6 
#
# 1 0.005616 -0.001565 -0.001630 0.000000 0.000000 0.000000
# 2 -0.001565 0.019343 0.001618 0.000000 0.000000 0.000000
# 3 -0.001630 0.001618 0.012383 0.000000 0.000000 0.000000
# 4 0.000000 0.000000 0.000000 0.030139 0.000000 0.000000
# 5 0.000000 0.000000 0.000000 0.000000 -0.186058 0.000000
# 6 0.000000 0.000000 0.000000 0.000000 0.000000 0.031357
#
#
# Mechanical properties :
#
#
# Convention : Reuss Voigt Hill
#
# Bulk Modulus (GPa) = 29.25055 43.17028 36.21041
# Shear Modulus (GPa) = -68.80468 31.60351 -18.60059
#
# Velocity S-wave (km/s) = -5.53310 3.74997 -2.87689
# Velocity P-wave (km/s) = 5.27305 6.16106 2.25318
#
# Compressibility (1/GPa) = 0.03418740
#
# Stress axis : x y z
#
# Youngs Moduli (GPa) = 178.06639 51.69762 80.75703
#
# Poissons Ratio (x) = 0.08091 0.13162
# Poissons Ratio (y) = 0.27869 -0.13063
# Poissons Ratio (z) = 0.29021 -0.08363
#
# Static dielectric constant tensor:
#      x y z
#    x 1.913510 0.000000 0.000000 
#    y 0.000000 1.845310 0.000000 
#    z 0.000000 0.000000 1.794540 
# 
# From -- ./inp_files/13960.got.cif
#   From: 2010.05.17/outbox.cif.g08.bks.cpg/sg40_7_cif.got.tgz:13960.got - 2010.06.03 18:35:42.
