data_PCOD9363967
_publ_section_title
;
Structure prediction by ZEFSAII (Michael W. Deem and Ramdas Pophale) SiO2 
 PCOD9363967
Probable space group: A M A 2
;
_chemical_formula_sum "Si O2"
_cell_formula_units_Z 56
_cell_length_a 8.090068
_cell_length_b 21.484582
_cell_length_c 14.600635
_cell_angle_alpha 90.000000
_cell_angle_beta 90.000000
_cell_angle_gamma 90.000000
_cell_volume 2537.761619
_symmetry_space_group_name_H-M "A M A 2"
_symmetry_group_IT_number 40
_symmetry_cell_setting 'orthorhombic'
loop_
_space_group_symop_operation_xyz
x,y,z
-x,-y,z
1/2-x,y,z
1/2+x,-y,z
x,1/2+y,1/2+z
-x,1/2-y,1/2+z
1/2-x,1/2+y,1/2+z
1/2+x,1/2-y,1/2+z
loop_
_atom_site_type_symbol
_atom_site_label
_atom_site_fract_x
_atom_site_fract_y
_atom_site_fract_z
Si Si1 0.442390 0.069312 0.572790
Si Si2 0.047821 0.248999 0.050515
Si Si3 0.445143 0.066346 0.847946
Si Si4 0.949099 0.393364 0.541101
Si Si5 0.946905 0.568429 0.741019
Si Si6 0.950684 0.645363 0.907951
Si Si7 0.436282 0.832861 0.710079
O O1 0.250000 0.077928 0.598371
O O2 0.473446 0.090853 0.469765
O O3 0.557378 0.113326 0.633323
O O4 0.500000 0.000000 0.585000
O O5 0.250000 0.251235 0.054067
O O6 0.994378 0.178351 0.039521
O O7 0.988414 0.276944 0.148801
O O8 0.998742 0.291965 0.963196
O O9 0.250000 0.062152 0.851731
O O10 0.484111 0.130524 0.794591
O O11 0.500000 0.000000 0.806067
O O12 0.515654 0.072603 0.950656
O O13 0.750000 0.392756 0.534634
O O14 0.993692 0.423215 0.637465
O O15 0.750000 0.569399 0.741000
O O16 0.002820 0.626292 0.805434
O O17 0.000000 0.500000 0.775278
O O18 0.750000 0.643913 0.911063
O O19 0.250000 0.815940 0.735870
#
# Coordination Sequence:
#
# PCOD9363967 Si02
#       7
#     8   8   8   8   8   8   8
#     4  11  20  31  50  78 112 147 185 229 279 336
#     4   8  17  37  61  85 115 151 186 224 281 343
#     4  11  23  38  58  84 114 149 192 239 286 336
#     4  10  22  40  61  83 113 153 193 236 283 336
#     4  11  23  38  59  86 116 151 192 239 286 336
#     4   9  19  36  57  82 113 148 185 228 281 338
#     4  10  20  36  58  82 113 149 185 229 281 339
#
# _framework density 22.066690999999999
#
# number of rings (size 3 to 8) (size 9 to 14) (size 15 to 20)
#    0.000    2.000    0.000    4.714    0.000    5.714 
#    0.000    5.000    0.000    0.000    0.000    0.000 
#    0.000    0.000    0.000    0.000    0.000    0.000 
#
# Total GULP energy -156193.346766 kJ/mol
# GULP energy per Si atom -5578.333813 kJ/mol
# Density = 2.201647 g / cm^3
# Si number density = 22.066691 Si / 1000 Ang^3
#
#
#
# Elastic Constant Matrix: (Units=GPa)
#
#
# Indices 1 2 3 4 5 6 
#
# 1 33.4100 1.0073 4.6996 0.0000 0.0000 0.0000
# 2 1.0073 97.4278 16.2201 0.0000 0.0000 0.0000
# 3 4.6996 16.2201 94.7562 0.0000 0.0000 0.0000
# 4 0.0000 0.0000 0.0000 26.8302 0.0000 0.0000
# 5 0.0000 0.0000 0.0000 0.0000 8.9445 0.0000
# 6 0.0000 0.0000 0.0000 0.0000 0.0000 9.6353
#
#
#
# Elastic Compliance Matrix: (Units=1/GPa)
#
#
# Indices 1 2 3 4 5 6 
#
# 1 0.030142 -0.000065 -0.001484 0.000000 0.000000 0.000000
# 2 -0.000065 0.010565 -0.001805 0.000000 0.000000 0.000000
# 3 -0.001484 -0.001805 0.010936 0.000000 0.000000 0.000000
# 4 0.000000 0.000000 0.000000 0.037271 0.000000 0.000000
# 5 0.000000 0.000000 0.000000 0.000000 0.111801 0.000000
# 6 0.000000 0.000000 0.000000 0.000000 0.000000 0.103785
#
#
# Mechanical properties :
#
#
# Convention : Reuss Voigt Hill
#
# Bulk Modulus (GPa) = 22.25409 29.93864 26.09637
# Shear Modulus (GPa) = 15.32864 22.65980 18.99422
#
# Velocity S-wave (km/s) = 2.63848 3.20797 2.93706
# Velocity P-wave (km/s) = 4.40329 5.22668 4.83255
#
# Compressibility (1/GPa) = 0.04493556
#
# Stress axis : x y z
#
# Youngs Moduli (GPa) = 33.17646 94.65000 91.44091
#
# Poissons Ratio (x) = 0.00611 0.13569
# Poissons Ratio (y) = 0.00214 0.16508
# Poissons Ratio (z) = 0.04923 0.17087
#
# Static dielectric constant tensor:
#      x y z
#    x 1.822750 0.000000 0.000000 
#    y 0.000000 1.813050 0.000000 
#    z 0.000000 0.000000 1.874570 
# 
# From -- ./inp_files/15297.got.cif
#   From: 2010.05.17/outbox.cif.g08.bks.cpg/sg40_8_cif.got.tgz:15297.got - 2010.06.03 18:35:42.
