data_PCOD9363929
_publ_section_title
;
Structure prediction by ZEFSAII (Michael W. Deem and Ramdas Pophale) SiO2 
 PCOD9363929
Probable space group: A M A 2
;
_chemical_formula_sum "Si O2"
_cell_formula_units_Z 40
_cell_length_a 7.440767
_cell_length_b 28.947765
_cell_length_c 8.101840
_cell_angle_alpha 90.000000
_cell_angle_beta 90.000000
_cell_angle_gamma 90.000000
_cell_volume 1745.084278
_symmetry_space_group_name_H-M "A M A 2"
_symmetry_group_IT_number 40
_symmetry_cell_setting 'orthorhombic'
loop_
_space_group_symop_operation_xyz
x,y,z
-x,-y,z
1/2-x,y,z
1/2+x,-y,z
x,1/2+y,1/2+z
-x,1/2-y,1/2+z
1/2-x,1/2+y,1/2+z
1/2+x,1/2-y,1/2+z
loop_
_atom_site_type_symbol
_atom_site_label
_atom_site_fract_x
_atom_site_fract_y
_atom_site_fract_z
Si Si1 0.529390 0.113919 0.006150
Si Si2 0.966606 0.208354 0.150472
Si Si3 0.535121 0.053301 0.315408
Si Si4 0.953905 0.592604 0.152923
Si Si5 0.960977 0.307637 0.032924
O O1 0.750000 0.113625 0.001896
O O2 0.473940 0.167272 0.029127
O O3 0.470143 0.085614 0.166932
O O4 0.465194 0.091597 0.835468
O O5 0.750000 0.209919 0.141108
O O6 0.017009 0.194839 0.335968
O O7 0.032544 0.259322 0.104845
O O8 0.750000 0.061026 0.322754
O O9 0.461716 0.067109 0.495690
O O10 0.500000 0.000000 0.280194
O O11 0.750000 0.574701 0.168731
O O12 0.949397 0.646599 0.103318
O O13 0.750000 0.311336 0.072195
#
# Coordination Sequence:
#
# PCOD9363929 Si02
#       5
#     8   8   8   8   8
#     4   9  18  36  60  83 108 150 199 229 277 353
#     4  10  20  36  55  79 116 155 192 234 283 346
#     4  10  21  38  60  85 113 152 196 240 291 344
#     4  10  20  38  62  82 114 158 191 232 290 351
#     4  11  22  34  55  87 118 150 194 243 285 335
#
# _framework density 22.921527999999999
#
# number of rings (size 3 to 8) (size 9 to 14) (size 15 to 20)
#    0.000    2.000    2.000    1.800    0.000    4.800 
#    0.000    2.000    0.000    0.000    0.000    0.000 
#    0.000    0.000    0.000    0.000    0.000    0.000 
#
# Total GULP energy -111803.491562 kJ/mol
# GULP energy per Si atom -5590.174578 kJ/mol
# Density = 2.286936 g / cm^3
# Si number density = 22.921528 Si / 1000 Ang^3
#
#
#
# Elastic Constant Matrix: (Units=GPa)
#
#
# Indices 1 2 3 4 5 6 
#
# 1 77.7124 -9.6931 -7.8877 0.0000 0.0000 0.0000
# 2 -9.6931 70.6132 -9.6632 0.0000 0.0000 0.0000
# 3 -7.8877 -9.6632 91.7821 0.0000 0.0000 0.0000
# 4 0.0000 0.0000 0.0000 31.9565 0.0000 0.0000
# 5 0.0000 0.0000 0.0000 0.0000 5.0232 0.0000
# 6 0.0000 0.0000 0.0000 0.0000 0.0000 21.4629
#
#
#
# Elastic Compliance Matrix: (Units=1/GPa)
#
#
# Indices 1 2 3 4 5 6 
#
# 1 0.013255 0.002004 0.001350 0.000000 0.000000 0.000000
# 2 0.002004 0.014672 0.001717 0.000000 0.000000 0.000000
# 3 0.001350 0.001717 0.011192 0.000000 0.000000 0.000000
# 4 0.000000 0.000000 0.000000 0.031292 0.000000 0.000000
# 5 0.000000 0.000000 0.000000 0.000000 0.199077 0.000000
# 6 0.000000 0.000000 0.000000 0.000000 0.000000 0.046592
#
#
# Mechanical properties :
#
#
# Convention : Reuss Voigt Hill
#
# Bulk Modulus (GPa) = 20.29975 20.62439 20.46207
# Shear Modulus (GPa) = 15.51068 29.51197 22.51133
#
# Velocity S-wave (km/s) = 2.60414 3.59210 3.13725
# Velocity P-wave (km/s) = 4.23291 5.12070 4.69782
#
# Compressibility (1/GPa) = 0.04926170
#
# Stress axis : x y z
#
# Youngs Moduli (GPa) = 75.44326 68.15820 89.34814
#
# Poissons Ratio (x) = -0.13661 -0.12063
# Poissons Ratio (y) = -0.15121 -0.15341
# Poissons Ratio (z) = -0.10186 -0.11702
#
# Static dielectric constant tensor:
#      x y z
#    x 1.847220 0.000000 0.000000 
#    y 0.000000 1.803680 0.000000 
#    z 0.000000 0.000000 1.842570 
# 
# From -- ./inp_files/4222.got.cif
#   From: 2010.05.17/outbox.cif.g08.bks.cpg/sg40_3_cif.got.tgz:4222.got - 2010.06.03 18:35:42.
