data_PCOD9363799
_publ_section_title
;
Structure prediction by ZEFSAII (Michael W. Deem and Ramdas Pophale) SiO2 
 PCOD9363799
Probable space group: A M A 2
;
_chemical_formula_sum "Si O2"
_cell_formula_units_Z 60
_cell_length_a 34.520720
_cell_length_b 5.066868
_cell_length_c 17.974799
_cell_angle_alpha 90.000000
_cell_angle_beta 90.000000
_cell_angle_gamma 90.000000
_cell_volume 3144.006812
_symmetry_space_group_name_H-M "A M A 2"
_symmetry_group_IT_number 40
_symmetry_cell_setting 'orthorhombic'
loop_
_space_group_symop_operation_xyz
x,y,z
-x,-y,z
1/2-x,y,z
1/2+x,-y,z
x,1/2+y,1/2+z
-x,1/2-y,1/2+z
1/2-x,1/2+y,1/2+z
1/2+x,1/2-y,1/2+z
loop_
_atom_site_type_symbol
_atom_site_label
_atom_site_fract_x
_atom_site_fract_y
_atom_site_fract_z
Si Si1 0.636502 0.626835 0.716160
Si Si2 0.294374 0.342169 0.831584
Si Si3 0.000000 0.500000 0.497938
Si Si4 0.926813 0.202479 0.506699
Si Si5 0.396028 0.880271 0.788227
Si Si6 0.375560 0.792882 0.045654
Si Si7 0.039563 0.118035 0.378812
Si Si8 0.672492 0.152283 0.906016
O O1 0.676096 0.676951 0.761973
O O2 0.621619 0.331959 0.731007
O O3 0.639264 0.675883 0.629110
O O4 0.606090 0.832229 0.752581
O O5 0.250000 0.302532 0.809956
O O6 0.301309 0.627309 0.867365
O O7 0.307167 0.127250 0.893052
O O8 0.031464 0.691438 0.536853
O O9 0.025759 0.311944 0.445150
O O10 0.897767 0.444541 0.517920
O O11 0.905944 0.949121 0.542177
O O12 0.935601 0.108730 0.421441
O O13 0.436528 0.777190 0.818596
O O14 0.367296 0.865778 0.858841
O O15 0.340390 0.761422 0.987799
O O16 0.000000 0.000000 0.347346
#
# Coordination Sequence:
#
# PCOD9363799 Si02
#       8
#     8   8   4   8   8   8   8   8
#     4  10  24  38  61  85 120 160 195 232 298 371
#     4  10  21  40  61  90 122 155 191 243 298 356
#     4  10  20  36  54  96 108 154 204 258 322 340
#     4  11  21  34  60  85 119 150 199 266 295 354
#     4  10  20  38  58  85 115 151 202 247 287 349
#     4  12  22  38  60  90 119 156 202 248 297 352
#     4  10  21  33  61  90 115 152 206 261 306 343
#     4  10  20  34  64  90 112 150 201 248 285 344
#
# _framework density 19.083929000000001
#
# number of rings (size 3 to 8) (size 9 to 14) (size 15 to 20)
#    0.000    1.600    2.667    2.000    7.467    0.000 
#    0.000    1.333    8.800    0.000    0.000    0.000 
#    0.000    0.000    0.000    0.000    0.000    0.000 
#
# Total GULP energy -167462.449722 kJ/mol
# GULP energy per Si atom -5582.081657 kJ/mol
# Density = 1.904049 g / cm^3
# Si number density = 19.083929 Si / 1000 Ang^3
#
#
#
# Elastic Constant Matrix: (Units=GPa)
#
#
# Indices 1 2 3 4 5 6 
#
# 1 78.5833 9.3878 21.8768 0.0000 0.0000 0.0000
# 2 9.3878 83.7253 -1.0052 0.0000 0.0000 0.0000
# 3 21.8768 -1.0052 75.7622 0.0000 0.0000 0.0000
# 4 0.0000 0.0000 0.0000 12.5350 0.0000 0.0000
# 5 0.0000 0.0000 0.0000 0.0000 11.9801 0.0000
# 6 0.0000 0.0000 0.0000 0.0000 0.0000 20.5362
#
#
#
# Elastic Compliance Matrix: (Units=1/GPa)
#
#
# Indices 1 2 3 4 5 6 
#
# 1 0.014055 -0.001625 -0.004080 0.000000 0.000000 0.000000
# 2 -0.001625 0.012134 0.000630 0.000000 0.000000 0.000000
# 3 -0.004080 0.000630 0.014386 0.000000 0.000000 0.000000
# 4 0.000000 0.000000 0.000000 0.079777 0.000000 0.000000
# 5 0.000000 0.000000 0.000000 0.000000 0.083472 0.000000
# 6 0.000000 0.000000 0.000000 0.000000 0.000000 0.048695
#
#
# Mechanical properties :
#
#
# Convention : Reuss Voigt Hill
#
# Bulk Modulus (GPa) = 32.86784 33.17662 33.02223
# Shear Modulus (GPa) = 18.32785 22.86435 20.59610
#
# Velocity S-wave (km/s) = 3.10236 3.46511 3.28874
# Velocity P-wave (km/s) = 5.48571 5.78201 5.63581
#
# Compressibility (1/GPa) = 0.03042488
#
# Stress axis : x y z
#
# Youngs Moduli (GPa) = 71.14735 82.41584 69.51345
#
# Poissons Ratio (x) = 0.13392 0.28362
# Poissons Ratio (y) = 0.11561 -0.04381
# Poissons Ratio (z) = 0.29029 -0.05194
#
# Static dielectric constant tensor:
#      x y z
#    x 1.672750 0.000000 0.000000 
#    y 0.000000 1.705830 0.000000 
#    z 0.000000 0.000000 1.648600 
# 
# From -- ./inp_files/21647.got.cif
#   From: 2010.05.17/outbox.cif.g08.bks.cpg/sg40_11_cif.got.tgz:21647.got - 2010.06.03 18:35:42.
