data_PCOD9363985
_publ_section_title
;
Structure prediction by ZEFSAII (Michael W. Deem and Ramdas Pophale) SiO2 
 PCOD9363985
Probable space group: A M A 2
;
_chemical_formula_sum "Si O2"
_cell_formula_units_Z 64
_cell_length_a 8.873016
_cell_length_b 25.365356
_cell_length_c 15.103536
_cell_angle_alpha 90.000000
_cell_angle_beta 90.000000
_cell_angle_gamma 90.000000
_cell_volume 3399.310703
_symmetry_space_group_name_H-M "A M A 2"
_symmetry_group_IT_number 40
_symmetry_cell_setting 'orthorhombic'
loop_
_space_group_symop_operation_xyz
x,y,z
-x,-y,z
1/2-x,y,z
1/2+x,-y,z
x,1/2+y,1/2+z
-x,1/2-y,1/2+z
1/2-x,1/2+y,1/2+z
1/2+x,1/2-y,1/2+z
loop_
_atom_site_type_symbol
_atom_site_label
_atom_site_fract_x
_atom_site_fract_y
_atom_site_fract_z
Si Si1 0.570068 0.942925 0.283750
Si Si2 0.070699 0.942094 0.921194
Si Si3 0.427247 0.107922 0.094786
Si Si4 0.069458 0.664389 0.086937
Si Si5 0.924755 0.715927 0.577195
Si Si6 0.929715 0.151394 0.396636
Si Si7 0.929670 0.864895 0.779182
Si Si8 0.073465 0.763578 0.866585
O O1 0.750000 0.943749 0.297413
O O2 0.541724 0.926392 0.181785
O O3 0.496186 0.898072 0.344229
O O4 0.500000 0.000000 0.301398
O O5 0.250000 0.944993 0.918366
O O6 0.009738 0.908463 0.838767
O O7 0.000000 0.000000 0.920586
O O8 0.019372 0.913047 0.011012
O O9 0.250000 0.104908 0.074386
O O10 0.474312 0.168382 0.111176
O O11 0.250000 0.663378 0.068005
O O12 0.032598 0.725587 0.108298
O O13 0.038588 0.630935 0.174551
O O14 0.981501 0.648351 0.999139
O O15 0.750000 0.705894 0.600656
O O16 0.935346 0.719470 0.470229
O O17 0.750000 0.153113 0.389977
O O18 0.999572 0.206035 0.359837
O O19 0.750000 0.867752 0.791865
O O20 0.987951 0.808162 0.812148
O O21 0.250000 0.761299 0.842914
#
# Coordination Sequence:
#
# PCOD9363985 Si02
#       8
#     8   8   8   8   8   8   8   8
#     4  11  25  44  64  90 121 158 205 258 310 366
#     4  12  25  42  63  88 123 166 206 255 306 362
#     4  11  23  38  60  91 124 161 203 250 303 367
#     4   9  21  40  61  88 126 164 202 254 309 362
#     4   9  18  34  56  85 122 163 200 241 298 357
#     4  11  23  40  64  91 121 161 206 255 308 366
#     4  11  22  38  62  93 125 162 206 252 304 365
#     4  10  20  36  58  88 125 163 200 247 301 357
#
# _framework density 18.827345000000001
#
# number of rings (size 3 to 8) (size 9 to 14) (size 15 to 20)
#    0.000    1.500    1.250    4.875    1.750    6.000 
#    0.000    0.625    0.000    3.000    0.000    0.000 
#    0.000    0.000    0.000    0.000    0.000    0.000 
#
# Total GULP energy -178928.713998 kJ/mol
# GULP energy per Si atom -5591.522312 kJ/mol
# Density = 1.878449 g / cm^3
# Si number density = 18.827345 Si / 1000 Ang^3
#
#
#
# Elastic Constant Matrix: (Units=GPa)
#
#
# Indices 1 2 3 4 5 6 
#
# 1 105.1803 53.0710 45.0280 0.0000 0.0000 0.0000
# 2 53.0710 101.5656 32.8521 0.0000 0.0000 0.0000
# 3 45.0280 32.8521 53.0931 0.0000 0.0000 0.0000
# 4 0.0000 0.0000 0.0000 22.6335 0.0000 0.0000
# 5 0.0000 0.0000 0.0000 0.0000 53.0687 0.0000
# 6 0.0000 0.0000 0.0000 0.0000 0.0000 36.3930
#
#
#
# Elastic Compliance Matrix: (Units=1/GPa)
#
#
# Indices 1 2 3 4 5 6 
#
# 1 0.016901 -0.005245 -0.011088 0.000000 0.000000 0.000000
# 2 -0.005245 0.013937 -0.004176 0.000000 0.000000 0.000000
# 3 -0.011088 -0.004176 0.030823 0.000000 0.000000 0.000000
# 4 0.000000 0.000000 0.000000 0.044182 0.000000 0.000000
# 5 0.000000 0.000000 0.000000 0.000000 0.018843 0.000000
# 6 0.000000 0.000000 0.000000 0.000000 0.000000 0.027478
#
#
# Mechanical properties :
#
#
# Convention : Reuss Voigt Hill
#
# Bulk Modulus (GPa) = 48.44255 57.97123 53.20689
# Shear Modulus (GPa) = 24.99226 31.01157 28.00192
#
# Velocity S-wave (km/s) = 3.64736 4.06292 3.86074
# Velocity P-wave (km/s) = 6.59723 7.27101 6.94230
#
# Compressibility (1/GPa) = 0.02064301
#
# Stress axis : x y z
#
# Youngs Moduli (GPa) = 59.16947 71.75154 32.44372
#
# Poissons Ratio (x) = 0.37630 0.35974
# Poissons Ratio (y) = 0.31031 0.13548
# Poissons Ratio (z) = 0.65608 0.29963
#
# Static dielectric constant tensor:
#      x y z
#    x 1.621170 0.000000 0.000000 
#    y 0.000000 1.629490 0.000000 
#    z 0.000000 0.000000 1.659850 
# 
# From -- ./inp_files/15574.got.cif
#   From: 2010.05.17/outbox.cif.g08.bks.cpg/sg40_8_cif.got.tgz:15574.got - 2010.06.03 18:35:42.
