data_PCOD9363849
_publ_section_title
;
Structure prediction by ZEFSAII (Michael W. Deem and Ramdas Pophale) SiO2 
 PCOD9363849
Probable space group: A M A 2
;
_chemical_formula_sum "Si O2"
_cell_formula_units_Z 64
_cell_length_a 8.293559
_cell_length_b 16.679665
_cell_length_c 23.161468
_cell_angle_alpha 90.000000
_cell_angle_beta 90.000000
_cell_angle_gamma 90.000000
_cell_volume 3204.013553
_symmetry_space_group_name_H-M "A M A 2"
_symmetry_group_IT_number 40
_symmetry_cell_setting 'orthorhombic'
loop_
_space_group_symop_operation_xyz
x,y,z
-x,-y,z
1/2-x,y,z
1/2+x,-y,z
x,1/2+y,1/2+z
-x,1/2-y,1/2+z
1/2-x,1/2+y,1/2+z
1/2+x,1/2-y,1/2+z
loop_
_atom_site_type_symbol
_atom_site_label
_atom_site_fract_x
_atom_site_fract_y
_atom_site_fract_z
Si Si1 0.937784 0.704703 0.934250
Si Si2 0.944459 0.584392 0.025862
Si Si3 0.556281 0.087959 0.658386
Si Si4 0.556570 0.912064 0.101162
Si Si5 0.942814 0.743640 0.811332
Si Si6 0.563575 0.084323 0.844266
Si Si7 0.443719 0.268497 0.685391
Si Si8 0.936723 0.888824 0.969219
O O1 0.750000 0.679611 0.927717
O O2 0.011113 0.705738 0.870319
O O3 0.934508 0.793703 0.959552
O O4 0.012849 0.650397 0.983190
O O5 0.750000 0.589913 0.028847
O O6 0.001167 0.589955 0.091556
O O7 0.000000 0.500000 0.002025
O O8 0.750000 0.088105 0.661997
O O9 0.497129 0.175131 0.679805
O O10 0.500000 0.000000 0.681350
O O11 0.750000 0.910704 0.099901
O O12 0.503060 0.834425 0.138711
O O13 0.500000 0.000000 0.123033
O O14 0.501590 0.906122 0.033693
O O15 0.750000 0.733483 0.812246
O O16 0.001222 0.709935 0.750424
O O17 0.974003 0.838713 0.818534
O O18 0.750000 0.093373 0.831006
O O19 0.536436 0.082931 0.913684
O O20 0.500000 0.000000 0.821525
O O21 0.250000 0.269782 0.683137
O O22 0.750000 0.917338 0.964022
#
# Coordination Sequence:
#
# PCOD9363849 Si02
#       8
#     8   8   8   8   8   8   8   8
#     4   8  14  30  54  75  99 133 170 209 260 321
#     4   9  17  30  50  76 104 133 166 208 262 321
#     4  10  20  35  56  84 116 148 183 225 278 340
#     4  11  23  39  60  85 114 150 192 238 288 342
#     4   9  20  38  56  74 101 140 184 226 271 325
#     4  11  21  33  53  81 112 143 175 216 268 328
#     4  11  23  39  59  82 111 150 194 240 288 336
#     4   9  18  34  56  81 109 141 177 220 274 335
#
# _framework density 19.974948000000001
#
# number of rings (size 3 to 8) (size 9 to 14) (size 15 to 20)
#    0.000    2.250    0.000    4.125    0.000    6.000 
#    0.000    3.125    0.000    1.500    0.000    0.000 
#    0.000    0.000    0.000    0.000    0.000    0.000 
#
# Total GULP energy -178326.324170 kJ/mol
# GULP energy per Si atom -5572.697630 kJ/mol
# Density = 1.992948 g / cm^3
# Si number density = 19.974948 Si / 1000 Ang^3
#
#
#
# Elastic Constant Matrix: (Units=GPa)
#
#
# Indices 1 2 3 4 5 6 
#
# 1 23.5716 12.5366 7.3161 0.0000 0.0000 0.0000
# 2 12.5366 66.8390 41.4656 0.0000 0.0000 0.0000
# 3 7.3161 41.4656 105.7643 0.0000 0.0000 0.0000
# 4 0.0000 0.0000 0.0000 30.5337 0.0000 0.0000
# 5 0.0000 0.0000 0.0000 0.0000 11.8984 0.0000
# 6 0.0000 0.0000 0.0000 0.0000 0.0000 28.0568
#
#
#
# Elastic Compliance Matrix: (Units=1/GPa)
#
#
# Indices 1 2 3 4 5 6 
#
# 1 0.047131 -0.009009 0.000272 0.000000 0.000000 0.000000
# 2 -0.009009 0.021492 -0.007803 0.000000 0.000000 0.000000
# 3 0.000272 -0.007803 0.012495 0.000000 0.000000 0.000000
# 4 0.000000 0.000000 0.000000 0.032751 0.000000 0.000000
# 5 0.000000 0.000000 0.000000 0.000000 0.084045 0.000000
# 6 0.000000 0.000000 0.000000 0.000000 0.000000 0.035642
#
#
# Mechanical properties :
#
#
# Convention : Reuss Voigt Hill
#
# Bulk Modulus (GPa) = 20.81668 35.42351 28.12009
# Shear Modulus (GPa) = 17.68986 23.08823 20.38905
#
# Velocity S-wave (km/s) = 2.97914 3.40348 3.19835
# Velocity P-wave (km/s) = 4.71992 5.76345 5.26759
#
# Compressibility (1/GPa) = 0.04803841
#
# Stress axis : x y z
#
# Youngs Moduli (GPa) = 21.21751 46.52950 80.02979
#
# Poissons Ratio (x) = 0.41917 -0.02174
# Poissons Ratio (y) = 0.19114 0.62446
# Poissons Ratio (z) = -0.00576 0.36306
#
# Static dielectric constant tensor:
#      x y z
#    x 1.695300 0.000000 0.000000 
#    y 0.000000 1.699620 0.000000 
#    z 0.000000 0.000000 1.760870 
# 
# From -- ./inp_files/24346.got.cif
#   From: 2010.05.17/outbox.cif.g08.bks.cpg/sg40_13_cif.got.tgz:24346.got - 2010.06.03 18:35:42.
