data_PCOD9363683
_publ_section_title
;
Structure prediction by ZEFSAII (Michael W. Deem and Ramdas Pophale) SiO2 
 PCOD9363683
Probable space group: A M A 2
;
_chemical_formula_sum "Si O2"
_cell_formula_units_Z 56
_cell_length_a 8.630820
_cell_length_b 24.200788
_cell_length_c 14.011431
_cell_angle_alpha 90.000000
_cell_angle_beta 90.000000
_cell_angle_gamma 90.000000
_cell_volume 2926.604654
_symmetry_space_group_name_H-M "A M A 2"
_symmetry_group_IT_number 40
_symmetry_cell_setting 'orthorhombic'
loop_
_space_group_symop_operation_xyz
x,y,z
-x,-y,z
1/2-x,y,z
1/2+x,-y,z
x,1/2+y,1/2+z
-x,1/2-y,1/2+z
1/2-x,1/2+y,1/2+z
1/2+x,1/2-y,1/2+z
loop_
_atom_site_type_symbol
_atom_site_label
_atom_site_fract_x
_atom_site_fract_y
_atom_site_fract_z
Si Si1 0.435620 0.939194 0.075020
Si Si2 0.564289 0.330870 0.894776
Si Si3 0.064935 0.229435 0.782107
Si Si4 0.434753 0.332911 0.102692
Si Si5 0.064316 0.060223 0.704289
Si Si6 0.064779 0.560370 0.783896
Si Si7 0.936502 0.122994 0.884619
O O1 0.250000 0.942290 0.081290
O O2 0.502176 0.924661 0.178660
O O3 0.500000 0.000000 0.050638
O O4 0.476656 0.897101 0.990646
O O5 0.750000 0.327832 0.903990
O O6 0.506816 0.286349 0.818219
O O7 0.521419 0.391972 0.857979
O O8 0.486449 0.319129 0.996148
O O9 0.250000 0.232162 0.779878
O O10 0.001663 0.210331 0.679383
O O11 0.010601 0.181019 0.854366
O O12 0.250000 0.334939 0.111274
O O13 0.505092 0.392339 0.132686
O O14 0.750000 0.939895 0.706477
O O15 0.998541 0.078805 0.807489
O O16 0.000000 0.000000 0.679613
O O17 0.250000 0.557078 0.779038
O O18 0.000000 0.500000 0.808664
O O19 0.750000 0.126574 0.876172
#
# Coordination Sequence:
#
# PCOD9363683 Si02
#       7
#     8   8   8   8   8   8   8
#     4  10  20  33  54  82 116 154 193 237 286 338
#     4  11  24  43  64  88 117 153 194 238 288 346
#     4  11  23  40  62  88 118 154 193 240 291 345
#     4  11  23  41  63  88 118 153 193 242 294 349
#     4  11  21  35  56  84 118 157 198 244 294 349
#     4  10  22  39  61  85 115 150 188 236 286 338
#     4  10  20  35  55  83 118 157 197 243 293 345
#
# _framework density 19.134802000000001
#
# number of rings (size 3 to 8) (size 9 to 14) (size 15 to 20)
#    0.000    1.429    0.000    8.571    0.000    7.429 
#    0.000    4.286    0.000    0.000    0.000    0.000 
#    0.000    0.000    0.000    0.000    0.000    0.000 
#
# Total GULP energy -156559.185951 kJ/mol
# GULP energy per Si atom -5591.399498 kJ/mol
# Density = 1.909125 g / cm^3
# Si number density = 19.134802 Si / 1000 Ang^3
#
#
#
# Elastic Constant Matrix: (Units=GPa)
#
#
# Indices 1 2 3 4 5 6 
#
# 1 81.9065 17.0853 22.0049 0.0000 0.0000 0.0000
# 2 17.0853 75.8575 50.4249 0.0000 0.0000 0.0000
# 3 22.0049 50.4249 84.2207 0.0000 0.0000 0.0000
# 4 0.0000 0.0000 0.0000 14.5785 0.0000 0.0000
# 5 0.0000 0.0000 0.0000 0.0000 90.1789 0.0000
# 6 0.0000 0.0000 0.0000 0.0000 0.0000 36.5145
#
#
#
# Elastic Compliance Matrix: (Units=1/GPa)
#
#
# Indices 1 2 3 4 5 6 
#
# 1 0.013189 -0.001129 -0.002770 0.000000 0.000000 0.000000
# 2 -0.001129 0.021994 -0.012873 0.000000 0.000000 0.000000
# 3 -0.002770 -0.012873 0.020305 0.000000 0.000000 0.000000
# 4 0.000000 0.000000 0.000000 0.068594 0.000000 0.000000
# 5 0.000000 0.000000 0.000000 0.000000 0.011089 0.000000
# 6 0.000000 0.000000 0.000000 0.000000 0.000000 0.027386
#
#
# Mechanical properties :
#
#
# Convention : Reuss Voigt Hill
#
# Bulk Modulus (GPa) = 45.57287 46.77941 46.17614
# Shear Modulus (GPa) = 24.58006 38.41902 31.49954
#
# Velocity S-wave (km/s) = 3.58798 4.48572 4.06173
# Velocity P-wave (km/s) = 6.40572 7.16444 6.79568
#
# Compressibility (1/GPa) = 0.02194288
#
# Stress axis : x y z
#
# Youngs Moduli (GPa) = 75.82231 45.46613 49.24920
#
# Poissons Ratio (x) = 0.05135 0.13641
# Poissons Ratio (y) = 0.08563 0.63401
# Poissons Ratio (z) = 0.21001 0.58531
#
# Static dielectric constant tensor:
#      x y z
#    x 1.636790 0.000000 0.000000 
#    y 0.000000 1.652160 0.000000 
#    z 0.000000 0.000000 1.650560 
# 
# From -- ./inp_files/15306.got.cif
#   From: 2010.05.17/outbox.cif.g08.bks.cpg/sg40_8_cif.got.tgz:15306.got - 2010.06.03 18:35:42.
