data_PCOD9363838
_publ_section_title
;
Structure prediction by ZEFSAII (Michael W. Deem and Ramdas Pophale) SiO2 
 PCOD9363838
Probable space group: A M A 2
;
_chemical_formula_sum "Si O2"
_cell_formula_units_Z 52
_cell_length_a 17.100933
_cell_length_b 9.386650
_cell_length_c 14.659246
_cell_angle_alpha 90.000000
_cell_angle_beta 90.000000
_cell_angle_gamma 90.000000
_cell_volume 2353.109098
_symmetry_space_group_name_H-M "A M A 2"
_symmetry_group_IT_number 40
_symmetry_cell_setting 'orthorhombic'
loop_
_space_group_symop_operation_xyz
x,y,z
-x,-y,z
1/2-x,y,z
1/2+x,-y,z
x,1/2+y,1/2+z
-x,1/2-y,1/2+z
1/2-x,1/2+y,1/2+z
1/2+x,1/2-y,1/2+z
loop_
_atom_site_type_symbol
_atom_site_label
_atom_site_fract_x
_atom_site_fract_y
_atom_site_fract_z
Si Si1 0.164293 0.736523 0.837720
Si Si2 0.836959 0.561400 0.506946
Si Si3 0.409855 0.278660 0.659352
Si Si4 0.339118 0.962052 0.674939
Si Si5 0.500000 0.500000 0.419086
Si Si6 0.040711 0.851475 0.544720
Si Si7 0.495332 0.806703 0.340700
O O1 0.250000 0.669714 0.821350
O O2 0.085543 0.644845 0.829697
O O3 0.158420 0.871706 0.768656
O O4 0.164065 0.801147 0.939746
O O5 0.750000 0.493252 0.496272
O O6 0.849157 0.619074 0.608868
O O7 0.917651 0.484547 0.474976
O O8 0.376634 0.119761 0.678897
O O9 0.481502 0.263271 0.586848
O O10 0.445193 0.336408 0.752453
O O11 0.250000 0.984798 0.649494
O O12 0.379582 0.861140 0.599650
O O13 0.504338 0.636874 0.354592
O O14 0.043021 0.849504 0.436205
O O15 0.000000 0.000000 0.568980
#
# Coordination Sequence:
#
# PCOD9363838 Si02
#       7
#     8   8   8   8   4   8   8
#     4   9  17  30  53  84 115 141 183 240 285 332
#     4  10  20  35  55  86 117 148 192 236 289 349
#     4  11  19  34  60  83 113 151 195 240 284 343
#     4  10  20  35  57  86 113 148 194 245 293 337
#     4  10  20  36  60  86 118 156 186 250 292 336
#     4  10  21  36  55  84 116 154 190 234 287 351
#     4  11  20  36  56  88 115 154 195 240 294 347
#
# _framework density 22.098423
#
# number of rings (size 3 to 8) (size 9 to 14) (size 15 to 20)
#    0.000    1.846    4.615    2.308    1.077    0.000 
#    1.385    3.077    0.000    0.923    0.000    0.000 
#    0.000    0.000    0.000    0.000    0.000    0.000 
#
# Total GULP energy -145033.294852 kJ/mol
# GULP energy per Si atom -5578.203648 kJ/mol
# Density = 2.204813 g / cm^3
# Si number density = 22.098423 Si / 1000 Ang^3
#
#
#
# Elastic Constant Matrix: (Units=GPa)
#
#
# Indices 1 2 3 4 5 6 
#
# 1 155.6165 12.9962 68.0428 0.0000 0.0000 0.0000
# 2 12.9962 34.2844 -2.6123 0.0000 0.0000 0.0000
# 3 68.0428 -2.6123 106.8417 0.0000 0.0000 0.0000
# 4 0.0000 0.0000 0.0000 20.4190 0.0000 0.0000
# 5 0.0000 0.0000 0.0000 0.0000 10.1739 0.0000
# 6 0.0000 0.0000 0.0000 0.0000 0.0000 11.2424
#
#
#
# Elastic Compliance Matrix: (Units=1/GPa)
#
#
# Indices 1 2 3 4 5 6 
#
# 1 0.009434 -0.004041 -0.006107 0.000000 0.000000 0.000000
# 2 -0.004041 0.030953 0.003331 0.000000 0.000000 0.000000
# 3 -0.006107 0.003331 0.013330 0.000000 0.000000 0.000000
# 4 0.000000 0.000000 0.000000 0.048974 0.000000 0.000000
# 5 0.000000 0.000000 0.000000 0.000000 0.098291 0.000000
# 6 0.000000 0.000000 0.000000 0.000000 0.000000 0.088949
#
#
# Mechanical properties :
#
#
# Convention : Reuss Voigt Hill
#
# Bulk Modulus (GPa) = 24.94863 50.39956 37.67409
# Shear Modulus (GPa) = 15.77654 22.92147 19.34901
#
# Velocity S-wave (km/s) = 2.67483 3.22412 2.96224
# Velocity P-wave (km/s) = 4.56661 6.05940 5.36518
#
# Compressibility (1/GPa) = 0.04008237
#
# Stress axis : x y z
#
# Youngs Moduli (GPa) = 106.00294 32.30655 75.01777
#
# Poissons Ratio (x) = 0.13056 0.45811
# Poissons Ratio (y) = 0.42839 -0.24985
# Poissons Ratio (z) = 0.64733 -0.10760
#
# Static dielectric constant tensor:
#      x y z
#    x 1.902070 0.000000 0.000000 
#    y 0.000000 1.845590 0.000000 
#    z 0.000000 0.000000 1.786960 
# 
# From -- ./inp_files/17759.got.cif
#   From: 2010.05.17/outbox.cif.g08.bks.cpg/sg40_9_cif.got.tgz:17759.got - 2010.06.03 18:35:42.
