data_PCOD9363733
_publ_section_title
;
Structure prediction by ZEFSAII (Michael W. Deem and Ramdas Pophale) SiO2 
 PCOD9363733
Probable space group: A M A 2
;
_chemical_formula_sum "Si O2"
_cell_formula_units_Z 56
_cell_length_a 8.739097
_cell_length_b 24.608854
_cell_length_c 13.946702
_cell_angle_alpha 90.000000
_cell_angle_beta 90.000000
_cell_angle_gamma 90.000000
_cell_volume 2999.366047
_symmetry_space_group_name_H-M "A M A 2"
_symmetry_group_IT_number 40
_symmetry_cell_setting 'orthorhombic'
loop_
_space_group_symop_operation_xyz
x,y,z
-x,-y,z
1/2-x,y,z
1/2+x,-y,z
x,1/2+y,1/2+z
-x,1/2-y,1/2+z
1/2-x,1/2+y,1/2+z
1/2+x,1/2-y,1/2+z
loop_
_atom_site_type_symbol
_atom_site_label
_atom_site_fract_x
_atom_site_fract_y
_atom_site_fract_z
Si Si1 0.565759 0.666577 0.539820
Si Si2 0.932287 0.623444 0.047817
Si Si3 0.433057 0.162553 0.247720
Si Si4 0.934176 0.558131 0.431309
Si Si5 0.067465 0.940346 0.353012
Si Si6 0.065409 0.724346 0.937839
Si Si7 0.567419 0.941641 0.719232
O O1 0.750000 0.666620 0.547060
O O2 0.497234 0.676838 0.644097
O O3 0.519503 0.607867 0.499136
O O4 0.521814 0.714851 0.467241
O O5 0.750000 0.624600 0.062333
O O6 0.014690 0.602938 0.143037
O O7 0.966275 0.581730 0.960384
O O8 0.991314 0.681440 0.010905
O O9 0.250000 0.160492 0.244744
O O10 0.496698 0.104203 0.281739
O O11 0.479148 0.205229 0.331027
O O12 0.750000 0.555227 0.427082
O O13 0.000000 0.500000 0.463236
O O14 0.998078 0.568437 0.324479
O O15 0.250000 0.941266 0.341025
O O16 0.000000 0.000000 0.339277
O O17 0.250000 0.719664 0.944339
O O18 0.750000 0.945015 0.724896
O O19 0.500000 0.000000 0.687267
#
# Coordination Sequence:
#
# PCOD9363733 Si02
#       7
#     8   8   8   8   8   8   8
#     4  10  22  40  61  83 111 146 184 228 279 330
#     4  10  20  34  54  82 114 149 188 231 278 331
#     4  10  21  37  58  83 112 145 185 230 276 329
#     4  10  21  38  58  81 111 146 185 232 279 329
#     4  10  20  34  54  80 112 149 188 231 279 329
#     4   9  20  39  58  80 111 146 184 230 279 328
#     4  11  21  34  54  81 114 151 189 232 279 330
#
# _framework density 18.670611999999998
#
# number of rings (size 3 to 8) (size 9 to 14) (size 15 to 20)
#    0.000    2.000    0.000    4.286    0.000    6.857 
#    0.000    2.857    0.000    0.000    0.000    0.000 
#    0.000    0.000    0.000    0.000    0.000    0.000 
#
# Total GULP energy -156406.722226 kJ/mol
# GULP energy per Si atom -5585.954365 kJ/mol
# Density = 1.862812 g / cm^3
# Si number density = 18.670612 Si / 1000 Ang^3
#
#
#
# Elastic Constant Matrix: (Units=GPa)
#
#
# Indices 1 2 3 4 5 6 
#
# 1 50.6722 41.0429 34.2960 0.0000 0.0000 0.0000
# 2 41.0429 136.7189 77.7593 0.0000 0.0000 0.0000
# 3 34.2960 77.7593 90.3475 0.0000 0.0000 0.0000
# 4 0.0000 0.0000 0.0000 18.7517 0.0000 0.0000
# 5 0.0000 0.0000 0.0000 0.0000 28.6323 0.0000
# 6 0.0000 0.0000 0.0000 0.0000 0.0000 27.5925
#
#
#
# Elastic Compliance Matrix: (Units=1/GPa)
#
#
# Indices 1 2 3 4 5 6 
#
# 1 0.027972 -0.004619 -0.006643 0.000000 0.000000 0.000000
# 2 -0.004619 0.015091 -0.011235 0.000000 0.000000 0.000000
# 3 -0.006643 -0.011235 0.023259 0.000000 0.000000 0.000000
# 4 0.000000 0.000000 0.000000 0.053328 0.000000 0.000000
# 5 0.000000 0.000000 0.000000 0.000000 0.034926 0.000000
# 6 0.000000 0.000000 0.000000 0.000000 0.000000 0.036242
#
#
# Mechanical properties :
#
#
# Convention : Reuss Voigt Hill
#
# Bulk Modulus (GPa) = 46.88450 64.88169 55.88310
# Shear Modulus (GPa) = 20.58291 23.30468 21.94379
#
# Velocity S-wave (km/s) = 3.32388 3.53682 3.43200
# Velocity P-wave (km/s) = 6.31639 7.17670 6.76024
#
# Compressibility (1/GPa) = 0.02132901
#
# Stress axis : x y z
#
# Youngs Moduli (GPa) = 35.75012 66.26607 42.99366
#
# Poissons Ratio (x) = 0.30609 0.28559
# Poissons Ratio (y) = 0.16513 0.48302
# Poissons Ratio (z) = 0.23747 0.74448
#
# Static dielectric constant tensor:
#      x y z
#    x 1.624650 0.000000 0.000000 
#    y 0.000000 1.634550 0.000000 
#    z 0.000000 0.000000 1.627790 
# 
# From -- ./inp_files/15315.got.cif
#   From: 2010.05.17/outbox.cif.g08.bks.cpg/sg40_8_cif.got.tgz:15315.got - 2010.06.03 18:35:42.
