data_PCOD9363837
_publ_section_title
;
Structure prediction by ZEFSAII (Michael W. Deem and Ramdas Pophale) SiO2 
 PCOD9363837
Probable space group: A M A 2
;
_chemical_formula_sum "Si O2"
_cell_formula_units_Z 64
_cell_length_a 20.386126
_cell_length_b 31.039561
_cell_length_c 5.236544
_cell_angle_alpha 90.000000
_cell_angle_beta 90.000000
_cell_angle_gamma 90.000000
_cell_volume 3313.561469
_symmetry_space_group_name_H-M "A M A 2"
_symmetry_group_IT_number 40
_symmetry_cell_setting 'orthorhombic'
loop_
_space_group_symop_operation_xyz
x,y,z
-x,-y,z
1/2-x,y,z
1/2+x,-y,z
x,1/2+y,1/2+z
-x,1/2-y,1/2+z
1/2-x,1/2+y,1/2+z
1/2+x,1/2-y,1/2+z
loop_
_atom_site_type_symbol
_atom_site_label
_atom_site_fract_x
_atom_site_fract_y
_atom_site_fract_z
Si Si1 0.939864 0.811641 0.295110
Si Si2 0.422693 0.774199 0.464243
Si Si3 0.682607 0.691833 0.268071
Si Si4 0.821926 0.567302 0.142062
Si Si5 0.972463 0.547695 0.117093
Si Si6 0.825685 0.773174 0.572257
Si Si7 0.003982 0.396464 0.621270
Si Si8 0.345839 0.378440 0.647221
O O1 0.874985 0.810727 0.475416
O O2 0.006866 0.796456 0.431561
O O3 0.952614 0.857629 0.162130
O O4 0.934257 0.771322 0.103482
O O5 0.382911 0.811626 0.611057
O O6 0.372973 0.757128 0.245488
O O7 0.750000 0.680509 0.130777
O O8 0.684296 0.742290 0.329387
O O9 0.680537 0.665520 0.529402
O O10 0.750000 0.545394 0.118294
O O11 0.824041 0.603334 0.918529
O O12 0.892573 0.544564 0.108829
O O13 0.825805 0.587909 0.423779
O O14 0.995072 0.578051 0.353166
O O15 0.000000 0.500000 0.148133
O O16 0.997549 0.569758 0.855721
O O17 0.750000 0.782886 0.663335
O O18 0.075823 0.375141 0.642418
#
# Coordination Sequence:
#
# PCOD9363837 Si02
#       8
#     8   8   8   8   8   8   8   8
#     4  11  23  36  58  85 116 159 213 252 300 357
#     4  11  22  35  55  81 116 161 210 259 295 356
#     4  10  21  33  49  76 115 159 203 250 301 354
#     4  10  20  35  55  85 119 155 190 231 296 376
#     4  10  22  41  64  91 121 151 193 248 312 371
#     4  10  22  38  54  77 113 159 210 263 312 346
#     4  10  23  37  63  89 119 155 197 254 301 362
#     4  10  21  33  52  84 121 157 196 237 293 364
#
# _framework density 19.314565000000002
#
# number of rings (size 3 to 8) (size 9 to 14) (size 15 to 20)
#    0.000    1.750    1.250    2.625   10.500    0.500 
#    0.000    0.000    0.000    1.500    0.000    0.000 
#    0.000    0.000    0.000    0.000    0.000    0.000 
#
# Total GULP energy -178142.591923 kJ/mol
# GULP energy per Si atom -5566.955998 kJ/mol
# Density = 1.927060 g / cm^3
# Si number density = 19.314565 Si / 1000 Ang^3
#
#
#
# Elastic Constant Matrix: (Units=GPa)
#
#
# Indices 1 2 3 4 5 6 
#
# 1 145.3845 45.5539 26.8323 0.0000 0.0000 0.0000
# 2 45.5539 74.5191 12.1857 0.0000 0.0000 0.0000
# 3 26.8323 12.1857 59.2527 0.0000 0.0000 0.0000
# 4 0.0000 0.0000 0.0000 23.5810 0.0000 0.0000
# 5 0.0000 0.0000 0.0000 0.0000 61.0445 0.0000
# 6 0.0000 0.0000 0.0000 0.0000 0.0000 -360.0501
#
#
#
# Elastic Compliance Matrix: (Units=1/GPa)
#
#
# Indices 1 2 3 4 5 6 
#
# 1 0.009011 -0.005010 -0.003050 0.000000 0.000000 0.000000
# 2 -0.005010 0.016671 -0.001160 0.000000 0.000000 0.000000
# 3 -0.003050 -0.001160 0.018497 0.000000 0.000000 0.000000
# 4 0.000000 0.000000 0.000000 0.042407 0.000000 0.000000
# 5 0.000000 0.000000 0.000000 0.000000 0.016381 0.000000
# 6 0.000000 0.000000 0.000000 0.000000 0.000000 -0.002777
#
#
# Mechanical properties :
#
#
# Convention : Reuss Voigt Hill
#
# Bulk Modulus (GPa) = 38.85110 49.81112 44.33111
# Shear Modulus (GPa) = 39.30506 -42.11264 -1.40379
#
# Velocity S-wave (km/s) = 4.51599 -4.67449 -0.85345
# Velocity P-wave (km/s) = 6.88119 1.81360 4.69370
#
# Compressibility (1/GPa) = 0.02573930
#
# Stress axis : x y z
#
# Youngs Moduli (GPa) = 110.97576 59.98261 54.06358
#
# Poissons Ratio (x) = 0.30049 0.16491
# Poissons Ratio (y) = 0.55595 0.06271
# Poissons Ratio (z) = 0.33851 0.06958
#
# Static dielectric constant tensor:
#      x y z
#    x 1.845190 0.000000 0.000000 
#    y 0.000000 1.648290 0.000000 
#    z 0.000000 0.000000 1.777440 
# 
# From -- ./inp_files/2479.got.cif
#   From: 2010.05.17/outbox.cif.g08.bks.cpg/sg40_2_cif.got.tgz:2479.got - 2010.06.03 18:35:42.
