data_PCOD9363446
_publ_section_title
;
Structure prediction by ZEFSAII (Michael W. Deem and Ramdas Pophale) SiO2 
 PCOD9363446
Probable space group: A M A 2
;
_chemical_formula_sum "Si O2"
_cell_formula_units_Z 60
_cell_length_a 23.232866
_cell_length_b 7.179745
_cell_length_c 15.716363
_cell_angle_alpha 90.000000
_cell_angle_beta 90.000000
_cell_angle_gamma 90.000000
_cell_volume 2621.584487
_symmetry_space_group_name_H-M "A M A 2"
_symmetry_group_IT_number 40
_symmetry_cell_setting 'orthorhombic'
loop_
_space_group_symop_operation_xyz
x,y,z
-x,-y,z
1/2-x,y,z
1/2+x,-y,z
x,1/2+y,1/2+z
-x,1/2-y,1/2+z
1/2-x,1/2+y,1/2+z
1/2+x,1/2-y,1/2+z
loop_
_atom_site_type_symbol
_atom_site_label
_atom_site_fract_x
_atom_site_fract_y
_atom_site_fract_z
Si Si1 0.382618 0.335097 0.817690
Si Si2 0.813189 0.247828 0.166089
Si Si3 0.684704 0.300443 0.645505
Si Si4 0.902760 0.225913 0.493767
Si Si5 0.008731 0.723374 0.098233
Si Si6 0.122284 0.696652 0.005847
Si Si7 0.681644 0.787013 0.336195
Si Si8 0.000000 0.000000 0.248269
O O1 0.362407 0.219991 0.735596
O O2 0.333382 0.491135 0.833993
O O3 0.442466 0.444461 0.799388
O O4 0.387570 0.206967 0.900223
O O5 0.750000 0.303767 0.196903
O O6 0.826918 0.331667 0.074116
O O7 0.813617 0.024687 0.152605
O O8 0.750000 0.237525 0.628734
O O9 0.642437 0.260255 0.568404
O O10 0.666575 0.226241 0.739269
O O11 0.964335 0.286082 0.526161
O O12 0.904035 0.002525 0.481931
O O13 0.071524 0.782934 0.063641
O O14 0.000000 0.500000 0.109300
O O15 0.991528 0.825913 0.184818
O O16 0.146774 0.783406 0.918999
O O17 0.750000 0.759298 0.347297
#
# Coordination Sequence:
#
# PCOD9363446 Si02
#       8
#     8   8   8   8   8   8   8   4
#     4  10  21  34  61  89 114 161 209 245 305 375
#     4  10  19  36  58  86 120 154 201 251 300 371
#     4   9  19  36  58  84 115 155 200 247 304 366
#     4  10  22  37  58  84 123 153 200 263 294 366
#     4  10  22  39  62  93 126 156 213 259 304 375
#     4  10  20  35  57  87 117 155 198 253 310 360
#     4   9  18  34  57  87 116 154 203 248 302 371
#     4  12  22  40  72  84 124 174 202 258 328 366
#
# _framework density 22.886921999999998
#
# number of rings (size 3 to 8) (size 9 to 14) (size 15 to 20)
#    0.000    2.133    1.333    3.200    4.667    3.200 
#    0.000    1.333    7.333    0.000    0.000    0.000 
#    0.000    0.000    0.000    0.000    0.000    0.000 
#
# Total GULP energy -167430.800346 kJ/mol
# GULP energy per Si atom -5581.026678 kJ/mol
# Density = 2.283483 g / cm^3
# Si number density = 22.886922 Si / 1000 Ang^3
#
#
#
# Elastic Constant Matrix: (Units=GPa)
#
#
# Indices 1 2 3 4 5 6 
#
# 1 121.5016 3.5894 71.2894 0.0000 0.0000 0.0000
# 2 3.5894 64.5211 1.8171 0.0000 0.0000 0.0000
# 3 71.2894 1.8171 179.9231 0.0000 0.0000 0.0000
# 4 0.0000 0.0000 0.0000 10.5143 0.0000 0.0000
# 5 0.0000 0.0000 0.0000 0.0000 10.4087 0.0000
# 6 0.0000 0.0000 0.0000 0.0000 0.0000 14.9395
#
#
#
# Elastic Compliance Matrix: (Units=1/GPa)
#
#
# Indices 1 2 3 4 5 6 
#
# 1 0.010738 -0.000478 -0.004250 0.000000 0.000000 0.000000
# 2 -0.000478 0.015524 0.000032 0.000000 0.000000 0.000000
# 3 -0.004250 0.000032 0.007241 0.000000 0.000000 0.000000
# 4 0.000000 0.000000 0.000000 0.095109 0.000000 0.000000
# 5 0.000000 0.000000 0.000000 0.000000 0.096073 0.000000
# 6 0.000000 0.000000 0.000000 0.000000 0.000000 0.066937
#
#
# Mechanical properties :
#
#
# Convention : Reuss Voigt Hill
#
# Bulk Modulus (GPa) = 41.46982 57.70417 49.58700
# Shear Modulus (GPa) = 16.17858 26.45583 21.31720
#
# Velocity S-wave (km/s) = 2.66163 3.40359 3.05522
# Velocity P-wave (km/s) = 5.25399 6.38071 5.84456
#
# Compressibility (1/GPa) = 0.02411392
#
# Stress axis : x y z
#
# Youngs Moduli (GPa) = 93.12760 64.41445 138.09380
#
# Poissons Ratio (x) = 0.03077 0.58687
# Poissons Ratio (y) = 0.04449 -0.00449
# Poissons Ratio (z) = 0.39577 -0.00209
#
# Static dielectric constant tensor:
#      x y z
#    x 1.881760 0.000000 0.000000 
#    y 0.000000 1.918180 0.000000 
#    z 0.000000 0.000000 1.900730 
# 
# From -- ./inp_files/18496.got.cif
#   From: 2010.05.17/outbox.cif.g08.bks.cpg/sg40_10_cif.got.tgz:18496.got - 2010.06.03 18:35:42.
