data_PCOD9363030
_publ_section_title
;
Structure prediction by ZEFSAII (Michael W. Deem and Ramdas Pophale) SiO2 
 PCOD9363030
Probable space group: A M A 2
;
_chemical_formula_sum "Si O2"
_cell_formula_units_Z 52
_cell_length_a 8.612590
_cell_length_b 14.809544
_cell_length_c 18.029262
_cell_angle_alpha 90.000000
_cell_angle_beta 90.000000
_cell_angle_gamma 90.000000
_cell_volume 2299.605875
_symmetry_space_group_name_H-M "A M A 2"
_symmetry_group_IT_number 40
_symmetry_cell_setting 'orthorhombic'
loop_
_space_group_symop_operation_xyz
x,y,z
-x,-y,z
1/2-x,y,z
1/2+x,-y,z
x,1/2+y,1/2+z
-x,1/2-y,1/2+z
1/2-x,1/2+y,1/2+z
1/2+x,1/2-y,1/2+z
loop_
_atom_site_type_symbol
_atom_site_label
_atom_site_fract_x
_atom_site_fract_y
_atom_site_fract_z
Si Si1 0.564617 0.154120 0.801020
Si Si2 0.567008 0.645825 0.772229
Si Si3 0.566280 0.329737 0.617746
Si Si4 0.931066 0.371272 0.925341
Si Si5 0.568428 0.656883 0.460912
Si Si6 0.076751 0.137182 0.656722
Si Si7 0.500000 0.500000 0.036924
O O1 0.750000 0.170817 0.804394
O O2 0.476969 0.248341 0.784601
O O3 0.517391 0.116123 0.881394
O O4 0.521718 0.102014 0.726529
O O5 0.750000 0.631237 0.780152
O O6 0.511417 0.622592 0.689210
O O7 0.471691 0.605359 0.840791
O O8 0.750000 0.330691 0.627608
O O9 0.520775 0.365229 0.536310
O O10 0.504765 0.226177 0.622979
O O11 0.750000 0.395378 0.940339
O O12 0.943697 0.264735 0.943537
O O13 0.050587 0.423974 0.978100
O O14 0.750000 0.636576 0.473301
O O15 0.750000 0.837277 0.680548
O O16 0.090616 0.062340 0.593925
#
# Coordination Sequence:
#
# PCOD9363030 Si02
#       7
#     8   8   8   8   8   8   4
#     4   9  18  33  52  73 101 137 175 220 272 320
#     4  10  19  32  51  73 101 136 176 221 271 320
#     4  11  20  31  52  79 106 137 177 222 271 322
#     4  10  21  37  52  71 105 143 182 223 265 317
#     4   9  17  33  53  76 105 137 174 222 273 316
#     4  11  22  36  51  72 105 143 183 223 264 316
#     4  12  24  36  54  76 108 152 184 216 262 318
#
# _framework density 22.612570000000002
#
# number of rings (size 3 to 8) (size 9 to 14) (size 15 to 20)
#    0.000    1.846    1.538    6.923    0.000    6.769 
#    0.000    0.000    0.000    0.000    0.000    1.077 
#    0.000    2.462    0.000    0.000    0.000    0.000 
#
# Total GULP energy -144938.516134 kJ/mol
# GULP energy per Si atom -5574.558313 kJ/mol
# Density = 2.256110 g / cm^3
# Si number density = 22.612570 Si / 1000 Ang^3
#
#
#
# Elastic Constant Matrix: (Units=GPa)
#
#
# Indices 1 2 3 4 5 6 
#
# 1 97.4844 -5.5382 43.6928 0.0000 0.0000 0.0000
# 2 -5.5382 27.5044 3.1435 0.0000 0.0000 0.0000
# 3 43.6928 3.1435 206.2006 0.0000 0.0000 0.0000
# 4 0.0000 0.0000 0.0000 13.7090 0.0000 0.0000
# 5 0.0000 0.0000 0.0000 0.0000 1.6243 0.0000
# 6 0.0000 0.0000 0.0000 0.0000 0.0000 18.3910
#
#
#
# Elastic Compliance Matrix: (Units=1/GPa)
#
#
# Indices 1 2 3 4 5 6 
#
# 1 0.011518 0.002603 -0.002480 0.000000 0.000000 0.000000
# 2 0.002603 0.037009 -0.001116 0.000000 0.000000 0.000000
# 3 -0.002480 -0.001116 0.005392 0.000000 0.000000 0.000000
# 4 0.000000 0.000000 0.000000 0.072945 0.000000 0.000000
# 5 0.000000 0.000000 0.000000 0.000000 0.615649 0.000000
# 6 0.000000 0.000000 0.000000 0.000000 0.000000 0.054374
#
#
# Mechanical properties :
#
#
# Convention : Reuss Voigt Hill
#
# Bulk Modulus (GPa) = 19.25574 45.97618 32.61596
# Shear Modulus (GPa) = 6.12607 26.07095 16.09851
#
# Velocity S-wave (km/s) = 1.64773 3.39918 2.67109
# Velocity P-wave (km/s) = 3.48626 5.98182 4.89572
#
# Compressibility (1/GPa) = 0.05193258
#
# Stress axis : x y z
#
# Youngs Moduli (GPa) = 86.82416 27.02017 185.45333
#
# Poissons Ratio (x) = -0.07032 0.45996
# Poissons Ratio (y) = -0.22597 0.20691
# Poissons Ratio (z) = 0.21534 0.03015
#
# Static dielectric constant tensor:
#      x y z
#    x 1.795690 0.000000 0.000000 
#    y 0.000000 1.883290 0.000000 
#    z 0.000000 0.000000 1.911700 
# 
# From -- ./inp_files/19383.got.cif
#   From: 2010.05.17/outbox.cif.g08.bks.cpg/sg40_10_cif.got.tgz:19383.got - 2010.06.03 18:35:42.
