data_PCOD9363492
_publ_section_title
;
Structure prediction by ZEFSAII (Michael W. Deem and Ramdas Pophale) SiO2 
 PCOD9363492
Probable space group: A M A 2
;
_chemical_formula_sum "Si O2"
_cell_formula_units_Z 32
_cell_length_a 9.858442
_cell_length_b 10.005852
_cell_length_c 16.282307
_cell_angle_alpha 90.000000
_cell_angle_beta 90.000000
_cell_angle_gamma 90.000000
_cell_volume 1606.121144
_symmetry_space_group_name_H-M "A M A 2"
_symmetry_group_IT_number 40
_symmetry_cell_setting 'orthorhombic'
loop_
_space_group_symop_operation_xyz
x,y,z
-x,-y,z
1/2-x,y,z
1/2+x,-y,z
x,1/2+y,1/2+z
-x,1/2-y,1/2+z
1/2-x,1/2+y,1/2+z
1/2+x,1/2-y,1/2+z
loop_
_atom_site_type_symbol
_atom_site_label
_atom_site_fract_x
_atom_site_fract_y
_atom_site_fract_z
Si Si1 0.500000 0.000000 0.042230
Si Si2 0.250000 0.118975 0.778062
Si Si3 0.750000 0.864858 0.468892
Si Si4 0.750000 0.167118 0.416869
Si Si5 0.530034 0.210933 0.553798
Si Si6 0.000000 0.500000 0.179046
Si Si7 0.750000 0.079867 0.927810
O O1 0.470606 0.138264 0.088422
O O2 0.622449 0.041679 0.983321
O O3 0.250000 0.259390 0.828762
O O4 0.111961 0.087363 0.727973
O O5 0.250000 0.007401 0.848084
O O6 0.617489 0.842269 0.525246
O O7 0.750000 0.736860 0.409266
O O8 0.750000 0.005789 0.422432
O O9 0.621418 0.211965 0.471918
O O10 0.578129 0.105740 0.621060
#
# Coordination Sequence:
#
# PCOD9363492 Si02
#       7
#     4   4   4   4   8   4   4
#     4  10  19  36  64  93 116 158 226 262 297 360
#     4  12  26  40  64  94 141 170 208 271 340 382
#     4  10  21  36  67  95 119 156 232 267 298 361
#     4  12  21  40  64  98 122 173 225 264 305 391
#     4  11  21  40  67  94 127 170 220 265 310 397
#     4  12  25  42  62  99 138 174 202 270 351 376
#     4  10  20  36  59  93 124 157 207 272 307 372
#
# _framework density 19.923777999999999
#
# number of rings (size 3 to 8) (size 9 to 14) (size 15 to 20)
#    0.000    1.000    5.000    2.250    3.500    0.000 
#    0.000    2.500    0.000    0.000    0.000    0.000 
#    0.000    0.000    0.000    0.000    0.000    0.000 
#
# Total GULP energy -89252.498252 kJ/mol
# GULP energy per Si atom -5578.281141 kJ/mol
# Density = 1.987843 g / cm^3
# Si number density = 19.923778 Si / 1000 Ang^3
#
#
#
# Elastic Constant Matrix: (Units=GPa)
#
#
# Indices 1 2 3 4 5 6 
#
# 1 116.6955 9.8484 13.2101 0.0000 0.0000 0.0000
# 2 9.8484 214.6206 37.2101 0.0000 0.0000 0.0000
# 3 13.2101 37.2101 51.8424 0.0000 0.0000 0.0000
# 4 0.0000 0.0000 0.0000 42.5774 0.0000 0.0000
# 5 0.0000 0.0000 0.0000 0.0000 -1.4118 0.0000
# 6 0.0000 0.0000 0.0000 0.0000 0.0000 24.0444
#
#
#
# Elastic Compliance Matrix: (Units=1/GPa)
#
#
# Indices 1 2 3 4 5 6 
#
# 1 0.008824 -0.000017 -0.002236 0.000000 0.000000 0.000000
# 2 -0.000017 0.005322 -0.003815 0.000000 0.000000 0.000000
# 3 -0.002236 -0.003815 0.022597 0.000000 0.000000 0.000000
# 4 0.000000 0.000000 0.000000 0.023487 0.000000 0.000000
# 5 0.000000 0.000000 0.000000 0.000000 -0.708341 0.000000
# 6 0.000000 0.000000 0.000000 0.000000 0.000000 0.041590
#
#
# Mechanical properties :
#
#
# Convention : Reuss Voigt Hill
#
# Bulk Modulus (GPa) = 40.64073 55.96620 48.30346
# Shear Modulus (GPa) = -8.52977 34.56800 13.01911
#
# Velocity S-wave (km/s) = -2.07135 4.16987 2.55903
# Velocity P-wave (km/s) = 3.83689 7.16483 5.74702
#
# Compressibility (1/GPa) = 0.02460586
#
# Stress axis : x y z
#
# Youngs Moduli (GPa) = 113.32874 187.91163 44.25286
#
# Poissons Ratio (x) = 0.00324 0.09895
# Poissons Ratio (y) = 0.00195 0.16884
# Poissons Ratio (z) = 0.25341 0.71693
#
# Static dielectric constant tensor:
#      x y z
#    x 1.784550 0.000000 0.000000 
#    y 0.000000 1.765710 0.000000 
#    z 0.000000 0.000000 1.687680 
# 
# From -- ./inp_files/14700.got.cif
#   From: 2010.05.17/outbox.cif.g08.bks.cpg/sg40_8_cif.got.tgz:14700.got - 2010.06.03 18:35:42.
