data_PCOD9363779
_publ_section_title
;
Structure prediction by ZEFSAII (Michael W. Deem and Ramdas Pophale) SiO2 
 PCOD9363779
Probable space group: A M A 2
;
_chemical_formula_sum "Si O2"
_cell_formula_units_Z 64
_cell_length_a 19.890768
_cell_length_b 29.518254
_cell_length_c 5.202582
_cell_angle_alpha 90.000000
_cell_angle_beta 90.000000
_cell_angle_gamma 90.000000
_cell_volume 3054.647856
_symmetry_space_group_name_H-M "A M A 2"
_symmetry_group_IT_number 40
_symmetry_cell_setting 'orthorhombic'
loop_
_space_group_symop_operation_xyz
x,y,z
-x,-y,z
1/2-x,y,z
1/2+x,-y,z
x,1/2+y,1/2+z
-x,1/2-y,1/2+z
1/2-x,1/2+y,1/2+z
1/2+x,1/2-y,1/2+z
loop_
_atom_site_type_symbol
_atom_site_label
_atom_site_fract_x
_atom_site_fract_y
_atom_site_fract_z
Si Si1 0.169019 0.519633 0.979970
Si Si2 0.570749 0.120961 0.071133
Si Si3 0.057438 0.711806 0.121428
Si Si4 0.588460 0.210852 0.777773
Si Si5 0.322928 0.341074 0.966716
Si Si6 0.168871 0.070787 0.981909
Si Si7 0.574612 0.349749 0.623566
Si Si8 0.825264 0.068003 0.797821
O O1 0.250000 0.522296 0.975340
O O2 0.147500 0.533537 0.695468
O O3 0.145800 0.555026 0.199194
O O4 0.154942 0.469933 0.091214
O O5 0.570870 0.159216 0.850627
O O6 0.492245 0.118353 0.131447
O O7 0.613418 0.077003 0.991515
O O8 0.616179 0.145048 0.284802
O O9 0.094597 0.757391 0.026451
O O10 0.073325 0.676667 0.892293
O O11 0.978107 0.725137 0.122632
O O12 0.072467 0.687101 0.390995
O O13 0.655728 0.204496 0.614789
O O14 0.250000 0.336764 0.835090
O O15 0.317045 0.383773 0.158566
O O16 0.250000 0.073305 0.979023
O O17 0.137114 0.117791 0.070637
O O18 0.750000 0.056236 0.907023
#
# Coordination Sequence:
#
# PCOD9363779 Si02
#       8
#     8   8   8   8   8   8   8   8
#     4   9  19  36  62  88 111 150 201 249 295 361
#     4  10  20  34  57  82 123 157 195 239 300 363
#     4  11  22  37  64  88 116 152 209 250 288 355
#     4  10  21  37  57  87 115 156 201 247 290 354
#     4  10  20  35  57  86 123 160 192 243 304 365
#     4  10  21  40  63  85 115 153 203 258 308 355
#     4  11  23  39  61  89 116 161 204 255 304 362
#     4   9  19  34  56  86 116 154 201 240 291 363
#
# _framework density 20.951678000000001
#
# number of rings (size 3 to 8) (size 9 to 14) (size 15 to 20)
#    0.000    2.000    1.250    2.625    3.500    0.500 
#    0.000    1.875    0.000    0.000    0.000    0.000 
#    0.000    0.000    0.000    0.000    0.000    0.000 
#
# Total GULP energy -178370.500713 kJ/mol
# GULP energy per Si atom -5574.078147 kJ/mol
# Density = 2.090399 g / cm^3
# Si number density = 20.951678 Si / 1000 Ang^3
#
#
#
# Elastic Constant Matrix: (Units=GPa)
#
#
# Indices 1 2 3 4 5 6 
#
# 1 48.0559 12.9402 9.7782 0.0000 0.0000 0.0000
# 2 12.9402 62.3860 1.8409 0.0000 0.0000 0.0000
# 3 9.7782 1.8409 63.2720 0.0000 0.0000 0.0000
# 4 0.0000 0.0000 0.0000 31.3947 0.0000 0.0000
# 5 0.0000 0.0000 0.0000 0.0000 10.7746 0.0000
# 6 0.0000 0.0000 0.0000 0.0000 0.0000 29.7170
#
#
#
# Elastic Compliance Matrix: (Units=1/GPa)
#
#
# Indices 1 2 3 4 5 6 
#
# 1 0.022740 -0.004617 -0.003380 0.000000 0.000000 0.000000
# 2 -0.004617 0.016980 0.000219 0.000000 0.000000 0.000000
# 3 -0.003380 0.000219 0.016321 0.000000 0.000000 0.000000
# 4 0.000000 0.000000 0.000000 0.031853 0.000000 0.000000
# 5 0.000000 0.000000 0.000000 0.000000 0.092811 0.000000
# 6 0.000000 0.000000 0.000000 0.000000 0.000000 0.033651
#
#
# Mechanical properties :
#
#
# Convention : Reuss Voigt Hill
#
# Bulk Modulus (GPa) = 24.69979 24.75917 24.72948
# Shear Modulus (GPa) = 20.54185 24.32090 22.43137
#
# Velocity S-wave (km/s) = 3.13459 3.41076 3.27559
# Velocity P-wave (km/s) = 4.99154 5.23010 5.11221
#
# Compressibility (1/GPa) = 0.04048618
#
# Stress axis : x y z
#
# Youngs Moduli (GPa) = 43.97525 58.89132 61.27174
#
# Poissons Ratio (x) = 0.27190 0.20710
# Poissons Ratio (y) = 0.20304 -0.01345
# Poissons Ratio (z) = 0.14863 -0.01293
#
# Static dielectric constant tensor:
#      x y z
#    x 1.855320 0.000000 0.000000 
#    y 0.000000 1.774030 0.000000 
#    z 0.000000 0.000000 1.848260 
# 
# From -- ./inp_files/2469.got.cif
#   From: 2010.05.17/outbox.cif.g08.bks.cpg/sg40_2_cif.got.tgz:2469.got - 2010.06.03 18:35:42.
