data_PCOD9363305
_publ_section_title
;
Structure prediction by ZEFSAII (Michael W. Deem and Ramdas Pophale) SiO2 
 PCOD9363305
Probable space group: A M A 2
;
_chemical_formula_sum "Si O2"
_cell_formula_units_Z 48
_cell_length_a 16.803779
_cell_length_b 9.335334
_cell_length_c 16.095552
_cell_angle_alpha 90.000000
_cell_angle_beta 90.000000
_cell_angle_gamma 90.000000
_cell_volume 2524.891367
_symmetry_space_group_name_H-M "A M A 2"
_symmetry_group_IT_number 40
_symmetry_cell_setting 'orthorhombic'
loop_
_space_group_symop_operation_xyz
x,y,z
-x,-y,z
1/2-x,y,z
1/2+x,-y,z
x,1/2+y,1/2+z
-x,1/2-y,1/2+z
1/2-x,1/2+y,1/2+z
1/2+x,1/2-y,1/2+z
loop_
_atom_site_type_symbol
_atom_site_label
_atom_site_fract_x
_atom_site_fract_y
_atom_site_fract_z
Si Si1 0.092302 0.037678 0.882480
Si Si2 0.155891 0.290682 0.480365
Si Si3 0.407827 0.962669 0.138806
Si Si4 0.657505 0.795673 0.038542
Si Si5 0.154856 0.691855 0.218820
Si Si6 0.094474 0.022046 0.556551
O O1 0.126011 0.119263 0.803170
O O2 0.137922 0.888341 0.900923
O O3 0.106594 0.138590 0.962785
O O4 0.000000 0.000000 0.873038
O O5 0.250000 0.291976 0.498567
O O6 0.109040 0.371906 0.554542
O O7 0.123863 0.129434 0.483940
O O8 0.376059 0.855167 0.208825
O O9 0.500000 0.000000 0.148705
O O10 0.362225 0.110535 0.120338
O O11 0.750000 0.815209 0.017698
O O12 0.636179 0.631153 0.050789
O O13 0.250000 0.691936 0.213069
O O14 0.119876 0.599511 0.142184
O O15 0.000000 0.000000 0.553830
#
# Coordination Sequence:
#
# PCOD9363305 Si02
#       6
#     8   8   8   8   8   8
#     4  11  22  38  59  83 112 149 191 237 289 344
#     4  10  19  36  59  85 113 151 193 234 281 342
#     4  10  19  34  57  82 111 148 189 231 279 339
#     4  11  20  35  58  86 113 147 190 237 285 342
#     4  11  22  39  58  82 114 153 192 236 287 342
#     4  11  21  36  58  86 117 150 189 237 284 337
#
# _framework density 19.010719000000002
#
# number of rings (size 3 to 8) (size 9 to 14) (size 15 to 20)
#    0.000    1.333    0.000   12.000    0.000    0.000 
#    0.000    4.167    0.000    0.000    0.000    0.000 
#    0.000    0.000    0.000    0.000    0.000    0.000 
#
# Total GULP energy -134016.823388 kJ/mol
# GULP energy per Si atom -5584.034308 kJ/mol
# Density = 1.896745 g / cm^3
# Si number density = 19.010719 Si / 1000 Ang^3
#
#
#
# Elastic Constant Matrix: (Units=GPa)
#
#
# Indices 1 2 3 4 5 6 
#
# 1 144.8768 41.6051 28.7623 0.0000 0.0000 0.0000
# 2 41.6051 160.0232 44.1424 0.0000 0.0000 0.0000
# 3 28.7623 44.1424 70.4332 0.0000 0.0000 0.0000
# 4 0.0000 0.0000 0.0000 35.2230 0.0000 0.0000
# 5 0.0000 0.0000 0.0000 0.0000 0.8482 0.0000
# 6 0.0000 0.0000 0.0000 0.0000 0.0000 34.0327
#
#
#
# Elastic Compliance Matrix: (Units=1/GPa)
#
#
# Indices 1 2 3 4 5 6 
#
# 1 0.007756 -0.001382 -0.002301 0.000000 0.000000 0.000000
# 2 -0.001382 0.007801 -0.004325 0.000000 0.000000 0.000000
# 3 -0.002301 -0.004325 0.017848 0.000000 0.000000 0.000000
# 4 0.000000 0.000000 0.000000 0.028391 0.000000 0.000000
# 5 0.000000 0.000000 0.000000 0.000000 1.178900 0.000000
# 6 0.000000 0.000000 0.000000 0.000000 0.000000 0.029383
#
#
# Mechanical properties :
#
#
# Convention : Reuss Voigt Hill
#
# Bulk Modulus (GPa) = 57.50611 67.15031 62.32821
# Shear Modulus (GPa) = 3.87029 31.40902 17.63965
#
# Velocity S-wave (km/s) = 1.42838 4.06910 3.04942
# Velocity P-wave (km/s) = 5.74764 7.58128 6.72723
#
# Compressibility (1/GPa) = 0.01738946
#
# Stress axis : x y z
#
# Youngs Moduli (GPa) = 128.93089 128.18193 56.02779
#
# Poissons Ratio (x) = 0.17711 0.12894
# Poissons Ratio (y) = 0.17815 0.24233
# Poissons Ratio (z) = 0.29671 0.55440
#
# Static dielectric constant tensor:
#      x y z
#    x 1.641650 0.000000 0.000000 
#    y 0.000000 1.686990 0.000000 
#    z 0.000000 0.000000 1.672800 
# 
# From -- ./inp_files/20540.got.cif
#   From: 2010.05.17/outbox.cif.g08.bks.cpg/sg40_11_cif.got.tgz:20540.got - 2010.06.03 18:35:42.
