data_PCOD9363740
_publ_section_title
;
Structure prediction by ZEFSAII (Michael W. Deem and Ramdas Pophale) SiO2 
 PCOD9363740
Probable space group: A M A 2
;
_chemical_formula_sum "Si O2"
_cell_formula_units_Z 64
_cell_length_a 8.832142
_cell_length_b 20.904668
_cell_length_c 19.836699
_cell_angle_alpha 90.000000
_cell_angle_beta 90.000000
_cell_angle_gamma 90.000000
_cell_volume 3662.509172
_symmetry_space_group_name_H-M "A M A 2"
_symmetry_group_IT_number 40
_symmetry_cell_setting 'orthorhombic'
loop_
_space_group_symop_operation_xyz
x,y,z
-x,-y,z
1/2-x,y,z
1/2+x,-y,z
x,1/2+y,1/2+z
-x,1/2-y,1/2+z
1/2-x,1/2+y,1/2+z
1/2+x,1/2-y,1/2+z
loop_
_atom_site_type_symbol
_atom_site_label
_atom_site_fract_x
_atom_site_fract_y
_atom_site_fract_z
Si Si1 0.427496 0.733720 0.621550
Si Si2 0.569946 0.432573 0.257209
Si Si3 0.567967 0.432394 0.830985
Si Si4 0.068245 0.311527 0.333213
Si Si5 0.928079 0.112449 0.620407
Si Si6 0.929410 0.233981 0.980623
Si Si7 0.929939 0.385885 0.978652
Si Si8 0.569899 0.189396 0.256457
O O1 0.250000 0.721796 0.632415
O O2 0.451723 0.810657 0.626669
O O3 0.478011 0.714798 0.546547
O O4 0.523519 0.699077 0.678803
O O5 0.500000 0.500000 0.278915
O O6 0.750000 0.433127 0.262738
O O7 0.500568 0.374763 0.300453
O O8 0.521276 0.420321 0.179740
O O9 0.500000 0.500000 0.809324
O O10 0.750000 0.431969 0.826640
O O11 0.526125 0.420285 0.909540
O O12 0.501195 0.374460 0.787653
O O13 0.250000 0.311140 0.324668
O O14 0.033857 0.303628 0.412457
O O15 0.000439 0.250023 0.295512
O O16 0.750000 0.099433 0.629152
O O17 0.982245 0.093589 0.545730
O O18 0.750000 0.227188 0.994225
O O19 0.956910 0.309765 0.968411
O O20 0.750000 0.394393 0.989638
O O21 0.750000 0.189036 0.264210
#
# Coordination Sequence:
#
# PCOD9363740 Si02
#       8
#     8   8   8   8   8   8   8   8
#     4  10  20  34  56  85 118 150 187 237 286 336
#     4  12  25  40  58  82 114 154 195 239 286 343
#     4  11  23  40  58  82 116 154 194 239 289 342
#     4  11  21  38  61  87 117 150 189 238 288 337
#     4  10  20  34  54  81 115 153 192 235 281 336
#     4   9  18  34  57  84 115 149 186 232 286 340
#     4   9  18  34  54  78 113 155 193 232 279 336
#     4  12  23  36  59  87 115 152 195 238 285 340
#
# _framework density 17.474359
#
# number of rings (size 3 to 8) (size 9 to 14) (size 15 to 20)
#    0.000    1.500    2.500    3.750    0.000    3.500 
#    0.000    1.250    0.000    0.750    0.000    1.750 
#    0.000    0.000    0.000    0.000    0.000    0.000 
#
# Total GULP energy -178846.950028 kJ/mol
# GULP energy per Si atom -5588.967188 kJ/mol
# Density = 1.743459 g / cm^3
# Si number density = 17.474359 Si / 1000 Ang^3
#
#
#
# Elastic Constant Matrix: (Units=GPa)
#
#
# Indices 1 2 3 4 5 6 
#
# 1 99.0436 59.7005 56.0241 0.0000 0.0000 0.0000
# 2 59.7005 111.7308 53.2707 0.0000 0.0000 0.0000
# 3 56.0241 53.2707 89.5729 0.0000 0.0000 0.0000
# 4 0.0000 0.0000 0.0000 19.0027 0.0000 0.0000
# 5 0.0000 0.0000 0.0000 0.0000 32.4625 0.0000
# 6 0.0000 0.0000 0.0000 0.0000 0.0000 25.8953
#
#
#
# Elastic Compliance Matrix: (Units=1/GPa)
#
#
# Indices 1 2 3 4 5 6 
#
# 1 0.018080 -0.005959 -0.007765 0.000000 0.000000 0.000000
# 2 -0.005959 0.014456 -0.004870 0.000000 0.000000 0.000000
# 3 -0.007765 -0.004870 0.018917 0.000000 0.000000 0.000000
# 4 0.000000 0.000000 0.000000 0.052624 0.000000 0.000000
# 5 0.000000 0.000000 0.000000 0.000000 0.030805 0.000000
# 6 0.000000 0.000000 0.000000 0.000000 0.000000 0.038617
#
#
# Mechanical properties :
#
#
# Convention : Reuss Voigt Hill
#
# Bulk Modulus (GPa) = 70.09732 70.92643 70.51188
# Shear Modulus (GPa) = 23.20804 24.22891 23.71848
#
# Velocity S-wave (km/s) = 3.64829 3.72767 3.68819
# Velocity P-wave (km/s) = 7.61237 7.69443 7.65351
#
# Compressibility (1/GPa) = 0.01426588
#
# Stress axis : x y z
#
# Youngs Moduli (GPa) = 55.30827 69.17507 52.86220
#
# Poissons Ratio (x) = 0.41220 0.41046
# Poissons Ratio (y) = 0.32957 0.25746
# Poissons Ratio (z) = 0.42946 0.33691
#
# Static dielectric constant tensor:
#      x y z
#    x 1.578090 0.000000 0.000000 
#    y 0.000000 1.581760 0.000000 
#    z 0.000000 0.000000 1.588090 
# 
# From -- ./inp_files/19583.got.cif
#   From: 2010.05.17/outbox.cif.g08.bks.cpg/sg40_10_cif.got.tgz:19583.got - 2010.06.03 18:35:42.
