data_PCOD9363191
_publ_section_title
;
Structure prediction by ZEFSAII (Michael W. Deem and Ramdas Pophale) SiO2 
 PCOD9363191
Probable space group: A M A 2
;
_chemical_formula_sum "Si O2"
_cell_formula_units_Z 64
_cell_length_a 9.085074
_cell_length_b 16.229954
_cell_length_c 22.043266
_cell_angle_alpha 90.000000
_cell_angle_beta 90.000000
_cell_angle_gamma 90.000000
_cell_volume 3250.286914
_symmetry_space_group_name_H-M "A M A 2"
_symmetry_group_IT_number 40
_symmetry_cell_setting 'orthorhombic'
loop_
_space_group_symop_operation_xyz
x,y,z
-x,-y,z
1/2-x,y,z
1/2+x,-y,z
x,1/2+y,1/2+z
-x,1/2-y,1/2+z
1/2-x,1/2+y,1/2+z
1/2+x,1/2-y,1/2+z
loop_
_atom_site_type_symbol
_atom_site_label
_atom_site_fract_x
_atom_site_fract_y
_atom_site_fract_z
Si Si1 0.918439 0.919134 0.518860
Si Si2 0.423862 0.585765 0.293492
Si Si3 0.427560 0.764986 0.866632
Si Si4 0.420876 0.913451 0.344485
Si Si5 0.586331 0.371208 0.154452
Si Si6 0.919775 0.786154 0.125233
Si Si7 0.073536 0.247221 0.989771
Si Si8 0.085326 0.419540 0.698557
O O1 0.750000 0.912195 0.497108
O O2 0.912261 0.923058 0.592496
O O3 0.010957 0.839489 0.499565
O O4 0.000000 0.000000 0.496830
O O5 0.500000 0.500000 0.313713
O O6 0.250000 0.587535 0.309755
O O7 0.503724 0.667512 0.320246
O O8 0.431681 0.588180 0.219849
O O9 0.250000 0.763479 0.862440
O O10 0.492939 0.671734 0.858952
O O11 0.486354 0.790122 0.933305
O O12 0.250000 0.910328 0.366208
O O13 0.416514 0.915088 0.271219
O O14 0.500000 0.000000 0.362125
O O15 0.750000 0.330061 0.155686
O O16 0.457339 0.306745 0.143473
O O17 0.750000 0.804345 0.133562
O O18 0.012251 0.841059 0.169778
O O19 0.956236 0.796401 0.054216
O O20 0.250000 0.248438 0.979687
O O21 0.250000 0.426025 0.677003
O O22 0.000000 0.500000 0.678911
#
# Coordination Sequence:
#
# PCOD9363191 Si02
#       8
#     8   8   8   8   8   8   8   8
#     4  10  19  33  54  83 116 148 182 223 272 331
#     4  11  23  40  61  87 118 154 195 241 290 343
#     4  12  25  41  61  85 114 153 197 244 293 343
#     4  10  21  38  60  89 122 156 192 234 284 343
#     4   9  19  34  55  83 116 150 183 222 275 335
#     4  10  20  34  56  83 111 143 182 227 278 333
#     4  10  22  40  58  78 106 144 189 235 279 331
#     4  10  20  34  55  82 114 146 179 222 275 333
#
# _framework density 19.690570000000001
#
# number of rings (size 3 to 8) (size 9 to 14) (size 15 to 20)
#    0.000    1.750    0.000    4.500    0.000    8.000 
#    0.000    3.125    0.000    3.000    0.000    0.000 
#    0.000    0.000    0.000    0.000    0.000    0.000 
#
# Total GULP energy -178586.055626 kJ/mol
# GULP energy per Si atom -5580.814238 kJ/mol
# Density = 1.964575 g / cm^3
# Si number density = 19.690570 Si / 1000 Ang^3
#
#
#
# Elastic Constant Matrix: (Units=GPa)
#
#
# Indices 1 2 3 4 5 6 
#
# 1 120.9125 43.1693 43.6769 0.0000 0.0000 0.0000
# 2 43.1693 67.4910 23.4146 0.0000 0.0000 0.0000
# 3 43.6769 23.4146 63.3545 0.0000 0.0000 0.0000
# 4 0.0000 0.0000 0.0000 -2.5131 0.0000 0.0000
# 5 0.0000 0.0000 0.0000 0.0000 28.0291 0.0000
# 6 0.0000 0.0000 0.0000 0.0000 0.0000 32.6801
#
#
#
# Elastic Compliance Matrix: (Units=1/GPa)
#
#
# Indices 1 2 3 4 5 6 
#
# 1 0.012757 -0.005860 -0.006629 0.000000 0.000000 0.000000
# 2 -0.005860 0.019688 -0.003236 0.000000 0.000000 0.000000
# 3 -0.006629 -0.003236 0.021550 0.000000 0.000000 0.000000
# 4 0.000000 0.000000 0.000000 -0.397920 0.000000 0.000000
# 5 0.000000 0.000000 0.000000 0.000000 0.035677 0.000000
# 6 0.000000 0.000000 0.000000 0.000000 0.000000 0.030600
#
#
# Mechanical properties :
#
#
# Convention : Reuss Voigt Hill
#
# Bulk Modulus (GPa) = 44.35668 52.47552 48.41610
# Shear Modulus (GPa) = -20.94843 21.07238 0.06198
#
# Velocity S-wave (km/s) = -3.26526 3.27490 0.17760
# Velocity P-wave (km/s) = 2.89135 6.40374 4.96829
#
# Compressibility (1/GPa) = 0.02254452
#
# Stress axis : x y z
#
# Youngs Moduli (GPa) = 78.38643 50.79276 46.40281
#
# Poissons Ratio (x) = 0.29765 0.30761
# Poissons Ratio (y) = 0.45935 0.15017
# Poissons Ratio (z) = 0.51964 0.16438
#
# Static dielectric constant tensor:
#      x y z
#    x 1.679890 0.000000 0.000000 
#    y 0.000000 1.713690 0.000000 
#    z 0.000000 0.000000 1.712400 
# 
# From -- ./inp_files/24337.got.cif
#   From: 2010.05.17/outbox.cif.g08.bks.cpg/sg40_13_cif.got.tgz:24337.got - 2010.06.03 18:35:42.
