data_PCOD9363002
_publ_section_title
;
Structure prediction by ZEFSAII (Michael W. Deem and Ramdas Pophale) SiO2 
 PCOD9363002
Probable space group: A M A 2
;
_chemical_formula_sum "Si O2"
_cell_formula_units_Z 56
_cell_length_a 8.927866
_cell_length_b 19.177592
_cell_length_c 18.090402
_cell_angle_alpha 90.000000
_cell_angle_beta 90.000000
_cell_angle_gamma 90.000000
_cell_volume 3097.347664
_symmetry_space_group_name_H-M "A M A 2"
_symmetry_group_IT_number 40
_symmetry_cell_setting 'orthorhombic'
loop_
_space_group_symop_operation_xyz
x,y,z
-x,-y,z
1/2-x,y,z
1/2+x,-y,z
x,1/2+y,1/2+z
-x,1/2-y,1/2+z
1/2-x,1/2+y,1/2+z
1/2+x,1/2-y,1/2+z
loop_
_atom_site_type_symbol
_atom_site_label
_atom_site_fract_x
_atom_site_fract_y
_atom_site_fract_z
Si Si1 0.432579 0.204634 0.698300
Si Si2 0.573295 0.429960 0.842829
Si Si3 0.422576 0.934623 0.182408
Si Si4 0.920053 0.705067 0.837069
Si Si5 0.579776 0.849578 0.923925
Si Si6 0.077240 0.804852 0.073026
Si Si7 0.570060 0.076363 0.786480
O O1 0.250000 0.198521 0.701849
O O2 0.475322 0.263830 0.758876
O O3 0.473398 0.235431 0.617749
O O4 0.505766 0.133242 0.727601
O O5 0.500000 0.500000 0.875254
O O6 0.750000 0.435278 0.845746
O O7 0.513391 0.425762 0.758294
O O8 0.516260 0.356136 0.872850
O O9 0.250000 0.951341 0.199899
O O10 0.424712 0.866162 0.133574
O O11 0.500000 0.000000 0.142386
O O12 0.750000 0.678600 0.825719
O O13 0.915644 0.773177 0.887176
O O14 0.750000 0.877043 0.926886
O O15 0.483627 0.896790 0.867687
O O16 0.514358 0.834476 0.004392
O O17 0.250000 0.793595 0.049865
O O18 0.750000 0.074409 0.783051
O O19 0.500000 0.000000 0.773427
#
# Coordination Sequence:
#
# PCOD9363002 Si02
#       7
#     8   8   8   8   8   8   8
#     4   9  18  35  57  80 109 144 180 226 278 324
#     4  11  20  29  47  73 100 131 168 210 253 302
#     4  10  19  32  47  70 103 139 171 207 251 298
#     4   9  17  34  53  72 102 137 173 216 265 314
#     4  10  22  37  55  79 110 145 180 223 275 330
#     4  10  20  35  54  77 111 149 183 222 271 326
#     4  11  22  38  60  85 112 145 189 236 284 339
#
# _framework density 18.079986000000002
#
# number of rings (size 3 to 8) (size 9 to 14) (size 15 to 20)
#    0.000    2.000    1.429    5.143    0.000    5.143 
#    0.000    1.429    0.000    0.857    0.000    6.000 
#    0.000    0.000    0.000    0.000    0.000    0.000 
#
# Total GULP energy -156066.169324 kJ/mol
# GULP energy per Si atom -5573.791762 kJ/mol
# Density = 1.803884 g / cm^3
# Si number density = 18.079986 Si / 1000 Ang^3
#
#
#
# Elastic Constant Matrix: (Units=GPa)
#
#
# Indices 1 2 3 4 5 6 
#
# 1 103.2703 46.1061 4.9460 0.0000 0.0000 0.0000
# 2 46.1061 112.5708 5.8051 0.0000 0.0000 0.0000
# 3 4.9460 5.8051 26.9790 0.0000 0.0000 0.0000
# 4 0.0000 0.0000 0.0000 10.7807 0.0000 0.0000
# 5 0.0000 0.0000 0.0000 0.0000 162.2252 0.0000
# 6 0.0000 0.0000 0.0000 0.0000 0.0000 31.3819
#
#
#
# Elastic Compliance Matrix: (Units=1/GPa)
#
#
# Indices 1 2 3 4 5 6 
#
# 1 0.011885 -0.004809 -0.001144 0.000000 0.000000 0.000000
# 2 -0.004809 0.010929 -0.001470 0.000000 0.000000 0.000000
# 3 -0.001144 -0.001470 0.037592 0.000000 0.000000 0.000000
# 4 0.000000 0.000000 0.000000 0.092759 0.000000 0.000000
# 5 0.000000 0.000000 0.000000 0.000000 0.006164 0.000000
# 6 0.000000 0.000000 0.000000 0.000000 0.000000 0.031866
#
#
# Mechanical properties :
#
#
# Convention : Reuss Voigt Hill
#
# Bulk Modulus (GPa) = 21.94917 39.61493 30.78205
# Shear Modulus (GPa) = 22.60128 53.27509 37.93819
#
# Velocity S-wave (km/s) = 3.53947 5.43418 4.58575
# Velocity P-wave (km/s) = 5.37310 7.83149 6.71574
#
# Compressibility (1/GPa) = 0.04555981
#
# Stress axis : x y z
#
# Youngs Moduli (GPa) = 84.13919 91.50250 26.60150
#
# Poissons Ratio (x) = 0.44002 0.03044
# Poissons Ratio (y) = 0.40461 0.03910
# Poissons Ratio (z) = 0.09627 0.13450
#
# Static dielectric constant tensor:
#      x y z
#    x 1.592160 0.000000 0.000000 
#    y 0.000000 1.681270 0.000000 
#    z 0.000000 0.000000 1.632400 
# 
# From -- ./inp_files/19483.got.cif
#   From: 2010.05.17/outbox.cif.g08.bks.cpg/sg40_10_cif.got.tgz:19483.got - 2010.06.03 18:35:42.
