data_PCOD9363289
_publ_section_title
;
Structure prediction by ZEFSAII (Michael W. Deem and Ramdas Pophale) SiO2 
 PCOD9363289
Probable space group: A M A 2
;
_chemical_formula_sum "Si O2"
_cell_formula_units_Z 64
_cell_length_a 8.605321
_cell_length_b 21.175955
_cell_length_c 20.227880
_cell_angle_alpha 90.000000
_cell_angle_beta 90.000000
_cell_angle_gamma 90.000000
_cell_volume 3686.043441
_symmetry_space_group_name_H-M "A M A 2"
_symmetry_group_IT_number 40
_symmetry_cell_setting 'orthorhombic'
loop_
_space_group_symop_operation_xyz
x,y,z
-x,-y,z
1/2-x,y,z
1/2+x,-y,z
x,1/2+y,1/2+z
-x,1/2-y,1/2+z
1/2-x,1/2+y,1/2+z
1/2+x,1/2-y,1/2+z
loop_
_atom_site_type_symbol
_atom_site_label
_atom_site_fract_x
_atom_site_fract_y
_atom_site_fract_z
Si Si1 0.561601 0.736467 0.042420
Si Si2 0.937813 0.734223 0.189613
Si Si3 0.937835 0.884862 0.039649
Si Si4 0.565864 0.067041 0.903469
Si Si5 0.564327 0.813658 0.824320
Si Si6 0.061487 0.617581 0.686639
Si Si7 0.563883 0.933150 0.325712
Si Si8 0.438171 0.813242 0.403511
O O1 0.750000 0.735061 0.042864
O O2 0.511816 0.715292 0.115472
O O3 0.521557 0.810376 0.033103
O O4 0.509853 0.696848 0.979258
O O5 0.750000 0.730348 0.193633
O O6 0.980204 0.808568 0.196253
O O7 0.010450 0.695145 0.249037
O O8 0.750000 0.889876 0.035584
O O9 0.989182 0.904175 0.113668
O O10 0.010599 0.921519 0.978833
O O11 0.750000 0.065704 0.901375
O O12 0.504792 0.125278 0.859933
O O13 0.500000 0.000000 0.880214
O O14 0.750000 0.817574 0.828065
O O15 0.516159 0.749834 0.863231
O O16 0.250000 0.615849 0.685568
O O17 0.007108 0.579271 0.750259
O O18 0.750000 0.934167 0.325201
O O19 0.507106 0.874808 0.369547
O O20 0.500000 0.000000 0.349343
O O21 0.250000 0.817096 0.402002
#
# Coordination Sequence:
#
# PCOD9363289 Si02
#       8
#     8   8   8   8   8   8   8   8
#     4   8  15  30  55  81 109 143 176 216 268 321
#     4   9  16  31  55  82 109 140 179 220 267 319
#     4   9  16  33  55  78 109 145 181 218 265 319
#     4  12  25  39  55  78 109 146 186 227 273 325
#     4  11  21  35  57  83 112 143 179 224 272 321
#     4   8  16  30  52  77 108 146 182 218 262 318
#     4  11  22  36  52  76 108 146 185 226 270 317
#     4  10  19  34  56  81 107 142 182 222 268 317
#
# _framework density 17.36279
#
# number of rings (size 3 to 8) (size 9 to 14) (size 15 to 20)
#    0.000    2.250    2.500    3.375    0.000    1.000 
#    0.000    5.625    0.000    0.750    0.000    3.500 
#    0.000    0.000    0.000    0.000    0.000    0.000 
#
# Total GULP energy -178538.311863 kJ/mol
# GULP energy per Si atom -5579.322246 kJ/mol
# Density = 1.732327 g / cm^3
# Si number density = 17.362790 Si / 1000 Ang^3
#
#
#
# Elastic Constant Matrix: (Units=GPa)
#
#
# Indices 1 2 3 4 5 6 
#
# 1 42.1995 37.6685 32.1447 0.0000 0.0000 0.0000
# 2 37.6685 120.8998 70.3890 0.0000 0.0000 0.0000
# 3 32.1447 70.3890 124.8849 0.0000 0.0000 0.0000
# 4 0.0000 0.0000 0.0000 18.6683 0.0000 0.0000
# 5 0.0000 0.0000 0.0000 0.0000 24.3601 0.0000
# 6 0.0000 0.0000 0.0000 0.0000 0.0000 21.0196
#
#
#
# Elastic Compliance Matrix: (Units=1/GPa)
#
#
# Indices 1 2 3 4 5 6 
#
# 1 0.034223 -0.008237 -0.004166 0.000000 0.000000 0.000000
# 2 -0.008237 0.014294 -0.005936 0.000000 0.000000 0.000000
# 3 -0.004166 -0.005936 0.012426 0.000000 0.000000 0.000000
# 4 0.000000 0.000000 0.000000 0.053567 0.000000 0.000000
# 5 0.000000 0.000000 0.000000 0.000000 0.041051 0.000000
# 6 0.000000 0.000000 0.000000 0.000000 0.000000 0.047575
#
#
# Mechanical properties :
#
#
# Convention : Reuss Voigt Hill
#
# Bulk Modulus (GPa) = 41.21425 63.15428 52.18427
# Shear Modulus (GPa) = 20.16925 22.66174 21.41549
#
# Velocity S-wave (km/s) = 3.41198 3.61666 3.51581
# Velocity P-wave (km/s) = 6.26983 7.34116 6.82654
#
# Compressibility (1/GPa) = 0.02426345
#
# Stress axis : x y z
#
# Youngs Moduli (GPa) = 29.21984 69.95962 80.47939
#
# Poissons Ratio (x) = 0.57628 0.33528
# Poissons Ratio (y) = 0.24070 0.47775
# Poissons Ratio (z) = 0.12173 0.41530
#
# Static dielectric constant tensor:
#      x y z
#    x 1.588050 0.000000 0.000000 
#    y 0.000000 1.566740 0.000000 
#    z 0.000000 0.000000 1.608500 
# 
# From -- ./inp_files/22541.got.cif
#   From: 2010.05.17/outbox.cif.g08.bks.cpg/sg40_12_cif.got.tgz:22541.got - 2010.06.03 18:35:42.
