data_PCOD9363566
_publ_section_title
;
Structure prediction by ZEFSAII (Michael W. Deem and Ramdas Pophale) SiO2 
 PCOD9363566
Probable space group: A M A 2
;
_chemical_formula_sum "Si O2"
_cell_formula_units_Z 40
_cell_length_a 18.141025
_cell_length_b 12.442327
_cell_length_c 7.959287
_cell_angle_alpha 90.000000
_cell_angle_beta 90.000000
_cell_angle_gamma 90.000000
_cell_volume 1796.542923
_symmetry_space_group_name_H-M "A M A 2"
_symmetry_group_IT_number 40
_symmetry_cell_setting 'orthorhombic'
loop_
_space_group_symop_operation_xyz
x,y,z
-x,-y,z
1/2-x,y,z
1/2+x,-y,z
x,1/2+y,1/2+z
-x,1/2-y,1/2+z
1/2-x,1/2+y,1/2+z
1/2+x,1/2-y,1/2+z
loop_
_atom_site_type_symbol
_atom_site_label
_atom_site_fract_x
_atom_site_fract_y
_atom_site_fract_z
Si Si1 0.412974 0.028914 0.876230
Si Si2 0.087545 0.829526 0.687682
Si Si3 0.167211 0.741040 0.379795
Si Si4 0.034844 0.643649 0.902291
Si Si5 0.897323 0.548293 0.744513
O O1 0.389978 0.148578 0.825726
O O2 0.500000 0.000000 0.874809
O O3 0.380557 0.941371 0.750353
O O4 0.385712 0.005171 0.064957
O O5 0.144448 0.766918 0.570782
O O6 0.067494 0.756962 0.848051
O O7 0.015871 0.849926 0.567579
O O8 0.250000 0.701172 0.363305
O O9 0.157643 0.855284 0.286970
O O10 0.093436 0.546748 0.883638
O O11 0.976122 0.610224 0.756428
#
# Coordination Sequence:
#
# PCOD9363566 Si02
#       5
#     8   8   8   8   8
#     4  12  23  41  73 103 131 178 228 294 342 401
#     4  11  23  39  70  99 141 171 220 284 346 409
#     4  11  26  46  65  95 140 188 231 280 344 422
#     4  10  19  39  63 104 136 164 216 284 349 398
#     4  10  20  41  61  96 134 170 219 276 336 403
#
# _framework density 22.264983999999998
#
# number of rings (size 3 to 8) (size 9 to 14) (size 15 to 20)
#    0.000    1.200    4.000    3.600    5.600    1.600 
#    0.000    0.000    0.000    0.000    0.000    0.000 
#    0.000    0.000    0.000    0.000    0.000    0.000 
#
# Total GULP energy -111708.031605 kJ/mol
# GULP energy per Si atom -5585.401580 kJ/mol
# Density = 2.221431 g / cm^3
# Si number density = 22.264984 Si / 1000 Ang^3
#
#
#
# Elastic Constant Matrix: (Units=GPa)
#
#
# Indices 1 2 3 4 5 6 
#
# 1 71.7070 27.4113 7.4247 0.0000 0.0000 0.0000
# 2 27.4113 142.9706 25.0674 0.0000 0.0000 0.0000
# 3 7.4247 25.0674 53.0305 0.0000 0.0000 0.0000
# 4 0.0000 0.0000 0.0000 48.2685 0.0000 0.0000
# 5 0.0000 0.0000 0.0000 0.0000 10.3298 0.0000
# 6 0.0000 0.0000 0.0000 0.0000 0.0000 18.6606
#
#
#
# Elastic Compliance Matrix: (Units=1/GPa)
#
#
# Indices 1 2 3 4 5 6 
#
# 1 0.015081 -0.002749 -0.000812 0.000000 0.000000 0.000000
# 2 -0.002749 0.008128 -0.003457 0.000000 0.000000 0.000000
# 3 -0.000812 -0.003457 0.020605 0.000000 0.000000 0.000000
# 4 0.000000 0.000000 0.000000 0.020717 0.000000 0.000000
# 5 0.000000 0.000000 0.000000 0.000000 0.096807 0.000000
# 6 0.000000 0.000000 0.000000 0.000000 0.000000 0.053589
#
#
# Mechanical properties :
#
#
# Convention : Reuss Voigt Hill
#
# Bulk Modulus (GPa) = 33.58284 43.05721 38.32003
# Shear Modulus (GPa) = 20.93030 29.30543 25.11786
#
# Velocity S-wave (km/s) = 3.06936 3.63190 3.36241
# Velocity P-wave (km/s) = 5.26092 6.08014 5.68530
#
# Compressibility (1/GPa) = 0.02977711
#
# Stress axis : x y z
#
# Youngs Moduli (GPa) = 66.31059 123.03706 48.53217
#
# Poissons Ratio (x) = 0.33823 0.03941
# Poissons Ratio (y) = 0.18229 0.16778
# Poissons Ratio (z) = 0.05384 0.42534
#
# Static dielectric constant tensor:
#      x y z
#    x 1.843380 0.000000 0.000000 
#    y 0.000000 1.869220 0.000000 
#    z 0.000000 0.000000 1.833910 
# 
# From -- ./inp_files/8104.got.cif
#   From: 2010.05.17/outbox.cif.g08.bks.cpg/sg40_5_cif.got.tgz:8104.got - 2010.06.03 18:35:42.
