data_PCOD9363325
_publ_section_title
;
Structure prediction by ZEFSAII (Michael W. Deem and Ramdas Pophale) SiO2 
 PCOD9363325
Probable space group: A M A 2
;
_chemical_formula_sum "Si O2"
_cell_formula_units_Z 56
_cell_length_a 17.808725
_cell_length_b 27.622108
_cell_length_c 5.728983
_cell_angle_alpha 90.000000
_cell_angle_beta 90.000000
_cell_angle_gamma 90.000000
_cell_volume 2818.169953
_symmetry_space_group_name_H-M "A M A 2"
_symmetry_group_IT_number 40
_symmetry_cell_setting 'orthorhombic'
loop_
_space_group_symop_operation_xyz
x,y,z
-x,-y,z
1/2-x,y,z
1/2+x,-y,z
x,1/2+y,1/2+z
-x,1/2-y,1/2+z
1/2-x,1/2+y,1/2+z
1/2+x,1/2-y,1/2+z
loop_
_atom_site_type_symbol
_atom_site_label
_atom_site_fract_x
_atom_site_fract_y
_atom_site_fract_z
Si Si1 0.998049 0.303391 0.839690
Si Si2 0.750000 0.279682 0.762787
Si Si3 0.593001 0.877648 0.627302
Si Si4 0.087482 0.482591 0.455306
Si Si5 0.750000 0.837611 0.764347
Si Si6 0.104043 0.783794 0.695962
Si Si7 0.412806 0.518949 0.946915
Si Si8 0.954408 0.124255 0.947005
O O1 0.963317 0.252620 0.766162
O O2 0.008435 0.345325 0.652924
O O3 0.939478 0.327817 0.019505
O O4 0.082276 0.293782 0.929452
O O5 0.750000 0.311171 0.519637
O O6 0.821847 0.245162 0.746608
O O7 0.750000 0.306950 0.015680
O O8 0.672773 0.867707 0.744954
O O9 0.595870 0.923076 0.454742
O O10 0.525989 0.892411 0.798023
O O11 0.117189 0.498545 0.197984
O O12 0.089574 0.424778 0.490763
O O13 0.000000 0.500000 0.453048
O O14 0.120900 0.503273 0.697082
O O15 0.095550 0.835466 0.817351
O O16 0.500000 0.500000 0.942285
#
# Coordination Sequence:
#
# PCOD9363325 Si02
#       8
#     8   4   8   8   4   8   8   8
#     4  11  21  37  61  94 123 164 217 276 316 381
#     4  12  28  48  62  92 139 185 210 268 340 407
#     4  11  23  39  63  95 131 168 220 269 337 398
#     4  10  19  34  57  94 121 155 197 261 325 369
#     4  12  28  42  66  92 133 181 214 264 336 411
#     4  11  24  38  63  91 130 170 218 268 327 385
#     4  10  19  35  59  91 123 158 194 258 318 384
#     4  11  22  37  64  94 126 167 222 278 318 388
#
# _framework density 19.871051999999999
#
# number of rings (size 3 to 8) (size 9 to 14) (size 15 to 20)
#    0.000    1.143    5.714    2.571    6.000    0.000 
#    0.000    0.000    0.000    1.714    0.000    0.000 
#    0.000    0.000    0.000    0.000    0.000    0.000 
#
# Total GULP energy -155934.778106 kJ/mol
# GULP energy per Si atom -5569.099218 kJ/mol
# Density = 1.982582 g / cm^3
# Si number density = 19.871052 Si / 1000 Ang^3
#
#
#
# Elastic Constant Matrix: (Units=GPa)
#
#
# Indices 1 2 3 4 5 6 
#
# 1 34.8902 10.1181 7.6390 0.0000 0.0000 0.0000
# 2 10.1181 119.7435 32.9113 0.0000 0.0000 0.0000
# 3 7.6390 32.9113 104.5449 0.0000 0.0000 0.0000
# 4 0.0000 0.0000 0.0000 77.7075 0.0000 0.0000
# 5 0.0000 0.0000 0.0000 0.0000 7.2677 0.0000
# 6 0.0000 0.0000 0.0000 0.0000 0.0000 10.0176
#
#
#
# Elastic Compliance Matrix: (Units=1/GPa)
#
#
# Indices 1 2 3 4 5 6 
#
# 1 0.029596 -0.002087 -0.001506 0.000000 0.000000 0.000000
# 2 -0.002087 0.009289 -0.002772 0.000000 0.000000 0.000000
# 3 -0.001506 -0.002772 0.010548 0.000000 0.000000 0.000000
# 4 0.000000 0.000000 0.000000 0.012869 0.000000 0.000000
# 5 0.000000 0.000000 0.000000 0.000000 0.137595 0.000000
# 6 0.000000 0.000000 0.000000 0.000000 0.000000 0.099824
#
#
# Mechanical properties :
#
#
# Convention : Reuss Voigt Hill
#
# Bulk Modulus (GPa) = 27.24457 40.05729 33.65093
# Shear Modulus (GPa) = 15.39957 32.89925 24.14941
#
# Velocity S-wave (km/s) = 2.78686 4.07337 3.48991
# Velocity P-wave (km/s) = 4.90876 6.50580 5.76287
#
# Compressibility (1/GPa) = 0.03670456
#
# Stress axis : x y z
#
# Youngs Moduli (GPa) = 33.78813 107.64993 94.80585
#
# Poissons Ratio (x) = 0.22467 0.14274
# Poissons Ratio (y) = 0.07052 0.26279
# Poissons Ratio (z) = 0.05087 0.29839
#
# Static dielectric constant tensor:
#      x y z
#    x 1.637310 0.000000 0.000000 
#    y 0.000000 1.711240 0.000000 
#    z 0.000000 0.000000 1.847060 
# 
# From -- ./inp_files/1960.got.cif
#   From: 2010.05.17/outbox.cif.g08.bks.cpg/sg40_1_cif.got.tgz:1960.got - 2010.06.03 18:35:42.
