data_PCOD9363012
_publ_section_title
;
Structure prediction by ZEFSAII (Michael W. Deem and Ramdas Pophale) SiO2 
 PCOD9363012
Probable space group: A M A 2
;
_chemical_formula_sum "Si O2"
_cell_formula_units_Z 64
_cell_length_a 9.043419
_cell_length_b 13.480777
_cell_length_c 29.845305
_cell_angle_alpha 90.000000
_cell_angle_beta 90.000000
_cell_angle_gamma 90.000000
_cell_volume 3638.510220
_symmetry_space_group_name_H-M "A M A 2"
_symmetry_group_IT_number 40
_symmetry_cell_setting 'orthorhombic'
loop_
_space_group_symop_operation_xyz
x,y,z
-x,-y,z
1/2-x,y,z
1/2+x,-y,z
x,1/2+y,1/2+z
-x,1/2-y,1/2+z
1/2-x,1/2+y,1/2+z
1/2+x,1/2-y,1/2+z
loop_
_atom_site_type_symbol
_atom_site_label
_atom_site_fract_x
_atom_site_fract_y
_atom_site_fract_z
Si Si1 0.574075 0.099991 0.332470
Si Si2 0.428430 0.391633 0.009703
Si Si3 0.073347 0.214214 0.692899
Si Si4 0.076581 0.296520 0.104337
Si Si5 0.574420 0.315285 0.291347
Si Si6 0.424179 0.401279 0.377501
Si Si7 0.923635 0.894723 0.153248
Si Si8 0.073348 0.188521 0.420259
O O1 0.750000 0.086414 0.337669
O O2 0.550031 0.198661 0.302791
O O3 0.498951 0.124043 0.380398
O O4 0.500000 0.000000 0.314129
O O5 0.500000 0.500000 0.010765
O O6 0.250000 0.396741 0.006177
O O7 0.467428 0.337143 0.056318
O O8 0.496360 0.336932 0.966844
O O9 0.250000 0.221864 0.691399
O O10 0.030640 0.165895 0.740020
O O11 0.013213 0.163836 0.647428
O O12 0.002204 0.324476 0.689995
O O13 0.250000 0.318599 0.111177
O O14 0.060086 0.177037 0.109670
O O15 0.750000 0.333613 0.296326
O O16 0.488388 0.377349 0.328338
O O17 0.500000 0.500000 0.395561
O O18 0.250000 0.416335 0.374530
O O19 0.452276 0.303052 0.406756
O O20 0.750000 0.905739 0.162657
O O21 0.000000 0.000000 0.148800
O O22 0.250000 0.170647 0.422005
#
# Coordination Sequence:
#
# PCOD9363012 Si02
#       8
#     8   8   8   8   8   8   8   8
#     4  10  19  32  49  73 107 144 178 218 265 315
#     4  11  22  38  59  83 109 140 177 219 270 323
#     4   9  17  31  52  76 105 140 178 222 267 310
#     4   8  19  36  52  73 106 142 179 222 268 320
#     4   9  19  34  52  77 109 143 183 224 266 315
#     4  10  21  37  59  82 108 142 180 220 267 319
#     4   9  17  31  50  74 103 139 179 219 264 317
#     4  10  21  37  56  81 108 138 176 217 265 320
#
# _framework density 17.589617000000001
#
# number of rings (size 3 to 8) (size 9 to 14) (size 15 to 20)
#    0.750    1.750    0.000    2.250    0.000    4.500 
#    0.000    2.500    0.000    4.500    0.000    0.000 
#    0.000    0.000    0.000    0.000    0.000    0.000 
#
# Total GULP energy -178281.994920 kJ/mol
# GULP energy per Si atom -5571.312341 kJ/mol
# Density = 1.754958 g / cm^3
# Si number density = 17.589617 Si / 1000 Ang^3
#
#
#
# Elastic Constant Matrix: (Units=GPa)
#
#
# Indices 1 2 3 4 5 6 
#
# 1 48.1279 13.9480 23.1615 0.0000 0.0000 0.0000
# 2 13.9480 31.1448 -7.0019 0.0000 0.0000 0.0000
# 3 23.1615 -7.0019 84.2812 0.0000 0.0000 0.0000
# 4 0.0000 0.0000 0.0000 8.5745 0.0000 0.0000
# 5 0.0000 0.0000 0.0000 0.0000 24.9826 0.0000
# 6 0.0000 0.0000 0.0000 0.0000 0.0000 25.2108
#
#
#
# Elastic Compliance Matrix: (Units=1/GPa)
#
#
# Indices 1 2 3 4 5 6 
#
# 1 0.029833 -0.015493 -0.009486 0.000000 0.000000 0.000000
# 2 -0.015493 0.040765 0.007644 0.000000 0.000000 0.000000
# 3 -0.009486 0.007644 0.015107 0.000000 0.000000 0.000000
# 4 0.000000 0.000000 0.000000 0.116625 0.000000 0.000000
# 5 0.000000 0.000000 0.000000 0.000000 0.040028 0.000000
# 6 0.000000 0.000000 0.000000 0.000000 0.000000 0.039665
#
#
# Mechanical properties :
#
#
# Convention : Reuss Voigt Hill
#
# Bulk Modulus (GPa) = 19.59388 24.86325 22.22857
# Shear Modulus (GPa) = 14.98336 20.65001 17.81669
#
# Velocity S-wave (km/s) = 2.92178 3.43007 3.18608
# Velocity P-wave (km/s) = 4.74827 5.46379 5.11855
#
# Compressibility (1/GPa) = 0.05103635
#
# Stress axis : x y z
#
# Youngs Moduli (GPa) = 33.52000 24.53080 66.19515
#
# Poissons Ratio (x) = 0.38006 0.62790
# Poissons Ratio (y) = 0.51933 -0.50602
# Poissons Ratio (z) = 0.31796 -0.18752
#
# Static dielectric constant tensor:
#      x y z
#    x 1.584760 0.000000 0.000000 
#    y 0.000000 1.602900 0.000000 
#    z 0.000000 0.000000 1.591080 
# 
# From -- ./inp_files/26444.got.cif
#   From: 2010.05.17/outbox.cif.g08.bks.cpg/sg40_14_cif.got.tgz:26444.got - 2010.06.03 18:35:42.
