data_PCOD9363884
_publ_section_title
;
Structure prediction by ZEFSAII (Michael W. Deem and Ramdas Pophale) SiO2 
 PCOD9363884
Probable space group: A M A 2
;
_chemical_formula_sum "Si O2"
_cell_formula_units_Z 48
_cell_length_a 8.867706
_cell_length_b 22.912298
_cell_length_c 11.595957
_cell_angle_alpha 90.000000
_cell_angle_beta 90.000000
_cell_angle_gamma 90.000000
_cell_volume 2356.061006
_symmetry_space_group_name_H-M "A M A 2"
_symmetry_group_IT_number 40
_symmetry_cell_setting 'orthorhombic'
loop_
_space_group_symop_operation_xyz
x,y,z
-x,-y,z
1/2-x,y,z
1/2+x,-y,z
x,1/2+y,1/2+z
-x,1/2-y,1/2+z
1/2-x,1/2+y,1/2+z
1/2+x,1/2-y,1/2+z
loop_
_atom_site_type_symbol
_atom_site_label
_atom_site_fract_x
_atom_site_fract_y
_atom_site_fract_z
Si Si1 0.570548 0.145178 0.408870
Si Si2 0.070814 0.936725 0.849797
Si Si3 0.069948 0.266817 0.706067
Si Si4 0.921173 0.441528 0.742182
Si Si5 0.929174 0.863712 0.658873
Si Si6 0.420662 0.149215 0.031601
O O1 0.750000 0.148126 0.427567
O O2 0.525823 0.197301 0.320703
O O3 0.522985 0.086891 0.341004
O O4 0.483068 0.144760 0.528348
O O5 0.250000 0.941112 0.855845
O O6 0.015270 0.915155 0.724479
O O7 0.000000 0.000000 0.877663
O O8 0.012332 0.885791 0.935268
O O9 0.250000 0.274186 0.692355
O O10 0.036638 0.198713 0.718131
O O11 0.992967 0.294088 0.591926
O O12 0.750000 0.451896 0.782283
O O13 0.914398 0.396124 0.637815
O O14 0.000000 0.500000 0.700619
O O15 0.750000 0.873929 0.664437
O O16 0.250000 0.161607 0.990725
#
# Coordination Sequence:
#
# PCOD9363884 Si02
#       6
#     8   8   8   8   8   8
#     4  10  21  39  60  87 120 158 202 251 304 366
#     4  12  26  44  65  92 127 170 216 262 317 379
#     4   9  21  40  63  92 126 162 204 256 313 371
#     4  10  20  35  58  88 119 157 199 249 303 360
#     4  11  24  42  63  91 125 164 207 257 314 375
#     4  10  21  38  63  94 127 163 206 257 309 366
#
# _framework density 20.372986000000001
#
# number of rings (size 3 to 8) (size 9 to 14) (size 15 to 20)
#    0.000    1.667    0.000    4.000    2.333    6.000 
#    0.000    3.333    0.000    0.000    0.000    0.000 
#    0.000    0.000    0.000    0.000    0.000    0.000 
#
# Total GULP energy -134119.040170 kJ/mol
# GULP energy per Si atom -5588.293340 kJ/mol
# Density = 2.032662 g / cm^3
# Si number density = 20.372986 Si / 1000 Ang^3
#
#
#
# Elastic Constant Matrix: (Units=GPa)
#
#
# Indices 1 2 3 4 5 6 
#
# 1 94.4713 33.8709 31.9748 0.0000 0.0000 0.0000
# 2 33.8709 56.7038 11.4646 0.0000 0.0000 0.0000
# 3 31.9748 11.4646 75.8883 0.0000 0.0000 0.0000
# 4 0.0000 0.0000 0.0000 14.5016 0.0000 0.0000
# 5 0.0000 0.0000 0.0000 0.0000 36.0398 0.0000
# 6 0.0000 0.0000 0.0000 0.0000 0.0000 25.9161
#
#
#
# Elastic Compliance Matrix: (Units=1/GPa)
#
#
# Indices 1 2 3 4 5 6 
#
# 1 0.015231 -0.008046 -0.005202 0.000000 0.000000 0.000000
# 2 -0.008046 0.022442 0.000000 0.000000 0.000000 0.000000
# 3 -0.005202 0.000000 0.015369 0.000000 0.000000 0.000000
# 4 0.000000 0.000000 0.000000 0.068958 0.000000 0.000000
# 5 0.000000 0.000000 0.000000 0.000000 0.027747 0.000000
# 6 0.000000 0.000000 0.000000 0.000000 0.000000 0.038586
#
#
# Mechanical properties :
#
#
# Convention : Reuss Voigt Hill
#
# Bulk Modulus (GPa) = 37.67135 42.40934 40.04034
# Shear Modulus (GPa) = 22.35371 25.27503 23.81437
#
# Velocity S-wave (km/s) = 3.31603 3.52606 3.42265
# Velocity P-wave (km/s) = 5.76128 6.11875 5.94270
#
# Compressibility (1/GPa) = 0.02654537
#
# Stress axis : x y z
#
# Youngs Moduli (GPa) = 65.65761 44.55998 65.06614
#
# Poissons Ratio (x) = 0.35853 0.33846
# Poissons Ratio (y) = 0.52828 0.00001
# Poissons Ratio (z) = 0.34153 0.00001
#
# Static dielectric constant tensor:
#      x y z
#    x 1.697060 0.000000 0.000000 
#    y 0.000000 1.729420 0.000000 
#    z 0.000000 0.000000 1.725980 
# 
# From -- ./inp_files/10321.got.cif
#   From: 2010.05.17/outbox.cif.g08.bks.cpg/sg40_6_cif.got.tgz:10321.got - 2010.06.03 18:35:42.
