data_PCOD9363177
_publ_section_title
;
Structure prediction by ZEFSAII (Michael W. Deem and Ramdas Pophale) SiO2 
 PCOD9363177
Probable space group: A M A 2
;
_chemical_formula_sum "Si O2"
_cell_formula_units_Z 40
_cell_length_a 8.281044
_cell_length_b 9.329032
_cell_length_c 27.232798
_cell_angle_alpha 90.000000
_cell_angle_beta 90.000000
_cell_angle_gamma 90.000000
_cell_volume 2103.845966
_symmetry_space_group_name_H-M "A M A 2"
_symmetry_group_IT_number 40
_symmetry_cell_setting 'orthorhombic'
loop_
_space_group_symop_operation_xyz
x,y,z
-x,-y,z
1/2-x,y,z
1/2+x,-y,z
x,1/2+y,1/2+z
-x,1/2-y,1/2+z
1/2-x,1/2+y,1/2+z
1/2+x,1/2-y,1/2+z
loop_
_atom_site_type_symbol
_atom_site_label
_atom_site_fract_x
_atom_site_fract_y
_atom_site_fract_z
Si Si1 0.445443 0.165077 0.681340
Si Si2 0.945459 0.163459 0.277013
Si Si3 0.944728 0.834616 0.574392
Si Si4 0.942747 0.336965 0.372588
Si Si5 0.056330 0.664996 0.967313
O O1 0.250000 0.165586 0.681693
O O2 0.502426 0.258612 0.727230
O O3 0.499758 0.222381 0.627551
O O4 0.500000 0.000000 0.686487
O O5 0.750000 0.166748 0.276957
O O6 0.003313 0.249746 0.324976
O O7 0.000000 0.000000 0.278954
O O8 0.750000 0.828901 0.574330
O O9 0.999702 0.778271 0.521177
O O10 0.000000 0.000000 0.574522
O O11 0.750000 0.335867 0.370775
O O12 0.000000 0.500000 0.371189
O O13 0.995674 0.258799 0.422332
O O14 0.250000 0.665319 0.966816
O O15 0.000000 0.500000 0.962073
#
# Coordination Sequence:
#
# PCOD9363177 Si02
#       5
#     8   8   8   8   8
#     4   9  17  32  53  78 105 134 169 210 252 299
#     4  10  22  37  54  76 103 134 170 210 256 307
#     4   8  15  28  49  75 104 135 169 207 249 296
#     4  11  23  38  55  77 103 135 173 215 262 313
#     4  10  19  33  54  80 108 140 175 214 256 303
#
# _framework density 19.012798
#
# number of rings (size 3 to 8) (size 9 to 14) (size 15 to 20)
#    0.000    2.400    0.000    2.400    0.000    4.800 
#    0.000    1.000    0.000    2.400    0.000    0.000 
#    0.000    0.000    0.000    0.000    0.000    0.000 
#
# Total GULP energy -111516.975799 kJ/mol
# GULP energy per Si atom -5575.848790 kJ/mol
# Density = 1.896952 g / cm^3
# Si number density = 19.012798 Si / 1000 Ang^3
#
#
#
# Elastic Constant Matrix: (Units=GPa)
#
#
# Indices 1 2 3 4 5 6 
#
# 1 18.9913 12.6945 27.4785 0.0000 0.0000 0.0000
# 2 12.6945 113.3161 108.4145 0.0000 0.0000 0.0000
# 3 27.4785 108.4145 253.9419 0.0000 0.0000 0.0000
# 4 0.0000 0.0000 0.0000 33.2555 0.0000 0.0000
# 5 0.0000 0.0000 0.0000 0.0000 20.6907 0.0000
# 6 0.0000 0.0000 0.0000 0.0000 0.0000 29.4418
#
#
#
# Elastic Compliance Matrix: (Units=1/GPa)
#
#
# Indices 1 2 3 4 5 6 
#
# 1 0.062484 -0.000898 -0.006378 0.000000 0.000000 0.000000
# 2 -0.000898 0.014931 -0.006277 0.000000 0.000000 0.000000
# 3 -0.006378 -0.006277 0.007308 0.000000 0.000000 0.000000
# 4 0.000000 0.000000 0.000000 0.030070 0.000000 0.000000
# 5 0.000000 0.000000 0.000000 0.000000 0.048331 0.000000
# 6 0.000000 0.000000 0.000000 0.000000 0.000000 0.033965
#
#
# Mechanical properties :
#
#
# Convention : Reuss Voigt Hill
#
# Bulk Modulus (GPa) = 17.35599 75.93602 46.64600
# Shear Modulus (GPa) = 20.54216 32.52173 26.53195
#
# Velocity S-wave (km/s) = 3.29057 4.14033 3.73966
# Velocity P-wave (km/s) = 4.85649 7.92985 6.57526
#
# Compressibility (1/GPa) = 0.05761701
#
# Stress axis : x y z
#
# Youngs Moduli (GPa) = 16.00409 66.97315 136.83523
#
# Poissons Ratio (x) = 0.06013 0.87273
# Poissons Ratio (y) = 0.01437 0.85897
# Poissons Ratio (z) = 0.10207 0.42042
#
# Static dielectric constant tensor:
#      x y z
#    x 1.669350 0.000000 0.000000 
#    y 0.000000 1.597200 0.000000 
#    z 0.000000 0.000000 1.724340 
# 
# From -- ./inp_files/23813.got.cif
#   From: 2010.05.17/outbox.cif.g08.bks.cpg/sg40_12_cif.got.tgz:23813.got - 2010.06.03 18:35:42.
