data_PCOD9363249
_publ_section_title
;
Structure prediction by ZEFSAII (Michael W. Deem and Ramdas Pophale) SiO2 
 PCOD9363249
Probable space group: A M A 2
;
_chemical_formula_sum "Si O2"
_cell_formula_units_Z 56
_cell_length_a 8.932038
_cell_length_b 19.206331
_cell_length_c 18.014532
_cell_angle_alpha 90.000000
_cell_angle_beta 90.000000
_cell_angle_gamma 90.000000
_cell_volume 3090.423199
_symmetry_space_group_name_H-M "A M A 2"
_symmetry_group_IT_number 40
_symmetry_cell_setting 'orthorhombic'
loop_
_space_group_symop_operation_xyz
x,y,z
-x,-y,z
1/2-x,y,z
1/2+x,-y,z
x,1/2+y,1/2+z
-x,1/2-y,1/2+z
1/2-x,1/2+y,1/2+z
1/2+x,1/2-y,1/2+z
loop_
_atom_site_type_symbol
_atom_site_label
_atom_site_fract_x
_atom_site_fract_y
_atom_site_fract_z
Si Si1 0.570933 0.712220 0.305720
Si Si2 0.420489 0.293116 0.671709
Si Si3 0.929706 0.575087 0.213040
Si Si4 0.927981 0.429134 0.660785
Si Si5 0.079723 0.652654 0.077259
Si Si6 0.422793 0.300751 0.926530
Si Si7 0.576819 0.065229 0.322195
O O1 0.750000 0.717136 0.309284
O O2 0.509195 0.765851 0.243660
O O3 0.531292 0.635426 0.273624
O O4 0.501425 0.736591 0.383825
O O5 0.250000 0.313167 0.692814
O O6 0.501859 0.357357 0.631922
O O7 0.414100 0.226619 0.619116
O O8 0.750000 0.570392 0.209956
O O9 0.000000 0.500000 0.230328
O O10 0.991844 0.601857 0.133440
O O11 0.750000 0.430438 0.655150
O O12 0.000000 0.500000 0.629473
O O13 0.982693 0.426534 0.746717
O O14 0.250000 0.627191 0.066723
O O15 0.001786 0.670327 0.999905
O O16 0.250000 0.283396 0.942161
O O17 0.427244 0.365497 0.869756
O O18 0.750000 0.049041 0.304412
O O19 0.500000 0.000000 0.362998
#
# Coordination Sequence:
#
# PCOD9363249 Si02
#       7
#     8   8   8   8   8   8   8
#     4  10  20  34  56  82 107 141 185 230 275 328
#     4  10  19  34  53  76 104 136 177 224 269 318
#     4  10  21  38  60  86 114 146 189 236 284 339
#     4  11  20  30  49  74 102 135 169 212 256 307
#     4  10  22  37  56  79 109 146 183 226 276 330
#     4  11  22  35  53  78 112 148 185 227 272 329
#     4  10  20  32  47  71 103 138 173 211 253 304
#
# _framework density 18.120494999999998
#
# number of rings (size 3 to 8) (size 9 to 14) (size 15 to 20)
#    0.000    1.714    1.429    4.714    0.000    5.714 
#    0.000    1.429    0.000    0.857    0.000    4.000 
#    0.000    0.000    0.000    0.000    0.000    0.000 
#
# Total GULP energy -156195.836590 kJ/mol
# GULP energy per Si atom -5578.422735 kJ/mol
# Density = 1.807925 g / cm^3
# Si number density = 18.120495 Si / 1000 Ang^3
#
#
#
# Elastic Constant Matrix: (Units=GPa)
#
#
# Indices 1 2 3 4 5 6 
#
# 1 122.7791 49.4460 16.0086 0.0000 0.0000 0.0000
# 2 49.4460 114.8668 5.6981 0.0000 0.0000 0.0000
# 3 16.0086 5.6981 33.5763 0.0000 0.0000 0.0000
# 4 0.0000 0.0000 0.0000 11.7117 0.0000 0.0000
# 5 0.0000 0.0000 0.0000 0.0000 23.5081 0.0000
# 6 0.0000 0.0000 0.0000 0.0000 0.0000 30.3229
#
#
#
# Elastic Compliance Matrix: (Units=1/GPa)
#
#
# Indices 1 2 3 4 5 6 
#
# 1 0.010419 -0.004275 -0.004242 0.000000 0.000000 0.000000
# 2 -0.004275 0.010533 0.000251 0.000000 0.000000 0.000000
# 3 -0.004242 0.000251 0.031763 0.000000 0.000000 0.000000
# 4 0.000000 0.000000 0.000000 0.085385 0.000000 0.000000
# 5 0.000000 0.000000 0.000000 0.000000 0.042539 0.000000
# 6 0.000000 0.000000 0.000000 0.000000 0.000000 0.032978
#
#
# Mechanical properties :
#
#
# Convention : Reuss Voigt Hill
#
# Bulk Modulus (GPa) = 27.63744 45.94749 36.79247
# Shear Modulus (GPa) = 20.64312 26.44651 23.54482
#
# Velocity S-wave (km/s) = 3.37889 3.82446 3.60856
# Velocity P-wave (km/s) = 5.52337 6.70177 6.14090
#
# Compressibility (1/GPa) = 0.03618280
#
# Stress axis : x y z
#
# Youngs Moduli (GPa) = 95.97507 94.93598 31.48315
#
# Poissons Ratio (x) = 0.40582 0.13356
# Poissons Ratio (y) = 0.41027 -0.00789
# Poissons Ratio (z) = 0.40716 -0.02378
#
# Static dielectric constant tensor:
#      x y z
#    x 1.632120 0.000000 0.000000 
#    y 0.000000 1.680320 0.000000 
#    z 0.000000 0.000000 1.614310 
# 
# From -- ./inp_files/19514.got.cif
#   From: 2010.05.17/outbox.cif.g08.bks.cpg/sg40_10_cif.got.tgz:19514.got - 2010.06.03 18:35:42.
