data_PCOD9363268
_publ_section_title
;
Structure prediction by ZEFSAII (Michael W. Deem and Ramdas Pophale) SiO2 
 PCOD9363268
Probable space group: A M A 2
;
_chemical_formula_sum "Si O2"
_cell_formula_units_Z 64
_cell_length_a 8.490460
_cell_length_b 14.790288
_cell_length_c 28.842979
_cell_angle_alpha 90.000000
_cell_angle_beta 90.000000
_cell_angle_gamma 90.000000
_cell_volume 3621.995987
_symmetry_space_group_name_H-M "A M A 2"
_symmetry_group_IT_number 40
_symmetry_cell_setting 'orthorhombic'
loop_
_space_group_symop_operation_xyz
x,y,z
-x,-y,z
1/2-x,y,z
1/2+x,-y,z
x,1/2+y,1/2+z
-x,1/2-y,1/2+z
1/2-x,1/2+y,1/2+z
1/2+x,1/2-y,1/2+z
loop_
_atom_site_type_symbol
_atom_site_label
_atom_site_fract_x
_atom_site_fract_y
_atom_site_fract_z
Si Si1 0.933106 0.354079 0.397930
Si Si2 0.565291 0.830963 0.430165
Si Si3 0.440232 0.092842 0.995407
Si Si4 0.062100 0.101660 0.613235
Si Si5 0.061289 0.294685 0.025093
Si Si6 0.939308 0.790083 0.801797
Si Si7 0.565321 0.904381 0.331876
Si Si8 0.937695 0.101126 0.715115
O O1 0.750000 0.379822 0.394409
O O2 0.004357 0.404583 0.442175
O O3 0.999548 0.350068 0.345996
O O4 0.951393 0.250918 0.415173
O O5 0.750000 0.802950 0.429613
O O6 0.516315 0.851094 0.482686
O O7 0.546400 0.900205 0.387985
O O8 0.250000 0.091446 0.994015
O O9 0.485264 0.188841 0.018225
O O10 0.500000 0.000000 0.017593
O O11 0.250000 0.101418 0.611657
O O12 0.994300 0.166591 0.573835
O O13 0.005637 0.127143 0.664831
O O14 0.000000 0.000000 0.604792
O O15 0.250000 0.300467 0.021231
O O16 0.750000 0.795806 0.801247
O O17 0.986422 0.686044 0.811289
O O18 0.007874 0.830726 0.754966
O O19 0.750000 0.898361 0.321968
O O20 0.500000 0.000000 0.314871
O O21 0.750000 0.097974 0.712403
O O22 0.000000 0.000000 0.725696
#
# Coordination Sequence:
#
# PCOD9363268 Si02
#       8
#     8   8   8   8   8   8   8   8
#     4   8  16  30  46  67  98 135 172 212 256 299
#     4   9  17  29  46  70  99 133 175 217 255 299
#     4   9  18  31  48  72 104 141 178 214 253 298
#     4  11  22  38  59  82 105 131 166 210 263 318
#     4  10  20  35  53  75 105 140 176 216 263 313
#     4  10  19  34  55  78 106 140 178 219 264 313
#     4  10  20  33  50  75 107 144 183 221 262 309
#     4  11  22  38  58  81 108 136 169 211 262 317
#
# _framework density 17.669816000000001
#
# number of rings (size 3 to 8) (size 9 to 14) (size 15 to 20)
#    0.000    2.250    0.000    5.250    0.000    5.500 
#    0.000    2.500    0.000    0.750    0.000    3.500 
#    0.000    0.000    0.000    0.000    0.000    0.000 
#
# Total GULP energy -178308.659732 kJ/mol
# GULP energy per Si atom -5572.145617 kJ/mol
# Density = 1.762960 g / cm^3
# Si number density = 17.669816 Si / 1000 Ang^3
#
#
#
# Elastic Constant Matrix: (Units=GPa)
#
#
# Indices 1 2 3 4 5 6 
#
# 1 69.6249 28.1160 31.0123 0.0000 0.0000 0.0000
# 2 28.1160 76.9180 63.7631 0.0000 0.0000 0.0000
# 3 31.0123 63.7631 122.6730 0.0000 0.0000 0.0000
# 4 0.0000 0.0000 0.0000 19.4198 0.0000 0.0000
# 5 0.0000 0.0000 0.0000 0.0000 25.8667 0.0000
# 6 0.0000 0.0000 0.0000 0.0000 0.0000 22.9332
#
#
#
# Elastic Compliance Matrix: (Units=1/GPa)
#
#
# Indices 1 2 3 4 5 6 
#
# 1 0.017095 -0.004685 -0.001887 0.000000 0.000000 0.000000
# 2 -0.004685 0.024128 -0.011357 0.000000 0.000000 0.000000
# 3 -0.001887 -0.011357 0.014532 0.000000 0.000000 0.000000
# 4 0.000000 0.000000 0.000000 0.051494 0.000000 0.000000
# 5 0.000000 0.000000 0.000000 0.000000 0.038660 0.000000
# 6 0.000000 0.000000 0.000000 0.000000 0.000000 0.043605
#
#
# Mechanical properties :
#
#
# Convention : Reuss Voigt Hill
#
# Bulk Modulus (GPa) = 50.25635 57.22207 53.73921
# Shear Modulus (GPa) = 21.55154 23.39891 22.47522
#
# Velocity S-wave (km/s) = 3.49618 3.64295 3.57032
# Velocity P-wave (km/s) = 6.69338 7.08160 6.89023
#
# Compressibility (1/GPa) = 0.01989798
#
# Stress axis : x y z
#
# Youngs Moduli (GPa) = 58.49722 41.44586 68.81476
#
# Poissons Ratio (x) = 0.19416 0.12983
# Poissons Ratio (y) = 0.27405 0.78152
# Poissons Ratio (z) = 0.11036 0.47069
#
# Static dielectric constant tensor:
#      x y z
#    x 1.602270 0.000000 0.000000 
#    y 0.000000 1.603600 0.000000 
#    z 0.000000 0.000000 1.617090 
# 
# From -- ./inp_files/24321.got.cif
#   From: 2010.05.17/outbox.cif.g08.bks.cpg/sg40_13_cif.got.tgz:24321.got - 2010.06.03 18:35:42.
