data_PCOD9363760
_publ_section_title
;
Structure prediction by ZEFSAII (Michael W. Deem and Ramdas Pophale) SiO2 
 PCOD9363760
Probable space group: A M A 2
;
_chemical_formula_sum "Si O2"
_cell_formula_units_Z 48
_cell_length_a 17.153031
_cell_length_b 10.125040
_cell_length_c 11.991782
_cell_angle_alpha 90.000000
_cell_angle_beta 90.000000
_cell_angle_gamma 90.000000
_cell_volume 2082.674238
_symmetry_space_group_name_H-M "A M A 2"
_symmetry_group_IT_number 40
_symmetry_cell_setting 'orthorhombic'
loop_
_space_group_symop_operation_xyz
x,y,z
-x,-y,z
1/2-x,y,z
1/2+x,-y,z
x,1/2+y,1/2+z
-x,1/2-y,1/2+z
1/2-x,1/2+y,1/2+z
1/2+x,1/2-y,1/2+z
loop_
_atom_site_type_symbol
_atom_site_label
_atom_site_fract_x
_atom_site_fract_y
_atom_site_fract_z
Si Si1 0.082495 0.764400 0.188200
Si Si2 0.101937 0.892333 0.484237
Si Si3 0.098880 0.778309 0.711849
Si Si4 0.839559 0.983624 0.118680
Si Si5 0.338756 0.632700 0.389680
Si Si6 0.079432 0.683208 0.942608
O O1 0.112449 0.657763 0.277705
O O2 0.989758 0.770005 0.194152
O O3 0.115516 0.912031 0.194976
O O4 0.106580 0.728032 0.063336
O O5 0.107293 0.893530 0.619902
O O6 0.159708 0.780826 0.441104
O O7 0.014836 0.838786 0.451489
O O8 0.112157 0.035113 0.431287
O O9 0.154255 0.659768 0.674382
O O10 0.103738 0.783795 0.845248
O O11 0.750000 0.025085 0.109680
O O12 0.870251 0.957621 0.991613
O O13 0.250000 0.593057 0.364374
#
# Coordination Sequence:
#
# PCOD9363760 Si02
#       6
#     8   8   8   8   8   8
#     4  11  21  35  57  88 116 149 197 240 294 356
#     4   9  19  35  54  82 110 143 190 235 287 348
#     4  10  20  36  59  84 113 149 193 245 293 345
#     4  10  22  38  58  85 115 155 201 242 294 359
#     4  10  20  37  58  80 114 153 193 239 290 351
#     4  10  20  34  56  82 114 145 185 242 292 345
#
# _framework density 23.047291999999999
#
# number of rings (size 3 to 8) (size 9 to 14) (size 15 to 20)
#    0.000    2.000    1.667    2.000    2.333    1.333 
#    0.000    3.333    0.000    4.000    0.000    0.000 
#    0.000    0.000    0.000    0.000    0.000    0.000 
#
# Total GULP energy -133867.944254 kJ/mol
# GULP energy per Si atom -5577.831011 kJ/mol
# Density = 2.299484 g / cm^3
# Si number density = 23.047292 Si / 1000 Ang^3
#
#
#
# Elastic Constant Matrix: (Units=GPa)
#
#
# Indices 1 2 3 4 5 6 
#
# 1 25.4934 -0.4800 -6.7824 0.0000 0.0000 0.0000
# 2 -0.4800 26.4073 10.2367 0.0000 0.0000 0.0000
# 3 -6.7824 10.2367 155.4083 0.0000 0.0000 0.0000
# 4 0.0000 0.0000 0.0000 27.0936 0.0000 0.0000
# 5 0.0000 0.0000 0.0000 0.0000 12.9962 0.0000
# 6 0.0000 0.0000 0.0000 0.0000 0.0000 61.8832
#
#
#
# Elastic Compliance Matrix: (Units=1/GPa)
#
#
# Indices 1 2 3 4 5 6 
#
# 1 0.039687 0.000051 0.001729 0.000000 0.000000 0.000000
# 2 0.000051 0.038861 -0.002557 0.000000 0.000000 0.000000
# 3 0.001729 -0.002557 0.006679 0.000000 0.000000 0.000000
# 4 0.000000 0.000000 0.000000 0.036909 0.000000 0.000000
# 5 0.000000 0.000000 0.000000 0.000000 0.076946 0.000000
# 6 0.000000 0.000000 0.000000 0.000000 0.000000 0.016159
#
#
# Mechanical properties :
#
#
# Convention : Reuss Voigt Hill
#
# Bulk Modulus (GPa) = 11.95162 23.69529 17.82345
# Shear Modulus (GPa) = 20.43440 34.01692 27.22566
#
# Velocity S-wave (km/s) = 2.98086 3.84599 3.44073
# Velocity P-wave (km/s) = 4.12848 5.47957 4.85129
#
# Compressibility (1/GPa) = 0.08367070
#
# Stress axis : x y z
#
# Youngs Moduli (GPa) = 25.19736 25.73301 149.73274
#
# Poissons Ratio (x) = -0.00132 -0.25883
# Poissons Ratio (y) = -0.00129 0.38294
# Poissons Ratio (z) = -0.04356 0.06581
#
# Static dielectric constant tensor:
#      x y z
#    x 1.827960 0.000000 0.000000 
#    y 0.000000 1.900710 0.000000 
#    z 0.000000 0.000000 1.965260 
# 
# From -- ./inp_files/12872.got.cif
#   From: 2010.05.17/outbox.cif.g08.bks.cpg/sg40_7_cif.got.tgz:12872.got - 2010.06.03 18:35:42.
