data_PCOD9363515
_publ_section_title
;
Structure prediction by ZEFSAII (Michael W. Deem and Ramdas Pophale) SiO2 
 PCOD9363515
Probable space group: A M A 2
;
_chemical_formula_sum "Si O2"
_cell_formula_units_Z 28
_cell_length_a 15.720328
_cell_length_b 11.294955
_cell_length_c 8.356033
_cell_angle_alpha 90.000000
_cell_angle_beta 90.000000
_cell_angle_gamma 90.000000
_cell_volume 1483.700540
_symmetry_space_group_name_H-M "A M A 2"
_symmetry_group_IT_number 40
_symmetry_cell_setting 'orthorhombic'
loop_
_space_group_symop_operation_xyz
x,y,z
-x,-y,z
1/2-x,y,z
1/2+x,-y,z
x,1/2+y,1/2+z
-x,1/2-y,1/2+z
1/2-x,1/2+y,1/2+z
1/2+x,1/2-y,1/2+z
loop_
_atom_site_type_symbol
_atom_site_label
_atom_site_fract_x
_atom_site_fract_y
_atom_site_fract_z
Si Si1 0.844549 0.568699 0.715430
Si Si2 0.053255 0.215773 0.758411
Si Si3 0.000000 0.000000 0.981442
Si Si4 0.432730 0.107800 0.408950
O O1 0.750000 0.575959 0.647232
O O2 0.870882 0.692713 0.798956
O O3 0.851656 0.459672 0.839318
O O4 0.920477 0.545295 0.588233
O O5 0.037788 0.104733 0.872657
O O6 0.070614 0.170125 0.579871
O O7 0.969010 0.296805 0.782560
O O8 0.500000 0.000000 0.423910
#
# Coordination Sequence:
#
# PCOD9363515 Si02
#       4
#     8   8   4   8
#     4  11  24  41  62  94 129 165 213 266 312 373
#     4  11  20  38  67  91 119 168 209 254 312 373
#     4  12  22  40  70  90 126 172 210 256 320 378
#     4  10  19  37  62  92 117 161 206 252 310 371
#
# _framework density 18.871732999999999
#
# number of rings (size 3 to 8) (size 9 to 14) (size 15 to 20)
#    0.000    1.143    8.571    0.000    0.000    2.286 
#    0.000    0.000    0.000    0.000    0.000    0.000 
#    0.000    0.000    0.000    0.000    0.000    0.000 
#
# Total GULP energy -77994.845181 kJ/mol
# GULP energy per Si atom -5571.060370 kJ/mol
# Density = 1.882878 g / cm^3
# Si number density = 18.871733 Si / 1000 Ang^3
#
#
#
# Elastic Constant Matrix: (Units=GPa)
#
#
# Indices 1 2 3 4 5 6 
#
# 1 116.4927 35.5161 36.0061 0.0000 0.0000 0.0000
# 2 35.5161 130.7707 52.6305 0.0000 0.0000 0.0000
# 3 36.0061 52.6305 100.8917 0.0000 0.0000 0.0000
# 4 0.0000 0.0000 0.0000 45.6624 0.0000 0.0000
# 5 0.0000 0.0000 0.0000 0.0000 9.8321 0.0000
# 6 0.0000 0.0000 0.0000 0.0000 0.0000 13.0833
#
#
#
# Elastic Compliance Matrix: (Units=1/GPa)
#
#
# Indices 1 2 3 4 5 6 
#
# 1 0.009908 -0.001605 -0.002699 0.000000 0.000000 0.000000
# 2 -0.001605 0.009939 -0.004612 0.000000 0.000000 0.000000
# 3 -0.002699 -0.004612 0.013281 0.000000 0.000000 0.000000
# 4 0.000000 0.000000 0.000000 0.021900 0.000000 0.000000
# 5 0.000000 0.000000 0.000000 0.000000 0.101707 0.000000
# 6 0.000000 0.000000 0.000000 0.000000 0.000000 0.076433
#
#
# Mechanical properties :
#
#
# Convention : Reuss Voigt Hill
#
# Bulk Modulus (GPa) = 65.37517 66.27341 65.82429
# Shear Modulus (GPa) = 19.52383 28.64907 24.08645
#
# Velocity S-wave (km/s) = 3.21994 3.90050 3.57644
# Velocity P-wave (km/s) = 6.96714 7.44844 7.21181
#
# Compressibility (1/GPa) = 0.01529633
#
# Stress axis : x y z
#
# Youngs Moduli (GPa) = 100.93270 100.61419 75.29769
#
# Poissons Ratio (x) = 0.16145 0.20321
# Poissons Ratio (y) = 0.16196 0.34727
# Poissons Ratio (z) = 0.27239 0.46403
#
# Static dielectric constant tensor:
#      x y z
#    x 1.649330 0.000000 0.000000 
#    y 0.000000 1.703240 0.000000 
#    z 0.000000 0.000000 1.689760 
# 
# From -- ./inp_files/5813.got.cif
#   From: 2010.05.17/outbox.cif.g08.bks.cpg/sg40_3_cif.got.tgz:5813.got - 2010.06.03 18:35:42.
