data_PCOD9363971
_publ_section_title
;
Structure prediction by ZEFSAII (Michael W. Deem and Ramdas Pophale) SiO2 
 PCOD9363971
Probable space group: A M A 2
;
_chemical_formula_sum "Si O2"
_cell_formula_units_Z 64
_cell_length_a 8.448116
_cell_length_b 14.453688
_cell_length_c 25.306043
_cell_angle_alpha 90.000000
_cell_angle_beta 90.000000
_cell_angle_gamma 90.000000
_cell_volume 3090.030640
_symmetry_space_group_name_H-M "A M A 2"
_symmetry_group_IT_number 40
_symmetry_cell_setting 'orthorhombic'
loop_
_space_group_symop_operation_xyz
x,y,z
-x,-y,z
1/2-x,y,z
1/2+x,-y,z
x,1/2+y,1/2+z
-x,1/2-y,1/2+z
1/2-x,1/2+y,1/2+z
1/2+x,1/2-y,1/2+z
loop_
_atom_site_type_symbol
_atom_site_label
_atom_site_fract_x
_atom_site_fract_y
_atom_site_fract_z
Si Si1 0.437686 0.395359 0.575240
Si Si2 0.561593 0.719541 0.902716
Si Si3 0.940404 0.604779 0.350596
Si Si4 0.558015 0.605622 0.119119
Si Si5 0.060726 0.605226 0.803354
Si Si6 0.559019 0.222926 0.519136
Si Si7 0.558990 0.106047 0.733790
Si Si8 0.440406 0.106359 0.187947
O O1 0.500000 0.500000 0.569907
O O2 0.250000 0.396907 0.573151
O O3 0.506519 0.327088 0.531524
O O4 0.491710 0.357618 0.632882
O O5 0.750000 0.711091 0.901448
O O6 0.512572 0.825335 0.892467
O O7 0.494068 0.660859 0.854292
O O8 0.504529 0.691375 0.961188
O O9 0.750000 0.606498 0.353397
O O10 0.990596 0.640206 0.291687
O O11 0.000000 0.500000 0.356639
O O12 0.500000 0.500000 0.116123
O O13 0.750000 0.606407 0.118473
O O14 0.500480 0.660983 0.068030
O O15 0.508176 0.645357 0.176854
O O16 0.250000 0.604131 0.802710
O O17 0.011635 0.645197 0.745477
O O18 0.000000 0.500000 0.806813
O O19 0.750000 0.219860 0.519477
O O20 0.750000 0.108470 0.734158
O O21 0.500000 0.000000 0.732898
O O22 0.250000 0.109693 0.184104
O O23 0.500000 0.000000 0.189599
#
# Coordination Sequence:
#
# PCOD9363971 Si02
#       8
#     8   8   8   8   8   8   8   8
#     4  11  22  37  60  87 115 148 185 231 285 341
#     4  11  24  40  57  80 112 151 196 242 285 334
#     4  10  20  36  58  84 113 145 182 227 283 342
#     4   9  18  35  58  82 110 142 176 219 270 325
#     4  10  21  38  61  87 116 151 189 233 286 342
#     4  10  23  41  57  78 111 151 194 236 279 330
#     4   8  15  29  52  81 109 137 171 213 267 329
#     4   9  17  32  56  85 116 147 181 225 279 341
#
# _framework density 20.711767999999999
#
# number of rings (size 3 to 8) (size 9 to 14) (size 15 to 20)
#    0.000    2.250    0.000    3.375    0.000    5.500 
#    0.000    3.750    0.000    0.000    0.000    0.000 
#    0.000    0.000    0.000    0.000    0.000    0.000 
#
# Total GULP energy -178593.411659 kJ/mol
# GULP energy per Si atom -5581.044114 kJ/mol
# Density = 2.066463 g / cm^3
# Si number density = 20.711768 Si / 1000 Ang^3
#
#
#
# Elastic Constant Matrix: (Units=GPa)
#
#
# Indices 1 2 3 4 5 6 
#
# 1 17.4356 -7.7200 14.7824 0.0000 0.0000 0.0000
# 2 -7.7200 35.4586 7.5320 0.0000 0.0000 0.0000
# 3 14.7824 7.5320 109.4340 0.0000 0.0000 0.0000
# 4 0.0000 0.0000 0.0000 30.0434 0.0000 0.0000
# 5 0.0000 0.0000 0.0000 0.0000 8.7582 0.0000
# 6 0.0000 0.0000 0.0000 0.0000 0.0000 23.5152
#
#
#
# Elastic Compliance Matrix: (Units=1/GPa)
#
#
# Indices 1 2 3 4 5 6 
#
# 1 0.075450 0.018868 -0.011490 0.000000 0.000000 0.000000
# 2 0.018868 0.033338 -0.004843 0.000000 0.000000 0.000000
# 3 -0.011490 -0.004843 0.011023 0.000000 0.000000 0.000000
# 4 0.000000 0.000000 0.000000 0.033285 0.000000 0.000000
# 5 0.000000 0.000000 0.000000 0.000000 0.114178 0.000000
# 6 0.000000 0.000000 0.000000 0.000000 0.000000 0.042526
#
#
# Mechanical properties :
#
#
# Convention : Reuss Voigt Hill
#
# Bulk Modulus (GPa) = 8.00771 21.27970 14.64370
# Shear Modulus (GPa) = 14.43585 22.31227 18.37406
#
# Velocity S-wave (km/s) = 2.64292 3.28575 2.98171
# Velocity P-wave (km/s) = 3.63153 4.96904 4.35197
#
# Compressibility (1/GPa) = 0.12487959
#
# Stress axis : x y z
#
# Youngs Moduli (GPa) = 13.25382 29.99538 90.71605
#
# Poissons Ratio (x) = -0.56594 1.04237
# Poissons Ratio (y) = -0.25007 0.43936
# Poissons Ratio (z) = 0.15229 0.14527
#
# Static dielectric constant tensor:
#      x y z
#    x 1.742960 0.000000 0.000000 
#    y 0.000000 1.717360 0.000000 
#    z 0.000000 0.000000 1.789440 
# 
# From -- ./inp_files/24304.got.cif
#   From: 2010.05.17/outbox.cif.g08.bks.cpg/sg40_13_cif.got.tgz:24304.got - 2010.06.03 18:35:42.
