data_PCOD9363097
_publ_section_title
;
Structure prediction by ZEFSAII (Michael W. Deem and Ramdas Pophale) SiO2 
 PCOD9363097
Probable space group: A M A 2
;
_chemical_formula_sum "Si O2"
_cell_formula_units_Z 64
_cell_length_a 9.078789
_cell_length_b 25.378177
_cell_length_c 15.205571
_cell_angle_alpha 90.000000
_cell_angle_beta 90.000000
_cell_angle_gamma 90.000000
_cell_volume 3503.410911
_symmetry_space_group_name_H-M "A M A 2"
_symmetry_group_IT_number 40
_symmetry_cell_setting 'orthorhombic'
loop_
_space_group_symop_operation_xyz
x,y,z
-x,-y,z
1/2-x,y,z
1/2+x,-y,z
x,1/2+y,1/2+z
-x,1/2-y,1/2+z
1/2-x,1/2+y,1/2+z
1/2+x,1/2-y,1/2+z
loop_
_atom_site_type_symbol
_atom_site_label
_atom_site_fract_x
_atom_site_fract_y
_atom_site_fract_z
Si Si1 0.077616 0.278930 0.752270
Si Si2 0.073856 0.868173 0.952537
Si Si3 0.073317 0.057079 0.093373
Si Si4 0.074149 0.330360 0.269538
Si Si5 0.925977 0.649664 0.067114
Si Si6 0.574252 0.387815 0.777307
Si Si7 0.577545 0.241681 0.044597
Si Si8 0.926410 0.443861 0.958569
O O1 0.250000 0.278932 0.772165
O O2 0.059238 0.276676 0.646013
O O3 0.002896 0.225568 0.785167
O O4 0.003691 0.331733 0.787566
O O5 0.250000 0.876505 0.964202
O O6 0.037429 0.869440 0.849182
O O7 0.041650 0.808745 0.985623
O O8 0.985864 0.908564 0.012410
O O9 0.250000 0.052790 0.090640
O O10 0.031540 0.086333 0.184392
O O11 0.000000 0.000000 0.091816
O O12 0.250000 0.321805 0.272186
O O13 0.037191 0.349687 0.171533
O O14 0.750000 0.645311 0.057146
O O15 0.981631 0.706125 0.030871
O O16 0.007255 0.601916 0.019531
O O17 0.750000 0.379207 0.776240
O O18 0.540161 0.426162 0.858311
O O19 0.750000 0.255176 0.031531
O O20 0.750000 0.446833 0.968669
O O21 0.000000 0.500000 0.977190
#
# Coordination Sequence:
#
# PCOD9363097 Si02
#       8
#     8   8   8   8   8   8   8   8
#     4  10  19  32  54  85 118 152 190 232 278 334
#     4  10  20  37  59  84 117 155 194 235 284 339
#     4  11  23  39  60  85 116 153 193 238 286 341
#     4   9  20  37  58  83 117 157 192 234 285 340
#     4  10  21  38  59  85 116 150 193 241 289 339
#     4  10  22  38  57  83 116 153 189 230 284 347
#     4   9  18  33  54  83 117 153 188 228 281 338
#     4  11  24  42  62  84 112 149 194 242 292 346
#
# _framework density 18.267911999999999
#
# number of rings (size 3 to 8) (size 9 to 14) (size 15 to 20)
#    0.000    2.000    1.250    1.875    1.750    3.500 
#    0.000    0.625    0.000    0.000    0.000    0.000 
#    0.000    0.000    0.000    0.000    0.000    0.000 
#
# Total GULP energy -178742.133249 kJ/mol
# GULP energy per Si atom -5585.691664 kJ/mol
# Density = 1.822633 g / cm^3
# Si number density = 18.267912 Si / 1000 Ang^3
#
#
#
# Elastic Constant Matrix: (Units=GPa)
#
#
# Indices 1 2 3 4 5 6 
#
# 1 42.3198 49.7445 34.6641 0.0000 0.0000 0.0000
# 2 49.7445 105.0860 36.4372 0.0000 0.0000 0.0000
# 3 34.6641 36.4372 64.9215 0.0000 0.0000 0.0000
# 4 0.0000 0.0000 0.0000 22.5900 0.0000 0.0000
# 5 0.0000 0.0000 0.0000 0.0000 22.7011 0.0000
# 6 0.0000 0.0000 0.0000 0.0000 0.0000 33.9407
#
#
#
# Elastic Compliance Matrix: (Units=1/GPa)
#
#
# Indices 1 2 3 4 5 6 
#
# 1 0.077093 -0.027590 -0.025678 0.000000 0.000000 0.000000
# 2 -0.027590 0.021689 0.002558 0.000000 0.000000 0.000000
# 3 -0.025678 0.002558 0.027678 0.000000 0.000000 0.000000
# 4 0.000000 0.000000 0.000000 0.044267 0.000000 0.000000
# 5 0.000000 0.000000 0.000000 0.000000 0.044051 0.000000
# 6 0.000000 0.000000 0.000000 0.000000 0.000000 0.029463
#
#
# Mechanical properties :
#
#
# Convention : Reuss Voigt Hill
#
# Bulk Modulus (GPa) = 39.93517 50.44653 45.19085
# Shear Modulus (GPa) = 14.12401 21.94513 18.03457
#
# Velocity S-wave (km/s) = 2.78359 3.46973 3.14543
# Velocity P-wave (km/s) = 5.67798 6.61262 6.16305
#
# Compressibility (1/GPa) = 0.02504058
#
# Stress axis : x y z
#
# Youngs Moduli (GPa) = 12.97140 46.10594 36.12995
#
# Poissons Ratio (x) = 1.27206 0.92774
# Poissons Ratio (y) = 0.35788 -0.09243
# Poissons Ratio (z) = 0.33308 -0.11795
#
# Static dielectric constant tensor:
#      x y z
#    x 1.611380 0.000000 0.000000 
#    y 0.000000 1.580290 0.000000 
#    z 0.000000 0.000000 1.657960 
# 
# From -- ./inp_files/15571.got.cif
#   From: 2010.05.17/outbox.cif.g08.bks.cpg/sg40_8_cif.got.tgz:15571.got - 2010.06.03 18:35:42.
