data_PCOD9363362
_publ_section_title
;
Structure prediction by ZEFSAII (Michael W. Deem and Ramdas Pophale) SiO2 
 PCOD9363362
Probable space group: A M A 2
;
_chemical_formula_sum "Si O2"
_cell_formula_units_Z 48
_cell_length_a 8.720443
_cell_length_b 26.154419
_cell_length_c 12.398463
_cell_angle_alpha 90.000000
_cell_angle_beta 90.000000
_cell_angle_gamma 90.000000
_cell_volume 2827.818133
_symmetry_space_group_name_H-M "A M A 2"
_symmetry_group_IT_number 40
_symmetry_cell_setting 'orthorhombic'
loop_
_space_group_symop_operation_xyz
x,y,z
-x,-y,z
1/2-x,y,z
1/2+x,-y,z
x,1/2+y,1/2+z
-x,1/2-y,1/2+z
1/2-x,1/2+y,1/2+z
1/2+x,1/2-y,1/2+z
loop_
_atom_site_type_symbol
_atom_site_label
_atom_site_fract_x
_atom_site_fract_y
_atom_site_fract_z
Si Si1 0.431875 0.137315 0.802820
Si Si2 0.565208 0.944880 0.401353
Si Si3 0.566804 0.055221 0.639940
Si Si4 0.067071 0.759612 0.850365
Si Si5 0.068207 0.837017 0.020884
Si Si6 0.064960 0.651515 0.757870
O O1 0.250000 0.132340 0.796283
O O2 0.512580 0.098599 0.722079
O O3 0.483043 0.196180 0.781874
O O4 0.490531 0.129486 0.926028
O O5 0.750000 0.947227 0.406526
O O6 0.500659 0.934458 0.520901
O O7 0.518409 0.899486 0.321209
O O8 0.500000 0.000000 0.367433
O O9 0.750000 0.052572 0.634625
O O10 0.500000 0.000000 0.673468
O O11 0.250000 0.763416 0.831046
O O12 0.016738 0.702840 0.821773
O O13 0.041421 0.779504 0.973021
O O14 0.250000 0.845913 0.022093
O O15 0.999058 0.845663 0.137386
O O16 0.250000 0.651630 0.753319
#
# Coordination Sequence:
#
# PCOD9363362 Si02
#       6
#     8   8   8   8   8   8
#     4  10  19  35  56  80 111 147 183 225 276 326
#     4  10  21  37  56  81 112 146 186 233 279 331
#     4  11  21  36  58  84 113 147 186 232 278 330
#     4   8  18  35  52  78 111 143 178 226 272 326
#     4   9  19  35  54  79 112 145 182 227 274 326
#     4  10  20  36  58  82 111 146 185 228 279 334
#
# _framework density 16.974215999999998
#
# number of rings (size 3 to 8) (size 9 to 14) (size 15 to 20)
#    1.000    1.333    0.000    4.500    0.000    3.333 
#    0.000    2.500    0.000    2.000    0.000    0.000 
#    0.000    0.000    0.000    0.000    0.000    0.000 
#
# Total GULP energy -133648.546915 kJ/mol
# GULP energy per Si atom -5568.689455 kJ/mol
# Density = 1.693558 g / cm^3
# Si number density = 16.974216 Si / 1000 Ang^3
#
#
#
# Elastic Constant Matrix: (Units=GPa)
#
#
# Indices 1 2 3 4 5 6 
#
# 1 77.2047 56.2379 44.8173 0.0000 0.0000 0.0000
# 2 56.2379 143.4824 95.5095 0.0000 0.0000 0.0000
# 3 44.8173 95.5095 103.7742 0.0000 0.0000 0.0000
# 4 0.0000 0.0000 0.0000 30.0333 0.0000 0.0000
# 5 0.0000 0.0000 0.0000 0.0000 30.2408 0.0000
# 6 0.0000 0.0000 0.0000 0.0000 0.0000 24.8907
#
#
#
# Elastic Compliance Matrix: (Units=1/GPa)
#
#
# Indices 1 2 3 4 5 6 
#
# 1 0.018585 -0.005012 -0.003413 0.000000 0.000000 0.000000
# 2 -0.005012 0.019344 -0.015639 0.000000 0.000000 0.000000
# 3 -0.003413 -0.015639 0.025504 0.000000 0.000000 0.000000
# 4 0.000000 0.000000 0.000000 0.033296 0.000000 0.000000
# 5 0.000000 0.000000 0.000000 0.000000 0.033068 0.000000
# 6 0.000000 0.000000 0.000000 0.000000 0.000000 0.040176
#
#
# Mechanical properties :
#
#
# Convention : Reuss Voigt Hill
#
# Bulk Modulus (GPa) = 65.34199 79.73228 72.53713
# Shear Modulus (GPa) = 22.40113 25.55940 23.98027
#
# Velocity S-wave (km/s) = 3.63673 3.88465 3.76273
# Velocity P-wave (km/s) = 7.49752 8.19727 7.85519
#
# Compressibility (1/GPa) = 0.01530409
#
# Stress axis : x y z
#
# Youngs Moduli (GPa) = 53.80655 51.69525 39.21007
#
# Poissons Ratio (x) = 0.25912 0.13383
# Poissons Ratio (y) = 0.26970 0.61320
# Poissons Ratio (z) = 0.18365 0.80845
#
# Static dielectric constant tensor:
#      x y z
#    x 1.568050 0.000000 0.000000 
#    y 0.000000 1.576280 0.000000 
#    z 0.000000 0.000000 1.553750 
# 
# From -- ./inp_files/10311.got.cif
#   From: 2010.05.17/outbox.cif.g08.bks.cpg/sg40_6_cif.got.tgz:10311.got - 2010.06.03 18:35:42.
