data_PCOD9363293
_publ_section_title
;
Structure prediction by ZEFSAII (Michael W. Deem and Ramdas Pophale) SiO2 
 PCOD9363293
Probable space group: A M A 2
;
_chemical_formula_sum "Si O2"
_cell_formula_units_Z 64
_cell_length_a 8.715832
_cell_length_b 33.091826
_cell_length_c 12.089777
_cell_angle_alpha 90.000000
_cell_angle_beta 90.000000
_cell_angle_gamma 90.000000
_cell_volume 3486.967285
_symmetry_space_group_name_H-M "A M A 2"
_symmetry_group_IT_number 40
_symmetry_cell_setting 'orthorhombic'
loop_
_space_group_symop_operation_xyz
x,y,z
-x,-y,z
1/2-x,y,z
1/2+x,-y,z
x,1/2+y,1/2+z
-x,1/2-y,1/2+z
1/2-x,1/2+y,1/2+z
1/2+x,1/2-y,1/2+z
loop_
_atom_site_type_symbol
_atom_site_label
_atom_site_fract_x
_atom_site_fract_y
_atom_site_fract_z
Si Si1 0.066466 0.045468 0.991530
Si Si2 0.934144 0.119755 0.119940
Si Si3 0.924798 0.402185 0.071359
Si Si4 0.931968 0.044644 0.758034
Si Si5 0.932943 0.223199 0.496787
Si Si6 0.936354 0.814501 0.950903
Si Si7 0.924505 0.817457 0.699954
Si Si8 0.435453 0.357197 0.870099
O O1 0.250000 0.043618 0.991553
O O2 0.008948 0.061023 0.870994
O O3 0.000000 0.000000 0.006124
O O4 0.006622 0.077224 0.081864
O O5 0.750000 0.116393 0.115401
O O6 0.978396 0.133143 0.244227
O O7 0.990559 0.154071 0.035271
O O8 0.750000 0.417090 0.060056
O O9 0.920902 0.360288 0.139103
O O10 0.023217 0.431438 0.148139
O O11 0.996584 0.390409 0.953802
O O12 0.750000 0.043584 0.773635
O O13 0.000000 0.000000 0.746620
O O14 0.750000 0.223826 0.485908
O O15 0.987030 0.268352 0.472278
O O16 0.988031 0.187074 0.415160
O O17 0.977691 0.211117 0.621086
O O18 0.750000 0.817281 0.960447
O O19 0.979760 0.823410 0.824245
O O20 0.750000 0.801317 0.705756
O O21 0.250000 0.358029 0.878042
#
# Coordination Sequence:
#
# PCOD9363293 Si02
#       8
#     8   8   8   8   8   8   8   8
#     4  11  22  39  62  88 121 154 191 238 292 348
#     4  11  23  38  59  86 115 152 198 242 294 353
#     4  10  19  34  56  82 110 146 188 231 282 338
#     4  11  21  35  58  88 120 150 185 231 283 341
#     4   9  19  35  54  77 107 145 187 234 287 339
#     4  10  21  35  54  80 112 147 186 235 291 343
#     4   9  19  34  53  75 103 139 179 224 277 332
#     4   9  20  38  57  78 110 153 196 241 291 346
#
# _framework density 18.354057999999998
#
# number of rings (size 3 to 8) (size 9 to 14) (size 15 to 20)
#    0.000    2.000    0.000    4.500    1.750    3.500 
#    0.000    0.625    0.000    3.000    0.000    0.000 
#    0.000    0.000    0.000    0.000    0.000    0.000 
#
# Total GULP energy -178593.195133 kJ/mol
# GULP energy per Si atom -5581.037348 kJ/mol
# Density = 1.831228 g / cm^3
# Si number density = 18.354058 Si / 1000 Ang^3
#
#
#
# Elastic Constant Matrix: (Units=GPa)
#
#
# Indices 1 2 3 4 5 6 
#
# 1 75.9406 36.0062 44.2867 0.0000 0.0000 0.0000
# 2 36.0062 76.6929 63.1856 0.0000 0.0000 0.0000
# 3 44.2867 63.1856 162.9107 0.0000 0.0000 0.0000
# 4 0.0000 0.0000 0.0000 26.3754 0.0000 0.0000
# 5 0.0000 0.0000 0.0000 0.0000 29.1293 0.0000
# 6 0.0000 0.0000 0.0000 0.0000 0.0000 17.7276
#
#
#
# Elastic Compliance Matrix: (Units=1/GPa)
#
#
# Indices 1 2 3 4 5 6 
#
# 1 0.017511 -0.006318 -0.002310 0.000000 0.000000 0.000000
# 2 -0.006318 0.021442 -0.006599 0.000000 0.000000 0.000000
# 3 -0.002310 -0.006599 0.009326 0.000000 0.000000 0.000000
# 4 0.000000 0.000000 0.000000 0.037914 0.000000 0.000000
# 5 0.000000 0.000000 0.000000 0.000000 0.034330 0.000000
# 6 0.000000 0.000000 0.000000 0.000000 0.000000 0.056409
#
#
# Mechanical properties :
#
#
# Convention : Reuss Voigt Hill
#
# Bulk Modulus (GPa) = 56.10092 66.94456 61.52274
# Shear Modulus (GPa) = 23.43828 26.11750 24.77789
#
# Velocity S-wave (km/s) = 3.57740 3.77634 3.67821
# Velocity P-wave (km/s) = 6.90623 7.45436 7.18552
#
# Compressibility (1/GPa) = 0.01782502
#
# Stress axis : x y z
#
# Youngs Moduli (GPa) = 57.10750 46.63770 107.23188
#
# Poissons Ratio (x) = 0.29466 0.24768
# Poissons Ratio (y) = 0.36081 0.70760
# Poissons Ratio (z) = 0.13190 0.30775
#
# Static dielectric constant tensor:
#      x y z
#    x 1.638120 0.000000 0.000000 
#    y 0.000000 1.596280 0.000000 
#    z 0.000000 0.000000 1.620330 
# 
# From -- ./inp_files/10695.got.cif
#   From: 2010.05.17/outbox.cif.g08.bks.cpg/sg40_6_cif.got.tgz:10695.got - 2010.06.03 18:35:42.
