data_PCOD9363235
_publ_section_title
;
Structure prediction by ZEFSAII (Michael W. Deem and Ramdas Pophale) SiO2 
 PCOD9363235
Probable space group: A M A 2
;
_chemical_formula_sum "Si O2"
_cell_formula_units_Z 56
_cell_length_a 18.320423
_cell_length_b 18.241217
_cell_length_c 8.893993
_cell_angle_alpha 90.000000
_cell_angle_beta 90.000000
_cell_angle_gamma 90.000000
_cell_volume 2972.255162
_symmetry_space_group_name_H-M "A M A 2"
_symmetry_group_IT_number 40
_symmetry_cell_setting 'orthorhombic'
loop_
_space_group_symop_operation_xyz
x,y,z
-x,-y,z
1/2-x,y,z
1/2+x,-y,z
x,1/2+y,1/2+z
-x,1/2-y,1/2+z
1/2-x,1/2+y,1/2+z
1/2+x,1/2-y,1/2+z
loop_
_atom_site_type_symbol
_atom_site_label
_atom_site_fract_x
_atom_site_fract_y
_atom_site_fract_z
Si Si1 0.490773 0.846782 0.138900
Si Si2 0.468900 0.425786 0.127135
Si Si3 0.960352 0.298848 0.956484
Si Si4 0.585582 0.408427 0.393507
Si Si5 0.331360 0.366342 0.629755
Si Si6 0.332112 0.692276 0.169729
Si Si7 0.667221 0.554517 0.320124
O O1 0.527242 0.807100 0.280732
O O2 0.414133 0.886806 0.181304
O O3 0.472104 0.782918 0.017739
O O4 0.549686 0.896251 0.054573
O O5 0.500000 0.500000 0.050921
O O6 0.518775 0.420115 0.277328
O O7 0.386526 0.430466 0.182618
O O8 0.482073 0.353991 0.031130
O O9 0.883190 0.325428 0.026377
O O10 0.629927 0.341113 0.318097
O O11 0.636990 0.479187 0.391127
O O12 0.250000 0.396288 0.676934
O O13 0.329092 0.280394 0.671561
O O14 0.334915 0.384216 0.451096
O O15 0.250000 0.663709 0.155640
O O16 0.750000 0.545847 0.270753
#
# Coordination Sequence:
#
# PCOD9363235 Si02
#       7
#     8   8   8   8   8   8   8
#     4  11  20  35  56  83 112 149 195 241 284 340
#     4   9  18  35  53  79 110 144 184 229 280 346
#     4  10  21  34  57  83 113 148 193 238 287 342
#     4  10  19  34  57  81 107 147 192 236 284 341
#     4   9  18  31  52  79 108 145 179 224 287 339
#     4   9  18  34  55  79 111 147 182 232 296 347
#     4  10  19  33  57  83 109 145 188 235 288 346
#
# _framework density 18.840911999999999
#
# number of rings (size 3 to 8) (size 9 to 14) (size 15 to 20)
#    0.000    2.286    1.429    3.000    2.000    0.000 
#    2.571    2.143    0.000    2.571    0.000    0.000 
#    0.000    0.000    0.000    0.000    0.000    0.000 
#
# Total GULP energy -155911.000438 kJ/mol
# GULP energy per Si atom -5568.250016 kJ/mol
# Density = 1.879803 g / cm^3
# Si number density = 18.840912 Si / 1000 Ang^3
#
#
#
# Elastic Constant Matrix: (Units=GPa)
#
#
# Indices 1 2 3 4 5 6 
#
# 1 154.4943 15.8467 22.6939 0.0000 0.0000 0.0000
# 2 15.8467 57.6419 -1.1934 0.0000 0.0000 0.0000
# 3 22.6939 -1.1934 39.6752 0.0000 0.0000 0.0000
# 4 0.0000 0.0000 0.0000 17.9665 0.0000 0.0000
# 5 0.0000 0.0000 0.0000 0.0000 11.2426 0.0000
# 6 0.0000 0.0000 0.0000 0.0000 0.0000 21.9120
#
#
#
# Elastic Compliance Matrix: (Units=1/GPa)
#
#
# Indices 1 2 3 4 5 6 
#
# 1 0.007312 -0.002098 -0.004245 0.000000 0.000000 0.000000
# 2 -0.002098 0.017961 0.001740 0.000000 0.000000 0.000000
# 3 -0.004245 0.001740 0.027685 0.000000 0.000000 0.000000
# 4 0.000000 0.000000 0.000000 0.055659 0.000000 0.000000
# 5 0.000000 0.000000 0.000000 0.000000 0.088947 0.000000
# 6 0.000000 0.000000 0.000000 0.000000 0.000000 0.045637
#
#
# Mechanical properties :
#
#
# Convention : Reuss Voigt Hill
#
# Bulk Modulus (GPa) = 22.85599 36.27842 29.56721
# Shear Modulus (GPa) = 18.72718 24.52183 21.62450
#
# Velocity S-wave (km/s) = 3.15614 3.61157 3.39151
# Velocity P-wave (km/s) = 5.04371 6.05708 5.57347
#
# Compressibility (1/GPa) = 0.04375220
#
# Stress axis : x y z
#
# Youngs Moduli (GPa) = 136.77080 55.67535 36.12037
#
# Poissons Ratio (x) = 0.11680 0.15334
# Poissons Ratio (y) = 0.28694 -0.06286
# Poissons Ratio (z) = 0.58062 -0.09689
#
# Static dielectric constant tensor:
#      x y z
#    x 1.704070 0.000000 0.000000 
#    y 0.000000 1.690870 0.000000 
#    z 0.000000 0.000000 1.632890 
# 
# From -- ./inp_files/7727.got.cif
#   From: 2010.05.17/outbox.cif.g08.bks.cpg/sg40_4_cif.got.tgz:7727.got - 2010.06.03 18:35:42.
