data_PCOD9363937
_publ_section_title
;
Structure prediction by ZEFSAII (Michael W. Deem and Ramdas Pophale) SiO2 
 PCOD9363937
Probable space group: A M A 2
;
_chemical_formula_sum "Si O2"
_cell_formula_units_Z 56
_cell_length_a 21.921932
_cell_length_b 12.914212
_cell_length_c 8.795774
_cell_angle_alpha 90.000000
_cell_angle_beta 90.000000
_cell_angle_gamma 90.000000
_cell_volume 2490.123001
_symmetry_space_group_name_H-M "A M A 2"
_symmetry_group_IT_number 40
_symmetry_cell_setting 'orthorhombic'
loop_
_space_group_symop_operation_xyz
x,y,z
-x,-y,z
1/2-x,y,z
1/2+x,-y,z
x,1/2+y,1/2+z
-x,1/2-y,1/2+z
1/2-x,1/2+y,1/2+z
1/2+x,1/2-y,1/2+z
loop_
_atom_site_type_symbol
_atom_site_label
_atom_site_fract_x
_atom_site_fract_y
_atom_site_fract_z
Si Si1 0.084325 0.579881 0.118520
Si Si2 0.928572 0.521268 0.419221
Si Si3 0.181502 0.841413 0.037041
Si Si4 0.881002 0.834277 0.118096
Si Si5 0.490869 0.121177 0.337192
Si Si6 0.685174 0.891829 0.404076
Si Si7 0.378149 0.776158 0.321705
O O1 0.071389 0.489429 0.236884
O O2 0.111913 0.669646 0.225651
O O3 0.132310 0.546923 0.989541
O O4 0.030347 0.624316 0.013491
O O5 0.881808 0.612880 0.466259
O O6 0.897322 0.427595 0.507394
O O7 0.000000 0.500000 0.459014
O O8 0.250000 0.886668 0.004681
O O9 0.169537 0.838809 0.218659
O O10 0.184398 0.724020 0.974521
O O11 0.828134 0.872533 0.228596
O O12 0.939616 0.824497 0.231180
O O13 0.864493 0.744480 0.999017
O O14 0.555547 0.172879 0.315890
O O15 0.500000 0.000000 0.299919
O O16 0.750000 0.940684 0.432607
#
# Coordination Sequence:
#
# PCOD9363937 Si02
#       7
#     8   8   8   8   8   8   8
#     4   9  21  36  56  83 111 153 195 234 291 353
#     4  11  22  38  59  88 120 151 192 244 297 354
#     4  10  22  40  60  83 114 153 195 244 299 352
#     4  10  21  34  55  83 111 150 193 236 290 346
#     4  11  20  33  53  83 119 150 188 241 295 347
#     4   9  20  39  58  79 112 153 198 243 289 351
#     4  10  20  36  56  79 112 150 193 240 289 355
#
# _framework density 22.488847
#
# number of rings (size 3 to 8) (size 9 to 14) (size 15 to 20)
#    0.000    2.000    0.000    3.429    0.000    9.714 
#    0.000    2.857    0.000    0.000    0.000    0.000 
#    0.000    0.000    0.000    0.000    0.000    0.000 
#
# Total GULP energy -156049.346947 kJ/mol
# GULP energy per Si atom -5573.190962 kJ/mol
# Density = 2.243766 g / cm^3
# Si number density = 22.488847 Si / 1000 Ang^3
#
#
#
# Elastic Constant Matrix: (Units=GPa)
#
#
# Indices 1 2 3 4 5 6 
#
# 1 97.1423 10.1513 31.3129 0.0000 0.0000 0.0000
# 2 10.1513 10.3373 16.2362 0.0000 0.0000 0.0000
# 3 31.3129 16.2362 151.4497 0.0000 0.0000 0.0000
# 4 0.0000 0.0000 0.0000 36.4347 0.0000 0.0000
# 5 0.0000 0.0000 0.0000 0.0000 17.9268 0.0000
# 6 0.0000 0.0000 0.0000 0.0000 0.0000 16.9362
#
#
#
# Elastic Compliance Matrix: (Units=1/GPa)
#
#
# Indices 1 2 3 4 5 6 
#
# 1 0.011724 -0.009266 -0.001431 0.000000 0.000000 0.000000
# 2 -0.009266 0.123648 -0.011340 0.000000 0.000000 0.000000
# 3 -0.001431 -0.011340 0.008114 0.000000 0.000000 0.000000
# 4 0.000000 0.000000 0.000000 0.027446 0.000000 0.000000
# 5 0.000000 0.000000 0.000000 0.000000 0.055782 0.000000
# 6 0.000000 0.000000 0.000000 0.000000 0.000000 0.059045
#
#
# Mechanical properties :
#
#
# Convention : Reuss Voigt Hill
#
# Bulk Modulus (GPa) = 10.05904 41.59223 25.82563
# Shear Modulus (GPa) = 13.77525 27.67480 20.72502
#
# Velocity S-wave (km/s) = 2.47763 3.51180 3.03903
# Velocity P-wave (km/s) = 3.55914 5.91425 4.88088
#
# Compressibility (1/GPa) = 0.09941308
#
# Stress axis : x y z
#
# Youngs Moduli (GPa) = 85.29829 8.08749 123.23870
#
# Poissons Ratio (x) = 0.07494 0.17630
# Poissons Ratio (y) = 0.79035 1.39753
# Poissons Ratio (z) = 0.12202 0.09171
#
# Static dielectric constant tensor:
#      x y z
#    x 2.117560 0.000000 0.000000 
#    y 0.000000 1.920590 0.000000 
#    z 0.000000 0.000000 1.876170 
# 
# From -- ./inp_files/8313.got.cif
#   From: 2010.05.17/outbox.cif.g08.bks.cpg/sg40_5_cif.got.tgz:8313.got - 2010.06.03 18:35:42.
