data_PCOD9363731
_publ_section_title
;
Structure prediction by ZEFSAII (Michael W. Deem and Ramdas Pophale) SiO2 
 PCOD9363731
Probable space group: A M A 2
;
_chemical_formula_sum "Si O2"
_cell_formula_units_Z 64
_cell_length_a 8.877090
_cell_length_b 20.108851
_cell_length_c 20.848145
_cell_angle_alpha 90.000000
_cell_angle_beta 90.000000
_cell_angle_gamma 90.000000
_cell_volume 3721.562338
_symmetry_space_group_name_H-M "A M A 2"
_symmetry_group_IT_number 40
_symmetry_cell_setting 'orthorhombic'
loop_
_space_group_symop_operation_xyz
x,y,z
-x,-y,z
1/2-x,y,z
1/2+x,-y,z
x,1/2+y,1/2+z
-x,1/2-y,1/2+z
1/2-x,1/2+y,1/2+z
1/2+x,1/2-y,1/2+z
loop_
_atom_site_type_symbol
_atom_site_label
_atom_site_fract_x
_atom_site_fract_y
_atom_site_fract_z
Si Si1 0.070450 0.292404 0.087280
Si Si2 0.071863 0.570789 0.127464
Si Si3 0.070233 0.293420 0.324789
Si Si4 0.428285 0.570923 0.281632
Si Si5 0.430583 0.431264 0.896797
Si Si6 0.930773 0.714187 0.941588
Si Si7 0.930432 0.568561 0.746359
Si Si8 0.931228 0.213568 0.204979
O O1 0.250000 0.292538 0.097615
O O2 0.009581 0.367375 0.094638
O O3 0.991162 0.247935 0.140970
O O4 0.039826 0.267915 0.015230
O O5 0.250000 0.571096 0.114139
O O6 0.051824 0.579355 0.204565
O O7 0.000000 0.500000 0.109661
O O8 0.250000 0.292540 0.320734
O O9 0.008660 0.368042 0.316446
O O10 0.013795 0.259902 0.390311
O O11 0.000328 0.251332 0.266056
O O12 0.500000 0.500000 0.298829
O O13 0.250000 0.571459 0.294462
O O14 0.500000 0.500000 0.921723
O O15 0.250000 0.436592 0.900244
O O16 0.475754 0.363001 0.930872
O O17 0.474033 0.424452 0.821549
O O18 0.750000 0.717954 0.929868
O O19 0.750000 0.563386 0.744513
O O20 0.974048 0.635940 0.710286
O O21 0.000000 0.500000 0.721750
O O22 0.750000 0.218954 0.208359
#
# Coordination Sequence:
#
# PCOD9363731 Si02
#       8
#     8   8   8   8   8   8   8   8
#     4  11  23  37  56  82 112 149 191 235 280 333
#     4  10  20  34  54  78 112 153 189 230 276 332
#     4  12  23  35  58  87 112 144 190 236 277 331
#     4  10  20  35  57  84 115 148 182 229 283 334
#     4   9  17  32  51  74 106 144 182 220 266 323
#     4  10  22  40  56  76 113 153 187 229 283 333
#     4   9  18  32  54  80 108 140 177 221 274 326
#     4  11  21  37  58  81 112 149 184 228 283 334
#
# _framework density 17.197078999999999
#
# number of rings (size 3 to 8) (size 9 to 14) (size 15 to 20)
#    0.000    1.750    2.500    2.625    0.000    4.000 
#    0.000    1.250    0.000    0.750    0.000    1.750 
#    0.000    0.000    0.000    0.000    0.000    0.000 
#
# Total GULP energy -178728.385946 kJ/mol
# GULP energy per Si atom -5585.262061 kJ/mol
# Density = 1.715794 g / cm^3
# Si number density = 17.197079 Si / 1000 Ang^3
#
#
#
# Elastic Constant Matrix: (Units=GPa)
#
#
# Indices 1 2 3 4 5 6 
#
# 1 83.5625 62.0060 59.9845 0.0000 0.0000 0.0000
# 2 62.0060 140.2250 65.2687 0.0000 0.0000 0.0000
# 3 59.9845 65.2687 87.0229 0.0000 0.0000 0.0000
# 4 0.0000 0.0000 0.0000 20.0779 0.0000 0.0000
# 5 0.0000 0.0000 0.0000 0.0000 21.4611 0.0000
# 6 0.0000 0.0000 0.0000 0.0000 0.0000 35.1600
#
#
#
# Elastic Compliance Matrix: (Units=1/GPa)
#
#
# Indices 1 2 3 4 5 6 
#
# 1 0.025613 -0.004775 -0.014073 0.000000 0.000000 0.000000
# 2 -0.004775 0.011846 -0.005594 0.000000 0.000000 0.000000
# 3 -0.014073 -0.005594 0.025387 0.000000 0.000000 0.000000
# 4 0.000000 0.000000 0.000000 0.049806 0.000000 0.000000
# 5 0.000000 0.000000 0.000000 0.000000 0.046596 0.000000
# 6 0.000000 0.000000 0.000000 0.000000 0.000000 0.028441
#
#
# Mechanical properties :
#
#
# Convention : Reuss Voigt Hill
#
# Bulk Modulus (GPa) = 71.62124 76.14765 73.88444
# Shear Modulus (GPa) = 20.72726 23.57655 22.15190
#
# Velocity S-wave (km/s) = 3.47548 3.70667 3.59293
# Velocity P-wave (km/s) = 7.60546 7.91800 7.76330
#
# Compressibility (1/GPa) = 0.01396234
#
# Stress axis : x y z
#
# Youngs Moduli (GPa) = 39.04285 84.41315 39.38993
#
# Poissons Ratio (x) = 0.40309 0.55435
# Poissons Ratio (y) = 0.18644 0.22033
# Poissons Ratio (z) = 0.54946 0.47217
#
# Static dielectric constant tensor:
#      x y z
#    x 1.573600 0.000000 0.000000 
#    y 0.000000 1.573700 0.000000 
#    z 0.000000 0.000000 1.571450 
# 
# From -- ./inp_files/19640.got.cif
#   From: 2010.05.17/outbox.cif.g08.bks.cpg/sg40_10_cif.got.tgz:19640.got - 2010.06.03 18:35:42.
