data_PCOD9363514
_publ_section_title
;
Structure prediction by ZEFSAII (Michael W. Deem and Ramdas Pophale) SiO2 
 PCOD9363514
Probable space group: A M A 2
;
_chemical_formula_sum "Si O2"
_cell_formula_units_Z 64
_cell_length_a 17.036436
_cell_length_b 16.194762
_cell_length_c 12.433740
_cell_angle_alpha 90.000000
_cell_angle_beta 90.000000
_cell_angle_gamma 90.000000
_cell_volume 3430.481627
_symmetry_space_group_name_H-M "A M A 2"
_symmetry_group_IT_number 40
_symmetry_cell_setting 'orthorhombic'
loop_
_space_group_symop_operation_xyz
x,y,z
-x,-y,z
1/2-x,y,z
1/2+x,-y,z
x,1/2+y,1/2+z
-x,1/2-y,1/2+z
1/2-x,1/2+y,1/2+z
1/2+x,1/2-y,1/2+z
loop_
_atom_site_type_symbol
_atom_site_label
_atom_site_fract_x
_atom_site_fract_y
_atom_site_fract_z
Si Si1 0.342331 0.235199 0.601940
Si Si2 0.614320 0.869426 0.962050
Si Si3 0.842979 0.020586 0.807522
Si Si4 0.410845 0.974322 0.357311
Si Si5 0.655577 0.957183 0.577938
Si Si6 0.158441 0.796998 0.346662
Si Si7 0.660580 0.991916 0.132522
Si Si8 0.927529 0.121923 0.983416
O O1 0.250000 0.244857 0.575409
O O2 0.362839 0.139117 0.594994
O O3 0.352378 0.265367 0.724555
O O4 0.393141 0.291483 0.523084
O O5 0.642662 0.934578 0.871226
O O6 0.639894 0.778662 0.926117
O O7 0.520669 0.875335 0.973051
O O8 0.650226 0.904564 0.072788
O O9 0.750000 0.037817 0.811749
O O10 0.867940 0.007434 0.684680
O O11 0.890207 0.089750 0.872279
O O12 0.396025 0.876242 0.362342
O O13 0.500000 0.000000 0.336346
O O14 0.383604 0.011064 0.470210
O O15 0.359734 0.007946 0.257484
O O16 0.750000 0.964290 0.568977
O O17 0.250000 0.821432 0.359252
O O18 0.750000 0.021249 0.115952
O O19 0.602155 0.055010 0.071755
#
# Coordination Sequence:
#
# PCOD9363514 Si02
#       8
#     8   8   8   8   8   8   8   8
#     4  10  20  38  64  88 116 161 212 248 293 374
#     4  11  22  36  62  96 129 152 205 266 313 355
#     4  10  19  37  62  90 121 162 210 254 305 371
#     4  12  26  41  62  91 128 163 208 257 320 373
#     4  10  22  41  62  85 120 163 210 252 303 377
#     4  11  22  42  67  89 117 166 214 249 297 378
#     4  11  21  39  64  91 124 166 210 258 312 375
#     4  11  21  34  60  93 129 154 201 260 318 355
#
# _framework density 18.656272999999999
#
# number of rings (size 3 to 8) (size 9 to 14) (size 15 to 20)
#    0.000    1.250    2.500    6.375    1.750    1.000 
#    0.000    1.250    0.000    3.000    0.000    0.000 
#    0.000    0.000    0.000    0.000    0.000    0.000 
#
# Total GULP energy -178854.154018 kJ/mol
# GULP energy per Si atom -5589.192313 kJ/mol
# Density = 1.861381 g / cm^3
# Si number density = 18.656273 Si / 1000 Ang^3
#
#
#
# Elastic Constant Matrix: (Units=GPa)
#
#
# Indices 1 2 3 4 5 6 
#
# 1 67.8852 25.8782 26.2938 0.0000 0.0000 0.0000
# 2 25.8782 57.2147 26.0579 0.0000 0.0000 0.0000
# 3 26.2938 26.0579 93.6590 0.0000 0.0000 0.0000
# 4 0.0000 0.0000 0.0000 34.4383 0.0000 0.0000
# 5 0.0000 0.0000 0.0000 0.0000 980.0722 0.0000
# 6 0.0000 0.0000 0.0000 0.0000 0.0000 4.5319
#
#
#
# Elastic Compliance Matrix: (Units=1/GPa)
#
#
# Indices 1 2 3 4 5 6 
#
# 1 0.018654 -0.006930 -0.003309 0.000000 0.000000 0.000000
# 2 -0.006930 0.022589 -0.004339 0.000000 0.000000 0.000000
# 3 -0.003309 -0.004339 0.012813 0.000000 0.000000 0.000000
# 4 0.000000 0.000000 0.000000 0.029037 0.000000 0.000000
# 5 0.000000 0.000000 0.000000 0.000000 0.001020 0.000000
# 6 0.000000 0.000000 0.000000 0.000000 0.000000 0.220660
#
#
# Mechanical properties :
#
#
# Convention : Reuss Voigt Hill
#
# Bulk Modulus (GPa) = 40.16101 41.69096 40.92598
# Shear Modulus (GPa) = 14.61004 213.17707 113.89356
#
# Velocity S-wave (km/s) = 2.80146 10.70111 7.82182
# Velocity P-wave (km/s) = 5.66019 13.23179 10.17640
#
# Compressibility (1/GPa) = 0.02489977
#
# Stress axis : x y z
#
# Youngs Moduli (GPa) = 53.60714 44.26972 78.04471
#
# Poissons Ratio (x) = 0.30680 0.25824
# Poissons Ratio (y) = 0.37152 0.33864
# Poissons Ratio (z) = 0.17738 0.19209
#
# Static dielectric constant tensor:
#      x y z
#    x 1.001110 0.000000 0.000000 
#    y 0.000000 1.636880 0.000000 
#    z 0.000000 0.000000 1.633690 
# 
# From -- ./inp_files/12486.got.cif
#   From: 2010.05.17/outbox.cif.g08.bks.cpg/sg40_7_cif.got.tgz:12486.got - 2010.06.03 18:35:42.
