data_PCOD9363427
_publ_section_title
;
Structure prediction by ZEFSAII (Michael W. Deem and Ramdas Pophale) SiO2 
 PCOD9363427
Probable space group: A M A 2
;
_chemical_formula_sum "Si O2"
_cell_formula_units_Z 48
_cell_length_a 24.485247
_cell_length_b 12.125526
_cell_length_c 7.024511
_cell_angle_alpha 90.000000
_cell_angle_beta 90.000000
_cell_angle_gamma 90.000000
_cell_volume 2085.552724
_symmetry_space_group_name_H-M "A M A 2"
_symmetry_group_IT_number 40
_symmetry_cell_setting 'orthorhombic'
loop_
_space_group_symop_operation_xyz
x,y,z
-x,-y,z
1/2-x,y,z
1/2+x,-y,z
x,1/2+y,1/2+z
-x,1/2-y,1/2+z
1/2-x,1/2+y,1/2+z
1/2+x,1/2-y,1/2+z
loop_
_atom_site_type_symbol
_atom_site_label
_atom_site_fract_x
_atom_site_fract_y
_atom_site_fract_z
Si Si1 0.600903 0.015404 0.308540
Si Si2 0.688137 0.451602 0.546431
Si Si3 0.188964 0.992258 0.640503
Si Si4 0.477347 0.877890 0.586398
Si Si5 0.309495 0.253255 0.335001
Si Si6 0.573400 0.777239 0.390775
O O1 0.557980 0.102319 0.393011
O O2 0.643593 0.000852 0.481973
O O3 0.571933 0.896550 0.283246
O O4 0.640359 0.029528 0.128184
O O5 0.750000 0.497859 0.563948
O O6 0.679349 0.430871 0.323492
O O7 0.687114 0.341094 0.672157
O O8 0.250000 0.010674 0.562020
O O9 0.188346 0.870209 0.730239
O O10 0.527806 0.796184 0.548910
O O11 0.441548 0.822109 0.750186
O O12 0.500000 0.000000 0.638003
O O13 0.250000 0.244353 0.429912
O O14 0.364225 0.238368 0.455924
#
# Coordination Sequence:
#
# PCOD9363427 Si02
#       6
#     8   8   8   8   8   8
#     4  10  20  39  64  90 126 164 214 266 314 376
#     4   9  19  35  58  92 126 165 212 256 318 381
#     4  10  19  35  62  92 127 169 209 259 321 377
#     4  10  22  42  60  88 126 162 215 264 314 378
#     4   9  18  36  61  90 127 159 201 261 307 368
#     4  10  21  41  63  90 123 165 210 258 317 376
#
# _framework density 23.015481000000001
#
# number of rings (size 3 to 8) (size 9 to 14) (size 15 to 20)
#    0.000    2.333    1.667    0.500    0.000    2.000 
#   12.000    4.167    0.000   14.000    0.000    0.000 
#    0.000    0.000    0.000    0.000    0.000    0.000 
#
# Total GULP energy -133950.042678 kJ/mol
# GULP energy per Si atom -5581.251778 kJ/mol
# Density = 2.296310 g / cm^3
# Si number density = 23.015481 Si / 1000 Ang^3
#
#
#
# Elastic Constant Matrix: (Units=GPa)
#
#
# Indices 1 2 3 4 5 6 
#
# 1 157.8131 8.5654 37.6304 0.0000 0.0000 0.0000
# 2 8.5654 86.6161 13.5968 0.0000 0.0000 0.0000
# 3 37.6304 13.5968 43.1484 0.0000 0.0000 0.0000
# 4 0.0000 0.0000 0.0000 36.4356 0.0000 0.0000
# 5 0.0000 0.0000 0.0000 0.0000 3.6893 0.0000
# 6 0.0000 0.0000 0.0000 0.0000 0.0000 -1.7037
#
#
#
# Elastic Compliance Matrix: (Units=1/GPa)
#
#
# Indices 1 2 3 4 5 6 
#
# 1 0.008009 0.000320 -0.007085 0.000000 0.000000 0.000000
# 2 0.000320 0.012159 -0.004111 0.000000 0.000000 0.000000
# 3 -0.007085 -0.004111 0.030651 0.000000 0.000000 0.000000
# 4 0.000000 0.000000 0.000000 0.027446 0.000000 0.000000
# 5 0.000000 0.000000 0.000000 0.000000 0.271057 0.000000
# 6 0.000000 0.000000 0.000000 0.000000 0.000000 -0.586957
#
#
# Mechanical properties :
#
#
# Convention : Reuss Voigt Hill
#
# Bulk Modulus (GPa) = 34.40427 45.24034 39.82230
# Shear Modulus (GPa) = -24.24884 22.86991 -0.68946
#
# Velocity S-wave (km/s) = -3.24942 3.15568 -0.54792
# Velocity P-wave (km/s) = 0.94996 5.74255 4.11578
#
# Compressibility (1/GPa) = 0.02906616
#
# Stress axis : x y z
#
# Youngs Moduli (GPa) = 124.86331 82.24481 32.62584
#
# Poissons Ratio (x) = -0.02634 0.23117
# Poissons Ratio (y) = -0.03999 0.13412
# Poissons Ratio (z) = 0.88472 0.33809
#
# Static dielectric constant tensor:
#      x y z
#    x 1.957610 0.000000 0.000000 
#    y 0.000000 1.886540 0.000000 
#    z 0.000000 0.000000 1.824760 
# 
# From -- ./inp_files/8744.got.cif
#   From: 2010.05.17/outbox.cif.g08.bks.cpg/sg40_5_cif.got.tgz:8744.got - 2010.06.03 18:35:42.
