data_PCOD9363924
_publ_section_title
;
Structure prediction by ZEFSAII (Michael W. Deem and Ramdas Pophale) SiO2 
 PCOD9363924
Probable space group: A M A 2
;
_chemical_formula_sum "Si O2"
_cell_formula_units_Z 64
_cell_length_a 14.594045
_cell_length_b 8.083858
_cell_length_c 24.146491
_cell_angle_alpha 90.000000
_cell_angle_beta 90.000000
_cell_angle_gamma 90.000000
_cell_volume 2848.710948
_symmetry_space_group_name_H-M "A M A 2"
_symmetry_group_IT_number 40
_symmetry_cell_setting 'orthorhombic'
loop_
_space_group_symop_operation_xyz
x,y,z
-x,-y,z
1/2-x,y,z
1/2+x,-y,z
x,1/2+y,1/2+z
-x,1/2-y,1/2+z
1/2-x,1/2+y,1/2+z
1/2+x,1/2-y,1/2+z
loop_
_atom_site_type_symbol
_atom_site_label
_atom_site_fract_x
_atom_site_fract_y
_atom_site_fract_z
Si Si1 0.106186 0.700826 0.538620
Si Si2 0.394268 0.827431 0.047709
Si Si3 0.360640 0.561943 0.852446
Si Si4 0.637788 0.124586 0.780521
Si Si5 0.860746 0.632854 0.671996
Si Si6 0.860398 0.251736 0.663870
Si Si7 0.638043 0.763578 0.789826
Si Si8 0.392275 0.519118 0.980873
O O1 0.145452 0.513176 0.539205
O O2 0.112602 0.778516 0.600453
O O3 0.145183 0.837484 0.496874
O O4 0.999032 0.671585 0.527644
O O5 0.394482 0.799254 0.113645
O O6 0.352586 0.670358 0.016656
O O7 0.250000 0.562496 0.847657
O O8 0.392804 0.718985 0.816696
O O9 0.393890 0.388654 0.826977
O O10 0.383443 0.565033 0.916873
O O11 0.750000 0.127008 0.780473
O O12 0.609198 0.143551 0.716173
O O13 0.608919 0.948179 0.804832
O O14 0.750000 0.636451 0.670028
O O15 0.888808 0.441048 0.676249
O O16 0.889727 0.727877 0.726623
O O17 0.750000 0.246407 0.664075
O O18 0.750000 0.760798 0.791121
O O19 0.500000 0.500000 0.994415
#
# Coordination Sequence:
#
# PCOD9363924 Si02
#       8
#     8   8   8   8   8   8   8   8
#     4   9  19  35  52  72 101 136 167 203 254 302
#     4   9  19  35  52  72 101 136 167 203 254 302
#     4  10  20  36  54  74 102 134 173 212 247 296
#     4   9  17  30  50  76 104 134 163 201 256 303
#     4   9  16  29  51  78 106 131 162 205 249 299
#     4   9  16  29  51  78 106 131 162 205 249 299
#     4   9  17  30  50  76 104 134 163 201 256 303
#     4  10  22  38  54  72 100 138 175 210 251 298
#
# _framework density 22.466301000000001
#
# number of rings (size 3 to 8) (size 9 to 14) (size 15 to 20)
#    0.000    2.750    1.250    0.000    1.750    2.000 
#    0.000    1.250    0.000    1.500    0.000    0.000 
#    0.000    0.000    0.000    0.000    0.000    0.000 
#
# Total GULP energy -178628.995294 kJ/mol
# GULP energy per Si atom -5582.156103 kJ/mol
# Density = 2.241517 g / cm^3
# Si number density = 22.466301 Si / 1000 Ang^3
#
#
#
# Elastic Constant Matrix: (Units=GPa)
#
#
# Indices 1 2 3 4 5 6 
#
# 1 47.7451 -11.1697 -30.0635 0.0000 0.0000 0.0000
# 2 -11.1697 129.2967 58.9347 0.0000 0.0000 0.0000
# 3 -30.0635 58.9347 74.4304 0.0000 0.0000 0.0000
# 4 0.0000 0.0000 0.0000 38.6704 0.0000 0.0000
# 5 0.0000 0.0000 0.0000 0.0000 53.6452 0.0000
# 6 0.0000 0.0000 0.0000 0.0000 0.0000 -2.2825
#
#
#
# Elastic Compliance Matrix: (Units=1/GPa)
#
#
# Indices 1 2 3 4 5 6 
#
# 1 0.029700 -0.004541 0.015592 0.000000 0.000000 0.000000
# 2 -0.004541 0.012796 -0.011967 0.000000 0.000000 0.000000
# 3 0.015592 -0.011967 0.029208 0.000000 0.000000 0.000000
# 4 0.000000 0.000000 0.000000 0.025860 0.000000 0.000000
# 5 0.000000 0.000000 0.000000 0.000000 0.018641 0.000000
# 6 0.000000 0.000000 0.000000 0.000000 0.000000 -0.438125
#
#
# Mechanical properties :
#
#
# Convention : Reuss Voigt Hill
#
# Bulk Modulus (GPa) = 14.31166 31.87504 23.09335
# Shear Modulus (GPa) = -16.84652 33.59134 8.37241
#
# Velocity S-wave (km/s) = -2.74132 3.87096 1.93255
# Velocity P-wave (km/s) = 1.90675 5.84789 3.90910
#
# Compressibility (1/GPa) = 0.06987310
#
# Stress axis : x y z
#
# Youngs Moduli (GPa) = 33.67011 78.14766 34.23674
#
# Poissons Ratio (x) = 0.35489 -0.53382
# Poissons Ratio (y) = 0.15291 0.40969
# Poissons Ratio (z) = -0.52499 0.93515
#
# Static dielectric constant tensor:
#      x y z
#    x 1.863030 0.000000 0.000000 
#    y 0.000000 1.862440 0.000000 
#    z 0.000000 0.000000 1.765480 
# 
# From -- ./inp_files/23587.got.cif
#   From: 2010.05.17/outbox.cif.g08.bks.cpg/sg40_12_cif.got.tgz:23587.got - 2010.06.03 18:35:42.
