data_PCOD9363678
_publ_section_title
;
Structure prediction by ZEFSAII (Michael W. Deem and Ramdas Pophale) SiO2 
 PCOD9363678
Probable space group: A M A 2
;
_chemical_formula_sum "Si O2"
_cell_formula_units_Z 64
_cell_length_a 30.284307
_cell_length_b 14.894267
_cell_length_c 5.843922
_cell_angle_alpha 90.000000
_cell_angle_beta 90.000000
_cell_angle_gamma 90.000000
_cell_volume 2635.974385
_symmetry_space_group_name_H-M "A M A 2"
_symmetry_group_IT_number 40
_symmetry_cell_setting 'orthorhombic'
loop_
_space_group_symop_operation_xyz
x,y,z
-x,-y,z
1/2-x,y,z
1/2+x,-y,z
x,1/2+y,1/2+z
-x,1/2-y,1/2+z
1/2-x,1/2+y,1/2+z
1/2+x,1/2-y,1/2+z
loop_
_atom_site_type_symbol
_atom_site_label
_atom_site_fract_x
_atom_site_fract_y
_atom_site_fract_z
Si Si1 0.448602 0.663788 0.461370
Si Si2 0.953897 0.676635 0.617822
Si Si3 0.823396 0.274809 0.102299
Si Si4 0.908038 0.831888 0.369640
Si Si5 0.862010 0.571288 0.119693
Si Si6 0.201040 0.258138 0.100077
Si Si7 0.138010 0.925891 0.120594
Si Si8 0.051335 0.011953 0.588664
O O1 0.496762 0.643828 0.573447
O O2 0.454672 0.759100 0.337677
O O3 0.402869 0.675385 0.600879
O O4 0.442294 0.580544 0.295924
O O5 0.940330 0.749310 0.424835
O O6 0.913751 0.605654 0.625517
O O7 0.869157 0.324505 0.048064
O O8 0.799982 0.288382 0.853013
O O9 0.835035 0.168374 0.115055
O O10 0.804511 0.294166 0.356034
O O11 0.931516 0.927046 0.383599
O O12 0.837384 0.666639 0.115417
O O13 0.850625 0.530251 0.867695
O O14 0.851811 0.530577 0.372169
O O15 0.915674 0.570828 0.118293
O O16 0.250000 0.800977 0.583467
O O17 0.000000 0.000000 0.562586
#
# Coordination Sequence:
#
# PCOD9363678 Si02
#       8
#     8   8   8   8   8   8   8   8
#     4  11  22  34  53  79 111 160 219 267 307 350
#     4  10  20  33  54  79 108 151 210 268 299 359
#     4   9  20  36  62  96 127 150 191 254 330 390
#     4  10  23  37  56  83 121 165 204 259 317 364
#     4  10  22  39  57  89 123 162 201 253 302 362
#     4  10  20  39  70 100 122 151 196 262 331 392
#     4   9  20  33  59  79 117 154 196 246 311 353
#     4  11  26  39  55  81 124 181 226 259 293 362
#
# _framework density 24.279444999999999
#
# number of rings (size 3 to 8) (size 9 to 14) (size 15 to 20)
#    0.000    2.000    1.250    1.125   14.000    0.500 
#    0.000    0.000    0.000    1.500    0.000    0.000 
#    0.000    0.000    0.000    0.000    0.000    0.000 
#
# Total GULP energy -178171.619240 kJ/mol
# GULP energy per Si atom -5567.863101 kJ/mol
# Density = 2.422418 g / cm^3
# Si number density = 24.279445 Si / 1000 Ang^3
#
#
#
# Elastic Constant Matrix: (Units=GPa)
#
#
# Indices 1 2 3 4 5 6 
#
# 1 90.2000 24.7291 23.6238 0.0000 0.0000 0.0000
# 2 24.7291 50.7517 11.0230 0.0000 0.0000 0.0000
# 3 23.6238 11.0230 198.6645 0.0000 0.0000 0.0000
# 4 0.0000 0.0000 0.0000 4.2826 0.0000 0.0000
# 5 0.0000 0.0000 0.0000 0.0000 17.4233 0.0000
# 6 0.0000 0.0000 0.0000 0.0000 0.0000 12.7696
#
#
#
# Elastic Compliance Matrix: (Units=1/GPa)
#
#
# Indices 1 2 3 4 5 6 
#
# 1 0.013080 -0.006109 -0.001216 0.000000 0.000000 0.000000
# 2 -0.006109 0.022797 -0.000538 0.000000 0.000000 0.000000
# 3 -0.001216 -0.000538 0.005208 0.000000 0.000000 0.000000
# 4 0.000000 0.000000 0.000000 0.233502 0.000000 0.000000
# 5 0.000000 0.000000 0.000000 0.000000 0.057394 0.000000
# 6 0.000000 0.000000 0.000000 0.000000 0.000000 0.078311
#
#
# Mechanical properties :
#
#
# Convention : Reuss Voigt Hill
#
# Bulk Modulus (GPa) = 39.43601 50.92981 45.18291
# Shear Modulus (GPa) = 11.50819 25.57778 18.54298
#
# Velocity S-wave (km/s) = 2.17949 3.24925 2.76657
# Velocity P-wave (km/s) = 4.75514 5.92443 5.37170
#
# Compressibility (1/GPa) = 0.02535753
#
# Stress axis : x y z
#
# Youngs Moduli (GPa) = 76.45310 43.86458 192.00727
#
# Poissons Ratio (x) = 0.26797 0.23356
# Poissons Ratio (y) = 0.46706 0.10339
# Poissons Ratio (z) = 0.09300 0.02362
#
# Static dielectric constant tensor:
#      x y z
#    x 1.940870 0.000000 0.000000 
#    y 0.000000 1.921350 0.000000 
#    z 0.000000 0.000000 2.126920 
# 
# From -- ./inp_files/3495.got.cif
#   From: 2010.05.17/outbox.cif.g08.bks.cpg/sg40_2_cif.got.tgz:3495.got - 2010.06.03 18:35:42.
