data_PCOD9363922
_publ_section_title
;
Structure prediction by ZEFSAII (Michael W. Deem and Ramdas Pophale) SiO2 
 PCOD9363922
Probable space group: A M A 2
;
_chemical_formula_sum "Si O2"
_cell_formula_units_Z 64
_cell_length_a 8.792110
_cell_length_b 28.833237
_cell_length_c 13.469135
_cell_angle_alpha 90.000000
_cell_angle_beta 90.000000
_cell_angle_gamma 90.000000
_cell_volume 3414.492952
_symmetry_space_group_name_H-M "A M A 2"
_symmetry_group_IT_number 40
_symmetry_cell_setting 'orthorhombic'
loop_
_space_group_symop_operation_xyz
x,y,z
-x,-y,z
1/2-x,y,z
1/2+x,-y,z
x,1/2+y,1/2+z
-x,1/2-y,1/2+z
1/2-x,1/2+y,1/2+z
1/2+x,1/2-y,1/2+z
loop_
_atom_site_type_symbol
_atom_site_label
_atom_site_fract_x
_atom_site_fract_y
_atom_site_fract_z
Si Si1 0.432701 0.448270 0.464820
Si Si2 0.934118 0.144162 0.585143
Si Si3 0.575015 0.253673 0.568351
Si Si4 0.565786 0.551760 0.687992
Si Si5 0.079867 0.299530 0.390876
Si Si6 0.070974 0.382805 0.867153
Si Si7 0.071776 0.615763 0.293321
Si Si8 0.415843 0.701996 0.781188
O O1 0.500000 0.500000 0.460211
O O2 0.250000 0.449526 0.459176
O O3 0.474078 0.429774 0.576507
O O4 0.496758 0.419603 0.371886
O O5 0.750000 0.142146 0.590675
O O6 0.972339 0.199640 0.582969
O O7 0.986442 0.120691 0.481135
O O8 0.000533 0.119702 0.683062
O O9 0.750000 0.251988 0.529802
O O10 0.466274 0.282924 0.498603
O O11 0.575404 0.283170 0.668205
O O12 0.500000 0.500000 0.695158
O O13 0.750000 0.550073 0.691120
O O14 0.511126 0.581799 0.782737
O O15 0.250000 0.320136 0.385503
O O16 0.079101 0.251305 0.333618
O O17 0.962021 0.334490 0.342912
O O18 0.250000 0.392102 0.875748
O O19 0.042316 0.332191 0.821011
O O20 0.250000 0.606296 0.285709
O O21 0.250000 0.680044 0.801939
#
# Coordination Sequence:
#
# PCOD9363922 Si02
#       8
#     8   8   8   8   8   8   8   8
#     4  10  21  41  66  91 121 150 187 239 297 355
#     4  10  20  38  59  80 117 160 197 243 292 340
#     4  10  20  36  53  77 113 155 198 243 291 341
#     4   9  20  39  63  91 117 147 184 230 289 350
#     4  11  22  37  55  80 115 155 198 243 292 344
#     4  10  21  37  59  86 115 151 196 238 290 351
#     4  12  25  39  59  87 118 156 203 244 293 353
#     4  10  21  35  52  78 114 152 195 240 288 340
#
# _framework density 18.743632000000002
#
# number of rings (size 3 to 8) (size 9 to 14) (size 15 to 20)
#    0.000    1.750    2.500    1.875    1.750    3.000 
#    0.000    0.625    0.000    1.500    0.000    0.000 
#    0.000    0.000    0.000    0.000    0.000    0.000 
#
# Total GULP energy -178382.158070 kJ/mol
# GULP energy per Si atom -5574.442440 kJ/mol
# Density = 1.870097 g / cm^3
# Si number density = 18.743632 Si / 1000 Ang^3
#
#
#
# Elastic Constant Matrix: (Units=GPa)
#
#
# Indices 1 2 3 4 5 6 
#
# 1 29.4099 14.3362 34.1136 0.0000 0.0000 0.0000
# 2 14.3362 57.5511 59.8973 0.0000 0.0000 0.0000
# 3 34.1136 59.8973 152.1535 0.0000 0.0000 0.0000
# 4 0.0000 0.0000 0.0000 28.9436 0.0000 0.0000
# 5 0.0000 0.0000 0.0000 0.0000 130.4996 0.0000
# 6 0.0000 0.0000 0.0000 0.0000 0.0000 27.4366
#
#
#
# Elastic Compliance Matrix: (Units=1/GPa)
#
#
# Indices 1 2 3 4 5 6 
#
# 1 0.046004 -0.001228 -0.009831 0.000000 0.000000 0.000000
# 2 -0.001228 0.029469 -0.011326 0.000000 0.000000 0.000000
# 3 -0.009831 -0.011326 0.013235 0.000000 0.000000 0.000000
# 4 0.000000 0.000000 0.000000 0.034550 0.000000 0.000000
# 5 0.000000 0.000000 0.000000 0.000000 0.007663 0.000000
# 6 0.000000 0.000000 0.000000 0.000000 0.000000 0.036448
#
#
# Mechanical properties :
#
#
# Convention : Reuss Voigt Hill
#
# Bulk Modulus (GPa) = 22.75889 50.64544 36.70216
# Shear Modulus (GPa) = 22.04743 46.09378 34.07060
#
# Velocity S-wave (km/s) = 3.43339 4.96438 4.26809
# Velocity P-wave (km/s) = 5.28073 7.74202 6.62665
#
# Compressibility (1/GPa) = 0.04393888
#
# Stress axis : x y z
#
# Youngs Moduli (GPa) = 21.73722 33.93391 75.55775
#
# Poissons Ratio (x) = 0.04167 0.74280
# Poissons Ratio (y) = 0.02670 0.85573
# Poissons Ratio (z) = 0.21370 0.38432
#
# Static dielectric constant tensor:
#      x y z
#    x 1.675550 0.000000 0.000000 
#    y 0.000000 1.612730 0.000000 
#    z 0.000000 0.000000 1.652820 
# 
# From -- ./inp_files/10703.got.cif
#   From: 2010.05.17/outbox.cif.g08.bks.cpg/sg40_6_cif.got.tgz:10703.got - 2010.06.03 18:35:42.
