data_PCOD9363864
_publ_section_title
;
Structure prediction by ZEFSAII (Michael W. Deem and Ramdas Pophale) SiO2 
 PCOD9363864
Probable space group: A M A 2
;
_chemical_formula_sum "Si O2"
_cell_formula_units_Z 64
_cell_length_a 25.952767
_cell_length_b 14.494674
_cell_length_c 7.333625
_cell_angle_alpha 90.000000
_cell_angle_beta 90.000000
_cell_angle_gamma 90.000000
_cell_volume 2758.740297
_symmetry_space_group_name_H-M "A M A 2"
_symmetry_group_IT_number 40
_symmetry_cell_setting 'orthorhombic'
loop_
_space_group_symop_operation_xyz
x,y,z
-x,-y,z
1/2-x,y,z
1/2+x,-y,z
x,1/2+y,1/2+z
-x,1/2-y,1/2+z
1/2-x,1/2+y,1/2+z
1/2+x,1/2-y,1/2+z
loop_
_atom_site_type_symbol
_atom_site_label
_atom_site_fract_x
_atom_site_fract_y
_atom_site_fract_z
Si Si1 0.899881 0.679390 0.245030
Si Si2 0.855001 0.374378 0.858408
Si Si3 0.192279 0.944031 0.297971
Si Si4 0.193986 0.938501 0.744732
Si Si5 0.969904 0.404376 0.839374
Si Si6 0.307659 0.150204 0.757022
Si Si7 0.887036 0.705062 0.834341
Si Si8 0.004412 0.730878 0.174413
O O1 0.872271 0.777135 0.277800
O O2 0.858186 0.607339 0.314400
O O3 0.959916 0.682097 0.302293
O O4 0.903666 0.666200 0.028316
O O5 0.820162 0.449196 0.755686
O O6 0.910187 0.425012 0.878409
O O7 0.827497 0.350729 0.048471
O O8 0.250000 0.920200 0.236277
O O9 0.192462 0.938648 0.521753
O O10 0.147644 0.873340 0.237524
O O11 0.250000 0.896267 0.793368
O O12 0.193440 0.043534 0.808820
O O13 0.000000 0.500000 0.821777
O O14 0.978668 0.334175 0.667883
O O15 0.988208 0.340023 0.008087
O O16 0.250000 0.187841 0.770641
O O17 0.347528 0.211543 0.865545
O O18 0.937653 0.745442 0.738513
#
# Coordination Sequence:
#
# PCOD9363864 Si02
#       8
#     8   8   8   8   8   8   8   8
#     4  10  22  36  60  84 115 155 194 253 306 363
#     4  10  20  36  58  86 113 150 201 247 309 366
#     4   9  18  34  58  84 110 151 201 245 296 370
#     4   8  17  34  56  81 109 147 194 239 291 362
#     4  11  23  40  65  91 124 172 206 261 330 374
#     4  10  20  35  57  84 115 151 197 247 298 369
#     4  11  20  37  59  83 117 156 195 251 308 369
#     4  11  22  38  62  93 126 158 216 263 308 395
#
# _framework density 23.198996000000001
#
# number of rings (size 3 to 8) (size 9 to 14) (size 15 to 20)
#    0.000    2.000    2.500    2.250    3.500    1.500 
#    0.000    1.875   11.000    1.500    0.000    0.000 
#    0.000    0.000    0.000    0.000    0.000    0.000 
#
# Total GULP energy -178427.001362 kJ/mol
# GULP energy per Si atom -5575.843793 kJ/mol
# Density = 2.314619 g / cm^3
# Si number density = 23.198996 Si / 1000 Ang^3
#
#
#
# Elastic Constant Matrix: (Units=GPa)
#
#
# Indices 1 2 3 4 5 6 
#
# 1 177.1633 35.5218 8.4173 0.0000 0.0000 0.0000
# 2 35.5218 73.6983 3.6193 0.0000 0.0000 0.0000
# 3 8.4173 3.6193 59.0148 0.0000 0.0000 0.0000
# 4 0.0000 0.0000 0.0000 20.9642 0.0000 0.0000
# 5 0.0000 0.0000 0.0000 0.0000 16.7404 0.0000
# 6 0.0000 0.0000 0.0000 0.0000 0.0000 46.6458
#
#
#
# Elastic Compliance Matrix: (Units=1/GPa)
#
#
# Indices 1 2 3 4 5 6 
#
# 1 0.006278 -0.002991 -0.000712 0.000000 0.000000 0.000000
# 2 -0.002991 0.015035 -0.000495 0.000000 0.000000 0.000000
# 3 -0.000712 -0.000495 0.017077 0.000000 0.000000 0.000000
# 4 0.000000 0.000000 0.000000 0.047700 0.000000 0.000000
# 5 0.000000 0.000000 0.000000 0.000000 0.059736 0.000000
# 6 0.000000 0.000000 0.000000 0.000000 0.000000 0.021438
#
#
# Mechanical properties :
#
#
# Convention : Reuss Voigt Hill
#
# Bulk Modulus (GPa) = 33.34136 44.99923 39.17030
# Shear Modulus (GPa) = 26.93119 34.35795 30.64457
#
# Velocity S-wave (km/s) = 3.41086 3.85256 3.63842
# Velocity P-wave (km/s) = 5.46947 6.26329 5.87979
#
# Compressibility (1/GPa) = 0.02999278
#
# Stress axis : x y z
#
# Youngs Moduli (GPa) = 159.28545 66.51238 58.55884
#
# Poissons Ratio (x) = 0.19894 0.04169
# Poissons Ratio (y) = 0.47642 0.02901
# Poissons Ratio (z) = 0.11341 0.03295
#
# Static dielectric constant tensor:
#      x y z
#    x 1.922080 0.000000 0.000000 
#    y 0.000000 1.866840 0.000000 
#    z 0.000000 0.000000 1.945240 
# 
# From -- ./inp_files/8899.got.cif
#   From: 2010.05.17/outbox.cif.g08.bks.cpg/sg40_5_cif.got.tgz:8899.got - 2010.06.03 18:35:42.
