data_PCOD9363952
_publ_section_title
;
Structure prediction by ZEFSAII (Michael W. Deem and Ramdas Pophale) SiO2 
 PCOD9363952
Probable space group: A M A 2
;
_chemical_formula_sum "Si O2"
_cell_formula_units_Z 64
_cell_length_a 8.583362
_cell_length_b 25.679612
_cell_length_c 15.513201
_cell_angle_alpha 90.000000
_cell_angle_beta 90.000000
_cell_angle_gamma 90.000000
_cell_volume 3419.379520
_symmetry_space_group_name_H-M "A M A 2"
_symmetry_group_IT_number 40
_symmetry_cell_setting 'orthorhombic'
loop_
_space_group_symop_operation_xyz
x,y,z
-x,-y,z
1/2-x,y,z
1/2+x,-y,z
x,1/2+y,1/2+z
-x,1/2-y,1/2+z
1/2-x,1/2+y,1/2+z
1/2+x,1/2-y,1/2+z
loop_
_atom_site_type_symbol
_atom_site_label
_atom_site_fract_x
_atom_site_fract_y
_atom_site_fract_z
Si Si1 0.563739 0.353414 0.723850
Si Si2 0.438430 0.058315 0.700424
Si Si3 0.563580 0.335739 0.529865
Si Si4 0.940506 0.861939 0.847078
Si Si5 0.065668 0.723961 0.048819
Si Si6 0.065556 0.242082 0.752144
Si Si7 0.565105 0.056920 0.345758
Si Si8 0.438662 0.608097 0.017600
O O1 0.750000 0.358935 0.724652
O O2 0.505341 0.352435 0.624312
O O3 0.520221 0.296892 0.762327
O O4 0.490394 0.399782 0.777962
O O5 0.250000 0.057663 0.701168
O O6 0.491646 0.093763 0.780641
O O7 0.486223 0.084486 0.609842
O O8 0.500000 0.000000 0.706087
O O9 0.750000 0.340003 0.533120
O O10 0.507994 0.367028 0.446044
O O11 0.521213 0.275173 0.516801
O O12 0.750000 0.861992 0.845582
O O13 0.988883 0.805350 0.811408
O O14 0.250000 0.729569 0.031210
O O15 0.047232 0.723710 0.152772
O O16 0.011464 0.668574 0.012466
O O17 0.250000 0.250483 0.766616
O O18 0.750000 0.054862 0.347819
O O19 0.502922 0.074781 0.439098
O O20 0.500000 0.000000 0.324403
O O21 0.250000 0.607735 0.014502
#
# Coordination Sequence:
#
# PCOD9363952 Si02
#       8
#     8   8   8   8   8   8   8   8
#     4  10  21  38  57  82 116 149 187 237 287 333
#     4  10  20  36  57  80 112 153 190 229 276 332
#     4   9  19  34  55  82 115 152 188 231 278 332
#     4   9  17  33  56  81 112 150 191 229 275 331
#     4   9  17  31  52  80 115 152 186 223 271 329
#     4   9  16  31  55  82 112 151 190 224 272 334
#     4  12  26  43  62  83 108 145 192 241 290 345
#     4  10  20  36  57  84 118 152 185 226 281 338
#
# _framework density 18.716846
#
# number of rings (size 3 to 8) (size 9 to 14) (size 15 to 20)
#    0.000    2.250    1.250    1.875    1.750    2.500 
#    0.000    1.875    0.000    1.500    0.000    0.000 
#    0.000    0.000    0.000    0.000    0.000    0.000 
#
# Total GULP energy -178629.807401 kJ/mol
# GULP energy per Si atom -5582.181481 kJ/mol
# Density = 1.867425 g / cm^3
# Si number density = 18.716846 Si / 1000 Ang^3
#
#
#
# Elastic Constant Matrix: (Units=GPa)
#
#
# Indices 1 2 3 4 5 6 
#
# 1 20.6186 21.4331 18.9632 0.0000 0.0000 0.0000
# 2 21.4331 123.4046 67.0003 0.0000 0.0000 0.0000
# 3 18.9632 67.0003 103.5893 0.0000 0.0000 0.0000
# 4 0.0000 0.0000 0.0000 26.2283 0.0000 0.0000
# 5 0.0000 0.0000 0.0000 0.0000 35.5606 0.0000
# 6 0.0000 0.0000 0.0000 0.0000 0.0000 31.9544
#
#
#
# Elastic Compliance Matrix: (Units=1/GPa)
#
#
# Indices 1 2 3 4 5 6 
#
# 1 0.062122 -0.007113 -0.006772 0.000000 0.000000 0.000000
# 2 -0.007113 0.013304 -0.007302 0.000000 0.000000 0.000000
# 3 -0.006772 -0.007302 0.015616 0.000000 0.000000 0.000000
# 4 0.000000 0.000000 0.000000 0.038127 0.000000 0.000000
# 5 0.000000 0.000000 0.000000 0.000000 0.028121 0.000000
# 6 0.000000 0.000000 0.000000 0.000000 0.000000 0.031295
#
#
# Mechanical properties :
#
#
# Convention : Reuss Voigt Hill
#
# Bulk Modulus (GPa) = 20.54752 51.37841 35.96296
# Shear Modulus (GPa) = 20.22814 28.09638 24.16226
#
# Velocity S-wave (km/s) = 3.29104 3.87864 3.59686
# Velocity P-wave (km/s) = 5.04412 6.89699 6.04200
#
# Compressibility (1/GPa) = 0.04866768
#
# Stress axis : x y z
#
# Youngs Moduli (GPa) = 16.09742 75.16795 64.03570
#
# Poissons Ratio (x) = 0.53466 0.43362
# Poissons Ratio (y) = 0.11450 0.46762
# Poissons Ratio (z) = 0.10901 0.54891
#
# Static dielectric constant tensor:
#      x y z
#    x 1.633040 0.000000 0.000000 
#    y 0.000000 1.613950 0.000000 
#    z 0.000000 0.000000 1.675770 
# 
# From -- ./inp_files/15615.got.cif
#   From: 2010.05.17/outbox.cif.g08.bks.cpg/sg40_8_cif.got.tgz:15615.got - 2010.06.03 18:35:42.
