data_PCOD9363436
_publ_section_title
;
Structure prediction by ZEFSAII (Michael W. Deem and Ramdas Pophale) SiO2 
 PCOD9363436
Probable space group: A M A 2
;
_chemical_formula_sum "Si O2"
_cell_formula_units_Z 60
_cell_length_a 31.545361
_cell_length_b 8.916016
_cell_length_c 10.943152
_cell_angle_alpha 90.000000
_cell_angle_beta 90.000000
_cell_angle_gamma 90.000000
_cell_volume 3077.859369
_symmetry_space_group_name_H-M "A M A 2"
_symmetry_group_IT_number 40
_symmetry_cell_setting 'orthorhombic'
loop_
_space_group_symop_operation_xyz
x,y,z
-x,-y,z
1/2-x,y,z
1/2+x,-y,z
x,1/2+y,1/2+z
-x,1/2-y,1/2+z
1/2-x,1/2+y,1/2+z
1/2+x,1/2-y,1/2+z
loop_
_atom_site_type_symbol
_atom_site_label
_atom_site_fract_x
_atom_site_fract_y
_atom_site_fract_z
Si Si1 0.700021 0.129120 0.674150
Si Si2 0.832578 0.294115 0.172362
Si Si3 0.974729 0.261419 0.450258
Si Si4 0.069395 0.219488 0.716801
Si Si5 0.941120 0.591603 0.473490
Si Si6 0.000000 0.500000 0.133521
Si Si7 0.300557 0.207014 0.923795
Si Si8 0.656073 0.618300 0.420275
O O1 0.750000 0.153688 0.694385
O O2 0.687525 0.204492 0.546208
O O3 0.674648 0.183991 0.793919
O O4 0.691169 0.952081 0.660193
O O5 0.881729 0.323061 0.205955
O O6 0.813197 0.217702 0.294213
O O7 0.831458 0.205513 0.044663
O O8 0.944781 0.204166 0.342212
O O9 0.953693 0.418300 0.491656
O O10 0.021593 0.315297 0.406428
O O11 0.981192 0.133376 0.549944
O O12 0.060466 0.330220 0.605473
O O13 0.038736 0.075212 0.706088
O O14 0.894840 0.607838 0.415854
O O15 0.250000 0.184448 0.924013
O O16 0.324028 0.047493 0.928322
#
# Coordination Sequence:
#
# PCOD9363436 Si02
#       8
#     8   8   8   8   8   4   8   8
#     4  10  22  38  57  83 112 143 182 227 275 330
#     4  10  21  37  58  83 113 145 182 229 277 327
#     4  10  19  36  55  75 109 145 178 222 273 320
#     4  10  21  36  54  80 109 140 182 225 270 325
#     4   9  20  36  54  79 109 141 181 226 272 319
#     4  10  22  34  54  82 104 142 188 222 266 324
#     4  10  22  38  56  83 114 144 182 226 276 333
#     4  10  20  38  59  82 111 146 185 227 274 327
#
# _framework density 19.494067999999999
#
# number of rings (size 3 to 8) (size 9 to 14) (size 15 to 20)
#    0.000    2.133    0.000    4.000    0.000    7.467 
#    0.000   13.333    0.000    0.000    0.000    0.000 
#    0.000    0.000    0.000    0.000    0.000    0.000 
#
# Total GULP energy -167378.086274 kJ/mol
# GULP energy per Si atom -5579.269542 kJ/mol
# Density = 1.944970 g / cm^3
# Si number density = 19.494068 Si / 1000 Ang^3
#
#
#
# Elastic Constant Matrix: (Units=GPa)
#
#
# Indices 1 2 3 4 5 6 
#
# 1 76.9351 20.7348 38.9538 0.0000 0.0000 0.0000
# 2 20.7348 37.9128 38.7481 0.0000 0.0000 0.0000
# 3 38.9538 38.7481 115.9259 0.0000 0.0000 0.0000
# 4 0.0000 0.0000 0.0000 31.8082 0.0000 0.0000
# 5 0.0000 0.0000 0.0000 0.0000 41.6519 0.0000
# 6 0.0000 0.0000 0.0000 0.0000 0.0000 71.4663
#
#
#
# Elastic Compliance Matrix: (Units=1/GPa)
#
#
# Indices 1 2 3 4 5 6 
#
# 1 0.016270 -0.005028 -0.003786 0.000000 0.000000 0.000000
# 2 -0.005028 0.041616 -0.012220 0.000000 0.000000 0.000000
# 3 -0.003786 -0.012220 0.013983 0.000000 0.000000 0.000000
# 4 0.000000 0.000000 0.000000 0.031438 0.000000 0.000000
# 5 0.000000 0.000000 0.000000 0.000000 0.024009 0.000000
# 6 0.000000 0.000000 0.000000 0.000000 0.000000 0.013993
#
#
# Mechanical properties :
#
#
# Convention : Reuss Voigt Hill
#
# Bulk Modulus (GPa) = 33.55827 47.51636 40.53731
# Shear Modulus (GPa) = 25.86478 37.80776 31.83627
#
# Velocity S-wave (km/s) = 3.64648 4.40870 4.04558
# Velocity P-wave (km/s) = 5.91448 7.09529 6.53162
#
# Compressibility (1/GPa) = 0.02979891
#
# Stress axis : x y z
#
# Youngs Moduli (GPa) = 61.46150 24.02914 71.51434
#
# Poissons Ratio (x) = 0.12083 0.27079
# Poissons Ratio (y) = 0.30906 0.87394
# Poissons Ratio (z) = 0.23272 0.29365
#
# Static dielectric constant tensor:
#      x y z
#    x 1.691930 0.000000 0.000000 
#    y 0.000000 1.664850 0.000000 
#    z 0.000000 0.000000 1.724490 
# 
# From -- ./inp_files/14240.got.cif
#   From: 2010.05.17/outbox.cif.g08.bks.cpg/sg40_8_cif.got.tgz:14240.got - 2010.06.03 18:35:42.
