data_PCOD9363998
_publ_section_title
;
Structure prediction by ZEFSAII (Michael W. Deem and Ramdas Pophale) SiO2 
 PCOD9363998
Probable space group: A M A 2
;
_chemical_formula_sum "Si O2"
_cell_formula_units_Z 40
_cell_length_a 15.236975
_cell_length_b 5.028856
_cell_length_c 23.287316
_cell_angle_alpha 90.000000
_cell_angle_beta 90.000000
_cell_angle_gamma 90.000000
_cell_volume 1784.380183
_symmetry_space_group_name_H-M "A M A 2"
_symmetry_group_IT_number 40
_symmetry_cell_setting 'orthorhombic'
loop_
_space_group_symop_operation_xyz
x,y,z
-x,-y,z
1/2-x,y,z
1/2+x,-y,z
x,1/2+y,1/2+z
-x,1/2-y,1/2+z
1/2-x,1/2+y,1/2+z
1/2+x,1/2-y,1/2+z
loop_
_atom_site_type_symbol
_atom_site_label
_atom_site_fract_x
_atom_site_fract_y
_atom_site_fract_z
Si Si1 0.147159 0.451003 0.988140
Si Si2 0.648760 0.022758 0.912077
Si Si3 0.851240 0.477241 0.690607
Si Si4 0.647159 0.451002 0.114544
Si Si5 0.553414 0.750000 0.301342
O O1 0.250000 0.368374 0.997423
O O2 0.146979 0.724883 0.953876
O O3 0.107611 0.222505 0.947459
O O4 0.109106 0.500000 0.051342
O O5 0.750000 0.952131 0.898809
O O6 0.605854 0.110584 0.852723
O O7 0.750000 0.547869 0.703875
O O8 0.892390 0.722504 0.655225
O O9 0.894147 0.389416 0.749961
O O10 0.853021 0.224882 0.648808
O O11 0.750000 0.368373 0.105261
O O12 0.500000 0.500000 0.276064
O O13 0.500000 0.000000 0.326620
#
# Coordination Sequence:
#
# PCOD9363998 Si02
#       5
#     8   8   8   8   8
#     4   9  17  31  56  89 117 141 180 237 292 343
#     4  10  20  36  59  85 114 150 193 237 286 349
#     4  10  20  36  59  85 114 150 193 237 286 349
#     4   9  17  31  56  89 117 141 180 237 292 343
#     4  12  25  40  57  80 116 158 200 246 293 342
#
# _framework density 22.416746
#
# number of rings (size 3 to 8) (size 9 to 14) (size 15 to 20)
#    0.000    2.000    0.000    4.200    0.000    4.800 
#    0.000    8.000    0.000   18.000    0.000    0.000 
#    0.000    0.000    0.000    0.000    0.000    0.000 
#
# Total GULP energy -111740.016869 kJ/mol
# GULP energy per Si atom -5587.000843 kJ/mol
# Density = 2.236572 g / cm^3
# Si number density = 22.416746 Si / 1000 Ang^3
#
#
#
# Elastic Constant Matrix: (Units=GPa)
#
#
# Indices 1 2 3 4 5 6 
#
# 1 33.0956 16.8718 37.0770 0.0000 0.0000 0.0000
# 2 16.8718 113.2195 34.7094 0.0000 0.0000 0.0000
# 3 37.0770 34.7094 155.1563 0.0000 0.0000 0.0000
# 4 0.0000 0.0000 0.0000 25.7461 0.0000 0.0000
# 5 0.0000 0.0000 0.0000 0.0000 17.1767 0.0000
# 6 0.0000 0.0000 0.0000 0.0000 0.0000 -5.3375
#
#
#
# Elastic Compliance Matrix: (Units=1/GPa)
#
#
# Indices 1 2 3 4 5 6 
#
# 1 0.042485 -0.003456 -0.009379 0.000000 0.000000 0.000000
# 2 -0.003456 0.009764 -0.001358 0.000000 0.000000 0.000000
# 3 -0.009379 -0.001358 0.008990 0.000000 0.000000 0.000000
# 4 0.000000 0.000000 0.000000 0.038841 0.000000 0.000000
# 5 0.000000 0.000000 0.000000 0.000000 0.058218 0.000000
# 6 0.000000 0.000000 0.000000 0.000000 0.000000 -0.187354
#
#
# Mechanical properties :
#
#
# Convention : Reuss Voigt Hill
#
# Bulk Modulus (GPa) = 30.43944 53.19866 41.81905
# Shear Modulus (GPa) = 486.29013 21.70461 253.99737
#
# Velocity S-wave (km/s) = 14.74458 3.11502 10.65612
# Velocity P-wave (km/s) = 17.42063 6.05978 13.04223
#
# Compressibility (1/GPa) = 0.03285212
#
# Stress axis : x y z
#
# Youngs Moduli (GPa) = 23.53781 102.41908 111.23035
#
# Poissons Ratio (x) = 0.35392 1.04327
# Poissons Ratio (y) = 0.08134 0.15110
# Poissons Ratio (z) = 0.22077 0.13913
#
# Static dielectric constant tensor:
#      x y z
#    x 1.915160 0.000000 0.000000 
#    y 0.000000 1.805160 0.000000 
#    z 0.000000 0.000000 1.814450 
# 
# From -- ./inp_files/1817.got.cif
#   From: 2010.05.17/outbox.cif.g08.bks.cpg/sg40_1_cif.got.tgz:1817.got - 2010.06.03 18:35:42.
