data_PCOD9363549
_publ_section_title
;
Structure prediction by ZEFSAII (Michael W. Deem and Ramdas Pophale) SiO2 
 PCOD9363549
Probable space group: A M A 2
;
_chemical_formula_sum "Si O2"
_cell_formula_units_Z 64
_cell_length_a 8.659856
_cell_length_b 15.848333
_cell_length_c 24.314584
_cell_angle_alpha 90.000000
_cell_angle_beta 90.000000
_cell_angle_gamma 90.000000
_cell_volume 3337.037614
_symmetry_space_group_name_H-M "A M A 2"
_symmetry_group_IT_number 40
_symmetry_cell_setting 'orthorhombic'
loop_
_space_group_symop_operation_xyz
x,y,z
-x,-y,z
1/2-x,y,z
1/2+x,-y,z
x,1/2+y,1/2+z
-x,1/2-y,1/2+z
1/2-x,1/2+y,1/2+z
1/2+x,1/2-y,1/2+z
loop_
_atom_site_type_symbol
_atom_site_label
_atom_site_fract_x
_atom_site_fract_y
_atom_site_fract_z
Si Si1 0.564619 0.249097 0.034120
Si Si2 0.563683 0.910583 0.338410
Si Si3 0.935349 0.590968 0.099590
Si Si4 0.437481 0.151909 0.219861
Si Si5 0.936245 0.744967 0.405750
Si Si6 0.563672 0.150760 0.721322
Si Si7 0.564342 0.909790 0.100664
Si Si8 0.933243 0.910276 0.836301
O O1 0.750000 0.248178 0.038592
O O2 0.500777 0.333087 0.063069
O O3 0.496296 0.167367 0.064341
O O4 0.522473 0.247001 0.969804
O O5 0.750000 0.913542 0.338311
O O6 0.509720 0.892134 0.275896
O O7 0.516151 0.831602 0.375796
O O8 0.500000 0.000000 0.357555
O O9 0.750000 0.591503 0.096439
O O10 0.979374 0.609238 0.163254
O O11 0.000000 0.500000 0.082950
O O12 0.250000 0.150361 0.220080
O O13 0.481637 0.250458 0.220041
O O14 0.488259 0.107972 0.163616
O O15 0.750000 0.739030 0.401208
O O16 0.006726 0.665688 0.374096
O O17 0.750000 0.146904 0.726831
O O18 0.489968 0.107411 0.774144
O O19 0.750000 0.910467 0.099456
O O20 0.500000 0.000000 0.082403
O O21 0.750000 0.913151 0.837353
O O22 0.000000 0.000000 0.854826
#
# Coordination Sequence:
#
# PCOD9363549 Si02
#       8
#     8   8   8   8   8   8   8   8
#     4  11  24  42  64  90 119 159 210 260 310 362
#     4  10  20  37  61  87 119 154 191 239 292 354
#     4  11  23  40  64  92 125 164 205 252 308 368
#     4   9  17  34  61  88 119 158 194 236 297 357
#     4  10  23  44  65  85 118 162 205 254 307 356
#     4  10  19  38  64  90 123 162 200 246 305 365
#     4  11  22  39  62  92 124 161 201 246 307 366
#     4  12  25  40  63  94 124 159 201 250 306 368
#
# _framework density 19.178688000000001
#
# number of rings (size 3 to 8) (size 9 to 14) (size 15 to 20)
#    0.000    1.500    2.500    3.000    0.000    4.500 
#    0.000    1.875    0.000    0.000    0.000    0.000 
#    0.000    0.000    0.000    0.000    0.000    0.000 
#
# Total GULP energy -178899.531709 kJ/mol
# GULP energy per Si atom -5590.610366 kJ/mol
# Density = 1.913504 g / cm^3
# Si number density = 19.178688 Si / 1000 Ang^3
#
#
#
# Elastic Constant Matrix: (Units=GPa)
#
#
# Indices 1 2 3 4 5 6 
#
# 1 44.9080 50.6726 54.0898 0.0000 0.0000 0.0000
# 2 50.6726 203.7111 89.6074 0.0000 0.0000 0.0000
# 3 54.0898 89.6074 148.6486 0.0000 0.0000 0.0000
# 4 0.0000 0.0000 0.0000 -4.5588 0.0000 0.0000
# 5 0.0000 0.0000 0.0000 0.0000 44.4990 0.0000
# 6 0.0000 0.0000 0.0000 0.0000 0.0000 32.7913
#
#
#
# Elastic Compliance Matrix: (Units=1/GPa)
#
#
# Indices 1 2 3 4 5 6 
#
# 1 0.043392 -0.005237 -0.012633 0.000000 0.000000 0.000000
# 2 -0.005237 0.007312 -0.002502 0.000000 0.000000 0.000000
# 3 -0.012633 -0.002502 0.012832 0.000000 0.000000 0.000000
# 4 0.000000 0.000000 0.000000 -0.219354 0.000000 0.000000
# 5 0.000000 0.000000 0.000000 0.000000 0.022472 0.000000
# 6 0.000000 0.000000 0.000000 0.000000 0.000000 0.030496
#
#
# Mechanical properties :
#
#
# Convention : Reuss Voigt Hill
#
# Bulk Modulus (GPa) = 43.87245 87.33414 65.60330
# Shear Modulus (GPa) = -91.73060 28.07283 -31.82888
#
# Velocity S-wave (km/s) = -6.92339 3.83005 -4.07823
# Velocity P-wave (km/s) = 6.40201 8.07434 3.47917
#
# Compressibility (1/GPa) = 0.02279335
#
# Stress axis : x y z
#
# Youngs Moduli (GPa) = 23.04551 136.75547 77.92770
#
# Poissons Ratio (x) = 0.71619 0.98442
# Poissons Ratio (y) = 0.12069 0.19500
# Poissons Ratio (z) = 0.29112 0.34221
#
# Static dielectric constant tensor:
#      x y z
#    x 1.646840 0.000000 0.000000 
#    y 0.000000 1.643000 0.000000 
#    z 0.000000 0.000000 1.655280 
# 
# From -- ./inp_files/24266.got.cif
#   From: 2010.05.17/outbox.cif.g08.bks.cpg/sg40_13_cif.got.tgz:24266.got - 2010.06.03 18:35:42.
