data_PCOD9363101
_publ_section_title
;
Structure prediction by ZEFSAII (Michael W. Deem and Ramdas Pophale) SiO2 
 PCOD9363101
Probable space group: A M A 2
;
_chemical_formula_sum "Si O2"
_cell_formula_units_Z 64
_cell_length_a 8.866040
_cell_length_b 25.318985
_cell_length_c 15.258178
_cell_angle_alpha 90.000000
_cell_angle_beta 90.000000
_cell_angle_gamma 90.000000
_cell_volume 3425.142580
_symmetry_space_group_name_H-M "A M A 2"
_symmetry_group_IT_number 40
_symmetry_cell_setting 'orthorhombic'
loop_
_space_group_symop_operation_xyz
x,y,z
-x,-y,z
1/2-x,y,z
1/2+x,-y,z
x,1/2+y,1/2+z
-x,1/2-y,1/2+z
1/2-x,1/2+y,1/2+z
1/2+x,1/2-y,1/2+z
loop_
_atom_site_type_symbol
_atom_site_label
_atom_site_fract_x
_atom_site_fract_y
_atom_site_fract_z
Si Si1 0.930028 0.056409 0.878710
Si Si2 0.571781 0.283635 0.172600
Si Si3 0.071233 0.267669 0.985147
Si Si4 0.429772 0.870532 0.373976
Si Si5 0.929640 0.941775 0.522785
Si Si6 0.570430 0.108662 0.696376
Si Si7 0.570526 0.852354 0.996487
Si Si8 0.568604 0.662715 0.686161
O O1 0.750000 0.053892 0.885109
O O2 0.969598 0.072027 0.778685
O O3 0.000000 0.000000 0.901303
O O4 0.990934 0.102619 0.940725
O O5 0.750000 0.292444 0.182859
O O6 0.482431 0.331673 0.215451
O O7 0.535254 0.224605 0.204563
O O8 0.525448 0.282799 0.070187
O O9 0.250000 0.269554 0.008964
O O10 0.046437 0.311315 0.911323
O O11 0.036676 0.207035 0.961533
O O12 0.250000 0.881086 0.380671
O O13 0.516859 0.910359 0.436694
O O14 0.472804 0.870576 0.271961
O O15 0.750000 0.944697 0.526292
O O16 0.990584 0.911157 0.608282
O O17 0.000000 0.000000 0.522842
O O18 0.750000 0.107495 0.683106
O O19 0.750000 0.859668 0.993186
O O20 0.513743 0.852980 0.096924
O O21 0.750000 0.659198 0.673302
#
# Coordination Sequence:
#
# PCOD9363101 Si02
#       8
#     8   8   8   8   8   8   8   8
#     4  11  25  43  63  87 116 154 201 253 301 356
#     4  10  19  32  55  87 121 158 198 239 290 349
#     4   9  18  33  56  84 120 160 195 234 289 351
#     4  10  20  37  60  87 122 162 201 245 294 349
#     4  12  25  41  62  88 119 159 201 248 298 355
#     4  11  23  39  59  87 122 159 197 242 295 355
#     4  10  21  38  62  89 120 158 198 247 301 357
#     4   9  20  37  59  87 123 162 201 247 296 350
#
# _framework density 18.685354
#
# number of rings (size 3 to 8) (size 9 to 14) (size 15 to 20)
#    0.000    1.750    1.250    3.000    1.750    4.500 
#    0.000    0.625    0.000    3.000    0.000    0.000 
#    0.000    0.000    0.000    0.000    0.000    0.000 
#
# Total GULP energy -178789.675267 kJ/mol
# GULP energy per Si atom -5587.177352 kJ/mol
# Density = 1.864283 g / cm^3
# Si number density = 18.685354 Si / 1000 Ang^3
#
#
#
# Elastic Constant Matrix: (Units=GPa)
#
#
# Indices 1 2 3 4 5 6 
#
# 1 53.8987 40.0819 32.4634 0.0000 0.0000 0.0000
# 2 40.0819 99.2822 35.5139 0.0000 0.0000 0.0000
# 3 32.4634 35.5139 59.2004 0.0000 0.0000 0.0000
# 4 0.0000 0.0000 0.0000 26.0821 0.0000 0.0000
# 5 0.0000 0.0000 0.0000 0.0000 18.6359 0.0000
# 6 0.0000 0.0000 0.0000 0.0000 0.0000 31.9861
#
#
#
# Elastic Compliance Matrix: (Units=1/GPa)
#
#
# Indices 1 2 3 4 5 6 
#
# 1 0.032625 -0.008622 -0.012718 0.000000 0.000000 0.000000
# 2 -0.008622 0.015103 -0.004332 0.000000 0.000000 0.000000
# 3 -0.012718 -0.004332 0.026465 0.000000 0.000000 0.000000
# 4 0.000000 0.000000 0.000000 0.038340 0.000000 0.000000
# 5 0.000000 0.000000 0.000000 0.000000 0.053660 0.000000
# 6 0.000000 0.000000 0.000000 0.000000 0.000000 0.031264
#
#
# Mechanical properties :
#
#
# Convention : Reuss Voigt Hill
#
# Bulk Modulus (GPa) = 43.76707 47.61109 45.68908
# Shear Modulus (GPa) = 19.49942 22.29562 20.89752
#
# Velocity S-wave (km/s) = 3.23393 3.45804 3.34786
# Velocity P-wave (km/s) = 6.11706 6.44048 6.28086
#
# Compressibility (1/GPa) = 0.02284823
#
# Stress axis : x y z
#
# Youngs Moduli (GPa) = 30.65093 66.21313 37.78602
#
# Poissons Ratio (x) = 0.57089 0.48058
# Poissons Ratio (y) = 0.26427 0.16369
# Poissons Ratio (z) = 0.38983 0.28684
#
# Static dielectric constant tensor:
#      x y z
#    x 1.621610 0.000000 0.000000 
#    y 0.000000 1.638020 0.000000 
#    z 0.000000 0.000000 1.635210 
# 
# From -- ./inp_files/15671.got.cif
#   From: 2010.05.17/outbox.cif.g08.bks.cpg/sg40_8_cif.got.tgz:15671.got - 2010.06.03 18:35:42.
