data_PCOD9363666
_publ_section_title
;
Structure prediction by ZEFSAII (Michael W. Deem and Ramdas Pophale) SiO2 
 PCOD9363666
Probable space group: A M A 2
;
_chemical_formula_sum "Si O2"
_cell_formula_units_Z 56
_cell_length_a 8.714868
_cell_length_b 24.284778
_cell_length_c 14.104091
_cell_angle_alpha 90.000000
_cell_angle_beta 90.000000
_cell_angle_gamma 90.000000
_cell_volume 2984.970563
_symmetry_space_group_name_H-M "A M A 2"
_symmetry_group_IT_number 40
_symmetry_cell_setting 'orthorhombic'
loop_
_space_group_symop_operation_xyz
x,y,z
-x,-y,z
1/2-x,y,z
1/2+x,-y,z
x,1/2+y,1/2+z
-x,1/2-y,1/2+z
1/2-x,1/2+y,1/2+z
1/2+x,1/2-y,1/2+z
loop_
_atom_site_type_symbol
_atom_site_label
_atom_site_fract_x
_atom_site_fract_y
_atom_site_fract_z
Si Si1 0.433986 0.168967 0.260990
Si Si2 0.433806 0.730991 0.374874
Si Si3 0.935112 0.939754 0.583628
Si Si4 0.565116 0.881332 0.771308
Si Si5 0.434939 0.559822 0.867038
Si Si6 0.066868 0.441120 0.450856
Si Si7 0.933751 0.171557 0.054042
O O1 0.250000 0.169844 0.253836
O O2 0.488673 0.214203 0.336202
O O3 0.483169 0.108692 0.297799
O O4 0.507254 0.181212 0.159406
O O5 0.250000 0.736470 0.374622
O O6 0.476757 0.679885 0.305490
O O7 0.491915 0.712820 0.478152
O O8 0.750000 0.942222 0.584385
O O9 0.983161 0.897266 0.665178
O O10 0.982993 0.926893 0.475746
O O11 0.000000 0.000000 0.607283
O O12 0.750000 0.885510 0.776986
O O13 0.495075 0.923490 0.847485
O O14 0.500000 0.500000 0.842225
O O15 0.250000 0.556964 0.865786
O O16 0.250000 0.444539 0.447710
O O17 0.023681 0.390449 0.519855
O O18 0.000000 0.500000 0.479268
O O19 0.750000 0.176558 0.049720
#
# Coordination Sequence:
#
# PCOD9363666 Si02
#       7
#     8   8   8   8   8   8   8
#     4  11  23  39  60  85 112 146 185 228 280 338
#     4  10  21  38  59  84 113 146 184 229 279 335
#     4   9  17  31  50  75 106 141 178 218 266 319
#     4   9  18  32  52  78 110 146 183 223 272 329
#     4   9  20  37  56  79 110 145 183 228 275 326
#     4  10  20  33  52  78 110 147 186 230 281 333
#     4  10  22  40  59  81 111 147 187 234 282 332
#
# _framework density 18.760653999999999
#
# number of rings (size 3 to 8) (size 9 to 14) (size 15 to 20)
#    0.000    2.286    0.000    2.143    0.000    6.857 
#    0.000    5.714    0.000    0.000    0.000    0.000 
#    0.000    0.000    0.000    0.000    0.000    0.000 
#
# Total GULP energy -156323.194367 kJ/mol
# GULP energy per Si atom -5582.971227 kJ/mol
# Density = 1.871795 g / cm^3
# Si number density = 18.760654 Si / 1000 Ang^3
#
#
#
# Elastic Constant Matrix: (Units=GPa)
#
#
# Indices 1 2 3 4 5 6 
#
# 1 18.6393 14.2276 13.1573 0.0000 0.0000 0.0000
# 2 14.2276 77.3032 46.1654 0.0000 0.0000 0.0000
# 3 13.1573 46.1654 89.2669 0.0000 0.0000 0.0000
# 4 0.0000 0.0000 0.0000 18.5243 0.0000 0.0000
# 5 0.0000 0.0000 0.0000 0.0000 19.7821 0.0000
# 6 0.0000 0.0000 0.0000 0.0000 0.0000 30.0046
#
#
#
# Elastic Compliance Matrix: (Units=1/GPa)
#
#
# Indices 1 2 3 4 5 6 
#
# 1 0.063822 -0.008867 -0.004821 0.000000 0.000000 0.000000
# 2 -0.008867 0.019949 -0.009010 0.000000 0.000000 0.000000
# 3 -0.004821 -0.009010 0.016572 0.000000 0.000000 0.000000
# 4 0.000000 0.000000 0.000000 0.053983 0.000000 0.000000
# 5 0.000000 0.000000 0.000000 0.000000 0.050551 0.000000
# 6 0.000000 0.000000 0.000000 0.000000 0.000000 0.033328
#
#
# Mechanical properties :
#
#
# Convention : Reuss Voigt Hill
#
# Bulk Modulus (GPa) = 18.19939 36.92331 27.56135
# Shear Modulus (GPa) = 16.56087 21.10615 18.83351
#
# Velocity S-wave (km/s) = 2.97433 3.35777 3.17185
# Velocity P-wave (km/s) = 4.63868 5.89549 5.30444
#
# Compressibility (1/GPa) = 0.05494689
#
# Stress axis : x y z
#
# Youngs Moduli (GPa) = 15.66863 50.12866 60.34122
#
# Poissons Ratio (x) = 0.44450 0.29091
# Poissons Ratio (y) = 0.13894 0.54366
# Poissons Ratio (z) = 0.07554 0.45164
#
# Static dielectric constant tensor:
#      x y z
#    x 1.624860 0.000000 0.000000 
#    y 0.000000 1.635240 0.000000 
#    z 0.000000 0.000000 1.641110 
# 
# From -- ./inp_files/15295.got.cif
#   From: 2010.05.17/outbox.cif.g08.bks.cpg/sg40_8_cif.got.tgz:15295.got - 2010.06.03 18:35:42.
