data_PCOD9363386
_publ_section_title
;
Structure prediction by ZEFSAII (Michael W. Deem and Ramdas Pophale) SiO2 
 PCOD9363386
Probable space group: A M A 2
;
_chemical_formula_sum "Si O2"
_cell_formula_units_Z 56
_cell_length_a 15.595678
_cell_length_b 5.033812
_cell_length_c 31.438870
_cell_angle_alpha 90.000000
_cell_angle_beta 90.000000
_cell_angle_gamma 90.000000
_cell_volume 2468.130844
_symmetry_space_group_name_H-M "A M A 2"
_symmetry_group_IT_number 40
_symmetry_cell_setting 'orthorhombic'
loop_
_space_group_symop_operation_xyz
x,y,z
-x,-y,z
1/2-x,y,z
1/2+x,-y,z
x,1/2+y,1/2+z
-x,1/2-y,1/2+z
1/2-x,1/2+y,1/2+z
1/2+x,1/2-y,1/2+z
loop_
_atom_site_type_symbol
_atom_site_label
_atom_site_fract_x
_atom_site_fract_y
_atom_site_fract_z
Si Si1 0.408182 0.124523 0.183480
Si Si2 0.604278 0.974006 0.993623
Si Si3 0.653111 0.393567 0.135923
Si Si4 0.396136 0.027217 0.541633
Si Si5 0.852976 0.099883 0.770754
Si Si6 0.353770 0.402004 0.820580
Si Si7 0.439806 0.750492 0.408435
O O1 0.407981 0.365858 0.150161
O O2 0.376500 0.269757 0.226043
O O3 0.500000 0.000000 0.191770
O O4 0.357492 0.874817 0.163338
O O5 0.619321 0.848389 0.947433
O O6 0.500000 0.000000 0.995454
O O7 0.634427 0.766076 0.029203
O O8 0.633013 0.268308 0.005048
O O9 0.750000 0.491251 0.142642
O O10 0.635602 0.356876 0.086174
O O11 0.500000 0.000000 0.543158
O O12 0.750000 0.088203 0.771165
O O13 0.882113 0.305820 0.806812
O O14 0.883282 0.808009 0.784301
O O15 0.250000 0.397562 0.821464
O O16 0.389116 0.328508 0.866380
O O17 0.500000 0.500000 0.398440
O O18 0.500000 0.000000 0.421828
#
# Coordination Sequence:
#
# PCOD9363386 Si02
#       7
#     8   8   8   8   8   8   8
#     4  12  25  42  65  93 122 158 208 259 306 366
#     4   9  18  33  56  83 113 150 192 241 294 345
#     4  12  25  42  63  91 127 163 201 250 314 375
#     4  10  19  35  58  83 113 152 198 243 290 350
#     4  10  21  39  61  85 118 158 197 241 301 362
#     4  10  22  39  59  85 119 158 195 238 299 361
#     4  11  21  36  59  88 119 153 199 246 292 349
#
# _framework density 22.689236999999999
#
# number of rings (size 3 to 8) (size 9 to 14) (size 15 to 20)
#    0.000    1.429    0.000    7.286    0.000    4.000 
#    0.000    1.429    0.000    0.000    0.000    1.000 
#    0.000    0.000    0.000    0.000    0.000    0.000 
#
# Total GULP energy -156521.390280 kJ/mol
# GULP energy per Si atom -5590.049653 kJ/mol
# Density = 2.263759 g / cm^3
# Si number density = 22.689237 Si / 1000 Ang^3
#
#
#
# Elastic Constant Matrix: (Units=GPa)
#
#
# Indices 1 2 3 4 5 6 
#
# 1 22.1675 14.5422 -1.8796 0.0000 0.0000 0.0000
# 2 14.5422 90.9100 -2.2900 0.0000 0.0000 0.0000
# 3 -1.8796 -2.2900 80.5865 0.0000 0.0000 0.0000
# 4 0.0000 0.0000 0.0000 33.4201 0.0000 0.0000
# 5 0.0000 0.0000 0.0000 0.0000 70.5908 0.0000
# 6 0.0000 0.0000 0.0000 0.0000 0.0000 -24.7539
#
#
#
# Elastic Compliance Matrix: (Units=1/GPa)
#
#
# Indices 1 2 3 4 5 6 
#
# 1 0.050472 -0.008050 0.000948 0.000000 0.000000 0.000000
# 2 -0.008050 0.012292 0.000162 0.000000 0.000000 0.000000
# 3 0.000948 0.000162 0.012436 0.000000 0.000000 0.000000
# 4 0.000000 0.000000 0.000000 0.029922 0.000000 0.000000
# 5 0.000000 0.000000 0.000000 0.000000 0.014166 0.000000
# 6 0.000000 0.000000 0.000000 0.000000 0.000000 -0.040398
#
#
# Mechanical properties :
#
#
# Convention : Reuss Voigt Hill
#
# Bulk Modulus (GPa) = 16.30790 23.82324 20.06557
# Shear Modulus (GPa) = 44.16584 28.07083 36.11833
#
# Velocity S-wave (km/s) = 4.41676 3.52118 3.99415
# Velocity P-wave (km/s) = 5.76312 5.20137 5.48943
#
# Compressibility (1/GPa) = 0.06131996
#
# Stress axis : x y z
#
# Youngs Moduli (GPa) = 19.81290 81.35620 80.41335
#
# Poissons Ratio (x) = 0.65490 -0.07627
# Poissons Ratio (y) = 0.15949 -0.01299
# Poissons Ratio (z) = -0.01879 -0.01314
#
# Static dielectric constant tensor:
#      x y z
#    x 1.865520 0.000000 0.000000 
#    y 0.000000 1.808820 0.000000 
#    z 0.000000 0.000000 1.851950 
# 
# From -- ./inp_files/26597.got.cif
#   From: 2010.05.17/outbox.cif.g08.bks.cpg/sg40_14_cif.got.tgz:26597.got - 2010.06.03 18:35:42.
