data_PCOD9363214
_publ_section_title
;
Structure prediction by ZEFSAII (Michael W. Deem and Ramdas Pophale) SiO2 
 PCOD9363214
Probable space group: A M A 2
;
_chemical_formula_sum "Si O2"
_cell_formula_units_Z 56
_cell_length_a 8.759777
_cell_length_b 14.830244
_cell_length_c 22.017602
_cell_angle_alpha 90.000000
_cell_angle_beta 90.000000
_cell_angle_gamma 90.000000
_cell_volume 2860.298536
_symmetry_space_group_name_H-M "A M A 2"
_symmetry_group_IT_number 40
_symmetry_cell_setting 'orthorhombic'
loop_
_space_group_symop_operation_xyz
x,y,z
-x,-y,z
1/2-x,y,z
1/2+x,-y,z
x,1/2+y,1/2+z
-x,1/2-y,1/2+z
1/2-x,1/2+y,1/2+z
1/2+x,1/2-y,1/2+z
loop_
_atom_site_type_symbol
_atom_site_label
_atom_site_fract_x
_atom_site_fract_y
_atom_site_fract_z
Si Si1 0.430884 0.594435 0.447940
Si Si2 0.932263 0.400250 0.800567
Si Si3 0.568011 0.095317 0.661459
Si Si4 0.567562 0.721281 0.694223
Si Si5 0.933811 0.904665 0.526328
Si Si6 0.432932 0.404950 0.582649
Si Si7 0.431695 0.224389 0.416687
O O1 0.500000 0.500000 0.425321
O O2 0.250000 0.586794 0.451253
O O3 0.497462 0.608529 0.515993
O O4 0.481472 0.681668 0.410552
O O5 0.750000 0.405263 0.791560
O O6 0.961766 0.344229 0.862019
O O7 0.000000 0.500000 0.804706
O O8 0.008316 0.345780 0.745680
O O9 0.750000 0.090222 0.659847
O O10 0.511577 0.181746 0.698440
O O11 0.503631 0.108500 0.592979
O O12 0.500000 0.000000 0.683301
O O13 0.750000 0.731414 0.697588
O O14 0.530746 0.674561 0.629422
O O15 0.750000 0.909972 0.531010
O O16 0.973308 0.825756 0.479496
O O17 0.000000 0.000000 0.503280
O O18 0.500000 0.500000 0.606078
O O19 0.250000 0.411857 0.577463
O O20 0.250000 0.242526 0.418591
#
# Coordination Sequence:
#
# PCOD9363214 Si02
#       7
#     8   8   8   8   8   8   8
#     4  11  22  36  58  85 115 149 187 233 283 337
#     4  11  24  42  63  87 116 151 190 235 282 333
#     4  11  22  37  58  85 117 151 189 235 285 341
#     4  11  23  39  59  84 115 152 193 238 286 338
#     4  10  19  33  55  84 118 153 188 232 283 337
#     4  10  20  34  55  83 117 152 187 231 283 338
#     4  10  22  39  58  82 115 152 191 234 282 334
#
# _framework density 19.578375999999999
#
# number of rings (size 3 to 8) (size 9 to 14) (size 15 to 20)
#    0.000    1.429    0.000    7.714    0.000    9.143 
#    0.000    0.714    0.000    3.429    0.000    0.000 
#    0.000    0.000    0.000    0.000    0.000    0.000 
#
# Total GULP energy -156588.630786 kJ/mol
# GULP energy per Si atom -5592.451099 kJ/mol
# Density = 1.953381 g / cm^3
# Si number density = 19.578376 Si / 1000 Ang^3
#
#
#
# Elastic Constant Matrix: (Units=GPa)
#
#
# Indices 1 2 3 4 5 6 
#
# 1 95.8055 69.0918 22.7538 0.0000 0.0000 0.0000
# 2 69.0918 168.0840 30.5853 0.0000 0.0000 0.0000
# 3 22.7538 30.5853 19.4166 0.0000 0.0000 0.0000
# 4 0.0000 0.0000 0.0000 24.6342 0.0000 0.0000
# 5 0.0000 0.0000 0.0000 0.0000 22.9984 0.0000
# 6 0.0000 0.0000 0.0000 0.0000 0.0000 26.5636
#
#
#
# Elastic Compliance Matrix: (Units=1/GPa)
#
#
# Indices 1 2 3 4 5 6 
#
# 1 0.016689 -0.004628 -0.012267 0.000000 0.000000 0.000000
# 2 -0.004628 0.009623 -0.009735 0.000000 0.000000 0.000000
# 3 -0.012267 -0.009735 0.081213 0.000000 0.000000 0.000000
# 4 0.000000 0.000000 0.000000 0.040594 0.000000 0.000000
# 5 0.000000 0.000000 0.000000 0.000000 0.043481 0.000000
# 6 0.000000 0.000000 0.000000 0.000000 0.000000 0.037645
#
#
# Mechanical properties :
#
#
# Convention : Reuss Voigt Hill
#
# Bulk Modulus (GPa) = 18.42836 58.68533 38.55685
# Shear Modulus (GPa) = 16.63370 25.56427 21.09899
#
# Velocity S-wave (km/s) = 2.91794 3.61742 3.28635
# Velocity P-wave (km/s) = 4.55912 6.89110 5.84264
#
# Compressibility (1/GPa) = 0.05426418
#
# Stress axis : x y z
#
# Youngs Moduli (GPa) = 59.92089 103.91592 12.31327
#
# Poissons Ratio (x) = 0.48090 0.15105
# Poissons Ratio (y) = 0.27730 0.11987
# Poissons Ratio (z) = 0.73507 1.01166
#
# Static dielectric constant tensor:
#      x y z
#    x 1.653000 0.000000 0.000000 
#    y 0.000000 1.700320 0.000000 
#    z 0.000000 0.000000 1.675910 
# 
# From -- ./inp_files/22192.got.cif
#   From: 2010.05.17/outbox.cif.g08.bks.cpg/sg40_12_cif.got.tgz:22192.got - 2010.06.03 18:35:42.
