data_PCOD9363417
_publ_section_title
;
Structure prediction by ZEFSAII (Michael W. Deem and Ramdas Pophale) SiO2 
 PCOD9363417
Probable space group: A M A 2
;
_chemical_formula_sum "Si O2"
_cell_formula_units_Z 56
_cell_length_a 15.738379
_cell_length_b 11.938397
_cell_length_c 12.841767
_cell_angle_alpha 90.000000
_cell_angle_beta 90.000000
_cell_angle_gamma 90.000000
_cell_volume 2412.852657
_symmetry_space_group_name_H-M "A M A 2"
_symmetry_group_IT_number 40
_symmetry_cell_setting 'orthorhombic'
loop_
_space_group_symop_operation_xyz
x,y,z
-x,-y,z
1/2-x,y,z
1/2+x,-y,z
x,1/2+y,1/2+z
-x,1/2-y,1/2+z
1/2-x,1/2+y,1/2+z
1/2+x,1/2-y,1/2+z
loop_
_atom_site_type_symbol
_atom_site_label
_atom_site_fract_x
_atom_site_fract_y
_atom_site_fract_z
Si Si1 0.650918 0.730083 0.409830
Si Si2 0.600833 0.492872 0.454218
Si Si3 0.543395 0.896423 0.551065
Si Si4 0.342306 0.063959 0.724571
Si Si5 0.025602 0.736002 0.735116
Si Si6 0.842402 0.685125 0.764060
Si Si7 0.156113 0.059246 0.165674
O O1 0.750000 0.754500 0.392550
O O2 0.642303 0.614123 0.470593
O O3 0.603120 0.827249 0.472998
O O4 0.594002 0.701920 0.307765
O O5 0.500000 0.500000 0.470278
O O6 0.620650 0.449186 0.339360
O O7 0.644604 0.420525 0.542983
O O8 0.596090 0.971974 0.634304
O O9 0.496132 0.805673 0.628830
O O10 0.500000 0.000000 0.490225
O O11 0.250000 0.010173 0.721600
O O12 0.333311 0.197387 0.703090
O O13 0.076196 0.622707 0.712626
O O14 0.939786 0.706711 0.800672
O O15 0.750000 0.677898 0.823188
O O16 0.847652 0.570911 0.698940
O O17 0.250000 0.099562 0.197932
#
# Coordination Sequence:
#
# PCOD9363417 Si02
#       7
#     8   8   8   8   8   8   8
#     4  12  26  45  67  96 134 179 222 268 335 412
#     4  12  22  37  64  96 127 163 213 272 329 392
#     4  11  24  43  66  91 126 170 221 279 338 396
#     4  10  19  35  60  93 125 159 207 266 326 393
#     4  11  23  41  65  94 129 170 220 277 329 392
#     4   9  19  35  59  89 125 165 207 257 323 392
#     4  11  22  38  60  91 129 172 216 267 329 395
#
# _framework density 23.209042
#
# number of rings (size 3 to 8) (size 9 to 14) (size 15 to 20)
#    0.000    1.143    0.000    9.000    0.000    4.000 
#    0.000    2.143    0.000    1.714    0.000    0.000 
#    0.000    0.000    0.000    0.000    0.000    0.000 
#
# Total GULP energy -155983.089753 kJ/mol
# GULP energy per Si atom -5570.824634 kJ/mol
# Density = 2.315622 g / cm^3
# Si number density = 23.209042 Si / 1000 Ang^3
#
#
#
# Elastic Constant Matrix: (Units=GPa)
#
#
# Indices 1 2 3 4 5 6 
#
# 1 180.0488 45.4636 20.1115 0.0000 0.0000 0.0000
# 2 45.4636 85.2981 17.8793 0.0000 0.0000 0.0000
# 3 20.1115 17.8793 30.8679 0.0000 0.0000 0.0000
# 4 0.0000 0.0000 0.0000 22.2749 0.0000 0.0000
# 5 0.0000 0.0000 0.0000 0.0000 -13.4994 0.0000
# 6 0.0000 0.0000 0.0000 0.0000 0.0000 15.1644
#
#
#
# Elastic Compliance Matrix: (Units=1/GPa)
#
#
# Indices 1 2 3 4 5 6 
#
# 1 0.006592 -0.002975 -0.002572 0.000000 0.000000 0.000000
# 2 -0.002975 0.014686 -0.006568 0.000000 0.000000 0.000000
# 3 -0.002572 -0.006568 0.037876 0.000000 0.000000 0.000000
# 4 0.000000 0.000000 0.000000 0.044894 0.000000 0.000000
# 5 0.000000 0.000000 0.000000 0.000000 -0.074077 0.000000
# 6 0.000000 0.000000 0.000000 0.000000 0.000000 0.065944
#
#
# Mechanical properties :
#
#
# Convention : Reuss Voigt Hill
#
# Bulk Modulus (GPa) = 28.63320 51.45816 40.04568
# Shear Modulus (GPa) = 37.94011 18.97201 28.45606
#
# Velocity S-wave (km/s) = 4.04754 2.86219 3.50534
# Velocity P-wave (km/s) = 5.84870 5.75696 5.80301
#
# Compressibility (1/GPa) = 0.03492450
#
# Stress axis : x y z
#
# Youngs Moduli (GPa) = 151.68799 68.09297 26.40165
#
# Poissons Ratio (x) = 0.20255 0.06791
# Poissons Ratio (y) = 0.45121 0.17341
# Poissons Ratio (z) = 0.39018 0.44725
#
# Static dielectric constant tensor:
#      x y z
#    x 2.054340 0.000000 0.000000 
#    y 0.000000 1.946770 0.000000 
#    z 0.000000 0.000000 1.908200 
# 
# From -- ./inp_files/17092.got.cif
#   From: 2010.05.17/outbox.cif.g08.bks.cpg/sg40_9_cif.got.tgz:17092.got - 2010.06.03 18:35:42.
