data_PCOD9363910
_publ_section_title
;
Structure prediction by ZEFSAII (Michael W. Deem and Ramdas Pophale) SiO2 
 PCOD9363910
Probable space group: A M A 2
;
_chemical_formula_sum "Si O2"
_cell_formula_units_Z 64
_cell_length_a 8.675957
_cell_length_b 24.266046
_cell_length_c 15.822767
_cell_angle_alpha 90.000000
_cell_angle_beta 90.000000
_cell_angle_gamma 90.000000
_cell_volume 3331.185675
_symmetry_space_group_name_H-M "A M A 2"
_symmetry_group_IT_number 40
_symmetry_cell_setting 'orthorhombic'
loop_
_space_group_symop_operation_xyz
x,y,z
-x,-y,z
1/2-x,y,z
1/2+x,-y,z
x,1/2+y,1/2+z
-x,1/2-y,1/2+z
1/2-x,1/2+y,1/2+z
1/2+x,1/2-y,1/2+z
loop_
_atom_site_type_symbol
_atom_site_label
_atom_site_fract_x
_atom_site_fract_y
_atom_site_fract_z
Si Si1 0.062539 0.369983 0.411650
Si Si2 0.064747 0.873544 0.722942
Si Si3 0.064351 0.938517 0.075566
Si Si4 0.566102 0.748022 0.156789
Si Si5 0.933410 0.438648 0.064078
Si Si6 0.066179 0.748617 0.969862
Si Si7 0.066962 0.366291 0.911212
Si Si8 0.934301 0.366904 0.729683
O O1 0.250000 0.369951 0.411257
O O2 0.012905 0.387299 0.318008
O O3 0.013424 0.409070 0.488287
O O4 0.016140 0.307128 0.431305
O O5 0.250000 0.881288 0.717101
O O6 0.034378 0.808871 0.705106
O O7 0.986494 0.909183 0.650374
O O8 0.250000 0.939142 0.077731
O O9 0.002648 0.902904 0.153846
O O10 0.000000 0.000000 0.079776
O O11 0.750000 0.748988 0.137892
O O12 0.530181 0.802666 0.210004
O O13 0.474763 0.749064 0.069005
O O14 0.750000 0.440212 0.060211
O O15 0.000000 0.500000 0.060641
O O16 0.996523 0.403104 0.985786
O O17 0.250000 0.742853 0.958178
O O18 0.984233 0.696516 0.928360
O O19 0.250000 0.370617 0.913922
O O20 0.004216 0.383093 0.819622
O O21 0.750000 0.372902 0.731911
#
# Coordination Sequence:
#
# PCOD9363910 Si02
#       8
#     8   8   8   8   8   8   8   8
#     4   9  20  38  63  92 126 165 206 254 308 362
#     4  10  20  39  64  92 127 165 202 250 308 368
#     4  11  23  42  63  89 122 164 212 262 312 367
#     4  10  20  35  61  93 130 166 201 247 309 370
#     4  12  26  45  66  91 121 161 208 260 312 370
#     4  11  20  36  63  94 128 166 205 251 308 369
#     4  12  25  42  64  94 128 165 205 255 310 371
#     4  11  23  41  65  95 127 165 207 255 309 370
#
# _framework density 19.212378000000001
#
# number of rings (size 3 to 8) (size 9 to 14) (size 15 to 20)
#    0.000    1.250    2.500    4.125    0.000    3.500 
#    0.000    7.500    0.000    0.000    0.000    0.000 
#    0.000    0.000    0.000    0.000    0.000    0.000 
#
# Total GULP energy -178957.677567 kJ/mol
# GULP energy per Si atom -5592.427424 kJ/mol
# Density = 1.916865 g / cm^3
# Si number density = 19.212378 Si / 1000 Ang^3
#
#
#
# Elastic Constant Matrix: (Units=GPa)
#
#
# Indices 1 2 3 4 5 6 
#
# 1 85.2469 45.2635 56.5346 0.0000 0.0000 0.0000
# 2 45.2635 115.7899 53.0404 0.0000 0.0000 0.0000
# 3 56.5346 53.0404 164.7994 0.0000 0.0000 0.0000
# 4 0.0000 0.0000 0.0000 -4.3545 0.0000 0.0000
# 5 0.0000 0.0000 0.0000 0.0000 15.9067 0.0000
# 6 0.0000 0.0000 0.0000 0.0000 0.0000 -98.6269
#
#
#
# Elastic Compliance Matrix: (Units=1/GPa)
#
#
# Indices 1 2 3 4 5 6 
#
# 1 0.017114 -0.004693 -0.004361 0.000000 0.000000 0.000000
# 2 -0.004693 0.011416 -0.002065 0.000000 0.000000 0.000000
# 3 -0.004361 -0.002065 0.008228 0.000000 0.000000 0.000000
# 4 0.000000 0.000000 0.000000 -0.229648 0.000000 0.000000
# 5 0.000000 0.000000 0.000000 0.000000 0.062867 0.000000
# 6 0.000000 0.000000 0.000000 0.000000 0.000000 -0.010139
#
#
# Mechanical properties :
#
#
# Convention : Reuss Voigt Hill
#
# Bulk Modulus (GPa) = 68.85493 75.05702 71.95598
# Shear Modulus (GPa) = -44.21456 -3.34841 -23.78149
#
# Velocity S-wave (km/s) = -4.80245 -1.32160 -3.52209
# Velocity P-wave (km/s) = 2.27272 6.06820 4.58193
#
# Compressibility (1/GPa) = 0.01452329
#
# Stress axis : x y z
#
# Youngs Moduli (GPa) = 58.43080 87.59301 121.53003
#
# Poissons Ratio (x) = 0.41104 0.52996
# Poissons Ratio (y) = 0.27419 0.25091
# Poissons Ratio (z) = 0.25480 0.18084
#
# Static dielectric constant tensor:
#      x y z
#    x 1.645560 0.000000 0.000000 
#    y 0.000000 1.641660 0.000000 
#    z 0.000000 0.000000 1.654500 
# 
# From -- ./inp_files/15681.got.cif
#   From: 2010.05.17/outbox.cif.g08.bks.cpg/sg40_8_cif.got.tgz:15681.got - 2010.06.03 18:35:42.
