data_PCOD9363331
_publ_section_title
;
Structure prediction by ZEFSAII (Michael W. Deem and Ramdas Pophale) SiO2 
 PCOD9363331
Probable space group: A M A 2
;
_chemical_formula_sum "Si O2"
_cell_formula_units_Z 64
_cell_length_a 16.056481
_cell_length_b 12.534289
_cell_length_c 16.613815
_cell_angle_alpha 90.000000
_cell_angle_beta 90.000000
_cell_angle_gamma 90.000000
_cell_volume 3343.639474
_symmetry_space_group_name_H-M "A M A 2"
_symmetry_group_IT_number 40
_symmetry_cell_setting 'orthorhombic'
loop_
_space_group_symop_operation_xyz
x,y,z
-x,-y,z
1/2-x,y,z
1/2+x,-y,z
x,1/2+y,1/2+z
-x,1/2-y,1/2+z
1/2-x,1/2+y,1/2+z
1/2+x,1/2-y,1/2+z
loop_
_atom_site_type_symbol
_atom_site_label
_atom_site_fract_x
_atom_site_fract_y
_atom_site_fract_z
Si Si1 0.351131 0.434702 0.989150
Si Si2 0.845466 0.826175 0.525255
Si Si3 0.396690 0.206810 0.699800
Si Si4 0.585940 0.183823 0.639142
Si Si5 0.649739 0.689325 0.382021
Si Si6 0.650137 0.857377 0.244415
Si Si7 0.350842 0.410868 0.799895
Si Si8 0.599163 0.012883 0.769456
O O1 0.250000 0.427141 0.000801
O O2 0.368727 0.414454 0.895262
O O3 0.380639 0.554714 0.013037
O O4 0.395987 0.352757 0.049041
O O5 0.750000 0.839237 0.497665
O O6 0.846192 0.790162 0.616994
O O7 0.881358 0.735231 0.466906
O O8 0.489896 0.187987 0.665718
O O9 0.390293 0.311806 0.753274
O O10 0.367607 0.104762 0.751788
O O11 0.622968 0.298094 0.663430
O O12 0.626031 0.092137 0.696860
O O13 0.750000 0.683561 0.381275
O O14 0.622640 0.778152 0.316372
O O15 0.620446 0.574739 0.350959
O O16 0.750000 0.860288 0.247486
O O17 0.620946 0.976929 0.261018
O O18 0.250000 0.403100 0.791780
O O19 0.500000 0.000000 0.767113
#
# Coordination Sequence:
#
# PCOD9363331 Si02
#       8
#     8   8   8   8   8   8   8   8
#     4  10  19  36  61  88 113 141 188 244 287 331
#     4  10  19  34  58  86 112 143 189 238 284 336
#     4  11  22  37  54  83 121 154 186 229 288 347
#     4  10  20  36  56  84 115 148 192 236 279 337
#     4   9  17  32  57  86 108 139 191 240 280 332
#     4   9  17  34  58  83 112 147 188 235 284 338
#     4  10  21  38  59  85 118 150 187 239 292 341
#     4   9  19  35  54  77 117 150 185 228 278 336
#
# _framework density 19.140820000000001
#
# number of rings (size 3 to 8) (size 9 to 14) (size 15 to 20)
#    0.000    2.250    2.500    0.750    0.000    2.000 
#    6.750    2.500    0.000    1.500    0.000    0.000 
#    0.000    0.000    0.000    0.000    0.000    0.000 
#
# Total GULP energy -178422.818012 kJ/mol
# GULP energy per Si atom -5575.713063 kJ/mol
# Density = 1.909725 g / cm^3
# Si number density = 19.140820 Si / 1000 Ang^3
#
#
#
# Elastic Constant Matrix: (Units=GPa)
#
#
# Indices 1 2 3 4 5 6 
#
# 1 19.6740 24.3621 19.5411 0.0000 0.0000 0.0000
# 2 24.3621 154.6783 87.9680 0.0000 0.0000 0.0000
# 3 19.5411 87.9680 117.1315 0.0000 0.0000 0.0000
# 4 0.0000 0.0000 0.0000 38.2897 0.0000 0.0000
# 5 0.0000 0.0000 0.0000 0.0000 -12.7495 0.0000
# 6 0.0000 0.0000 0.0000 0.0000 0.0000 -21.2711
#
#
#
# Elastic Compliance Matrix: (Units=1/GPa)
#
#
# Indices 1 2 3 4 5 6 
#
# 1 0.065125 -0.007119 -0.005518 0.000000 0.000000 0.000000
# 2 -0.007119 0.012063 -0.007872 0.000000 0.000000 0.000000
# 3 -0.005518 -0.007872 0.015370 0.000000 0.000000 0.000000
# 4 0.000000 0.000000 0.000000 0.026117 0.000000 0.000000
# 5 0.000000 0.000000 0.000000 0.000000 -0.078434 0.000000
# 6 0.000000 0.000000 0.000000 0.000000 0.000000 -0.047012
#
#
# Mechanical properties :
#
#
# Convention : Reuss Voigt Hill
#
# Bulk Modulus (GPa) = 19.40260 61.69179 40.54720
# Shear Modulus (GPa) = 97.22598 11.49468 54.36033
#
# Velocity S-wave (km/s) = 7.13480 2.45323 5.33497
# Velocity P-wave (km/s) = 8.83361 6.35019 7.69277
#
# Compressibility (1/GPa) = 0.05153947
#
# Stress axis : x y z
#
# Youngs Moduli (GPa) = 15.35515 82.89647 65.06135
#
# Poissons Ratio (x) = 0.59013 0.35903
# Poissons Ratio (y) = 0.10931 0.51217
# Poissons Ratio (z) = 0.08473 0.65257
#
# Static dielectric constant tensor:
#      x y z
#    x 1.777170 0.000000 0.000000 
#    y 0.000000 1.674220 0.000000 
#    z 0.000000 0.000000 1.663240 
# 
# From -- ./inp_files/17826.got.cif
#   From: 2010.05.17/outbox.cif.g08.bks.cpg/sg40_9_cif.got.tgz:17826.got - 2010.06.03 18:35:42.
