data_PCOD9363190
_publ_section_title
;
Structure prediction by ZEFSAII (Michael W. Deem and Ramdas Pophale) SiO2 
 PCOD9363190
Probable space group: A M A 2
;
_chemical_formula_sum "Si O2"
_cell_formula_units_Z 48
_cell_length_a 8.376083
_cell_length_b 14.182588
_cell_length_c 19.402671
_cell_angle_alpha 90.000000
_cell_angle_beta 90.000000
_cell_angle_gamma 90.000000
_cell_volume 2304.931265
_symmetry_space_group_name_H-M "A M A 2"
_symmetry_group_IT_number 40
_symmetry_cell_setting 'orthorhombic'
loop_
_space_group_symop_operation_xyz
x,y,z
-x,-y,z
1/2-x,y,z
1/2+x,-y,z
x,1/2+y,1/2+z
-x,1/2-y,1/2+z
1/2-x,1/2+y,1/2+z
1/2+x,1/2-y,1/2+z
loop_
_atom_site_type_symbol
_atom_site_label
_atom_site_fract_x
_atom_site_fract_y
_atom_site_fract_z
Si Si1 0.942678 0.396544 0.620250
Si Si2 0.941538 0.606398 0.899093
Si Si3 0.940651 0.302715 0.757468
Si Si4 0.558384 0.400569 0.246394
Si Si5 0.057324 0.255082 0.009982
Si Si6 0.060158 0.095102 0.903024
O O1 0.750000 0.396437 0.614814
O O2 0.987986 0.378944 0.699736
O O3 0.000611 0.305603 0.575654
O O4 0.000000 0.500000 0.598086
O O5 0.750000 0.608529 0.900331
O O6 0.998752 0.647901 0.973766
O O7 0.000000 0.500000 0.889329
O O8 0.991511 0.668941 0.832331
O O9 0.750000 0.300457 0.763303
O O10 0.996332 0.202104 0.725720
O O11 0.500000 0.500000 0.214487
O O12 0.750000 0.400348 0.244428
O O13 0.495819 0.401694 0.325693
O O14 0.250000 0.263829 0.018838
O O15 0.019572 0.183534 0.948001
O O16 0.250000 0.091510 0.897917
O O17 0.000000 0.000000 0.936906
#
# Coordination Sequence:
#
# PCOD9363190 Si02
#       6
#     8   8   8   8   8   8
#     4  10  22  39  60  86 117 154 192 236 290 349
#     4  11  22  39  61  85 114 151 196 247 297 347
#     4  11  22  37  58  87 121 158 197 237 289 350
#     4  10  19  33  54  83 115 150 190 237 288 337
#     4   9  18  36  57  79 111 148 186 233 290 343
#     4   9  16  28  48  76 105 138 174 217 273 325
#
# _framework density 20.824915000000001
#
# number of rings (size 3 to 8) (size 9 to 14) (size 15 to 20)
#    0.000    2.000    1.667    2.500    0.000    3.333 
#    0.000    2.500    0.000    2.000    0.000    0.000 
#    0.000    0.000    0.000    0.000    0.000    0.000 
#
# Total GULP energy -133647.848896 kJ/mol
# GULP energy per Si atom -5568.660371 kJ/mol
# Density = 2.077752 g / cm^3
# Si number density = 20.824915 Si / 1000 Ang^3
#
#
#
# Elastic Constant Matrix: (Units=GPa)
#
#
# Indices 1 2 3 4 5 6 
#
# 1 18.1606 19.2945 16.6094 0.0000 0.0000 0.0000
# 2 19.2945 117.5035 30.8555 0.0000 0.0000 0.0000
# 3 16.6094 30.8555 84.2251 0.0000 0.0000 0.0000
# 4 0.0000 0.0000 0.0000 28.1209 0.0000 0.0000
# 5 0.0000 0.0000 0.0000 0.0000 13.3089 0.0000
# 6 0.0000 0.0000 0.0000 0.0000 0.0000 29.9878
#
#
#
# Elastic Compliance Matrix: (Units=1/GPa)
#
#
# Indices 1 2 3 4 5 6 
#
# 1 0.075517 -0.009393 -0.011451 0.000000 0.000000 0.000000
# 2 -0.009393 0.010585 -0.002025 0.000000 0.000000 0.000000
# 3 -0.011451 -0.002025 0.014873 0.000000 0.000000 0.000000
# 4 0.000000 0.000000 0.000000 0.035561 0.000000 0.000000
# 5 0.000000 0.000000 0.000000 0.000000 0.075138 0.000000
# 6 0.000000 0.000000 0.000000 0.000000 0.000000 0.033347
#
#
# Mechanical properties :
#
#
# Convention : Reuss Voigt Hill
#
# Bulk Modulus (GPa) = 18.10424 39.26755 28.68590
# Shear Modulus (GPa) = 16.17230 24.49217 20.33223
#
# Velocity S-wave (km/s) = 2.78975 3.43315 3.12804
# Velocity P-wave (km/s) = 4.36914 5.88323 5.18178
#
# Compressibility (1/GPa) = 0.05523567
#
# Stress axis : x y z
#
# Youngs Moduli (GPa) = 13.24208 94.47684 67.23570
#
# Poissons Ratio (x) = 0.88744 0.76991
# Poissons Ratio (y) = 0.12439 0.13617
# Poissons Ratio (z) = 0.15163 0.19134
#
# Static dielectric constant tensor:
#      x y z
#    x 1.714270 0.000000 0.000000 
#    y 0.000000 1.813650 0.000000 
#    z 0.000000 0.000000 1.789710 
# 
# From -- ./inp_files/19220.got.cif
#   From: 2010.05.17/outbox.cif.g08.bks.cpg/sg40_10_cif.got.tgz:19220.got - 2010.06.03 18:35:42.
