data_PCOD9363708
_publ_section_title
;
Structure prediction by ZEFSAII (Michael W. Deem and Ramdas Pophale) SiO2 
 PCOD9363708
Probable space group: A M A 2
;
_chemical_formula_sum "Si O2"
_cell_formula_units_Z 64
_cell_length_a 8.848194
_cell_length_b 23.654120
_cell_length_c 19.538486
_cell_angle_alpha 90.000000
_cell_angle_beta 90.000000
_cell_angle_gamma 90.000000
_cell_volume 4089.331707
_symmetry_space_group_name_H-M "A M A 2"
_symmetry_group_IT_number 40
_symmetry_cell_setting 'orthorhombic'
loop_
_space_group_symop_operation_xyz
x,y,z
-x,-y,z
1/2-x,y,z
1/2+x,-y,z
x,1/2+y,1/2+z
-x,1/2-y,1/2+z
1/2-x,1/2+y,1/2+z
1/2+x,1/2-y,1/2+z
loop_
_atom_site_type_symbol
_atom_site_label
_atom_site_fract_x
_atom_site_fract_y
_atom_site_fract_z
Si Si1 0.430065 0.159280 0.961330
Si Si2 0.568861 0.562230 0.092679
Si Si3 0.569155 0.750492 0.732706
Si Si4 0.930187 0.561707 0.375939
Si Si5 0.431641 0.375696 0.235569
Si Si6 0.569712 0.836895 0.510650
Si Si7 0.068771 0.776415 0.385173
Si Si8 0.069133 0.230595 0.091160
O O1 0.250000 0.149848 0.956602
O O2 0.515168 0.104717 0.934297
O O3 0.466628 0.213288 0.913155
O O4 0.465966 0.180405 0.037888
O O5 0.500000 0.500000 0.087818
O O6 0.750000 0.560251 0.086046
O O7 0.532920 0.589348 0.167040
O O8 0.499427 0.604534 0.036806
O O9 0.750000 0.750111 0.725843
O O10 0.512194 0.815229 0.734641
O O11 0.529809 0.722014 0.805304
O O12 0.493356 0.722170 0.666885
O O13 0.750000 0.557493 0.376477
O O14 0.976017 0.589365 0.303054
O O15 0.000000 0.500000 0.383458
O O16 0.250000 0.366540 0.237238
O O17 0.750000 0.837637 0.515113
O O18 0.515613 0.819729 0.434740
O O19 0.504235 0.787370 0.559722
O O20 0.250000 0.783778 0.393287
O O21 0.250000 0.238422 0.091987
#
# Coordination Sequence:
#
# PCOD9363708 Si02
#       8
#     8   8   8   8   8   8   8   8
#     4   9  18  34  51  69  97 133 168 207 254 298
#     4  11  22  36  52  71 101 139 176 216 254 299
#     4  11  20  31  52  78 103 135 172 207 250 307
#     4  11  22  34  50  72  99 135 176 213 250 296
#     4  10  21  34  48  70 102 139 174 209 250 293
#     4  11  21  33  51  75  99 132 174 213 252 301
#     4   9  19  34  51  73 102 134 164 207 260 303
#     4  10  20  34  51  72 103 135 165 208 260 305
#
# _framework density 15.65048
#
# number of rings (size 3 to 8) (size 9 to 14) (size 15 to 20)
#    0.000    1.750    2.500    3.750    0.000    4.500 
#    0.000    0.000    0.000    0.000    0.000    0.875 
#    0.000    2.000    0.000    0.000    0.000    0.000 
#
# Total GULP energy -178676.320085 kJ/mol
# GULP energy per Si atom -5583.635003 kJ/mol
# Density = 1.561486 g / cm^3
# Si number density = 15.650480 Si / 1000 Ang^3
#
#
#
# Elastic Constant Matrix: (Units=GPa)
#
#
# Indices 1 2 3 4 5 6 
#
# 1 63.2751 47.6636 59.4839 0.0000 0.0000 0.0000
# 2 47.6636 88.6799 64.4192 0.0000 0.0000 0.0000
# 3 59.4839 64.4192 141.7615 0.0000 0.0000 0.0000
# 4 0.0000 0.0000 0.0000 17.6562 0.0000 0.0000
# 5 0.0000 0.0000 0.0000 0.0000 27.2806 0.0000
# 6 0.0000 0.0000 0.0000 0.0000 0.0000 26.3211
#
#
#
# Elastic Compliance Matrix: (Units=1/GPa)
#
#
# Indices 1 2 3 4 5 6 
#
# 1 0.032104 -0.011150 -0.008404 0.000000 0.000000 0.000000
# 2 -0.011150 0.020706 -0.004730 0.000000 0.000000 0.000000
# 3 -0.008404 -0.004730 0.012730 0.000000 0.000000 0.000000
# 4 0.000000 0.000000 0.000000 0.056637 0.000000 0.000000
# 5 0.000000 0.000000 0.000000 0.000000 0.036656 0.000000
# 6 0.000000 0.000000 0.000000 0.000000 0.000000 0.037992
#
#
# Mechanical properties :
#
#
# Convention : Reuss Voigt Hill
#
# Bulk Modulus (GPa) = 58.92658 70.76109 64.84383
# Shear Modulus (GPa) = 19.91626 22.39491 21.15559
#
# Velocity S-wave (km/s) = 3.57117 3.78688 3.68061
# Velocity P-wave (km/s) = 7.39849 8.02696 7.71913
#
# Compressibility (1/GPa) = 0.01697027
#
# Stress axis : x y z
#
# Youngs Moduli (GPa) = 31.14915 48.29572 78.55409
#
# Poissons Ratio (x) = 0.53850 0.66017
# Poissons Ratio (y) = 0.34732 0.37160
# Poissons Ratio (z) = 0.26178 0.22846
#
# Static dielectric constant tensor:
#      x y z
#    x 1.517190 0.000000 0.000000 
#    y 0.000000 1.484890 0.000000 
#    z 0.000000 0.000000 1.533170 
# 
# From -- ./inp_files/19653.got.cif
#   From: 2010.05.17/outbox.cif.g08.bks.cpg/sg40_10_cif.got.tgz:19653.got - 2010.06.03 18:35:42.
