data_PCOD9363346
_publ_section_title
;
Structure prediction by ZEFSAII (Michael W. Deem and Ramdas Pophale) SiO2 
 PCOD9363346
Probable space group: A M A 2
;
_chemical_formula_sum "Si O2"
_cell_formula_units_Z 64
_cell_length_a 16.314655
_cell_length_b 12.389349
_cell_length_c 16.523961
_cell_angle_alpha 90.000000
_cell_angle_beta 90.000000
_cell_angle_gamma 90.000000
_cell_volume 3339.954439
_symmetry_space_group_name_H-M "A M A 2"
_symmetry_group_IT_number 40
_symmetry_cell_setting 'orthorhombic'
loop_
_space_group_symop_operation_xyz
x,y,z
-x,-y,z
1/2-x,y,z
1/2+x,-y,z
x,1/2+y,1/2+z
-x,1/2-y,1/2+z
1/2-x,1/2+y,1/2+z
1/2+x,1/2-y,1/2+z
loop_
_atom_site_type_symbol
_atom_site_label
_atom_site_fract_x
_atom_site_fract_y
_atom_site_fract_z
Si Si1 0.845947 0.214296 0.881190
Si Si2 0.089618 0.948877 0.012333
Si Si3 0.909841 0.375045 0.260098
Si Si4 0.655033 0.846776 0.936719
Si Si5 0.650462 0.139431 0.536454
Si Si6 0.101667 0.385518 0.219144
Si Si7 0.347566 0.768582 0.124647
Si Si8 0.849053 0.904546 0.487925
O O1 0.750000 0.199826 0.904096
O O2 0.856011 0.186649 0.787683
O O3 0.870715 0.334734 0.908756
O O4 0.897320 0.130290 0.935371
O O5 0.110832 0.876433 0.090226
O O6 0.000000 0.000000 0.015828
O O7 0.148070 0.050466 0.995438
O O8 0.895745 0.367875 0.355575
O O9 0.872097 0.489318 0.230779
O O10 0.870815 0.274331 0.212886
O O11 0.005230 0.378611 0.237646
O O12 0.750000 0.831679 0.913280
O O13 0.624427 0.740771 0.982876
O O14 0.750000 0.139298 0.538042
O O15 0.620360 0.148474 0.628220
O O16 0.620236 0.025672 0.499551
O O17 0.250000 0.782183 0.118239
O O18 0.372654 0.671169 0.063692
O O19 0.750000 0.912392 0.489012
#
# Coordination Sequence:
#
# PCOD9363346 Si02
#       8
#     8   8   8   8   8   8   8   8
#     4  10  19  34  61  89 119 158 206 252 297 370
#     4  11  22  36  59  89 123 158 196 250 315 359
#     4  11  23  38  58  89 121 159 204 252 301 361
#     4  11  23  39  61  89 122 160 201 248 303 366
#     4  10  21  38  62  89 122 157 197 251 309 363
#     4  11  22  37  57  92 123 155 200 253 313 354
#     4  10  20  37  63  88 115 159 209 253 298 369
#     4   8  16  33  57  88 115 149 197 243 292 352
#
# _framework density 19.161939
#
# number of rings (size 3 to 8) (size 9 to 14) (size 15 to 20)
#    0.000    1.750    2.500    3.375    1.750    1.000 
#    0.000    1.250    0.000    4.500    0.000    0.000 
#    0.000    0.000    0.000    0.000    0.000    0.000 
#
# Total GULP energy -178678.996399 kJ/mol
# GULP energy per Si atom -5583.718637 kJ/mol
# Density = 1.911833 g / cm^3
# Si number density = 19.161939 Si / 1000 Ang^3
#
#
#
# Elastic Constant Matrix: (Units=GPa)
#
#
# Indices 1 2 3 4 5 6 
#
# 1 37.2078 8.9854 13.6547 0.0000 0.0000 0.0000
# 2 8.9854 102.0548 41.9057 0.0000 0.0000 0.0000
# 3 13.6547 41.9057 72.4206 0.0000 0.0000 0.0000
# 4 0.0000 0.0000 0.0000 35.3226 0.0000 0.0000
# 5 0.0000 0.0000 0.0000 0.0000 23.3707 0.0000
# 6 0.0000 0.0000 0.0000 0.0000 0.0000 1.2451
#
#
#
# Elastic Compliance Matrix: (Units=1/GPa)
#
#
# Indices 1 2 3 4 5 6 
#
# 1 0.028887 -0.000403 -0.005214 0.000000 0.000000 0.000000
# 2 -0.000403 0.012858 -0.007364 0.000000 0.000000 0.000000
# 3 -0.005214 -0.007364 0.019053 0.000000 0.000000 0.000000
# 4 0.000000 0.000000 0.000000 0.028310 0.000000 0.000000
# 5 0.000000 0.000000 0.000000 0.000000 0.042789 0.000000
# 6 0.000000 0.000000 0.000000 0.000000 0.000000 0.803166
#
#
# Mechanical properties :
#
#
# Convention : Reuss Voigt Hill
#
# Bulk Modulus (GPa) = 28.70563 37.86386 33.28475
# Shear Modulus (GPa) = 5.14067 21.79684 13.46876
#
# Velocity S-wave (km/s) = 1.63969 3.37635 2.65409
# Velocity P-wave (km/s) = 4.31252 5.91629 5.17689
#
# Compressibility (1/GPa) = 0.03483637
#
# Stress axis : x y z
#
# Youngs Moduli (GPa) = 34.61809 77.77245 52.48643
#
# Poissons Ratio (x) = 0.03130 0.27364
# Poissons Ratio (y) = 0.01393 0.38653
# Poissons Ratio (z) = 0.18048 0.57274
#
# Static dielectric constant tensor:
#      x y z
#    x 1.712560 0.000000 0.000000 
#    y 0.000000 1.673120 0.000000 
#    z 0.000000 0.000000 1.646210 
# 
# From -- ./inp_files/20813.got.cif
#   From: 2010.05.17/outbox.cif.g08.bks.cpg/sg40_11_cif.got.tgz:20813.got - 2010.06.03 18:35:42.
