data_PCOD9363958
_publ_section_title
;
Structure prediction by ZEFSAII (Michael W. Deem and Ramdas Pophale) SiO2 
 PCOD9363958
Probable space group: A M A 2
;
_chemical_formula_sum "Si O2"
_cell_formula_units_Z 64
_cell_length_a 8.467443
_cell_length_b 29.026670
_cell_length_c 12.982702
_cell_angle_alpha 90.000000
_cell_angle_beta 90.000000
_cell_angle_gamma 90.000000
_cell_volume 3190.910227
_symmetry_space_group_name_H-M "A M A 2"
_symmetry_group_IT_number 40
_symmetry_cell_setting 'orthorhombic'
loop_
_space_group_symop_operation_xyz
x,y,z
-x,-y,z
1/2-x,y,z
1/2+x,-y,z
x,1/2+y,1/2+z
-x,1/2-y,1/2+z
1/2-x,1/2+y,1/2+z
1/2+x,1/2-y,1/2+z
loop_
_atom_site_type_symbol
_atom_site_label
_atom_site_fract_x
_atom_site_fract_y
_atom_site_fract_z
Si Si1 0.069148 0.322391 0.967960
Si Si2 0.563366 0.305808 0.182687
Si Si3 0.060046 0.452725 0.796810
Si Si4 0.938829 0.880735 0.134128
Si Si5 0.058795 0.051492 0.950921
Si Si6 0.560117 0.408513 0.232274
Si Si7 0.569995 0.069023 0.517705
Si Si8 0.941320 0.705934 0.740460
O O1 0.250000 0.305047 0.976646
O O2 0.074119 0.376884 0.988684
O O3 0.011289 0.312167 0.853415
O O4 0.966361 0.302826 0.060595
O O5 0.750000 0.306792 0.203367
O O6 0.500119 0.355354 0.222027
O O7 0.500420 0.258324 0.229169
O O8 0.250000 0.451018 0.800191
O O9 0.996468 0.451541 0.914060
O O10 0.000000 0.500000 0.747422
O O11 0.998664 0.410163 0.731431
O O12 0.750000 0.879733 0.132756
O O13 0.999585 0.829048 0.152779
O O14 0.992197 0.909737 0.033807
O O15 0.250000 0.050536 0.952124
O O16 0.005218 0.067048 0.836676
O O17 0.000000 0.000000 0.974708
O O18 0.750000 0.406638 0.235754
O O19 0.513158 0.434622 0.127425
O O20 0.750000 0.052381 0.529138
O O21 0.750000 0.705379 0.736553
#
# Coordination Sequence:
#
# PCOD9363958 Si02
#       8
#     8   8   8   8   8   8   8   8
#     4   9  17  33  54  75 106 146 182 226 285 339
#     4   9  19  34  55  83 112 148 191 237 289 346
#     4  11  22  37  56  82 115 146 182 230 286 344
#     4  11  23  38  58  84 113 150 197 243 289 349
#     4  10  23  41  60  84 115 154 198 243 296 349
#     4   9  19  37  58  81 113 150 192 238 286 345
#     4   9  18  34  55  79 107 142 182 227 282 340
#     4  10  20  36  57  82 114 153 192 237 299 353
#
# _framework density 20.056971999999998
#
# number of rings (size 3 to 8) (size 9 to 14) (size 15 to 20)
#    0.000    2.250    1.250    1.125    0.000    6.000 
#    0.000    5.000    0.000    3.000    0.000    0.000 
#    0.000    0.000    0.000    0.000    0.000    0.000 
#
# Total GULP energy -178473.118928 kJ/mol
# GULP energy per Si atom -5577.284967 kJ/mol
# Density = 2.001132 g / cm^3
# Si number density = 20.056972 Si / 1000 Ang^3
#
#
#
# Elastic Constant Matrix: (Units=GPa)
#
#
# Indices 1 2 3 4 5 6 
#
# 1 8.8227 3.8975 5.5441 0.0000 0.0000 0.0000
# 2 3.8975 50.3968 11.9343 0.0000 0.0000 0.0000
# 3 5.5441 11.9343 97.7945 0.0000 0.0000 0.0000
# 4 0.0000 0.0000 0.0000 8.9500 0.0000 0.0000
# 5 0.0000 0.0000 0.0000 0.0000 6.2090 0.0000
# 6 0.0000 0.0000 0.0000 0.0000 0.0000 26.8964
#
#
#
# Elastic Compliance Matrix: (Units=1/GPa)
#
#
# Indices 1 2 3 4 5 6 
#
# 1 0.120534 -0.007933 -0.005865 0.000000 0.000000 0.000000
# 2 -0.007933 0.020955 -0.002108 0.000000 0.000000 0.000000
# 3 -0.005865 -0.002108 0.010815 0.000000 0.000000 0.000000
# 4 0.000000 0.000000 0.000000 0.111732 0.000000 0.000000
# 5 0.000000 0.000000 0.000000 0.000000 0.161056 0.000000
# 6 0.000000 0.000000 0.000000 0.000000 0.000000 0.037180
#
#
# Mechanical properties :
#
#
# Convention : Reuss Voigt Hill
#
# Bulk Modulus (GPa) = 8.29920 22.19620 15.24770
# Shear Modulus (GPa) = 9.35896 17.45362 13.40629
#
# Velocity S-wave (km/s) = 2.16248 2.95312 2.58817
# Velocity P-wave (km/s) = 3.22209 4.76639 4.06819
#
# Compressibility (1/GPa) = 0.12049356
#
# Stress axis : x y z
#
# Youngs Moduli (GPa) = 8.29640 47.72106 92.46235
#
# Poissons Ratio (x) = 0.37856 0.54231
# Poissons Ratio (y) = 0.06581 0.19487
# Poissons Ratio (z) = 0.04866 0.10057
#
# Static dielectric constant tensor:
#      x y z
#    x 1.702750 0.000000 0.000000 
#    y 0.000000 2.020400 0.000000 
#    z 0.000000 0.000000 1.711050 
# 
# From -- ./inp_files/10576.got.cif
#   From: 2010.05.17/outbox.cif.g08.bks.cpg/sg40_6_cif.got.tgz:10576.got - 2010.06.03 18:35:42.
