data_PCOD9363724
_publ_section_title
;
Structure prediction by ZEFSAII (Michael W. Deem and Ramdas Pophale) SiO2 
 PCOD9363724
Probable space group: A M A 2
;
_chemical_formula_sum "Si O2"
_cell_formula_units_Z 64
_cell_length_a 8.252601
_cell_length_b 29.472861
_cell_length_c 13.331618
_cell_angle_alpha 90.000000
_cell_angle_beta 90.000000
_cell_angle_gamma 90.000000
_cell_volume 3242.619612
_symmetry_space_group_name_H-M "A M A 2"
_symmetry_group_IT_number 40
_symmetry_cell_setting 'orthorhombic'
loop_
_space_group_symop_operation_xyz
x,y,z
-x,-y,z
1/2-x,y,z
1/2+x,-y,z
x,1/2+y,1/2+z
-x,1/2-y,1/2+z
1/2-x,1/2+y,1/2+z
1/2+x,1/2-y,1/2+z
loop_
_atom_site_type_symbol
_atom_site_label
_atom_site_fract_x
_atom_site_fract_y
_atom_site_fract_z
Si Si1 0.056944 0.551985 0.469410
Si Si2 0.057122 0.142270 0.579039
Si Si3 0.445929 0.244729 0.551706
Si Si4 0.444897 0.552037 0.693070
Si Si5 0.057078 0.278233 0.330007
Si Si6 0.057031 0.378831 0.859325
Si Si7 0.942676 0.618246 0.293950
Si Si8 0.935114 0.698082 0.714111
O O1 0.250000 0.551643 0.473216
O O2 0.001081 0.568427 0.581063
O O3 0.000000 0.500000 0.457278
O O4 0.005421 0.582433 0.375319
O O5 0.250000 0.145306 0.584911
O O6 0.990243 0.194440 0.578592
O O7 0.013463 0.120765 0.471287
O O8 0.998671 0.115744 0.677925
O O9 0.250000 0.244570 0.567148
O O10 0.469218 0.254505 0.435813
O O11 0.512687 0.289873 0.607682
O O12 0.500000 0.500000 0.699153
O O13 0.250000 0.555146 0.698672
O O14 0.518363 0.579440 0.786068
O O15 0.250000 0.274402 0.304218
O O16 0.012575 0.330816 0.328644
O O17 0.946266 0.248897 0.257165
O O18 0.250000 0.374029 0.871664
O O19 0.990098 0.335980 0.794383
O O20 0.750000 0.614850 0.294343
O O21 0.750000 0.682481 0.700340
#
# Coordination Sequence:
#
# PCOD9363724 Si02
#       8
#     8   8   8   8   8   8   8   8
#     4  10  22  42  67  93 121 152 191 238 295 356
#     4  11  21  37  60  80 117 164 206 249 294 348
#     4   9  18  33  51  74 109 154 197 241 292 340
#     4  10  22  42  67  93 121 152 191 238 295 356
#     4  10  20  34  53  78 112 153 198 243 288 342
#     4  11  23  37  59  89 122 157 200 247 298 355
#     4  11  23  37  59  89 122 157 200 247 298 355
#     4  10  20  34  53  78 112 153 198 243 288 342
#
# _framework density 19.737127000000001
#
# number of rings (size 3 to 8) (size 9 to 14) (size 15 to 20)
#    0.000    1.750    2.500    1.875    1.750    2.500 
#    0.000    1.250    0.000    0.000    0.000    0.000 
#    0.000    0.000    0.000    0.000    0.000    0.000 
#
# Total GULP energy -178382.464420 kJ/mol
# GULP energy per Si atom -5574.452013 kJ/mol
# Density = 1.969220 g / cm^3
# Si number density = 19.737127 Si / 1000 Ang^3
#
#
#
# Elastic Constant Matrix: (Units=GPa)
#
#
# Indices 1 2 3 4 5 6 
#
# 1 16.7131 -1.1503 -1.1108 0.0000 0.0000 0.0000
# 2 -1.1503 61.8709 37.9117 0.0000 0.0000 0.0000
# 3 -1.1108 37.9117 111.4062 0.0000 0.0000 0.0000
# 4 0.0000 0.0000 0.0000 34.6147 0.0000 0.0000
# 5 0.0000 0.0000 0.0000 0.0000 21.0083 0.0000
# 6 0.0000 0.0000 0.0000 0.0000 0.0000 22.7196
#
#
#
# Elastic Compliance Matrix: (Units=1/GPa)
#
#
# Indices 1 2 3 4 5 6 
#
# 1 0.059917 0.000945 0.000276 0.000000 0.000000 0.000000
# 2 0.000945 0.020436 -0.006945 0.000000 0.000000 0.000000
# 3 0.000276 -0.006945 0.011342 0.000000 0.000000 0.000000
# 4 0.000000 0.000000 0.000000 0.028889 0.000000 0.000000
# 5 0.000000 0.000000 0.000000 0.000000 0.047600 0.000000
# 6 0.000000 0.000000 0.000000 0.000000 0.000000 0.044015
#
#
# Mechanical properties :
#
#
# Convention : Reuss Voigt Hill
#
# Bulk Modulus (GPa) = 12.46160 29.03237 20.74698
# Shear Modulus (GPa) = 19.96834 25.95782 22.96308
#
# Velocity S-wave (km/s) = 3.18420 3.63047 3.41463
# Velocity P-wave (km/s) = 4.45492 5.68465 5.10693
#
# Compressibility (1/GPa) = 0.08024650
#
# Stress axis : x y z
#
# Youngs Moduli (GPa) = 16.68984 48.93378 88.16571
#
# Poissons Ratio (x) = -0.04624 -0.02432
# Poissons Ratio (y) = -0.01577 0.61230
# Poissons Ratio (z) = -0.00460 0.33984
#
# Static dielectric constant tensor:
#      x y z
#    x 1.692200 0.000000 0.000000 
#    y 0.000000 1.649930 0.000000 
#    z 0.000000 0.000000 1.774610 
# 
# From -- ./inp_files/10702.got.cif
#   From: 2010.05.17/outbox.cif.g08.bks.cpg/sg40_6_cif.got.tgz:10702.got - 2010.06.03 18:35:42.
