data_PCOD9363163
_publ_section_title
;
Structure prediction by ZEFSAII (Michael W. Deem and Ramdas Pophale) SiO2 
 PCOD9363163
Probable space group: A M A 2
;
_chemical_formula_sum "Si O2"
_cell_formula_units_Z 64
_cell_length_a 8.562174
_cell_length_b 29.559376
_cell_length_c 12.590180
_cell_angle_alpha 90.000000
_cell_angle_beta 90.000000
_cell_angle_gamma 90.000000
_cell_volume 3186.480392
_symmetry_space_group_name_H-M "A M A 2"
_symmetry_group_IT_number 40
_symmetry_cell_setting 'orthorhombic'
loop_
_space_group_symop_operation_xyz
x,y,z
-x,-y,z
1/2-x,y,z
1/2+x,-y,z
x,1/2+y,1/2+z
-x,1/2-y,1/2+z
1/2-x,1/2+y,1/2+z
1/2+x,1/2-y,1/2+z
loop_
_atom_site_type_symbol
_atom_site_label
_atom_site_fract_x
_atom_site_fract_y
_atom_site_fract_z
Si Si1 0.069154 0.862679 0.697790
Si Si2 0.561508 0.951081 0.163385
Si Si3 0.570173 0.563757 0.898685
Si Si4 0.930352 0.309996 0.374240
Si Si5 0.072853 0.831720 0.466221
Si Si6 0.931743 0.953735 0.618657
Si Si7 0.441114 0.651173 0.598579
Si Si8 0.928972 0.780669 0.284204
O O1 0.250000 0.855790 0.726747
O O2 0.037413 0.833824 0.590994
O O3 0.958806 0.851220 0.794752
O O4 0.037064 0.913412 0.661733
O O5 0.750000 0.952685 0.164403
O O6 0.495312 0.947209 0.283232
O O7 0.514293 0.902205 0.110662
O O8 0.500000 0.000000 0.120462
O O9 0.750000 0.547726 0.910462
O O10 0.573454 0.617632 0.919550
O O11 0.458859 0.546154 0.991720
O O12 0.750000 0.300378 0.391864
O O13 0.995311 0.324895 0.489277
O O14 0.997718 0.267939 0.307726
O O15 0.250000 0.813472 0.452908
O O16 0.950194 0.804613 0.397748
O O17 0.750000 0.947228 0.641920
O O18 0.000000 0.000000 0.662535
O O19 0.250000 0.650622 0.599922
O O20 0.493217 0.683848 0.696238
O O21 0.750000 0.773205 0.255450
#
# Coordination Sequence:
#
# PCOD9363163 Si02
#       8
#     8   8   8   8   8   8   8   8
#     4  10  22  41  61  87 123 159 201 254 306 360
#     4  11  21  37  59  87 120 164 209 258 315 378
#     4  10  19  33  53  84 123 161 198 249 306 364
#     4  11  24  43  64  89 120 164 210 255 313 374
#     4   9  19  35  57  85 120 156 192 242 299 356
#     4  11  21  35  57  86 120 162 207 254 307 369
#     4   9  22  43  64  86 125 167 205 257 316 373
#     4  11  22  39  63  92 121 158 201 248 308 371
#
# _framework density 20.084857
#
# number of rings (size 3 to 8) (size 9 to 14) (size 15 to 20)
#    0.000    1.750    1.250    4.125    1.750    2.500 
#    0.000    5.000    0.000    1.500    0.000    0.000 
#    0.000    0.000    0.000    0.000    0.000    0.000 
#
# Total GULP energy -178446.896666 kJ/mol
# GULP energy per Si atom -5576.465521 kJ/mol
# Density = 2.003914 g / cm^3
# Si number density = 20.084857 Si / 1000 Ang^3
#
#
#
# Elastic Constant Matrix: (Units=GPa)
#
#
# Indices 1 2 3 4 5 6 
#
# 1 32.7530 7.9138 6.6359 0.0000 0.0000 0.0000
# 2 7.9138 97.7482 41.4633 0.0000 0.0000 0.0000
# 3 6.6359 41.4633 71.2119 0.0000 0.0000 0.0000
# 4 0.0000 0.0000 0.0000 -4.9102 0.0000 0.0000
# 5 0.0000 0.0000 0.0000 0.0000 20.5057 0.0000
# 6 0.0000 0.0000 0.0000 0.0000 0.0000 26.9694
#
#
#
# Elastic Compliance Matrix: (Units=1/GPa)
#
#
# Indices 1 2 3 4 5 6 
#
# 1 0.031336 -0.001724 -0.001916 0.000000 0.000000 0.000000
# 2 -0.001724 0.013681 -0.007805 0.000000 0.000000 0.000000
# 3 -0.001916 -0.007805 0.018766 0.000000 0.000000 0.000000
# 4 0.000000 0.000000 0.000000 -0.203659 0.000000 0.000000
# 5 0.000000 0.000000 0.000000 0.000000 0.048767 0.000000
# 6 0.000000 0.000000 0.000000 0.000000 0.000000 0.037079
#
#
# Mechanical properties :
#
#
# Convention : Reuss Voigt Hill
#
# Bulk Modulus (GPa) = 24.45460 34.85987 29.65724
# Shear Modulus (GPa) = -285.56683 18.22633 -133.67025
#
# Velocity S-wave (km/s) = -11.93687 3.01569 -8.16684
# Velocity P-wave (km/s) = 13.33353 5.43321 8.60997
#
# Compressibility (1/GPa) = 0.04089209
#
# Stress axis : x y z
#
# Youngs Moduli (GPa) = 31.91175 73.09568 53.28901
#
# Poissons Ratio (x) = 0.12603 0.10211
# Poissons Ratio (y) = 0.05502 0.41592
# Poissons Ratio (z) = 0.06115 0.57051
#
# Static dielectric constant tensor:
#      x y z
#    x 1.689610 0.000000 0.000000 
#    y 0.000000 1.781650 0.000000 
#    z 0.000000 0.000000 1.700270 
# 
# From -- ./inp_files/10634.got.cif
#   From: 2010.05.17/outbox.cif.g08.bks.cpg/sg40_6_cif.got.tgz:10634.got - 2010.06.03 18:35:42.
