data_PCOD9363327
_publ_section_title
;
Structure prediction by ZEFSAII (Michael W. Deem and Ramdas Pophale) SiO2 
 PCOD9363327
Probable space group: A M A 2
;
_chemical_formula_sum "Si O2"
_cell_formula_units_Z 64
_cell_length_a 17.917186
_cell_length_b 12.579195
_cell_length_c 16.439052
_cell_angle_alpha 90.000000
_cell_angle_beta 90.000000
_cell_angle_gamma 90.000000
_cell_volume 3705.095623
_symmetry_space_group_name_H-M "A M A 2"
_symmetry_group_IT_number 40
_symmetry_cell_setting 'orthorhombic'
loop_
_space_group_symop_operation_xyz
x,y,z
-x,-y,z
1/2-x,y,z
1/2+x,-y,z
x,1/2+y,1/2+z
-x,1/2-y,1/2+z
1/2-x,1/2+y,1/2+z
1/2+x,1/2-y,1/2+z
loop_
_atom_site_type_symbol
_atom_site_label
_atom_site_fract_x
_atom_site_fract_y
_atom_site_fract_z
Si Si1 0.339706 0.102788 0.742280
Si Si2 0.838587 0.753262 0.159269
Si Si3 0.410072 0.503178 0.909228
Si Si4 0.591470 0.723987 0.850373
Si Si5 0.660963 0.518804 0.085136
Si Si6 0.413212 0.726891 0.833627
Si Si7 0.839588 0.864276 0.993637
Si Si8 0.660823 0.560289 0.387059
O O1 0.250000 0.109207 0.742756
O O2 0.372426 0.211846 0.776026
O O3 0.364145 0.065609 0.653325
O O4 0.359420 0.010570 0.807635
O O5 0.750000 0.761448 0.178654
O O6 0.850966 0.636051 0.122084
O O7 0.885696 0.766584 0.240684
O O8 0.856443 0.835666 0.086686
O O9 0.500000 0.500000 0.911541
O O10 0.385669 0.398873 0.859089
O O11 0.386845 0.614715 0.870310
O O12 0.379502 0.493878 0.000111
O O13 0.502524 0.730758 0.841033
O O14 0.618775 0.784482 0.932122
O O15 0.750000 0.507050 0.073242
O O16 0.379818 0.827819 0.881288
O O17 0.750000 0.848462 0.981959
O O18 0.856622 0.983702 0.963418
O O19 0.750000 0.577441 0.384783
#
# Coordination Sequence:
#
# PCOD9363327 Si02
#       8
#     8   8   8   8   8   8   8   8
#     4   9  18  33  55  84 111 134 176 236 276 316
#     4  10  19  35  58  84 108 143 191 229 267 329
#     4  10  23  39  53  75 115 152 185 225 273 334
#     4  10  20  36  55  79 112 148 189 219 276 333
#     4  10  19  34  58  85 107 137 186 233 276 325
#     4  11  22  35  54  81 116 147 182 225 280 332
#     4   9  18  34  60  83 106 140 186 234 269 319
#     4   9  17  33  54  80 111 139 172 226 278 317
#
# _framework density 17.273509000000001
#
# number of rings (size 3 to 8) (size 9 to 14) (size 15 to 20)
#    0.000    2.250    2.500    1.500    0.000    4.500 
#    0.000    1.250    5.500    3.000    0.000    0.000 
#    0.000    0.000    0.000    0.000    0.000    0.000 
#
# Total GULP energy -178491.409708 kJ/mol
# GULP energy per Si atom -5577.856553 kJ/mol
# Density = 1.723419 g / cm^3
# Si number density = 17.273509 Si / 1000 Ang^3
#
#
#
# Elastic Constant Matrix: (Units=GPa)
#
#
# Indices 1 2 3 4 5 6 
#
# 1 24.7941 39.0956 31.8743 0.0000 0.0000 0.0000
# 2 39.0956 148.8483 62.2398 0.0000 0.0000 0.0000
# 3 31.8743 62.2398 93.6112 0.0000 0.0000 0.0000
# 4 0.0000 0.0000 0.0000 29.6182 0.0000 0.0000
# 5 0.0000 0.0000 0.0000 0.0000 -4.8733 0.0000
# 6 0.0000 0.0000 0.0000 0.0000 0.0000 44.7574
#
#
#
# Elastic Compliance Matrix: (Units=1/GPa)
#
#
# Indices 1 2 3 4 5 6 
#
# 1 0.091253 -0.015202 -0.020964 0.000000 0.000000 0.000000
# 2 -0.015202 0.011838 -0.002694 0.000000 0.000000 0.000000
# 3 -0.020964 -0.002694 0.019612 0.000000 0.000000 0.000000
# 4 0.000000 0.000000 0.000000 0.033763 0.000000 0.000000
# 5 0.000000 0.000000 0.000000 0.000000 -0.205201 0.000000
# 6 0.000000 0.000000 0.000000 0.000000 0.000000 0.022343
#
#
# Mechanical properties :
#
#
# Convention : Reuss Voigt Hill
#
# Bulk Modulus (GPa) = 22.23099 59.29699 40.76399
# Shear Modulus (GPa) = 75.38894 22.83674 49.11284
#
# Velocity S-wave (km/s) = 6.61355 3.63997 5.33799
# Velocity P-wave (km/s) = 8.43899 7.21586 7.85128
#
# Compressibility (1/GPa) = 0.04498226
#
# Stress axis : x y z
#
# Youngs Moduli (GPa) = 10.95852 84.47532 50.98915
#
# Poissons Ratio (x) = 1.28420 1.06893
# Poissons Ratio (y) = 0.16659 0.13738
# Poissons Ratio (z) = 0.22973 0.22761
#
# Static dielectric constant tensor:
#      x y z
#    x 1.613220 0.000000 0.000000 
#    y 0.000000 1.593850 0.000000 
#    z 0.000000 0.000000 1.568050 
# 
# From -- ./inp_files/17860.got.cif
#   From: 2010.05.17/outbox.cif.g08.bks.cpg/sg40_9_cif.got.tgz:17860.got - 2010.06.03 18:35:42.
