data_PCOD9363909
_publ_section_title
;
Structure prediction by ZEFSAII (Michael W. Deem and Ramdas Pophale) SiO2 
 PCOD9363909
Probable space group: A M A 2
;
_chemical_formula_sum "Si O2"
_cell_formula_units_Z 48
_cell_length_a 13.518148
_cell_length_b 11.795132
_cell_length_c 16.931557
_cell_angle_alpha 90.000000
_cell_angle_beta 90.000000
_cell_angle_gamma 90.000000
_cell_volume 2699.708658
_symmetry_space_group_name_H-M "A M A 2"
_symmetry_group_IT_number 40
_symmetry_cell_setting 'orthorhombic'
loop_
_space_group_symop_operation_xyz
x,y,z
-x,-y,z
1/2-x,y,z
1/2+x,-y,z
x,1/2+y,1/2+z
-x,1/2-y,1/2+z
1/2-x,1/2+y,1/2+z
1/2+x,1/2-y,1/2+z
loop_
_atom_site_type_symbol
_atom_site_label
_atom_site_fract_x
_atom_site_fract_y
_atom_site_fract_z
Si Si1 0.868765 0.944107 0.580970
Si Si2 0.034583 0.372128 0.325641
Si Si3 0.369239 0.258757 0.476511
Si Si4 0.525016 0.130437 0.123630
Si Si5 0.135317 0.220825 0.731266
Si Si6 0.630978 0.173748 0.656937
O O1 0.750000 0.953061 0.576241
O O2 0.897555 0.869180 0.504937
O O3 0.886779 0.869367 0.660273
O O4 0.902743 0.071962 0.597929
O O5 0.091447 0.305266 0.393839
O O6 0.099785 0.367041 0.245099
O O7 0.000000 0.500000 0.345236
O O8 0.933175 0.308703 0.304070
O O9 0.250000 0.266951 0.479857
O O10 0.419536 0.335927 0.543416
O O11 0.600421 0.161566 0.193956
O O12 0.429896 0.212560 0.136710
O O13 0.500000 0.000000 0.123817
O O14 0.250000 0.216174 0.748973
O O15 0.750000 0.188098 0.652892
#
# Coordination Sequence:
#
# PCOD9363909 Si02
#       6
#     8   8   8   8   8   8
#     4   8  15  32  56  83 110 148 192 238 294 351
#     4  11  20  32  56  91 122 153 197 251 297 354
#     4  10  21  35  54  82 120 154 187 242 307 357
#     4  10  21  36  56  83 111 154 201 244 293 357
#     4   9  18  33  56  80 109 149 194 244 294 346
#     4  10  20  35  61  90 116 153 207 257 296 351
#
# _framework density 17.779696999999999
#
# number of rings (size 3 to 8) (size 9 to 14) (size 15 to 20)
#    0.000    2.333    1.667    2.500    0.000    2.000 
#    0.000    0.833   14.667    0.000    0.000    0.000 
#    0.000    0.000    0.000    0.000    0.000    0.000 
#
# Total GULP energy -133768.974996 kJ/mol
# GULP energy per Si atom -5573.707291 kJ/mol
# Density = 1.773923 g / cm^3
# Si number density = 17.779697 Si / 1000 Ang^3
#
#
#
# Elastic Constant Matrix: (Units=GPa)
#
#
# Indices 1 2 3 4 5 6 
#
# 1 117.3924 42.4090 40.9989 0.0000 0.0000 0.0000
# 2 42.4090 131.5518 52.5199 0.0000 0.0000 0.0000
# 3 40.9989 52.5199 89.8053 0.0000 0.0000 0.0000
# 4 0.0000 0.0000 0.0000 20.8805 0.0000 0.0000
# 5 0.0000 0.0000 0.0000 0.0000 29.0857 0.0000
# 6 0.0000 0.0000 0.0000 0.0000 0.0000 22.7991
#
#
#
# Elastic Compliance Matrix: (Units=1/GPa)
#
#
# Indices 1 2 3 4 5 6 
#
# 1 0.010493 -0.001918 -0.003669 0.000000 0.000000 0.000000
# 2 -0.001918 0.010268 -0.005129 0.000000 0.000000 0.000000
# 3 -0.003669 -0.005129 0.015810 0.000000 0.000000 0.000000
# 4 0.000000 0.000000 0.000000 0.047892 0.000000 0.000000
# 5 0.000000 0.000000 0.000000 0.000000 0.034381 0.000000
# 6 0.000000 0.000000 0.000000 0.000000 0.000000 0.043861
#
#
# Mechanical properties :
#
#
# Convention : Reuss Voigt Hill
#
# Bulk Modulus (GPa) = 66.05625 67.84500 66.95062
# Shear Modulus (GPa) = 26.42971 28.07451 27.25211
#
# Velocity S-wave (km/s) = 3.85971 3.97800 3.91930
# Velocity P-wave (km/s) = 7.55622 7.70330 7.63011
#
# Compressibility (1/GPa) = 0.01513861
#
# Stress axis : x y z
#
# Youngs Moduli (GPa) = 95.30594 97.39419 63.25284
#
# Poissons Ratio (x) = 0.18680 0.23204
# Poissons Ratio (y) = 0.18279 0.32443
# Poissons Ratio (z) = 0.34963 0.49954
#
# Static dielectric constant tensor:
#      x y z
#    x 1.634570 0.000000 0.000000 
#    y 0.000000 1.632310 0.000000 
#    z 0.000000 0.000000 1.604660 
# 
# From -- ./inp_files/16967.got.cif
#   From: 2010.05.17/outbox.cif.g08.bks.cpg/sg40_9_cif.got.tgz:16967.got - 2010.06.03 18:35:42.
