data_PCOD9363499
_publ_section_title
;
Structure prediction by ZEFSAII (Michael W. Deem and Ramdas Pophale) SiO2 
 PCOD9363499
Probable space group: A M A 2
;
_chemical_formula_sum "Si O2"
_cell_formula_units_Z 52
_cell_length_a 23.859123
_cell_length_b 7.018906
_cell_length_c 13.854584
_cell_angle_alpha 90.000000
_cell_angle_beta 90.000000
_cell_angle_gamma 90.000000
_cell_volume 2320.157100
_symmetry_space_group_name_H-M "A M A 2"
_symmetry_group_IT_number 40
_symmetry_cell_setting 'orthorhombic'
loop_
_space_group_symop_operation_xyz
x,y,z
-x,-y,z
1/2-x,y,z
1/2+x,-y,z
x,1/2+y,1/2+z
-x,1/2-y,1/2+z
1/2-x,1/2+y,1/2+z
1/2+x,1/2-y,1/2+z
loop_
_atom_site_type_symbol
_atom_site_label
_atom_site_fract_x
_atom_site_fract_y
_atom_site_fract_z
Si Si1 0.897746 0.739395 0.823040
Si Si2 0.423140 0.875794 0.730198
Si Si3 0.815344 0.115802 0.169841
Si Si4 0.685485 0.357822 0.483326
Si Si5 0.988928 0.225222 0.914261
Si Si6 0.500000 0.000000 0.569314
Si Si7 0.687926 0.066817 0.639919
O O1 0.860225 0.600625 0.757123
O O2 0.951221 0.678922 0.885760
O O3 0.925523 0.898756 0.754772
O O4 0.855682 0.854662 0.893497
O O5 0.448964 0.770330 0.821258
O O6 0.459650 0.868337 0.634008
O O7 0.359075 0.837979 0.705618
O O8 0.750000 0.073980 0.196955
O O9 0.828315 0.998836 0.072312
O O10 0.817172 0.340569 0.144307
O O11 0.750000 0.393824 0.454269
O O12 0.681833 0.149480 0.532650
O O13 0.967392 0.344758 0.004561
O O14 0.000000 0.000000 0.935606
O O15 0.750000 0.120134 0.673323
#
# Coordination Sequence:
#
# PCOD9363499 Si02
#       7
#     8   8   8   8   8   4   8
#     4  10  19  37  58  83 120 150 201 252 289 357
#     4  10  21  41  60  87 123 150 204 250 287 366
#     4   9  19  35  57  82 115 159 194 240 306 348
#     4  10  20  35  57  86 116 152 200 243 293 360
#     4  10  23  41  59  91 118 157 210 242 303 367
#     4  12  22  42  66  82 126 164 188 264 304 338
#     4   9  19  36  59  85 116 154 193 242 298 349
#
# _framework density 22.412275999999999
#
# number of rings (size 3 to 8) (size 9 to 14) (size 15 to 20)
#    0.000    2.154    2.308    1.385    0.000    6.769 
#    1.385    3.077    0.000   13.846    0.000    0.000 
#    0.000    0.000    0.000    0.000    0.000    0.000 
#
# Total GULP energy -145098.175096 kJ/mol
# GULP energy per Si atom -5580.699042 kJ/mol
# Density = 2.236126 g / cm^3
# Si number density = 22.412276 Si / 1000 Ang^3
#
#
#
# Elastic Constant Matrix: (Units=GPa)
#
#
# Indices 1 2 3 4 5 6 
#
# 1 84.7451 -4.0852 30.8118 0.0000 0.0000 0.0000
# 2 -4.0852 61.5633 9.6966 0.0000 0.0000 0.0000
# 3 30.8118 9.6966 77.5659 0.0000 0.0000 0.0000
# 4 0.0000 0.0000 0.0000 34.5275 0.0000 0.0000
# 5 0.0000 0.0000 0.0000 0.0000 31.3324 0.0000
# 6 0.0000 0.0000 0.0000 0.0000 0.0000 0.6030
#
#
#
# Elastic Compliance Matrix: (Units=1/GPa)
#
#
# Indices 1 2 3 4 5 6 
#
# 1 0.013993 0.001840 -0.005789 0.000000 0.000000 0.000000
# 2 0.001840 0.016812 -0.002833 0.000000 0.000000 0.000000
# 3 -0.005789 -0.002833 0.015546 0.000000 0.000000 0.000000
# 4 0.000000 0.000000 0.000000 0.028962 0.000000 0.000000
# 5 0.000000 0.000000 0.000000 0.000000 0.031916 0.000000
# 6 0.000000 0.000000 0.000000 0.000000 0.000000 1.658334
#
#
# Mechanical properties :
#
#
# Convention : Reuss Voigt Hill
#
# Bulk Modulus (GPa) = 30.49815 32.96896 31.73355
# Shear Modulus (GPa) = 2.79321 25.78933 14.29127
#
# Velocity S-wave (km/s) = 1.11758 3.39585 2.52792
# Velocity P-wave (km/s) = 3.91186 5.48797 4.76553
#
# Compressibility (1/GPa) = 0.03278888
#
# Stress axis : x y z
#
# Youngs Moduli (GPa) = 71.46180 59.48223 64.32574
#
# Poissons Ratio (x) = -0.10947 0.37237
# Poissons Ratio (y) = -0.13151 0.18222
# Poissons Ratio (z) = 0.41367 0.16850
#
# Static dielectric constant tensor:
#      x y z
#    x 1.865630 0.000000 0.000000 
#    y 0.000000 1.849350 0.000000 
#    z 0.000000 0.000000 1.886590 
# 
# From -- ./inp_files/14190.got.cif
#   From: 2010.05.17/outbox.cif.g08.bks.cpg/sg40_8_cif.got.tgz:14190.got - 2010.06.03 18:35:42.
