data_PCOD9363956
_publ_section_title
;
Structure prediction by ZEFSAII (Michael W. Deem and Ramdas Pophale) SiO2 
 PCOD9363956
Probable space group: A M A 2
;
_chemical_formula_sum "Si O2"
_cell_formula_units_Z 48
_cell_length_a 17.835832
_cell_length_b 7.896915
_cell_length_c 16.579237
_cell_angle_alpha 90.000000
_cell_angle_beta 90.000000
_cell_angle_gamma 90.000000
_cell_volume 2335.153190
_symmetry_space_group_name_H-M "A M A 2"
_symmetry_group_IT_number 40
_symmetry_cell_setting 'orthorhombic'
loop_
_space_group_symop_operation_xyz
x,y,z
-x,-y,z
1/2-x,y,z
1/2+x,-y,z
x,1/2+y,1/2+z
-x,1/2-y,1/2+z
1/2-x,1/2+y,1/2+z
1/2+x,1/2-y,1/2+z
loop_
_atom_site_type_symbol
_atom_site_label
_atom_site_fract_x
_atom_site_fract_y
_atom_site_fract_z
Si Si1 0.340946 0.909756 0.260560
Si Si2 0.334635 0.536778 0.433393
Si Si3 0.586949 0.957863 0.595557
Si Si4 0.410540 0.033249 0.769570
Si Si5 0.333563 0.943035 0.432750
Si Si6 0.086302 0.445928 0.599323
O O1 0.250000 0.880470 0.259305
O O2 0.387156 0.732501 0.265112
O O3 0.359821 0.004279 0.344544
O O4 0.367304 0.000417 0.178763
O O5 0.250000 0.471091 0.442368
O O6 0.372207 0.467795 0.351392
O O7 0.330303 0.739872 0.424093
O O8 0.381273 0.507505 0.514367
O O9 0.616471 0.031048 0.681248
O O10 0.594444 0.756264 0.596486
O O11 0.500000 0.000000 0.594464
O O12 0.621153 0.020485 0.512641
O O13 0.500000 0.000000 0.774891
O O14 0.250000 0.010025 0.445637
O O15 0.000000 0.500000 0.607940
#
# Coordination Sequence:
#
# PCOD9363956 Si02
#       6
#     8   8   8   8   8   8
#     4   9  19  37  58  81 112 152 192 234 287 348
#     4  10  20  36  57  82 113 149 186 230 286 346
#     4  10  21  36  55  79 109 143 183 228 278 334
#     4   9  18  33  55  82 112 148 188 232 281 335
#     4   9  19  36  58  81 109 144 183 226 276 336
#     4  11  22  36  57  83 113 146 187 238 288 341
#
# _framework density 20.555395000000001
#
# number of rings (size 3 to 8) (size 9 to 14) (size 15 to 20)
#    0.000    2.333    0.000    3.500    0.000    6.000 
#    0.000    6.667    0.000    0.000    0.000    0.000 
#    0.000    0.000    0.000    0.000    0.000    0.000 
#
# Total GULP energy -133736.517452 kJ/mol
# GULP energy per Si atom -5572.354894 kJ/mol
# Density = 2.050861 g / cm^3
# Si number density = 20.555395 Si / 1000 Ang^3
#
#
#
# Elastic Constant Matrix: (Units=GPa)
#
#
# Indices 1 2 3 4 5 6 
#
# 1 93.2659 5.5283 81.9678 0.0000 0.0000 0.0000
# 2 5.5283 24.9701 14.0048 0.0000 0.0000 0.0000
# 3 81.9678 14.0048 243.7306 0.0000 0.0000 0.0000
# 4 0.0000 0.0000 0.0000 4.9742 0.0000 0.0000
# 5 0.0000 0.0000 0.0000 0.0000 45.9039 0.0000
# 6 0.0000 0.0000 0.0000 0.0000 0.0000 4.6892
#
#
#
# Elastic Compliance Matrix: (Units=1/GPa)
#
#
# Indices 1 2 3 4 5 6 
#
# 1 0.015227 -0.000516 -0.005091 0.000000 0.000000 0.000000
# 2 -0.000516 0.041399 -0.002205 0.000000 0.000000 0.000000
# 3 -0.005091 -0.002205 0.005942 0.000000 0.000000 0.000000
# 4 0.000000 0.000000 0.000000 0.201037 0.000000 0.000000
# 5 0.000000 0.000000 0.000000 0.000000 0.021785 0.000000
# 6 0.000000 0.000000 0.000000 0.000000 0.000000 0.213256
#
#
# Mechanical properties :
#
#
# Convention : Reuss Voigt Hill
#
# Bulk Modulus (GPa) = 21.30233 62.77428 42.03830
# Shear Modulus (GPa) = 9.43542 28.47784 18.95663
#
# Velocity S-wave (km/s) = 2.14481 3.72616 3.04010
# Velocity P-wave (km/s) = 4.06442 7.00840 5.72875
#
# Compressibility (1/GPa) = 0.04694323
#
# Stress axis : x y z
#
# Youngs Moduli (GPa) = 65.67194 24.15517 168.29749
#
# Poissons Ratio (x) = 0.01246 0.85686
# Poissons Ratio (y) = 0.03387 0.37116
# Poissons Ratio (z) = 0.33436 0.05327
#
# Static dielectric constant tensor:
#      x y z
#    x 1.689720 0.000000 0.000000 
#    y 0.000000 1.746810 0.000000 
#    z 0.000000 0.000000 1.804210 
# 
# From -- ./inp_files/17628.got.cif
#   From: 2010.05.17/outbox.cif.g08.bks.cpg/sg40_9_cif.got.tgz:17628.got - 2010.06.03 18:35:42.
