data_PCOD9363707
_publ_section_title
;
Structure prediction by ZEFSAII (Michael W. Deem and Ramdas Pophale) SiO2 
 PCOD9363707
Probable space group: A M A 2
;
_chemical_formula_sum "Si O2"
_cell_formula_units_Z 64
_cell_length_a 18.257449
_cell_length_b 7.670781
_cell_length_c 22.164243
_cell_angle_alpha 90.000000
_cell_angle_beta 90.000000
_cell_angle_gamma 90.000000
_cell_volume 3104.077694
_symmetry_space_group_name_H-M "A M A 2"
_symmetry_group_IT_number 40
_symmetry_cell_setting 'orthorhombic'
loop_
_space_group_symop_operation_xyz
x,y,z
-x,-y,z
1/2-x,y,z
1/2+x,-y,z
x,1/2+y,1/2+z
-x,1/2-y,1/2+z
1/2-x,1/2+y,1/2+z
1/2+x,1/2-y,1/2+z
loop_
_atom_site_type_symbol
_atom_site_label
_atom_site_fract_x
_atom_site_fract_y
_atom_site_fract_z
Si Si1 0.912729 0.033519 0.184650
Si Si2 0.412981 0.465428 0.814471
Si Si3 0.414208 0.045553 0.809752
Si Si4 0.414348 0.961253 0.443673
Si Si5 0.914405 0.458450 0.443768
Si Si6 0.831965 0.948527 0.061796
Si Si7 0.331254 0.966414 0.559782
Si Si8 0.161742 0.590396 0.192090
O O1 0.877049 0.969003 0.123119
O O2 0.886367 0.960706 0.250177
O O3 0.886195 0.233663 0.187898
O O4 0.000000 0.000000 0.181764
O O5 0.500000 0.500000 0.815654
O O6 0.404990 0.255670 0.813083
O O7 0.383312 0.527316 0.879234
O O8 0.393246 0.977141 0.876515
O O9 0.366778 0.991497 0.751841
O O10 0.500000 0.000000 0.800463
O O11 0.406409 0.751534 0.442858
O O12 0.379979 0.033414 0.504898
O O13 0.500000 0.000000 0.444931
O O14 0.869953 0.523747 0.501782
O O15 0.000000 0.500000 0.451847
O O16 0.750000 0.018940 0.070009
O O17 0.827148 0.741250 0.052253
O O18 0.250000 0.041000 0.553318
O O19 0.354346 0.998487 0.628456
O O20 0.250000 0.620872 0.196615
#
# Coordination Sequence:
#
# PCOD9363707 Si02
#       8
#     8   8   8   8   8   8   8   8
#     4  10  20  34  53  76 102 134 172 215 262 315
#     4   8  16  31  49  73  99 124 159 206 252 297
#     4   9  18  32  52  76 100 131 170 212 256 305
#     4   9  17  31  52  73  94 125 163 203 246 296
#     4   9  18  33  51  74 101 129 166 211 255 302
#     4  10  20  34  51  72 101 136 172 212 259 311
#     4   9  20  35  49  70 101 134 166 204 252 305
#     4  10  21  36  53  76 107 139 173 217 268 319
#
# _framework density 20.618040000000001
#
# number of rings (size 3 to 8) (size 9 to 14) (size 15 to 20)
#    0.000    2.750    0.000    0.750    0.000    7.000 
#    0.000    6.875    0.000    0.000    0.000   12.250 
#    0.000    0.000    0.000    0.000    0.000    0.000 
#
# Total GULP energy -178189.181737 kJ/mol
# GULP energy per Si atom -5568.411929 kJ/mol
# Density = 2.057111 g / cm^3
# Si number density = 20.618040 Si / 1000 Ang^3
#
#
#
# Elastic Constant Matrix: (Units=GPa)
#
#
# Indices 1 2 3 4 5 6 
#
# 1 77.7169 8.6983 99.6043 0.0000 0.0000 0.0000
# 2 8.6983 37.2659 13.8856 0.0000 0.0000 0.0000
# 3 99.6043 13.8856 255.6810 0.0000 0.0000 0.0000
# 4 0.0000 0.0000 0.0000 19.5274 0.0000 0.0000
# 5 0.0000 0.0000 0.0000 0.0000 31.5074 0.0000
# 6 0.0000 0.0000 0.0000 0.0000 0.0000 16.5602
#
#
#
# Elastic Compliance Matrix: (Units=1/GPa)
#
#
# Indices 1 2 3 4 5 6 
#
# 1 0.025894 -0.002333 -0.009961 0.000000 0.000000 0.000000
# 2 -0.002333 0.027599 -0.000590 0.000000 0.000000 0.000000
# 3 -0.009961 -0.000590 0.007824 0.000000 0.000000 0.000000
# 4 0.000000 0.000000 0.000000 0.051210 0.000000 0.000000
# 5 0.000000 0.000000 0.000000 0.000000 0.031739 0.000000
# 6 0.000000 0.000000 0.000000 0.000000 0.000000 0.060386
#
#
# Mechanical properties :
#
#
# Convention : Reuss Voigt Hill
#
# Bulk Modulus (GPa) = 28.12984 68.33780 48.23382
# Shear Modulus (GPa) = 20.63831 30.08405 25.36118
#
# Velocity S-wave (km/s) = 3.16726 3.82398 3.51101
# Velocity P-wave (km/s) = 5.20080 7.26042 6.31514
#
# Compressibility (1/GPa) = 0.03554944
#
# Stress axis : x y z
#
# Youngs Moduli (GPa) = 38.61833 36.23378 127.81864
#
# Poissons Ratio (x) = 0.08452 1.27319
# Poissons Ratio (y) = 0.09008 0.07543
# Poissons Ratio (z) = 0.38467 0.02138
#
# Static dielectric constant tensor:
#      x y z
#    x 1.706040 0.000000 0.000000 
#    y 0.000000 1.787960 0.000000 
#    z 0.000000 0.000000 1.820550 
# 
# From -- ./inp_files/24924.got.cif
#   From: 2010.05.17/outbox.cif.g08.bks.cpg/sg40_13_cif.got.tgz:24924.got - 2010.06.03 18:35:42.
