data_PCOD9363330
_publ_section_title
;
Structure prediction by ZEFSAII (Michael W. Deem and Ramdas Pophale) SiO2 
 PCOD9363330
Probable space group: A M A 2
;
_chemical_formula_sum "Si O2"
_cell_formula_units_Z 64
_cell_length_a 8.587193
_cell_length_b 17.912038
_cell_length_c 21.155810
_cell_angle_alpha 90.000000
_cell_angle_beta 90.000000
_cell_angle_gamma 90.000000
_cell_volume 3254.062453
_symmetry_space_group_name_H-M "A M A 2"
_symmetry_group_IT_number 40
_symmetry_cell_setting 'orthorhombic'
loop_
_space_group_symop_operation_xyz
x,y,z
-x,-y,z
1/2-x,y,z
1/2+x,-y,z
x,1/2+y,1/2+z
-x,1/2-y,1/2+z
1/2-x,1/2+y,1/2+z
1/2+x,1/2-y,1/2+z
loop_
_atom_site_type_symbol
_atom_site_label
_atom_site_fract_x
_atom_site_fract_y
_atom_site_fract_z
Si Si1 0.561616 0.123934 0.520000
Si Si2 0.065416 0.381664 0.882450
Si Si3 0.933369 0.216555 0.883430
Si Si4 0.562786 0.799921 0.012627
Si Si5 0.434474 0.078368 0.653418
Si Si6 0.063213 0.374003 0.745283
Si Si7 0.064035 0.077376 0.113013
Si Si8 0.065638 0.294013 0.242980
O O1 0.750000 0.117084 0.522796
O O2 0.505284 0.093785 0.451394
O O3 0.523732 0.212705 0.523329
O O4 0.487894 0.086606 0.580818
O O5 0.250000 0.395762 0.882758
O O6 0.003533 0.404900 0.813451
O O7 0.033986 0.292564 0.882805
O O8 0.750000 0.236061 0.887340
O O9 0.958072 0.178856 0.815446
O O10 0.985120 0.175266 0.946807
O O11 0.750000 0.804096 0.006413
O O12 0.514068 0.852232 0.070468
O O13 0.250000 0.078305 0.656836
O O14 0.500475 0.147621 0.693128
O O15 0.500000 0.000000 0.678321
O O16 0.250000 0.378494 0.745341
O O17 0.996911 0.413964 0.684098
O O18 0.012550 0.287351 0.739168
O O19 0.250000 0.075846 0.114106
O O20 0.000000 0.000000 0.086004
O O21 0.250000 0.284187 0.232315
#
# Coordination Sequence:
#
# PCOD9363330 Si02
#       8
#     8   8   8   8   8   8   8   8
#     4   9  17  34  58  82 108 138 172 216 267 321
#     4   8  16  31  53  80 110 139 170 212 264 315
#     4   9  17  29  52  83 110 134 169 217 264 311
#     4   9  19  35  56  79 107 142 177 216 266 317
#     4  12  25  39  55  77 106 143 183 225 269 318
#     4  10  19  34  58  86 110 139 180 223 266 317
#     4  11  23  38  54  76 108 147 185 225 271 319
#     4  10  20  36  57  83 112 142 176 218 266 318
#
# _framework density 19.667722999999999
#
# number of rings (size 3 to 8) (size 9 to 14) (size 15 to 20)
#    0.000    2.250    0.000    4.125    0.000    6.000 
#    0.000    1.250    0.000    1.500    0.000    0.000 
#    0.000    0.000    0.000    0.000    0.000    0.000 
#
# Total GULP energy -178540.734777 kJ/mol
# GULP energy per Si atom -5579.397962 kJ/mol
# Density = 1.962296 g / cm^3
# Si number density = 19.667723 Si / 1000 Ang^3
#
#
#
# Elastic Constant Matrix: (Units=GPa)
#
#
# Indices 1 2 3 4 5 6 
#
# 1 31.0575 11.5032 16.5854 0.0000 0.0000 0.0000
# 2 11.5032 59.8521 26.5669 0.0000 0.0000 0.0000
# 3 16.5854 26.5669 101.9816 0.0000 0.0000 0.0000
# 4 0.0000 0.0000 0.0000 -21.6496 0.0000 0.0000
# 5 0.0000 0.0000 0.0000 0.0000 25.1306 0.0000
# 6 0.0000 0.0000 0.0000 0.0000 0.0000 21.1504
#
#
#
# Elastic Compliance Matrix: (Units=1/GPa)
#
#
# Indices 1 2 3 4 5 6 
#
# 1 0.036516 -0.004955 -0.004648 0.000000 0.000000 0.000000
# 2 -0.004955 0.019565 -0.004291 0.000000 0.000000 0.000000
# 3 -0.004648 -0.004291 0.011679 0.000000 0.000000 0.000000
# 4 0.000000 0.000000 0.000000 -0.046190 0.000000 0.000000
# 5 0.000000 0.000000 0.000000 0.000000 0.039792 0.000000
# 6 0.000000 0.000000 0.000000 0.000000 0.000000 0.047280
#
#
# Mechanical properties :
#
#
# Convention : Reuss Voigt Hill
#
# Bulk Modulus (GPa) = 25.01727 33.57801 29.29764
# Shear Modulus (GPa) = 33.38815 14.14199 23.76507
#
# Velocity S-wave (km/s) = 4.12468 2.68441 3.47987
# Velocity P-wave (km/s) = 5.95244 5.16893 5.57447
#
# Compressibility (1/GPa) = 0.03997239
#
# Stress axis : x y z
#
# Youngs Moduli (GPa) = 27.38551 51.11219 85.62099
#
# Poissons Ratio (x) = 0.25326 0.39795
# Poissons Ratio (y) = 0.13570 0.36739
# Poissons Ratio (z) = 0.12728 0.21932
#
# Static dielectric constant tensor:
#      x y z
#    x 1.662910 0.000000 0.000000 
#    y 0.000000 1.659960 0.000000 
#    z 0.000000 0.000000 1.735790 
# 
# From -- ./inp_files/22427.got.cif
#   From: 2010.05.17/outbox.cif.g08.bks.cpg/sg40_12_cif.got.tgz:22427.got - 2010.06.03 18:35:42.
