data_PCOD9363042
_publ_section_title
;
Structure prediction by ZEFSAII (Michael W. Deem and Ramdas Pophale) SiO2 
 PCOD9363042
Probable space group: A M A 2
;
_chemical_formula_sum "Si O2"
_cell_formula_units_Z 48
_cell_length_a 8.008902
_cell_length_b 9.275946
_cell_length_c 33.135994
_cell_angle_alpha 90.000000
_cell_angle_beta 90.000000
_cell_angle_gamma 90.000000
_cell_volume 2461.677715
_symmetry_space_group_name_H-M "A M A 2"
_symmetry_group_IT_number 40
_symmetry_cell_setting 'orthorhombic'
loop_
_space_group_symop_operation_xyz
x,y,z
-x,-y,z
1/2-x,y,z
1/2+x,-y,z
x,1/2+y,1/2+z
-x,1/2-y,1/2+z
1/2-x,1/2+y,1/2+z
1/2+x,1/2-y,1/2+z
loop_
_atom_site_type_symbol
_atom_site_label
_atom_site_fract_x
_atom_site_fract_y
_atom_site_fract_z
Si Si1 0.050782 0.332667 0.723140
Si Si2 0.451790 0.832117 0.961052
Si Si3 0.448076 0.334424 0.303118
Si Si4 0.548402 0.169120 0.135499
Si Si5 0.548520 0.669092 0.548881
Si Si6 0.451980 0.666265 0.881758
O O1 0.250000 0.328505 0.721837
O O2 0.987412 0.277074 0.679220
O O3 0.000000 0.500000 0.727882
O O4 0.995218 0.241219 0.761295
O O5 0.250000 0.825557 0.961259
O O6 0.513337 0.742249 0.922786
O O7 0.500000 0.000000 0.956896
O O8 0.511196 0.776475 0.005161
O O9 0.500000 0.500000 0.303859
O O10 0.250000 0.328915 0.306162
O O11 0.516518 0.248742 0.341996
O O12 0.750000 0.179729 0.135303
O O13 0.487825 0.229639 0.092188
O O14 0.500000 0.000000 0.135463
O O15 0.500000 0.500000 0.548921
O O16 0.750000 0.679211 0.549016
O O17 0.500000 0.500000 0.880402
O O18 0.250000 0.675424 0.881948
#
# Coordination Sequence:
#
# PCOD9363042 Si02
#       6
#     8   8   8   8   8   8
#     4  10  19  32  51  76 105 135 169 207 248 293
#     4   9  17  30  49  74 101 129 162 200 242 287
#     4  11  23  38  55  75  99 128 164 205 251 301
#     4   8  14  24  41  67  97 129 162 198 239 281
#     4   8  13  23  41  66  96 127 159 196 237 280
#     4  10  22  37  53  74  99 128 162 200 243 292
#
# _framework density 19.498896999999999
#
# number of rings (size 3 to 8) (size 9 to 14) (size 15 to 20)
#    0.000    2.667    0.000    2.000    0.000    4.000 
#    0.000    0.000    0.000    1.000    0.000    2.333 
#    0.000    0.000    0.000    0.000    0.000    0.000 
#
# Total GULP energy -133695.913153 kJ/mol
# GULP energy per Si atom -5570.663048 kJ/mol
# Density = 1.945452 g / cm^3
# Si number density = 19.498897 Si / 1000 Ang^3
#
#
#
# Elastic Constant Matrix: (Units=GPa)
#
#
# Indices 1 2 3 4 5 6 
#
# 1 20.5205 3.1176 18.7647 0.0000 0.0000 0.0000
# 2 3.1176 81.6401 94.5098 0.0000 0.0000 0.0000
# 3 18.7647 94.5098 273.2470 0.0000 0.0000 0.0000
# 4 0.0000 0.0000 0.0000 22.4977 0.0000 0.0000
# 5 0.0000 0.0000 0.0000 0.0000 15.0771 0.0000
# 6 0.0000 0.0000 0.0000 0.0000 0.0000 23.4443
#
#
#
# Elastic Compliance Matrix: (Units=1/GPa)
#
#
# Indices 1 2 3 4 5 6 
#
# 1 0.052633 0.003626 -0.004869 0.000000 0.000000 0.000000
# 2 0.003626 0.020678 -0.007401 0.000000 0.000000 0.000000
# 3 -0.004869 -0.007401 0.006554 0.000000 0.000000 0.000000
# 4 0.000000 0.000000 0.000000 0.044449 0.000000 0.000000
# 5 0.000000 0.000000 0.000000 0.000000 0.066326 0.000000
# 6 0.000000 0.000000 0.000000 0.000000 0.000000 0.042654
#
#
# Mechanical properties :
#
#
# Convention : Reuss Voigt Hill
#
# Bulk Modulus (GPa) = 15.98005 67.57689 41.77847
# Shear Modulus (GPa) = 18.42021 29.47150 23.94585
#
# Velocity S-wave (km/s) = 3.07690 3.89195 3.50817
# Velocity P-wave (km/s) = 4.56467 7.41137 6.15486
#
# Compressibility (1/GPa) = 0.06257804
#
# Stress axis : x y z
#
# Youngs Moduli (GPa) = 18.99950 48.35988 152.58001
#
# Poissons Ratio (x) = -0.17537 0.74287
# Poissons Ratio (y) = -0.06890 1.12927
# Poissons Ratio (z) = 0.09250 0.35792
#
# Static dielectric constant tensor:
#      x y z
#    x 1.722770 0.000000 0.000000 
#    y 0.000000 1.622690 0.000000 
#    z 0.000000 0.000000 1.786390 
# 
# From -- ./inp_files/26147.got.cif
#   From: 2010.05.17/outbox.cif.g08.bks.cpg/sg40_14_cif.got.tgz:26147.got - 2010.06.03 18:35:42.
