data_PCOD9363028
_publ_section_title
;
Structure prediction by ZEFSAII (Michael W. Deem and Ramdas Pophale) SiO2 
 PCOD9363028
Probable space group: A M A 2
;
_chemical_formula_sum "Si O2"
_cell_formula_units_Z 56
_cell_length_a 8.539754
_cell_length_b 15.648702
_cell_length_c 19.706958
_cell_angle_alpha 90.000000
_cell_angle_beta 90.000000
_cell_angle_gamma 90.000000
_cell_volume 2633.560330
_symmetry_space_group_name_H-M "A M A 2"
_symmetry_group_IT_number 40
_symmetry_cell_setting 'orthorhombic'
loop_
_space_group_symop_operation_xyz
x,y,z
-x,-y,z
1/2-x,y,z
1/2+x,-y,z
x,1/2+y,1/2+z
-x,1/2-y,1/2+z
1/2-x,1/2+y,1/2+z
1/2+x,1/2-y,1/2+z
loop_
_atom_site_type_symbol
_atom_site_label
_atom_site_fract_x
_atom_site_fract_y
_atom_site_fract_z
Si Si1 0.932298 0.174183 0.359910
Si Si2 0.927183 0.878736 0.856615
Si Si3 0.431010 0.420792 0.218944
Si Si4 0.069438 0.237935 0.652558
Si Si5 0.427614 0.913311 0.989333
Si Si6 0.063414 0.096202 0.221731
Si Si7 0.567755 0.774341 0.495592
O O1 0.750000 0.150676 0.355026
O O2 0.947467 0.276534 0.349061
O O3 0.021748 0.126511 0.299102
O O4 0.989476 0.166847 0.438335
O O5 0.750000 0.895206 0.881572
O O6 0.956452 0.917249 0.783835
O O7 0.056040 0.915412 0.907865
O O8 0.500000 0.500000 0.175938
O O9 0.250000 0.432990 0.234696
O O10 0.454038 0.327651 0.188072
O O11 0.250000 0.230165 0.676858
O O12 0.067859 0.205795 0.574740
O O13 0.015526 0.334286 0.670768
O O14 0.250000 0.907966 0.013300
O O15 0.507377 0.821248 0.999417
O O16 0.500000 0.000000 0.017292
O O17 0.250000 0.097710 0.212702
O O18 0.000000 0.000000 0.211461
O O19 0.750000 0.765471 0.473618
#
# Coordination Sequence:
#
# PCOD9363028 Si02
#       7
#     8   8   8   8   8   8   8
#     4  10  20  37  63  92 124 160 207 261 314 375
#     4  10  19  33  55  83 117 153 189 239 295 356
#     4  12  24  38  59  87 119 158 199 249 307 371
#     4  11  23  43  65  92 129 167 212 267 325 389
#     4  10  19  32  50  78 114 151 194 240 294 360
#     4  12  25  42  67  97 132 174 223 276 332 392
#     4   9  21  39  61  85 119 165 208 258 321 385
#
# _framework density 21.263991000000001
#
# number of rings (size 3 to 8) (size 9 to 14) (size 15 to 20)
#    0.000    1.429    1.429    4.714    0.000    3.429 
#    0.000    2.143    0.000    3.429    0.000    0.000 
#    0.000    0.000    0.000    0.000    0.000    0.000 
#
# Total GULP energy -156124.314238 kJ/mol
# GULP energy per Si atom -5575.868366 kJ/mol
# Density = 2.121559 g / cm^3
# Si number density = 21.263991 Si / 1000 Ang^3
#
#
#
# Elastic Constant Matrix: (Units=GPa)
#
#
# Indices 1 2 3 4 5 6 
#
# 1 104.3998 15.6230 8.1842 0.0000 0.0000 0.0000
# 2 15.6230 67.2617 -3.3122 0.0000 0.0000 0.0000
# 3 8.1842 -3.3122 52.9371 0.0000 0.0000 0.0000
# 4 0.0000 0.0000 0.0000 3.9935 0.0000 0.0000
# 5 0.0000 0.0000 0.0000 0.0000 20.1508 0.0000
# 6 0.0000 0.0000 0.0000 0.0000 0.0000 33.2989
#
#
#
# Elastic Compliance Matrix: (Units=1/GPa)
#
#
# Indices 1 2 3 4 5 6 
#
# 1 0.010075 -0.002424 -0.001709 0.000000 0.000000 0.000000
# 2 -0.002424 0.015497 0.001344 0.000000 0.000000 0.000000
# 3 -0.001709 0.001344 0.019239 0.000000 0.000000 0.000000
# 4 0.000000 0.000000 0.000000 0.250407 0.000000 0.000000
# 5 0.000000 0.000000 0.000000 0.000000 0.049626 0.000000
# 6 0.000000 0.000000 0.000000 0.000000 0.000000 0.030031
#
#
# Mechanical properties :
#
#
# Convention : Reuss Voigt Hill
#
# Bulk Modulus (GPa) = 25.48936 29.50983 27.49959
# Shear Modulus (GPa) = 12.70549 25.09555 18.90052
#
# Velocity S-wave (km/s) = 2.44706 3.43912 2.98459
# Velocity P-wave (km/s) = 4.47183 5.44775 4.98374
#
# Compressibility (1/GPa) = 0.03923206
#
# Stress axis : x y z
#
# Youngs Moduli (GPa) = 99.25194 64.53014 51.97851
#
# Poissons Ratio (x) = 0.15645 0.08885
# Poissons Ratio (y) = 0.24063 -0.06988
# Poissons Ratio (z) = 0.16966 -0.08676
#
# Static dielectric constant tensor:
#      x y z
#    x 1.745000 0.000000 0.000000 
#    y 0.000000 1.851180 0.000000 
#    z 0.000000 0.000000 1.849840 
# 
# From -- ./inp_files/22169.got.cif
#   From: 2010.05.17/outbox.cif.g08.bks.cpg/sg40_12_cif.got.tgz:22169.got - 2010.06.03 18:35:42.
