data_PCOD9363813
_publ_section_title
;
Structure prediction by ZEFSAII (Michael W. Deem and Ramdas Pophale) SiO2 
 PCOD9363813
Probable space group: A M A 2
;
_chemical_formula_sum "Si O2"
_cell_formula_units_Z 64
_cell_length_a 8.768651
_cell_length_b 23.678024
_cell_length_c 19.367000
_cell_angle_alpha 90.000000
_cell_angle_beta 90.000000
_cell_angle_gamma 90.000000
_cell_volume 4021.060376
_symmetry_space_group_name_H-M "A M A 2"
_symmetry_group_IT_number 40
_symmetry_cell_setting 'orthorhombic'
loop_
_space_group_symop_operation_xyz
x,y,z
-x,-y,z
1/2-x,y,z
1/2+x,-y,z
x,1/2+y,1/2+z
-x,1/2-y,1/2+z
1/2-x,1/2+y,1/2+z
1/2+x,1/2-y,1/2+z
loop_
_atom_site_type_symbol
_atom_site_label
_atom_site_fract_x
_atom_site_fract_y
_atom_site_fract_z
Si Si1 0.932116 0.840683 0.197770
Si Si2 0.567484 0.665508 0.245888
Si Si3 0.932377 0.378764 0.471528
Si Si4 0.432095 0.773959 0.322591
Si Si5 0.930831 0.228331 0.607823
Si Si6 0.067722 0.437730 0.607114
Si Si7 0.431932 0.562357 0.324158
Si Si8 0.930911 0.747291 0.465169
O O1 0.750000 0.847394 0.202760
O O2 0.961013 0.788928 0.144275
O O3 0.999976 0.820214 0.270393
O O4 0.009181 0.896093 0.167012
O O5 0.750000 0.669785 0.255278
O O6 0.488934 0.713535 0.292852
O O7 0.533965 0.682225 0.166649
O O8 0.507235 0.605230 0.269870
O O9 0.750000 0.374914 0.481766
O O10 0.962265 0.411789 0.400295
O O11 0.006007 0.411594 0.535447
O O12 0.000171 0.316005 0.466959
O O13 0.250000 0.775386 0.322107
O O14 0.495846 0.778443 0.399714
O O15 0.750000 0.226122 0.592540
O O16 0.023932 0.224532 0.537684
O O17 0.250000 0.439536 0.605808
O O18 0.000000 0.500000 0.615613
O O19 0.500000 0.500000 0.319303
O O20 0.250000 0.561063 0.314607
O O21 0.750000 0.744091 0.457136
#
# Coordination Sequence:
#
# PCOD9363813 Si02
#       8
#     8   8   8   8   8   8   8   8
#     4  10  20  36  55  76 104 136 175 221 266 312
#     4  10  20  35  54  75 102 135 175 219 264 311
#     4  11  22  36  51  73 106 142 182 223 259 305
#     4  11  21  34  53  76 106 138 174 216 264 317
#     4   9  19  34  53  75 104 136 169 214 267 314
#     4  12  24  37  54  76 104 143 184 222 263 311
#     4  11  23  36  53  74 103 141 181 221 261 308
#     4  12  22  32  52  79 107 141 178 215 261 317
#
# _framework density 15.9162
#
# number of rings (size 3 to 8) (size 9 to 14) (size 15 to 20)
#    0.000    1.250    2.500    6.000    0.000    5.000 
#    0.000    0.000    0.000    0.000    0.000    0.875 
#    0.000    4.000    0.000    0.000    0.000    0.000 
#
# Total GULP energy -178847.852022 kJ/mol
# GULP energy per Si atom -5588.995376 kJ/mol
# Density = 1.587997 g / cm^3
# Si number density = 15.916200 Si / 1000 Ang^3
#
#
#
# Elastic Constant Matrix: (Units=GPa)
#
#
# Indices 1 2 3 4 5 6 
#
# 1 115.5453 52.4227 75.8598 0.0000 0.0000 0.0000
# 2 52.4227 90.4442 62.8457 0.0000 0.0000 0.0000
# 3 75.8598 62.8457 123.5872 0.0000 0.0000 0.0000
# 4 0.0000 0.0000 0.0000 17.8824 0.0000 0.0000
# 5 0.0000 0.0000 0.0000 0.0000 19.5612 0.0000
# 6 0.0000 0.0000 0.0000 0.0000 0.0000 23.9617
#
#
#
# Elastic Compliance Matrix: (Units=1/GPa)
#
#
# Indices 1 2 3 4 5 6 
#
# 1 0.015220 -0.003603 -0.007510 0.000000 0.000000 0.000000
# 2 -0.003603 0.017951 -0.006917 0.000000 0.000000 0.000000
# 3 -0.007510 -0.006917 0.016218 0.000000 0.000000 0.000000
# 4 0.000000 0.000000 0.000000 0.055921 0.000000 0.000000
# 5 0.000000 0.000000 0.000000 0.000000 0.051121 0.000000
# 6 0.000000 0.000000 0.000000 0.000000 0.000000 0.041733
#
#
# Mechanical properties :
#
#
# Convention : Reuss Voigt Hill
#
# Bulk Modulus (GPa) = 75.02038 79.09255 77.05646
# Shear Modulus (GPa) = 20.94960 21.51097 21.23028
#
# Velocity S-wave (km/s) = 3.63194 3.68028 3.65619
# Velocity P-wave (km/s) = 8.05139 8.23774 8.14510
#
# Compressibility (1/GPa) = 0.01332971
#
# Stress axis : x y z
#
# Youngs Moduli (GPa) = 65.70299 55.70678 61.65870
#
# Poissons Ratio (x) = 0.20073 0.46305
# Poissons Ratio (y) = 0.23676 0.42647
# Poissons Ratio (z) = 0.49342 0.38530
#
# Static dielectric constant tensor:
#      x y z
#    x 1.527640 0.000000 0.000000 
#    y 0.000000 1.504200 0.000000 
#    z 0.000000 0.000000 1.532280 
# 
# From -- ./inp_files/19571.got.cif
#   From: 2010.05.17/outbox.cif.g08.bks.cpg/sg40_10_cif.got.tgz:19571.got - 2010.06.03 18:35:42.
