data_PCOD9363554
_publ_section_title
;
Structure prediction by ZEFSAII (Michael W. Deem and Ramdas Pophale) SiO2 
 PCOD9363554
Probable space group: A M A 2
;
_chemical_formula_sum "Si O2"
_cell_formula_units_Z 40
_cell_length_a 18.303261
_cell_length_b 5.491441
_cell_length_c 18.816788
_cell_angle_alpha 90.000000
_cell_angle_beta 90.000000
_cell_angle_gamma 90.000000
_cell_volume 1891.299408
_symmetry_space_group_name_H-M "A M A 2"
_symmetry_group_IT_number 40
_symmetry_cell_setting 'orthorhombic'
loop_
_space_group_symop_operation_xyz
x,y,z
-x,-y,z
1/2-x,y,z
1/2+x,-y,z
x,1/2+y,1/2+z
-x,1/2-y,1/2+z
1/2-x,1/2+y,1/2+z
1/2+x,1/2-y,1/2+z
loop_
_atom_site_type_symbol
_atom_site_label
_atom_site_fract_x
_atom_site_fract_y
_atom_site_fract_z
Si Si1 0.662313 0.249902 0.497450
Si Si2 0.250000 0.503298 0.810710
Si Si3 0.542102 0.750005 0.878312
Si Si4 0.838490 0.749907 0.580865
Si Si5 0.873530 0.750029 0.738754
Si Si6 0.750000 0.003424 0.810690
O O1 0.750000 0.249886 0.493430
O O2 0.615617 0.249964 0.425080
O O3 0.644089 0.501966 0.538553
O O4 0.644083 0.997794 0.538527
O O5 0.178938 0.476572 0.761428
O O6 0.250000 0.249920 0.851197
O O7 0.250000 0.749954 0.853571
O O8 0.500000 0.500000 0.894471
O O9 0.560962 0.750043 0.794138
O O10 0.500000 0.000000 0.894488
O O11 0.750000 0.749924 0.595998
O O12 0.881814 0.749971 0.655292
O O13 0.821062 0.976654 0.761409
#
# Coordination Sequence:
#
# PCOD9363554 Si02
#       6
#     8   4   8   8   8   4
#     4  10  24  41  67  95 128 168 215 257 319 382
#     4   8  18  30  58  92 128 148 194 244 334 348
#     4  12  28  47  63  90 133 175 217 260 314 378
#     4  10  19  38  66 104 126 154 209 276 318 372
#     4   9  22  36  67  93 129 161 205 265 320 372
#     4   8  18  30  58  92 128 148 194 244 334 348
#
# _framework density 21.149481000000002
#
# number of rings (size 3 to 8) (size 9 to 14) (size 15 to 20)
#    1.200    0.800    2.000    1.200    8.400    0.000 
#    0.000    6.000    0.000    0.000    0.000    0.000 
#    0.000    0.000    0.000    0.000    0.000    0.000 
#
# Total GULP energy -111357.879097 kJ/mol
# GULP energy per Si atom -5567.893955 kJ/mol
# Density = 2.110134 g / cm^3
# Si number density = 21.149481 Si / 1000 Ang^3
#
#
#
# Elastic Constant Matrix: (Units=GPa)
#
#
# Indices 1 2 3 4 5 6 
#
# 1 72.5771 42.8924 36.6025 0.0000 0.0000 0.0000
# 2 42.8924 217.9556 58.3724 0.0000 0.0000 0.0000
# 3 36.6025 58.3724 132.1956 0.0000 0.0000 0.0000
# 4 0.0000 0.0000 0.0000 -334.9645 0.0000 0.0000
# 5 0.0000 0.0000 0.0000 0.0000 22.0870 0.0000
# 6 0.0000 0.0000 0.0000 0.0000 0.0000 -30.8691
#
#
#
# Elastic Compliance Matrix: (Units=1/GPa)
#
#
# Indices 1 2 3 4 5 6 
#
# 1 0.017029 -0.002368 -0.003669 0.000000 0.000000 0.000000
# 2 -0.002368 0.005533 -0.001787 0.000000 0.000000 0.000000
# 3 -0.003669 -0.001787 0.009370 0.000000 0.000000 0.000000
# 4 0.000000 0.000000 0.000000 -0.002985 0.000000 0.000000
# 5 0.000000 0.000000 0.000000 0.000000 0.045276 0.000000
# 6 0.000000 0.000000 0.000000 0.000000 0.000000 -0.032395
#
#
# Mechanical properties :
#
#
# Convention : Reuss Voigt Hill
#
# Bulk Modulus (GPa) = 61.41981 77.60699 69.51340
# Shear Modulus (GPa) = 79.48715 -49.75858 14.86428
#
# Velocity S-wave (km/s) = 6.13719 -4.85574 2.65395
# Velocity P-wave (km/s) = 8.90640 2.31011 6.50617
#
# Compressibility (1/GPa) = 0.01628139
#
# Stress axis : x y z
#
# Youngs Moduli (GPa) = 58.72473 180.73808 106.72754
#
# Poissons Ratio (x) = 0.42808 0.39159
# Poissons Ratio (y) = 0.13909 0.19076
# Poissons Ratio (z) = 0.21547 0.32303
#
# Static dielectric constant tensor:
#      x y z
#    x 1.754710 0.000000 0.000000 
#    y 0.000000 5.096830 0.000000 
#    z 0.000000 0.000000 1.747780 
# 
# From -- ./inp_files/20927.got.cif
#   From: 2010.05.17/outbox.cif.g08.bks.cpg/sg40_11_cif.got.tgz:20927.got - 2010.06.03 18:35:42.
