data_PCOD9363832
_publ_section_title
;
Structure prediction by ZEFSAII (Michael W. Deem and Ramdas Pophale) SiO2 
 PCOD9363832
Probable space group: A M A 2
;
_chemical_formula_sum "Si O2"
_cell_formula_units_Z 64
_cell_length_a 8.788538
_cell_length_b 20.810713
_cell_length_c 20.030054
_cell_angle_alpha 90.000000
_cell_angle_beta 90.000000
_cell_angle_gamma 90.000000
_cell_volume 3663.411589
_symmetry_space_group_name_H-M "A M A 2"
_symmetry_group_IT_number 40
_symmetry_cell_setting 'orthorhombic'
loop_
_space_group_symop_operation_xyz
x,y,z
-x,-y,z
1/2-x,y,z
1/2+x,-y,z
x,1/2+y,1/2+z
-x,1/2-y,1/2+z
1/2-x,1/2+y,1/2+z
1/2+x,1/2-y,1/2+z
loop_
_atom_site_type_symbol
_atom_site_label
_atom_site_fract_x
_atom_site_fract_y
_atom_site_fract_z
Si Si1 0.067102 0.930204 0.134570
Si Si2 0.932961 0.569682 0.134832
Si Si3 0.068204 0.175461 0.883156
Si Si4 0.434087 0.322202 0.875757
Si Si5 0.068853 0.431090 0.478931
Si Si6 0.432791 0.931244 0.479833
Si Si7 0.068064 0.179383 0.229079
Si Si8 0.567344 0.819525 0.727320
O O1 0.250000 0.931221 0.140681
O O2 0.998086 0.874542 0.180120
O O3 0.026843 0.919031 0.056535
O O4 0.000000 0.000000 0.153078
O O5 0.750000 0.568553 0.140061
O O6 0.000000 0.500000 0.153514
O O7 0.001155 0.625395 0.180404
O O8 0.975262 0.581084 0.057020
O O9 0.250000 0.168750 0.890391
O O10 0.027793 0.249639 0.898161
O O11 0.030694 0.165525 0.804978
O O12 0.989221 0.125000 0.931231
O O13 0.250000 0.324437 0.867048
O O14 0.480305 0.374623 0.930278
O O15 0.510611 0.334087 0.804359
O O16 0.250000 0.435253 0.475399
O O17 0.000000 0.500000 0.459413
O O18 0.250000 0.935173 0.477507
O O19 0.500000 0.000000 0.459890
O O20 0.250000 0.179926 0.226603
O O21 0.003473 0.249969 0.211293
O O22 0.750000 0.815745 0.721548
#
# Coordination Sequence:
#
# PCOD9363832 Si02
#       8
#     8   8   8   8   8   8   8   8
#     4  10  21  38  57  80 109 142 179 221 267 317
#     4  10  20  35  55  81 110 143 182 224 268 318
#     4   9  19  35  55  77 105 140 176 216 267 318
#     4   9  19  37  56  76 107 144 178 219 266 315
#     4  10  21  36  56  80 107 138 175 218 264 315
#     4   9  19  35  55  79 108 141 178 218 264 314
#     4  11  22  36  56  82 109 141 179 221 267 320
#     4  10  21  38  57  79 108 143 180 223 270 317
#
# _framework density 17.470054000000001
#
# number of rings (size 3 to 8) (size 9 to 14) (size 15 to 20)
#    0.000    2.250    0.000    3.375    0.000    7.000 
#    0.000    2.500    0.000    0.000    0.000    0.000 
#    0.000    0.000    0.000    0.000    0.000    0.000 
#
# Total GULP energy -178640.884880 kJ/mol
# GULP energy per Si atom -5582.527652 kJ/mol
# Density = 1.743029 g / cm^3
# Si number density = 17.470054 Si / 1000 Ang^3
#
#
#
# Elastic Constant Matrix: (Units=GPa)
#
#
# Indices 1 2 3 4 5 6 
#
# 1 64.2413 70.2598 53.4696 0.0000 0.0000 0.0000
# 2 70.2598 192.8413 127.3502 0.0000 0.0000 0.0000
# 3 53.4696 127.3502 100.8535 0.0000 0.0000 0.0000
# 4 0.0000 0.0000 0.0000 43.5054 0.0000 0.0000
# 5 0.0000 0.0000 0.0000 0.0000 -80.5835 0.0000
# 6 0.0000 0.0000 0.0000 0.0000 0.0000 36.0151
#
#
#
# Elastic Compliance Matrix: (Units=1/GPa)
#
#
# Indices 1 2 3 4 5 6 
#
# 1 0.028044 -0.002401 -0.011836 0.000000 0.000000 0.000000
# 2 -0.002401 0.031423 -0.038406 0.000000 0.000000 0.000000
# 3 -0.011836 -0.038406 0.064687 0.000000 0.000000 0.000000
# 4 0.000000 0.000000 0.000000 0.022986 0.000000 0.000000
# 5 0.000000 0.000000 0.000000 0.000000 -0.012409 0.000000
# 6 0.000000 0.000000 0.000000 0.000000 0.000000 0.027766
#
#
# Mechanical properties :
#
#
# Convention : Reuss Voigt Hill
#
# Bulk Modulus (GPa) = 53.00140 95.56615 74.28378
# Shear Modulus (GPa) = 18.24343 6.91117 12.57730
#
# Velocity S-wave (km/s) = 3.23502 1.99113 2.68607
# Velocity P-wave (km/s) = 6.66019 7.75292 7.22723
#
# Compressibility (1/GPa) = 0.01886743
#
# Stress axis : x y z
#
# Youngs Moduli (GPa) = 35.65855 31.82361 15.45913
#
# Poissons Ratio (x) = 0.07641 0.18298
# Poissons Ratio (y) = 0.08561 0.59372
# Poissons Ratio (z) = 0.42206 1.22222
#
# Static dielectric constant tensor:
#      x y z
#    x 1.599040 0.000000 0.000000 
#    y 0.000000 1.563640 0.000000 
#    z 0.000000 0.000000 1.579210 
# 
# From -- ./inp_files/19585.got.cif
#   From: 2010.05.17/outbox.cif.g08.bks.cpg/sg40_10_cif.got.tgz:19585.got - 2010.06.03 18:35:42.
