data_PCOD9363094
_publ_section_title
;
Structure prediction by ZEFSAII (Michael W. Deem and Ramdas Pophale) SiO2 
 PCOD9363094
Probable space group: A M A 2
;
_chemical_formula_sum "Si O2"
_cell_formula_units_Z 64
_cell_length_a 8.044573
_cell_length_b 33.286861
_cell_length_c 12.201892
_cell_angle_alpha 90.000000
_cell_angle_beta 90.000000
_cell_angle_gamma 90.000000
_cell_volume 3267.405353
_symmetry_space_group_name_H-M "A M A 2"
_symmetry_group_IT_number 40
_symmetry_cell_setting 'orthorhombic'
loop_
_space_group_symop_operation_xyz
x,y,z
-x,-y,z
1/2-x,y,z
1/2+x,-y,z
x,1/2+y,1/2+z
-x,1/2-y,1/2+z
1/2-x,1/2+y,1/2+z
1/2+x,1/2-y,1/2+z
loop_
_atom_site_type_symbol
_atom_site_label
_atom_site_fract_x
_atom_site_fract_y
_atom_site_fract_z
Si Si1 0.951186 0.046924 0.978400
Si Si2 0.946391 0.120817 0.122453
Si Si3 0.945671 0.396016 0.054467
Si Si4 0.948231 0.046017 0.734959
Si Si5 0.052731 0.227371 0.497115
Si Si6 0.944602 0.815617 0.945765
Si Si7 0.952377 0.821530 0.701212
Si Si8 0.444306 0.349545 0.856028
O O1 0.750000 0.047778 0.978112
O O2 0.005398 0.061281 0.855754
O O3 0.011888 0.079240 0.068459
O O4 0.000000 0.000000 0.995119
O O5 0.750000 0.113994 0.140883
O O6 0.015600 0.136624 0.238749
O O7 0.968503 0.156291 0.034434
O O8 0.750000 0.390797 0.033589
O O9 0.003104 0.361548 0.138519
O O10 0.976067 0.435274 0.125414
O O11 0.035125 0.386490 0.940930
O O12 0.750000 0.050734 0.729410
O O13 0.000000 0.000000 0.737595
O O14 0.250000 0.234802 0.498843
O O15 0.997967 0.213888 0.619045
O O16 0.963281 0.268347 0.467393
O O17 0.021743 0.189853 0.414724
O O18 0.750000 0.826494 0.947293
O O19 0.015259 0.821572 0.823877
O O20 0.750000 0.820561 0.705867
O O21 0.250000 0.339919 0.842404
#
# Coordination Sequence:
#
# PCOD9363094 Si02
#       8
#     8   8   8   8   8   8   8   8
#     4   9  19  36  58  85 116 150 187 231 285 340
#     4  10  22  39  57  81 114 152 189 234 287 338
#     4  10  19  35  57  79 106 142 182 226 277 330
#     4  10  19  32  54  84 115 144 179 226 278 337
#     4  10  21  38  56  77 108 145 183 229 285 334
#     4  11  22  35  55  83 109 140 184 229 277 337
#     4   8  18  35  53  73 102 137 172 217 272 326
#     4  10  21  38  58  78 108 150 191 232 280 336
#
# _framework density 19.587406000000001
#
# number of rings (size 3 to 8) (size 9 to 14) (size 15 to 20)
#    0.000    2.250    0.000    3.375    1.750    2.000 
#    0.000    6.875    0.000    1.500    0.000    0.000 
#    0.000    0.000    0.000    0.000    0.000    0.000 
#
# Total GULP energy -178437.451462 kJ/mol
# GULP energy per Si atom -5576.170358 kJ/mol
# Density = 1.954282 g / cm^3
# Si number density = 19.587406 Si / 1000 Ang^3
#
#
#
# Elastic Constant Matrix: (Units=GPa)
#
#
# Indices 1 2 3 4 5 6 
#
# 1 16.8326 -11.1604 -8.5300 0.0000 0.0000 0.0000
# 2 -11.1604 61.5269 47.9688 0.0000 0.0000 0.0000
# 3 -8.5300 47.9688 152.8319 0.0000 0.0000 0.0000
# 4 0.0000 0.0000 0.0000 18.5349 0.0000 0.0000
# 5 0.0000 0.0000 0.0000 0.0000 5.1318 0.0000
# 6 0.0000 0.0000 0.0000 0.0000 0.0000 24.9988
#
#
#
# Elastic Compliance Matrix: (Units=1/GPa)
#
#
# Indices 1 2 3 4 5 6 
#
# 1 0.067531 0.012327 -0.000100 0.000000 0.000000 0.000000
# 2 0.012327 0.023769 -0.006772 0.000000 0.000000 0.000000
# 3 -0.000100 -0.006772 0.008663 0.000000 0.000000 0.000000
# 4 0.000000 0.000000 0.000000 0.053952 0.000000 0.000000
# 5 0.000000 0.000000 0.000000 0.000000 0.194864 0.000000
# 6 0.000000 0.000000 0.000000 0.000000 0.000000 0.040002
#
#
# Mechanical properties :
#
#
# Convention : Reuss Voigt Hill
#
# Bulk Modulus (GPa) = 9.01928 31.97202 20.49565
# Shear Modulus (GPa) = 12.05316 23.26063 17.65690
#
# Velocity S-wave (km/s) = 2.48332 3.44979 3.00566
# Velocity P-wave (km/s) = 3.58290 5.67682 4.74676
#
# Compressibility (1/GPa) = 0.11087364
#
# Stress axis : x y z
#
# Youngs Moduli (GPa) = 14.80798 42.07148 115.43158
#
# Poissons Ratio (x) = -0.51864 0.01155
# Poissons Ratio (y) = -0.18255 0.78173
# Poissons Ratio (z) = 0.00148 0.28492
#
# Static dielectric constant tensor:
#      x y z
#    x 1.722040 0.000000 0.000000 
#    y 0.000000 1.691640 0.000000 
#    z 0.000000 0.000000 1.722920 
# 
# From -- ./inp_files/10596.got.cif
#   From: 2010.05.17/outbox.cif.g08.bks.cpg/sg40_6_cif.got.tgz:10596.got - 2010.06.03 18:35:42.
