data_PCOD9363266
_publ_section_title
;
Structure prediction by ZEFSAII (Michael W. Deem and Ramdas Pophale) SiO2 
 PCOD9363266
Probable space group: A M A 2
;
_chemical_formula_sum "Si O2"
_cell_formula_units_Z 64
_cell_length_a 8.573358
_cell_length_b 25.663289
_cell_length_c 15.412440
_cell_angle_alpha 90.000000
_cell_angle_beta 90.000000
_cell_angle_gamma 90.000000
_cell_volume 3391.053742
_symmetry_space_group_name_H-M "A M A 2"
_symmetry_group_IT_number 40
_symmetry_cell_setting 'orthorhombic'
loop_
_space_group_symop_operation_xyz
x,y,z
-x,-y,z
1/2-x,y,z
1/2+x,-y,z
x,1/2+y,1/2+z
-x,1/2-y,1/2+z
1/2-x,1/2+y,1/2+z
1/2+x,1/2-y,1/2+z
loop_
_atom_site_type_symbol
_atom_site_label
_atom_site_fract_x
_atom_site_fract_y
_atom_site_fract_z
Si Si1 0.561663 0.167042 0.934830
Si Si2 0.435418 0.608555 0.925350
Si Si3 0.937741 0.150961 0.130881
Si Si4 0.064027 0.762596 0.655504
Si Si5 0.437314 0.943042 0.253437
Si Si6 0.935331 0.219892 0.451184
Si Si7 0.440154 0.865826 0.753584
Si Si8 0.062335 0.941504 0.601462
O O1 0.750000 0.167885 0.937001
O O2 0.503941 0.225776 0.917870
O O3 0.511687 0.131574 0.853876
O O4 0.506386 0.150378 0.030591
O O5 0.250000 0.604463 0.926141
O O6 0.503822 0.573704 0.848240
O O7 0.486639 0.668463 0.912925
O O8 0.502630 0.588915 0.016907
O O9 0.750000 0.149861 0.129712
O O10 0.991689 0.101722 0.186527
O O11 0.988792 0.206373 0.170275
O O12 0.250000 0.757242 0.666385
O O13 0.035566 0.778659 0.555248
O O14 0.008615 0.810064 0.714878
O O15 0.250000 0.943973 0.253669
O O16 0.500000 0.000000 0.230813
O O17 0.750000 0.217722 0.437196
O O18 0.250000 0.865732 0.751486
O O19 0.490524 0.910936 0.688048
O O20 0.250000 0.941689 0.599210
O O21 0.000000 0.000000 0.600164
#
# Coordination Sequence:
#
# PCOD9363266 Si02
#       8
#     8   8   8   8   8   8   8   8
#     4   9  18  35  58  85 115 151 193 233 280 336
#     4  12  24  38  58  85 113 150 191 233 283 342
#     4   9  20  37  57  83 114 146 186 240 287 329
#     4   9  17  32  54  81 113 151 187 222 274 337
#     4  11  24  42  60  82 112 148 192 240 290 339
#     4  10  19  34  54  82 119 154 186 228 280 334
#     4   9  18  34  57  83 115 153 189 230 277 333
#     4  11  22  40  60  83 116 154 192 233 283 336
#
# _framework density 18.873187999999999
#
# number of rings (size 3 to 8) (size 9 to 14) (size 15 to 20)
#    0.000    2.000    1.250    2.625    1.750    1.500 
#    0.000    1.875    0.000    0.000    0.000    0.000 
#    0.000    0.000    0.000    0.000    0.000    0.000 
#
# Total GULP energy -178706.817064 kJ/mol
# GULP energy per Si atom -5584.588033 kJ/mol
# Density = 1.883023 g / cm^3
# Si number density = 18.873188 Si / 1000 Ang^3
#
#
#
# Elastic Constant Matrix: (Units=GPa)
#
#
# Indices 1 2 3 4 5 6 
#
# 1 35.6764 18.0780 11.1657 0.0000 0.0000 0.0000
# 2 18.0780 103.3294 33.5639 0.0000 0.0000 0.0000
# 3 11.1657 33.5639 62.5575 0.0000 0.0000 0.0000
# 4 0.0000 0.0000 0.0000 30.2875 0.0000 0.0000
# 5 0.0000 0.0000 0.0000 0.0000 75.7616 0.0000
# 6 0.0000 0.0000 0.0000 0.0000 0.0000 25.2171
#
#
#
# Elastic Compliance Matrix: (Units=1/GPa)
#
#
# Indices 1 2 3 4 5 6 
#
# 1 0.031278 -0.004431 -0.003205 0.000000 0.000000 0.000000
# 2 -0.004431 0.012348 -0.005834 0.000000 0.000000 0.000000
# 3 -0.003205 -0.005834 0.019688 0.000000 0.000000 0.000000
# 4 0.000000 0.000000 0.000000 0.033017 0.000000 0.000000
# 5 0.000000 0.000000 0.000000 0.000000 0.013199 0.000000
# 6 0.000000 0.000000 0.000000 0.000000 0.000000 0.039656
#
#
# Mechanical properties :
#
#
# Convention : Reuss Voigt Hill
#
# Bulk Modulus (GPa) = 27.49317 36.35318 31.92317
# Shear Modulus (GPa) = 26.56020 35.50362 31.03191
#
# Velocity S-wave (km/s) = 3.75547 4.34195 4.05931
# Velocity P-wave (km/s) = 5.77959 6.66636 6.23875
#
# Compressibility (1/GPa) = 0.03637267
#
# Stress axis : x y z
#
# Youngs Moduli (GPa) = 31.97103 80.98380 50.79322
#
# Poissons Ratio (x) = 0.35885 0.16281
# Poissons Ratio (y) = 0.14167 0.29634
# Poissons Ratio (z) = 0.10248 0.47248
#
# Static dielectric constant tensor:
#      x y z
#    x 1.625860 0.000000 0.000000 
#    y 0.000000 1.623100 0.000000 
#    z 0.000000 0.000000 1.680060 
# 
# From -- ./inp_files/15635.got.cif
#   From: 2010.05.17/outbox.cif.g08.bks.cpg/sg40_8_cif.got.tgz:15635.got - 2010.06.03 18:35:42.
