data_PCOD9363635
_publ_section_title
;
Structure prediction by ZEFSAII (Michael W. Deem and Ramdas Pophale) SiO2 
 PCOD9363635
Probable space group: A M A 2
;
_chemical_formula_sum "Si O2"
_cell_formula_units_Z 64
_cell_length_a 8.950893
_cell_length_b 23.924730
_cell_length_c 19.414464
_cell_angle_alpha 90.000000
_cell_angle_beta 90.000000
_cell_angle_gamma 90.000000
_cell_volume 4157.562779
_symmetry_space_group_name_H-M "A M A 2"
_symmetry_group_IT_number 40
_symmetry_cell_setting 'orthorhombic'
loop_
_space_group_symop_operation_xyz
x,y,z
-x,-y,z
1/2-x,y,z
1/2+x,-y,z
x,1/2+y,1/2+z
-x,1/2-y,1/2+z
1/2-x,1/2+y,1/2+z
1/2+x,1/2-y,1/2+z
loop_
_atom_site_type_symbol
_atom_site_label
_atom_site_fract_x
_atom_site_fract_y
_atom_site_fract_z
Si Si1 0.570636 0.060100 0.159340
Si Si2 0.571964 0.747521 0.520120
Si Si3 0.929620 0.668413 0.741417
Si Si4 0.927674 0.730528 0.877414
Si Si5 0.929768 0.615592 0.513402
Si Si6 0.929103 0.939357 0.878099
Si Si7 0.072162 0.772675 0.661867
Si Si8 0.928504 0.337605 0.281995
O O1 0.750000 0.055109 0.160412
O O2 0.528174 0.107229 0.215088
O O3 0.500000 0.000000 0.171125
O O4 0.528855 0.084257 0.084077
O O5 0.750000 0.751734 0.527403
O O6 0.517430 0.772316 0.447794
O O7 0.532756 0.681244 0.519257
O O8 0.493063 0.775613 0.585263
O O9 0.750000 0.675235 0.731558
O O10 0.961533 0.682986 0.820813
O O11 0.008909 0.715297 0.695201
O O12 0.750000 0.729932 0.891713
O O13 0.961665 0.788927 0.838081
O O14 0.750000 0.611405 0.504854
O O15 0.009464 0.587572 0.448599
O O16 0.750000 0.943408 0.882216
O O17 0.967078 0.896493 0.816476
O O18 0.000000 0.000000 0.868425
O O19 0.250000 0.771690 0.660943
O O20 0.012931 0.821112 0.712535
O O21 0.750000 0.335247 0.269649
#
# Coordination Sequence:
#
# PCOD9363635 Si02
#       8
#     8   8   8   8   8   8   8   8
#     4  10  20  34  49  68  95 133 171 203 240 283
#     4  11  20  32  50  72 102 134 162 199 248 300
#     4   9  18  35  51  67  98 133 162 199 253 298
#     4   9  17  31  51  72  95 125 164 203 243 297
#     4  10  20  33  48  68  99 137 173 204 240 289
#     4  11  22  35  51  71  99 135 173 209 246 290
#     4  11  21  31  50  75  98 125 165 208 246 295
#     4   9  19  35  51  69  98 133 164 202 252 296
#
# _framework density 15.393634
#
# number of rings (size 3 to 8) (size 9 to 14) (size 15 to 20)
#    0.000    2.000    2.500    3.000    0.000    5.500 
#    0.000    0.000    0.000    0.000    0.000    0.875 
#    0.000    4.000    0.000    0.000    0.000    0.000 
#
# Total GULP energy -178586.178293 kJ/mol
# GULP energy per Si atom -5580.818072 kJ/mol
# Density = 1.535860 g / cm^3
# Si number density = 15.393634 Si / 1000 Ang^3
#
#
#
# Elastic Constant Matrix: (Units=GPa)
#
#
# Indices 1 2 3 4 5 6 
#
# 1 47.6655 42.2385 60.9144 0.0000 0.0000 0.0000
# 2 42.2385 101.3262 71.5847 0.0000 0.0000 0.0000
# 3 60.9144 71.5847 132.4139 0.0000 0.0000 0.0000
# 4 0.0000 0.0000 0.0000 18.2351 0.0000 0.0000
# 5 0.0000 0.0000 0.0000 0.0000 25.6731 0.0000
# 6 0.0000 0.0000 0.0000 0.0000 0.0000 -3.5550
#
#
#
# Elastic Compliance Matrix: (Units=1/GPa)
#
#
# Indices 1 2 3 4 5 6 
#
# 1 0.054765 -0.008139 -0.020794 0.000000 0.000000 0.000000
# 2 -0.008139 0.017177 -0.005542 0.000000 0.000000 0.000000
# 3 -0.020794 -0.005542 0.020114 0.000000 0.000000 0.000000
# 4 0.000000 0.000000 0.000000 0.054839 0.000000 0.000000
# 5 0.000000 0.000000 0.000000 0.000000 0.038951 0.000000
# 6 0.000000 0.000000 0.000000 0.000000 0.000000 -0.281298
#
#
# Mechanical properties :
#
#
# Convention : Reuss Voigt Hill
#
# Bulk Modulus (GPa) = 43.27700 70.09787 56.68743
# Shear Modulus (GPa) = -265.96920 15.18184 -125.39368
#
# Velocity S-wave (km/s) = -13.15879 3.14386 -9.03521
# Velocity P-wave (km/s) = 14.23717 7.66904 8.48183
#
# Compressibility (1/GPa) = 0.02310696
#
# Stress axis : x y z
#
# Youngs Moduli (GPa) = 18.25979 58.21651 49.71696
#
# Poissons Ratio (x) = 0.47383 1.03379
# Poissons Ratio (y) = 0.14862 0.27553
# Poissons Ratio (z) = 0.37969 0.32264
#
# Static dielectric constant tensor:
#      x y z
#    x 1.511520 0.000000 0.000000 
#    y 0.000000 1.496440 0.000000 
#    z 0.000000 0.000000 1.503800 
# 
# From -- ./inp_files/19694.got.cif
#   From: 2010.05.17/outbox.cif.g08.bks.cpg/sg40_10_cif.got.tgz:19694.got - 2010.06.03 18:35:42.
