data_PCOD9363385
_publ_section_title
;
Structure prediction by ZEFSAII (Michael W. Deem and Ramdas Pophale) SiO2 
 PCOD9363385
Probable space group: A M A 2
;
_chemical_formula_sum "Si O2"
_cell_formula_units_Z 48
_cell_length_a 8.019547
_cell_length_b 21.086217
_cell_length_c 14.976621
_cell_angle_alpha 90.000000
_cell_angle_beta 90.000000
_cell_angle_gamma 90.000000
_cell_volume 2532.575191
_symmetry_space_group_name_H-M "A M A 2"
_symmetry_group_IT_number 40
_symmetry_cell_setting 'orthorhombic'
loop_
_space_group_symop_operation_xyz
x,y,z
-x,-y,z
1/2-x,y,z
1/2+x,-y,z
x,1/2+y,1/2+z
-x,1/2-y,1/2+z
1/2-x,1/2+y,1/2+z
1/2+x,1/2-y,1/2+z
loop_
_atom_site_type_symbol
_atom_site_label
_atom_site_fract_x
_atom_site_fract_y
_atom_site_fract_z
Si Si1 0.551572 0.929410 0.795150
Si Si2 0.546083 0.377479 0.484288
Si Si3 0.549306 0.691271 0.182802
Si Si4 0.549004 0.928642 0.175879
Si Si5 0.950877 0.812407 0.296522
Si Si6 0.451013 0.269580 0.988271
O O1 0.750000 0.926996 0.799495
O O2 0.486901 0.912206 0.894651
O O3 0.495326 0.875125 0.727287
O O4 0.500000 0.000000 0.769470
O O5 0.750000 0.378160 0.484545
O O6 0.490229 0.410187 0.576054
O O7 0.493611 0.303866 0.482287
O O8 0.750000 0.695841 0.180786
O O9 0.487668 0.749615 0.244218
O O10 0.488952 0.700791 0.081501
O O11 0.750000 0.925337 0.174415
O O12 0.489138 0.875353 0.245576
O O13 0.500000 0.000000 0.198653
O O14 0.750000 0.812164 0.290646
O O15 0.997299 0.806539 0.399709
O O16 0.250000 0.268402 0.990668
#
# Coordination Sequence:
#
# PCOD9363385 Si02
#       6
#     8   8   8   8   8   8
#     4  11  22  36  56  82 115 148 184 226 273 330
#     4   9  17  32  55  82 112 143 174 220 275 324
#     4  10  20  36  58  81 109 146 185 227 276 327
#     4  10  20  36  55  79 113 148 181 220 273 327
#     4  10  20  35  56  81 111 144 182 229 273 320
#     4  10  19  35  58  83 110 142 182 225 273 326
#
# _framework density 18.953040999999999
#
# number of rings (size 3 to 8) (size 9 to 14) (size 15 to 20)
#    0.000    2.000    3.333    1.000    0.000    1.333 
#    0.000    2.500    0.000    2.000    0.000    0.000 
#    0.000    0.000    0.000    0.000    0.000    0.000 
#
# Total GULP energy -134012.355627 kJ/mol
# GULP energy per Si atom -5583.848151 kJ/mol
# Density = 1.890990 g / cm^3
# Si number density = 18.953041 Si / 1000 Ang^3
#
#
#
# Elastic Constant Matrix: (Units=GPa)
#
#
# Indices 1 2 3 4 5 6 
#
# 1 13.9860 6.6525 10.0028 0.0000 0.0000 0.0000
# 2 6.6525 168.2918 90.0132 0.0000 0.0000 0.0000
# 3 10.0028 90.0132 156.9675 0.0000 0.0000 0.0000
# 4 0.0000 0.0000 0.0000 42.5566 0.0000 0.0000
# 5 0.0000 0.0000 0.0000 0.0000 23.8873 0.0000
# 6 0.0000 0.0000 0.0000 0.0000 0.0000 20.6769
#
#
#
# Elastic Compliance Matrix: (Units=1/GPa)
#
#
# Indices 1 2 3 4 5 6 
#
# 1 0.074955 -0.000589 -0.004439 0.000000 0.000000 0.000000
# 2 -0.000589 0.008576 -0.004880 0.000000 0.000000 0.000000
# 3 -0.004439 -0.004880 0.009452 0.000000 0.000000 0.000000
# 4 0.000000 0.000000 0.000000 0.023498 0.000000 0.000000
# 5 0.000000 0.000000 0.000000 0.000000 0.041863 0.000000
# 6 0.000000 0.000000 0.000000 0.000000 0.000000 0.048363
#
#
# Mechanical properties :
#
#
# Convention : Reuss Voigt Hill
#
# Bulk Modulus (GPa) = 13.66738 61.39803 37.53271
# Shear Modulus (GPa) = 19.92735 32.92929 26.42832
#
# Velocity S-wave (km/s) = 3.24606 4.17275 3.73823
# Velocity P-wave (km/s) = 4.61259 7.46197 6.20310
#
# Compressibility (1/GPa) = 0.07316689
#
# Stress axis : x y z
#
# Youngs Moduli (GPa) = 13.34138 116.61070 105.79615
#
# Poissons Ratio (x) = 0.06865 0.46962
# Poissons Ratio (y) = 0.00785 0.51630
# Poissons Ratio (z) = 0.05922 0.56908
#
# Static dielectric constant tensor:
#      x y z
#    x 1.685590 0.000000 0.000000 
#    y 0.000000 1.612940 0.000000 
#    z 0.000000 0.000000 1.650640 
# 
# From -- ./inp_files/11210.got.cif
#   From: 2010.05.17/outbox.cif.g08.bks.cpg/sg40_6_cif.got.tgz:11210.got - 2010.06.03 18:35:42.
