data_PCOD9363949
_publ_section_title
;
Structure prediction by ZEFSAII (Michael W. Deem and Ramdas Pophale) SiO2 
 PCOD9363949
Probable space group: A M A 2
;
_chemical_formula_sum "Si O2"
_cell_formula_units_Z 64
_cell_length_a 14.550448
_cell_length_b 23.540492
_cell_length_c 8.922723
_cell_angle_alpha 90.000000
_cell_angle_beta 90.000000
_cell_angle_gamma 90.000000
_cell_volume 3056.253061
_symmetry_space_group_name_H-M "A M A 2"
_symmetry_group_IT_number 40
_symmetry_cell_setting 'orthorhombic'
loop_
_space_group_symop_operation_xyz
x,y,z
-x,-y,z
1/2-x,y,z
1/2+x,-y,z
x,1/2+y,1/2+z
-x,1/2-y,1/2+z
1/2-x,1/2+y,1/2+z
1/2+x,1/2-y,1/2+z
loop_
_atom_site_type_symbol
_atom_site_label
_atom_site_fract_x
_atom_site_fract_y
_atom_site_fract_z
Si Si1 0.357266 0.282789 0.848830
Si Si2 0.895460 0.518360 0.095845
Si Si3 0.464173 0.364554 0.045557
Si Si4 0.642117 0.912076 0.051259
Si Si5 0.142768 0.344277 0.538531
Si Si6 0.477340 0.174984 0.862983
Si Si7 0.851091 0.406842 0.909130
Si Si8 0.854639 0.031074 0.939183
O O1 0.250000 0.270128 0.874668
O O2 0.363483 0.327212 0.711548
O O3 0.415000 0.227011 0.809476
O O4 0.406112 0.311176 0.991169
O O5 0.903386 0.579135 0.015778
O O6 0.852756 0.528093 0.258996
O O7 0.000000 0.500000 0.125864
O O8 0.855650 0.467866 0.994344
O O9 0.489749 0.360856 0.219912
O O10 0.561658 0.371149 0.963350
O O11 0.750000 0.906520 0.004915
O O12 0.640064 0.912832 0.230749
O O13 0.584507 0.861975 0.976041
O O14 0.602665 0.972288 0.994287
O O15 0.250000 0.338324 0.492233
O O16 0.111360 0.408856 0.502151
O O17 0.070579 0.306376 0.446925
O O18 0.750000 0.381985 0.943044
O O19 0.750000 0.028893 0.996986
#
# Coordination Sequence:
#
# PCOD9363949 Si02
#       8
#     8   8   8   8   8   8   8   8
#     4  11  26  45  67  94 127 172 224 282 341 398
#     4  10  20  36  56  92 132 169 213 261 328 400
#     4  11  24  41  62  96 128 171 221 269 336 400
#     4  10  22  38  63  97 130 172 220 270 331 397
#     4  10  23  42  64  94 128 168 219 273 334 399
#     4  12  23  44  69  91 131 171 227 277 334 398
#     4  10  22  39  61  95 136 174 216 269 333 400
#     4  10  20  36  60  92 126 164 211 264 327 397
#
# _framework density 20.940674000000001
#
# number of rings (size 3 to 8) (size 9 to 14) (size 15 to 20)
#    0.000    1.500    1.250    3.750    1.750    3.500 
#    2.250    0.625    0.000    0.000    0.000    0.000 
#    0.000    0.000    0.000    0.000    0.000    0.000 
#
# Total GULP energy -178702.774212 kJ/mol
# GULP energy per Si atom -5584.461694 kJ/mol
# Density = 2.089301 g / cm^3
# Si number density = 20.940674 Si / 1000 Ang^3
#
#
#
# Elastic Constant Matrix: (Units=GPa)
#
#
# Indices 1 2 3 4 5 6 
#
# 1 105.5501 18.2648 33.2919 0.0000 0.0000 0.0000
# 2 18.2648 57.8136 15.8916 0.0000 0.0000 0.0000
# 3 33.2919 15.8916 76.6542 0.0000 0.0000 0.0000
# 4 0.0000 0.0000 0.0000 26.1231 0.0000 0.0000
# 5 0.0000 0.0000 0.0000 0.0000 21.9904 0.0000
# 6 0.0000 0.0000 0.0000 0.0000 0.0000 22.1214
#
#
#
# Elastic Compliance Matrix: (Units=1/GPa)
#
#
# Indices 1 2 3 4 5 6 
#
# 1 0.011271 -0.002349 -0.004408 0.000000 0.000000 0.000000
# 2 -0.002349 0.018832 -0.002884 0.000000 0.000000 0.000000
# 3 -0.004408 -0.002884 0.015558 0.000000 0.000000 0.000000
# 4 0.000000 0.000000 0.000000 0.038280 0.000000 0.000000
# 5 0.000000 0.000000 0.000000 0.000000 0.045474 0.000000
# 6 0.000000 0.000000 0.000000 0.000000 0.000000 0.045205
#
#
# Mechanical properties :
#
#
# Convention : Reuss Voigt Hill
#
# Bulk Modulus (GPa) = 37.90956 41.65718 39.78337
# Shear Modulus (GPa) = 24.66750 25.55162 25.10956
#
# Velocity S-wave (km/s) = 3.43588 3.49691 3.46653
# Velocity P-wave (km/s) = 5.82091 6.02002 5.92130
#
# Compressibility (1/GPa) = 0.02637857
#
# Stress axis : x y z
#
# Youngs Moduli (GPa) = 88.72281 53.10160 64.27567
#
# Poissons Ratio (x) = 0.12474 0.28334
# Poissons Ratio (y) = 0.20842 0.18536
# Poissons Ratio (z) = 0.39110 0.15314
#
# Static dielectric constant tensor:
#      x y z
#    x 1.763990 0.000000 0.000000 
#    y 0.000000 1.784680 0.000000 
#    z 0.000000 0.000000 1.730690 
# 
# From -- ./inp_files/6885.got.cif
#   From: 2010.05.17/outbox.cif.g08.bks.cpg/sg40_4_cif.got.tgz:6885.got - 2010.06.03 18:35:42.
