data_PCOD9363585
_publ_section_title
;
Structure prediction by ZEFSAII (Michael W. Deem and Ramdas Pophale) SiO2 
 PCOD9363585
Probable space group: A M A 2
;
_chemical_formula_sum "Si O2"
_cell_formula_units_Z 52
_cell_length_a 23.823527
_cell_length_b 11.256375
_cell_length_c 8.383808
_cell_angle_alpha 90.000000
_cell_angle_beta 90.000000
_cell_angle_gamma 90.000000
_cell_volume 2248.256899
_symmetry_space_group_name_H-M "A M A 2"
_symmetry_group_IT_number 40
_symmetry_cell_setting 'orthorhombic'
loop_
_space_group_symop_operation_xyz
x,y,z
-x,-y,z
1/2-x,y,z
1/2+x,-y,z
x,1/2+y,1/2+z
-x,1/2-y,1/2+z
1/2-x,1/2+y,1/2+z
1/2+x,1/2-y,1/2+z
loop_
_atom_site_type_symbol
_atom_site_label
_atom_site_fract_x
_atom_site_fract_y
_atom_site_fract_z
Si Si1 0.131701 0.336209 0.384490
Si Si2 0.137528 0.817873 0.243159
Si Si3 0.865824 0.422044 0.739332
Si Si4 0.943584 0.824924 0.974195
Si Si5 0.250000 0.653679 0.588522
Si Si6 0.250000 0.169916 0.719665
Si Si7 0.750000 0.591104 0.240825
Si Si8 0.026914 0.389019 0.193969
O O1 0.113426 0.343812 0.567390
O O2 0.127798 0.195506 0.345982
O O3 0.193707 0.386991 0.346247
O O4 0.089585 0.401736 0.262868
O O5 0.104318 0.733959 0.363226
O O6 0.195744 0.752338 0.198819
O O7 0.137048 0.949384 0.320372
O O8 0.913190 0.409445 0.602008
O O9 0.805250 0.403670 0.660208
O O10 0.987974 0.873555 0.849003
O O11 0.972795 0.723897 0.080427
O O12 0.250000 0.633667 0.403262
O O13 0.250000 0.795317 0.621879
O O14 0.250000 0.036062 0.647907
O O15 0.000000 0.500000 0.103539
#
# Coordination Sequence:
#
# PCOD9363585 Si02
#       8
#     8   8   8   8   4   4   4   8
#     4  10  23  44  67  98 130 175 216 268 328 383
#     4  12  24  39  66  98 133 172 220 269 326 393
#     4  10  22  43  66  93 138 173 220 270 326 388
#     4  11  25  43  64  99 125 175 222 268 329 383
#     4  10  19  41  65  94 133 178 214 270 330 386
#     4  12  24  36  64 104 129 174 219 265 333 396
#     4  10  23  41  69  94 134 168 219 269 323 394
#     4  11  25  44  70  94 131 173 217 272 325 383
#
# _framework density 23.12903
#
# number of rings (size 3 to 8) (size 9 to 14) (size 15 to 20)
#    0.000    1.231    1.538    3.692    2.154    4.923 
#    0.000    0.769    0.000    0.000    0.000    0.000 
#    0.000    0.000    0.000    0.000    0.000    0.000 
#
# Total GULP energy -145360.309996 kJ/mol
# GULP energy per Si atom -5590.781154 kJ/mol
# Density = 2.307639 g / cm^3
# Si number density = 23.129030 Si / 1000 Ang^3
#
#
#
# Elastic Constant Matrix: (Units=GPa)
#
#
# Indices 1 2 3 4 5 6 
#
# 1 86.4533 47.8917 1.8275 0.0000 0.0000 0.0000
# 2 47.8917 111.4354 18.8874 0.0000 0.0000 0.0000
# 3 1.8275 18.8874 26.5758 0.0000 0.0000 0.0000
# 4 0.0000 0.0000 0.0000 9.1180 0.0000 0.0000
# 5 0.0000 0.0000 0.0000 0.0000 23.3850 0.0000
# 6 0.0000 0.0000 0.0000 0.0000 0.0000 9.6528
#
#
#
# Elastic Compliance Matrix: (Units=1/GPa)
#
#
# Indices 1 2 3 4 5 6 
#
# 1 0.015582 -0.007407 0.004193 0.000000 0.000000 0.000000
# 2 -0.007407 0.013724 -0.009244 0.000000 0.000000 0.000000
# 3 0.004193 -0.009244 0.043910 0.000000 0.000000 0.000000
# 4 0.000000 0.000000 0.000000 0.109673 0.000000 0.000000
# 5 0.000000 0.000000 0.000000 0.000000 0.042762 0.000000
# 6 0.000000 0.000000 0.000000 0.000000 0.000000 0.103596
#
#
# Mechanical properties :
#
#
# Convention : Reuss Voigt Hill
#
# Bulk Modulus (GPa) = 20.70478 40.18644 30.44561
# Shear Modulus (GPa) = 13.50389 18.82171 16.16280
#
# Velocity S-wave (km/s) = 2.41892 2.85576 2.64637
# Velocity P-wave (km/s) = 4.09547 5.31850 4.74654
#
# Compressibility (1/GPa) = 0.04829802
#
# Stress axis : x y z
#
# Youngs Moduli (GPa) = 64.17837 72.86491 22.77397
#
# Poissons Ratio (x) = 0.53972 -0.09549
# Poissons Ratio (y) = 0.47538 0.21053
# Poissons Ratio (z) = -0.26909 0.67359
#
# Static dielectric constant tensor:
#      x y z
#    x 1.828960 0.000000 0.000000 
#    y 0.000000 1.932840 0.000000 
#    z 0.000000 0.000000 1.832050 
# 
# From -- ./inp_files/9135.got.cif
#   From: 2010.05.17/outbox.cif.g08.bks.cpg/sg40_5_cif.got.tgz:9135.got - 2010.06.03 18:35:42.
