data_PCOD9363142
_publ_section_title
;
Structure prediction by ZEFSAII (Michael W. Deem and Ramdas Pophale) SiO2 
 PCOD9363142
Probable space group: A M A 2
;
_chemical_formula_sum "Si O2"
_cell_formula_units_Z 64
_cell_length_a 8.768864
_cell_length_b 20.205288
_cell_length_c 21.118566
_cell_angle_alpha 90.000000
_cell_angle_beta 90.000000
_cell_angle_gamma 90.000000
_cell_volume 3741.733092
_symmetry_space_group_name_H-M "A M A 2"
_symmetry_group_IT_number 40
_symmetry_cell_setting 'orthorhombic'
loop_
_space_group_symop_operation_xyz
x,y,z
-x,-y,z
1/2-x,y,z
1/2+x,-y,z
x,1/2+y,1/2+z
-x,1/2-y,1/2+z
1/2-x,1/2+y,1/2+z
1/2+x,1/2-y,1/2+z
loop_
_atom_site_type_symbol
_atom_site_label
_atom_site_fract_x
_atom_site_fract_y
_atom_site_fract_z
Si Si1 0.432357 0.069497 0.203960
Si Si2 0.431918 0.070395 0.589401
Si Si3 0.932427 0.929184 0.738807
Si Si4 0.932547 0.708208 0.897287
Si Si5 0.433771 0.795308 0.539404
Si Si6 0.933143 0.705854 0.283874
Si Si7 0.564189 0.789336 0.159384
Si Si8 0.567584 0.929525 0.354419
O O1 0.250000 0.066395 0.198236
O O2 0.488119 0.135245 0.168572
O O3 0.466011 0.076853 0.278999
O O4 0.500000 0.000000 0.181921
O O5 0.250000 0.068555 0.583912
O O6 0.471953 0.079479 0.664043
O O7 0.498344 0.132342 0.552011
O O8 0.500000 0.000000 0.568907
O O9 0.750000 0.929936 0.744137
O O10 0.001343 0.867692 0.776589
O O11 0.000000 0.000000 0.758521
O O12 0.750000 0.709012 0.890162
O O13 0.006186 0.755366 0.844815
O O14 0.992875 0.633678 0.887089
O O15 0.972305 0.728514 0.969005
O O16 0.250000 0.800365 0.543400
O O17 0.486492 0.746621 0.595395
O O18 0.750000 0.704002 0.285262
O O19 0.980573 0.746785 0.220933
O O20 0.750000 0.790552 0.158952
O O21 0.750000 0.928705 0.362700
O O22 0.500000 0.000000 0.375624
#
# Coordination Sequence:
#
# PCOD9363142 Si02
#       8
#     8   8   8   8   8   8   8   8
#     4   9  17  31  51  78 104 131 167 211 261 311
#     4  10  20  33  52  78 109 144 180 221 265 320
#     4  10  20  34  54  84 114 141 177 224 275 325
#     4  11  23  36  52  78 110 144 183 227 272 323
#     4  10  21  37  55  75 105 145 183 222 270 322
#     4  11  20  35  59  81 106 143 182 228 274 320
#     4   9  17  33  56  78 101 135 179 219 265 318
#     4  10  19  33  52  76 106 143 181 218 265 318
#
# _framework density 17.104372000000001
#
# number of rings (size 3 to 8) (size 9 to 14) (size 15 to 20)
#    0.000    2.000    2.500    1.875    0.000    3.000 
#    0.000    0.625    0.000    0.750    0.000    1.750 
#    0.000    0.000    0.000    0.000    0.000    0.000 
#
# Total GULP energy -178638.147326 kJ/mol
# GULP energy per Si atom -5582.442104 kJ/mol
# Density = 1.706544 g / cm^3
# Si number density = 17.104372 Si / 1000 Ang^3
#
#
#
# Elastic Constant Matrix: (Units=GPa)
#
#
# Indices 1 2 3 4 5 6 
#
# 1 30.8582 34.4341 38.4909 0.0000 0.0000 0.0000
# 2 34.4341 140.5504 71.9815 0.0000 0.0000 0.0000
# 3 38.4909 71.9815 107.5188 0.0000 0.0000 0.0000
# 4 0.0000 0.0000 0.0000 20.9725 0.0000 0.0000
# 5 0.0000 0.0000 0.0000 0.0000 15.3575 0.0000
# 6 0.0000 0.0000 0.0000 0.0000 0.0000 32.1498
#
#
#
# Elastic Compliance Matrix: (Units=1/GPa)
#
#
# Indices 1 2 3 4 5 6 
#
# 1 0.061479 -0.005768 -0.018147 0.000000 0.000000 0.000000
# 2 -0.005768 0.011368 -0.005546 0.000000 0.000000 0.000000
# 3 -0.018147 -0.005546 0.019510 0.000000 0.000000 0.000000
# 4 0.000000 0.000000 0.000000 0.047681 0.000000 0.000000
# 5 0.000000 0.000000 0.000000 0.000000 0.065115 0.000000
# 6 0.000000 0.000000 0.000000 0.000000 0.000000 0.031104
#
#
# Mechanical properties :
#
#
# Convention : Reuss Voigt Hill
#
# Bulk Modulus (GPa) = 29.90909 63.19337 46.55123
# Shear Modulus (GPa) = 16.32252 22.63069 19.47660
#
# Velocity S-wave (km/s) = 3.09251 3.64138 3.37811
# Velocity P-wave (km/s) = 5.50233 7.39632 6.51848
#
# Compressibility (1/GPa) = 0.03343465
#
# Stress axis : x y z
#
# Youngs Moduli (GPa) = 16.26581 87.96382 51.25516
#
# Poissons Ratio (x) = 0.50737 0.93015
# Poissons Ratio (y) = 0.09382 0.28426
# Poissons Ratio (z) = 0.29518 0.48784
#
# Static dielectric constant tensor:
#      x y z
#    x 1.573570 0.000000 0.000000 
#    y 0.000000 1.563240 0.000000 
#    z 0.000000 0.000000 1.581630 
# 
# From -- ./inp_files/19567.got.cif
#   From: 2010.05.17/outbox.cif.g08.bks.cpg/sg40_10_cif.got.tgz:19567.got - 2010.06.03 18:35:42.
