data_PCOD9363784
_publ_section_title
;
Structure prediction by ZEFSAII (Michael W. Deem and Ramdas Pophale) SiO2 
 PCOD9363784
Probable space group: A M A 2
;
_chemical_formula_sum "Si O2"
_cell_formula_units_Z 40
_cell_length_a 19.250397
_cell_length_b 22.104523
_cell_length_c 4.958532
_cell_angle_alpha 90.000000
_cell_angle_beta 90.000000
_cell_angle_gamma 90.000000
_cell_volume 2109.958718
_symmetry_space_group_name_H-M "A M A 2"
_symmetry_group_IT_number 40
_symmetry_cell_setting 'orthorhombic'
loop_
_space_group_symop_operation_xyz
x,y,z
-x,-y,z
1/2-x,y,z
1/2+x,-y,z
x,1/2+y,1/2+z
-x,1/2-y,1/2+z
1/2-x,1/2+y,1/2+z
1/2+x,1/2-y,1/2+z
loop_
_atom_site_type_symbol
_atom_site_label
_atom_site_fract_x
_atom_site_fract_y
_atom_site_fract_z
Si Si1 0.570884 0.532302 0.389680
Si Si2 0.549930 0.112017 0.411243
Si Si3 0.610262 0.854180 0.454735
Si Si4 0.047865 0.259935 0.678551
Si Si5 0.669709 0.918438 0.949069
O O1 0.500000 0.500000 0.292250
O O2 0.553846 0.565454 0.667041
O O3 0.628135 0.481429 0.443761
O O4 0.588453 0.582542 0.165133
O O5 0.469198 0.122958 0.486393
O O6 0.574590 0.177030 0.299498
O O7 0.604209 0.784640 0.547591
O O8 0.634398 0.871407 0.156707
O O9 0.659742 0.890003 0.655236
O O10 0.993083 0.270665 0.432186
O O11 0.750000 0.927040 0.016393
#
# Coordination Sequence:
#
# PCOD9363784 Si02
#       5
#     8   8   8   8   8
#     4  12  21  36  59  86 121 153 196 248 300 356
#     4  11  20  35  60  90 115 150 190 251 306 345
#     4  11  20  38  59  84 121 149 194 250 302 357
#     4  10  20  34  57  91 120 146 185 245 309 358
#     4  12  25  38  57  84 119 163 201 243 300 364
#
# _framework density 18.957718
#
# number of rings (size 3 to 8) (size 9 to 14) (size 15 to 20)
#    0.000    0.800    4.000    7.200    0.000    0.000 
#    0.000    0.000    0.000    7.200    0.000    0.000 
#    0.000    0.000    0.000    0.000    0.000    0.000 
#
# Total GULP energy -111697.505141 kJ/mol
# GULP energy per Si atom -5584.875257 kJ/mol
# Density = 1.891457 g / cm^3
# Si number density = 18.957718 Si / 1000 Ang^3
#
#
#
# Elastic Constant Matrix: (Units=GPa)
#
#
# Indices 1 2 3 4 5 6 
#
# 1 60.5086 57.6605 3.6360 0.0000 0.0000 0.0000
# 2 57.6605 93.9584 16.8282 0.0000 0.0000 0.0000
# 3 3.6360 16.8282 93.0342 0.0000 0.0000 0.0000
# 4 0.0000 0.0000 0.0000 47.5314 0.0000 0.0000
# 5 0.0000 0.0000 0.0000 0.0000 10.6652 0.0000
# 6 0.0000 0.0000 0.0000 0.0000 0.0000 11.6236
#
#
#
# Elastic Compliance Matrix: (Units=1/GPa)
#
#
# Indices 1 2 3 4 5 6 
#
# 1 0.040607 -0.025461 0.003018 0.000000 0.000000 0.000000
# 2 -0.025461 0.026963 -0.003882 0.000000 0.000000 0.000000
# 3 0.003018 -0.003882 0.011333 0.000000 0.000000 0.000000
# 4 0.000000 0.000000 0.000000 0.021039 0.000000 0.000000
# 5 0.000000 0.000000 0.000000 0.000000 0.093763 0.000000
# 6 0.000000 0.000000 0.000000 0.000000 0.000000 0.086032
#
#
# Mechanical properties :
#
#
# Convention : Reuss Voigt Hill
#
# Bulk Modulus (GPa) = 38.08841 44.86115 41.47478
# Shear Modulus (GPa) = 14.65687 25.25580 19.95634
#
# Velocity S-wave (km/s) = 2.78355 3.65392 3.24802
# Velocity P-wave (km/s) = 5.51957 6.44334 5.99926
#
# Compressibility (1/GPa) = 0.02625471
#
# Stress axis : x y z
#
# Youngs Moduli (GPa) = 24.62609 37.08793 88.23814
#
# Poissons Ratio (x) = 0.94428 -0.26633
# Poissons Ratio (y) = 0.62699 0.34254
# Poissons Ratio (z) = -0.07433 0.14398
#
# Static dielectric constant tensor:
#      x y z
#    x 1.644280 0.000000 0.000000 
#    y 0.000000 1.707500 0.000000 
#    z 0.000000 0.000000 1.677490 
# 
# From -- ./inp_files/1806.got.cif
#   From: 2010.05.17/outbox.cif.g08.bks.cpg/sg40_1_cif.got.tgz:1806.got - 2010.06.03 18:35:42.
