data_PCOD9363820
_publ_section_title
;
Structure prediction by ZEFSAII (Michael W. Deem and Ramdas Pophale) SiO2 
 PCOD9363820
Probable space group: A M A 2
;
_chemical_formula_sum "Si O2"
_cell_formula_units_Z 64
_cell_length_a 8.560569
_cell_length_b 33.675514
_cell_length_c 12.069587
_cell_angle_alpha 90.000000
_cell_angle_beta 90.000000
_cell_angle_gamma 90.000000
_cell_volume 3479.439383
_symmetry_space_group_name_H-M "A M A 2"
_symmetry_group_IT_number 40
_symmetry_cell_setting 'orthorhombic'
loop_
_space_group_symop_operation_xyz
x,y,z
-x,-y,z
1/2-x,y,z
1/2+x,-y,z
x,1/2+y,1/2+z
-x,1/2-y,1/2+z
1/2-x,1/2+y,1/2+z
1/2+x,1/2-y,1/2+z
loop_
_atom_site_type_symbol
_atom_site_label
_atom_site_fract_x
_atom_site_fract_y
_atom_site_fract_z
Si Si1 0.062736 0.454842 0.926220
Si Si2 0.439859 0.811955 0.472751
Si Si3 0.932073 0.599308 0.344316
Si Si4 0.564922 0.827768 0.714764
Si Si5 0.562513 0.777010 0.920606
Si Si6 0.062625 0.644156 0.549322
Si Si7 0.934811 0.955840 0.661629
Si Si8 0.561425 0.621792 0.790643
O O1 0.250000 0.457059 0.926099
O O2 0.012715 0.421750 0.836318
O O3 0.000000 0.500000 0.910049
O O4 0.008979 0.439329 0.047559
O O5 0.250000 0.812420 0.482748
O O6 0.516621 0.822005 0.589517
O O7 0.493377 0.767338 0.442638
O O8 0.481996 0.844493 0.380393
O O9 0.750000 0.590381 0.354574
O O10 0.962557 0.637720 0.268270
O O11 0.002586 0.611171 0.462614
O O12 0.017425 0.565634 0.274205
O O13 0.750000 0.837608 0.724916
O O14 0.534203 0.790105 0.793993
O O15 0.750000 0.776053 0.934806
O O16 0.506383 0.812761 0.001323
O O17 0.250000 0.644637 0.546308
O O18 0.005328 0.633887 0.671687
O O19 0.750000 0.955487 0.648205
O O20 0.000000 0.000000 0.667670
O O21 0.750000 0.621370 0.783092
#
# Coordination Sequence:
#
# PCOD9363820 Si02
#       8
#     8   8   8   8   8   8   8   8
#     4  10  20  36  57  85 118 154 196 240 291 347
#     4  10  20  35  55  79 111 148 186 232 285 341
#     4  11  21  37  59  81 109 147 188 229 281 341
#     4  10  20  35  54  80 109 140 184 233 280 332
#     4   8  18  35  53  76 109 145 181 229 285 341
#     4  10  21  38  58  80 112 149 190 238 286 340
#     4  11  21  35  58  89 121 150 185 232 286 341
#     4  10  22  37  56  82 112 149 195 239 287 350
#
# _framework density 18.393767
#
# number of rings (size 3 to 8) (size 9 to 14) (size 15 to 20)
#    0.000    2.000    0.000    5.625    1.750    2.500 
#    0.000    3.750    0.000    1.500    0.000    0.000 
#    0.000    0.000    0.000    0.000    0.000    0.000 
#
# Total GULP energy -178547.017028 kJ/mol
# GULP energy per Si atom -5579.594282 kJ/mol
# Density = 1.835190 g / cm^3
# Si number density = 18.393767 Si / 1000 Ang^3
#
#
#
# Elastic Constant Matrix: (Units=GPa)
#
#
# Indices 1 2 3 4 5 6 
#
# 1 50.9246 24.0499 30.1074 0.0000 0.0000 0.0000
# 2 24.0499 78.0905 61.9694 0.0000 0.0000 0.0000
# 3 30.1074 61.9694 153.8093 0.0000 0.0000 0.0000
# 4 0.0000 0.0000 0.0000 18.1902 0.0000 0.0000
# 5 0.0000 0.0000 0.0000 0.0000 59.9909 0.0000
# 6 0.0000 0.0000 0.0000 0.0000 0.0000 17.3433
#
#
#
# Elastic Compliance Matrix: (Units=1/GPa)
#
#
# Indices 1 2 3 4 5 6 
#
# 1 0.023609 -0.005297 -0.002487 0.000000 0.000000 0.000000
# 2 -0.005297 0.020013 -0.007026 0.000000 0.000000 0.000000
# 3 -0.002487 -0.007026 0.009819 0.000000 0.000000 0.000000
# 4 0.000000 0.000000 0.000000 0.054975 0.000000 0.000000
# 5 0.000000 0.000000 0.000000 0.000000 0.016669 0.000000
# 6 0.000000 0.000000 0.000000 0.000000 0.000000 0.057659
#
#
# Mechanical properties :
#
#
# Convention : Reuss Voigt Hill
#
# Bulk Modulus (GPa) = 41.98179 57.23086 49.60633
# Shear Modulus (GPa) = 22.69581 30.21807 26.45694
#
# Velocity S-wave (km/s) = 3.51648 4.05760 3.79669
# Velocity P-wave (km/s) = 6.27383 7.28930 6.80055
#
# Compressibility (1/GPa) = 0.02381985
#
# Stress axis : x y z
#
# Youngs Moduli (GPa) = 42.35668 49.96809 101.84124
#
# Poissons Ratio (x) = 0.26470 0.25328
# Poissons Ratio (y) = 0.22438 0.71555
# Poissons Ratio (z) = 0.10534 0.35108
#
# Static dielectric constant tensor:
#      x y z
#    x 1.619550 0.000000 0.000000 
#    y 0.000000 1.659130 0.000000 
#    z 0.000000 0.000000 1.620600 
# 
# From -- ./inp_files/10706.got.cif
#   From: 2010.05.17/outbox.cif.g08.bks.cpg/sg40_6_cif.got.tgz:10706.got - 2010.06.03 18:35:42.
