data_PCOD9363112
_publ_section_title
;
Structure prediction by ZEFSAII (Michael W. Deem and Ramdas Pophale) SiO2 
 PCOD9363112
Probable space group: A M A 2
;
_chemical_formula_sum "Si O2"
_cell_formula_units_Z 64
_cell_length_a 8.507619
_cell_length_b 15.302335
_cell_length_c 28.147409
_cell_angle_alpha 90.000000
_cell_angle_beta 90.000000
_cell_angle_gamma 90.000000
_cell_volume 3664.410860
_symmetry_space_group_name_H-M "A M A 2"
_symmetry_group_IT_number 40
_symmetry_cell_setting 'orthorhombic'
loop_
_space_group_symop_operation_xyz
x,y,z
-x,-y,z
1/2-x,y,z
1/2+x,-y,z
x,1/2+y,1/2+z
-x,1/2-y,1/2+z
1/2-x,1/2+y,1/2+z
1/2+x,1/2-y,1/2+z
loop_
_atom_site_type_symbol
_atom_site_label
_atom_site_fract_x
_atom_site_fract_y
_atom_site_fract_z
Si Si1 0.561209 0.905348 0.609630
Si Si2 0.937775 0.095741 0.716579
Si Si3 0.061411 0.720375 0.298605
Si Si4 0.560559 0.094715 0.264038
Si Si5 0.441727 0.776295 0.071422
Si Si6 0.939810 0.595525 0.489055
Si Si7 0.438334 0.404280 0.379560
Si Si8 0.060385 0.904964 0.154525
O O1 0.750000 0.907749 0.611492
O O2 0.499905 0.889568 0.663193
O O3 0.509588 0.824025 0.577269
O O4 0.500000 0.000000 0.594151
O O5 0.750000 0.094693 0.716551
O O6 0.000568 0.167963 0.752661
O O7 0.000000 0.000000 0.731521
O O8 0.250000 0.718206 0.298121
O O9 0.009749 0.821298 0.294172
O O10 0.000589 0.669776 0.344644
O O11 0.750000 0.092141 0.264039
O O12 0.508850 0.108765 0.209051
O O13 0.500000 0.000000 0.279597
O O14 0.250000 0.776657 0.070995
O O15 0.491903 0.830726 0.118012
O O16 0.494080 0.829279 0.025015
O O17 0.750000 0.593549 0.490028
O O18 0.988911 0.609818 0.434358
O O19 0.000000 0.500000 0.504077
O O20 0.500000 0.500000 0.364810
O O21 0.250000 0.405539 0.377786
O O22 0.250000 0.905899 0.154233
O O23 0.000000 0.000000 0.139167
#
# Coordination Sequence:
#
# PCOD9363112 Si02
#       8
#     8   8   8   8   8   8   8   8
#     4  10  19  33  50  69  97 131 167 205 244 286
#     4  11  21  33  49  72 102 133 166 203 245 293
#     4  11  21  34  52  73  98 130 167 204 247 295
#     4   9  19  33  49  69  96 129 162 199 239 281
#     4   9  17  30  50  71  95 129 163 194 235 287
#     4   9  18  33  52  75 101 129 159 195 243 294
#     4  10  20  34  52  75 102 129 160 200 247 299
#     4   9  16  28  45  68  96 124 154 186 226 275
#
# _framework density 17.46529
#
# number of rings (size 3 to 8) (size 9 to 14) (size 15 to 20)
#    0.000    2.250    0.000    4.500    0.000    3.500 
#    0.000    5.000    0.000    0.750    0.000    3.500 
#    0.000    0.000    0.000    0.000    0.000    0.000 
#
# Total GULP energy -178592.954364 kJ/mol
# GULP energy per Si atom -5581.029824 kJ/mol
# Density = 1.742554 g / cm^3
# Si number density = 17.465290 Si / 1000 Ang^3
#
#
#
# Elastic Constant Matrix: (Units=GPa)
#
#
# Indices 1 2 3 4 5 6 
#
# 1 40.4746 30.4626 20.4256 0.0000 0.0000 0.0000
# 2 30.4626 182.0923 90.2400 0.0000 0.0000 0.0000
# 3 20.4256 90.2400 75.4321 0.0000 0.0000 0.0000
# 4 0.0000 0.0000 0.0000 36.2794 0.0000 0.0000
# 5 0.0000 0.0000 0.0000 0.0000 28.9610 0.0000
# 6 0.0000 0.0000 0.0000 0.0000 0.0000 27.1188
#
#
#
# Elastic Compliance Matrix: (Units=1/GPa)
#
#
# Indices 1 2 3 4 5 6 
#
# 1 0.029025 -0.002360 -0.005036 0.000000 0.000000 0.000000
# 2 -0.002360 0.013680 -0.015727 0.000000 0.000000 0.000000
# 3 -0.005036 -0.015727 0.033435 0.000000 0.000000 0.000000
# 4 0.000000 0.000000 0.000000 0.027564 0.000000 0.000000
# 5 0.000000 0.000000 0.000000 0.000000 0.034529 0.000000
# 6 0.000000 0.000000 0.000000 0.000000 0.000000 0.036875
#
#
# Mechanical properties :
#
#
# Convention : Reuss Voigt Hill
#
# Bulk Modulus (GPa) = 33.45180 64.47283 48.96231
# Shear Modulus (GPa) = 21.61527 28.92989 25.27258
#
# Velocity S-wave (km/s) = 3.52179 4.07433 3.80810
# Velocity P-wave (km/s) = 5.97764 7.68951 6.88697
#
# Compressibility (1/GPa) = 0.02989376
#
# Stress axis : x y z
#
# Youngs Moduli (GPa) = 34.45365 73.09789 29.90887
#
# Poissons Ratio (x) = 0.17249 0.15063
# Poissons Ratio (y) = 0.08130 0.47037
# Poissons Ratio (z) = 0.17352 1.14960
#
# Static dielectric constant tensor:
#      x y z
#    x 1.593470 0.000000 0.000000 
#    y 0.000000 1.594020 0.000000 
#    z 0.000000 0.000000 1.588060 
# 
# From -- ./inp_files/26449.got.cif
#   From: 2010.05.17/outbox.cif.g08.bks.cpg/sg40_14_cif.got.tgz:26449.got - 2010.06.03 18:35:42.
