data_PCOD9363178
_publ_section_title
;
Structure prediction by ZEFSAII (Michael W. Deem and Ramdas Pophale) SiO2 
 PCOD9363178
Probable space group: A M A 2
;
_chemical_formula_sum "Si O2"
_cell_formula_units_Z 64
_cell_length_a 7.977697
_cell_length_b 28.705251
_cell_length_c 12.819670
_cell_angle_alpha 90.000000
_cell_angle_beta 90.000000
_cell_angle_gamma 90.000000
_cell_volume 2935.727439
_symmetry_space_group_name_H-M "A M A 2"
_symmetry_group_IT_number 40
_symmetry_cell_setting 'orthorhombic'
loop_
_space_group_symop_operation_xyz
x,y,z
-x,-y,z
1/2-x,y,z
1/2+x,-y,z
x,1/2+y,1/2+z
-x,1/2-y,1/2+z
1/2-x,1/2+y,1/2+z
1/2+x,1/2-y,1/2+z
loop_
_atom_site_type_symbol
_atom_site_label
_atom_site_fract_x
_atom_site_fract_y
_atom_site_fract_z
Si Si1 0.940987 0.935278 0.722680
Si Si2 0.453018 0.552354 0.770995
Si Si3 0.446521 0.312217 0.030021
Si Si4 0.055771 0.124934 0.099484
Si Si5 0.449262 0.082075 0.497735
Si Si6 0.046429 0.211700 0.975296
Si Si7 0.059103 0.950180 0.947757
Si Si8 0.555634 0.165027 0.760919
O O1 0.750000 0.952905 0.727245
O O2 0.015736 0.940123 0.606223
O O3 0.040982 0.952183 0.823007
O O4 0.942347 0.879809 0.741197
O O5 0.500000 0.500000 0.739146
O O6 0.250000 0.554915 0.770808
O O7 0.515932 0.592923 0.692688
O O8 0.514463 0.561659 0.889180
O O9 0.250000 0.316156 0.002569
O O10 0.456836 0.305941 0.154916
O O11 0.523494 0.362080 0.000547
O O12 0.516653 0.264570 0.983467
O O13 0.250000 0.133197 0.126244
O O14 0.984559 0.174819 0.063213
O O15 0.045950 0.091486 0.997887
O O16 0.250000 0.074007 0.501427
O O17 0.250000 0.212830 0.982896
O O18 0.996228 0.191429 0.863901
O O19 0.250000 0.941577 0.976442
O O20 0.000000 0.000000 0.989022
O O21 0.750000 0.149373 0.770655
#
# Coordination Sequence:
#
# PCOD9363178 Si02
#       8
#     8   8   8   8   8   8   8   8
#     4  10  19  35  57  81 111 146 184 231 289 345
#     4  10  22  40  61  86 116 156 202 245 299 356
#     4   9  20  36  55  84 117 153 196 241 296 350
#     4  10  21  38  59  82 114 154 195 239 292 351
#     4   9  20  38  60  85 116 153 195 240 291 352
#     4  10  20  35  56  81 114 155 195 238 294 355
#     4  12  24  37  56  83 114 145 186 234 287 346
#     4  10  19  33  54  80 111 146 187 237 286 343
#
# _framework density 21.800388999999999
#
# number of rings (size 3 to 8) (size 9 to 14) (size 15 to 20)
#    0.000    2.000    1.250    2.250    0.000    5.000 
#    0.000    3.750    0.000    0.000    0.000    0.000 
#    0.000    0.000    0.000    0.000    0.000    0.000 
#
# Total GULP energy -178597.307788 kJ/mol
# GULP energy per Si atom -5581.165868 kJ/mol
# Density = 2.175077 g / cm^3
# Si number density = 21.800389 Si / 1000 Ang^3
#
#
#
# Elastic Constant Matrix: (Units=GPa)
#
#
# Indices 1 2 3 4 5 6 
#
# 1 33.2467 -9.0535 1.8172 0.0000 0.0000 0.0000
# 2 -9.0535 60.8209 11.3933 0.0000 0.0000 0.0000
# 3 1.8172 11.3933 99.3050 0.0000 0.0000 0.0000
# 4 0.0000 0.0000 0.0000 -54.8284 0.0000 0.0000
# 5 0.0000 0.0000 0.0000 0.0000 14.6400 0.0000
# 6 0.0000 0.0000 0.0000 0.0000 0.0000 18.5996
#
#
#
# Elastic Compliance Matrix: (Units=1/GPa)
#
#
# Indices 1 2 3 4 5 6 
#
# 1 0.031474 0.004898 -0.001138 0.000000 0.000000 0.000000
# 2 0.004898 0.017565 -0.002105 0.000000 0.000000 0.000000
# 3 -0.001138 -0.002105 0.010332 0.000000 0.000000 0.000000
# 4 0.000000 0.000000 0.000000 -0.018239 0.000000 0.000000
# 5 0.000000 0.000000 0.000000 0.000000 0.068306 0.000000
# 6 0.000000 0.000000 0.000000 0.000000 0.000000 0.053765
#
#
# Mechanical properties :
#
#
# Convention : Reuss Voigt Hill
#
# Bulk Modulus (GPa) = 15.95342 22.40964 19.18153
# Shear Modulus (GPa) = 27.65691 8.29662 17.97677
#
# Velocity S-wave (km/s) = 3.56567 1.95294 2.87471
# Velocity P-wave (km/s) = 4.92806 3.92264 4.45381
#
# Compressibility (1/GPa) = 0.06268248
#
# Stress axis : x y z
#
# Youngs Moduli (GPa) = 31.77204 56.93097 96.78376
#
# Poissons Ratio (x) = -0.27886 0.11013
# Poissons Ratio (y) = -0.15563 0.20372
# Poissons Ratio (z) = 0.03615 0.11983
#
# Static dielectric constant tensor:
#      x y z
#    x 1.782240 0.000000 0.000000 
#    y 0.000000 1.821410 0.000000 
#    z 0.000000 0.000000 1.817280 
# 
# From -- ./inp_files/10546.got.cif
#   From: 2010.05.17/outbox.cif.g08.bks.cpg/sg40_6_cif.got.tgz:10546.got - 2010.06.03 18:35:42.
