data_PCOD9363504
_publ_section_title
;
Structure prediction by ZEFSAII (Michael W. Deem and Ramdas Pophale) SiO2 
 PCOD9363504
Probable space group: A M A 2
;
_chemical_formula_sum "Si O2"
_cell_formula_units_Z 44
_cell_length_a 23.721392
_cell_length_b 10.692729
_cell_length_c 8.470173
_cell_angle_alpha 90.000000
_cell_angle_beta 90.000000
_cell_angle_gamma 90.000000
_cell_volume 2148.429026
_symmetry_space_group_name_H-M "A M A 2"
_symmetry_group_IT_number 40
_symmetry_cell_setting 'orthorhombic'
loop_
_space_group_symop_operation_xyz
x,y,z
-x,-y,z
1/2-x,y,z
1/2+x,-y,z
x,1/2+y,1/2+z
-x,1/2-y,1/2+z
1/2-x,1/2+y,1/2+z
1/2+x,1/2-y,1/2+z
loop_
_atom_site_type_symbol
_atom_site_label
_atom_site_fract_x
_atom_site_fract_y
_atom_site_fract_z
Si Si1 0.845360 0.039441 0.587400
Si Si2 0.367757 0.029657 0.239970
Si Si3 0.750000 0.972766 0.819357
Si Si4 0.250000 0.426223 0.625188
Si Si5 0.750000 0.212733 0.434067
Si Si6 0.432349 0.270262 0.127724
Si Si7 0.032856 0.368123 0.791681
O O1 0.805094 0.970353 0.710276
O O2 0.804258 0.146645 0.512081
O O3 0.898177 0.104302 0.674174
O O4 0.865092 0.963187 0.432341
O O5 0.391200 0.155263 0.164305
O O6 0.306713 0.996233 0.177432
O O7 0.411906 0.918044 0.201144
O O8 0.750000 0.860079 0.942901
O O9 0.750000 0.092784 0.936682
O O10 0.250000 0.309579 0.745086
O O11 0.490651 0.226388 0.205870
O O12 0.445459 0.298256 0.946205
O O13 0.000000 0.500000 0.827963
#
# Coordination Sequence:
#
# PCOD9363504 Si02
#       7
#     8   8   4   4   4   8   8
#     4   9  20  36  55  81 112 149 188 228 281 338
#     4   9  19  38  59  81 115 152 183 224 282 339
#     4  11  21  33  54  84 112 145 193 235 278 338
#     4  10  20  34  58  90 114 144 190 228 274 338
#     4   9  19  37  54  78 122 153 175 229 284 330
#     4  10  19  37  60  79 111 149 184 235 281 321
#     4   9  20  38  58  83 111 145 188 228 275 332
#
# _framework density 20.480080000000001
#
# number of rings (size 3 to 8) (size 9 to 14) (size 15 to 20)
#    0.000    2.545    0.000    1.636    0.000    3.636 
#    0.000   26.364    0.000    0.000    0.000    0.000 
#    0.000    0.000    0.000    0.000    0.000    0.000 
#
# Total GULP energy -122603.036119 kJ/mol
# GULP energy per Si atom -5572.865278 kJ/mol
# Density = 2.043347 g / cm^3
# Si number density = 20.480080 Si / 1000 Ang^3
#
#
#
# Elastic Constant Matrix: (Units=GPa)
#
#
# Indices 1 2 3 4 5 6 
#
# 1 110.2047 24.2019 23.9964 0.0000 0.0000 0.0000
# 2 24.2019 57.2299 33.4465 0.0000 0.0000 0.0000
# 3 23.9964 33.4465 48.6551 0.0000 0.0000 0.0000
# 4 0.0000 0.0000 0.0000 33.4678 0.0000 0.0000
# 5 0.0000 0.0000 0.0000 0.0000 28.2359 0.0000
# 6 0.0000 0.0000 0.0000 0.0000 0.0000 -192.3793
#
#
#
# Elastic Compliance Matrix: (Units=1/GPa)
#
#
# Indices 1 2 3 4 5 6 
#
# 1 0.010348 -0.002329 -0.003503 0.000000 0.000000 0.000000
# 2 -0.002329 0.029731 -0.019289 0.000000 0.000000 0.000000
# 3 -0.003503 -0.019289 0.035540 0.000000 0.000000 0.000000
# 4 0.000000 0.000000 0.000000 0.029879 0.000000 0.000000
# 5 0.000000 0.000000 0.000000 0.000000 0.035416 0.000000
# 6 0.000000 0.000000 0.000000 0.000000 0.000000 -0.005198
#
#
# Mechanical properties :
#
#
# Convention : Reuss Voigt Hill
#
# Bulk Modulus (GPa) = 39.40456 42.15326 40.77891
# Shear Modulus (GPa) = 25.71775 -17.17213 4.27281
#
# Velocity S-wave (km/s) = 3.54749 -2.89879 1.44598
# Velocity P-wave (km/s) = 6.00515 3.06973 4.76891
#
# Compressibility (1/GPa) = 0.02537777
#
# Stress axis : x y z
#
# Youngs Moduli (GPa) = 96.63530 33.63444 28.13724
#
# Poissons Ratio (x) = 0.07834 0.09855
# Poissons Ratio (y) = 0.22508 0.54275
# Poissons Ratio (z) = 0.33847 0.64878
#
# Static dielectric constant tensor:
#      x y z
#    x 1.763550 0.000000 0.000000 
#    y 0.000000 1.736820 0.000000 
#    z 0.000000 0.000000 1.724510 
# 
# From -- ./inp_files/8691.got.cif
#   From: 2010.05.17/outbox.cif.g08.bks.cpg/sg40_5_cif.got.tgz:8691.got - 2010.06.03 18:35:42.
