data_PCOD9363812
_publ_section_title
;
Structure prediction by ZEFSAII (Michael W. Deem and Ramdas Pophale) SiO2 
 PCOD9363812
Probable space group: A M A 2
;
_chemical_formula_sum "Si O2"
_cell_formula_units_Z 56
_cell_length_a 8.581897
_cell_length_b 24.650244
_cell_length_c 14.112757
_cell_angle_alpha 90.000000
_cell_angle_beta 90.000000
_cell_angle_gamma 90.000000
_cell_volume 2985.495246
_symmetry_space_group_name_H-M "A M A 2"
_symmetry_group_IT_number 40
_symmetry_cell_setting 'orthorhombic'
loop_
_space_group_symop_operation_xyz
x,y,z
-x,-y,z
1/2-x,y,z
1/2+x,-y,z
x,1/2+y,1/2+z
-x,1/2-y,1/2+z
1/2-x,1/2+y,1/2+z
1/2+x,1/2-y,1/2+z
loop_
_atom_site_type_symbol
_atom_site_label
_atom_site_fract_x
_atom_site_fract_y
_atom_site_fract_z
Si Si1 0.562871 0.622051 0.486960
Si Si2 0.560183 0.666522 0.979285
Si Si3 0.064189 0.059108 0.161199
Si Si4 0.063213 0.441038 0.299957
Si Si5 0.937296 0.058848 0.372779
Si Si6 0.937057 0.775026 0.876405
Si Si7 0.438642 0.832221 0.694743
O O1 0.750000 0.622855 0.492939
O O2 0.491576 0.603428 0.585900
O O3 0.516475 0.578644 0.405330
O O4 0.503709 0.679541 0.447820
O O5 0.750000 0.665920 0.980173
O O6 0.509981 0.676623 0.087199
O O7 0.510752 0.608202 0.939459
O O8 0.512180 0.715778 0.911487
O O9 0.250000 0.056942 0.165407
O O10 0.997029 0.069055 0.266029
O O11 0.000000 0.000000 0.130793
O O12 0.250000 0.443188 0.298034
O O13 0.014701 0.392540 0.229817
O O14 0.000000 0.500000 0.276867
O O15 0.750000 0.056924 0.371160
O O16 0.000000 0.000000 0.402808
O O17 0.750000 0.777677 0.878441
O O18 0.995409 0.790664 0.771900
O O19 0.250000 0.829463 0.698909
#
# Coordination Sequence:
#
# PCOD9363812 Si02
#       7
#     8   8   8   8   8   8   8
#     4  10  20  35  53  77 109 148 185 223 272 327
#     4   9  20  38  60  80 106 143 181 220 271 327
#     4  11  21  34  53  80 112 148 186 229 275 326
#     4   9  18  30  49  74 103 137 174 212 259 310
#     4  10  20  37  57  80 110 144 181 227 274 325
#     4  10  20  36  56  82 109 138 179 228 273 322
#     4   9  19  38  56  75 106 144 177 215 268 325
#
# _framework density 18.757356000000001
#
# number of rings (size 3 to 8) (size 9 to 14) (size 15 to 20)
#    0.000    2.286    0.000    4.714    0.000    5.714 
#    0.000    8.571    0.000    0.000    0.000    0.000 
#    0.000    0.000    0.000    0.000    0.000    0.000 
#
# Total GULP energy -156307.165540 kJ/mol
# GULP energy per Si atom -5582.398769 kJ/mol
# Density = 1.871466 g / cm^3
# Si number density = 18.757356 Si / 1000 Ang^3
#
#
#
# Elastic Constant Matrix: (Units=GPa)
#
#
# Indices 1 2 3 4 5 6 
#
# 1 57.6701 30.2708 30.3478 0.0000 0.0000 0.0000
# 2 30.2708 138.6757 94.8289 0.0000 0.0000 0.0000
# 3 30.3478 94.8289 120.0803 0.0000 0.0000 0.0000
# 4 0.0000 0.0000 0.0000 17.8396 0.0000 0.0000
# 5 0.0000 0.0000 0.0000 0.0000 0.0422 0.0000
# 6 0.0000 0.0000 0.0000 0.0000 0.0000 25.3644
#
#
#
# Elastic Compliance Matrix: (Units=1/GPa)
#
#
# Indices 1 2 3 4 5 6 
#
# 1 0.020252 -0.002002 -0.003538 0.000000 0.000000 0.000000
# 2 -0.002002 0.015875 -0.012031 0.000000 0.000000 0.000000
# 3 -0.003538 -0.012031 0.018723 0.000000 0.000000 0.000000
# 4 0.000000 0.000000 0.000000 0.056055 0.000000 0.000000
# 5 0.000000 0.000000 0.000000 0.000000 23.690561 0.000000
# 6 0.000000 0.000000 0.000000 0.000000 0.000000 0.039425
#
#
# Mechanical properties :
#
#
# Convention : Reuss Voigt Hill
#
# Bulk Modulus (GPa) = 50.73620 69.70236 60.21928
# Shear Modulus (GPa) = 0.20936 19.38115 9.79526
#
# Velocity S-wave (km/s) = 0.33445 3.21792 2.28767
# Velocity P-wave (km/s) = 5.22078 7.14474 6.25715
#
# Compressibility (1/GPa) = 0.01970979
#
# Stress axis : x y z
#
# Youngs Moduli (GPa) = 49.37719 62.99312 53.41164
#
# Poissons Ratio (x) = 0.12609 0.18895
# Poissons Ratio (y) = 0.09884 0.64257
# Poissons Ratio (z) = 0.17467 0.75784
#
# Static dielectric constant tensor:
#      x y z
#    x 1.639440 0.000000 0.000000 
#    y 0.000000 1.640230 0.000000 
#    z 0.000000 0.000000 1.639120 
# 
# From -- ./inp_files/15313.got.cif
#   From: 2010.05.17/outbox.cif.g08.bks.cpg/sg40_8_cif.got.tgz:15313.got - 2010.06.03 18:35:42.
