data_PCOD9363233
_publ_section_title
;
Structure prediction by ZEFSAII (Michael W. Deem and Ramdas Pophale) SiO2 
 PCOD9363233
Probable space group: A M A 2
;
_chemical_formula_sum "Si O2"
_cell_formula_units_Z 40
_cell_length_a 10.342312
_cell_length_b 28.224704
_cell_length_c 5.506388
_cell_angle_alpha 90.000000
_cell_angle_beta 90.000000
_cell_angle_gamma 90.000000
_cell_volume 1607.362535
_symmetry_space_group_name_H-M "A M A 2"
_symmetry_group_IT_number 40
_symmetry_cell_setting 'orthorhombic'
loop_
_space_group_symop_operation_xyz
x,y,z
-x,-y,z
1/2-x,y,z
1/2+x,-y,z
x,1/2+y,1/2+z
-x,1/2-y,1/2+z
1/2-x,1/2+y,1/2+z
1/2+x,1/2-y,1/2+z
loop_
_atom_site_type_symbol
_atom_site_label
_atom_site_fract_x
_atom_site_fract_y
_atom_site_fract_z
Si Si1 0.250000 0.593554 0.877070
Si Si2 0.750000 0.842832 0.877071
Si Si3 0.043854 0.813253 0.377069
Si Si4 0.980607 0.079913 0.377069
Si Si5 0.391111 0.960864 0.877069
Si Si6 0.539020 0.208172 0.877069
O O1 0.250000 0.624401 0.621723
O O2 0.250000 0.624401 0.132417
O O3 0.124711 0.559095 0.877071
O O4 0.613132 0.811847 0.877070
O O5 0.958142 0.765326 0.377068
O O6 0.984074 0.864626 0.377067
O O7 0.107728 0.809240 0.117692
O O8 0.107727 0.809240 0.636447
O O9 0.909605 0.068261 0.127019
O O10 0.909604 0.068261 0.627120
O O11 0.250000 0.982676 0.877068
O O12 0.500000 0.000000 0.877067
#
# Coordination Sequence:
#
# PCOD9363233 Si02
#       6
#     4   4   8   8   8   8
#     4  12  24  36  72 112 141 190 239 306 348 420
#     4  12  18  36  54 100 143 190 257 290 350 402
#     4  10  20  37  59  91 134 194 229 301 338 403
#     4  12  24  46  77 107 149 182 242 292 364 433
#     4  12  30  54  81 108 144 182 231 296 367 448
#     4  10  19  33  56  86 138 191 245 286 340 394
#
# _framework density 24.885489
#
# number of rings (size 3 to 8) (size 9 to 14) (size 15 to 20)
#    0.000    0.800    4.000    3.600    2.800    0.000 
#    3.600    0.000    0.000    0.000    0.000    0.000 
#    0.000    0.000    0.000    0.000    0.000    0.000 
#
# Total GULP energy -111575.922655 kJ/mol
# GULP energy per Si atom -5578.796133 kJ/mol
# Density = 2.482885 g / cm^3
# Si number density = 24.885489 Si / 1000 Ang^3
#
#
#
# Elastic Constant Matrix: (Units=GPa)
#
#
# Indices 1 2 3 4 5 6 
#
# 1 165.9992 12.1064 39.1794 0.0000 0.0000 0.0000
# 2 12.1064 36.1411 42.1325 0.0000 0.0000 0.0000
# 3 39.1794 42.1325 289.9671 0.0000 0.0000 0.0000
# 4 0.0000 0.0000 0.0000 30.1051 0.0000 0.0000
# 5 0.0000 0.0000 0.0000 0.0000 -11.5921 0.0000
# 6 0.0000 0.0000 0.0000 0.0000 0.0000 -10.5841
#
#
#
# Elastic Compliance Matrix: (Units=1/GPa)
#
#
# Indices 1 2 3 4 5 6 
#
# 1 0.006276 -0.001341 -0.000653 0.000000 0.000000 0.000000
# 2 -0.001341 0.033598 -0.004701 0.000000 0.000000 0.000000
# 3 -0.000653 -0.004701 0.004220 0.000000 0.000000 0.000000
# 4 0.000000 0.000000 0.000000 0.033217 0.000000 0.000000
# 5 0.000000 0.000000 0.000000 0.000000 -0.086266 0.000000
# 6 0.000000 0.000000 0.000000 0.000000 0.000000 -0.094481
#
#
# Mechanical properties :
#
#
# Convention : Reuss Voigt Hill
#
# Bulk Modulus (GPa) = 32.56805 75.43822 54.00314
# Shear Modulus (GPa) = -62.64825 28.16504 -17.24160
#
# Velocity S-wave (km/s) = -5.02287 3.36785 -2.63504
# Velocity P-wave (km/s) = 4.53028 6.74560 3.53410
#
# Compressibility (1/GPa) = 0.03070494
#
# Stress axis : x y z
#
# Youngs Moduli (GPa) = 159.33513 29.76329 236.97034
#
# Poissons Ratio (x) = 0.03991 0.15478
# Poissons Ratio (y) = 0.21365 1.11393
# Poissons Ratio (z) = 0.10407 0.13991
#
# Static dielectric constant tensor:
#      x y z
#    x 2.151760 0.000000 0.000000 
#    y 0.000000 1.948030 0.000000 
#    z 0.000000 0.000000 2.058050 
# 
# From -- ./inp_files/828.got.cif
#   From: 2010.05.17/outbox.cif.g08.bks.cpg/sg40_1_cif.got.tgz:828.got - 2010.06.03 18:35:42.
