data_PCOD9363010
_publ_section_title
;
Structure prediction by ZEFSAII (Michael W. Deem and Ramdas Pophale) SiO2 
 PCOD9363010
Probable space group: A M A 2
;
_chemical_formula_sum "Si O2"
_cell_formula_units_Z 48
_cell_length_a 8.640815
_cell_length_b 24.328018
_cell_length_c 14.184157
_cell_angle_alpha 90.000000
_cell_angle_beta 90.000000
_cell_angle_gamma 90.000000
_cell_volume 2981.707002
_symmetry_space_group_name_H-M "A M A 2"
_symmetry_group_IT_number 40
_symmetry_cell_setting 'orthorhombic'
loop_
_space_group_symop_operation_xyz
x,y,z
-x,-y,z
1/2-x,y,z
1/2+x,-y,z
x,1/2+y,1/2+z
-x,1/2-y,1/2+z
1/2-x,1/2+y,1/2+z
1/2+x,1/2-y,1/2+z
loop_
_atom_site_type_symbol
_atom_site_label
_atom_site_fract_x
_atom_site_fract_y
_atom_site_fract_z
Si Si1 0.937118 0.723406 0.451540
Si Si2 0.935477 0.337023 0.627731
Si Si3 0.936399 0.440214 0.944997
Si Si4 0.563946 0.834377 0.560860
Si Si5 0.065414 0.940239 0.235499
Si Si6 0.936353 0.225871 0.735888
O O1 0.750000 0.718802 0.455392
O O2 0.978787 0.783847 0.491574
O O3 0.987615 0.717973 0.343370
O O4 0.010401 0.679958 0.523388
O O5 0.750000 0.341684 0.631385
O O6 0.983322 0.285573 0.694697
O O7 0.010857 0.392436 0.665943
O O8 0.750000 0.441753 0.941371
O O9 0.000000 0.500000 0.972461
O O10 0.998222 0.428329 0.839864
O O11 0.985902 0.391856 0.015521
O O12 0.750000 0.834960 0.567070
O O13 0.497156 0.819205 0.662643
O O14 0.250000 0.942807 0.240594
O O15 0.000000 0.000000 0.207670
O O16 0.750000 0.224850 0.734997
#
# Coordination Sequence:
#
# PCOD9363010 Si02
#       6
#     8   8   8   8   8   8
#     4   9  17  31  48  69  96 127 158 193 237 285
#     4  10  19  32  49  72  99 127 158 196 238 283
#     4  10  19  32  49  71  98 128 159 197 239 282
#     4   9  18  31  48  69  97 127 157 194 239 286
#     4  11  21  33  50  72  97 127 159 195 236 283
#     4   9  18  31  49  71  98 128 160 197 238 281
#
# _framework density 16.098161999999999
#
# number of rings (size 3 to 8) (size 9 to 14) (size 15 to 20)
#    0.000    2.333    0.000    4.500    0.000    5.333 
#    0.000    3.333    0.000    1.000    0.000    2.333 
#    0.000    0.000    0.000    0.000    0.000    0.000 
#
# Total GULP energy -133896.532455 kJ/mol
# GULP energy per Si atom -5579.022186 kJ/mol
# Density = 1.606152 g / cm^3
# Si number density = 16.098162 Si / 1000 Ang^3
#
#
#
# Elastic Constant Matrix: (Units=GPa)
#
#
# Indices 1 2 3 4 5 6 
#
# 1 51.8516 37.9109 37.5139 0.0000 0.0000 0.0000
# 2 37.9109 121.5373 90.0980 0.0000 0.0000 0.0000
# 3 37.5139 90.0980 146.4925 0.0000 0.0000 0.0000
# 4 0.0000 0.0000 0.0000 25.4102 0.0000 0.0000
# 5 0.0000 0.0000 0.0000 0.0000 27.5321 0.0000
# 6 0.0000 0.0000 0.0000 0.0000 0.0000-4570.0082
#
#
#
# Elastic Compliance Matrix: (Units=1/GPa)
#
#
# Indices 1 2 3 4 5 6 
#
# 1 0.025697 -0.005767 -0.003034 0.000000 0.000000 0.000000
# 2 -0.005767 0.016417 -0.008620 0.000000 0.000000 0.000000
# 3 -0.003034 -0.008620 0.012905 0.000000 0.000000 0.000000
# 4 0.000000 0.000000 0.000000 0.039354 0.000000 0.000000
# 5 0.000000 0.000000 0.000000 0.000000 0.036321 0.000000
# 6 0.000000 0.000000 0.000000 0.000000 0.000000 -0.000219
#
#
# Mechanical properties :
#
#
# Convention : Reuss Voigt Hill
#
# Bulk Modulus (GPa) = 49.56017 72.32520 60.94269
# Shear Modulus (GPa) = 29.06247 -893.12258 -432.03006
#
# Velocity S-wave (km/s) = 4.25353 -23.57970 -16.39984
# Velocity P-wave (km/s) = 7.41461 26.38771 17.90719
#
# Compressibility (1/GPa) = 0.02017749
#
# Stress axis : x y z
#
# Youngs Moduli (GPa) = 38.91521 60.91186 77.48895
#
# Poissons Ratio (x) = 0.35125 0.23509
# Poissons Ratio (y) = 0.22441 0.66799
# Poissons Ratio (z) = 0.11806 0.52509
#
# Static dielectric constant tensor:
#      x y z
#    x 1.543310 0.000000 0.000000 
#    y 0.000000 1.526250 0.000000 
#    z 0.000000 0.000000 1.522170 
# 
# From -- ./inp_files/10227.got.cif
#   From: 2010.05.17/outbox.cif.g08.bks.cpg/sg40_6_cif.got.tgz:10227.got - 2010.06.03 18:35:42.
