data_PCOD9363319
_publ_section_title
;
Structure prediction by ZEFSAII (Michael W. Deem and Ramdas Pophale) SiO2 
 PCOD9363319
Probable space group: A M A 2
;
_chemical_formula_sum "Si O2"
_cell_formula_units_Z 64
_cell_length_a 21.575326
_cell_length_b 19.690600
_cell_length_c 7.500418
_cell_angle_alpha 90.000000
_cell_angle_beta 90.000000
_cell_angle_gamma 90.000000
_cell_volume 3186.410935
_symmetry_space_group_name_H-M "A M A 2"
_symmetry_group_IT_number 40
_symmetry_cell_setting 'orthorhombic'
loop_
_space_group_symop_operation_xyz
x,y,z
-x,-y,z
1/2-x,y,z
1/2+x,-y,z
x,1/2+y,1/2+z
-x,1/2-y,1/2+z
1/2-x,1/2+y,1/2+z
1/2+x,1/2-y,1/2+z
loop_
_atom_site_type_symbol
_atom_site_label
_atom_site_fract_x
_atom_site_fract_y
_atom_site_fract_z
Si Si1 0.177920 0.707671 0.383770
Si Si2 0.582856 0.683688 0.723654
Si Si3 0.501399 0.212681 0.564576
Si Si4 0.821051 0.073057 0.097620
Si Si5 0.821172 0.608175 0.209574
Si Si6 0.874329 0.257737 0.753533
Si Si7 0.117839 0.637485 0.078625
Si Si8 0.176888 0.503701 0.940485
O O1 0.250000 0.722274 0.372588
O O2 0.136840 0.767700 0.299318
O O3 0.157470 0.702896 0.588159
O O4 0.159285 0.646288 0.254676
O O5 0.543642 0.720698 0.567439
O O6 0.621065 0.619999 0.653851
O O7 0.534962 0.682405 0.889741
O O8 0.556395 0.239687 0.688964
O O9 0.453454 0.154802 0.629833
O O10 0.750000 0.102096 0.125378
O O11 0.824447 0.009693 0.229681
O O12 0.826018 0.062395 0.886664
O O13 0.750000 0.620341 0.163553
O O14 0.845465 0.682392 0.261889
O O15 0.845583 0.565111 0.042365
O O16 0.867200 0.305626 0.925893
O O17 0.133652 0.565278 0.996529
O O18 0.250000 0.515465 0.989102
#
# Coordination Sequence:
#
# PCOD9363319 Si02
#       8
#     8   8   8   8   8   8   8   8
#     4  10  21  34  55  91 123 152 200 259 313 373
#     4  10  19  34  57  85 116 159 199 253 305 360
#     4  10  20  36  57  84 119 160 204 252 302 365
#     4  10  21  38  62  88 118 162 212 260 313 380
#     4  10  21  38  62  89 121 157 202 258 318 379
#     4  11  22  38  63  92 121 165 208 261 315 375
#     4  11  23  40  62  88 127 167 209 255 324 381
#     4  10  22  40  61  89 125 163 203 259 325 384
#
# _framework density 20.085293
#
# number of rings (size 3 to 8) (size 9 to 14) (size 15 to 20)
#    0.000    1.750    1.250    4.125    0.000    5.000 
#    0.000    3.750    0.000    1.500    0.000    0.000 
#    0.000    0.000    0.000    0.000    0.000    0.000 
#
# Total GULP energy -178205.305586 kJ/mol
# GULP energy per Si atom -5568.915800 kJ/mol
# Density = 2.003958 g / cm^3
# Si number density = 20.085293 Si / 1000 Ang^3
#
#
#
# Elastic Constant Matrix: (Units=GPa)
#
#
# Indices 1 2 3 4 5 6 
#
# 1 97.3424 14.6140 13.3089 0.0000 0.0000 0.0000
# 2 14.6140 55.7009 8.1365 0.0000 0.0000 0.0000
# 3 13.3089 8.1365 95.9030 0.0000 0.0000 0.0000
# 4 0.0000 0.0000 0.0000 21.8409 0.0000 0.0000
# 5 0.0000 0.0000 0.0000 0.0000 18.5468 0.0000
# 6 0.0000 0.0000 0.0000 0.0000 0.0000 17.9724
#
#
#
# Elastic Compliance Matrix: (Units=1/GPa)
#
#
# Indices 1 2 3 4 5 6 
#
# 1 0.010847 -0.002659 -0.001280 0.000000 0.000000 0.000000
# 2 -0.002659 0.018830 -0.001229 0.000000 0.000000 0.000000
# 3 -0.001280 -0.001229 0.010709 0.000000 0.000000 0.000000
# 4 0.000000 0.000000 0.000000 0.045786 0.000000 0.000000
# 5 0.000000 0.000000 0.000000 0.000000 0.053918 0.000000
# 6 0.000000 0.000000 0.000000 0.000000 0.000000 0.055641
#
#
# Mechanical properties :
#
#
# Convention : Reuss Voigt Hill
#
# Bulk Modulus (GPa) = 33.27590 35.67389 34.47489
# Shear Modulus (GPa) = 23.13932 25.86448 24.50190
#
# Velocity S-wave (km/s) = 3.39787 3.59239 3.49648
# Velocity P-wave (km/s) = 5.65662 5.91665 5.78810
#
# Compressibility (1/GPa) = 0.03005178
#
# Stress axis : x y z
#
# Youngs Moduli (GPa) = 92.18990 53.10639 93.37915
#
# Poissons Ratio (x) = 0.14121 0.11950
# Poissons Ratio (y) = 0.24513 0.11472
# Poissons Ratio (z) = 0.11798 0.06524
#
# Static dielectric constant tensor:
#      x y z
#    x 1.745060 0.000000 0.000000 
#    y 0.000000 1.718490 0.000000 
#    z 0.000000 0.000000 1.793300 
# 
# From -- ./inp_files/8532.got.cif
#   From: 2010.05.17/outbox.cif.g08.bks.cpg/sg40_5_cif.got.tgz:8532.got - 2010.06.03 18:35:42.
