data_PCOD9363260
_publ_section_title
;
Structure prediction by ZEFSAII (Michael W. Deem and Ramdas Pophale) SiO2 
 PCOD9363260
Probable space group: A M A 2
;
_chemical_formula_sum "Si O2"
_cell_formula_units_Z 64
_cell_length_a 8.611793
_cell_length_b 14.919990
_cell_length_c 24.785977
_cell_angle_alpha 90.000000
_cell_angle_beta 90.000000
_cell_angle_gamma 90.000000
_cell_volume 3184.697278
_symmetry_space_group_name_H-M "A M A 2"
_symmetry_group_IT_number 40
_symmetry_cell_setting 'orthorhombic'
loop_
_space_group_symop_operation_xyz
x,y,z
-x,-y,z
1/2-x,y,z
1/2+x,-y,z
x,1/2+y,1/2+z
-x,1/2-y,1/2+z
1/2-x,1/2+y,1/2+z
1/2+x,1/2-y,1/2+z
loop_
_atom_site_type_symbol
_atom_site_label
_atom_site_fract_x
_atom_site_fract_y
_atom_site_fract_z
Si Si1 0.429617 0.737425 0.753800
Si Si2 0.937740 0.698903 0.560270
Si Si3 0.562809 0.180747 0.938589
Si Si4 0.935753 0.599843 0.667340
Si Si5 0.562703 0.597797 0.323380
Si Si6 0.572145 0.919970 0.336766
Si Si7 0.074078 0.374430 0.944933
Si Si8 0.069537 0.094724 0.555146
O O1 0.250000 0.750368 0.736486
O O2 0.515058 0.678727 0.708713
O O3 0.492991 0.830272 0.778468
O O4 0.429634 0.672522 0.805545
O O5 0.750000 0.705507 0.562772
O O6 0.971113 0.656082 0.501220
O O7 0.990366 0.635986 0.608761
O O8 0.993581 0.803506 0.567308
O O9 0.750000 0.198195 0.935516
O O10 0.522054 0.122639 0.885867
O O11 0.466089 0.271421 0.934581
O O12 0.750000 0.593723 0.667941
O O13 0.000000 0.500000 0.677412
O O14 0.500000 0.500000 0.311264
O O15 0.750000 0.599884 0.321136
O O16 0.750000 0.935502 0.352025
O O17 0.458878 0.915649 0.387317
O O18 0.500000 0.000000 0.301409
O O19 0.250000 0.388224 0.963537
O O20 0.955915 0.407299 0.990489
O O21 0.250000 0.094394 0.569006
O O22 0.000000 0.000000 0.576140
#
# Coordination Sequence:
#
# PCOD9363260 Si02
#       8
#     8   8   8   8   8   8   8   8
#     4  10  22  41  61  83 114 153 196 243 294 348
#     4   8  18  36  60  85 115 156 198 238 292 350
#     4   9  17  36  59  81 116 160 196 239 290 344
#     4  11  23  41  64  91 119 154 197 247 302 357
#     4  10  21  38  61  89 120 155 195 239 294 352
#     4  11  21  34  51  75 108 146 190 235 288 345
#     4  11  20  30  48  78 113 150 192 234 283 344
#     4  10  19  34  54  78 113 155 196 238 288 345
#
# _framework density 20.096101999999998
#
# number of rings (size 3 to 8) (size 9 to 14) (size 15 to 20)
#    0.000    2.000    1.250    3.750    0.000    3.500 
#    0.000    6.875    0.000    3.000    0.000    0.000 
#    0.000    0.000    0.000    0.000    0.000    0.000 
#
# Total GULP energy -178227.537685 kJ/mol
# GULP energy per Si atom -5569.610553 kJ/mol
# Density = 2.005036 g / cm^3
# Si number density = 20.096102 Si / 1000 Ang^3
#
#
#
# Elastic Constant Matrix: (Units=GPa)
#
#
# Indices 1 2 3 4 5 6 
#
# 1 26.8202 22.6124 18.2739 0.0000 0.0000 0.0000
# 2 22.6124 139.3616 58.1833 0.0000 0.0000 0.0000
# 3 18.2739 58.1833 99.5009 0.0000 0.0000 0.0000
# 4 0.0000 0.0000 0.0000 6.8597 0.0000 0.0000
# 5 0.0000 0.0000 0.0000 0.0000 10.7530 0.0000
# 6 0.0000 0.0000 0.0000 0.0000 0.0000 30.5004
#
#
#
# Elastic Compliance Matrix: (Units=1/GPa)
#
#
# Indices 1 2 3 4 5 6 
#
# 1 0.045221 -0.005120 -0.005311 0.000000 0.000000 0.000000
# 2 -0.005120 0.010073 -0.004950 0.000000 0.000000 0.000000
# 3 -0.005311 -0.004950 0.013920 0.000000 0.000000 0.000000
# 4 0.000000 0.000000 0.000000 0.145779 0.000000 0.000000
# 5 0.000000 0.000000 0.000000 0.000000 0.092998 0.000000
# 6 0.000000 0.000000 0.000000 0.000000 0.000000 0.032786
#
#
# Mechanical properties :
#
#
# Convention : Reuss Voigt Hill
#
# Bulk Modulus (GPa) = 26.00662 51.53576 38.77119
# Shear Modulus (GPa) = 13.00878 20.73015 16.86946
#
# Velocity S-wave (km/s) = 2.54702 3.21526 2.90045
# Velocity P-wave (km/s) = 4.64962 6.28365 5.52735
#
# Compressibility (1/GPa) = 0.03845175
#
# Stress axis : x y z
#
# Youngs Moduli (GPa) = 22.11374 99.27651 71.83908
#
# Poissons Ratio (x) = 0.50829 0.38155
# Poissons Ratio (y) = 0.11322 0.35559
# Poissons Ratio (z) = 0.11745 0.49140
#
# Static dielectric constant tensor:
#      x y z
#    x 1.696320 0.000000 0.000000 
#    y 0.000000 1.814790 0.000000 
#    z 0.000000 0.000000 1.758630 
# 
# From -- ./inp_files/24232.got.cif
#   From: 2010.05.17/outbox.cif.g08.bks.cpg/sg40_13_cif.got.tgz:24232.got - 2010.06.03 18:35:42.
