data_PCOD9363155
_publ_section_title
;
Structure prediction by ZEFSAII (Michael W. Deem and Ramdas Pophale) SiO2 
 PCOD9363155
Probable space group: A M A 2
;
_chemical_formula_sum "Si O2"
_cell_formula_units_Z 48
_cell_length_a 17.336089
_cell_length_b 8.797654
_cell_length_c 16.683319
_cell_angle_alpha 90.000000
_cell_angle_beta 90.000000
_cell_angle_gamma 90.000000
_cell_volume 2544.488308
_symmetry_space_group_name_H-M "A M A 2"
_symmetry_group_IT_number 40
_symmetry_cell_setting 'orthorhombic'
loop_
_space_group_symop_operation_xyz
x,y,z
-x,-y,z
1/2-x,y,z
1/2+x,-y,z
x,1/2+y,1/2+z
-x,1/2-y,1/2+z
1/2-x,1/2+y,1/2+z
1/2+x,1/2-y,1/2+z
loop_
_atom_site_type_symbol
_atom_site_label
_atom_site_fract_x
_atom_site_fract_y
_atom_site_fract_z
Si Si1 0.575690 0.893709 0.803520
Si Si2 0.340665 0.210563 0.372693
Si Si3 0.342315 0.736381 0.542140
Si Si4 0.077909 0.407016 0.894093
Si Si5 0.091570 0.467153 0.465758
Si Si6 0.158294 0.887599 0.709337
O O1 0.562224 0.718640 0.824694
O O2 0.620082 0.952120 0.883149
O O3 0.500000 0.000000 0.801307
O O4 0.622249 0.946805 0.726141
O O5 0.250000 0.236717 0.386457
O O6 0.388162 0.293949 0.444345
O O7 0.361975 0.283671 0.286550
O O8 0.359909 0.033416 0.369938
O O9 0.250000 0.754022 0.531018
O O10 0.390116 0.822603 0.472923
O O11 0.364793 0.558265 0.534817
O O12 0.365346 0.807864 0.627237
O O13 0.000000 0.500000 0.909734
O O14 0.000000 0.500000 0.473785
O O15 0.250000 0.901590 0.707935
#
# Coordination Sequence:
#
# PCOD9363155 Si02
#       6
#     8   8   8   8   8   8
#     4   9  18  34  55  75 100 138 182 225 273 325
#     4  10  19  33  53  78 105 137 176 222 272 328
#     4  10  20  35  54  78 107 142 180 223 274 331
#     4  11  21  34  54  80 108 138 181 234 278 331
#     4   9  17  33  55  77 104 141 182 220 264 326
#     4   9  19  35  54  76 106 140 179 222 270 331
#
# _framework density 18.864304000000001
#
# number of rings (size 3 to 8) (size 9 to 14) (size 15 to 20)
#    0.000    2.333    0.000    5.000    0.000    5.333 
#    0.000    4.167    0.000    4.000    0.000    0.000 
#    0.000    0.000    0.000    0.000    0.000    0.000 
#
# Total GULP energy -133620.160199 kJ/mol
# GULP energy per Si atom -5567.506675 kJ/mol
# Density = 1.882137 g / cm^3
# Si number density = 18.864304 Si / 1000 Ang^3
#
#
#
# Elastic Constant Matrix: (Units=GPa)
#
#
# Indices 1 2 3 4 5 6 
#
# 1 54.1733 36.4634 37.3849 0.0000 0.0000 0.0000
# 2 36.4634 129.1613 52.3575 0.0000 0.0000 0.0000
# 3 37.3849 52.3575 89.6272 0.0000 0.0000 0.0000
# 4 0.0000 0.0000 0.0000 25.3973 0.0000 0.0000
# 5 0.0000 0.0000 0.0000 0.0000 10.8072 0.0000
# 6 0.0000 0.0000 0.0000 0.0000 0.0000 31.4223
#
#
#
# Elastic Compliance Matrix: (Units=1/GPa)
#
#
# Indices 1 2 3 4 5 6 
#
# 1 0.027465 -0.004075 -0.009076 0.000000 0.000000 0.000000
# 2 -0.004075 0.010749 -0.004580 0.000000 0.000000 0.000000
# 3 -0.009076 -0.004580 0.017618 0.000000 0.000000 0.000000
# 4 0.000000 0.000000 0.000000 0.039374 0.000000 0.000000
# 5 0.000000 0.000000 0.000000 0.000000 0.092531 0.000000
# 6 0.000000 0.000000 0.000000 0.000000 0.000000 0.031825
#
#
# Mechanical properties :
#
#
# Convention : Reuss Voigt Hill
#
# Bulk Modulus (GPa) = 49.08660 58.37481 53.73070
# Shear Modulus (GPa) = 19.09760 23.30910 21.20335
#
# Velocity S-wave (km/s) = 3.18522 3.51895 3.35624
# Velocity P-wave (km/s) = 6.29324 6.89365 6.60028
#
# Compressibility (1/GPa) = 0.02037216
#
# Stress axis : x y z
#
# Youngs Moduli (GPa) = 36.40986 93.03202 56.75921
#
# Poissons Ratio (x) = 0.37907 0.51514
# Poissons Ratio (y) = 0.14836 0.25994
# Poissons Ratio (z) = 0.33045 0.42605
#
# Static dielectric constant tensor:
#      x y z
#    x 1.694810 0.000000 0.000000 
#    y 0.000000 1.740870 0.000000 
#    z 0.000000 0.000000 1.662700 
# 
# From -- ./inp_files/17641.got.cif
#   From: 2010.05.17/outbox.cif.g08.bks.cpg/sg40_9_cif.got.tgz:17641.got - 2010.06.03 18:35:42.
