data_PCOD9363272
_publ_section_title
;
Structure prediction by ZEFSAII (Michael W. Deem and Ramdas Pophale) SiO2 
 PCOD9363272
Probable space group: A M A 2
;
_chemical_formula_sum "Si O2"
_cell_formula_units_Z 64
_cell_length_a 8.786262
_cell_length_b 21.077161
_cell_length_c 20.054558
_cell_angle_alpha 90.000000
_cell_angle_beta 90.000000
_cell_angle_gamma 90.000000
_cell_volume 3713.892742
_symmetry_space_group_name_H-M "A M A 2"
_symmetry_group_IT_number 40
_symmetry_cell_setting 'orthorhombic'
loop_
_space_group_symop_operation_xyz
x,y,z
-x,-y,z
1/2-x,y,z
1/2+x,-y,z
x,1/2+y,1/2+z
-x,1/2-y,1/2+z
1/2-x,1/2+y,1/2+z
1/2+x,1/2-y,1/2+z
loop_
_atom_site_type_symbol
_atom_site_label
_atom_site_fract_x
_atom_site_fract_y
_atom_site_fract_z
Si Si1 0.067989 0.736059 0.082900
Si Si2 0.066797 0.932796 0.933950
Si Si3 0.068652 0.764577 0.722887
Si Si4 0.066623 0.566094 0.860552
Si Si5 0.433645 0.193923 0.437117
Si Si6 0.067389 0.614910 0.718237
Si Si7 0.431985 0.885619 0.078189
Si Si8 0.931199 0.312950 0.357209
O O1 0.250000 0.732111 0.093825
O O2 0.030905 0.810590 0.071352
O O3 0.982293 0.714588 0.149266
O O4 0.029898 0.699158 0.015322
O O5 0.250000 0.933233 0.932183
O O6 0.005845 0.875059 0.889670
O O7 0.017299 0.920017 0.010813
O O8 0.000000 0.000000 0.912005
O O9 0.250000 0.769471 0.731114
O O10 0.027196 0.689501 0.727319
O O11 0.986068 0.801879 0.781632
O O12 0.250000 0.563049 0.860439
O O13 0.023065 0.627114 0.904341
O O14 0.014928 0.578618 0.784280
O O15 0.000000 0.500000 0.885023
O O16 0.250000 0.201542 0.430096
O O17 0.510981 0.251780 0.398390
O O18 0.250000 0.611481 0.715027
O O19 0.001693 0.591937 0.647955
O O20 0.250000 0.890977 0.082530
O O21 0.750000 0.317356 0.360607
#
# Coordination Sequence:
#
# PCOD9363272 Si02
#       8
#     8   8   8   8   8   8   8   8
#     4   9  17  32  55  82 108 139 180 226 277 332
#     4  11  23  40  57  79 112 151 188 230 281 333
#     4  10  19  34  55  80 112 144 177 227 281 329
#     4  10  21  36  53  76 108 148 186 223 273 323
#     4  10  19  37  59  79 110 148 183 227 283 331
#     4   9  18  32  51  74 107 147 185 222 267 324
#     4   9  18  32  52  76 107 144 180 221 268 320
#     4  12  23  35  57  86 111 143 188 233 275 331
#
# _framework density 17.232593000000001
#
# number of rings (size 3 to 8) (size 9 to 14) (size 15 to 20)
#    0.000    2.000    2.500    1.875    0.000    3.500 
#    0.000    2.500    0.000    0.750    0.000    3.500 
#    0.000    0.000    0.000    0.000    0.000    0.000 
#
# Total GULP energy -178648.537618 kJ/mol
# GULP energy per Si atom -5582.766801 kJ/mol
# Density = 1.719337 g / cm^3
# Si number density = 17.232593 Si / 1000 Ang^3
#
#
#
# Elastic Constant Matrix: (Units=GPa)
#
#
# Indices 1 2 3 4 5 6 
#
# 1 42.4767 40.1905 39.3619 0.0000 0.0000 0.0000
# 2 40.1905 113.3242 58.9546 0.0000 0.0000 0.0000
# 3 39.3619 58.9546 106.1165 0.0000 0.0000 0.0000
# 4 0.0000 0.0000 0.0000 19.3999 0.0000 0.0000
# 5 0.0000 0.0000 0.0000 0.0000 26.9547 0.0000
# 6 0.0000 0.0000 0.0000 0.0000 0.0000 18.8724
#
#
#
# Elastic Compliance Matrix: (Units=1/GPa)
#
#
# Indices 1 2 3 4 5 6 
#
# 1 0.042177 -0.009591 -0.010316 0.000000 0.000000 0.000000
# 2 -0.009591 0.014593 -0.004549 0.000000 0.000000 0.000000
# 3 -0.010316 -0.004549 0.015778 0.000000 0.000000 0.000000
# 4 0.000000 0.000000 0.000000 0.051547 0.000000 0.000000
# 5 0.000000 0.000000 0.000000 0.000000 0.037099 0.000000
# 6 0.000000 0.000000 0.000000 0.000000 0.000000 0.052987
#
#
# Mechanical properties :
#
#
# Convention : Reuss Voigt Hill
#
# Bulk Modulus (GPa) = 42.31277 59.88127 51.09702
# Shear Modulus (GPa) = 18.45205 21.27276 19.86241
#
# Velocity S-wave (km/s) = 3.27580 3.51728 3.39869
# Velocity P-wave (km/s) = 6.23820 7.16375 6.71693
#
# Compressibility (1/GPa) = 0.02363352
#
# Stress axis : x y z
#
# Youngs Moduli (GPa) = 23.70946 68.52817 63.38066
#
# Poissons Ratio (x) = 0.65728 0.65385
# Poissons Ratio (y) = 0.22741 0.28834
# Poissons Ratio (z) = 0.24459 0.31176
#
# Static dielectric constant tensor:
#      x y z
#    x 1.578190 0.000000 0.000000 
#    y 0.000000 1.571540 0.000000 
#    z 0.000000 0.000000 1.585530 
# 
# From -- ./inp_files/19598.got.cif
#   From: 2010.05.17/outbox.cif.g08.bks.cpg/sg40_10_cif.got.tgz:19598.got - 2010.06.03 18:35:42.
