data_PCOD9363307
_publ_section_title
;
Structure prediction by ZEFSAII (Michael W. Deem and Ramdas Pophale) SiO2 
 PCOD9363307
Probable space group: A M A 2
;
_chemical_formula_sum "Si O2"
_cell_formula_units_Z 64
_cell_length_a 16.767454
_cell_length_b 12.598558
_cell_length_c 16.704445
_cell_angle_alpha 90.000000
_cell_angle_beta 90.000000
_cell_angle_gamma 90.000000
_cell_volume 3528.742874
_symmetry_space_group_name_H-M "A M A 2"
_symmetry_group_IT_number 40
_symmetry_cell_setting 'orthorhombic'
loop_
_space_group_symop_operation_xyz
x,y,z
-x,-y,z
1/2-x,y,z
1/2+x,-y,z
x,1/2+y,1/2+z
-x,1/2-y,1/2+z
1/2-x,1/2+y,1/2+z
1/2+x,1/2-y,1/2+z
loop_
_atom_site_type_symbol
_atom_site_label
_atom_site_fract_x
_atom_site_fract_y
_atom_site_fract_z
Si Si1 0.345118 0.143682 0.774730
Si Si2 0.845814 0.709767 0.185078
Si Si3 0.653456 0.449312 0.948357
Si Si4 0.653195 0.675430 0.889699
Si Si5 0.593731 0.481852 0.127182
Si Si6 0.346742 0.769290 0.867678
Si Si7 0.846383 0.836338 0.032768
Si Si8 0.594215 0.506481 0.416417
O O1 0.250000 0.147323 0.762390
O O2 0.373004 0.255328 0.813283
O O3 0.385738 0.106778 0.693212
O O4 0.363159 0.055970 0.843285
O O5 0.750000 0.717481 0.186587
O O6 0.867246 0.592291 0.155694
O O7 0.874533 0.725610 0.275472
O O8 0.873490 0.795906 0.119592
O O9 0.750000 0.451220 0.947319
O O10 0.625360 0.555375 0.902036
O O11 0.627054 0.340591 0.907276
O O12 0.626045 0.454161 0.039807
O O13 0.750000 0.673459 0.886045
O O14 0.632823 0.743917 0.968693
O O15 0.500000 0.500000 0.123640
O O16 0.250000 0.773190 0.868353
O O17 0.378376 0.872310 0.913514
O O18 0.750000 0.846336 0.032630
O O19 0.882364 0.943834 0.996986
O O20 0.500000 0.500000 0.403645
#
# Coordination Sequence:
#
# PCOD9363307 Si02
#       8
#     8   8   8   8   8   8   8   8
#     4  10  19  34  57  83 108 140 189 239 273 322
#     4  10  19  35  58  79 102 141 192 235 268 322
#     4  10  20  38  58  81 114 149 186 231 286 342
#     4   8  15  30  55  82 103 135 182 226 271 322
#     4  12  23  34  53  86 115 147 186 233 290 340
#     4  10  21  36  57  83 112 145 184 235 287 336
#     4   9  17  32  57  82 103 141 192 231 262 323
#     4  11  21  33  54  83 118 146 179 228 292 333
#
# _framework density 18.136769999999999
#
# number of rings (size 3 to 8) (size 9 to 14) (size 15 to 20)
#    0.000    2.000    2.500    3.375    0.000    1.000 
#    0.000    1.250    0.000    5.250    0.000    0.000 
#    0.000    0.000    0.000    0.000    0.000    0.000 
#
# Total GULP energy -178581.034960 kJ/mol
# GULP energy per Si atom -5580.657342 kJ/mol
# Density = 1.809549 g / cm^3
# Si number density = 18.136770 Si / 1000 Ang^3
#
#
#
# Elastic Constant Matrix: (Units=GPa)
#
#
# Indices 1 2 3 4 5 6 
#
# 1 11.3307 18.2120 8.5257 0.0000 0.0000 0.0000
# 2 18.2120 170.2103 91.7388 0.0000 0.0000 0.0000
# 3 8.5257 91.7388 116.3716 0.0000 0.0000 0.0000
# 4 0.0000 0.0000 0.0000 40.2917 0.0000 0.0000
# 5 0.0000 0.0000 0.0000 0.0000 -5.9668 0.0000
# 6 0.0000 0.0000 0.0000 0.0000 0.0000 -8.2493
#
#
#
# Elastic Compliance Matrix: (Units=1/GPa)
#
#
# Indices 1 2 3 4 5 6 
#
# 1 0.106869 -0.012545 0.002060 0.000000 0.000000 0.000000
# 2 -0.012545 0.011688 -0.008295 0.000000 0.000000 0.000000
# 3 0.002060 -0.008295 0.014981 0.000000 0.000000 0.000000
# 4 0.000000 0.000000 0.000000 0.024819 0.000000 0.000000
# 5 0.000000 0.000000 0.000000 0.000000 -0.167595 0.000000
# 6 0.000000 0.000000 0.000000 0.000000 0.000000 -0.121222
#
#
# Mechanical properties :
#
#
# Convention : Reuss Voigt Hill
#
# Bulk Modulus (GPa) = 10.41895 59.42952 34.92424
# Shear Modulus (GPa) = -82.09369 17.17753 -32.45808
#
# Velocity S-wave (km/s) = -6.73513 3.08085 -4.23499
# Velocity P-wave (km/s) = 7.39767 6.74493 2.14841
#
# Compressibility (1/GPa) = 0.09597892
#
# Stress axis : x y z
#
# Youngs Moduli (GPa) = 9.35721 85.55685 66.74950
#
# Poissons Ratio (x) = 1.07331 -0.13750
# Poissons Ratio (y) = 0.11739 0.55369
# Poissons Ratio (z) = -0.01928 0.70969
#
# Static dielectric constant tensor:
#      x y z
#    x 1.594630 0.000000 0.000000 
#    y 0.000000 1.613210 0.000000 
#    z 0.000000 0.000000 1.616970 
# 
# From -- ./inp_files/20778.got.cif
#   From: 2010.05.17/outbox.cif.g08.bks.cpg/sg40_11_cif.got.tgz:20778.got - 2010.06.03 18:35:42.
