data_PCOD9363842
_publ_section_title
;
Structure prediction by ZEFSAII (Michael W. Deem and Ramdas Pophale) SiO2 
 PCOD9363842
Probable space group: A M A 2
;
_chemical_formula_sum "Si O2"
_cell_formula_units_Z 64
_cell_length_a 22.659343
_cell_length_b 14.939681
_cell_length_c 6.892271
_cell_angle_alpha 90.000000
_cell_angle_beta 90.000000
_cell_angle_gamma 90.000000
_cell_volume 2333.194710
_symmetry_space_group_name_H-M "A M A 2"
_symmetry_group_IT_number 40
_symmetry_cell_setting 'orthorhombic'
loop_
_space_group_symop_operation_xyz
x,y,z
-x,-y,z
1/2-x,y,z
1/2+x,-y,z
x,1/2+y,1/2+z
-x,1/2-y,1/2+z
1/2-x,1/2+y,1/2+z
1/2+x,1/2-y,1/2+z
loop_
_atom_site_type_symbol
_atom_site_label
_atom_site_fract_x
_atom_site_fract_y
_atom_site_fract_z
Si Si1 0.912254 0.081769 0.017570
Si Si2 0.151993 0.726157 0.505510
Si Si3 0.518988 0.816261 0.143206
Si Si4 0.002171 0.387005 0.075638
Si Si5 0.316455 0.076950 0.428043
Si Si6 0.814699 0.956154 0.961397
Si Si7 0.122443 0.408411 0.940886
Si Si8 0.682111 0.235227 0.938779
O O1 0.909486 0.058243 0.247353
O O2 0.978300 0.120541 0.002353
O O3 0.864314 0.159130 0.983489
O O4 0.878035 0.000266 0.916933
O O5 0.085094 0.694984 0.560286
O O6 0.182933 0.645778 0.395880
O O7 0.154205 0.817208 0.386156
O O8 0.183910 0.752842 0.704959
O O9 0.519315 0.865708 0.353720
O O10 0.488427 0.716348 0.161923
O O11 0.072964 0.380657 0.090931
O O12 0.000000 0.500000 0.110851
O O13 0.250000 0.093090 0.483312
O O14 0.347292 0.168169 0.487191
O O15 0.338403 0.986692 0.521232
O O16 0.315818 0.056654 0.197372
O O17 0.750000 0.997414 0.915326
O O18 0.750000 0.218971 0.003656
#
# Coordination Sequence:
#
# PCOD9363842 Si02
#       8
#     8   8   8   8   8   8   8   8
#     4  10  20  35  57  81 115 149 198 253 293 375
#     4  10  20  35  56  81 119 146 198 252 295 379
#     4  10  22  36  60  95 119 164 213 259 323 383
#     4  10  22  38  62  86 125 165 207 261 314 380
#     4   8  16  30  51  77 102 136 188 230 280 352
#     4   9  18  33  53  78 107 148 192 238 295 358
#     4   9  20  35  53  83 109 148 194 239 307 360
#     4  10  20  35  57  83 111 156 199 246 306 362
#
# _framework density 27.430202000000001
#
# number of rings (size 3 to 8) (size 9 to 14) (size 15 to 20)
#    0.000    2.500    0.000    2.250    8.750    1.500 
#    0.000    1.875   11.000    1.500    0.000    0.000 
#    0.000    0.000    0.000    0.000    0.000    0.000 
#
# Total GULP energy -178269.170995 kJ/mol
# GULP energy per Si atom -5570.911594 kJ/mol
# Density = 2.736777 g / cm^3
# Si number density = 27.430202 Si / 1000 Ang^3
#
#
#
# Elastic Constant Matrix: (Units=GPa)
#
#
# Indices 1 2 3 4 5 6 
#
# 1 119.5568 25.3031 -9.8115 0.0000 0.0000 0.0000
# 2 25.3031 166.0640 -18.9183 0.0000 0.0000 0.0000
# 3 -9.8115 -18.9183 80.0416 0.0000 0.0000 0.0000
# 4 0.0000 0.0000 0.0000 26.6896 0.0000 0.0000
# 5 0.0000 0.0000 0.0000 0.0000 26.7491 0.0000
# 6 0.0000 0.0000 0.0000 0.0000 0.0000 36.9835
#
#
#
# Elastic Compliance Matrix: (Units=1/GPa)
#
#
# Indices 1 2 3 4 5 6 
#
# 1 0.008689 -0.001236 0.000773 0.000000 0.000000 0.000000
# 2 -0.001236 0.006364 0.001353 0.000000 0.000000 0.000000
# 3 0.000773 0.001353 0.012908 0.000000 0.000000 0.000000
# 4 0.000000 0.000000 0.000000 0.037468 0.000000 0.000000
# 5 0.000000 0.000000 0.000000 0.000000 0.037384 0.000000
# 6 0.000000 0.000000 0.000000 0.000000 0.000000 0.027039
#
#
# Mechanical properties :
#
#
# Convention : Reuss Voigt Hill
#
# Bulk Modulus (GPa) = 33.62360 39.86769 36.74565
# Shear Modulus (GPa) = 36.23535 42.69037 39.46286
#
# Velocity S-wave (km/s) = 3.63850 3.94931 3.79709
# Velocity P-wave (km/s) = 5.47139 5.94658 5.71393
#
# Compressibility (1/GPa) = 0.02974102
#
# Stress axis : x y z
#
# Youngs Moduli (GPa) = 115.08495 157.12910 77.47145
#
# Poissons Ratio (x) = 0.19420 -0.05989
# Poissons Ratio (y) = 0.14224 -0.10480
# Poissons Ratio (z) = -0.08896 -0.21255
#
# Static dielectric constant tensor:
#      x y z
#    x 2.126880 0.000000 0.000000 
#    y 0.000000 2.322350 0.000000 
#    z 0.000000 0.000000 2.296530 
# 
# From -- ./inp_files/8894.got.cif
#   From: 2010.05.17/outbox.cif.g08.bks.cpg/sg40_5_cif.got.tgz:8894.got - 2010.06.03 18:35:42.
