data_PCOD9363777
_publ_section_title
;
Structure prediction by ZEFSAII (Michael W. Deem and Ramdas Pophale) SiO2 
 PCOD9363777
Probable space group: A M A 2
;
_chemical_formula_sum "Si O2"
_cell_formula_units_Z 64
_cell_length_a 18.631615
_cell_length_b 9.002375
_cell_length_c 17.427558
_cell_angle_alpha 90.000000
_cell_angle_beta 90.000000
_cell_angle_gamma 90.000000
_cell_volume 2923.103130
_symmetry_space_group_name_H-M "A M A 2"
_symmetry_group_IT_number 40
_symmetry_cell_setting 'orthorhombic'
loop_
_space_group_symop_operation_xyz
x,y,z
-x,-y,z
1/2-x,y,z
1/2+x,-y,z
x,1/2+y,1/2+z
-x,1/2-y,1/2+z
1/2-x,1/2+y,1/2+z
1/2+x,1/2-y,1/2+z
loop_
_atom_site_type_symbol
_atom_site_label
_atom_site_fract_x
_atom_site_fract_y
_atom_site_fract_z
Si Si1 0.055425 0.874720 0.823470
Si Si2 0.875179 0.743940 0.030042
Si Si3 0.670477 0.358253 0.805049
Si Si4 0.534051 0.231448 0.986288
Si Si5 0.331188 0.825317 0.224843
Si Si6 0.165550 0.617084 0.367059
Si Si7 0.079798 0.979035 0.108943
Si Si8 0.328786 0.072819 0.487280
O O1 0.101985 0.744560 0.783025
O O2 0.018639 0.794839 0.896356
O O3 0.120443 0.969266 0.858869
O O4 0.000000 0.000000 0.790358
O O5 0.849431 0.810843 0.949023
O O6 0.835478 0.586143 0.029648
O O7 0.960541 0.717346 0.024389
O O8 0.872463 0.872447 0.095464
O O9 0.750000 0.286485 0.795358
O O10 0.669044 0.506831 0.755893
O O11 0.668364 0.419412 0.893351
O O12 0.598413 0.341718 0.003686
O O13 0.562170 0.079379 0.023672
O O14 0.250000 0.782084 0.203825
O O15 0.355129 0.721925 0.295031
O O16 0.382127 0.844146 0.152579
O O17 0.250000 0.589887 0.361149
O O18 0.000000 0.000000 0.144532
O O19 0.250000 0.137038 0.507096
#
# Coordination Sequence:
#
# PCOD9363777 Si02
#       8
#     8   8   8   8   8   8   8   8
#     4  11  19  34  55  86 116 147 195 242 294 355
#     4  11  19  37  60  86 119 155 196 248 298 352
#     4   9  19  35  54  80 119 151 185 244 303 346
#     4  10  20  37  57  86 121 152 189 249 302 349
#     4  10  22  40  58  84 119 156 196 245 301 361
#     4  11  21  35  58  87 120 152 198 252 295 347
#     4  10  22  40  60  84 121 156 197 244 298 364
#     4  10  20  34  56  89 118 146 195 248 296 353
#
# _framework density 21.894539999999999
#
# number of rings (size 3 to 8) (size 9 to 14) (size 15 to 20)
#    0.000    1.750    3.750    1.500    0.000    3.000 
#    0.000    1.250    0.000    0.000    0.000    0.000 
#    0.000    0.000    0.000    0.000    0.000    0.000 
#
# Total GULP energy -178235.845444 kJ/mol
# GULP energy per Si atom -5569.870170 kJ/mol
# Density = 2.184471 g / cm^3
# Si number density = 21.894540 Si / 1000 Ang^3
#
#
#
# Elastic Constant Matrix: (Units=GPa)
#
#
# Indices 1 2 3 4 5 6 
#
# 1 74.5793 6.2401 8.4799 0.0000 0.0000 0.0000
# 2 6.2401 40.3589 -6.5709 0.0000 0.0000 0.0000
# 3 8.4799 -6.5709 45.6611 0.0000 0.0000 0.0000
# 4 0.0000 0.0000 0.0000 18.2554 0.0000 0.0000
# 5 0.0000 0.0000 0.0000 0.0000 -33.9166 0.0000
# 6 0.0000 0.0000 0.0000 0.0000 0.0000 34.0399
#
#
#
# Elastic Compliance Matrix: (Units=1/GPa)
#
#
# Indices 1 2 3 4 5 6 
#
# 1 0.013968 -0.002644 -0.002975 0.000000 0.000000 0.000000
# 2 -0.002644 0.025873 0.004214 0.000000 0.000000 0.000000
# 3 -0.002975 0.004214 0.023059 0.000000 0.000000 0.000000
# 4 0.000000 0.000000 0.000000 0.054778 0.000000 0.000000
# 5 0.000000 0.000000 0.000000 0.000000 -0.029484 0.000000
# 6 0.000000 0.000000 0.000000 0.000000 0.000000 0.029377
#
#
# Mechanical properties :
#
#
# Convention : Reuss Voigt Hill
#
# Bulk Modulus (GPa) = 16.64130 19.65528 18.14829
# Shear Modulus (GPa) = 35.60989 13.83909 24.72449
#
# Velocity S-wave (km/s) = 4.03727 2.51685 3.36408
# Velocity P-wave (km/s) = 5.41756 4.17645 4.83698
#
# Compressibility (1/GPa) = 0.06009147
#
# Stress axis : x y z
#
# Youngs Moduli (GPa) = 71.59236 38.65090 43.36641
#
# Poissons Ratio (x) = 0.10219 0.12899
# Poissons Ratio (y) = 0.18929 -0.18276
# Poissons Ratio (z) = 0.21295 -0.16288
#
# Static dielectric constant tensor:
#      x y z
#    x 1.925840 0.000000 0.000000 
#    y 0.000000 1.852530 0.000000 
#    z 0.000000 0.000000 1.845560 
# 
# From -- ./inp_files/21398.got.cif
#   From: 2010.05.17/outbox.cif.g08.bks.cpg/sg40_11_cif.got.tgz:21398.got - 2010.06.03 18:35:42.
