data_PCOD9363735
_publ_section_title
;
Structure prediction by ZEFSAII (Michael W. Deem and Ramdas Pophale) SiO2 
 PCOD9363735
Probable space group: A M A 2
;
_chemical_formula_sum "Si O2"
_cell_formula_units_Z 48
_cell_length_a 8.664419
_cell_length_b 9.595960
_cell_length_c 31.981800
_cell_angle_alpha 90.000000
_cell_angle_beta 90.000000
_cell_angle_gamma 90.000000
_cell_volume 2659.076171
_symmetry_space_group_name_H-M "A M A 2"
_symmetry_group_IT_number 40
_symmetry_cell_setting 'orthorhombic'
loop_
_space_group_symop_operation_xyz
x,y,z
-x,-y,z
1/2-x,y,z
1/2+x,-y,z
x,1/2+y,1/2+z
-x,1/2-y,1/2+z
1/2-x,1/2+y,1/2+z
1/2+x,1/2-y,1/2+z
loop_
_atom_site_type_symbol
_atom_site_label
_atom_site_fract_x
_atom_site_fract_y
_atom_site_fract_z
Si Si1 0.565292 0.343685 0.346450
Si Si2 0.435031 0.654418 0.773202
Si Si3 0.935784 0.345641 0.678386
Si Si4 0.564029 0.656143 0.100717
Si Si5 0.564782 0.842484 0.938580
Si Si6 0.565533 0.157944 0.025525
O O1 0.500000 0.500000 0.344178
O O2 0.750000 0.349484 0.343845
O O3 0.499028 0.255041 0.308603
O O4 0.526208 0.282886 0.392711
O O5 0.500000 0.500000 0.780257
O O6 0.250000 0.652326 0.775001
O O7 0.481957 0.694634 0.725709
O O8 0.750000 0.354406 0.677498
O O9 0.983839 0.235405 0.643383
O O10 0.000000 0.500000 0.669445
O O11 0.500000 0.500000 0.099624
O O12 0.750000 0.653462 0.098789
O O13 0.499591 0.746702 0.062354
O O14 0.750000 0.845202 0.943260
O O15 0.500000 0.000000 0.937053
O O16 0.489815 0.782758 0.980533
O O17 0.750000 0.151587 0.026793
O O18 0.500000 0.000000 0.029662
#
# Coordination Sequence:
#
# PCOD9363735 Si02
#       6
#     8   8   8   8   8   8
#     4  10  20  34  54  81 111 144 181 222 268 317
#     4  10  20  36  56  80 110 143 180 222 268 317
#     4   9  20  37  58  81 105 138 180 222 264 316
#     4  11  23  39  56  79 111 143 177 219 270 322
#     4   9  17  31  52  78 107 139 179 223 265 312
#     4  11  21  35  57  83 109 141 181 222 266 316
#
# _framework density 18.051383999999999
#
# number of rings (size 3 to 8) (size 9 to 14) (size 15 to 20)
#    0.000    2.000    0.000    5.000    0.000    6.000 
#    0.000    2.500    0.000    4.000    0.000    0.000 
#    0.000    0.000    0.000    0.000    0.000    0.000 
#
# Total GULP energy -133932.694616 kJ/mol
# GULP energy per Si atom -5580.528942 kJ/mol
# Density = 1.801030 g / cm^3
# Si number density = 18.051384 Si / 1000 Ang^3
#
#
#
# Elastic Constant Matrix: (Units=GPa)
#
#
# Indices 1 2 3 4 5 6 
#
# 1 86.3970 42.3585 67.8305 0.0000 0.0000 0.0000
# 2 42.3585 92.6958 106.3845 0.0000 0.0000 0.0000
# 3 67.8305 106.3845 197.7722 0.0000 0.0000 0.0000
# 4 0.0000 0.0000 0.0000 29.4296 0.0000 0.0000
# 5 0.0000 0.0000 0.0000 0.0000 28.3871 0.0000
# 6 0.0000 0.0000 0.0000 0.0000 0.0000 29.8768
#
#
#
# Elastic Compliance Matrix: (Units=1/GPa)
#
#
# Indices 1 2 3 4 5 6 
#
# 1 0.016087 -0.002663 -0.004085 0.000000 0.000000 0.000000
# 2 -0.002663 0.028634 -0.014489 0.000000 0.000000 0.000000
# 3 -0.004085 -0.014489 0.014251 0.000000 0.000000 0.000000
# 4 0.000000 0.000000 0.000000 0.033979 0.000000 0.000000
# 5 0.000000 0.000000 0.000000 0.000000 0.035227 0.000000
# 6 0.000000 0.000000 0.000000 0.000000 0.000000 0.033471
#
#
# Mechanical properties :
#
#
# Convention : Reuss Voigt Hill
#
# Bulk Modulus (GPa) = 60.61383 90.00133 75.30758
# Shear Modulus (GPa) = 23.85235 28.22481 26.03858
#
# Velocity S-wave (km/s) = 3.63899 3.95850 3.80211
# Velocity P-wave (km/s) = 7.16294 8.41782 7.81561
#
# Compressibility (1/GPa) = 0.01649789
#
# Stress axis : x y z
#
# Youngs Moduli (GPa) = 62.16108 34.92407 70.16933
#
# Poissons Ratio (x) = 0.09300 0.28664
# Poissons Ratio (y) = 0.16553 1.01669
# Poissons Ratio (z) = 0.25393 0.50602
#
# Static dielectric constant tensor:
#      x y z
#    x 1.609060 0.000000 0.000000 
#    y 0.000000 1.585830 0.000000 
#    z 0.000000 0.000000 1.654430 
# 
# From -- ./inp_files/26140.got.cif
#   From: 2010.05.17/outbox.cif.g08.bks.cpg/sg40_14_cif.got.tgz:26140.got - 2010.06.03 18:35:42.
