data_PCOD9363739
_publ_section_title
;
Structure prediction by ZEFSAII (Michael W. Deem and Ramdas Pophale) SiO2 
 PCOD9363739
Probable space group: A M A 2
;
_chemical_formula_sum "Si O2"
_cell_formula_units_Z 64
_cell_length_a 8.682477
_cell_length_b 16.312330
_cell_length_c 22.730455
_cell_angle_alpha 90.000000
_cell_angle_beta 90.000000
_cell_angle_gamma 90.000000
_cell_volume 3219.346847
_symmetry_space_group_name_H-M "A M A 2"
_symmetry_group_IT_number 40
_symmetry_cell_setting 'orthorhombic'
loop_
_space_group_symop_operation_xyz
x,y,z
-x,-y,z
1/2-x,y,z
1/2+x,-y,z
x,1/2+y,1/2+z
-x,1/2-y,1/2+z
1/2-x,1/2+y,1/2+z
1/2+x,1/2-y,1/2+z
loop_
_atom_site_type_symbol
_atom_site_label
_atom_site_fract_x
_atom_site_fract_y
_atom_site_fract_z
Si Si1 0.064915 0.766868 0.439780
Si Si2 0.567365 0.589238 0.473532
Si Si3 0.435000 0.912602 0.529679
Si Si4 0.570590 0.418300 0.602289
Si Si5 0.424785 0.114544 0.658548
Si Si6 0.435618 0.735483 0.815736
Si Si7 0.424098 0.304557 0.692609
Si Si8 0.431610 0.918016 0.783215
O O1 0.250000 0.763194 0.438312
O O2 0.020694 0.832949 0.490387
O O3 0.001932 0.674313 0.449098
O O4 0.998104 0.796586 0.377445
O O5 0.500000 0.500000 0.454446
O O6 0.750000 0.588784 0.463437
O O7 0.525791 0.594669 0.542842
O O8 0.250000 0.916399 0.530931
O O9 0.498661 0.902362 0.595948
O O10 0.500000 0.000000 0.507039
O O11 0.500000 0.500000 0.629939
O O12 0.750000 0.426685 0.587183
O O13 0.540587 0.348162 0.648802
O O14 0.250000 0.081173 0.659429
O O15 0.416398 0.211428 0.670204
O O16 0.518970 0.084429 0.714951
O O17 0.250000 0.730393 0.812461
O O18 0.512587 0.694448 0.758881
O O19 0.481896 0.831954 0.811042
O O20 0.250000 0.338749 0.689225
O O21 0.250000 0.922148 0.787676
O O22 0.500000 0.000000 0.810712
#
# Coordination Sequence:
#
# PCOD9363739 Si02
#       8
#     8   8   8   8   8   8   8   8
#     4  11  24  42  62  85 115 154 198 247 297 347
#     4  11  22  38  61  90 123 158 195 238 289 351
#     4  11  24  40  60  85 115 151 193 241 292 345
#     4  11  21  35  56  84 117 149 184 231 285 344
#     4  10  20  34  56  84 115 148 182 225 279 338
#     4  10  22  39  58  81 109 147 192 238 285 339
#     4  10  20  36  58  84 113 148 188 232 284 342
#     4  10  20  34  54  81 114 147 181 222 273 332
#
# _framework density 19.879809000000002
#
# number of rings (size 3 to 8) (size 9 to 14) (size 15 to 20)
#    0.000    1.500    0.000    6.375    0.000    7.500 
#    0.000    1.875    0.000    1.500    0.000    0.000 
#    0.000    0.000    0.000    0.000    0.000    0.000 
#
# Total GULP energy -178738.131384 kJ/mol
# GULP energy per Si atom -5585.566606 kJ/mol
# Density = 1.983456 g / cm^3
# Si number density = 19.879809 Si / 1000 Ang^3
#
#
#
# Elastic Constant Matrix: (Units=GPa)
#
#
# Indices 1 2 3 4 5 6 
#
# 1 67.3770 8.8645 12.1782 0.0000 0.0000 0.0000
# 2 8.8645 54.3487 25.3943 0.0000 0.0000 0.0000
# 3 12.1782 25.3943 89.9912 0.0000 0.0000 0.0000
# 4 0.0000 0.0000 0.0000 -3.0297 0.0000 0.0000
# 5 0.0000 0.0000 0.0000 0.0000 23.2967 0.0000
# 6 0.0000 0.0000 0.0000 0.0000 0.0000 1.3837
#
#
#
# Elastic Compliance Matrix: (Units=1/GPa)
#
#
# Indices 1 2 3 4 5 6 
#
# 1 0.015360 -0.001767 -0.001580 0.000000 0.000000 0.000000
# 2 -0.001767 0.021397 -0.005799 0.000000 0.000000 0.000000
# 3 -0.001580 -0.005799 0.012962 0.000000 0.000000 0.000000
# 4 0.000000 0.000000 0.000000 -0.330064 0.000000 0.000000
# 5 0.000000 0.000000 0.000000 0.000000 0.042925 0.000000
# 6 0.000000 0.000000 0.000000 0.000000 0.000000 0.722693
#
#
# Mechanical properties :
#
#
# Convention : Reuss Voigt Hill
#
# Bulk Modulus (GPa) = 31.81887 33.84341 32.83114
# Shear Modulus (GPa) = 9.72685 15.34881 12.53783
#
# Velocity S-wave (km/s) = 2.21437 2.78165 2.51406
# Velocity P-wave (km/s) = 4.75166 5.23237 4.99780
#
# Compressibility (1/GPa) = 0.03142789
#
# Stress axis : x y z
#
# Youngs Moduli (GPa) = 65.10452 46.73452 77.14631
#
# Poissons Ratio (x) = 0.08258 0.12189
# Poissons Ratio (y) = 0.11504 0.44737
# Poissons Ratio (z) = 0.10286 0.27101
#
# Static dielectric constant tensor:
#      x y z
#    x 1.684700 0.000000 0.000000 
#    y 0.000000 1.751300 0.000000 
#    z 0.000000 0.000000 1.682080 
# 
# From -- ./inp_files/22387.got.cif
#   From: 2010.05.17/outbox.cif.g08.bks.cpg/sg40_12_cif.got.tgz:22387.got - 2010.06.03 18:35:42.
