data_PCOD9363302
_publ_section_title
;
Structure prediction by ZEFSAII (Michael W. Deem and Ramdas Pophale) SiO2 
 PCOD9363302
Probable space group: A M A 2
;
_chemical_formula_sum "Si O2"
_cell_formula_units_Z 64
_cell_length_a 8.859142
_cell_length_b 33.664313
_cell_length_c 11.917890
_cell_angle_alpha 90.000000
_cell_angle_beta 90.000000
_cell_angle_gamma 90.000000
_cell_volume 3554.354916
_symmetry_space_group_name_H-M "A M A 2"
_symmetry_group_IT_number 40
_symmetry_cell_setting 'orthorhombic'
loop_
_space_group_symop_operation_xyz
x,y,z
-x,-y,z
1/2-x,y,z
1/2+x,-y,z
x,1/2+y,1/2+z
-x,1/2-y,1/2+z
1/2-x,1/2+y,1/2+z
1/2+x,1/2-y,1/2+z
loop_
_atom_site_type_symbol
_atom_site_label
_atom_site_fract_x
_atom_site_fract_y
_atom_site_fract_z
Si Si1 0.571076 0.543249 0.512100
Si Si2 0.431935 0.622425 0.879495
Si Si3 0.567952 0.455721 0.747571
Si Si4 0.432120 0.149397 0.627802
Si Si5 0.574351 0.224482 0.750535
Si Si6 0.073087 0.809956 0.224143
Si Si7 0.074348 0.101152 0.845512
Si Si8 0.577306 0.670993 0.463681
O O1 0.500000 0.500000 0.499834
O O2 0.750000 0.541682 0.527047
O O3 0.495668 0.559189 0.627190
O O4 0.525731 0.567704 0.402673
O O5 0.250000 0.623697 0.877500
O O6 0.474284 0.577977 0.838569
O O7 0.493474 0.655377 0.794146
O O8 0.480311 0.634728 0.005084
O O9 0.500000 0.500000 0.767331
O O10 0.750000 0.458942 0.741893
O O11 0.250000 0.153883 0.628761
O O12 0.502707 0.190958 0.669300
O O13 0.469861 0.116333 0.721979
O O14 0.750000 0.229108 0.721426
O O15 0.493849 0.266616 0.746814
O O16 0.565051 0.207179 0.876787
O O17 0.250000 0.810371 0.251550
O O18 0.056422 0.817656 0.091662
O O19 0.250000 0.089786 0.845769
O O20 0.044211 0.139131 0.924251
O O21 0.750000 0.654849 0.450630
#
# Coordination Sequence:
#
# PCOD9363302 Si02
#       8
#     8   8   8   8   8   8   8   8
#     4  11  21  34  55  83 115 146 179 226 278 331
#     4  10  22  39  58  82 113 151 191 233 282 336
#     4  10  20  36  59  86 116 150 187 231 284 339
#     4   9  20  39  59  78 109 150 188 230 279 333
#     4  10  21  37  56  79 107 143 184 230 281 334
#     4  11  23  36  54  81 110 143 183 230 280 334
#     4  10  19  34  57  81 106 139 180 224 271 328
#     4   9  20  37  54  74 104 140 177 220 272 325
#
# _framework density 18.006080999999998
#
# number of rings (size 3 to 8) (size 9 to 14) (size 15 to 20)
#    0.000    2.000    0.000    4.125    1.750    5.500 
#    0.000    0.625    0.000    1.500    0.000    0.000 
#    0.000    0.000    0.000    0.000    0.000    0.000 
#
# Total GULP energy -178575.342342 kJ/mol
# GULP energy per Si atom -5580.479448 kJ/mol
# Density = 1.796510 g / cm^3
# Si number density = 18.006081 Si / 1000 Ang^3
#
#
#
# Elastic Constant Matrix: (Units=GPa)
#
#
# Indices 1 2 3 4 5 6 
#
# 1 52.4428 32.3939 42.5251 0.0000 0.0000 0.0000
# 2 32.3939 88.9623 66.8535 0.0000 0.0000 0.0000
# 3 42.5251 66.8535 105.7029 0.0000 0.0000 0.0000
# 4 0.0000 0.0000 0.0000 9.2515 0.0000 0.0000
# 5 0.0000 0.0000 0.0000 0.0000 28.1349 0.0000
# 6 0.0000 0.0000 0.0000 0.0000 0.0000 32.8800
#
#
#
# Elastic Compliance Matrix: (Units=1/GPa)
#
#
# Indices 1 2 3 4 5 6 
#
# 1 0.028829 -0.003396 -0.009451 0.000000 0.000000 0.000000
# 2 -0.003396 0.021823 -0.012436 0.000000 0.000000 0.000000
# 3 -0.009451 -0.012436 0.021128 0.000000 0.000000 0.000000
# 4 0.000000 0.000000 0.000000 0.108091 0.000000 0.000000
# 5 0.000000 0.000000 0.000000 0.000000 0.035543 0.000000
# 6 0.000000 0.000000 0.000000 0.000000 0.000000 0.030414
#
#
# Mechanical properties :
#
#
# Convention : Reuss Voigt Hill
#
# Bulk Modulus (GPa) = 47.13588 58.96145 53.04866
# Shear Modulus (GPa) = 16.47648 21.07564 18.77606
#
# Velocity S-wave (km/s) = 3.02826 3.42493 3.23269
# Velocity P-wave (km/s) = 6.20175 6.96108 6.59236
#
# Compressibility (1/GPa) = 0.02121526
#
# Stress axis : x y z
#
# Youngs Moduli (GPa) = 34.68699 45.82413 47.33103
#
# Poissons Ratio (x) = 0.15561 0.44730
# Poissons Ratio (y) = 0.11779 0.58860
# Poissons Ratio (z) = 0.32781 0.56986
#
# Static dielectric constant tensor:
#      x y z
#    x 1.608700 0.000000 0.000000 
#    y 0.000000 1.679470 0.000000 
#    z 0.000000 0.000000 1.615560 
# 
# From -- ./inp_files/10595.got.cif
#   From: 2010.05.17/outbox.cif.g08.bks.cpg/sg40_6_cif.got.tgz:10595.got - 2010.06.03 18:35:42.
