data_PCOD9363541
_publ_section_title
;
Structure prediction by ZEFSAII (Michael W. Deem and Ramdas Pophale) SiO2 
 PCOD9363541
Probable space group: A M A 2
;
_chemical_formula_sum "Si O2"
_cell_formula_units_Z 48
_cell_length_a 17.925546
_cell_length_b 15.415083
_cell_length_c 8.892231
_cell_angle_alpha 90.000000
_cell_angle_beta 90.000000
_cell_angle_gamma 90.000000
_cell_volume 2457.134877
_symmetry_space_group_name_H-M "A M A 2"
_symmetry_group_IT_number 40
_symmetry_cell_setting 'orthorhombic'
loop_
_space_group_symop_operation_xyz
x,y,z
-x,-y,z
1/2-x,y,z
1/2+x,-y,z
x,1/2+y,1/2+z
-x,1/2-y,1/2+z
1/2-x,1/2+y,1/2+z
1/2+x,1/2-y,1/2+z
loop_
_atom_site_type_symbol
_atom_site_label
_atom_site_fract_x
_atom_site_fract_y
_atom_site_fract_z
Si Si1 0.334326 0.045459 0.532590
Si Si2 0.333416 0.689621 0.589531
Si Si3 0.955027 0.625343 0.344734
Si Si4 0.940440 0.321101 0.872324
Si Si5 0.119893 0.545693 0.373770
Si Si6 0.904869 0.136779 0.494292
O O1 0.250000 0.064640 0.486263
O O2 0.391076 0.118915 0.479046
O O3 0.340710 0.041642 0.712685
O O4 0.359973 0.951840 0.470084
O O5 0.250000 0.702597 0.653369
O O6 0.397597 0.676955 0.713849
O O7 0.335048 0.603866 0.488824
O O8 0.355637 0.775905 0.495824
O O9 0.944186 0.719717 0.415189
O O10 0.901119 0.552858 0.415750
O O11 0.936868 0.629899 0.165918
O O12 0.039710 0.593370 0.357985
O O13 0.025188 0.354582 0.882342
#
# Coordination Sequence:
#
# PCOD9363541 Si02
#       6
#     8   8   8   8   8   8
#     4  11  22  38  62  89 118 156 202 247 299 355
#     4  11  23  39  59  90 128 156 191 252 316 353
#     4   9  19  36  61  88 110 150 204 245 278 349
#     4  11  21  38  61  88 120 156 198 247 298 360
#     4  10  19  38  61  86 117 150 201 242 292 354
#     4  10  20  39  62  86 114 160 204 244 286 359
#
# _framework density 19.534948
#
# number of rings (size 3 to 8) (size 9 to 14) (size 15 to 20)
#    0.000    1.667    3.333    2.000    0.000    0.000 
#    6.000    2.500    0.000    0.000    0.000    0.000 
#    0.000    0.000    0.000    0.000    0.000    0.000 
#
# Total GULP energy -133955.875540 kJ/mol
# GULP energy per Si atom -5581.494814 kJ/mol
# Density = 1.949049 g / cm^3
# Si number density = 19.534948 Si / 1000 Ang^3
#
#
#
# Elastic Constant Matrix: (Units=GPa)
#
#
# Indices 1 2 3 4 5 6 
#
# 1 91.0587 30.7965 19.6717 0.0000 0.0000 0.0000
# 2 30.7965 110.4709 21.7686 0.0000 0.0000 0.0000
# 3 19.6717 21.7686 21.0329 0.0000 0.0000 0.0000
# 4 0.0000 0.0000 0.0000 28.4405 0.0000 0.0000
# 5 0.0000 0.0000 0.0000 0.0000 8.7958 0.0000
# 6 0.0000 0.0000 0.0000 0.0000 0.0000 19.6566
#
#
#
# Elastic Compliance Matrix: (Units=1/GPa)
#
#
# Indices 1 2 3 4 5 6 
#
# 1 0.014001 -0.001662 -0.011375 0.000000 0.000000 0.000000
# 2 -0.001662 0.011568 -0.010419 0.000000 0.000000 0.000000
# 3 -0.011375 -0.010419 0.068967 0.000000 0.000000 0.000000
# 4 0.000000 0.000000 0.000000 0.035161 0.000000 0.000000
# 5 0.000000 0.000000 0.000000 0.000000 0.113691 0.000000
# 6 0.000000 0.000000 0.000000 0.000000 0.000000 0.050873
#
#
# Mechanical properties :
#
#
# Convention : Reuss Voigt Hill
#
# Bulk Modulus (GPa) = 20.99744 40.78178 30.88961
# Shear Modulus (GPa) = 14.00366 21.40031 17.70199
#
# Velocity S-wave (km/s) = 2.68031 3.31341 3.01353
# Velocity P-wave (km/s) = 4.51118 5.96321 5.28728
#
# Compressibility (1/GPa) = 0.04762484
#
# Stress axis : x y z
#
# Youngs Moduli (GPa) = 71.42157 86.44180 14.49966
#
# Poissons Ratio (x) = 0.14364 0.16494
# Poissons Ratio (y) = 0.11868 0.15107
# Poissons Ratio (z) = 0.81245 0.90064
#
# Static dielectric constant tensor:
#      x y z
#    x 1.700090 0.000000 0.000000 
#    y 0.000000 1.685990 0.000000 
#    z 0.000000 0.000000 1.683410 
# 
# From -- ./inp_files/7463.got.cif
#   From: 2010.05.17/outbox.cif.g08.bks.cpg/sg40_4_cif.got.tgz:7463.got - 2010.06.03 18:35:42.
