data_PCOD9363768
_publ_section_title
;
Structure prediction by ZEFSAII (Michael W. Deem and Ramdas Pophale) SiO2 
 PCOD9363768
Probable space group: A M A 2
;
_chemical_formula_sum "Si O2"
_cell_formula_units_Z 64
_cell_length_a 14.761036
_cell_length_b 8.737395
_cell_length_c 23.898533
_cell_angle_alpha 90.000000
_cell_angle_beta 90.000000
_cell_angle_gamma 90.000000
_cell_volume 3082.265548
_symmetry_space_group_name_H-M "A M A 2"
_symmetry_group_IT_number 40
_symmetry_cell_setting 'orthorhombic'
loop_
_space_group_symop_operation_xyz
x,y,z
-x,-y,z
1/2-x,y,z
1/2+x,-y,z
x,1/2+y,1/2+z
-x,1/2-y,1/2+z
1/2-x,1/2+y,1/2+z
1/2+x,1/2-y,1/2+z
loop_
_atom_site_type_symbol
_atom_site_label
_atom_site_fract_x
_atom_site_fract_y
_atom_site_fract_z
Si Si1 0.140813 0.869275 0.970810
Si Si2 0.515533 0.823786 0.261505
Si Si3 0.140066 0.195267 0.025109
Si Si4 0.397169 0.564244 0.248169
Si Si5 0.853693 0.472750 0.005562
Si Si6 0.030815 0.674667 0.637240
Si Si7 0.347934 0.631609 0.128793
Si Si8 0.850942 0.159099 0.841785
O O1 0.250000 0.866059 0.980183
O O2 0.123365 0.882740 0.904730
O O3 0.108340 0.697457 0.989442
O O4 0.110444 0.029106 0.999856
O O5 0.417860 0.741625 0.258934
O O6 0.562015 0.792189 0.200871
O O7 0.576086 0.766032 0.312253
O O8 0.500000 0.000000 0.266755
O O9 0.250000 0.198032 0.025166
O O10 0.109905 0.354611 0.993769
O O11 0.100889 0.200997 0.087790
O O12 0.500000 0.500000 0.245959
O O13 0.352510 0.544947 0.187920
O O14 0.350372 0.486041 0.300333
O O15 0.750000 0.471273 0.983968
O O16 0.851372 0.468329 0.073131
O O17 0.000000 0.500000 0.636198
O O18 0.938668 0.769275 0.627571
O O19 0.250000 0.715455 0.126546
O O20 0.750000 0.227103 0.843297
#
# Coordination Sequence:
#
# PCOD9363768 Si02
#       8
#     8   8   8   8   8   8   8   8
#     4   9  19  39  60  85 125 162 199 253 306 358
#     4   9  20  39  57  82 122 159 194 250 317 364
#     4  10  21  37  61  91 122 162 205 252 309 369
#     4   9  19  35  58  85 116 158 198 253 303 365
#     4   9  19  34  57  87 115 154 198 242 304 367
#     4  10  21  36  58  87 121 160 199 251 307 374
#     4  10  20  34  56  85 121 156 194 251 311 369
#     4  10  20  37  63  87 113 161 209 251 306 370
#
# _framework density 20.763946000000001
#
# number of rings (size 3 to 8) (size 9 to 14) (size 15 to 20)
#    0.000    2.500    0.000    1.125    5.250    2.000 
#    2.250   11.250    0.000    0.000    0.000    0.000 
#    0.000    0.000    0.000    0.000    0.000    0.000 
#
# Total GULP energy -178216.213581 kJ/mol
# GULP energy per Si atom -5569.256674 kJ/mol
# Density = 2.071669 g / cm^3
# Si number density = 20.763946 Si / 1000 Ang^3
#
#
#
# Elastic Constant Matrix: (Units=GPa)
#
#
# Indices 1 2 3 4 5 6 
#
# 1 61.7180 15.5120 27.2754 0.0000 0.0000 0.0000
# 2 15.5120 146.4921 42.5913 0.0000 0.0000 0.0000
# 3 27.2754 42.5913 117.4550 0.0000 0.0000 0.0000
# 4 0.0000 0.0000 0.0000 24.3608 0.0000 0.0000
# 5 0.0000 0.0000 0.0000 0.0000 26.4553 0.0000
# 6 0.0000 0.0000 0.0000 0.0000 0.0000 3.5064
#
#
#
# Elastic Compliance Matrix: (Units=1/GPa)
#
#
# Indices 1 2 3 4 5 6 
#
# 1 0.018135 -0.000778 -0.003929 0.000000 0.000000 0.000000
# 2 -0.000778 0.007664 -0.002599 0.000000 0.000000 0.000000
# 3 -0.003929 -0.002599 0.010369 0.000000 0.000000 0.000000
# 4 0.000000 0.000000 0.000000 0.041050 0.000000 0.000000
# 5 0.000000 0.000000 0.000000 0.000000 0.037800 0.000000
# 6 0.000000 0.000000 0.000000 0.000000 0.000000 0.285196
#
#
# Mechanical properties :
#
#
# Convention : Reuss Voigt Hill
#
# Bulk Modulus (GPa) = 46.39018 55.15806 50.77412
# Shear Modulus (GPa) = 11.84807 26.88359 19.36583
#
# Velocity S-wave (km/s) = 2.39133 3.60213 3.05727
# Velocity P-wave (km/s) = 5.47858 6.62740 6.08019
#
# Compressibility (1/GPa) = 0.02155628
#
# Stress axis : x y z
#
# Youngs Moduli (GPa) = 55.14303 130.47716 96.44511
#
# Poissons Ratio (x) = 0.10150 0.37895
# Poissons Ratio (y) = 0.04290 0.25062
# Poissons Ratio (z) = 0.21666 0.33905
#
# Static dielectric constant tensor:
#      x y z
#    x 1.748910 0.000000 0.000000 
#    y 0.000000 1.847910 0.000000 
#    z 0.000000 0.000000 1.733490 
# 
# From -- ./inp_files/24777.got.cif
#   From: 2010.05.17/outbox.cif.g08.bks.cpg/sg40_13_cif.got.tgz:24777.got - 2010.06.03 18:35:42.
