data_PCOD9363895
_publ_section_title
;
Structure prediction by ZEFSAII (Michael W. Deem and Ramdas Pophale) SiO2 
 PCOD9363895
Probable space group: A M A 2
;
_chemical_formula_sum "Si O2"
_cell_formula_units_Z 40
_cell_length_a 9.157158
_cell_length_b 14.745780
_cell_length_c 13.970341
_cell_angle_alpha 90.000000
_cell_angle_beta 90.000000
_cell_angle_gamma 90.000000
_cell_volume 1886.407284
_symmetry_space_group_name_H-M "A M A 2"
_symmetry_group_IT_number 40
_symmetry_cell_setting 'orthorhombic'
loop_
_space_group_symop_operation_xyz
x,y,z
-x,-y,z
1/2-x,y,z
1/2+x,-y,z
x,1/2+y,1/2+z
-x,1/2-y,1/2+z
1/2-x,1/2+y,1/2+z
1/2+x,1/2-y,1/2+z
loop_
_atom_site_type_symbol
_atom_site_label
_atom_site_fract_x
_atom_site_fract_y
_atom_site_fract_z
Si Si1 0.425537 0.901791 0.246240
Si Si2 0.074663 0.276593 0.930209
Si Si3 0.412679 0.417179 0.210521
Si Si4 0.576120 0.765896 0.622882
Si Si5 0.413275 0.416057 0.433455
O O1 0.250000 0.912675 0.247154
O O2 0.464583 0.842988 0.341901
O O3 0.462038 0.836637 0.155428
O O4 0.500000 0.000000 0.244504
O O5 0.250000 0.270702 0.933146
O O6 0.015025 0.170174 0.705957
O O7 0.005379 0.306922 0.030920
O O8 0.500000 0.500000 0.163733
O O9 0.250000 0.402142 0.170602
O O10 0.392801 0.439928 0.321885
O O11 0.750000 0.772967 0.614067
O O12 0.495505 0.676217 0.428909
O O13 0.500000 0.500000 0.479152
O O14 0.250000 0.402397 0.474527
#
# Coordination Sequence:
#
# PCOD9363895 Si02
#       5
#     8   8   8   8   8
#     4  10  24  44  67  92 127 170 217 266 324 384
#     4  11  23  41  63  92 127 166 212 266 320 384
#     4  10  20  35  59  89 119 155 197 247 308 371
#     4  11  23  41  63  92 127 166 212 266 320 384
#     4  10  20  35  59  89 119 155 197 247 308 371
#
# _framework density 21.204329000000001
#
# number of rings (size 3 to 8) (size 9 to 14) (size 15 to 20)
#    0.000    1.600    2.000    2.400    0.000    6.400 
#    0.000    4.000    0.000    0.000    0.000    0.000 
#    0.000    0.000    0.000    0.000    0.000    0.000 
#
# Total GULP energy -111517.935038 kJ/mol
# GULP energy per Si atom -5575.896752 kJ/mol
# Density = 2.115607 g / cm^3
# Si number density = 21.204329 Si / 1000 Ang^3
#
#
#
# Elastic Constant Matrix: (Units=GPa)
#
#
# Indices 1 2 3 4 5 6 
#
# 1 101.7088 47.7242 16.8368 0.0000 0.0000 0.0000
# 2 47.7242 127.7759 3.7656 0.0000 0.0000 0.0000
# 3 16.8368 3.7656 60.0304 0.0000 0.0000 0.0000
# 4 0.0000 0.0000 0.0000 20.8038 0.0000 0.0000
# 5 0.0000 0.0000 0.0000 0.0000 1043.7477 0.0000
# 6 0.0000 0.0000 0.0000 0.0000 0.0000 33.9704
#
#
#
# Elastic Compliance Matrix: (Units=1/GPa)
#
#
# Indices 1 2 3 4 5 6 
#
# 1 0.012514 -0.004579 -0.003223 0.000000 0.000000 0.000000
# 2 -0.004579 0.009516 0.000687 0.000000 0.000000 0.000000
# 3 -0.003223 0.000687 0.017519 0.000000 0.000000 0.000000
# 4 0.000000 0.000000 0.000000 0.048068 0.000000 0.000000
# 5 0.000000 0.000000 0.000000 0.000000 0.000958 0.000000
# 6 0.000000 0.000000 0.000000 0.000000 0.000000 0.029437
#
#
# Mechanical properties :
#
#
# Convention : Reuss Voigt Hill
#
# Bulk Modulus (GPa) = 39.49339 47.35203 43.42271
# Shear Modulus (GPa) = 35.54124 234.45028 134.99576
#
# Velocity S-wave (km/s) = 4.09850 10.52650 7.98764
# Velocity P-wave (km/s) = 6.40800 13.04311 10.27583
#
# Compressibility (1/GPa) = 0.02532069
#
# Stress axis : x y z
#
# Youngs Moduli (GPa) = 79.91019 105.08392 57.08099
#
# Poissons Ratio (x) = 0.48118 0.18395
# Poissons Ratio (y) = 0.36591 -0.03923
# Poissons Ratio (z) = 0.25752 -0.07223
#
# Static dielectric constant tensor:
#      x y z
#    x 1.634600 0.000000 0.000000 
#    y 0.000000 1.839260 0.000000 
#    z 0.000000 0.000000 1.919690 
# 
# From -- ./inp_files/14913.got.cif
#   From: 2010.05.17/outbox.cif.g08.bks.cpg/sg40_8_cif.got.tgz:14913.got - 2010.06.03 18:35:42.
