data_PCOD9363264
_publ_section_title
;
Structure prediction by ZEFSAII (Michael W. Deem and Ramdas Pophale) SiO2 
 PCOD9363264
Probable space group: A M A 2
;
_chemical_formula_sum "Si O2"
_cell_formula_units_Z 64
_cell_length_a 8.824120
_cell_length_b 20.021011
_cell_length_c 20.887058
_cell_angle_alpha 90.000000
_cell_angle_beta 90.000000
_cell_angle_gamma 90.000000
_cell_volume 3690.070660
_symmetry_space_group_name_H-M "A M A 2"
_symmetry_group_IT_number 40
_symmetry_cell_setting 'orthorhombic'
loop_
_space_group_symop_operation_xyz
x,y,z
-x,-y,z
1/2-x,y,z
1/2+x,-y,z
x,1/2+y,1/2+z
-x,1/2-y,1/2+z
1/2-x,1/2+y,1/2+z
1/2+x,1/2-y,1/2+z
loop_
_atom_site_type_symbol
_atom_site_label
_atom_site_fract_x
_atom_site_fract_y
_atom_site_fract_z
Si Si1 0.931162 0.791939 0.869950
Si Si2 0.431889 0.570770 0.947412
Si Si3 0.568811 0.930425 0.296430
Si Si4 0.930614 0.291566 0.130271
Si Si5 0.068887 0.292494 0.996883
Si Si6 0.067577 0.213160 0.249607
Si Si7 0.929885 0.571598 0.176667
Si Si8 0.070184 0.928400 0.830122
O O1 0.750000 0.790527 0.860461
O O2 0.011103 0.752299 0.812316
O O3 0.990599 0.867459 0.866082
O O4 0.966201 0.755036 0.936575
O O5 0.500000 0.500000 0.969384
O O6 0.250000 0.570652 0.953848
O O7 0.471398 0.577687 0.871681
O O8 0.502874 0.634131 0.982292
O O9 0.750000 0.935022 0.293609
O O10 0.522145 0.864155 0.258770
O O11 0.500000 0.000000 0.273387
O O12 0.750000 0.291184 0.131038
O O13 0.994541 0.267756 0.062328
O O14 0.995674 0.246957 0.187682
O O15 0.990676 0.366822 0.141980
O O16 0.250000 0.296359 0.003727
O O17 0.250000 0.217676 0.246335
O O18 0.750000 0.572276 0.164543
O O19 0.953524 0.580728 0.253366
O O20 0.000000 0.500000 0.158950
O O21 0.250000 0.927848 0.841307
O O22 0.000000 0.000000 0.847208
#
# Coordination Sequence:
#
# PCOD9363264 Si02
#       8
#     8   8   8   8   8   8   8   8
#     4  11  22  36  59  87 114 147 190 236 282 335
#     4  10  19  34  54  81 114 151 192 232 276 333
#     4   9  19  33  55  84 115 147 183 229 280 330
#     4  12  25  39  57  82 113 152 193 237 283 338
#     4  11  24  40  57  81 114 153 192 236 284 336
#     4  11  21  37  59  85 115 150 188 233 284 335
#     4  10  20  35  55  81 114 152 189 231 277 333
#     4  10  20  34  57  85 117 150 184 232 282 334
#
# _framework density 17.343841000000001
#
# number of rings (size 3 to 8) (size 9 to 14) (size 15 to 20)
#    0.000    1.500    2.500    3.375    0.000    4.500 
#    0.000    2.500    0.000    0.750    0.000    3.500 
#    0.000    0.000    0.000    0.000    0.000    0.000 
#
# Total GULP energy -178840.141745 kJ/mol
# GULP energy per Si atom -5588.754430 kJ/mol
# Density = 1.730437 g / cm^3
# Si number density = 17.343841 Si / 1000 Ang^3
#
#
#
# Elastic Constant Matrix: (Units=GPa)
#
#
# Indices 1 2 3 4 5 6 
#
# 1 88.2410 51.9869 61.6948 0.0000 0.0000 0.0000
# 2 51.9869 126.4663 64.1117 0.0000 0.0000 0.0000
# 3 61.6948 64.1117 106.8711 0.0000 0.0000 0.0000
# 4 0.0000 0.0000 0.0000 15.9480 0.0000 0.0000
# 5 0.0000 0.0000 0.0000 0.0000 10.3547 0.0000
# 6 0.0000 0.0000 0.0000 0.0000 0.0000 31.2806
#
#
#
# Elastic Compliance Matrix: (Units=1/GPa)
#
#
# Indices 1 2 3 4 5 6 
#
# 1 0.019969 -0.003398 -0.009489 0.000000 0.000000 0.000000
# 2 -0.003398 0.011941 -0.005202 0.000000 0.000000 0.000000
# 3 -0.009489 -0.005202 0.017956 0.000000 0.000000 0.000000
# 4 0.000000 0.000000 0.000000 0.062704 0.000000 0.000000
# 5 0.000000 0.000000 0.000000 0.000000 0.096574 0.000000
# 6 0.000000 0.000000 0.000000 0.000000 0.000000 0.031969
#
#
# Mechanical properties :
#
#
# Convention : Reuss Voigt Hill
#
# Bulk Modulus (GPa) = 73.05964 75.24055 74.15010
# Shear Modulus (GPa) = 17.73968 21.10232 19.42100
#
# Velocity S-wave (km/s) = 3.20163 3.49191 3.34992
# Velocity P-wave (km/s) = 7.47549 7.72877 7.60318
#
# Compressibility (1/GPa) = 0.01368745
#
# Stress axis : x y z
#
# Youngs Moduli (GPa) = 50.07705 83.74392 55.69300
#
# Poissons Ratio (x) = 0.28458 0.52849
# Poissons Ratio (y) = 0.17017 0.28970
# Poissons Ratio (z) = 0.47520 0.43561
#
# Static dielectric constant tensor:
#      x y z
#    x 1.574480 0.000000 0.000000 
#    y 0.000000 1.578160 0.000000 
#    z 0.000000 0.000000 1.584930 
# 
# From -- ./inp_files/22424.got.cif
#   From: 2010.05.17/outbox.cif.g08.bks.cpg/sg40_12_cif.got.tgz:22424.got - 2010.06.03 18:35:42.
