data_PCOD9363304
_publ_section_title
;
Structure prediction by ZEFSAII (Michael W. Deem and Ramdas Pophale) SiO2 
 PCOD9363304
Probable space group: A M A 2
;
_chemical_formula_sum "Si O2"
_cell_formula_units_Z 64
_cell_length_a 8.927318
_cell_length_b 33.804524
_cell_length_c 11.859988
_cell_angle_alpha 90.000000
_cell_angle_beta 90.000000
_cell_angle_gamma 90.000000
_cell_volume 3579.151483
_symmetry_space_group_name_H-M "A M A 2"
_symmetry_group_IT_number 40
_symmetry_cell_setting 'orthorhombic'
loop_
_space_group_symop_operation_xyz
x,y,z
-x,-y,z
1/2-x,y,z
1/2+x,-y,z
x,1/2+y,1/2+z
-x,1/2-y,1/2+z
1/2-x,1/2+y,1/2+z
1/2+x,1/2-y,1/2+z
loop_
_atom_site_type_symbol
_atom_site_label
_atom_site_fract_x
_atom_site_fract_y
_atom_site_fract_z
Si Si1 0.069558 0.042775 0.662430
Si Si2 0.929598 0.375968 0.539875
Si Si3 0.579669 0.673934 0.111328
Si Si4 0.076363 0.812693 0.876505
Si Si5 0.429242 0.851718 0.277597
Si Si6 0.074143 0.606907 0.983801
Si Si7 0.575211 0.728961 0.907457
Si Si8 0.430726 0.543530 0.419416
O O1 0.250000 0.041287 0.659397
O O2 0.020296 0.070555 0.560188
O O3 0.028410 0.055654 0.790187
O O4 0.000000 0.000000 0.647412
O O5 0.750000 0.375673 0.547978
O O6 0.975972 0.420429 0.501264
O O7 0.981877 0.344612 0.445874
O O8 0.999413 0.362113 0.657986
O O9 0.750000 0.658714 0.087279
O O10 0.564792 0.679858 0.243148
O O11 0.457009 0.644145 0.064612
O O12 0.565758 0.713073 0.035619
O O13 0.250000 0.816480 0.910262
O O14 0.019898 0.768235 0.895489
O O15 0.250000 0.852553 0.270531
O O16 0.486024 0.883262 0.370081
O O17 0.470820 0.808103 0.327437
O O18 0.250000 0.602696 0.959161
O O19 0.750000 0.737559 0.882916
O O20 0.500000 0.500000 0.441739
O O21 0.250000 0.539797 0.424342
#
# Coordination Sequence:
#
# PCOD9363304 Si02
#       8
#     8   8   8   8   8   8   8   8
#     4   9  18  32  53  83 115 143 179 225 278 337
#     4  11  23  39  59  84 115 152 193 237 289 346
#     4   9  20  37  54  76 107 142 181 226 274 326
#     4  11  23  36  55  84 113 145 188 234 280 334
#     4  10  22  40  59  81 111 148 192 237 284 339
#     4  10  19  34  57  82 108 142 183 226 276 335
#     4   9  20  38  56  77 107 144 183 232 286 334
#     4   9  19  36  58  85 116 150 187 233 287 341
#
# _framework density 17.881332
#
# number of rings (size 3 to 8) (size 9 to 14) (size 15 to 20)
#    0.000    2.250    0.000    3.000    1.750    6.500 
#    0.000    3.125    0.000    0.000    0.000    0.000 
#    0.000    0.000    0.000    0.000    0.000    0.000 
#
# Total GULP energy -178478.640809 kJ/mol
# GULP energy per Si atom -5577.457525 kJ/mol
# Density = 1.784063 g / cm^3
# Si number density = 17.881332 Si / 1000 Ang^3
#
#
#
# Elastic Constant Matrix: (Units=GPa)
#
#
# Indices 1 2 3 4 5 6 
#
# 1 37.7342 30.6153 38.3752 0.0000 0.0000 0.0000
# 2 30.6153 83.4727 57.7566 0.0000 0.0000 0.0000
# 3 38.3752 57.7566 106.5218 0.0000 0.0000 0.0000
# 4 0.0000 0.0000 0.0000 9.0597 0.0000 0.0000
# 5 0.0000 0.0000 0.0000 0.0000 31.5124 0.0000
# 6 0.0000 0.0000 0.0000 0.0000 0.0000 30.6687
#
#
#
# Elastic Compliance Matrix: (Units=1/GPa)
#
#
# Indices 1 2 3 4 5 6 
#
# 1 0.045321 -0.008523 -0.011706 0.000000 0.000000 0.000000
# 2 -0.008523 0.020776 -0.008194 0.000000 0.000000 0.000000
# 3 -0.011706 -0.008194 0.018048 0.000000 0.000000 0.000000
# 4 0.000000 0.000000 0.000000 0.110379 0.000000 0.000000
# 5 0.000000 0.000000 0.000000 0.000000 0.031734 0.000000
# 6 0.000000 0.000000 0.000000 0.000000 0.000000 0.032607
#
#
# Mechanical properties :
#
#
# Convention : Reuss Voigt Hill
#
# Bulk Modulus (GPa) = 36.63228 53.46920 45.05074
# Shear Modulus (GPa) = 15.39367 20.98028 18.18698
#
# Velocity S-wave (km/s) = 2.93726 3.42907 3.19265
# Velocity P-wave (km/s) = 5.65987 6.75612 6.23215
#
# Compressibility (1/GPa) = 0.02729833
#
# Stress axis : x y z
#
# Youngs Moduli (GPa) = 22.06490 48.13331 55.40794
#
# Poissons Ratio (x) = 0.41022 0.64861
# Poissons Ratio (y) = 0.18805 0.45403
# Poissons Ratio (z) = 0.25829 0.39442
#
# Static dielectric constant tensor:
#      x y z
#    x 1.609140 0.000000 0.000000 
#    y 0.000000 1.601210 0.000000 
#    z 0.000000 0.000000 1.611730 
# 
# From -- ./inp_files/10570.got.cif
#   From: 2010.05.17/outbox.cif.g08.bks.cpg/sg40_6_cif.got.tgz:10570.got - 2010.06.03 18:35:42.
