data_PCOD9363616
_publ_section_title
;
Structure prediction by ZEFSAII (Michael W. Deem and Ramdas Pophale) SiO2 
 PCOD9363616
Probable space group: A M A 2
;
_chemical_formula_sum "Si O2"
_cell_formula_units_Z 64
_cell_length_a 8.561196
_cell_length_b 14.492898
_cell_length_c 30.687524
_cell_angle_alpha 90.000000
_cell_angle_beta 90.000000
_cell_angle_gamma 90.000000
_cell_volume 3807.601811
_symmetry_space_group_name_H-M "A M A 2"
_symmetry_group_IT_number 40
_symmetry_cell_setting 'orthorhombic'
loop_
_space_group_symop_operation_xyz
x,y,z
-x,-y,z
1/2-x,y,z
1/2+x,-y,z
x,1/2+y,1/2+z
-x,1/2-y,1/2+z
1/2-x,1/2+y,1/2+z
1/2+x,1/2-y,1/2+z
loop_
_atom_site_type_symbol
_atom_site_label
_atom_site_fract_x
_atom_site_fract_y
_atom_site_fract_z
Si Si1 0.064076 0.105613 0.080680
Si Si2 0.937353 0.104703 0.988265
Si Si3 0.060619 0.605218 0.217937
Si Si4 0.069790 0.095496 0.312558
Si Si5 0.062409 0.740367 0.661057
Si Si6 0.935471 0.296576 0.309099
Si Si7 0.432793 0.414029 0.719066
Si Si8 0.936851 0.103452 0.893820
O O1 0.250000 0.095343 0.080134
O O2 0.026509 0.185685 0.116018
O O3 0.005920 0.140779 0.033461
O O4 0.000000 0.000000 0.087866
O O5 0.250000 0.896088 0.991277
O O6 0.981565 0.146888 0.941070
O O7 0.000000 0.000000 0.986795
O O8 0.250000 0.606197 0.216013
O O9 0.009955 0.660916 0.262424
O O10 0.000000 0.500000 0.220948
O O11 0.990333 0.656986 0.175224
O O12 0.250000 0.103558 0.324252
O O13 0.982390 0.191277 0.319488
O O14 0.046273 0.086216 0.260559
O O15 0.000000 0.000000 0.331168
O O16 0.250000 0.732967 0.667538
O O17 0.963345 0.679682 0.694797
O O18 0.750000 0.302149 0.307452
O O19 0.998815 0.351848 0.350251
O O20 0.500000 0.500000 0.691543
O O21 0.250000 0.422680 0.730084
O O22 0.750000 0.103067 0.891915
O O23 0.000000 0.000000 0.894423
#
# Coordination Sequence:
#
# PCOD9363616 Si02
#       8
#     8   8   8   8   8   8   8   8
#     4  10  20  32  50  77 107 139 172 209 256 311
#     4   9  17  30  49  73 104 138 171 209 257 310
#     4  11  24  39  55  73 100 135 175 220 262 305
#     4  11  21  34  52  72 100 134 169 211 255 302
#     4  11  22  35  51  73 100 134 174 213 255 304
#     4  11  22  36  54  78 104 136 179 217 258 308
#     4  11  20  31  47  69  97 130 168 206 248 296
#     4  10  20  33  51  77 106 140 178 217 261 308
#
# _framework density 16.808479999999999
#
# number of rings (size 3 to 8) (size 9 to 14) (size 15 to 20)
#    0.000    1.500    1.250    6.750    0.000    7.000 
#    0.000    0.000    0.000    0.000    0.000    0.875 
#    0.000    2.000    0.000    0.000    0.000    0.000 
#
# Total GULP energy -178169.370094 kJ/mol
# GULP energy per Si atom -5567.792815 kJ/mol
# Density = 1.677022 g / cm^3
# Si number density = 16.808480 Si / 1000 Ang^3
#
#
#
# Elastic Constant Matrix: (Units=GPa)
#
#
# Indices 1 2 3 4 5 6 
#
# 1 62.4219 22.3385 30.1159 0.0000 0.0000 0.0000
# 2 22.3385 90.5214 48.8909 0.0000 0.0000 0.0000
# 3 30.1159 48.8909 104.1254 0.0000 0.0000 0.0000
# 4 0.0000 0.0000 0.0000 19.3989 0.0000 0.0000
# 5 0.0000 0.0000 0.0000 0.0000 20.1267 0.0000
# 6 0.0000 0.0000 0.0000 0.0000 0.0000 26.9737
#
#
#
# Elastic Compliance Matrix: (Units=1/GPa)
#
#
# Indices 1 2 3 4 5 6 
#
# 1 0.018969 -0.002302 -0.004406 0.000000 0.000000 0.000000
# 2 -0.002302 0.015080 -0.006415 0.000000 0.000000 0.000000
# 3 -0.004406 -0.006415 0.013890 0.000000 0.000000 0.000000
# 4 0.000000 0.000000 0.000000 0.051549 0.000000 0.000000
# 5 0.000000 0.000000 0.000000 0.000000 0.049685 0.000000
# 6 0.000000 0.000000 0.000000 0.000000 0.000000 0.037073
#
#
# Mechanical properties :
#
#
# Convention : Reuss Voigt Hill
#
# Bulk Modulus (GPa) = 46.09412 51.08437 48.58924
# Shear Modulus (GPa) = 22.75595 23.68142 23.21868
#
# Velocity S-wave (km/s) = 3.68344 3.75760 3.72071
# Velocity P-wave (km/s) = 6.75078 7.02026 6.88684
#
# Compressibility (1/GPa) = 0.02169474
#
# Stress axis : x y z
#
# Youngs Moduli (GPa) = 52.71682 66.31396 71.99378
#
# Poissons Ratio (x) = 0.15263 0.31719
# Poissons Ratio (y) = 0.12133 0.46183
# Poissons Ratio (z) = 0.23226 0.42539
#
# Static dielectric constant tensor:
#      x y z
#    x 1.557850 0.000000 0.000000 
#    y 0.000000 1.687270 0.000000 
#    z 0.000000 0.000000 1.633910 
# 
# From -- ./inp_files/26468.got.cif
#   From: 2010.05.17/outbox.cif.g08.bks.cpg/sg40_14_cif.got.tgz:26468.got - 2010.06.03 18:35:42.
