data_PCOD9363128
_publ_section_title
;
Structure prediction by ZEFSAII (Michael W. Deem and Ramdas Pophale) SiO2 
 PCOD9363128
Probable space group: A M A 2
;
_chemical_formula_sum "Si O2"
_cell_formula_units_Z 48
_cell_length_a 8.594171
_cell_length_b 24.468562
_cell_length_c 13.975214
_cell_angle_alpha 90.000000
_cell_angle_beta 90.000000
_cell_angle_gamma 90.000000
_cell_volume 2938.805910
_symmetry_space_group_name_H-M "A M A 2"
_symmetry_group_IT_number 40
_symmetry_cell_setting 'orthorhombic'
loop_
_space_group_symop_operation_xyz
x,y,z
-x,-y,z
1/2-x,y,z
1/2+x,-y,z
x,1/2+y,1/2+z
-x,1/2-y,1/2+z
1/2-x,1/2+y,1/2+z
1/2+x,1/2-y,1/2+z
loop_
_atom_site_type_symbol
_atom_site_label
_atom_site_fract_x
_atom_site_fract_y
_atom_site_fract_z
Si Si1 0.063893 0.227053 0.077890
Si Si2 0.563984 0.832820 0.470961
Si Si3 0.937007 0.558887 0.290915
Si Si4 0.937703 0.668870 0.394684
Si Si5 0.562864 0.559628 0.068291
Si Si6 0.436157 0.274355 0.788290
O O1 0.250000 0.227986 0.080537
O O2 0.995771 0.214687 0.181878
O O3 0.003235 0.286093 0.041545
O O4 0.005147 0.184483 0.997994
O O5 0.750000 0.829412 0.471254
O O6 0.507328 0.891586 0.506332
O O7 0.500148 0.817167 0.366230
O O8 0.750000 0.557022 0.292671
O O9 0.986801 0.609767 0.355670
O O10 0.983471 0.567931 0.179966
O O11 0.000000 0.500000 0.321592
O O12 0.750000 0.671562 0.397649
O O13 0.998485 0.715724 0.323044
O O14 0.500000 0.500000 0.039835
O O15 0.750000 0.560590 0.062630
O O16 0.250000 0.273487 0.791687
#
# Coordination Sequence:
#
# PCOD9363128 Si02
#       6
#     8   8   8   8   8   8
#     4  11  21  34  51  74 102 134 168 207 250 299
#     4  11  21  34  52  76 103 134 168 207 252 302
#     4   9  19  32  50  73 101 132 165 203 245 290
#     4  10  19  33  51  75 103 133 166 205 249 297
#     4  10  19  33  51  75 104 136 170 208 250 297
#     4  11  21  34  52  75 101 133 167 206 252 301
#
# _framework density 16.333165000000001
#
# number of rings (size 3 to 8) (size 9 to 14) (size 15 to 20)
#    0.000    1.667    0.000    8.500    0.000    3.333 
#    0.000    0.000    0.000    1.000    0.000    4.667 
#    0.000    0.000    0.000    0.000    0.000    0.000 
#
# Total GULP energy -134052.047806 kJ/mol
# GULP energy per Si atom -5585.501992 kJ/mol
# Density = 1.629599 g / cm^3
# Si number density = 16.333165 Si / 1000 Ang^3
#
#
#
# Elastic Constant Matrix: (Units=GPa)
#
#
# Indices 1 2 3 4 5 6 
#
# 1 114.8260 48.4238 43.5311 0.0000 0.0000 0.0000
# 2 48.4238 153.3097 83.9790 0.0000 0.0000 0.0000
# 3 43.5311 83.9790 113.3167 0.0000 0.0000 0.0000
# 4 0.0000 0.0000 0.0000 17.4456 0.0000 0.0000
# 5 0.0000 0.0000 0.0000 0.0000 30.3141 0.0000
# 6 0.0000 0.0000 0.0000 0.0000 0.0000 30.0989
#
#
#
# Elastic Compliance Matrix: (Units=1/GPa)
#
#
# Indices 1 2 3 4 5 6 
#
# 1 0.010500 -0.001864 -0.002653 0.000000 0.000000 0.000000
# 2 -0.001864 0.011311 -0.007667 0.000000 0.000000 0.000000
# 3 -0.002653 -0.007667 0.015526 0.000000 0.000000 0.000000
# 4 0.000000 0.000000 0.000000 0.057321 0.000000 0.000000
# 5 0.000000 0.000000 0.000000 0.000000 0.032988 0.000000
# 6 0.000000 0.000000 0.000000 0.000000 0.000000 0.033224
#
#
# Mechanical properties :
#
#
# Convention : Reuss Voigt Hill
#
# Bulk Modulus (GPa) = 77.09409 81.48002 79.28706
# Shear Modulus (GPa) = 26.37699 29.27297 27.82498
#
# Velocity S-wave (km/s) = 4.02298 4.23808 4.13193
# Velocity P-wave (km/s) = 8.29956 8.59901 8.45061
#
# Compressibility (1/GPa) = 0.01297116
#
# Stress axis : x y z
#
# Youngs Moduli (GPa) = 95.23490 88.41008 64.40967
#
# Poissons Ratio (x) = 0.16475 0.17086
# Poissons Ratio (y) = 0.17747 0.49381
# Poissons Ratio (z) = 0.25263 0.67781
#
# Static dielectric constant tensor:
#      x y z
#    x 1.545110 0.000000 0.000000 
#    y 0.000000 1.529020 0.000000 
#    z 0.000000 0.000000 1.535420 
# 
# From -- ./inp_files/10250.got.cif
#   From: 2010.05.17/outbox.cif.g08.bks.cpg/sg40_6_cif.got.tgz:10250.got - 2010.06.03 18:35:42.
