data_PCOD9363355
_publ_section_title
;
Structure prediction by ZEFSAII (Michael W. Deem and Ramdas Pophale) SiO2 
 PCOD9363355
Probable space group: A M A 2
;
_chemical_formula_sum "Si O2"
_cell_formula_units_Z 48
_cell_length_a 16.920736
_cell_length_b 9.386349
_cell_length_c 16.260658
_cell_angle_alpha 90.000000
_cell_angle_beta 90.000000
_cell_angle_gamma 90.000000
_cell_volume 2582.581664
_symmetry_space_group_name_H-M "A M A 2"
_symmetry_group_IT_number 40
_symmetry_cell_setting 'orthorhombic'
loop_
_space_group_symop_operation_xyz
x,y,z
-x,-y,z
1/2-x,y,z
1/2+x,-y,z
x,1/2+y,1/2+z
-x,1/2-y,1/2+z
1/2-x,1/2+y,1/2+z
1/2+x,1/2-y,1/2+z
loop_
_atom_site_type_symbol
_atom_site_label
_atom_site_fract_x
_atom_site_fract_y
_atom_site_fract_z
Si Si1 0.092335 0.517855 0.055360
Si Si2 0.091769 0.034483 0.884717
Si Si3 0.155432 0.388355 0.222042
Si Si4 0.843212 0.883569 0.308864
Si Si5 0.344540 0.848096 0.400378
Si Si6 0.842175 0.712183 0.481746
O O1 0.114070 0.457512 0.144161
O O2 0.000000 0.500000 0.038173
O O3 0.139807 0.427758 0.986693
O O4 0.115993 0.683440 0.045841
O O5 0.109973 0.199881 0.897136
O O6 0.137748 0.979885 0.803776
O O7 0.121280 0.941028 0.962302
O O8 0.000000 0.000000 0.872487
O O9 0.250000 0.384578 0.209455
O O10 0.125767 0.226805 0.241147
O O11 0.750000 0.901206 0.291926
O O12 0.849207 0.796733 0.394724
O O13 0.873788 0.040841 0.329856
O O14 0.250000 0.825333 0.391462
O O15 0.750000 0.698982 0.501727
#
# Coordination Sequence:
#
# PCOD9363355 Si02
#       6
#     8   8   8   8   8   8
#     4  11  21  34  54  82 113 144 183 233 280 325
#     4  11  21  34  54  82 112 141 182 238 284 321
#     4  10  19  35  55  76 105 146 185 223 274 340
#     4   7  14  29  52  75  97 129 177 221 259 316
#     4  10  19  35  57  81 106 143 190 233 277 338
#     4   9  17  33  53  74 102 143 183 216 262 332
#
# _framework density 18.586053
#
# number of rings (size 3 to 8) (size 9 to 14) (size 15 to 20)
#    0.000    2.333    0.000    6.500    0.000    0.000 
#    0.000    1.667    0.000    4.000    0.000    0.000 
#    0.000    0.000    0.000    0.000    0.000    0.000 
#
# Total GULP energy -133790.528569 kJ/mol
# GULP energy per Si atom -5574.605357 kJ/mol
# Density = 1.854375 g / cm^3
# Si number density = 18.586053 Si / 1000 Ang^3
#
#
#
# Elastic Constant Matrix: (Units=GPa)
#
#
# Indices 1 2 3 4 5 6 
#
# 1 38.7519 -8.3302 -9.2496 0.0000 0.0000 0.0000
# 2 -8.3302 120.6643 32.7771 0.0000 0.0000 0.0000
# 3 -9.2496 32.7771 55.8570 0.0000 0.0000 0.0000
# 4 0.0000 0.0000 0.0000 19.1572 0.0000 0.0000
# 5 0.0000 0.0000 0.0000 0.0000 -7.0533 0.0000
# 6 0.0000 0.0000 0.0000 0.0000 0.0000 13.6696
#
#
#
# Elastic Compliance Matrix: (Units=1/GPa)
#
#
# Indices 1 2 3 4 5 6 
#
# 1 0.026927 0.000771 0.004007 0.000000 0.000000 0.000000
# 2 0.000771 0.009881 -0.005671 0.000000 0.000000 0.000000
# 3 0.004007 -0.005671 0.021894 0.000000 0.000000 0.000000
# 4 0.000000 0.000000 0.000000 0.052200 0.000000 0.000000
# 5 0.000000 0.000000 0.000000 0.000000 -0.141778 0.000000
# 6 0.000000 0.000000 0.000000 0.000000 0.000000 0.073155
#
#
# Mechanical properties :
#
#
# Convention : Reuss Voigt Hill
#
# Bulk Modulus (GPa) = 17.56986 27.29642 22.43314
# Shear Modulus (GPa) = 79.31814 18.49309 48.90562
#
# Velocity S-wave (km/s) = 6.53979 3.15778 5.13519
# Velocity P-wave (km/s) = 8.15468 5.29281 6.87432
#
# Compressibility (1/GPa) = 0.05691567
#
# Stress axis : x y z
#
# Youngs Moduli (GPa) = 37.13712 101.20420 45.67481
#
# Poissons Ratio (x) = -0.07798 -0.18301
# Poissons Ratio (y) = -0.02862 0.25900
# Poissons Ratio (z) = -0.14880 0.57389
#
# Static dielectric constant tensor:
#      x y z
#    x 1.646630 0.000000 0.000000 
#    y 0.000000 1.674810 0.000000 
#    z 0.000000 0.000000 1.629620 
# 
# From -- ./inp_files/17622.got.cif
#   From: 2010.05.17/outbox.cif.g08.bks.cpg/sg40_9_cif.got.tgz:17622.got - 2010.06.03 18:35:42.
