data_PCOD9363815
_publ_section_title
;
Structure prediction by ZEFSAII (Michael W. Deem and Ramdas Pophale) SiO2 
 PCOD9363815
Probable space group: A M A 2
;
_chemical_formula_sum "Si O2"
_cell_formula_units_Z 48
_cell_length_a 8.653730
_cell_length_b 10.397725
_cell_length_c 30.224896
_cell_angle_alpha 90.000000
_cell_angle_beta 90.000000
_cell_angle_gamma 90.000000
_cell_volume 2719.609084
_symmetry_space_group_name_H-M "A M A 2"
_symmetry_group_IT_number 40
_symmetry_cell_setting 'orthorhombic'
loop_
_space_group_symop_operation_xyz
x,y,z
-x,-y,z
1/2-x,y,z
1/2+x,-y,z
x,1/2+y,1/2+z
-x,1/2-y,1/2+z
1/2-x,1/2+y,1/2+z
1/2+x,1/2-y,1/2+z
loop_
_atom_site_type_symbol
_atom_site_label
_atom_site_fract_x
_atom_site_fract_y
_atom_site_fract_z
Si Si1 0.435438 0.639992 0.091010
Si Si2 0.564167 0.359124 0.322905
Si Si3 0.064317 0.860902 0.160847
Si Si4 0.435928 0.639387 0.425376
Si Si5 0.435922 0.359481 0.993351
Si Si6 0.934694 0.859622 0.259015
O O1 0.500000 0.500000 0.104071
O O2 0.250000 0.632509 0.087925
O O3 0.476783 0.749556 0.126244
O O4 0.502952 0.670001 0.042552
O O5 0.500000 0.500000 0.310755
O O6 0.750000 0.359374 0.319869
O O7 0.519260 0.335825 0.374301
O O8 0.495718 0.249645 0.291722
O O9 0.250000 0.867935 0.164356
O O10 0.995149 0.833937 0.209295
O O11 0.000000 0.000000 0.146648
O O12 0.500000 0.500000 0.438300
O O13 0.250000 0.634024 0.426675
O O14 0.486546 0.751581 0.458425
O O15 0.500000 0.500000 0.981222
O O16 0.250000 0.364391 0.994303
O O17 0.750000 0.863611 0.258986
O O18 0.000000 0.000000 0.271807
#
# Coordination Sequence:
#
# PCOD9363815 Si02
#       6
#     8   8   8   8   8   8
#     4  10  21  36  55  79 106 138 176 217 262 313
#     4  10  20  37  57  80 110 142 180 222 267 318
#     4  10  21  37  56  79 107 139 177 219 264 316
#     4   9  20  36  55  79 107 140 177 218 262 312
#     4  10  20  35  54  78 107 139 176 217 262 311
#     4  11  22  37  57  81 109 142 179 221 269 318
#
# _framework density 17.649594
#
# number of rings (size 3 to 8) (size 9 to 14) (size 15 to 20)
#    0.000    2.000    0.000    5.500    0.000    6.667 
#    0.000    6.667    0.000    0.000    0.000    0.000 
#    0.000    0.000    0.000    0.000    0.000    0.000 
#
# Total GULP energy -134022.979913 kJ/mol
# GULP energy per Si atom -5584.290830 kJ/mol
# Density = 1.760942 g / cm^3
# Si number density = 17.649594 Si / 1000 Ang^3
#
#
#
# Elastic Constant Matrix: (Units=GPa)
#
#
# Indices 1 2 3 4 5 6 
#
# 1 79.7785 67.7989 52.1317 0.0000 0.0000 0.0000
# 2 67.7989 194.8734 138.2417 0.0000 0.0000 0.0000
# 3 52.1317 138.2417 111.1533 0.0000 0.0000 0.0000
# 4 0.0000 0.0000 0.0000 44.4133 0.0000 0.0000
# 5 0.0000 0.0000 0.0000 0.0000 66.8376 0.0000
# 6 0.0000 0.0000 0.0000 0.0000 0.0000 32.0182
#
#
#
# Elastic Compliance Matrix: (Units=1/GPa)
#
#
# Indices 1 2 3 4 5 6 
#
# 1 0.018200 -0.002350 -0.005613 0.000000 0.000000 0.000000
# 2 -0.002350 0.043892 -0.053487 0.000000 0.000000 0.000000
# 3 -0.005613 -0.053487 0.078151 0.000000 0.000000 0.000000
# 4 0.000000 0.000000 0.000000 0.022516 0.000000 0.000000
# 5 0.000000 0.000000 0.000000 0.000000 0.014962 0.000000
# 6 0.000000 0.000000 0.000000 0.000000 0.000000 0.031232
#
#
# Mechanical properties :
#
#
# Convention : Reuss Voigt Hill
#
# Bulk Modulus (GPa) = 57.65968 100.23889 78.94928
# Shear Modulus (GPa) = 14.80895 37.16267 25.98581
#
# Velocity S-wave (km/s) = 2.89978 4.59364 3.84124
# Velocity P-wave (km/s) = 6.62961 9.22239 8.03132
#
# Compressibility (1/GPa) = 0.01734314
#
# Stress axis : x y z
#
# Youngs Moduli (GPa) = 54.94579 22.78301 12.79576
#
# Poissons Ratio (x) = 0.05354 0.07182
# Poissons Ratio (y) = 0.12913 0.68440
# Poissons Ratio (z) = 0.30841 1.21859
#
# Static dielectric constant tensor:
#      x y z
#    x 1.594610 0.000000 0.000000 
#    y 0.000000 1.577080 0.000000 
#    z 0.000000 0.000000 1.584570 
# 
# From -- ./inp_files/26161.got.cif
#   From: 2010.05.17/outbox.cif.g08.bks.cpg/sg40_14_cif.got.tgz:26161.got - 2010.06.03 18:35:42.
