data_PCOD9363754
_publ_section_title
;
Structure prediction by ZEFSAII (Michael W. Deem and Ramdas Pophale) SiO2 
 PCOD9363754
Probable space group: A M A 2
;
_chemical_formula_sum "Si O2"
_cell_formula_units_Z 56
_cell_length_a 17.358263
_cell_length_b 7.772704
_cell_length_c 20.885524
_cell_angle_alpha 90.000000
_cell_angle_beta 90.000000
_cell_angle_gamma 90.000000
_cell_volume 2817.888270
_symmetry_space_group_name_H-M "A M A 2"
_symmetry_group_IT_number 40
_symmetry_cell_setting 'orthorhombic'
loop_
_space_group_symop_operation_xyz
x,y,z
-x,-y,z
1/2-x,y,z
1/2+x,-y,z
x,1/2+y,1/2+z
-x,1/2-y,1/2+z
1/2-x,1/2+y,1/2+z
1/2+x,1/2-y,1/2+z
loop_
_atom_site_type_symbol
_atom_site_label
_atom_site_fract_x
_atom_site_fract_y
_atom_site_fract_z
Si Si1 0.164011 0.371006 0.720550
Si Si2 0.928593 0.366341 0.789689
Si Si3 0.949003 0.794582 0.043774
Si Si4 0.010157 0.697648 0.177586
Si Si5 0.339142 0.535713 0.029986
Si Si6 0.663716 0.085693 0.076337
Si Si7 0.052555 0.669366 0.929437
O O1 0.250000 0.297174 0.729267
O O2 0.143760 0.510579 0.774867
O O3 0.091911 0.241660 0.711320
O O4 0.163562 0.463364 0.651120
O O5 0.931171 0.269257 0.857485
O O6 0.000000 0.500000 0.788190
O O7 0.945042 0.247119 0.729107
O O8 0.894946 0.623345 0.046116
O O9 0.995223 0.797599 0.111025
O O10 0.894793 0.960761 0.040745
O O11 0.004466 0.776796 0.982091
O O12 0.000000 0.500000 0.161866
O O13 0.250000 0.484184 0.031178
O O14 0.348610 0.707323 0.073261
O O15 0.368236 0.608403 0.961932
O O16 0.750000 0.059222 0.050268
O O17 0.000000 0.500000 0.922199
#
# Coordination Sequence:
#
# PCOD9363754 Si02
#       7
#     8   8   8   8   8   8   8
#     4  10  20  36  58  84 115 156 199 243 303 360
#     4   9  19  37  57  80 113 150 198 242 284 357
#     4  11  20  36  59  84 115 155 193 247 298 354
#     4  11  21  36  58  86 120 153 194 247 304 356
#     4  10  21  36  55  82 116 149 190 248 302 352
#     4  10  20  34  55  87 116 147 193 241 295 355
#     4   9  19  35  56  84 109 146 200 234 287 353
#
# _framework density 19.873038999999999
#
# number of rings (size 3 to 8) (size 9 to 14) (size 15 to 20)
#    0.000    2.000    1.429    3.429    0.000    2.286 
#    2.571    1.429    0.000    0.857    0.000    0.000 
#    0.000    0.000    0.000    0.000    0.000    0.000 
#
# Total GULP energy -156043.143162 kJ/mol
# GULP energy per Si atom -5572.969399 kJ/mol
# Density = 1.982781 g / cm^3
# Si number density = 19.873039 Si / 1000 Ang^3
#
#
#
# Elastic Constant Matrix: (Units=GPa)
#
#
# Indices 1 2 3 4 5 6 
#
# 1 116.0688 43.7674 20.2476 0.0000 0.0000 0.0000
# 2 43.7674 94.7116 24.2732 0.0000 0.0000 0.0000
# 3 20.2476 24.2732 104.8143 0.0000 0.0000 0.0000
# 4 0.0000 0.0000 0.0000 22.6860 0.0000 0.0000
# 5 0.0000 0.0000 0.0000 0.0000 12.4710 0.0000
# 6 0.0000 0.0000 0.0000 0.0000 0.0000 33.0579
#
#
#
# Elastic Compliance Matrix: (Units=1/GPa)
#
#
# Indices 1 2 3 4 5 6 
#
# 1 0.010525 -0.004616 -0.000964 0.000000 0.000000 0.000000
# 2 -0.004616 0.013250 -0.002177 0.000000 0.000000 0.000000
# 3 -0.000964 -0.002177 0.010231 0.000000 0.000000 0.000000
# 4 0.000000 0.000000 0.000000 0.044080 0.000000 0.000000
# 5 0.000000 0.000000 0.000000 0.000000 0.080186 0.000000
# 6 0.000000 0.000000 0.000000 0.000000 0.000000 0.030250
#
#
# Mechanical properties :
#
#
# Convention : Reuss Voigt Hill
#
# Bulk Modulus (GPa) = 54.08049 54.68567 54.38308
# Shear Modulus (GPa) = 23.78697 28.79672 26.29185
#
# Velocity S-wave (km/s) = 3.46345 3.81075 3.64124
# Velocity P-wave (km/s) = 6.57769 6.85125 6.71586
#
# Compressibility (1/GPa) = 0.01849096
#
# Stress axis : x y z
#
# Youngs Moduli (GPa) = 95.01620 75.47444 97.74250
#
# Poissons Ratio (x) = 0.34842 0.09422
# Poissons Ratio (y) = 0.43864 0.21274
# Poissons Ratio (z) = 0.09159 0.16428
#
# Static dielectric constant tensor:
#      x y z
#    x 1.756700 0.000000 0.000000 
#    y 0.000000 1.726360 0.000000 
#    z 0.000000 0.000000 1.744370 
# 
# From -- ./inp_files/23304.got.cif
#   From: 2010.05.17/outbox.cif.g08.bks.cpg/sg40_12_cif.got.tgz:23304.got - 2010.06.03 18:35:42.
