data_PCOD9363787
_publ_section_title
;
Structure prediction by ZEFSAII (Michael W. Deem and Ramdas Pophale) SiO2 
 PCOD9363787
Probable space group: A M A 2
;
_chemical_formula_sum "Si O2"
_cell_formula_units_Z 60
_cell_length_a 9.733359
_cell_length_b 15.913318
_cell_length_c 18.565119
_cell_angle_alpha 90.000000
_cell_angle_beta 90.000000
_cell_angle_gamma 90.000000
_cell_volume 2875.551968
_symmetry_space_group_name_H-M "A M A 2"
_symmetry_group_IT_number 40
_symmetry_cell_setting 'orthorhombic'
loop_
_space_group_symop_operation_xyz
x,y,z
-x,-y,z
1/2-x,y,z
1/2+x,-y,z
x,1/2+y,1/2+z
-x,1/2-y,1/2+z
1/2-x,1/2+y,1/2+z
1/2+x,1/2-y,1/2+z
loop_
_atom_site_type_symbol
_atom_site_label
_atom_site_fract_x
_atom_site_fract_y
_atom_site_fract_z
Si Si1 0.897160 0.884222 0.320550
Si Si2 0.904138 0.929747 0.879360
Si Si3 0.500000 0.500000 0.946380
Si Si4 0.084509 0.745840 0.138538
Si Si5 0.101053 0.841443 0.524647
Si Si6 0.402368 0.073435 0.708198
Si Si7 0.088551 0.080374 0.156916
Si Si8 0.903614 0.248850 0.371707
O O1 0.750000 0.840178 0.325787
O O2 0.901888 0.929329 0.243894
O O3 0.912091 0.944958 0.389402
O O4 0.016911 0.816571 0.323413
O O5 0.750000 0.929062 0.910234
O O6 0.892460 0.943573 0.793472
O O7 0.970859 0.838523 0.883861
O O8 0.000000 0.000000 0.912263
O O9 0.420649 0.436300 0.997993
O O10 0.250000 0.761941 0.136868
O O11 0.056849 0.671238 0.197346
O O12 0.995870 0.832020 0.144885
O O13 0.024535 0.696698 0.069062
O O14 0.250000 0.832040 0.562204
O O15 0.106882 0.791597 0.449913
O O16 0.250000 0.065181 0.676043
O O17 0.500000 0.000000 0.678062
O O18 0.250000 0.084315 0.131647
O O19 0.000000 0.000000 0.129574
O O20 0.750000 0.263269 0.342276
#
# Coordination Sequence:
#
# PCOD9363787 Si02
#       8
#     8   8   4   8   8   8   8   8
#     4  10  20  34  58  91 122 151 189 240 302 367
#     4   9  17  32  53  78 107 138 179 228 282 340
#     4  10  20  38  60  92 128 158 196 244 306 372
#     4  11  24  41  59  83 117 161 208 253 302 361
#     4  10  22  38  58  82 115 158 200 244 294 357
#     4   9  19  34  54  81 112 148 188 234 288 346
#     4  11  23  40  63  91 121 156 200 254 311 372
#     4   9  19  35  55  79 112 152 189 234 294 354
#
# _framework density 20.865558
#
# number of rings (size 3 to 8) (size 9 to 14) (size 15 to 20)
#    0.000    2.133    0.667    2.000    0.933    6.933 
#    0.000    3.333    0.000    1.600    0.000    0.000 
#    0.000    0.000    0.000    0.000    0.000    0.000 
#
# Total GULP energy -167117.556022 kJ/mol
# GULP energy per Si atom -5570.585201 kJ/mol
# Density = 2.081807 g / cm^3
# Si number density = 20.865558 Si / 1000 Ang^3
#
#
#
# Elastic Constant Matrix: (Units=GPa)
#
#
# Indices 1 2 3 4 5 6 
#
# 1 105.1831 65.9739 4.5422 0.0000 0.0000 0.0000
# 2 65.9739 142.3598 -0.9647 0.0000 0.0000 0.0000
# 3 4.5422 -0.9647 17.7981 0.0000 0.0000 0.0000
# 4 0.0000 0.0000 0.0000 12.3713 0.0000 0.0000
# 5 0.0000 0.0000 0.0000 0.0000 34.8201 0.0000
# 6 0.0000 0.0000 0.0000 0.0000 0.0000 -7.0282
#
#
#
# Elastic Compliance Matrix: (Units=1/GPa)
#
#
# Indices 1 2 3 4 5 6 
#
# 1 0.013659 -0.006356 -0.003830 0.000000 0.000000 0.000000
# 2 -0.006356 0.009985 0.002163 0.000000 0.000000 0.000000
# 3 -0.003830 0.002163 0.057281 0.000000 0.000000 0.000000
# 4 0.000000 0.000000 0.000000 0.080832 0.000000 0.000000
# 5 0.000000 0.000000 0.000000 0.000000 0.028719 0.000000
# 6 0.000000 0.000000 0.000000 0.000000 0.000000 -0.142284
#
#
# Mechanical properties :
#
#
# Convention : Reuss Voigt Hill
#
# Bulk Modulus (GPa) = 15.41351 44.93821 30.17586
# Shear Modulus (GPa) = 58.23093 21.08528 39.65810
#
# Velocity S-wave (km/s) = 5.28850 3.18233 4.36437
# Velocity P-wave (km/s) = 6.68537 5.92341 6.31589
#
# Compressibility (1/GPa) = 0.06487815
#
# Stress axis : x y z
#
# Youngs Moduli (GPa) = 73.20958 100.15266 17.45791
#
# Poissons Ratio (x) = 0.63659 0.06687
# Poissons Ratio (y) = 0.46533 -0.03777
# Poissons Ratio (z) = 0.28043 -0.21666
#
# Static dielectric constant tensor:
#      x y z
#    x 1.386200 0.000000 0.000000 
#    y 0.000000 1.750380 0.000000 
#    z 0.000000 0.000000 1.778430 
# 
# From -- ./inp_files/24221.got.cif
#   From: 2010.05.17/outbox.cif.g08.bks.cpg/sg40_13_cif.got.tgz:24221.got - 2010.06.03 18:35:42.
