data_PCOD9363497
_publ_section_title
;
Structure prediction by ZEFSAII (Michael W. Deem and Ramdas Pophale) SiO2 
 PCOD9363497
Probable space group: A M A 2
;
_chemical_formula_sum "Si O2"
_cell_formula_units_Z 64
_cell_length_a 17.306609
_cell_length_b 9.303972
_cell_length_c 16.889915
_cell_angle_alpha 90.000000
_cell_angle_beta 90.000000
_cell_angle_gamma 90.000000
_cell_volume 2719.617585
_symmetry_space_group_name_H-M "A M A 2"
_symmetry_group_IT_number 40
_symmetry_cell_setting 'orthorhombic'
loop_
_space_group_symop_operation_xyz
x,y,z
-x,-y,z
1/2-x,y,z
1/2+x,-y,z
x,1/2+y,1/2+z
-x,1/2-y,1/2+z
1/2-x,1/2+y,1/2+z
1/2+x,1/2-y,1/2+z
loop_
_atom_site_type_symbol
_atom_site_label
_atom_site_fract_x
_atom_site_fract_y
_atom_site_fract_z
Si Si1 0.577941 0.563886 0.208070
Si Si2 0.160980 0.985306 0.560646
Si Si3 0.159554 0.433216 0.452571
Si Si4 0.578278 0.789871 0.339700
Si Si5 0.533079 0.659136 0.986155
Si Si6 0.082980 0.798788 0.095687
Si Si7 0.157770 0.439528 0.752897
Si Si8 0.660703 0.357047 0.328824
O O1 0.500000 0.500000 0.172242
O O2 0.640113 0.598132 0.141640
O O3 0.555266 0.692542 0.265358
O O4 0.613870 0.440327 0.262289
O O5 0.250000 0.001093 0.544975
O O6 0.122063 0.885920 0.493772
O O7 0.128820 0.147345 0.579105
O O8 0.250000 0.434833 0.467980
O O9 0.139199 0.303356 0.391760
O O10 0.115410 0.409829 0.532464
O O11 0.132352 0.579919 0.411463
O O12 0.507532 0.806676 0.401881
O O13 0.383290 0.070983 0.298962
O O14 0.500000 0.500000 0.003143
O O15 0.501696 0.760323 0.058216
O O16 0.106703 0.872057 0.179491
O O17 0.250000 0.466961 0.731434
O O18 0.158806 0.309271 0.814572
O O19 0.750000 0.405087 0.321206
#
# Coordination Sequence:
#
# PCOD9363497 Si02
#       8
#     8   8   8   8   8   8   8   8
#     4  11  22  39  68 101 133 183 235 296 360 436
#     4  11  21  38  72 106 133 180 245 307 367 441
#     4   9  17  34  61  92 134 187 237 284 344 424
#     4  10  23  40  64  99 140 187 234 296 358 428
#     4   9  21  42  65  97 135 187 235 286 352 440
#     4  10  19  36  68 102 138 186 240 294 363 431
#     4  11  21  36  65 107 147 186 234 296 357 418
#     4   9  19  35  60  95 136 184 235 283 346 425
#
# _framework density 23.532720999999999
#
# number of rings (size 3 to 8) (size 9 to 14) (size 15 to 20)
#    0.000    2.000    1.250    3.000    0.000    2.500 
#    0.000    0.625   19.250    1.500    0.000    0.000 
#    0.000    0.000    0.000    0.000    0.000    0.000 
#
# Total GULP energy -178598.645476 kJ/mol
# GULP energy per Si atom -5581.207671 kJ/mol
# Density = 2.347916 g / cm^3
# Si number density = 23.532721 Si / 1000 Ang^3
#
#
#
# Elastic Constant Matrix: (Units=GPa)
#
#
# Indices 1 2 3 4 5 6 
#
# 1 82.0907 28.1557 7.5888 0.0000 0.0000 0.0000
# 2 28.1557 102.0094 49.7589 0.0000 0.0000 0.0000
# 3 7.5888 49.7589 100.7285 0.0000 0.0000 0.0000
# 4 0.0000 0.0000 0.0000 37.5276 0.0000 0.0000
# 5 0.0000 0.0000 0.0000 0.0000 24.4437 0.0000
# 6 0.0000 0.0000 0.0000 0.0000 0.0000 23.5319
#
#
#
# Elastic Compliance Matrix: (Units=1/GPa)
#
#
# Indices 1 2 3 4 5 6 
#
# 1 0.013545 -0.004270 0.001089 0.000000 0.000000 0.000000
# 2 -0.004270 0.014261 -0.006723 0.000000 0.000000 0.000000
# 3 0.001089 -0.006723 0.013167 0.000000 0.000000 0.000000
# 4 0.000000 0.000000 0.000000 0.026647 0.000000 0.000000
# 5 0.000000 0.000000 0.000000 0.000000 0.040910 0.000000
# 6 0.000000 0.000000 0.000000 0.000000 0.000000 0.042495
#
#
# Mechanical properties :
#
#
# Convention : Reuss Voigt Hill
#
# Bulk Modulus (GPa) = 47.24796 50.64839 48.94817
# Shear Modulus (GPa) = 28.10738 30.38900 29.24819
#
# Velocity S-wave (km/s) = 3.45975 3.59744 3.52927
# Velocity P-wave (km/s) = 6.00675 6.23094 6.11987
#
# Compressibility (1/GPa) = 0.02116494
#
# Stress axis : x y z
#
# Youngs Moduli (GPa) = 73.82547 70.12146 75.94862
#
# Poissons Ratio (x) = 0.29940 -0.08269
# Poissons Ratio (y) = 0.31522 0.51061
# Poissons Ratio (z) = -0.08037 0.47143
#
# Static dielectric constant tensor:
#      x y z
#    x 1.979210 0.000000 0.000000 
#    y 0.000000 1.907480 0.000000 
#    z 0.000000 0.000000 1.911220 
# 
# From -- ./inp_files/17926.got.cif
#   From: 2010.05.17/outbox.cif.g08.bks.cpg/sg40_9_cif.got.tgz:17926.got - 2010.06.03 18:35:42.
