data_PCOD9363309
_publ_section_title
;
Structure prediction by ZEFSAII (Michael W. Deem and Ramdas Pophale) SiO2 
 PCOD9363309
Probable space group: A M A 2
;
_chemical_formula_sum "Si O2"
_cell_formula_units_Z 48
_cell_length_a 8.533308
_cell_length_b 9.491593
_cell_length_c 32.387224
_cell_angle_alpha 90.000000
_cell_angle_beta 90.000000
_cell_angle_gamma 90.000000
_cell_volume 2623.193054
_symmetry_space_group_name_H-M "A M A 2"
_symmetry_group_IT_number 40
_symmetry_cell_setting 'orthorhombic'
loop_
_space_group_symop_operation_xyz
x,y,z
-x,-y,z
1/2-x,y,z
1/2+x,-y,z
x,1/2+y,1/2+z
-x,1/2-y,1/2+z
1/2-x,1/2+y,1/2+z
1/2+x,1/2-y,1/2+z
loop_
_atom_site_type_symbol
_atom_site_label
_atom_site_fract_x
_atom_site_fract_y
_atom_site_fract_z
Si Si1 0.938975 0.160855 0.153340
Si Si2 0.938755 0.660101 0.562623
Si Si3 0.936917 0.158771 0.729729
Si Si4 0.939465 0.659530 0.472958
Si Si5 0.437082 0.340588 0.805722
Si Si6 0.061351 0.158421 0.394737
O O1 0.750000 0.158735 0.155915
O O2 0.986890 0.216847 0.107551
O O3 0.006489 0.256557 0.189420
O O4 0.000000 0.000000 0.157399
O O5 0.750000 0.658812 0.562727
O O6 0.989067 0.720110 0.518052
O O7 0.000000 0.500000 0.562298
O O8 0.750000 0.157467 0.731076
O O9 0.001314 0.241115 0.769604
O O10 0.000000 0.000000 0.728889
O O11 0.750000 0.656687 0.472389
O O12 0.991575 0.748907 0.433611
O O13 0.000000 0.500000 0.469884
O O14 0.500000 0.500000 0.799654
O O15 0.250000 0.344725 0.805411
O O16 0.496612 0.291021 0.850628
O O17 0.250000 0.157445 0.392989
O O18 0.000000 0.000000 0.400130
#
# Coordination Sequence:
#
# PCOD9363309 Si02
#       6
#     8   8   8   8   8   8
#     4  10  19  34  57  83 110 143 183 224 266 314
#     4   8  15  29  50  76 106 139 177 220 261 305
#     4  12  25  41  58  80 110 141 176 219 271 324
#     4   9  18  32  52  78 108 141 178 220 264 312
#     4  11  22  39  61  83 107 139 180 222 266 317
#     4  10  20  35  54  78 108 141 179 221 265 314
#
# _framework density 18.298311999999999
#
# number of rings (size 3 to 8) (size 9 to 14) (size 15 to 20)
#    0.000    2.000    0.000    5.500    0.000    2.667 
#    0.000    2.500    0.000    2.000    0.000    0.000 
#    0.000    0.000    0.000    0.000    0.000    0.000 
#
# Total GULP energy -133892.192788 kJ/mol
# GULP energy per Si atom -5578.841366 kJ/mol
# Density = 1.825666 g / cm^3
# Si number density = 18.298312 Si / 1000 Ang^3
#
#
#
# Elastic Constant Matrix: (Units=GPa)
#
#
# Indices 1 2 3 4 5 6 
#
# 1 95.7079 31.8814 60.7234 0.0000 0.0000 0.0000
# 2 31.8814 73.2081 97.3193 0.0000 0.0000 0.0000
# 3 60.7234 97.3193 239.6004 0.0000 0.0000 0.0000
# 4 0.0000 0.0000 0.0000 30.8877 0.0000 0.0000
# 5 0.0000 0.0000 0.0000 0.0000 26.3952 0.0000
# 6 0.0000 0.0000 0.0000 0.0000 0.0000 27.1750
#
#
#
# Elastic Compliance Matrix: (Units=1/GPa)
#
#
# Indices 1 2 3 4 5 6 
#
# 1 0.012695 -0.002720 -0.002112 0.000000 0.000000 0.000000
# 2 -0.002720 0.030275 -0.011607 0.000000 0.000000 0.000000
# 3 -0.002112 -0.011607 0.009424 0.000000 0.000000 0.000000
# 4 0.000000 0.000000 0.000000 0.032375 0.000000 0.000000
# 5 0.000000 0.000000 0.000000 0.000000 0.037886 0.000000
# 6 0.000000 0.000000 0.000000 0.000000 0.000000 0.036799
#
#
# Mechanical properties :
#
#
# Convention : Reuss Voigt Hill
#
# Bulk Modulus (GPa) = 51.24820 87.59606 69.42213
# Shear Modulus (GPa) = 25.14624 31.46440 28.30532
#
# Velocity S-wave (km/s) = 3.71109 4.15121 3.93731
# Velocity P-wave (km/s) = 6.81402 8.42329 7.66103
#
# Compressibility (1/GPa) = 0.01951288
#
# Stress axis : x y z
#
# Youngs Moduli (GPa) = 78.77185 33.03108 106.11731
#
# Poissons Ratio (x) = 0.08986 0.22416
# Poissons Ratio (y) = 0.21429 1.23173
# Poissons Ratio (z) = 0.16640 0.38340
#
# Static dielectric constant tensor:
#      x y z
#    x 1.619190 0.000000 0.000000 
#    y 0.000000 1.581230 0.000000 
#    z 0.000000 0.000000 1.673830 
# 
# From -- ./inp_files/26125.got.cif
#   From: 2010.05.17/outbox.cif.g08.bks.cpg/sg40_14_cif.got.tgz:26125.got - 2010.06.03 18:35:42.
