data_PCOD9363394
_publ_section_title
;
Structure prediction by ZEFSAII (Michael W. Deem and Ramdas Pophale) SiO2 
 PCOD9363394
Probable space group: A M A 2
;
_chemical_formula_sum "Si O2"
_cell_formula_units_Z 64
_cell_length_a 21.155788
_cell_length_b 18.521982
_cell_length_c 7.472639
_cell_angle_alpha 90.000000
_cell_angle_beta 90.000000
_cell_angle_gamma 90.000000
_cell_volume 2928.132105
_symmetry_space_group_name_H-M "A M A 2"
_symmetry_group_IT_number 40
_symmetry_cell_setting 'orthorhombic'
loop_
_space_group_symop_operation_xyz
x,y,z
-x,-y,z
1/2-x,y,z
1/2+x,-y,z
x,1/2+y,1/2+z
-x,1/2-y,1/2+z
1/2-x,1/2+y,1/2+z
1/2+x,1/2-y,1/2+z
loop_
_atom_site_type_symbol
_atom_site_label
_atom_site_fract_x
_atom_site_fract_y
_atom_site_fract_z
Si Si1 0.931636 0.464936 0.064210
Si Si2 0.391224 0.826508 0.898923
Si Si3 0.320920 0.946784 0.754962
Si Si4 0.025338 0.144916 0.821480
Si Si5 0.183158 0.833788 0.433232
Si Si6 0.321219 0.704261 0.684462
Si Si7 0.563334 0.900228 0.197637
Si Si8 0.445348 0.305040 0.780388
O O1 0.872478 0.500693 0.166367
O O2 0.937067 0.386060 0.153805
O O3 0.000000 0.500000 0.107603
O O4 0.927075 0.461757 0.847765
O O5 0.351201 0.900409 0.917511
O O6 0.451064 0.847405 0.773808
O O7 0.348732 0.762192 0.825067
O O8 0.426101 0.798312 0.073890
O O9 0.250000 0.975818 0.791535
O O10 0.313574 0.884561 0.605523
O O11 0.047502 0.226130 0.865257
O O12 0.036876 0.092648 0.993913
O O13 0.250000 0.844017 0.331348
O O14 0.181373 0.751212 0.502449
O O15 0.114963 0.847843 0.352691
O O16 0.250000 0.682339 0.730173
O O17 0.369838 0.639246 0.675300
O O18 0.510571 0.847913 0.286030
#
# Coordination Sequence:
#
# PCOD9363394 Si02
#       8
#     8   8   8   8   8   8   8   8
#     4  12  25  43  65  88 124 173 219 265 318 372
#     4  10  20  35  61  93 122 162 204 257 318 374
#     4  10  22  43  64  87 123 170 220 259 305 376
#     4  11  23  39  63  98 129 159 208 269 327 386
#     4   9  19  36  62  88 119 159 195 249 313 374
#     4  10  19  35  58  87 127 161 195 250 316 382
#     4  11  24  38  63  95 124 163 214 259 323 388
#     4  11  21  36  64  97 128 152 199 268 334 390
#
# _framework density 21.856938
#
# number of rings (size 3 to 8) (size 9 to 14) (size 15 to 20)
#    0.000    1.500    3.750    2.625    3.500    2.000 
#    2.250    1.250    0.000    0.000    0.000    0.000 
#    0.000    0.000    0.000    0.000    0.000    0.000 
#
# Total GULP energy -178384.508630 kJ/mol
# GULP energy per Si atom -5574.515895 kJ/mol
# Density = 2.180719 g / cm^3
# Si number density = 21.856938 Si / 1000 Ang^3
#
#
#
# Elastic Constant Matrix: (Units=GPa)
#
#
# Indices 1 2 3 4 5 6 
#
# 1 175.5825 20.3497 8.5485 0.0000 0.0000 0.0000
# 2 20.3497 26.3056 -0.5545 0.0000 0.0000 0.0000
# 3 8.5485 -0.5545 50.5214 0.0000 0.0000 0.0000
# 4 0.0000 0.0000 0.0000 20.0975 0.0000 0.0000
# 5 0.0000 0.0000 0.0000 0.0000 16.2882 0.0000
# 6 0.0000 0.0000 0.0000 0.0000 0.0000 3.4871
#
#
#
# Elastic Compliance Matrix: (Units=1/GPa)
#
#
# Indices 1 2 3 4 5 6 
#
# 1 0.006319 -0.004912 -0.001123 0.000000 0.000000 0.000000
# 2 -0.004912 0.041842 0.001290 0.000000 0.000000 0.000000
# 3 -0.001123 0.001290 0.019998 0.000000 0.000000 0.000000
# 4 0.000000 0.000000 0.000000 0.049758 0.000000 0.000000
# 5 0.000000 0.000000 0.000000 0.000000 0.061394 0.000000
# 6 0.000000 0.000000 0.000000 0.000000 0.000000 0.286769
#
#
# Mechanical properties :
#
#
# Convention : Reuss Voigt Hill
#
# Bulk Modulus (GPa) = 17.04471 34.34408 25.69440
# Shear Modulus (GPa) = 10.09843 22.91227 16.50535
#
# Velocity S-wave (km/s) = 2.15181 3.24123 2.75099
# Velocity P-wave (km/s) = 3.74018 5.45479 4.67673
#
# Compressibility (1/GPa) = 0.05866924
#
# Stress axis : x y z
#
# Youngs Moduli (GPa) = 158.24454 23.89941 50.00545
#
# Poissons Ratio (x) = 0.11740 0.05617
# Poissons Ratio (y) = 0.77734 -0.06453
# Poissons Ratio (z) = 0.17774 -0.03084
#
# Static dielectric constant tensor:
#      x y z
#    x 1.859820 0.000000 0.000000 
#    y 0.000000 1.820360 0.000000 
#    z 0.000000 0.000000 1.857950 
# 
# From -- ./inp_files/7776.got.cif
#   From: 2010.05.17/outbox.cif.g08.bks.cpg/sg40_4_cif.got.tgz:7776.got - 2010.06.03 18:35:42.
