data_PCOD9363239
_publ_section_title
;
Structure prediction by ZEFSAII (Michael W. Deem and Ramdas Pophale) SiO2 
 PCOD9363239
Probable space group: A M A 2
;
_chemical_formula_sum "Si O2"
_cell_formula_units_Z 64
_cell_length_a 18.732778
_cell_length_b 9.966732
_cell_length_c 16.348256
_cell_angle_alpha 90.000000
_cell_angle_beta 90.000000
_cell_angle_gamma 90.000000
_cell_volume 3052.294237
_symmetry_space_group_name_H-M "A M A 2"
_symmetry_group_IT_number 40
_symmetry_cell_setting 'orthorhombic'
loop_
_space_group_symop_operation_xyz
x,y,z
-x,-y,z
1/2-x,y,z
1/2+x,-y,z
x,1/2+y,1/2+z
-x,1/2-y,1/2+z
1/2-x,1/2+y,1/2+z
1/2+x,1/2-y,1/2+z
loop_
_atom_site_type_symbol
_atom_site_label
_atom_site_fract_x
_atom_site_fract_y
_atom_site_fract_z
Si Si1 0.169061 0.537597 0.117370
Si Si2 0.831689 0.907578 0.423971
Si Si3 0.329643 0.837323 0.344035
Si Si4 0.067166 0.816840 0.930805
Si Si5 0.407991 0.123645 0.928106
Si Si6 0.391640 0.237303 0.113245
Si Si7 0.056592 0.253670 0.615840
Si Si8 0.670162 0.534818 0.665003
O O1 0.250000 0.555811 0.151133
O O2 0.144138 0.383283 0.120978
O O3 0.106294 0.634588 0.150860
O O4 0.173326 0.582971 0.022067
O O5 0.750000 0.896368 0.392989
O O6 0.877883 0.784775 0.390492
O O7 0.867567 0.046768 0.396274
O O8 0.250000 0.830050 0.378128
O O9 0.360708 0.692587 0.359384
O O10 0.327788 0.897517 0.254008
O O11 0.988217 0.842901 0.898813
O O12 0.100527 0.964751 0.938043
O O13 0.051852 0.745552 0.017793
O O14 0.392834 0.189870 0.017373
O O15 0.474429 0.241333 0.143585
O O16 0.347995 0.122136 0.160840
O O17 0.102715 0.388990 0.626181
O O18 0.750000 0.557768 0.628265
#
# Coordination Sequence:
#
# PCOD9363239 Si02
#       8
#     8   8   8   8   8   8   8   8
#     4  10  19  33  58  89 116 149 197 247 297 351
#     4   9  18  34  53  83 118 147 187 238 291 348
#     4  10  22  39  57  83 119 155 195 242 294 359
#     4   9  19  34  57  86 113 146 191 248 297 343
#     4  10  19  36  58  84 116 150 196 247 293 351
#     4  11  20  36  60  88 118 153 200 251 296 355
#     4  10  20  37  57  85 120 153 192 248 303 350
#     4  11  23  39  58  84 120 159 198 245 301 361
#
# _framework density 20.967834
#
# number of rings (size 3 to 8) (size 9 to 14) (size 15 to 20)
#    0.000    2.000    2.500    1.500    0.000    2.000 
#    4.500    1.250    2.750    3.000    0.000    0.000 
#    0.000    0.000    0.000    0.000    0.000    0.000 
#
# Total GULP energy -178247.844907 kJ/mol
# GULP energy per Si atom -5570.245153 kJ/mol
# Density = 2.092011 g / cm^3
# Si number density = 20.967834 Si / 1000 Ang^3
#
#
#
# Elastic Constant Matrix: (Units=GPa)
#
#
# Indices 1 2 3 4 5 6 
#
# 1 88.0574 34.4877 2.5326 0.0000 0.0000 0.0000
# 2 34.4877 111.0458 -5.8073 0.0000 0.0000 0.0000
# 3 2.5326 -5.8073 12.6434 0.0000 0.0000 0.0000
# 4 0.0000 0.0000 0.0000 18.3275 0.0000 0.0000
# 5 0.0000 0.0000 0.0000 0.0000 9.6458 0.0000
# 6 0.0000 0.0000 0.0000 0.0000 0.0000 31.0520
#
#
#
# Elastic Compliance Matrix: (Units=1/GPa)
#
#
# Indices 1 2 3 4 5 6 
#
# 1 0.013189 -0.004338 -0.004634 0.000000 0.000000 0.000000
# 2 -0.004338 0.010654 0.005763 0.000000 0.000000 0.000000
# 3 -0.004634 0.005763 0.082668 0.000000 0.000000 0.000000
# 4 0.000000 0.000000 0.000000 0.054563 0.000000 0.000000
# 5 0.000000 0.000000 0.000000 0.000000 0.103672 0.000000
# 6 0.000000 0.000000 0.000000 0.000000 0.000000 0.032204
#
#
# Mechanical properties :
#
#
# Convention : Reuss Voigt Hill
#
# Bulk Modulus (GPa) = 9.99105 30.46364 20.22734
# Shear Modulus (GPa) = 14.84855 23.84064 19.34460
#
# Velocity S-wave (km/s) = 2.66401 3.37562 3.04070
# Velocity P-wave (km/s) = 3.77331 5.45466 4.68995
#
# Compressibility (1/GPa) = 0.10008963
#
# Stress axis : x y z
#
# Youngs Moduli (GPa) = 75.82271 93.86111 12.09664
#
# Poissons Ratio (x) = 0.40721 0.05606
# Poissons Ratio (y) = 0.32895 -0.06971
# Poissons Ratio (z) = 0.35140 -0.54088
#
# Static dielectric constant tensor:
#      x y z
#    x 1.799620 0.000000 0.000000 
#    y 0.000000 1.758370 0.000000 
#    z 0.000000 0.000000 1.796460 
# 
# From -- ./inp_files/21391.got.cif
#   From: 2010.05.17/outbox.cif.g08.bks.cpg/sg40_11_cif.got.tgz:21391.got - 2010.06.03 18:35:42.
