data_PCOD9363004
_publ_section_title
;
Structure prediction by ZEFSAII (Michael W. Deem and Ramdas Pophale) SiO2 
 PCOD9363004
Probable space group: A M A 2
;
_chemical_formula_sum "Si O2"
_cell_formula_units_Z 64
_cell_length_a 14.517366
_cell_length_b 11.354224
_cell_length_c 15.360152
_cell_angle_alpha 90.000000
_cell_angle_beta 90.000000
_cell_angle_gamma 90.000000
_cell_volume 2531.866470
_symmetry_space_group_name_H-M "A M A 2"
_symmetry_group_IT_number 40
_symmetry_cell_setting 'orthorhombic'
loop_
_space_group_symop_operation_xyz
x,y,z
-x,-y,z
1/2-x,y,z
1/2+x,-y,z
x,1/2+y,1/2+z
-x,1/2-y,1/2+z
1/2-x,1/2+y,1/2+z
1/2+x,1/2-y,1/2+z
loop_
_atom_site_type_symbol
_atom_site_label
_atom_site_fract_x
_atom_site_fract_y
_atom_site_fract_z
Si Si1 0.362277 0.695924 0.330590
Si Si2 0.136700 0.220319 0.267843
Si Si3 0.644854 0.164994 0.595052
Si Si4 0.852156 0.802631 0.453184
Si Si5 0.645025 0.417321 0.497606
Si Si6 0.138890 0.219036 0.648285
Si Si7 0.594518 0.055505 0.423497
Si Si8 0.138341 0.985029 0.168786
O O1 0.250000 0.690770 0.330563
O O2 0.398696 0.609957 0.405830
O O3 0.392121 0.651689 0.234959
O O4 0.379877 0.829388 0.368100
O O5 0.250000 0.220558 0.270266
O O6 0.110367 0.311393 0.192022
O O7 0.102482 0.248286 0.365159
O O8 0.107542 0.090541 0.231719
O O9 0.750000 0.117628 0.598533
O O10 0.650840 0.293693 0.550155
O O11 0.589509 0.091326 0.525070
O O12 0.750000 0.749276 0.460916
O O13 0.896147 0.794626 0.549375
O O14 0.842603 0.939914 0.426379
O O15 0.750000 0.457947 0.481667
O O16 0.603369 0.499898 0.570163
O O17 0.250000 0.202787 0.640704
O O18 0.119182 0.349844 0.685096
O O19 0.500000 0.000000 0.393156
O O20 0.250000 0.995818 0.167736
#
# Coordination Sequence:
#
# PCOD9363004 Si02
#       8
#     8   8   8   8   8   8   8   8
#     4   9  16  30  50  71  94 123 156 196 241 285
#     4   8  14  26  49  74  94 119 155 194 238 286
#     4   8  14  28  49  72  93 119 157 201 240 280
#     4  10  19  32  48  71 100 126 153 195 243 288
#     4   7  11  20  39  64  88 111 143 184 225 267
#     4   9  17  27  44  70  99 125 150 186 241 292
#     4  11  21  32  48  72  97 129 168 203 240 285
#     4   8  12  21  38  64  91 114 142 181 224 273
#
# _framework density 25.277795999999999
#
# number of rings (size 3 to 8) (size 9 to 14) (size 15 to 20)
#    0.000    3.250    0.000    4.125    0.000    2.000 
#    0.000    2.500    0.000    6.000    0.000    0.875 
#    0.000    0.000    0.000    0.000    0.000    0.000 
#
# Total GULP energy -178348.546010 kJ/mol
# GULP energy per Si atom -5573.392063 kJ/mol
# Density = 2.522026 g / cm^3
# Si number density = 25.277796 Si / 1000 Ang^3
#
#
#
# Elastic Constant Matrix: (Units=GPa)
#
#
# Indices 1 2 3 4 5 6 
#
# 1 66.0069 3.2179 5.9358 0.0000 0.0000 0.0000
# 2 3.2179 21.4352 11.1702 0.0000 0.0000 0.0000
# 3 5.9358 11.1702 288.2495 0.0000 0.0000 0.0000
# 4 0.0000 0.0000 0.0000 18.1271 0.0000 0.0000
# 5 0.0000 0.0000 0.0000 0.0000 -8.1335 0.0000
# 6 0.0000 0.0000 0.0000 0.0000 0.0000 6.6576
#
#
#
# Elastic Compliance Matrix: (Units=1/GPa)
#
#
# Indices 1 2 3 4 5 6 
#
# 1 0.015277 -0.002173 -0.000230 0.000000 0.000000 0.000000
# 2 -0.002173 0.047923 -0.001812 0.000000 0.000000 0.000000
# 3 -0.000230 -0.001812 0.003544 0.000000 0.000000 0.000000
# 4 0.000000 0.000000 0.000000 0.055166 0.000000 0.000000
# 5 0.000000 0.000000 0.000000 0.000000 -0.122948 0.000000
# 6 0.000000 0.000000 0.000000 0.000000 0.000000 0.150203
#
#
# Mechanical properties :
#
#
# Convention : Reuss Voigt Hill
#
# Bulk Modulus (GPa) = 17.14921 46.25993 31.70457
# Shear Modulus (GPa) = 28.24305 27.02142 27.63223
#
# Velocity S-wave (km/s) = 3.34624 3.27307 3.30986
# Velocity P-wave (km/s) = 4.66141 5.71177 5.21311
#
# Compressibility (1/GPa) = 0.05831173
#
# Stress axis : x y z
#
# Youngs Moduli (GPa) = 65.45959 20.86681 282.15172
#
# Poissons Ratio (x) = 0.04535 0.06500
# Poissons Ratio (y) = 0.14226 0.51136
# Poissons Ratio (z) = 0.01508 0.03782
#
# Static dielectric constant tensor:
#      x y z
#    x 2.029070 0.000000 0.000000 
#    y 0.000000 1.989810 0.000000 
#    z 0.000000 0.000000 2.067810 
# 
# From -- ./inp_files/17957.got.cif
#   From: 2010.05.17/outbox.cif.g08.bks.cpg/sg40_9_cif.got.tgz:17957.got - 2010.06.03 18:35:42.
