data_PCOD9363559
_publ_section_title
;
Structure prediction by ZEFSAII (Michael W. Deem and Ramdas Pophale) SiO2 
 PCOD9363559
Probable space group: A M A 2
;
_chemical_formula_sum "Si O2"
_cell_formula_units_Z 52
_cell_length_a 14.512720
_cell_length_b 19.139625
_cell_length_c 8.533717
_cell_angle_alpha 90.000000
_cell_angle_beta 90.000000
_cell_angle_gamma 90.000000
_cell_volume 2370.393662
_symmetry_space_group_name_H-M "A M A 2"
_symmetry_group_IT_number 40
_symmetry_cell_setting 'orthorhombic'
loop_
_space_group_symop_operation_xyz
x,y,z
-x,-y,z
1/2-x,y,z
1/2+x,-y,z
x,1/2+y,1/2+z
-x,1/2-y,1/2+z
1/2-x,1/2+y,1/2+z
1/2+x,1/2-y,1/2+z
loop_
_atom_site_type_symbol
_atom_site_label
_atom_site_fract_x
_atom_site_fract_y
_atom_site_fract_z
Si Si1 0.152925 0.838489 0.138270
Si Si2 0.143289 0.096388 0.741272
Si Si3 0.107268 0.805047 0.477517
Si Si4 0.390737 0.203788 0.460755
Si Si5 0.859368 0.064263 0.682060
Si Si6 0.488315 0.418402 0.474310
Si Si7 0.250000 0.217935 0.197890
O O1 0.250000 0.878975 0.123362
O O2 0.150480 0.802596 0.306199
O O3 0.150561 0.778798 0.007765
O O4 0.059289 0.881563 0.119558
O O5 0.250000 0.097252 0.787042
O O6 0.126080 0.151050 0.604238
O O7 0.081276 0.109491 0.894731
O O8 0.120252 0.018680 0.674694
O O9 0.110638 0.885083 0.542062
O O10 0.168311 0.759403 0.595856
O O11 0.000438 0.785408 0.454665
O O12 0.332313 0.182339 0.309317
O O13 0.750000 0.072111 0.700577
O O14 0.912954 0.089070 0.835908
O O15 0.500000 0.500000 0.507261
#
# Coordination Sequence:
#
# PCOD9363559 Si02
#       7
#     8   8   8   8   8   8   4
#     4  12  25  44  70  98 138 181 232 292 351 422
#     4  10  21  40  66 103 140 178 236 282 355 423
#     4  12  25  43  69 104 134 184 240 293 352 422
#     4  12  25  42  69 103 137 189 230 292 359 429
#     4  10  19  38  71  98 131 181 234 288 342 419
#     4  10  22  41  68 102 133 183 234 290 341 420
#     4  12  24  46  70 100 142 180 236 298 354 424
#
# _framework density 21.937284999999999
#
# number of rings (size 3 to 8) (size 9 to 14) (size 15 to 20)
#    0.000    0.923    4.615    2.308    2.154    0.615 
#    2.769    0.000    0.000    0.000    0.000    0.000 
#    0.000    0.000    0.000    0.000    0.000    0.000 
#
# Total GULP energy -144805.959773 kJ/mol
# GULP energy per Si atom -5569.459991 kJ/mol
# Density = 2.188735 g / cm^3
# Si number density = 21.937285 Si / 1000 Ang^3
#
#
#
# Elastic Constant Matrix: (Units=GPa)
#
#
# Indices 1 2 3 4 5 6 
#
# 1 195.8880 29.8322 38.3203 0.0000 0.0000 0.0000
# 2 29.8322 44.9977 14.9401 0.0000 0.0000 0.0000
# 3 38.3203 14.9401 37.9583 0.0000 0.0000 0.0000
# 4 0.0000 0.0000 0.0000 20.3911 0.0000 0.0000
# 5 0.0000 0.0000 0.0000 0.0000 11.6280 0.0000
# 6 0.0000 0.0000 0.0000 0.0000 0.0000 30.0763
#
#
#
# Elastic Compliance Matrix: (Units=1/GPa)
#
#
# Indices 1 2 3 4 5 6 
#
# 1 0.006595 -0.002487 -0.005679 0.000000 0.000000 0.000000
# 2 -0.002487 0.026502 -0.007921 0.000000 0.000000 0.000000
# 3 -0.005679 -0.007921 0.035195 0.000000 0.000000 0.000000
# 4 0.000000 0.000000 0.000000 0.049041 0.000000 0.000000
# 5 0.000000 0.000000 0.000000 0.000000 0.085999 0.000000
# 6 0.000000 0.000000 0.000000 0.000000 0.000000 0.033249
#
#
# Mechanical properties :
#
#
# Convention : Reuss Voigt Hill
#
# Bulk Modulus (GPa) = 27.68587 49.44768 38.56677
# Shear Modulus (GPa) = 17.80680 25.46920 21.63800
#
# Velocity S-wave (km/s) = 2.85215 3.41104 3.14404
# Velocity P-wave (km/s) = 4.84708 6.17276 5.54965
#
# Compressibility (1/GPa) = 0.03611951
#
# Stress axis : x y z
#
# Youngs Moduli (GPa) = 151.64070 37.73350 28.41303
#
# Poissons Ratio (x) = 0.09383 0.16135
# Poissons Ratio (y) = 0.37706 0.22505
# Poissons Ratio (z) = 0.86113 0.29887
#
# Static dielectric constant tensor:
#      x y z
#    x 1.886060 0.000000 0.000000 
#    y 0.000000 1.815800 0.000000 
#    z 0.000000 0.000000 1.793620 
# 
# From -- ./inp_files/6666.got.cif
#   From: 2010.05.17/outbox.cif.g08.bks.cpg/sg40_4_cif.got.tgz:6666.got - 2010.06.03 18:35:42.
