data_PCOD9363187
_publ_section_title
;
Structure prediction by ZEFSAII (Michael W. Deem and Ramdas Pophale) SiO2 
 PCOD9363187
Probable space group: A M A 2
;
_chemical_formula_sum "Si O2"
_cell_formula_units_Z 56
_cell_length_a 9.014792
_cell_length_b 14.283743
_cell_length_c 23.145591
_cell_angle_alpha 90.000000
_cell_angle_beta 90.000000
_cell_angle_gamma 90.000000
_cell_volume 2980.341380
_symmetry_space_group_name_H-M "A M A 2"
_symmetry_group_IT_number 40
_symmetry_cell_setting 'orthorhombic'
loop_
_space_group_symop_operation_xyz
x,y,z
-x,-y,z
1/2-x,y,z
1/2+x,-y,z
x,1/2+y,1/2+z
-x,1/2-y,1/2+z
1/2-x,1/2+y,1/2+z
1/2+x,1/2-y,1/2+z
loop_
_atom_site_type_symbol
_atom_site_label
_atom_site_fract_x
_atom_site_fract_y
_atom_site_fract_z
Si Si1 0.416707 0.640460 0.172810
Si Si2 0.081730 0.358225 0.635958
Si Si3 0.571705 0.303103 0.520294
Si Si4 0.572397 0.102222 0.909344
Si Si5 0.574425 0.092220 0.556849
Si Si6 0.426436 0.802913 0.786164
Si Si7 0.073355 0.092445 0.253251
O O1 0.250000 0.600901 0.172191
O O2 0.407001 0.749407 0.154450
O O3 0.518716 0.598434 0.122979
O O4 0.487443 0.641144 0.236185
O O5 0.250000 0.396077 0.632718
O O6 0.999296 0.358084 0.574693
O O7 0.986695 0.401199 0.687681
O O8 0.750000 0.313010 0.521055
O O9 0.501279 0.342057 0.462031
O O10 0.535903 0.192450 0.528477
O O11 0.750000 0.095450 0.917637
O O12 0.544586 0.155211 0.848945
O O13 0.500000 0.000000 0.906880
O O14 0.750000 0.082049 0.555268
O O15 0.500000 0.000000 0.530189
O O16 0.250000 0.809103 0.774064
O O17 0.466357 0.692456 0.781954
O O18 0.250000 0.083102 0.253653
O O19 0.000000 0.000000 0.280217
#
# Coordination Sequence:
#
# PCOD9363187 Si02
#       7
#     8   8   8   8   8   8   8
#     4   9  17  30  52  80 110 143 179 220 267 316
#     4   9  17  31  52  79 109 143 180 219 265 318
#     4  10  21  38  58  82 112 146 184 230 278 325
#     4  11  24  42  62  82 105 139 183 231 279 329
#     4  10  20  34  55  83 116 150 184 223 271 327
#     4   9  20  38  57  78 110 148 184 225 274 325
#     4  10  19  33  54  82 114 147 182 222 270 326
#
# _framework density 18.789793
#
# number of rings (size 3 to 8) (size 9 to 14) (size 15 to 20)
#    0.000    2.286    0.000    2.571    0.000    8.000 
#    0.000    5.000    0.000    3.429    0.000    0.000 
#    0.000    0.000    0.000    0.000    0.000    0.000 
#
# Total GULP energy -156267.172770 kJ/mol
# GULP energy per Si atom -5580.970456 kJ/mol
# Density = 1.874703 g / cm^3
# Si number density = 18.789793 Si / 1000 Ang^3
#
#
#
# Elastic Constant Matrix: (Units=GPa)
#
#
# Indices 1 2 3 4 5 6 
#
# 1 84.8097 53.8798 56.6830 0.0000 0.0000 0.0000
# 2 53.8798 115.3823 51.3439 0.0000 0.0000 0.0000
# 3 56.6830 51.3439 119.7910 0.0000 0.0000 0.0000
# 4 0.0000 0.0000 0.0000 16.9160 0.0000 0.0000
# 5 0.0000 0.0000 0.0000 0.0000 26.1345 0.0000
# 6 0.0000 0.0000 0.0000 0.0000 0.0000 30.8271
#
#
#
# Elastic Compliance Matrix: (Units=1/GPa)
#
#
# Indices 1 2 3 4 5 6 
#
# 1 0.020570 -0.006517 -0.006940 0.000000 0.000000 0.000000
# 2 -0.006517 0.012774 -0.002391 0.000000 0.000000 0.000000
# 3 -0.006940 -0.002391 0.012657 0.000000 0.000000 0.000000
# 4 0.000000 0.000000 0.000000 0.059116 0.000000 0.000000
# 5 0.000000 0.000000 0.000000 0.000000 0.038264 0.000000
# 6 0.000000 0.000000 0.000000 0.000000 0.000000 0.032439
#
#
# Mechanical properties :
#
#
# Convention : Reuss Voigt Hill
#
# Bulk Modulus (GPa) = 69.91170 71.53294 70.72232
# Shear Modulus (GPa) = 23.55332 25.31394 24.43363
#
# Velocity S-wave (km/s) = 3.54434 3.67443 3.60997
# Velocity P-wave (km/s) = 7.35105 7.49364 7.42269
#
# Compressibility (1/GPa) = 0.01430376
#
# Stress axis : x y z
#
# Youngs Moduli (GPa) = 48.61482 78.28197 79.00966
#
# Poissons Ratio (x) = 0.51019 0.54832
# Poissons Ratio (y) = 0.31684 0.18894
# Poissons Ratio (z) = 0.33738 0.18720
#
# Static dielectric constant tensor:
#      x y z
#    x 1.643970 0.000000 0.000000 
#    y 0.000000 1.698780 0.000000 
#    z 0.000000 0.000000 1.606400 
# 
# From -- ./inp_files/22124.got.cif
#   From: 2010.05.17/outbox.cif.g08.bks.cpg/sg40_12_cif.got.tgz:22124.got - 2010.06.03 18:35:42.
