data_PCOD9363017
_publ_section_title
;
Structure prediction by ZEFSAII (Michael W. Deem and Ramdas Pophale) SiO2 
 PCOD9363017
Probable space group: A M A 2
;
_chemical_formula_sum "Si O2"
_cell_formula_units_Z 48
_cell_length_a 8.715788
_cell_length_b 14.078372
_cell_length_c 24.273739
_cell_angle_alpha 90.000000
_cell_angle_beta 90.000000
_cell_angle_gamma 90.000000
_cell_volume 2978.487437
_symmetry_space_group_name_H-M "A M A 2"
_symmetry_group_IT_number 40
_symmetry_cell_setting 'orthorhombic'
loop_
_space_group_symop_operation_xyz
x,y,z
-x,-y,z
1/2-x,y,z
1/2+x,-y,z
x,1/2+y,1/2+z
-x,1/2-y,1/2+z
1/2-x,1/2+y,1/2+z
1/2+x,1/2-y,1/2+z
loop_
_atom_site_type_symbol
_atom_site_label
_atom_site_fract_x
_atom_site_fract_y
_atom_site_fract_z
Si Si1 0.067080 0.395678 0.032630
Si Si2 0.434962 0.395001 0.365064
Si Si3 0.565874 0.104967 0.083243
Si Si4 0.565760 0.219004 0.973193
Si Si5 0.433607 0.605520 0.245843
Si Si6 0.565708 0.716847 0.143532
O O1 0.250000 0.399746 0.030509
O O2 0.022913 0.352668 0.092492
O O3 0.000000 0.500000 0.025279
O O4 0.007251 0.319722 0.988294
O O5 0.500000 0.500000 0.377161
O O6 0.250000 0.399826 0.361580
O O7 0.478681 0.324998 0.414638
O O8 0.503089 0.366384 0.305986
O O9 0.750000 0.103870 0.087516
O O10 0.496571 0.179936 0.126476
O O11 0.500000 0.000000 0.090049
O O12 0.524111 0.146596 0.022722
O O13 0.750000 0.228885 0.974077
O O14 0.500000 0.500000 0.234511
O O15 0.250000 0.601004 0.246681
O O16 0.492438 0.675832 0.198775
O O17 0.750000 0.718628 0.147928
#
# Coordination Sequence:
#
# PCOD9363017 Si02
#       6
#     8   8   8   8   8   8
#     4  10  20  32  50  73  99 129 162 200 243 289
#     4  10  19  32  50  73 100 131 163 200 242 287
#     4  10  19  32  50  74 102 132 164 201 242 289
#     4   9  19  33  50  72 100 131 164 200 241 286
#     4  11  21  33  50  73 100 131 164 202 245 292
#     4  10  20  34  51  73  99 130 165 203 245 291
#
# _framework density 16.115562000000001
#
# number of rings (size 3 to 8) (size 9 to 14) (size 15 to 20)
#    0.000    2.000    0.000    5.500    0.000    5.333 
#    0.000    0.000    0.000    1.000    0.000    2.333 
#    0.000    0.000    0.000    0.000    0.000    0.000 
#
# Total GULP energy -133992.511058 kJ/mol
# GULP energy per Si atom -5583.021294 kJ/mol
# Density = 1.607888 g / cm^3
# Si number density = 16.115562 Si / 1000 Ang^3
#
#
#
# Elastic Constant Matrix: (Units=GPa)
#
#
# Indices 1 2 3 4 5 6 
#
# 1 75.6585 56.8436 55.8425 0.0000 0.0000 0.0000
# 2 56.8436 152.7650 97.4587 0.0000 0.0000 0.0000
# 3 55.8425 97.4587 128.2036 0.0000 0.0000 0.0000
# 4 0.0000 0.0000 0.0000 24.6883 0.0000 0.0000
# 5 0.0000 0.0000 0.0000 0.0000 5.7461 0.0000
# 6 0.0000 0.0000 0.0000 0.0000 0.0000 30.0753
#
#
#
# Elastic Compliance Matrix: (Units=1/GPa)
#
#
# Indices 1 2 3 4 5 6 
#
# 1 0.020533 -0.003756 -0.006088 0.000000 0.000000 0.000000
# 2 -0.003756 0.013397 -0.008548 0.000000 0.000000 0.000000
# 3 -0.006088 -0.008548 0.016950 0.000000 0.000000 0.000000
# 4 0.000000 0.000000 0.000000 0.040505 0.000000 0.000000
# 5 0.000000 0.000000 0.000000 0.000000 0.174031 0.000000
# 6 0.000000 0.000000 0.000000 0.000000 0.000000 0.033250
#
#
# Mechanical properties :
#
#
# Convention : Reuss Voigt Hill
#
# Bulk Modulus (GPa) = 70.94702 86.32408 78.63555
# Shear Modulus (GPa) = 14.69940 21.86744 18.28342
#
# Velocity S-wave (km/s) = 3.02342 3.68763 3.37192
# Velocity P-wave (km/s) = 7.50384 8.47428 8.00378
#
# Compressibility (1/GPa) = 0.01409502
#
# Stress axis : x y z
#
# Youngs Moduli (GPa) = 48.70188 74.64270 58.99609
#
# Poissons Ratio (x) = 0.28037 0.35919
# Poissons Ratio (y) = 0.18293 0.50431
# Poissons Ratio (z) = 0.29651 0.63806
#
# Static dielectric constant tensor:
#      x y z
#    x 1.534930 0.000000 0.000000 
#    y 0.000000 1.510590 0.000000 
#    z 0.000000 0.000000 1.531600 
# 
# From -- ./inp_files/21985.got.cif
#   From: 2010.05.17/outbox.cif.g08.bks.cpg/sg40_11_cif.got.tgz:21985.got - 2010.06.03 18:35:42.
