data_PCOD9363288
_publ_section_title
;
Structure prediction by ZEFSAII (Michael W. Deem and Ramdas Pophale) SiO2 
 PCOD9363288
Probable space group: A M A 2
;
_chemical_formula_sum "Si O2"
_cell_formula_units_Z 64
_cell_length_a 8.712752
_cell_length_b 33.513120
_cell_length_c 12.058202
_cell_angle_alpha 90.000000
_cell_angle_beta 90.000000
_cell_angle_gamma 90.000000
_cell_volume 3520.892529
_symmetry_space_group_name_H-M "A M A 2"
_symmetry_group_IT_number 40
_symmetry_cell_setting 'orthorhombic'
loop_
_space_group_symop_operation_xyz
x,y,z
-x,-y,z
1/2-x,y,z
1/2+x,-y,z
x,1/2+y,1/2+z
-x,1/2-y,1/2+z
1/2-x,1/2+y,1/2+z
1/2+x,1/2-y,1/2+z
loop_
_atom_site_type_symbol
_atom_site_label
_atom_site_fract_x
_atom_site_fract_y
_atom_site_fract_z
Si Si1 0.433371 0.276436 0.662020
Si Si2 0.424944 0.100801 0.090893
Si Si3 0.934895 0.379640 0.031517
Si Si4 0.065956 0.355399 0.793402
Si Si5 0.433449 0.955847 0.907236
Si Si6 0.074990 0.183574 0.958342
Si Si7 0.565393 0.044844 0.655407
Si Si8 0.437231 0.686862 0.209074
O O1 0.250000 0.275945 0.672013
O O2 0.487246 0.312128 0.744137
O O3 0.478132 0.287960 0.537168
O O4 0.490501 0.232012 0.686388
O O5 0.250000 0.089280 0.117926
O O6 0.516361 0.111872 0.201933
O O7 0.501127 0.069585 0.008132
O O8 0.421063 0.141588 0.020577
O O9 0.750000 0.381372 0.031674
O O10 0.987242 0.345921 0.120127
O O11 0.999654 0.422300 0.071475
O O12 0.992939 0.366367 0.910822
O O13 0.250000 0.354507 0.802625
O O14 0.250000 0.956306 0.912683
O O15 0.476745 0.942081 0.782076
O O16 0.500000 0.000000 0.916828
O O17 0.250000 0.199183 0.951309
O O18 0.015841 0.177299 0.834598
O O19 0.750000 0.043297 0.647640
O O20 0.500000 0.000000 0.638601
O O21 0.250000 0.686532 0.205143
#
# Coordination Sequence:
#
# PCOD9363288 Si02
#       8
#     8   8   8   8   8   8   8   8
#     4   9  19  35  53  75 106 144 183 229 281 330
#     4  10  19  34  56  80 107 143 185 226 274 332
#     4  11  22  37  58  83 113 150 194 239 287 344
#     4  10  21  37  56  78 110 150 191 236 286 338
#     4  10  20  34  56  86 117 147 180 226 278 334
#     4   9  18  33  53  75 101 136 178 222 270 324
#     4  10  21  38  60  87 119 152 189 232 285 341
#     4   9  19  34  53  78 109 144 181 228 281 333
#
# _framework density 18.177209000000001
#
# number of rings (size 3 to 8) (size 9 to 14) (size 15 to 20)
#    0.000    2.250    0.000    2.625    1.750    3.500 
#    0.000    3.125    0.000    0.000    0.000    0.000 
#    0.000    0.000    0.000    0.000    0.000    0.000 
#
# Total GULP energy -178488.571914 kJ/mol
# GULP energy per Si atom -5577.767872 kJ/mol
# Density = 1.813584 g / cm^3
# Si number density = 18.177209 Si / 1000 Ang^3
#
#
#
# Elastic Constant Matrix: (Units=GPa)
#
#
# Indices 1 2 3 4 5 6 
#
# 1 47.5127 29.9067 33.1115 0.0000 0.0000 0.0000
# 2 29.9067 85.9756 68.9391 0.0000 0.0000 0.0000
# 3 33.1115 68.9391 155.8290 0.0000 0.0000 0.0000
# 4 0.0000 0.0000 0.0000 21.3828 0.0000 0.0000
# 5 0.0000 0.0000 0.0000 0.0000 30.5193 0.0000
# 6 0.0000 0.0000 0.0000 0.0000 0.0000 20.3766
#
#
#
# Elastic Compliance Matrix: (Units=1/GPa)
#
#
# Indices 1 2 3 4 5 6 
#
# 1 0.027563 -0.007581 -0.002503 0.000000 0.000000 0.000000
# 2 -0.007581 0.020111 -0.007286 0.000000 0.000000 0.000000
# 3 -0.002503 -0.007286 0.010173 0.000000 0.000000 0.000000
# 4 0.000000 0.000000 0.000000 0.046767 0.000000 0.000000
# 5 0.000000 0.000000 0.000000 0.000000 0.032766 0.000000
# 6 0.000000 0.000000 0.000000 0.000000 0.000000 0.049076
#
#
# Mechanical properties :
#
#
# Convention : Reuss Voigt Hill
#
# Bulk Modulus (GPa) = 43.27835 61.47021 52.37428
# Shear Modulus (GPa) = 21.84391 24.94640 23.39516
#
# Velocity S-wave (km/s) = 3.47034 3.70861 3.59145
# Velocity P-wave (km/s) = 6.31811 7.22696 6.78777
#
# Compressibility (1/GPa) = 0.02310624
#
# Stress axis : x y z
#
# Youngs Moduli (GPa) = 36.28048 49.72518 98.30387
#
# Poissons Ratio (x) = 0.37696 0.24605
# Poissons Ratio (y) = 0.27504 0.71625
# Poissons Ratio (z) = 0.09081 0.36230
#
# Static dielectric constant tensor:
#      x y z
#    x 1.632150 0.000000 0.000000 
#    y 0.000000 1.616840 0.000000 
#    z 0.000000 0.000000 1.613180 
# 
# From -- ./inp_files/10674.got.cif
#   From: 2010.05.17/outbox.cif.g08.bks.cpg/sg40_6_cif.got.tgz:10674.got - 2010.06.03 18:35:42.
