data_PCOD9363537
_publ_section_title
;
Structure prediction by ZEFSAII (Michael W. Deem and Ramdas Pophale) SiO2 
 PCOD9363537
Probable space group: A M A 2
;
_chemical_formula_sum "Si O2"
_cell_formula_units_Z 64
_cell_length_a 15.705840
_cell_length_b 11.536617
_cell_length_c 17.713727
_cell_angle_alpha 90.000000
_cell_angle_beta 90.000000
_cell_angle_gamma 90.000000
_cell_volume 3209.590241
_symmetry_space_group_name_H-M "A M A 2"
_symmetry_group_IT_number 40
_symmetry_cell_setting 'orthorhombic'
loop_
_space_group_symop_operation_xyz
x,y,z
-x,-y,z
1/2-x,y,z
1/2+x,-y,z
x,1/2+y,1/2+z
-x,1/2-y,1/2+z
1/2-x,1/2+y,1/2+z
1/2+x,1/2-y,1/2+z
loop_
_atom_site_type_symbol
_atom_site_label
_atom_site_fract_x
_atom_site_fract_y
_atom_site_fract_z
Si Si1 0.516826 0.771459 0.795700
Si Si2 0.342385 0.180931 0.358969
Si Si3 0.497529 0.136563 0.629143
Si Si4 0.452153 0.118327 0.937745
Si Si5 0.345955 0.217714 0.062048
Si Si6 0.894104 0.734497 0.516263
Si Si7 0.652495 0.576815 0.801847
Si Si8 0.603016 0.021271 0.130711
O O1 0.419616 0.744179 0.817258
O O2 0.519170 0.797848 0.707758
O O3 0.550465 0.875503 0.848085
O O4 0.578165 0.666675 0.820999
O O5 0.250000 0.207027 0.324114
O O6 0.338969 0.221614 0.446268
O O7 0.357012 0.043532 0.347301
O O8 0.583582 0.190278 0.591460
O O9 0.418217 0.166888 0.575307
O O10 0.500000 0.000000 0.641188
O O11 0.500000 0.000000 0.959554
O O12 0.367979 0.159270 0.980434
O O13 0.518938 0.209262 0.971141
O O14 0.250000 0.262837 0.063851
O O15 0.356898 0.103134 0.113052
O O16 0.874631 0.619690 0.567344
O O17 0.750000 0.618002 0.813294
O O18 0.636670 0.555840 0.712741
O O19 0.500000 0.000000 0.132527
#
# Coordination Sequence:
#
# PCOD9363537 Si02
#       8
#     8   8   8   8   8   8   8   8
#     4  11  22  39  64  86 126 175 217 273 322 399
#     4  10  23  39  62  97 131 169 218 278 344 409
#     4  11  23  42  63  90 127 177 223 263 337 408
#     4  10  19  38  59  87 120 158 209 254 322 389
#     4  11  22  37  65  97 122 156 214 280 332 391
#     4  10  20  38  63  91 126 169 211 265 331 409
#     4  11  23  38  60  94 131 172 223 276 332 392
#     4  12  18  38  69  97 128 168 218 277 335 404
#
# _framework density 19.940239999999999
#
# number of rings (size 3 to 8) (size 9 to 14) (size 15 to 20)
#    0.000    1.250    5.000    2.625    0.000    6.000 
#    0.000    2.500    0.000    3.000    0.000    0.000 
#    0.000    0.000    0.000    0.000    0.000    0.000 
#
# Total GULP energy -178286.611942 kJ/mol
# GULP energy per Si atom -5571.456623 kJ/mol
# Density = 1.989486 g / cm^3
# Si number density = 19.940240 Si / 1000 Ang^3
#
#
#
# Elastic Constant Matrix: (Units=GPa)
#
#
# Indices 1 2 3 4 5 6 
#
# 1 75.5356 9.7929 14.4668 0.0000 0.0000 0.0000
# 2 9.7929 60.1814 7.0150 0.0000 0.0000 0.0000
# 3 14.4668 7.0150 70.4419 0.0000 0.0000 0.0000
# 4 0.0000 0.0000 0.0000 26.5118 0.0000 0.0000
# 5 0.0000 0.0000 0.0000 0.0000 99.3438 0.0000
# 6 0.0000 0.0000 0.0000 0.0000 0.0000 6.4668
#
#
#
# Elastic Compliance Matrix: (Units=1/GPa)
#
#
# Indices 1 2 3 4 5 6 
#
# 1 0.014007 -0.001967 -0.002681 0.000000 0.000000 0.000000
# 2 -0.001967 0.017088 -0.001298 0.000000 0.000000 0.000000
# 3 -0.002681 -0.001298 0.014876 0.000000 0.000000 0.000000
# 4 0.000000 0.000000 0.000000 0.037719 0.000000 0.000000
# 5 0.000000 0.000000 0.000000 0.000000 0.010066 0.000000
# 6 0.000000 0.000000 0.000000 0.000000 0.000000 0.154636
#
#
# Mechanical properties :
#
#
# Convention : Reuss Voigt Hill
#
# Bulk Modulus (GPa) = 29.34268 29.85650 29.59959
# Shear Modulus (GPa) = 18.40650 38.12342 28.26496
#
# Velocity S-wave (km/s) = 3.04152 4.37725 3.76903
# Velocity P-wave (km/s) = 5.20401 6.36809 5.81525
#
# Compressibility (1/GPa) = 0.03408005
#
# Stress axis : x y z
#
# Youngs Moduli (GPa) = 71.39172 58.52145 67.22280
#
# Poissons Ratio (x) = 0.11510 0.18021
# Poissons Ratio (y) = 0.14041 0.08724
# Poissons Ratio (z) = 0.19139 0.07595
#
# Static dielectric constant tensor:
#      x y z
#    x 1.709060 0.000000 0.000000 
#    y 0.000000 1.733350 0.000000 
#    z 0.000000 0.000000 1.763500 
# 
# From -- ./inp_files/20771.got.cif
#   From: 2010.05.17/outbox.cif.g08.bks.cpg/sg40_11_cif.got.tgz:20771.got - 2010.06.03 18:35:42.
