data_PCOD9363959
_publ_section_title
;
Structure prediction by ZEFSAII (Michael W. Deem and Ramdas Pophale) SiO2 
 PCOD9363959
Probable space group: A M A 2
;
_chemical_formula_sum "Si O2"
_cell_formula_units_Z 52
_cell_length_a 11.034733
_cell_length_b 9.700736
_cell_length_c 21.720534
_cell_angle_alpha 90.000000
_cell_angle_beta 90.000000
_cell_angle_gamma 90.000000
_cell_volume 2325.075250
_symmetry_space_group_name_H-M "A M A 2"
_symmetry_group_IT_number 40
_symmetry_cell_setting 'orthorhombic'
loop_
_space_group_symop_operation_xyz
x,y,z
-x,-y,z
1/2-x,y,z
1/2+x,-y,z
x,1/2+y,1/2+z
-x,1/2-y,1/2+z
1/2-x,1/2+y,1/2+z
1/2+x,1/2-y,1/2+z
loop_
_atom_site_type_symbol
_atom_site_label
_atom_site_fract_x
_atom_site_fract_y
_atom_site_fract_z
Si Si1 0.623465 0.480613 0.825560
Si Si2 0.609098 0.388635 0.638511
Si Si3 0.623037 0.791237 0.872213
Si Si4 0.000000 0.500000 0.291741
Si Si5 0.971962 0.840901 0.002283
Si Si6 0.385588 0.595986 0.965158
Si Si7 0.614679 0.581031 0.173338
O O1 0.500000 0.500000 0.787718
O O2 0.750000 0.440228 0.794719
O O3 0.633160 0.636406 0.849745
O O4 0.610885 0.395368 0.889726
O O5 0.500000 0.500000 0.647554
O O6 0.750000 0.437762 0.646142
O O7 0.592454 0.337933 0.567723
O O8 0.592072 0.245386 0.675310
O O9 0.750000 0.865042 0.858673
O O10 0.605416 0.789743 0.944809
O O11 0.520774 0.870743 0.835329
O O12 0.892291 0.525102 0.243224
O O13 0.089020 0.742185 0.997474
O O14 0.000000 0.000000 0.989953
O O15 0.500000 0.500000 0.982139
O O16 0.250000 0.545025 0.980014
O O17 0.500000 0.500000 0.142761
O O18 0.750000 0.557376 0.147512
#
# Coordination Sequence:
#
# PCOD9363959 Si02
#       7
#     8   8   8   4   8   8   8
#     4   9  17  32  51  75 110 157 207 250 297 361
#     4  10  23  43  68  98 131 172 220 277 335 394
#     4  11  20  34  57  89 130 172 205 257 324 389
#     4  10  22  40  64  94 128 170 218 270 322 400
#     4  11  22  37  57  92 134 174 214 262 324 399
#     4  10  20  36  57  82 123 172 220 263 314 385
#     4   9  21  44  70  96 125 164 222 280 331 383
#
# _framework density 22.364867
#
# number of rings (size 3 to 8) (size 9 to 14) (size 15 to 20)
#    0.462    1.538    3.846    0.923    0.000    4.923 
#    0.000    3.846    0.000    3.692    0.000    0.000 
#    0.000    0.000    0.000    0.000    0.000    0.000 
#
# Total GULP energy -144763.494121 kJ/mol
# GULP energy per Si atom -5567.826697 kJ/mol
# Density = 2.231396 g / cm^3
# Si number density = 22.364867 Si / 1000 Ang^3
#
#
#
# Elastic Constant Matrix: (Units=GPa)
#
#
# Indices 1 2 3 4 5 6 
#
# 1 195.2739 36.0333 2.3398 0.0000 0.0000 0.0000
# 2 36.0333 92.4209 13.0266 0.0000 0.0000 0.0000
# 3 2.3398 13.0266 70.1229 0.0000 0.0000 0.0000
# 4 0.0000 0.0000 0.0000 63.4970 0.0000 0.0000
# 5 0.0000 0.0000 0.0000 0.0000 -10.8697 0.0000
# 6 0.0000 0.0000 0.0000 0.0000 0.0000 22.0357
#
#
#
# Elastic Compliance Matrix: (Units=1/GPa)
#
#
# Indices 1 2 3 4 5 6 
#
# 1 0.005521 -0.002184 0.000221 0.000000 0.000000 0.000000
# 2 -0.002184 0.011975 -0.002152 0.000000 0.000000 0.000000
# 3 0.000221 -0.002152 0.014653 0.000000 0.000000 0.000000
# 4 0.000000 0.000000 0.000000 0.015749 0.000000 0.000000
# 5 0.000000 0.000000 0.000000 0.000000 -0.091999 0.000000
# 6 0.000000 0.000000 0.000000 0.000000 0.000000 0.045381
#
#
# Mechanical properties :
#
#
# Convention : Reuss Voigt Hill
#
# Bulk Modulus (GPa) = 41.80431 51.17965 46.49198
# Shear Modulus (GPa) = 286.01034 35.36048 160.68541
#
# Velocity S-wave (km/s) = 11.32084 3.98058 8.48547
# Velocity P-wave (km/s) = 13.77005 6.63780 10.80913
#
# Compressibility (1/GPa) = 0.02392098
#
# Stress axis : x y z
#
# Youngs Moduli (GPa) = 181.11535 83.50874 68.24540
#
# Poissons Ratio (x) = 0.18237 -0.01511
# Poissons Ratio (y) = 0.39554 0.14684
# Poissons Ratio (z) = -0.04011 0.17968
#
# Static dielectric constant tensor:
#      x y z
#    x 1.988970 0.000000 0.000000 
#    y 0.000000 1.353190 0.000000 
#    z 0.000000 0.000000 1.805540 
# 
# From -- ./inp_files/25629.got.cif
#   From: 2010.05.17/outbox.cif.g08.bks.cpg/sg40_13_cif.got.tgz:25629.got - 2010.06.03 18:35:42.
