data_PCOD9363022
_publ_section_title
;
Structure prediction by ZEFSAII (Michael W. Deem and Ramdas Pophale) SiO2 
 PCOD9363022
Probable space group: A M A 2
;
_chemical_formula_sum "Si O2"
_cell_formula_units_Z 64
_cell_length_a 8.864372
_cell_length_b 27.988612
_cell_length_c 15.018343
_cell_angle_alpha 90.000000
_cell_angle_beta 90.000000
_cell_angle_gamma 90.000000
_cell_volume 3726.072953
_symmetry_space_group_name_H-M "A M A 2"
_symmetry_group_IT_number 40
_symmetry_cell_setting 'orthorhombic'
loop_
_space_group_symop_operation_xyz
x,y,z
-x,-y,z
1/2-x,y,z
1/2+x,-y,z
x,1/2+y,1/2+z
-x,1/2-y,1/2+z
1/2-x,1/2+y,1/2+z
1/2+x,1/2-y,1/2+z
loop_
_atom_site_type_symbol
_atom_site_label
_atom_site_fract_x
_atom_site_fract_y
_atom_site_fract_z
Si Si1 0.568738 0.366501 0.173960
Si Si2 0.069996 0.218370 0.806717
Si Si3 0.429539 0.330086 0.795471
Si Si4 0.069982 0.947978 0.795132
Si Si5 0.570987 0.717069 0.496148
Si Si6 0.431047 0.947585 0.000486
Si Si7 0.431049 0.170563 0.485707
Si Si8 0.929445 0.863527 0.117364
O O1 0.750000 0.372367 0.176084
O O2 0.534303 0.317708 0.227371
O O3 0.493275 0.409596 0.226469
O O4 0.523055 0.360082 0.071408
O O5 0.250000 0.215480 0.825012
O O6 0.036184 0.273401 0.783476
O O7 0.980529 0.204851 0.895871
O O8 0.250000 0.336118 0.788657
O O9 0.486941 0.342366 0.894244
O O10 0.511254 0.358944 0.717922
O O11 0.250000 0.950688 0.788925
O O12 0.031346 0.934496 0.897599
O O13 0.000000 0.000000 0.778603
O O14 0.750000 0.709777 0.506969
O O15 0.538203 0.773468 0.506801
O O16 0.484791 0.683715 0.565053
O O17 0.250000 0.949232 0.008498
O O18 0.498673 0.908452 0.066325
O O19 0.500000 0.000000 0.016901
O O20 0.250000 0.166707 0.473522
O O21 0.750000 0.866695 0.115142
#
# Coordination Sequence:
#
# PCOD9363022 Si02
#       8
#     8   8   8   8   8   8   8   8
#     4  10  19  32  52  75 103 138 173 210 254 306
#     4   9  18  32  50  75 107 141 174 210 257 310
#     4  10  20  35  53  74 103 139 179 221 260 302
#     4  10  21  36  55  79 106 134 166 206 254 307
#     4  10  19  32  50  74 106 141 177 217 258 304
#     4  10  21  38  58  81 108 136 167 209 260 313
#     4   9  19  35  52  73 104 141 177 215 261 308
#     4  12  23  34  52  77 105 140 179 216 258 310
#
# _framework density 17.176262000000001
#
# number of rings (size 3 to 8) (size 9 to 14) (size 15 to 20)
#    0.000    2.000    0.000    4.125    0.000    7.500 
#    0.000    1.250    0.000    0.750    0.000    1.750 
#    0.000    0.000    0.000    0.000    0.000    0.000 
#
# Total GULP energy -178736.137218 kJ/mol
# GULP energy per Si atom -5585.504288 kJ/mol
# Density = 1.713717 g / cm^3
# Si number density = 17.176262 Si / 1000 Ang^3
#
#
#
# Elastic Constant Matrix: (Units=GPa)
#
#
# Indices 1 2 3 4 5 6 
#
# 1 68.5015 47.5064 68.5741 0.0000 0.0000 0.0000
# 2 47.5064 77.1334 84.6483 0.0000 0.0000 0.0000
# 3 68.5741 84.6483 150.0438 0.0000 0.0000 0.0000
# 4 0.0000 0.0000 0.0000 27.7886 0.0000 0.0000
# 5 0.0000 0.0000 0.0000 0.0000 28.9721 0.0000
# 6 0.0000 0.0000 0.0000 0.0000 0.0000 27.9436
#
#
#
# Elastic Compliance Matrix: (Units=1/GPa)
#
#
# Indices 1 2 3 4 5 6 
#
# 1 0.028974 -0.008698 -0.008335 0.000000 0.000000 0.000000
# 2 -0.008698 0.036650 -0.016701 0.000000 0.000000 0.000000
# 3 -0.008335 -0.016701 0.019896 0.000000 0.000000 0.000000
# 4 0.000000 0.000000 0.000000 0.035986 0.000000 0.000000
# 5 0.000000 0.000000 0.000000 0.000000 0.034516 0.000000
# 6 0.000000 0.000000 0.000000 0.000000 0.000000 0.035786
#
#
# Mechanical properties :
#
#
# Convention : Reuss Voigt Hill
#
# Bulk Modulus (GPa) = 55.39592 77.45960 66.42776
# Shear Modulus (GPa) = 18.84701 23.27084 21.05892
#
# Velocity S-wave (km/s) = 3.31610 3.68479 3.50530
# Velocity P-wave (km/s) = 6.85445 7.95603 7.42569
#
# Compressibility (1/GPa) = 0.01805187
#
# Stress axis : x y z
#
# Youngs Moduli (GPa) = 34.51341 27.28511 50.26167
#
# Poissons Ratio (x) = 0.23734 0.41892
# Poissons Ratio (y) = 0.30021 0.83942
# Poissons Ratio (z) = 0.28766 0.45569
#
# Static dielectric constant tensor:
#      x y z
#    x 1.571920 0.000000 0.000000 
#    y 0.000000 1.559600 0.000000 
#    z 0.000000 0.000000 1.573830 
# 
# From -- ./inp_files/15684.got.cif
#   From: 2010.05.17/outbox.cif.g08.bks.cpg/sg40_8_cif.got.tgz:15684.got - 2010.06.03 18:35:42.
