data_PCOD9363117
_publ_section_title
;
Structure prediction by ZEFSAII (Michael W. Deem and Ramdas Pophale) SiO2 
 PCOD9363117
Probable space group: A M A 2
;
_chemical_formula_sum "Si O2"
_cell_formula_units_Z 64
_cell_length_a 18.731364
_cell_length_b 6.930362
_cell_length_c 21.227008
_cell_angle_alpha 90.000000
_cell_angle_beta 90.000000
_cell_angle_gamma 90.000000
_cell_volume 2755.586873
_symmetry_space_group_name_H-M "A M A 2"
_symmetry_group_IT_number 40
_symmetry_cell_setting 'orthorhombic'
loop_
_space_group_symop_operation_xyz
x,y,z
-x,-y,z
1/2-x,y,z
1/2+x,-y,z
x,1/2+y,1/2+z
-x,1/2-y,1/2+z
1/2-x,1/2+y,1/2+z
1/2+x,1/2-y,1/2+z
loop_
_atom_site_type_symbol
_atom_site_label
_atom_site_fract_x
_atom_site_fract_y
_atom_site_fract_z
Si Si1 0.835063 0.198719 0.590790
Si Si2 0.329363 0.810671 0.318997
Si Si3 0.935584 0.844800 0.581911
Si Si4 0.401404 0.315313 0.221209
Si Si5 0.556398 0.237278 0.212732
Si Si6 0.835724 0.734509 0.954604
Si Si7 0.432880 0.133670 0.443788
Si Si8 0.328421 0.761638 0.849413
O O1 0.750000 0.198965 0.595581
O O2 0.867238 0.266800 0.657343
O O3 0.854475 0.310684 0.525227
O O4 0.864802 0.978392 0.585595
O O5 0.250000 0.743307 0.299598
O O6 0.384984 0.826176 0.262556
O O7 0.353867 0.696753 0.382800
O O8 0.322432 0.031066 0.340758
O O9 0.937562 0.692022 0.638413
O O10 0.947675 0.769425 0.511147
O O11 0.000000 0.000000 0.590013
O O12 0.475327 0.204871 0.235300
O O13 0.426558 0.533454 0.210319
O O14 0.347916 0.329503 0.279548
O O15 0.750000 0.722666 0.953437
O O16 0.872735 0.526438 0.957479
O O17 0.396978 0.278963 0.394881
O O18 0.500000 0.000000 0.422715
O O19 0.250000 0.829629 0.872081
#
# Coordination Sequence:
#
# PCOD9363117 Si02
#       8
#     8   8   8   8   8   8   8   8
#     4   9  15  26  47  70  91 123 163 201 248 292
#     4   9  19  33  50  73 101 130 165 209 249 295
#     4   9  15  30  45  70 101 126 156 212 251 288
#     4  10  20  32  49  73 104 135 162 207 251 297
#     4  10  19  33  50  74 105 132 168 204 249 298
#     4   8  15  28  45  68  95 120 158 208 245 286
#     4   9  17  26  48  73  96 126 165 201 257 297
#     4  10  21  35  49  74 107 133 166 209 251 304
#
# _framework density 23.225543999999999
#
# number of rings (size 3 to 8) (size 9 to 14) (size 15 to 20)
#    0.000    2.750    2.500    1.500    3.500    3.000 
#    0.000    0.000    0.000    1.500    0.000    0.000 
#    0.000    0.000    0.000    0.000    0.000    0.000 
#
# Total GULP energy -178144.516609 kJ/mol
# GULP energy per Si atom -5567.016144 kJ/mol
# Density = 2.317268 g / cm^3
# Si number density = 23.225544 Si / 1000 Ang^3
#
#
#
# Elastic Constant Matrix: (Units=GPa)
#
#
# Indices 1 2 3 4 5 6 
#
# 1 98.5617 7.2094 71.7507 0.0000 0.0000 0.0000
# 2 7.2094 31.5259 -11.8786 0.0000 0.0000 0.0000
# 3 71.7507 -11.8786 167.9102 0.0000 0.0000 0.0000
# 4 0.0000 0.0000 0.0000 8.9285 0.0000 0.0000
# 5 0.0000 0.0000 0.0000 0.0000 38.4152 0.0000
# 6 0.0000 0.0000 0.0000 0.0000 0.0000 19.1477
#
#
#
# Elastic Compliance Matrix: (Units=1/GPa)
#
#
# Indices 1 2 3 4 5 6 
#
# 1 0.015877 -0.006357 -0.007234 0.000000 0.000000 0.000000
# 2 -0.006357 0.035134 0.005202 0.000000 0.000000 0.000000
# 3 -0.007234 0.005202 0.009415 0.000000 0.000000 0.000000
# 4 0.000000 0.000000 0.000000 0.112000 0.000000 0.000000
# 5 0.000000 0.000000 0.000000 0.000000 0.026031 0.000000
# 6 0.000000 0.000000 0.000000 0.000000 0.000000 0.052226
#
#
# Mechanical properties :
#
#
# Convention : Reuss Voigt Hill
#
# Bulk Modulus (GPa) = 22.91085 48.01785 35.46435
# Shear Modulus (GPa) = 17.72981 28.69270 23.21125
#
# Velocity S-wave (km/s) = 2.76592 3.51863 3.16473
# Velocity P-wave (km/s) = 4.48178 6.10141 5.35320
#
# Compressibility (1/GPa) = 0.04364745
#
# Stress axis : x y z
#
# Youngs Moduli (GPa) = 62.98288 28.46274 106.21459
#
# Poissons Ratio (x) = 0.18093 0.76839
# Poissons Ratio (y) = 0.40036 -0.55251
# Poissons Ratio (z) = 0.45564 -0.14806
#
# Static dielectric constant tensor:
#      x y z
#    x 1.883160 0.000000 0.000000 
#    y 0.000000 2.031020 0.000000 
#    z 0.000000 0.000000 2.041350 
# 
# From -- ./inp_files/23438.got.cif
#   From: 2010.05.17/outbox.cif.g08.bks.cpg/sg40_12_cif.got.tgz:23438.got - 2010.06.03 18:35:42.
