data_PCOD9363811
_publ_section_title
;
Structure prediction by ZEFSAII (Michael W. Deem and Ramdas Pophale) SiO2 
 PCOD9363811
Probable space group: A M A 2
;
_chemical_formula_sum "Si O2"
_cell_formula_units_Z 56
_cell_length_a 7.847926
_cell_length_b 15.154393
_cell_length_c 22.674470
_cell_angle_alpha 90.000000
_cell_angle_beta 90.000000
_cell_angle_gamma 90.000000
_cell_volume 2696.687298
_symmetry_space_group_name_H-M "A M A 2"
_symmetry_group_IT_number 40
_symmetry_cell_setting 'orthorhombic'
loop_
_space_group_symop_operation_xyz
x,y,z
-x,-y,z
1/2-x,y,z
1/2+x,-y,z
x,1/2+y,1/2+z
-x,1/2-y,1/2+z
1/2-x,1/2+y,1/2+z
1/2+x,1/2-y,1/2+z
loop_
_atom_site_type_symbol
_atom_site_label
_atom_site_fract_x
_atom_site_fract_y
_atom_site_fract_z
Si Si1 0.951976 0.102392 0.417320
Si Si2 0.545320 0.098301 0.636815
Si Si3 0.455263 0.715193 0.803380
Si Si4 0.454739 0.597428 0.561166
Si Si5 0.540825 0.214370 0.528156
Si Si6 0.455056 0.598334 0.696132
Si Si7 0.545067 0.097372 0.771874
O O1 0.750000 0.105344 0.422190
O O2 0.021652 0.154759 0.474181
O O3 0.000342 0.154329 0.358316
O O4 0.000000 0.000000 0.415712
O O5 0.750000 0.105644 0.639596
O O6 0.486036 0.170536 0.590020
O O7 0.481266 0.106094 0.703985
O O8 0.500000 0.000000 0.615462
O O9 0.250000 0.717194 0.799852
O O10 0.518050 0.670048 0.742750
O O11 0.515746 0.816442 0.806859
O O12 0.500000 0.500000 0.538989
O O13 0.250000 0.601009 0.563515
O O14 0.513295 0.683562 0.525891
O O15 0.518965 0.606057 0.628965
O O16 0.750000 0.213047 0.527838
O O17 0.500000 0.500000 0.717404
O O18 0.250000 0.606036 0.693615
O O19 0.750000 0.100357 0.769822
O O20 0.500000 0.000000 0.794098
#
# Coordination Sequence:
#
# PCOD9363811 Si02
#       7
#     8   8   8   8   8   8   8
#     4  11  23  38  55  76 101 132 168 207 248 295
#     4   9  16  29  50  76 103 132 163 201 249 300
#     4  10  20  35  53  74 101 136 173 209 249 296
#     4   9  17  32  52  75 101 129 162 203 248 297
#     4   9  18  33  53  73  98 133 169 202 245 297
#     4   9  17  29  49  75 102 130 162 201 249 300
#     4   9  18  32  52  77 104 132 166 207 253 301
#
# _framework density 20.766217999999999
#
# number of rings (size 3 to 8) (size 9 to 14) (size 15 to 20)
#    0.000    2.571    0.000    2.143    0.000    5.714 
#    0.000    3.571    0.000   10.286    0.000    0.000 
#    0.000    0.000    0.000    0.000    0.000    0.000 
#
# Total GULP energy -156239.944708 kJ/mol
# GULP energy per Si atom -5579.998025 kJ/mol
# Density = 2.071895 g / cm^3
# Si number density = 20.766218 Si / 1000 Ang^3
#
#
#
# Elastic Constant Matrix: (Units=GPa)
#
#
# Indices 1 2 3 4 5 6 
#
# 1 22.1452 9.0234 4.3991 0.0000 0.0000 0.0000
# 2 9.0234 221.6083 69.1551 0.0000 0.0000 0.0000
# 3 4.3991 69.1551 47.4144 0.0000 0.0000 0.0000
# 4 0.0000 0.0000 0.0000 34.4236 0.0000 0.0000
# 5 0.0000 0.0000 0.0000 0.0000 15.0539 0.0000
# 6 0.0000 0.0000 0.0000 0.0000 0.0000 24.1842
#
#
#
# Elastic Compliance Matrix: (Units=1/GPa)
#
#
# Indices 1 2 3 4 5 6 
#
# 1 0.046124 -0.000996 -0.002827 0.000000 0.000000 0.000000
# 2 -0.000996 0.008304 -0.012018 0.000000 0.000000 0.000000
# 3 -0.002827 -0.012018 0.038882 0.000000 0.000000 0.000000
# 4 0.000000 0.000000 0.000000 0.029050 0.000000 0.000000
# 5 0.000000 0.000000 0.000000 0.000000 0.066428 0.000000
# 6 0.000000 0.000000 0.000000 0.000000 0.000000 0.041349
#
#
# Mechanical properties :
#
#
# Convention : Reuss Voigt Hill
#
# Bulk Modulus (GPa) = 16.22657 50.70255 33.46456
# Shear Modulus (GPa) = 17.70778 28.63834 23.17306
#
# Velocity S-wave (km/s) = 2.92331 3.71763 3.34414
# Velocity P-wave (km/s) = 4.38465 6.54955 5.57323
#
# Compressibility (1/GPa) = 0.06162731
#
# Stress axis : x y z
#
# Youngs Moduli (GPa) = 21.68071 120.43099 25.71872
#
# Poissons Ratio (x) = 0.11994 0.07270
# Poissons Ratio (y) = 0.02159 0.30910
# Poissons Ratio (z) = 0.06129 1.44740
#
# Static dielectric constant tensor:
#      x y z
#    x 1.765120 0.000000 0.000000 
#    y 0.000000 1.733590 0.000000 
#    z 0.000000 0.000000 1.736630 
# 
# From -- ./inp_files/22164.got.cif
#   From: 2010.05.17/outbox.cif.g08.bks.cpg/sg40_12_cif.got.tgz:22164.got - 2010.06.03 18:35:42.
