data_PCOD9363035
_publ_section_title
;
Structure prediction by ZEFSAII (Michael W. Deem and Ramdas Pophale) SiO2 
 PCOD9363035
Probable space group: A M A 2
;
_chemical_formula_sum "Si O2"
_cell_formula_units_Z 64
_cell_length_a 8.623712
_cell_length_b 15.149813
_cell_length_c 28.098313
_cell_angle_alpha 90.000000
_cell_angle_beta 90.000000
_cell_angle_gamma 90.000000
_cell_volume 3670.977837
_symmetry_space_group_name_H-M "A M A 2"
_symmetry_group_IT_number 40
_symmetry_cell_setting 'orthorhombic'
loop_
_space_group_symop_operation_xyz
x,y,z
-x,-y,z
1/2-x,y,z
1/2+x,-y,z
x,1/2+y,1/2+z
-x,1/2-y,1/2+z
1/2-x,1/2+y,1/2+z
1/2+x,1/2-y,1/2+z
loop_
_atom_site_type_symbol
_atom_site_label
_atom_site_fract_x
_atom_site_fract_y
_atom_site_fract_z
Si Si1 0.936951 0.404163 0.390930
Si Si2 0.437753 0.729729 0.473050
Si Si3 0.436525 0.595398 0.555104
Si Si4 0.935988 0.904210 0.165276
Si Si5 0.935565 0.096398 0.616900
Si Si6 0.934604 0.405013 0.010746
Si Si7 0.936198 0.275915 0.197540
Si Si8 0.563126 0.904254 0.781687
O O1 0.750000 0.408394 0.391874
O O2 0.983897 0.327264 0.427025
O O3 0.986864 0.388295 0.336295
O O4 0.000000 0.500000 0.405749
O O5 0.250000 0.738153 0.473523
O O6 0.485101 0.672063 0.519229
O O7 0.512437 0.825431 0.477246
O O8 0.500000 0.500000 0.540044
O O9 0.250000 0.591720 0.554045
O O10 0.484390 0.610538 0.609846
O O11 0.750000 0.904590 0.167038
O O12 0.002019 0.823363 0.195246
O O13 0.000000 0.000000 0.179401
O O14 0.750000 0.095148 0.617057
O O15 0.994741 0.112503 0.563291
O O16 0.997202 0.170026 0.652737
O O17 0.000000 0.000000 0.631295
O O18 0.750000 0.409584 0.014648
O O19 0.000000 0.500000 0.995307
O O20 0.750000 0.275848 0.195060
O O21 0.985243 0.329018 0.244829
O O22 0.750000 0.908152 0.781243
O O23 0.500000 0.000000 0.766888
#
# Coordination Sequence:
#
# PCOD9363035 Si02
#       8
#     8   8   8   8   8   8   8   8
#     4   9  18  33  53  77 106 137 167 204 251 301
#     4  10  19  32  51  75 103 134 168 205 247 295
#     4   9  18  30  46  70 100 131 161 197 238 286
#     4  10  20  34  50  70  99 134 171 210 252 298
#     4  11  21  34  51  74 105 137 171 209 253 304
#     4  11  22  36  53  73 100 134 171 210 253 299
#     4  11  21  33  51  75 102 134 174 215 257 305
#     4   9  19  34  52  76 105 135 167 206 253 304
#
# _framework density 17.434047
#
# number of rings (size 3 to 8) (size 9 to 14) (size 15 to 20)
#    0.000    2.000    0.000    5.250    0.000    4.500 
#    0.000    0.000    0.000    0.750    0.000    0.000 
#    0.000    0.000    0.000    0.000    0.000    0.000 
#
# Total GULP energy -178714.466302 kJ/mol
# GULP energy per Si atom -5584.827072 kJ/mol
# Density = 1.739437 g / cm^3
# Si number density = 17.434047 Si / 1000 Ang^3
#
#
#
# Elastic Constant Matrix: (Units=GPa)
#
#
# Indices 1 2 3 4 5 6 
#
# 1 61.8633 46.9765 30.6549 0.0000 0.0000 0.0000
# 2 46.9765 169.0442 85.1454 0.0000 0.0000 0.0000
# 3 30.6549 85.1454 72.3814 0.0000 0.0000 0.0000
# 4 0.0000 0.0000 0.0000 29.5321 0.0000 0.0000
# 5 0.0000 0.0000 0.0000 0.0000 12.0796 0.0000
# 6 0.0000 0.0000 0.0000 0.0000 0.0000 33.2995
#
#
#
# Elastic Compliance Matrix: (Units=1/GPa)
#
#
# Indices 1 2 3 4 5 6 
#
# 1 0.021209 -0.003361 -0.005029 0.000000 0.000000 0.000000
# 2 -0.003361 0.015050 -0.016280 0.000000 0.000000 0.000000
# 3 -0.005029 -0.016280 0.035097 0.000000 0.000000 0.000000
# 4 0.000000 0.000000 0.000000 0.033861 0.000000 0.000000
# 5 0.000000 0.000000 0.000000 0.000000 0.082784 0.000000
# 6 0.000000 0.000000 0.000000 0.000000 0.000000 0.030030
#
#
# Mechanical properties :
#
#
# Convention : Reuss Voigt Hill
#
# Bulk Modulus (GPa) = 45.42300 69.87139 57.64719
# Shear Modulus (GPa) = 18.20105 24.34971 21.27538
#
# Velocity S-wave (km/s) = 3.23460 3.74127 3.49712
# Velocity P-wave (km/s) = 6.32937 7.66990 7.03165
#
# Compressibility (1/GPa) = 0.02201528
#
# Stress axis : x y z
#
# Youngs Moduli (GPa) = 47.15061 66.44634 28.49276
#
# Poissons Ratio (x) = 0.22332 0.14328
# Poissons Ratio (y) = 0.15847 0.46387
# Poissons Ratio (z) = 0.23711 1.08176
#
# Static dielectric constant tensor:
#      x y z
#    x 1.582370 0.000000 0.000000 
#    y 0.000000 1.580870 0.000000 
#    z 0.000000 0.000000 1.595800 
# 
# From -- ./inp_files/24249.got.cif
#   From: 2010.05.17/outbox.cif.g08.bks.cpg/sg40_13_cif.got.tgz:24249.got - 2010.06.03 18:35:42.
