data_PCOD9363335
_publ_section_title
;
Structure prediction by ZEFSAII (Michael W. Deem and Ramdas Pophale) SiO2 
 PCOD9363335
Probable space group: A M A 2
;
_chemical_formula_sum "Si O2"
_cell_formula_units_Z 44
_cell_length_a 24.388307
_cell_length_b 10.552720
_cell_length_c 8.709902
_cell_angle_alpha 90.000000
_cell_angle_beta 90.000000
_cell_angle_gamma 90.000000
_cell_volume 2241.606291
_symmetry_space_group_name_H-M "A M A 2"
_symmetry_group_IT_number 40
_symmetry_cell_setting 'orthorhombic'
loop_
_space_group_symop_operation_xyz
x,y,z
-x,-y,z
1/2-x,y,z
1/2+x,-y,z
x,1/2+y,1/2+z
-x,1/2-y,1/2+z
1/2-x,1/2+y,1/2+z
1/2+x,1/2-y,1/2+z
loop_
_atom_site_type_symbol
_atom_site_label
_atom_site_fract_x
_atom_site_fract_y
_atom_site_fract_z
Si Si1 0.250000 0.270088 0.559620
Si Si2 0.250000 0.007024 0.392526
Si Si3 0.871507 0.993741 0.364189
Si Si4 0.250000 0.237199 0.925222
Si Si5 0.136083 0.785658 0.907403
Si Si6 0.565025 0.994517 0.049688
Si Si7 0.635705 0.756076 0.042269
O O1 0.250000 0.265124 0.743370
O O2 0.193920 0.322410 0.486376
O O3 0.250000 0.125242 0.503925
O O4 0.192155 0.011722 0.305199
O O5 0.250000 0.880076 0.493311
O O6 0.913056 0.005766 0.224303
O O7 0.874367 0.121032 0.462742
O O8 0.879283 0.860236 0.453409
O O9 0.307356 0.183096 0.980111
O O10 0.140554 0.771090 0.723623
O O11 0.092362 0.890737 0.955400
O O12 0.500000 0.000000 0.040390
O O13 0.588708 0.857050 0.003123
#
# Coordination Sequence:
#
# PCOD9363335 Si02
#       7
#     4   4   8   4   8   8   8
#     4  10  19  34  62  91 120 153 181 229 297 362
#     4   8  16  32  58  90 114 138 180 228 284 356
#     4   9  20  40  63  87 119 153 188 240 301 357
#     4  10  19  34  58  91 122 151 185 229 297 364
#     4  10  21  38  60  89 119 151 192 240 294 350
#     4  11  25  41  57  83 118 158 207 252 289 337
#     4  10  22  38  61  90 119 152 193 241 294 355
#
# _framework density 19.628782999999999
#
# number of rings (size 3 to 8) (size 9 to 14) (size 15 to 20)
#    0.000    2.182    0.000    2.727    0.000   11.636 
#    0.000    0.909    0.000    0.000    0.000    0.000 
#    0.000    0.000    0.000    0.000    0.000    0.000 
#
# Total GULP energy -122656.240069 kJ/mol
# GULP energy per Si atom -5575.283639 kJ/mol
# Density = 1.958411 g / cm^3
# Si number density = 19.628783 Si / 1000 Ang^3
#
#
#
# Elastic Constant Matrix: (Units=GPa)
#
#
# Indices 1 2 3 4 5 6 
#
# 1 183.9335 72.3823 59.3548 0.0000 0.0000 0.0000
# 2 72.3823 126.7059 50.6255 0.0000 0.0000 0.0000
# 3 59.3548 50.6255 67.7283 0.0000 0.0000 0.0000
# 4 0.0000 0.0000 0.0000 29.5559 0.0000 0.0000
# 5 0.0000 0.0000 0.0000 0.0000 22.8580 0.0000
# 6 0.0000 0.0000 0.0000 0.0000 0.0000 18.3859
#
#
#
# Elastic Compliance Matrix: (Units=1/GPa)
#
#
# Indices 1 2 3 4 5 6 
#
# 1 0.008124 -0.002561 -0.005205 0.000000 0.000000 0.000000
# 2 -0.002561 0.012061 -0.006770 0.000000 0.000000 0.000000
# 3 -0.005205 -0.006770 0.024387 0.000000 0.000000 0.000000
# 4 0.000000 0.000000 0.000000 0.033834 0.000000 0.000000
# 5 0.000000 0.000000 0.000000 0.000000 0.043748 0.000000
# 6 0.000000 0.000000 0.000000 0.000000 0.000000 0.054389
#
#
# Mechanical properties :
#
#
# Convention : Reuss Voigt Hill
#
# Bulk Modulus (GPa) = 64.52364 82.56586 73.54475
# Shear Modulus (GPa) = 23.72086 27.22699 25.47392
#
# Velocity S-wave (km/s) = 3.48008 3.72841 3.60639
# Velocity P-wave (km/s) = 7.00652 7.79036 7.40881
#
# Compressibility (1/GPa) = 0.01549819
#
# Stress axis : x y z
#
# Youngs Moduli (GPa) = 123.08465 82.91453 41.00467
#
# Poissons Ratio (x) = 0.21237 0.21345
# Poissons Ratio (y) = 0.31526 0.27762
# Poissons Ratio (z) = 0.64071 0.56136
#
# Static dielectric constant tensor:
#      x y z
#    x 1.707850 0.000000 0.000000 
#    y 0.000000 1.742180 0.000000 
#    z 0.000000 0.000000 1.686940 
# 
# From -- ./inp_files/8692.got.cif
#   From: 2010.05.17/outbox.cif.g08.bks.cpg/sg40_5_cif.got.tgz:8692.got - 2010.06.03 18:35:42.
