data_PCOD9363752
_publ_section_title
;
Structure prediction by ZEFSAII (Michael W. Deem and Ramdas Pophale) SiO2 
 PCOD9363752
Probable space group: A M A 2
;
_chemical_formula_sum "Si O2"
_cell_formula_units_Z 56
_cell_length_a 8.951171
_cell_length_b 14.811399
_cell_length_c 21.097512
_cell_angle_alpha 90.000000
_cell_angle_beta 90.000000
_cell_angle_gamma 90.000000
_cell_volume 2797.094748
_symmetry_space_group_name_H-M "A M A 2"
_symmetry_group_IT_number 40
_symmetry_cell_setting 'orthorhombic'
loop_
_space_group_symop_operation_xyz
x,y,z
-x,-y,z
1/2-x,y,z
1/2+x,-y,z
x,1/2+y,1/2+z
-x,1/2-y,1/2+z
1/2-x,1/2+y,1/2+z
1/2+x,1/2-y,1/2+z
loop_
_atom_site_type_symbol
_atom_site_label
_atom_site_fract_x
_atom_site_fract_y
_atom_site_fract_z
Si Si1 0.571501 0.593252 0.468930
Si Si2 0.423643 0.403844 0.107222
Si Si3 0.927366 0.280691 0.213262
Si Si4 0.070965 0.092231 0.829386
Si Si5 0.926217 0.404709 0.889714
Si Si6 0.576423 0.226388 0.486605
Si Si7 0.425446 0.594301 0.737467
O O1 0.500000 0.500000 0.493497
O O2 0.750000 0.587766 0.468579
O O3 0.508339 0.603959 0.397096
O O4 0.512625 0.682763 0.503089
O O5 0.500000 0.500000 0.097817
O O6 0.250000 0.416656 0.123715
O O7 0.504595 0.348279 0.162141
O O8 0.432284 0.344554 0.043662
O O9 0.750000 0.274442 0.205581
O O10 0.957116 0.325221 0.282135
O O11 0.999594 0.182411 0.208173
O O12 0.250000 0.081676 0.837591
O O13 0.000000 0.000000 0.801712
O O14 0.750000 0.405515 0.904344
O O15 0.944287 0.397499 0.813904
O O16 0.000000 0.500000 0.909293
O O17 0.005269 0.323168 0.925993
O O18 0.750000 0.248583 0.474323
O O19 0.500000 0.500000 0.717984
O O20 0.250000 0.592433 0.723673
#
# Coordination Sequence:
#
# PCOD9363752 Si02
#       7
#     8   8   8   8   8   8   8
#     4  11  22  37  59  86 117 152 189 234 285 340
#     4  11  25  43  63  86 115 150 190 236 284 335
#     4  11  23  38  59  85 115 152 193 237 286 338
#     4  10  20  34  55  85 119 153 189 233 284 340
#     4  10  20  34  56  87 120 155 191 233 285 340
#     4  11  23  39  59  84 115 152 193 238 286 338
#     4  10  21  37  58  85 118 152 190 235 284 339
#
# _framework density 20.020772999999998
#
# number of rings (size 3 to 8) (size 9 to 14) (size 15 to 20)
#    0.000    1.429    0.000    6.429    0.000   10.857 
#    0.000    0.714    0.000    3.429    0.000    0.000 
#    0.000    0.000    0.000    0.000    0.000    0.000 
#
# Total GULP energy -156620.913193 kJ/mol
# GULP energy per Si atom -5593.604043 kJ/mol
# Density = 1.997520 g / cm^3
# Si number density = 20.020773 Si / 1000 Ang^3
#
#
#
# Elastic Constant Matrix: (Units=GPa)
#
#
# Indices 1 2 3 4 5 6 
#
# 1 123.2906 77.8720 27.1541 0.0000 0.0000 0.0000
# 2 77.8720 168.5940 16.8593 0.0000 0.0000 0.0000
# 3 27.1541 16.8593 13.2323 0.0000 0.0000 0.0000
# 4 0.0000 0.0000 0.0000 22.8219 0.0000 0.0000
# 5 0.0000 0.0000 0.0000 0.0000 49.7352 0.0000
# 6 0.0000 0.0000 0.0000 0.0000 0.0000 38.4670
#
#
#
# Elastic Compliance Matrix: (Units=1/GPa)
#
#
# Indices 1 2 3 4 5 6 
#
# 1 0.018236 -0.005364 -0.030587 0.000000 0.000000 0.000000
# 2 -0.005364 0.008375 0.000337 0.000000 0.000000 0.000000
# 3 -0.030587 0.000337 0.137912 0.000000 0.000000 0.000000
# 4 0.000000 0.000000 0.000000 0.043818 0.000000 0.000000
# 5 0.000000 0.000000 0.000000 0.000000 0.020106 0.000000
# 6 0.000000 0.000000 0.000000 0.000000 0.000000 0.025996
#
#
# Mechanical properties :
#
#
# Convention : Reuss Voigt Hill
#
# Bulk Modulus (GPa) = 10.71879 60.98752 35.85316
# Shear Modulus (GPa) = 14.01461 34.42024 24.21743
#
# Velocity S-wave (km/s) = 2.64863 4.15085 3.48172
# Velocity P-wave (km/s) = 3.83655 7.31444 5.84038
#
# Compressibility (1/GPa) = 0.09329409
#
# Stress axis : x y z
#
# Youngs Moduli (GPa) = 54.83759 119.39720 7.25100
#
# Poissons Ratio (x) = 0.64047 0.22179
# Poissons Ratio (y) = 0.29416 -0.00244
# Poissons Ratio (z) = 1.67732 -0.04021
#
# Static dielectric constant tensor:
#      x y z
#    x 1.668180 0.000000 0.000000 
#    y 0.000000 1.704660 0.000000 
#    z 0.000000 0.000000 1.705600 
# 
# From -- ./inp_files/22203.got.cif
#   From: 2010.05.17/outbox.cif.g08.bks.cpg/sg40_12_cif.got.tgz:22203.got - 2010.06.03 18:35:42.
