data_PCOD9363358
_publ_section_title
;
Structure prediction by ZEFSAII (Michael W. Deem and Ramdas Pophale) SiO2 
 PCOD9363358
Probable space group: A M A 2
;
_chemical_formula_sum "Si O2"
_cell_formula_units_Z 48
_cell_length_a 16.555609
_cell_length_b 15.967859
_cell_length_c 9.408640
_cell_angle_alpha 90.000000
_cell_angle_beta 90.000000
_cell_angle_gamma 90.000000
_cell_volume 2487.245774
_symmetry_space_group_name_H-M "A M A 2"
_symmetry_group_IT_number 40
_symmetry_cell_setting 'orthorhombic'
loop_
_space_group_symop_operation_xyz
x,y,z
-x,-y,z
1/2-x,y,z
1/2+x,-y,z
x,1/2+y,1/2+z
-x,1/2-y,1/2+z
1/2-x,1/2+y,1/2+z
1/2+x,1/2-y,1/2+z
loop_
_atom_site_type_symbol
_atom_site_label
_atom_site_fract_x
_atom_site_fract_y
_atom_site_fract_z
Si Si1 0.096068 0.867283 0.250000
Si Si2 0.653903 0.465523 0.614014
Si Si3 0.845763 0.876894 0.842709
Si Si4 0.344387 0.295066 0.023195
Si Si5 0.844935 0.286909 0.072837
Si Si6 0.086324 0.696018 0.763835
O O1 0.107210 0.958291 0.184430
O O2 0.126081 0.864993 0.413288
O O3 0.146661 0.801422 0.154791
O O4 0.005190 0.833497 0.246331
O O5 0.750000 0.483332 0.610659
O O6 0.623891 0.446266 0.452963
O O7 0.640310 0.380866 0.704577
O O8 0.750000 0.891899 0.826943
O O9 0.876607 0.856978 0.685155
O O10 0.853949 0.789897 0.929566
O O11 0.250000 0.305756 0.056767
O O12 0.393768 0.276184 0.165554
O O13 0.750000 0.301656 0.044165
O O14 0.893012 0.286789 0.926812
#
# Coordination Sequence:
#
# PCOD9363358 Si02
#       6
#     8   8   8   8   8   8
#     4  11  21  34  54  82 112 141 183 240 282 315
#     4  10  19  35  56  78 105 145 187 225 273 339
#     4   7  14  29  52  75  98 132 178 217 258 322
#     4   9  17  33  53  74 102 143 183 216 262 332
#     4  10  19  35  57  81 107 145 190 231 276 339
#     4  11  21  34  54  82 113 144 182 231 282 331
#
# _framework density 19.298455000000001
#
# number of rings (size 3 to 8) (size 9 to 14) (size 15 to 20)
#    0.000    2.333    0.000    6.500    0.000    0.000 
#    0.000    1.667    0.000    8.000    0.000    0.000 
#    0.000    0.000    0.000    0.000    0.000    0.000 
#
# Total GULP energy -133810.570211 kJ/mol
# GULP energy per Si atom -5575.440425 kJ/mol
# Density = 1.925453 g / cm^3
# Si number density = 19.298455 Si / 1000 Ang^3
#
#
#
# Elastic Constant Matrix: (Units=GPa)
#
#
# Indices 1 2 3 4 5 6 
#
# 1 41.5121 -13.4341 1.9875 0.0000 0.0000 0.0000
# 2 -13.4341 47.6835 34.2764 0.0000 0.0000 0.0000
# 3 1.9875 34.2764 131.7039 0.0000 0.0000 0.0000
# 4 0.0000 0.0000 0.0000 27.0472 0.0000 0.0000
# 5 0.0000 0.0000 0.0000 0.0000 -132.9132 0.0000
# 6 0.0000 0.0000 0.0000 0.0000 0.0000 10.5835
#
#
#
# Elastic Compliance Matrix: (Units=1/GPa)
#
#
# Indices 1 2 3 4 5 6 
#
# 1 0.027427 0.009871 -0.002983 0.000000 0.000000 0.000000
# 2 0.009871 0.029351 -0.007788 0.000000 0.000000 0.000000
# 3 -0.002983 -0.007788 0.009665 0.000000 0.000000 0.000000
# 4 0.000000 0.000000 0.000000 0.036972 0.000000 0.000000
# 5 0.000000 0.000000 0.000000 0.000000 -0.007524 0.000000
# 6 0.000000 0.000000 0.000000 0.000000 0.000000 0.094487
#
#
# Mechanical properties :
#
#
# Convention : Reuss Voigt Hill
#
# Bulk Modulus (GPa) = 15.46946 29.61768 22.54357
# Shear Modulus (GPa) = 23.39469 -5.85186 8.77141
#
# Velocity S-wave (km/s) = 3.48553 -1.74324 2.13425
# Velocity P-wave (km/s) = 4.92258 3.36581 4.21666
#
# Compressibility (1/GPa) = 0.06464348
#
# Stress axis : x y z
#
# Youngs Moduli (GPa) = 36.46081 34.07078 103.47093
#
# Poissons Ratio (x) = -0.33632 0.30865
# Poissons Ratio (y) = -0.35992 0.80579
# Poissons Ratio (z) = 0.10876 0.26533
#
# Static dielectric constant tensor:
#      x y z
#    x 1.673640 0.000000 0.000000 
#    y 0.000000 1.677350 0.000000 
#    z 0.000000 0.000000 1.700290 
# 
# From -- ./inp_files/6432.got.cif
#   From: 2010.05.17/outbox.cif.g08.bks.cpg/sg40_4_cif.got.tgz:6432.got - 2010.06.03 18:35:42.
