data_PCOD9363767
_publ_section_title
;
Structure prediction by ZEFSAII (Michael W. Deem and Ramdas Pophale) SiO2 
 PCOD9363767
Probable space group: A M A 2
;
_chemical_formula_sum "Si O2"
_cell_formula_units_Z 56
_cell_length_a 8.732984
_cell_length_b 14.479101
_cell_length_c 23.167526
_cell_angle_alpha 90.000000
_cell_angle_beta 90.000000
_cell_angle_gamma 90.000000
_cell_volume 2929.435371
_symmetry_space_group_name_H-M "A M A 2"
_symmetry_group_IT_number 40
_symmetry_cell_setting 'orthorhombic'
loop_
_space_group_symop_operation_xyz
x,y,z
-x,-y,z
1/2-x,y,z
1/2+x,-y,z
x,1/2+y,1/2+z
-x,1/2-y,1/2+z
1/2-x,1/2+y,1/2+z
1/2+x,1/2-y,1/2+z
loop_
_atom_site_type_symbol
_atom_site_label
_atom_site_fract_x
_atom_site_fract_y
_atom_site_fract_z
Si Si1 0.064919 0.094712 0.403030
Si Si2 0.934334 0.594346 0.197444
Si Si3 0.422535 0.643526 0.778365
Si Si4 0.923091 0.645029 0.321850
Si Si5 0.432110 0.790875 0.164526
Si Si6 0.932061 0.292120 0.436937
Si Si7 0.066062 0.397063 0.547090
O O1 0.250000 0.095742 0.403592
O O2 0.011946 0.096992 0.335739
O O3 0.003917 0.189428 0.430754
O O4 0.000000 0.000000 0.429258
O O5 0.750000 0.593474 0.197568
O O6 0.987951 0.597469 0.264651
O O7 0.000000 0.500000 0.171070
O O8 0.990916 0.689809 0.169341
O O9 0.250000 0.609196 0.766843
O O10 0.410531 0.749424 0.799818
O O11 0.516591 0.648067 0.719657
O O12 0.750000 0.611740 0.334335
O O13 0.020029 0.649643 0.379903
O O14 0.250000 0.778351 0.166626
O O15 0.474273 0.842612 0.105741
O O16 0.750000 0.284660 0.439683
O O17 0.998478 0.342729 0.492638
O O18 0.250000 0.400569 0.542572
O O19 0.000000 0.500000 0.548842
#
# Coordination Sequence:
#
# PCOD9363767 Si02
#       7
#     8   8   8   8   8   8   8
#     4  10  20  35  56  85 120 155 190 230 278 336
#     4  10  20  34  56  85 118 153 187 226 276 333
#     4   8  16  31  52  78 111 148 182 221 271 323
#     4   8  16  32  52  77 111 149 184 223 271 323
#     4  10  21  37  58  83 113 148 188 234 281 331
#     4  11  22  37  59  85 114 150 189 235 286 336
#     4  11  25  44  63  83 108 143 188 237 285 336
#
# _framework density 19.116311
#
# number of rings (size 3 to 8) (size 9 to 14) (size 15 to 20)
#    0.000    2.286    0.000    4.714    0.000    9.714 
#    0.000    5.000    0.000    3.429    0.000    0.000 
#    0.000    0.000    0.000    0.000    0.000    0.000 
#
# Total GULP energy -156177.378049 kJ/mol
# GULP energy per Si atom -5577.763502 kJ/mol
# Density = 1.907280 g / cm^3
# Si number density = 19.116311 Si / 1000 Ang^3
#
#
#
# Elastic Constant Matrix: (Units=GPa)
#
#
# Indices 1 2 3 4 5 6 
#
# 1 74.0280 44.3325 63.5417 0.0000 0.0000 0.0000
# 2 44.3325 133.3857 64.8437 0.0000 0.0000 0.0000
# 3 63.5417 64.8437 130.8464 0.0000 0.0000 0.0000
# 4 0.0000 0.0000 0.0000 19.6148 0.0000 0.0000
# 5 0.0000 0.0000 0.0000 0.0000 27.3566 0.0000
# 6 0.0000 0.0000 0.0000 0.0000 0.0000 -93.5444
#
#
#
# Elastic Compliance Matrix: (Units=1/GPa)
#
#
# Indices 1 2 3 4 5 6 
#
# 1 0.024072 -0.003053 -0.010177 0.000000 0.000000 0.000000
# 2 -0.003053 0.010264 -0.003604 0.000000 0.000000 0.000000
# 3 -0.010177 -0.003604 0.014370 0.000000 0.000000 0.000000
# 4 0.000000 0.000000 0.000000 0.050982 0.000000 0.000000
# 5 0.000000 0.000000 0.000000 0.000000 0.036554 0.000000
# 6 0.000000 0.000000 0.000000 0.000000 0.000000 -0.010690
#
#
# Mechanical properties :
#
#
# Convention : Reuss Voigt Hill
#
# Bulk Modulus (GPa) = 66.49474 75.96621 71.23047
# Shear Modulus (GPa) = 30.44458 1.72154 16.08306
#
# Velocity S-wave (km/s) = 3.99506 0.95001 2.90371
# Velocity P-wave (km/s) = 7.49270 6.40536 6.97026
#
# Compressibility (1/GPa) = 0.01503878
#
# Stress axis : x y z
#
# Youngs Moduli (GPa) = 41.54184 97.43025 69.58737
#
# Poissons Ratio (x) = 0.29749 0.70817
# Poissons Ratio (y) = 0.12684 0.25077
# Poissons Ratio (z) = 0.42276 0.35110
#
# Static dielectric constant tensor:
#      x y z
#    x 1.657680 0.000000 0.000000 
#    y 0.000000 1.690390 0.000000 
#    z 0.000000 0.000000 1.660070 
# 
# From -- ./inp_files/22178.got.cif
#   From: 2010.05.17/outbox.cif.g08.bks.cpg/sg40_12_cif.got.tgz:22178.got - 2010.06.03 18:35:42.
