data_PCOD9363088
_publ_section_title
;
Structure prediction by ZEFSAII (Michael W. Deem and Ramdas Pophale) SiO2 
 PCOD9363088
Probable space group: A M A 2
;
_chemical_formula_sum "Si O2"
_cell_formula_units_Z 64
_cell_length_a 8.800683
_cell_length_b 21.143847
_cell_length_c 20.075351
_cell_angle_alpha 90.000000
_cell_angle_beta 90.000000
_cell_angle_gamma 90.000000
_cell_volume 3735.627233
_symmetry_space_group_name_H-M "A M A 2"
_symmetry_group_IT_number 40
_symmetry_cell_setting 'orthorhombic'
loop_
_space_group_symop_operation_xyz
x,y,z
-x,-y,z
1/2-x,y,z
1/2+x,-y,z
x,1/2+y,1/2+z
-x,1/2-y,1/2+z
1/2-x,1/2+y,1/2+z
1/2+x,1/2-y,1/2+z
loop_
_atom_site_type_symbol
_atom_site_label
_atom_site_fract_x
_atom_site_fract_y
_atom_site_fract_z
Si Si1 0.432129 0.882604 0.485970
Si Si2 0.929903 0.933052 0.200804
Si Si3 0.565210 0.811297 0.702326
Si Si4 0.568588 0.766568 0.844555
Si Si5 0.567207 0.184804 0.123267
Si Si6 0.069439 0.884330 0.335307
Si Si7 0.567729 0.933954 0.619460
Si Si8 0.569082 0.242575 0.983846
O O1 0.250000 0.885801 0.491661
O O2 0.473639 0.903157 0.410679
O O3 0.509967 0.921372 0.544569
O O4 0.485511 0.809806 0.493091
O O5 0.750000 0.935842 0.197176
O O6 0.991800 0.876180 0.155395
O O7 0.981066 0.918195 0.276542
O O8 0.000000 0.000000 0.180476
O O9 0.750000 0.811165 0.701724
O O10 0.518642 0.804423 0.779110
O O11 0.518511 0.748275 0.662638
O O12 0.516454 0.874492 0.664434
O O13 0.750000 0.774584 0.854241
O O14 0.544704 0.691586 0.830829
O O15 0.482833 0.783035 0.912347
O O16 0.750000 0.179219 0.130808
O O17 0.532755 0.197295 0.045798
O O18 0.250000 0.895174 0.326490
O O19 0.750000 0.936185 0.619707
O O20 0.500000 0.000000 0.643620
O O21 0.750000 0.254257 0.984824
#
# Coordination Sequence:
#
# PCOD9363088 Si02
#       8
#     8   8   8   8   8   8   8   8
#     4  10  20  34  53  78 109 147 186 224 264 317
#     4  12  25  38  55  80 109 144 183 227 272 324
#     4   9  17  34  58  79 105 146 184 219 273 324
#     4   9  17  32  55  80 108 141 179 224 270 322
#     4  10  19  37  59  79 108 145 181 223 272 325
#     4   9  18  34  54  76 108 145 180 219 267 320
#     4  11  22  37  55  79 110 148 187 226 275 325
#     4  10  19  32  54  83 113 143 175 222 276 322
#
# _framework density 17.132331000000001
#
# number of rings (size 3 to 8) (size 9 to 14) (size 15 to 20)
#    0.000    2.000    2.500    3.000    0.000    4.000 
#    0.000    1.250    0.000    0.750    0.000    3.500 
#    0.000    0.000    0.000    0.000    0.000    0.000 
#
# Total GULP energy -178638.040195 kJ/mol
# GULP energy per Si atom -5582.438756 kJ/mol
# Density = 1.709334 g / cm^3
# Si number density = 17.132331 Si / 1000 Ang^3
#
#
#
# Elastic Constant Matrix: (Units=GPa)
#
#
# Indices 1 2 3 4 5 6 
#
# 1 50.4388 40.6924 38.9803 0.0000 0.0000 0.0000
# 2 40.6924 116.3938 65.9370 0.0000 0.0000 0.0000
# 3 38.9803 65.9370 112.2815 0.0000 0.0000 0.0000
# 4 0.0000 0.0000 0.0000 18.7764 0.0000 0.0000
# 5 0.0000 0.0000 0.0000 0.0000 25.2856 0.0000
# 6 0.0000 0.0000 0.0000 0.0000 0.0000 93.5414
#
#
#
# Elastic Compliance Matrix: (Units=1/GPa)
#
#
# Indices 1 2 3 4 5 6 
#
# 1 0.030463 -0.006982 -0.006476 0.000000 0.000000 0.000000
# 2 -0.006982 0.014475 -0.006076 0.000000 0.000000 0.000000
# 3 -0.006476 -0.006076 0.014723 0.000000 0.000000 0.000000
# 4 0.000000 0.000000 0.000000 0.053258 0.000000 0.000000
# 5 0.000000 0.000000 0.000000 0.000000 0.039548 0.000000
# 6 0.000000 0.000000 0.000000 0.000000 0.000000 0.010690
#
#
# Mechanical properties :
#
#
# Convention : Reuss Voigt Hill
#
# Bulk Modulus (GPa) = 48.56059 63.37036 55.96548
# Shear Modulus (GPa) = 23.91317 36.42098 30.16708
#
# Velocity S-wave (km/s) = 3.74008 4.61571 4.20077
# Velocity P-wave (km/s) = 6.85980 8.09169 7.50108
#
# Compressibility (1/GPa) = 0.02059283
#
# Stress axis : x y z
#
# Youngs Moduli (GPa) = 32.82636 69.08620 67.92226
#
# Poissons Ratio (x) = 0.48234 0.43985
# Poissons Ratio (y) = 0.22918 0.41272
# Poissons Ratio (z) = 0.21258 0.41979
#
# Static dielectric constant tensor:
#      x y z
#    x 1.574030 0.000000 0.000000 
#    y 0.000000 1.566300 0.000000 
#    z 0.000000 0.000000 1.589690 
# 
# From -- ./inp_files/22409.got.cif
#   From: 2010.05.17/outbox.cif.g08.bks.cpg/sg40_12_cif.got.tgz:22409.got - 2010.06.03 18:35:42.
