data_PCOD9363469
_publ_section_title
;
Structure prediction by ZEFSAII (Michael W. Deem and Ramdas Pophale) SiO2 
 PCOD9363469
Probable space group: A M A 2
;
_chemical_formula_sum "Si O2"
_cell_formula_units_Z 60
_cell_length_a 17.090505
_cell_length_b 13.130540
_cell_length_c 14.133217
_cell_angle_alpha 90.000000
_cell_angle_beta 90.000000
_cell_angle_gamma 90.000000
_cell_volume 3171.600735
_symmetry_space_group_name_H-M "A M A 2"
_symmetry_group_IT_number 40
_symmetry_cell_setting 'orthorhombic'
loop_
_space_group_symop_operation_xyz
x,y,z
-x,-y,z
1/2-x,y,z
1/2+x,-y,z
x,1/2+y,1/2+z
-x,1/2-y,1/2+z
1/2-x,1/2+y,1/2+z
1/2+x,1/2-y,1/2+z
loop_
_atom_site_type_symbol
_atom_site_label
_atom_site_fract_x
_atom_site_fract_y
_atom_site_fract_z
Si Si1 0.157453 0.023770 0.612470
Si Si2 0.487650 0.384752 0.759310
Si Si3 0.017258 0.195490 0.061450
Si Si4 0.335089 0.813884 0.359644
Si Si5 0.162863 0.307667 0.078459
Si Si6 0.656694 0.424453 0.325631
Si Si7 0.500000 0.000000 0.930125
Si Si8 0.951980 0.893770 0.456207
O O1 0.250000 0.013821 0.598228
O O2 0.144514 0.077399 0.712586
O O3 0.121600 0.080093 0.522222
O O4 0.127024 0.907632 0.627204
O O5 0.500000 0.500000 0.725641
O O6 0.485512 0.314286 0.667569
O O7 0.404629 0.371815 0.810025
O O8 0.550407 0.366080 0.844271
O O9 0.109852 0.208496 0.079430
O O10 0.992526 0.298255 0.007627
O O11 0.995360 0.099780 0.996827
O O12 0.250000 0.833838 0.316204
O O13 0.332523 0.842398 0.469346
O O14 0.348893 0.692562 0.358529
O O15 0.250000 0.286998 0.114071
O O16 0.750000 0.456593 0.342541
O O17 0.582551 0.484926 0.371978
O O18 0.000000 0.000000 0.458735
#
# Coordination Sequence:
#
# PCOD9363469 Si02
#       8
#     8   8   8   8   8   8   4   8
#     4  10  21  37  60  94 123 152 200 267 321 368
#     4  11  22  38  57  89 128 160 199 259 314 372
#     4  12  23  39  60  91 125 165 212 256 313 383
#     4  10  19  38  63  85 113 165 216 254 301 372
#     4  10  19  36  61  86 116 154 202 253 302 361
#     4  10  22  39  63  95 128 161 215 269 314 382
#     4  12  24  40  62  90 130 182 208 254 328 386
#     4  11  21  38  62  89 116 161 207 256 312 367
#
# _framework density 18.917892999999999
#
# number of rings (size 3 to 8) (size 9 to 14) (size 15 to 20)
#    0.000    1.333    4.667    1.600    0.933    2.133 
#    0.000    2.667    0.000    0.000    0.000    0.933 
#    0.000    0.000    0.000    0.000    0.000    0.000 
#
# Total GULP energy -167064.770558 kJ/mol
# GULP energy per Si atom -5568.825685 kJ/mol
# Density = 1.887483 g / cm^3
# Si number density = 18.917893 Si / 1000 Ang^3
#
#
#
# Elastic Constant Matrix: (Units=GPa)
#
#
# Indices 1 2 3 4 5 6 
#
# 1 80.2330 15.6891 6.8784 0.0000 0.0000 0.0000
# 2 15.6891 72.7983 13.6274 0.0000 0.0000 0.0000
# 3 6.8784 13.6274 83.9809 0.0000 0.0000 0.0000
# 4 0.0000 0.0000 0.0000 25.3039 0.0000 0.0000
# 5 0.0000 0.0000 0.0000 0.0000 18.6003 0.0000
# 6 0.0000 0.0000 0.0000 0.0000 0.0000 28.2026
#
#
#
# Elastic Compliance Matrix: (Units=1/GPa)
#
#
# Indices 1 2 3 4 5 6 
#
# 1 0.013044 -0.002693 -0.000631 0.000000 0.000000 0.000000
# 2 -0.002693 0.014723 -0.002168 0.000000 0.000000 0.000000
# 3 -0.000631 -0.002168 0.012311 0.000000 0.000000 0.000000
# 4 0.000000 0.000000 0.000000 0.039520 0.000000 0.000000
# 5 0.000000 0.000000 0.000000 0.000000 0.053763 0.000000
# 6 0.000000 0.000000 0.000000 0.000000 0.000000 0.035458
#
#
# Mechanical properties :
#
#
# Convention : Reuss Voigt Hill
#
# Bulk Modulus (GPa) = 34.37312 34.37801 34.37557
# Shear Modulus (GPa) = 26.38501 27.80920 27.09710
#
# Velocity S-wave (km/s) = 3.73864 3.83821 3.78875
# Velocity P-wave (km/s) = 6.07006 6.15257 6.11145
#
# Compressibility (1/GPa) = 0.02909250
#
# Stress axis : x y z
#
# Youngs Moduli (GPa) = 76.66104 67.92134 81.22777
#
# Poissons Ratio (x) = 0.18292 0.05129
# Poissons Ratio (y) = 0.20645 0.17614
# Poissons Ratio (z) = 0.04840 0.14729
#
# Static dielectric constant tensor:
#      x y z
#    x 1.760580 0.000000 0.000000 
#    y 0.000000 1.665440 0.000000 
#    z 0.000000 0.000000 1.671260 
# 
# From -- ./inp_files/17800.got.cif
#   From: 2010.05.17/outbox.cif.g08.bks.cpg/sg40_9_cif.got.tgz:17800.got - 2010.06.03 18:35:42.
