data_PCOD9363969
_publ_section_title
;
Structure prediction by ZEFSAII (Michael W. Deem and Ramdas Pophale) SiO2 
 PCOD9363969
Probable space group: A M A 2
;
_chemical_formula_sum "Si O2"
_cell_formula_units_Z 48
_cell_length_a 8.701027
_cell_length_b 31.575068
_cell_length_c 9.301133
_cell_angle_alpha 90.000000
_cell_angle_beta 90.000000
_cell_angle_gamma 90.000000
_cell_volume 2555.351604
_symmetry_space_group_name_H-M "A M A 2"
_symmetry_group_IT_number 40
_symmetry_cell_setting 'orthorhombic'
loop_
_space_group_symop_operation_xyz
x,y,z
-x,-y,z
1/2-x,y,z
1/2+x,-y,z
x,1/2+y,1/2+z
-x,1/2-y,1/2+z
1/2-x,1/2+y,1/2+z
1/2+x,1/2-y,1/2+z
loop_
_atom_site_type_symbol
_atom_site_label
_atom_site_fract_x
_atom_site_fract_y
_atom_site_fract_z
Si Si1 0.935772 0.875581 0.296180
Si Si2 0.935509 0.791382 0.121521
Si Si3 0.934081 0.708654 0.300793
Si Si4 0.935105 0.371113 0.130014
Si Si5 0.065462 0.545289 0.305771
Si Si6 0.433429 0.454465 0.625379
O O1 0.750000 0.879743 0.289163
O O2 0.980428 0.834218 0.204713
O O3 0.978975 0.869947 0.462733
O O4 0.010439 0.917066 0.227824
O O5 0.750000 0.790983 0.112889
O O6 0.984526 0.750314 0.212500
O O7 0.001662 0.790435 0.961810
O O8 0.750000 0.708744 0.306775
O O9 0.991110 0.667044 0.218336
O O10 0.750000 0.366801 0.138631
O O11 0.975938 0.416065 0.201661
O O12 0.250000 0.542656 0.315899
O O13 0.000000 0.500000 0.256799
O O14 0.998428 0.553427 0.464772
O O15 0.500000 0.500000 0.671724
O O16 0.250000 0.456523 0.619814
#
# Coordination Sequence:
#
# PCOD9363969 Si02
#       6
#     8   8   8   8   8   8
#     4  10  21  39  59  81 113 152 191 230 279 336
#     4  10  22  39  59  83 114 151 187 229 283 336
#     4  11  23  38  60  88 115 147 190 235 277 331
#     4  10  22  39  59  83 116 154 187 228 284 339
#     4  10  20  36  58  83 111 147 189 232 282 337
#     4  11  22  37  58  84 113 147 188 234 283 335
#
# _framework density 18.784106999999999
#
# number of rings (size 3 to 8) (size 9 to 14) (size 15 to 20)
#    0.000    1.667    0.000    5.500    0.000   10.000 
#    0.000    1.667    0.000    0.000    0.000    0.000 
#    0.000    0.000    0.000    0.000    0.000    0.000 
#
# Total GULP energy -134171.161782 kJ/mol
# GULP energy per Si atom -5590.465074 kJ/mol
# Density = 1.874135 g / cm^3
# Si number density = 18.784107 Si / 1000 Ang^3
#
#
#
# Elastic Constant Matrix: (Units=GPa)
#
#
# Indices 1 2 3 4 5 6 
#
# 1 51.3264 61.5467 55.2103 0.0000 0.0000 0.0000
# 2 61.5467 189.3189 135.4801 0.0000 0.0000 0.0000
# 3 55.2103 135.4801 179.2437 0.0000 0.0000 0.0000
# 4 0.0000 0.0000 0.0000 41.6753 0.0000 0.0000
# 5 0.0000 0.0000 0.0000 0.0000 29.0388 0.0000
# 6 0.0000 0.0000 0.0000 0.0000 0.0000 31.8393
#
#
#
# Elastic Compliance Matrix: (Units=1/GPa)
#
#
# Indices 1 2 3 4 5 6 
#
# 1 0.033554 -0.007650 -0.004553 0.000000 0.000000 0.000000
# 2 -0.007650 0.013249 -0.007658 0.000000 0.000000 0.000000
# 3 -0.004553 -0.007658 0.012770 0.000000 0.000000 0.000000
# 4 0.000000 0.000000 0.000000 0.023995 0.000000 0.000000
# 5 0.000000 0.000000 0.000000 0.000000 0.034437 0.000000
# 6 0.000000 0.000000 0.000000 0.000000 0.000000 0.031408
#
#
# Mechanical properties :
#
#
# Convention : Reuss Voigt Hill
#
# Bulk Modulus (GPa) = 50.37576 102.70704 76.54140
# Shear Modulus (GPa) = 25.54256 31.68748 28.61502
#
# Velocity S-wave (km/s) = 3.69154 4.11168 3.90726
# Velocity P-wave (km/s) = 6.71167 8.79418 7.82253
#
# Compressibility (1/GPa) = 0.01985082
#
# Stress axis : x y z
#
# Youngs Moduli (GPa) = 29.80270 75.47544 78.31026
#
# Poissons Ratio (x) = 0.57739 0.35655
# Poissons Ratio (y) = 0.22799 0.59971
# Poissons Ratio (z) = 0.13569 0.57800
#
# Static dielectric constant tensor:
#      x y z
#    x 1.637280 0.000000 0.000000 
#    y 0.000000 1.629960 0.000000 
#    z 0.000000 0.000000 1.614960 
# 
# From -- ./inp_files/4593.got.cif
#   From: 2010.05.17/outbox.cif.g08.bks.cpg/sg40_3_cif.got.tgz:4593.got - 2010.06.03 18:35:42.
