data_PCOD9363962
_publ_section_title
;
Structure prediction by ZEFSAII (Michael W. Deem and Ramdas Pophale) SiO2 
 PCOD9363962
Probable space group: A M A 2
;
_chemical_formula_sum "Si O2"
_cell_formula_units_Z 40
_cell_length_a 8.440528
_cell_length_b 29.472767
_cell_length_c 8.081772
_cell_angle_alpha 90.000000
_cell_angle_beta 90.000000
_cell_angle_gamma 90.000000
_cell_volume 2010.467791
_symmetry_space_group_name_H-M "A M A 2"
_symmetry_group_IT_number 40
_symmetry_cell_setting 'orthorhombic'
loop_
_space_group_symop_operation_xyz
x,y,z
-x,-y,z
1/2-x,y,z
1/2+x,-y,z
x,1/2+y,1/2+z
-x,1/2-y,1/2+z
1/2-x,1/2+y,1/2+z
1/2+x,1/2-y,1/2+z
loop_
_atom_site_type_symbol
_atom_site_label
_atom_site_fract_x
_atom_site_fract_y
_atom_site_fract_z
Si Si1 0.559958 0.551299 0.838560
Si Si2 0.441401 0.200668 0.154740
Si Si3 0.560540 0.394777 0.518853
Si Si4 0.941452 0.701609 0.026351
Si Si5 0.941071 0.106585 0.664141
O O1 0.500000 0.500000 0.842450
O O2 0.750000 0.551923 0.837281
O O3 0.500860 0.576178 0.673161
O O4 0.506225 0.577915 0.004132
O O5 0.250000 0.201429 0.154427
O O6 0.493765 0.157387 0.047928
O O7 0.500676 0.194010 0.340562
O O8 0.498457 0.249410 0.089122
O O9 0.750000 0.395674 0.521374
O O10 0.502105 0.410715 0.339877
O O11 0.750000 0.702101 0.026862
O O12 0.993754 0.658764 0.135660
O O13 0.750000 0.105867 0.667009
#
# Coordination Sequence:
#
# PCOD9363962 Si02
#       5
#     8   8   8   8   8
#     4  11  24  44  68  93 122 162 208 261 315 370
#     4  10  21  35  55  87 124 162 207 254 305 362
#     4  11  23  39  62  93 128 165 205 256 311 370
#     4  10  20  36  57  85 122 165 209 253 305 364
#     4  10  22  40  63  90 123 165 210 256 309 370
#
# _framework density 19.895868
#
# number of rings (size 3 to 8) (size 9 to 14) (size 15 to 20)
#    0.000    1.600    2.000    2.400    0.000    4.800 
#    0.000    2.000    0.000    0.000    0.000    0.000 
#    0.000    0.000    0.000    0.000    0.000    0.000 
#
# Total GULP energy -111769.429037 kJ/mol
# GULP energy per Si atom -5588.471452 kJ/mol
# Density = 1.985058 g / cm^3
# Si number density = 19.895868 Si / 1000 Ang^3
#
#
#
# Elastic Constant Matrix: (Units=GPa)
#
#
# Indices 1 2 3 4 5 6 
#
# 1 16.2275 27.1559 25.2222 0.0000 0.0000 0.0000
# 2 27.1559 139.3733 73.5184 0.0000 0.0000 0.0000
# 3 25.2222 73.5184 182.7496 0.0000 0.0000 0.0000
# 4 0.0000 0.0000 0.0000 26.7089 0.0000 0.0000
# 5 0.0000 0.0000 0.0000 0.0000 33.2235 0.0000
# 6 0.0000 0.0000 0.0000 0.0000 0.0000 10.7806
#
#
#
# Elastic Compliance Matrix: (Units=1/GPa)
#
#
# Indices 1 2 3 4 5 6 
#
# 1 0.098898 -0.015321 -0.007486 0.000000 0.000000 0.000000
# 2 -0.015321 0.011481 -0.002504 0.000000 0.000000 0.000000
# 3 -0.007486 -0.002504 0.007513 0.000000 0.000000 0.000000
# 4 0.000000 0.000000 0.000000 0.037441 0.000000 0.000000
# 5 0.000000 0.000000 0.000000 0.000000 0.030099 0.000000
# 6 0.000000 0.000000 0.000000 0.000000 0.000000 0.092759
#
#
# Mechanical properties :
#
#
# Convention : Reuss Voigt Hill
#
# Bulk Modulus (GPa) = 14.86555 65.57147 40.21851
# Shear Modulus (GPa) = 14.23545 28.30621 21.27083
#
# Velocity S-wave (km/s) = 2.67778 3.77599 3.27327
# Velocity P-wave (km/s) = 4.12899 7.21385 5.87742
#
# Compressibility (1/GPa) = 0.06726963
#
# Stress axis : x y z
#
# Youngs Moduli (GPa) = 10.11143 87.09972 133.11017
#
# Poissons Ratio (x) = 1.33444 0.99646
# Poissons Ratio (y) = 0.15492 0.33334
# Poissons Ratio (z) = 0.07569 0.21812
#
# Static dielectric constant tensor:
#      x y z
#    x 1.676480 0.000000 0.000000 
#    y 0.000000 1.717090 0.000000 
#    z 0.000000 0.000000 1.670180 
# 
# From -- ./inp_files/4235.got.cif
#   From: 2010.05.17/outbox.cif.g08.bks.cpg/sg40_3_cif.got.tgz:4235.got - 2010.06.03 18:35:42.
