data_PCOD9363917
_publ_section_title
;
Structure prediction by ZEFSAII (Michael W. Deem and Ramdas Pophale) SiO2 
 PCOD9363917
Probable space group: A M A 2
;
_chemical_formula_sum "Si O2"
_cell_formula_units_Z 40
_cell_length_a 11.399320
_cell_length_b 22.032297
_cell_length_c 7.466180
_cell_angle_alpha 90.000000
_cell_angle_beta 90.000000
_cell_angle_gamma 90.000000
_cell_volume 1875.155027
_symmetry_space_group_name_H-M "A M A 2"
_symmetry_group_IT_number 40
_symmetry_cell_setting 'orthorhombic'
loop_
_space_group_symop_operation_xyz
x,y,z
-x,-y,z
1/2-x,y,z
1/2+x,-y,z
x,1/2+y,1/2+z
-x,1/2-y,1/2+z
1/2-x,1/2+y,1/2+z
1/2+x,1/2-y,1/2+z
loop_
_atom_site_type_symbol
_atom_site_label
_atom_site_fract_x
_atom_site_fract_y
_atom_site_fract_z
Si Si1 0.958922 0.830721 0.482790
Si Si2 0.624559 0.498930 0.541248
Si Si3 0.884889 0.709236 0.313500
Si Si4 0.379779 0.862022 0.154495
Si Si5 0.118062 0.538544 0.941682
O O1 0.027740 0.802378 0.650139
O O2 0.053368 0.850033 0.334695
O O3 0.885958 0.777790 0.386722
O O4 0.892958 0.893825 0.521528
O O5 0.500000 0.500000 0.439362
O O6 0.750000 0.485495 0.450238
O O7 0.630931 0.567002 0.617261
O O8 0.615752 0.458370 0.722027
O O9 0.750000 0.691459 0.269549
O O10 0.931643 0.668459 0.477795
O O11 0.250000 0.834869 0.171260
O O12 0.250000 0.513441 0.983815
O O13 0.000000 0.500000 0.988784
#
# Coordination Sequence:
#
# PCOD9363917 Si02
#       5
#     8   8   8   8   8
#     4  12  21  40  64  90 129 172 214 266 333 386
#     4   9  16  31  58  85 114 159 202 248 312 370
#     4  11  25  40  62  95 127 168 222 273 325 394
#     4  10  20  38  61  87 122 164 211 262 317 387
#     4  10  20  35  63  95 126 167 217 266 324 391
#
# _framework density 21.331568000000001
#
# number of rings (size 3 to 8) (size 9 to 14) (size 15 to 20)
#    0.000    1.600    6.000    1.200    0.000    0.800 
#    0.000    1.000    0.000    2.400    0.000    0.000 
#    0.000    0.000    0.000    0.000    0.000    0.000 
#
# Total GULP energy -111454.678704 kJ/mol
# GULP energy per Si atom -5572.733935 kJ/mol
# Density = 2.128302 g / cm^3
# Si number density = 21.331568 Si / 1000 Ang^3
#
#
#
# Elastic Constant Matrix: (Units=GPa)
#
#
# Indices 1 2 3 4 5 6 
#
# 1 164.9354 14.2810 30.0485 0.0000 0.0000 0.0000
# 2 14.2810 78.5017 11.2576 0.0000 0.0000 0.0000
# 3 30.0485 11.2576 55.2131 0.0000 0.0000 0.0000
# 4 0.0000 0.0000 0.0000 11.6397 0.0000 0.0000
# 5 0.0000 0.0000 0.0000 0.0000 -0.9742 0.0000
# 6 0.0000 0.0000 0.0000 0.0000 0.0000 34.2014
#
#
#
# Elastic Compliance Matrix: (Units=1/GPa)
#
#
# Indices 1 2 3 4 5 6 
#
# 1 0.006770 -0.000724 -0.003537 0.000000 0.000000 0.000000
# 2 -0.000724 0.013200 -0.002297 0.000000 0.000000 0.000000
# 3 -0.003537 -0.002297 0.020505 0.000000 0.000000 0.000000
# 4 0.000000 0.000000 0.000000 0.085913 0.000000 0.000000
# 5 0.000000 0.000000 0.000000 0.000000 -1.026449 0.000000
# 6 0.000000 0.000000 0.000000 0.000000 0.000000 0.029239
#
#
# Mechanical properties :
#
#
# Convention : Reuss Voigt Hill
#
# Bulk Modulus (GPa) = 36.55225 45.53604 41.04414
# Shear Modulus (GPa) = -5.89214 25.17758 9.64272
#
# Velocity S-wave (km/s) = -1.66378 3.43927 2.12843
# Velocity P-wave (km/s) = 3.67173 6.09628 5.03220
#
# Compressibility (1/GPa) = 0.02735810
#
# Stress axis : x y z
#
# Youngs Moduli (GPa) = 147.70969 75.75879 48.76907
#
# Poissons Ratio (x) = 0.05488 0.17248
# Poissons Ratio (y) = 0.10700 0.11203
# Poissons Ratio (z) = 0.52241 0.17403
#
# Static dielectric constant tensor:
#      x y z
#    x 1.903780 0.000000 0.000000 
#    y 0.000000 1.795220 0.000000 
#    z 0.000000 0.000000 1.728760 
# 
# From -- ./inp_files/5135.got.cif
#   From: 2010.05.17/outbox.cif.g08.bks.cpg/sg40_3_cif.got.tgz:5135.got - 2010.06.03 18:35:42.
