data_PCOD9363026
_publ_section_title
;
Structure prediction by ZEFSAII (Michael W. Deem and Ramdas Pophale) SiO2 
 PCOD9363026
Probable space group: A M A 2
;
_chemical_formula_sum "Si O2"
_cell_formula_units_Z 56
_cell_length_a 9.102712
_cell_length_b 15.457745
_cell_length_c 20.094705
_cell_angle_alpha 90.000000
_cell_angle_beta 90.000000
_cell_angle_gamma 90.000000
_cell_volume 2827.473712
_symmetry_space_group_name_H-M "A M A 2"
_symmetry_group_IT_number 40
_symmetry_cell_setting 'orthorhombic'
loop_
_space_group_symop_operation_xyz
x,y,z
-x,-y,z
1/2-x,y,z
1/2+x,-y,z
x,1/2+y,1/2+z
-x,1/2-y,1/2+z
1/2-x,1/2+y,1/2+z
1/2+x,1/2-y,1/2+z
loop_
_atom_site_type_symbol
_atom_site_label
_atom_site_fract_x
_atom_site_fract_y
_atom_site_fract_z
Si Si1 0.581271 0.416115 0.291610
Si Si2 0.908381 0.867884 0.939178
Si Si3 0.083474 0.582491 0.583591
Si Si4 0.574780 0.305123 0.926880
Si Si5 0.928058 0.406228 0.060134
Si Si6 0.426425 0.731971 0.780538
Si Si7 0.925462 0.237998 0.143889
O O1 0.500000 0.500000 0.263684
O O2 0.750000 0.406119 0.267048
O O3 0.588469 0.421747 0.371692
O O4 0.484206 0.330800 0.282926
O O5 0.750000 0.819653 0.938455
O O6 0.030101 0.793919 0.940895
O O7 0.907831 0.925783 0.004032
O O8 0.250000 0.590832 0.609173
O O9 0.000000 0.500000 0.612455
O O10 0.990915 0.669053 0.593104
O O11 0.750000 0.312255 0.926809
O O12 0.527298 0.316181 0.849212
O O13 0.524185 0.366266 0.987791
O O14 0.750000 0.414129 0.059888
O O15 0.965518 0.334151 0.116772
O O16 0.000000 0.500000 0.070744
O O17 0.250000 0.728959 0.775581
O O18 0.504128 0.704600 0.712716
O O19 0.750000 0.234550 0.147355
#
# Coordination Sequence:
#
# PCOD9363026 Si02
#       7
#     8   8   8   8   8   8   8
#     4  10  19  32  50  78 113 148 189 233 285 349
#     4   9  18  31  52  82 114 146 182 229 282 342
#     4  11  22  36  57  86 117 151 191 237 294 355
#     4   9  18  36  59  84 114 151 194 242 298 354
#     4  10  22  39  62  91 121 159 204 254 308 364
#     4  10  21  37  59  82 112 155 198 246 305 365
#     4  11  23  41  61  85 121 160 201 251 306 367
#
# _framework density 19.805667
#
# number of rings (size 3 to 8) (size 9 to 14) (size 15 to 20)
#    0.000    2.000    1.429    2.143    0.000    4.000 
#    0.000    2.143    0.000    1.714    0.000    0.000 
#    0.000    0.000    0.000    0.000    0.000    0.000 
#
# Total GULP energy -155959.833556 kJ/mol
# GULP energy per Si atom -5569.994056 kJ/mol
# Density = 1.976059 g / cm^3
# Si number density = 19.805667 Si / 1000 Ang^3
#
#
#
# Elastic Constant Matrix: (Units=GPa)
#
#
# Indices 1 2 3 4 5 6 
#
# 1 56.0825 21.5857 26.5911 0.0000 0.0000 0.0000
# 2 21.5857 58.7715 -5.5820 0.0000 0.0000 0.0000
# 3 26.5911 -5.5820 73.8215 0.0000 0.0000 0.0000
# 4 0.0000 0.0000 0.0000 4.8583 0.0000 0.0000
# 5 0.0000 0.0000 0.0000 0.0000 33.4129 0.0000
# 6 0.0000 0.0000 0.0000 0.0000 0.0000 26.9526
#
#
#
# Elastic Compliance Matrix: (Units=1/GPa)
#
#
# Indices 1 2 3 4 5 6 
#
# 1 0.027055 -0.010941 -0.010573 0.000000 0.000000 0.000000
# 2 -0.010941 0.021563 0.005571 0.000000 0.000000 0.000000
# 3 -0.010573 0.005571 0.017776 0.000000 0.000000 0.000000
# 4 0.000000 0.000000 0.000000 0.205834 0.000000 0.000000
# 5 0.000000 0.000000 0.000000 0.000000 0.029929 0.000000
# 6 0.000000 0.000000 0.000000 0.000000 0.000000 0.037102
#
#
# Mechanical properties :
#
#
# Convention : Reuss Voigt Hill
#
# Bulk Modulus (GPa) = 28.97791 30.42945 29.70368
# Shear Modulus (GPa) = 13.06693 22.78348 17.92520
#
# Velocity S-wave (km/s) = 2.57136 3.39536 3.01168
# Velocity P-wave (km/s) = 4.84549 5.54695 5.20804
#
# Compressibility (1/GPa) = 0.03450905
#
# Stress axis : x y z
#
# Youngs Moduli (GPa) = 36.96183 46.37645 56.25615
#
# Poissons Ratio (x) = 0.50740 0.59478
# Poissons Ratio (y) = 0.40440 -0.31343
# Poissons Ratio (z) = 0.39079 -0.25839
#
# Static dielectric constant tensor:
#      x y z
#    x 1.706560 0.000000 0.000000 
#    y 0.000000 1.729930 0.000000 
#    z 0.000000 0.000000 1.804220 
# 
# From -- ./inp_files/22129.got.cif
#   From: 2010.05.17/outbox.cif.g08.bks.cpg/sg40_12_cif.got.tgz:22129.got - 2010.06.03 18:35:42.
