data_PCOD9363551
_publ_section_title
;
Structure prediction by ZEFSAII (Michael W. Deem and Ramdas Pophale) SiO2 
 PCOD9363551
Probable space group: A M A 2
;
_chemical_formula_sum "Si O2"
_cell_formula_units_Z 64
_cell_length_a 16.646453
_cell_length_b 12.218666
_cell_length_c 15.038747
_cell_angle_alpha 90.000000
_cell_angle_beta 90.000000
_cell_angle_gamma 90.000000
_cell_volume 3058.842780
_symmetry_space_group_name_H-M "A M A 2"
_symmetry_group_IT_number 40
_symmetry_cell_setting 'orthorhombic'
loop_
_space_group_symop_operation_xyz
x,y,z
-x,-y,z
1/2-x,y,z
1/2+x,-y,z
x,1/2+y,1/2+z
-x,1/2-y,1/2+z
1/2-x,1/2+y,1/2+z
1/2+x,1/2-y,1/2+z
loop_
_atom_site_type_symbol
_atom_site_label
_atom_site_fract_x
_atom_site_fract_y
_atom_site_fract_z
Si Si1 0.099795 0.934166 0.154280
Si Si2 0.152112 0.585623 0.077786
Si Si3 0.657805 0.166839 0.598866
Si Si4 0.339684 0.731293 0.235086
Si Si5 0.922683 0.263813 0.923113
Si Si6 0.107165 0.213870 0.926879
Si Si7 0.571867 0.342521 0.722462
Si Si8 0.590820 0.026469 0.944992
O O1 0.161765 0.839326 0.175020
O O2 0.016084 0.880569 0.188510
O O3 0.121464 0.046910 0.202612
O O4 0.090638 0.960984 0.051218
O O5 0.250000 0.593630 0.072921
O O6 0.115702 0.655806 0.996287
O O7 0.130057 0.457849 0.082130
O O8 0.124077 0.639679 0.170683
O O9 0.750000 0.163623 0.631664
O O10 0.655180 0.224371 0.502723
O O11 0.604612 0.240349 0.665507
O O12 0.250000 0.697109 0.259097
O O13 0.383425 0.756048 0.326968
O O14 0.926599 0.317830 0.826523
O O15 0.013391 0.231041 0.952593
O O16 0.880466 0.144733 0.912165
O O17 0.133795 0.087032 0.923639
O O18 0.500000 0.000000 0.912376
#
# Coordination Sequence:
#
# PCOD9363551 Si02
#       8
#     8   8   8   8   8   8   8   8
#     4  11  20  42  63  92 127 160 216 264 312 381
#     4  10  25  45  64  91 134 175 214 265 318 390
#     4  11  25  44  63  93 132 170 212 264 326 386
#     4  11  24  43  64  90 127 169 212 263 321 383
#     4  11  23  40  66  96 126 167 213 257 321 383
#     4  11  23  41  66  97 122 164 214 267 319 379
#     4  11  23  39  65  94 126 167 205 267 320 371
#     4  10  19  38  64  90 125 157 203 271 307 358
#
# _framework density 20.922944999999999
#
# number of rings (size 3 to 8) (size 9 to 14) (size 15 to 20)
#    0.000    1.250    5.000    1.125    3.500    1.500 
#    0.000    1.250    0.000    0.000    0.000    0.000 
#    0.000    0.000    0.000    0.000    0.000    0.000 
#
# Total GULP energy -178576.698582 kJ/mol
# GULP energy per Si atom -5580.521831 kJ/mol
# Density = 2.087532 g / cm^3
# Si number density = 20.922945 Si / 1000 Ang^3
#
#
#
# Elastic Constant Matrix: (Units=GPa)
#
#
# Indices 1 2 3 4 5 6 
#
# 1 38.5026 21.2767 11.3623 0.0000 0.0000 0.0000
# 2 21.2767 122.2799 -0.9511 0.0000 0.0000 0.0000
# 3 11.3623 -0.9511 59.9862 0.0000 0.0000 0.0000
# 4 0.0000 0.0000 0.0000 36.0051 0.0000 0.0000
# 5 0.0000 0.0000 0.0000 0.0000 11.3272 0.0000
# 6 0.0000 0.0000 0.0000 0.0000 0.0000 21.4696
#
#
#
# Elastic Compliance Matrix: (Units=1/GPa)
#
#
# Indices 1 2 3 4 5 6 
#
# 1 0.030689 -0.005386 -0.005898 0.000000 0.000000 0.000000
# 2 -0.005386 0.009124 0.001165 0.000000 0.000000 0.000000
# 3 -0.005898 0.001165 0.017806 0.000000 0.000000 0.000000
# 4 0.000000 0.000000 0.000000 0.027774 0.000000 0.000000
# 5 0.000000 0.000000 0.000000 0.000000 0.088283 0.000000
# 6 0.000000 0.000000 0.000000 0.000000 0.000000 0.046578
#
#
# Mechanical properties :
#
#
# Convention : Reuss Voigt Hill
#
# Bulk Modulus (GPa) = 26.75173 31.57161 29.16167
# Shear Modulus (GPa) = 19.76651 26.36575 23.06613
#
# Velocity S-wave (km/s) = 3.07698 3.55369 3.32389
# Velocity P-wave (km/s) = 5.04354 5.65336 5.35714
#
# Compressibility (1/GPa) = 0.03738076
#
# Stress axis : x y z
#
# Youngs Moduli (GPa) = 32.58484 109.59927 56.16021
#
# Poissons Ratio (x) = 0.59028 0.33125
# Poissons Ratio (y) = 0.17549 -0.06542
# Poissons Ratio (z) = 0.19220 -0.12766
#
# Static dielectric constant tensor:
#      x y z
#    x 1.833680 0.000000 0.000000 
#    y 0.000000 1.789070 0.000000 
#    z 0.000000 0.000000 1.702520 
# 
# From -- ./inp_files/17882.got.cif
#   From: 2010.05.17/outbox.cif.g08.bks.cpg/sg40_9_cif.got.tgz:17882.got - 2010.06.03 18:35:42.
