data_PCOD9363450
_publ_section_title
;
Structure prediction by ZEFSAII (Michael W. Deem and Ramdas Pophale) SiO2 
 PCOD9363450
Probable space group: A M A 2
;
_chemical_formula_sum "Si O2"
_cell_formula_units_Z 64
_cell_length_a 17.504678
_cell_length_b 16.513869
_cell_length_c 12.204622
_cell_angle_alpha 90.000000
_cell_angle_beta 90.000000
_cell_angle_gamma 90.000000
_cell_volume 3527.989586
_symmetry_space_group_name_H-M "A M A 2"
_symmetry_group_IT_number 40
_symmetry_cell_setting 'orthorhombic'
loop_
_space_group_symop_operation_xyz
x,y,z
-x,-y,z
1/2-x,y,z
1/2+x,-y,z
x,1/2+y,1/2+z
-x,1/2-y,1/2+z
1/2-x,1/2+y,1/2+z
1/2+x,1/2-y,1/2+z
loop_
_atom_site_type_symbol
_atom_site_label
_atom_site_fract_x
_atom_site_fract_y
_atom_site_fract_z
Si Si1 0.415332 0.864539 0.242160
Si Si2 0.081250 0.297372 0.104915
Si Si3 0.910887 0.016442 0.562055
Si Si4 0.591659 0.258023 0.059705
Si Si5 0.086394 0.690966 0.810283
Si Si6 0.839392 0.479614 0.828315
Si Si7 0.840403 0.767179 0.893826
Si Si8 0.161806 0.613462 0.207911
O O1 0.406034 0.829312 0.119109
O O2 0.500414 0.843279 0.286567
O O3 0.360191 0.810639 0.319231
O O4 0.390923 0.956852 0.259945
O O5 0.104011 0.390018 0.087974
O O6 0.104254 0.257324 0.218719
O O7 0.989713 0.294399 0.097208
O O8 0.114854 0.244119 0.006095
O O9 0.862552 0.992185 0.455365
O O10 0.887103 0.960628 0.663642
O O11 0.000000 0.000000 0.536542
O O12 0.653832 0.315607 0.116870
O O13 0.593078 0.268339 0.929726
O O14 0.140285 0.612904 0.801678
O O15 0.750000 0.496151 0.811849
O O16 0.750000 0.771223 0.912518
O O17 0.864241 0.844592 0.820949
O O18 0.250000 0.589891 0.218380
#
# Coordination Sequence:
#
# PCOD9363450 Si02
#       8
#     8   8   8   8   8   8   8   8
#     4  10  20  35  60  85 114 152 200 238 288 345
#     4  11  22  36  60  89 119 155 189 241 296 352
#     4  12  21  35  58  88 118 149 195 248 296 342
#     4  10  19  36  59  86 116 151 191 241 290 349
#     4  11  22  38  60  87 121 152 191 243 299 348
#     4  12  23  37  57  86 117 155 200 246 292 344
#     4  10  20  36  57  84 117 153 195 236 286 348
#     4  10  21  36  57  84 114 152 195 240 286 343
#
# _framework density 18.140644000000002
#
# number of rings (size 3 to 8) (size 9 to 14) (size 15 to 20)
#    0.000    1.250    5.000    1.875    0.000    1.500 
#    0.000    1.250    0.000    0.000    0.000    0.000 
#    0.000    0.000    0.000    0.000    0.000    0.000 
#
# Total GULP energy -178637.409016 kJ/mol
# GULP energy per Si atom -5582.419032 kJ/mol
# Density = 1.809935 g / cm^3
# Si number density = 18.140644 Si / 1000 Ang^3
#
#
#
# Elastic Constant Matrix: (Units=GPa)
#
#
# Indices 1 2 3 4 5 6 
#
# 1 52.0004 5.3297 10.4426 0.0000 0.0000 0.0000
# 2 5.3297 65.0108 40.2610 0.0000 0.0000 0.0000
# 3 10.4426 40.2610 100.4141 0.0000 0.0000 0.0000
# 4 0.0000 0.0000 0.0000 30.7067 0.0000 0.0000
# 5 0.0000 0.0000 0.0000 0.0000 -4.0814 0.0000
# 6 0.0000 0.0000 0.0000 0.0000 0.0000 19.5585
#
#
#
# Elastic Compliance Matrix: (Units=1/GPa)
#
#
# Indices 1 2 3 4 5 6 
#
# 1 0.019651 -0.000460 -0.001859 0.000000 0.000000 0.000000
# 2 -0.000460 0.020474 -0.008161 0.000000 0.000000 0.000000
# 3 -0.001859 -0.008161 0.013424 0.000000 0.000000 0.000000
# 4 0.000000 0.000000 0.000000 0.032566 0.000000 0.000000
# 5 0.000000 0.000000 0.000000 0.000000 -0.245012 0.000000
# 6 0.000000 0.000000 0.000000 0.000000 0.000000 0.051129
#
#
# Mechanical properties :
#
#
# Convention : Reuss Voigt Hill
#
# Bulk Modulus (GPa) = 30.68505 36.61022 33.64764
# Shear Modulus (GPa) = -65.83754 19.99623 -22.92066
#
# Velocity S-wave (km/s) = -6.03089 3.32368 -3.55843
# Velocity P-wave (km/s) = 5.61638 5.91221 1.30586
#
# Compressibility (1/GPa) = 0.03258916
#
# Stress axis : x y z
#
# Youngs Moduli (GPa) = 50.88772 48.84248 74.49136
#
# Poissons Ratio (x) = 0.02244 0.13851
# Poissons Ratio (y) = 0.02338 0.60794
# Poissons Ratio (z) = 0.09462 0.39862
#
# Static dielectric constant tensor:
#      x y z
#    x 1.626990 0.000000 0.000000 
#    y 0.000000 1.624630 0.000000 
#    z 0.000000 0.000000 1.613920 
# 
# From -- ./inp_files/13169.got.cif
#   From: 2010.05.17/outbox.cif.g08.bks.cpg/sg40_7_cif.got.tgz:13169.got - 2010.06.03 18:35:42.
