data_PCOD9363270
_publ_section_title
;
Structure prediction by ZEFSAII (Michael W. Deem and Ramdas Pophale) SiO2 
 PCOD9363270
Probable space group: A M A 2
;
_chemical_formula_sum "Si O2"
_cell_formula_units_Z 56
_cell_length_a 8.501189
_cell_length_b 19.545471
_cell_length_c 18.163485
_cell_angle_alpha 90.000000
_cell_angle_beta 90.000000
_cell_angle_gamma 90.000000
_cell_volume 3018.040001
_symmetry_space_group_name_H-M "A M A 2"
_symmetry_group_IT_number 40
_symmetry_cell_setting 'orthorhombic'
loop_
_space_group_symop_operation_xyz
x,y,z
-x,-y,z
1/2-x,y,z
1/2+x,-y,z
x,1/2+y,1/2+z
-x,1/2-y,1/2+z
1/2-x,1/2+y,1/2+z
1/2+x,1/2-y,1/2+z
loop_
_atom_site_type_symbol
_atom_site_label
_atom_site_fract_x
_atom_site_fract_y
_atom_site_fract_z
Si Si1 0.437930 0.076950 0.490070
Si Si2 0.063879 0.667979 0.852613
Si Si3 0.066416 0.205720 0.934960
Si Si4 0.933584 0.193457 0.194847
Si Si5 0.938846 0.207948 0.577847
Si Si6 0.434121 0.433025 0.440353
Si Si7 0.935564 0.927951 0.103699
O O1 0.250000 0.076202 0.496969
O O2 0.476841 0.104855 0.407214
O O3 0.502715 0.134541 0.547087
O O4 0.500000 0.000000 0.501180
O O5 0.250000 0.680625 0.863141
O O6 0.962957 0.731313 0.881588
O O7 0.025834 0.666714 0.766639
O O8 0.250000 0.187789 0.938977
O O9 0.016171 0.236577 0.014306
O O10 0.968622 0.140898 0.907292
O O11 0.750000 0.200685 0.211644
O O12 0.995008 0.262525 0.154629
O O13 0.964893 0.133166 0.136925
O O14 0.750000 0.206719 0.581429
O O15 0.500000 0.500000 0.399617
O O16 0.250000 0.441364 0.455277
O O17 0.531677 0.429405 0.516513
O O18 0.750000 0.919326 0.117290
O O19 0.000000 0.000000 0.133470
#
# Coordination Sequence:
#
# PCOD9363270 Si02
#       7
#     8   8   8   8   8   8   8
#     4  10  21  38  61  87 116 150 193 241 291 346
#     4  10  22  38  56  80 112 149 189 233 284 340
#     4  10  19  34  55  79 107 140 182 230 277 329
#     4  12  23  36  55  81 114 151 191 233 283 340
#     4  10  20  35  58  83 111 146 188 236 285 335
#     4  11  20  31  50  76 106 139 176 219 266 316
#     4  11  21  34  50  74 107 143 180 220 266 318
#
# _framework density 18.55509
#
# number of rings (size 3 to 8) (size 9 to 14) (size 15 to 20)
#    0.000    1.429    1.429    6.429    0.000    3.429 
#    0.000    1.429    0.000    0.857    0.000    6.000 
#    0.000    0.000    0.000    0.000    0.000    0.000 
#
# Total GULP energy -156167.286407 kJ/mol
# GULP energy per Si atom -5577.403086 kJ/mol
# Density = 1.851286 g / cm^3
# Si number density = 18.555090 Si / 1000 Ang^3
#
#
#
# Elastic Constant Matrix: (Units=GPa)
#
#
# Indices 1 2 3 4 5 6 
#
# 1 84.6658 33.2700 1.0574 0.0000 0.0000 0.0000
# 2 33.2700 130.3546 12.9568 0.0000 0.0000 0.0000
# 3 1.0574 12.9568 29.9779 0.0000 0.0000 0.0000
# 4 0.0000 0.0000 0.0000 11.3922 0.0000 0.0000
# 5 0.0000 0.0000 0.0000 0.0000 25.6358 0.0000
# 6 0.0000 0.0000 0.0000 0.0000 0.0000 31.5588
#
#
#
# Elastic Compliance Matrix: (Units=1/GPa)
#
#
# Indices 1 2 3 4 5 6 
#
# 1 0.013158 -0.003461 0.001032 0.000000 0.000000 0.000000
# 2 -0.003461 0.008926 -0.003736 0.000000 0.000000 0.000000
# 3 0.001032 -0.003736 0.034936 0.000000 0.000000 0.000000
# 4 0.000000 0.000000 0.000000 0.087779 0.000000 0.000000
# 5 0.000000 0.000000 0.000000 0.000000 0.039008 0.000000
# 6 0.000000 0.000000 0.000000 0.000000 0.000000 0.031687
#
#
# Mechanical properties :
#
#
# Convention : Reuss Voigt Hill
#
# Bulk Modulus (GPa) = 22.37621 37.72965 30.05293
# Shear Modulus (GPa) = 20.59977 26.89832 23.74904
#
# Velocity S-wave (km/s) = 3.33557 3.81155 3.58148
# Velocity P-wave (km/s) = 5.18847 6.30465 5.77360
#
# Compressibility (1/GPa) = 0.04469033
#
# Stress axis : x y z
#
# Youngs Moduli (GPa) = 75.99809 112.03198 28.62364
#
# Poissons Ratio (x) = 0.38773 -0.02953
# Poissons Ratio (y) = 0.26302 0.10693
# Poissons Ratio (z) = -0.07841 0.41854
#
# Static dielectric constant tensor:
#      x y z
#    x 1.611410 0.000000 0.000000 
#    y 0.000000 1.684290 0.000000 
#    z 0.000000 0.000000 1.669600 
# 
# From -- ./inp_files/22296.got.cif
#   From: 2010.05.17/outbox.cif.g08.bks.cpg/sg40_12_cif.got.tgz:22296.got - 2010.06.03 18:35:42.
