data_PCOD9363389
_publ_section_title
;
Structure prediction by ZEFSAII (Michael W. Deem and Ramdas Pophale) SiO2 
 PCOD9363389
Probable space group: A M A 2
;
_chemical_formula_sum "Si O2"
_cell_formula_units_Z 48
_cell_length_a 8.555992
_cell_length_b 31.663883
_cell_length_c 9.313487
_cell_angle_alpha 90.000000
_cell_angle_beta 90.000000
_cell_angle_gamma 90.000000
_cell_volume 2523.171989
_symmetry_space_group_name_H-M "A M A 2"
_symmetry_group_IT_number 40
_symmetry_cell_setting 'orthorhombic'
loop_
_space_group_symop_operation_xyz
x,y,z
-x,-y,z
1/2-x,y,z
1/2+x,-y,z
x,1/2+y,1/2+z
-x,1/2-y,1/2+z
1/2-x,1/2+y,1/2+z
1/2+x,1/2-y,1/2+z
loop_
_atom_site_type_symbol
_atom_site_label
_atom_site_fract_x
_atom_site_fract_y
_atom_site_fract_z
Si Si1 0.939144 0.290143 0.588420
Si Si2 0.437394 0.793320 0.411423
Si Si3 0.937763 0.874501 0.578816
Si Si4 0.559704 0.372221 0.409168
Si Si5 0.437923 0.545768 0.585991
Si Si6 0.936390 0.045752 0.408520
O O1 0.750000 0.291042 0.597080
O O2 0.984823 0.248318 0.500613
O O3 0.990930 0.331877 0.501981
O O4 0.006276 0.289828 0.748037
O O5 0.250000 0.796098 0.413976
O O6 0.507524 0.834630 0.486140
O O7 0.750000 0.876714 0.575802
O O8 0.990116 0.869496 0.743967
O O9 0.005416 0.917029 0.510314
O O10 0.750000 0.371849 0.409434
O O11 0.511062 0.415875 0.484244
O O12 0.500000 0.500000 0.538679
O O13 0.250000 0.544571 0.590127
O O14 0.499231 0.553181 0.747430
O O15 0.750000 0.044580 0.403432
O O16 0.000000 0.000000 0.455193
#
# Coordination Sequence:
#
# PCOD9363389 Si02
#       6
#     8   8   8   8   8   8
#     4  10  21  39  61  84 114 152 192 236 288 343
#     4  11  23  38  59  89 118 148 192 240 286 341
#     4  11  22  39  60  83 116 156 192 233 287 341
#     4   9  20  37  58  82 110 149 194 235 282 342
#     4  10  19  35  58  84 113 149 192 237 289 344
#     4  11  22  38  59  86 116 150 194 239 286 341
#
# _framework density 19.023672000000001
#
# number of rings (size 3 to 8) (size 9 to 14) (size 15 to 20)
#    0.000    1.667    0.000    6.000    0.000    4.667 
#    0.000    7.500    0.000    0.000    0.000    0.000 
#    0.000    0.000    0.000    0.000    0.000    0.000 
#
# Total GULP energy -134165.316684 kJ/mol
# GULP energy per Si atom -5590.221529 kJ/mol
# Density = 1.898037 g / cm^3
# Si number density = 19.023672 Si / 1000 Ang^3
#
#
#
# Elastic Constant Matrix: (Units=GPa)
#
#
# Indices 1 2 3 4 5 6 
#
# 1 68.7965 52.8795 46.4553 0.0000 0.0000 0.0000
# 2 52.8795 181.0555 121.2026 0.0000 0.0000 0.0000
# 3 46.4553 121.2026 165.3202 0.0000 0.0000 0.0000
# 4 0.0000 0.0000 0.0000 42.4743 0.0000 0.0000
# 5 0.0000 0.0000 0.0000 0.0000 18.9093 0.0000
# 6 0.0000 0.0000 0.0000 0.0000 0.0000 27.5953
#
#
#
# Elastic Compliance Matrix: (Units=1/GPa)
#
#
# Indices 1 2 3 4 5 6 
#
# 1 0.019268 -0.003933 -0.002531 0.000000 0.000000 0.000000
# 2 -0.003933 0.011649 -0.007435 0.000000 0.000000 0.000000
# 3 -0.002531 -0.007435 0.012211 0.000000 0.000000 0.000000
# 4 0.000000 0.000000 0.000000 0.023544 0.000000 0.000000
# 5 0.000000 0.000000 0.000000 0.000000 0.052884 0.000000
# 6 0.000000 0.000000 0.000000 0.000000 0.000000 0.036238
#
#
# Mechanical properties :
#
#
# Convention : Reuss Voigt Hill
#
# Bulk Modulus (GPa) = 65.23296 95.13855 80.18575
# Shear Modulus (GPa) = 26.49683 30.77146 28.63414
#
# Velocity S-wave (km/s) = 3.73612 4.02622 3.88388
# Velocity P-wave (km/s) = 7.27848 8.46954 7.89650
#
# Compressibility (1/GPa) = 0.01532967
#
# Stress axis : x y z
#
# Youngs Moduli (GPa) = 51.90027 85.84230 81.89325
#
# Poissons Ratio (x) = 0.33765 0.20724
# Poissons Ratio (y) = 0.20414 0.60890
# Poissons Ratio (z) = 0.13134 0.63826
#
# Static dielectric constant tensor:
#      x y z
#    x 1.649900 0.000000 0.000000 
#    y 0.000000 1.640230 0.000000 
#    z 0.000000 0.000000 1.626790 
# 
# From -- ./inp_files/4592.got.cif
#   From: 2010.05.17/outbox.cif.g08.bks.cpg/sg40_3_cif.got.tgz:4592.got - 2010.06.03 18:35:42.
