data_PCOD9363399
_publ_section_title
;
Structure prediction by ZEFSAII (Michael W. Deem and Ramdas Pophale) SiO2 
 PCOD9363399
Probable space group: A M A 2
;
_chemical_formula_sum "Si O2"
_cell_formula_units_Z 64
_cell_length_a 7.759862
_cell_length_b 32.183582
_cell_length_c 12.217949
_cell_angle_alpha 90.000000
_cell_angle_beta 90.000000
_cell_angle_gamma 90.000000
_cell_volume 3051.312477
_symmetry_space_group_name_H-M "A M A 2"
_symmetry_group_IT_number 40
_symmetry_cell_setting 'orthorhombic'
loop_
_space_group_symop_operation_xyz
x,y,z
-x,-y,z
1/2-x,y,z
1/2+x,-y,z
x,1/2+y,1/2+z
-x,1/2-y,1/2+z
1/2-x,1/2+y,1/2+z
1/2+x,1/2-y,1/2+z
loop_
_atom_site_type_symbol
_atom_site_label
_atom_site_fract_x
_atom_site_fract_y
_atom_site_fract_z
Si Si1 0.958702 0.333815 0.738330
Si Si2 0.543102 0.429124 0.744301
Si Si3 0.453405 0.294301 0.509776
Si Si4 0.046543 0.954649 0.004045
Si Si5 0.958221 0.375000 0.123301
Si Si6 0.460949 0.701274 0.973967
Si Si7 0.542830 0.954002 0.482981
Si Si8 0.042939 0.873620 0.878235
O O1 0.750000 0.333850 0.734153
O O2 0.018170 0.381559 0.734360
O O3 0.010575 0.313815 0.853176
O O4 0.024559 0.309079 0.633992
O O5 0.750000 0.428022 0.752486
O O6 0.500543 0.451836 0.631899
O O7 0.477562 0.448483 0.857944
O O8 0.250000 0.291334 0.484790
O O9 0.524241 0.247960 0.494573
O O10 0.525511 0.331173 0.433283
O O11 0.250000 0.951423 0.997026
O O12 0.973108 0.914689 0.939985
O O13 0.000000 0.000000 0.959544
O O14 0.750000 0.375190 0.117478
O O15 0.007895 0.375476 0.249763
O O16 0.018228 0.333212 0.061669
O O17 0.019902 0.415985 0.058098
O O18 0.250000 0.701435 0.978029
O O19 0.750000 0.950752 0.479862
O O20 0.500000 0.000000 0.523712
O O21 0.250000 0.873168 0.893642
#
# Coordination Sequence:
#
# PCOD9363399 Si02
#       8
#     8   8   8   8   8   8   8   8
#     4  10  19  35  61  87 113 148 189 229 275 332
#     4  10  19  35  59  86 116 146 182 228 279 334
#     4  10  21  38  58  83 117 151 184 228 284 333
#     4  11  23  39  58  82 114 148 187 230 280 334
#     4  10  21  39  60  81 109 148 191 230 271 330
#     4   9  19  37  60  84 114 151 185 227 282 333
#     4  10  21  37  57  83 113 144 182 228 279 331
#     4  10  23  40  56  80 115 149 182 230 284 329
#
# _framework density 20.974581000000001
#
# number of rings (size 3 to 8) (size 9 to 14) (size 15 to 20)
#    0.000    2.000    2.500    0.750    1.750    4.000 
#    0.000    3.750    0.000    0.000    0.000    0.000 
#    0.000    0.000    0.000    0.000    0.000    0.000 
#
# Total GULP energy -178752.139280 kJ/mol
# GULP energy per Si atom -5586.004353 kJ/mol
# Density = 2.092684 g / cm^3
# Si number density = 20.974581 Si / 1000 Ang^3
#
#
#
# Elastic Constant Matrix: (Units=GPa)
#
#
# Indices 1 2 3 4 5 6 
#
# 1 27.4515 9.3072 -5.7425 0.0000 0.0000 0.0000
# 2 9.3072 219.7421 94.1645 0.0000 0.0000 0.0000
# 3 -5.7425 94.1645 141.2634 0.0000 0.0000 0.0000
# 4 0.0000 0.0000 0.0000 -364.5112 0.0000 0.0000
# 5 0.0000 0.0000 0.0000 0.0000 27.6642 0.0000
# 6 0.0000 0.0000 0.0000 0.0000 0.0000 16.7256
#
#
#
# Elastic Compliance Matrix: (Units=1/GPa)
#
#
# Indices 1 2 3 4 5 6 
#
# 1 0.038286 -0.003204 0.003692 0.000000 0.000000 0.000000
# 2 -0.003204 0.006639 -0.004555 0.000000 0.000000 0.000000
# 3 0.003692 -0.004555 0.010266 0.000000 0.000000 0.000000
# 4 0.000000 0.000000 0.000000 -0.002743 0.000000 0.000000
# 5 0.000000 0.000000 0.000000 0.000000 0.036148 0.000000
# 6 0.000000 0.000000 0.000000 0.000000 0.000000 0.059789
#
#
# Mechanical properties :
#
#
# Convention : Reuss Voigt Hill
#
# Bulk Modulus (GPa) = 21.25118 64.87948 43.06533
# Shear Modulus (GPa) = 29.03541 -44.64243 -7.80351
#
# Velocity S-wave (km/s) = 3.72467 -4.61847 -1.93094
# Velocity P-wave (km/s) = 5.35271 1.59976 3.95036
#
# Compressibility (1/GPa) = 0.04705620
#
# Stress axis : x y z
#
# Youngs Moduli (GPa) = 26.11896 150.63436 97.41218
#
# Poissons Ratio (x) = 0.48259 -0.35964
# Poissons Ratio (y) = 0.08368 0.44376
# Poissons Ratio (z) = -0.09643 0.68621
#
# Static dielectric constant tensor:
#      x y z
#    x 1.781400 0.000000 0.000000 
#    y 0.000000 1.766690 0.000000 
#    z 0.000000 0.000000 1.708160 
# 
# From -- ./inp_files/10557.got.cif
#   From: 2010.05.17/outbox.cif.g08.bks.cpg/sg40_6_cif.got.tgz:10557.got - 2010.06.03 18:35:42.
