data_PCOD9363889
_publ_section_title
;
Structure prediction by ZEFSAII (Michael W. Deem and Ramdas Pophale) SiO2 
 PCOD9363889
Probable space group: A M A 2
;
_chemical_formula_sum "Si O2"
_cell_formula_units_Z 64
_cell_length_a 22.724315
_cell_length_b 17.486246
_cell_length_c 8.999087
_cell_angle_alpha 90.000000
_cell_angle_beta 90.000000
_cell_angle_gamma 90.000000
_cell_volume 3575.903868
_symmetry_space_group_name_H-M "A M A 2"
_symmetry_group_IT_number 40
_symmetry_cell_setting 'orthorhombic'
loop_
_space_group_symop_operation_xyz
x,y,z
-x,-y,z
1/2-x,y,z
1/2+x,-y,z
x,1/2+y,1/2+z
-x,1/2-y,1/2+z
1/2-x,1/2+y,1/2+z
1/2+x,1/2-y,1/2+z
loop_
_atom_site_type_symbol
_atom_site_label
_atom_site_fract_x
_atom_site_fract_y
_atom_site_fract_z
Si Si1 0.618381 0.562153 0.416360
Si Si2 0.683221 0.986211 0.648052
Si Si3 0.965695 0.808568 0.258518
Si Si4 0.566213 0.967264 0.167577
Si Si5 0.105306 0.814926 0.170140
Si Si6 0.118186 0.424506 0.918403
Si Si7 0.909938 0.852153 0.583014
Si Si8 0.464043 0.868365 0.682592
O O1 0.666482 0.530728 0.300598
O O2 0.604000 0.496147 0.531411
O O3 0.623167 0.636919 0.523222
O O4 0.563178 0.582256 0.313308
O O5 0.750000 0.959327 0.653343
O O6 0.671731 0.047000 0.517259
O O7 0.638140 0.918338 0.602197
O O8 0.934873 0.876315 0.169069
O O9 0.941805 0.827219 0.425690
O O10 0.951723 0.721622 0.213716
O O11 0.035296 0.819594 0.217434
O O12 0.500000 0.000000 0.154788
O O13 0.592243 0.006877 0.316396
O O14 0.135453 0.856719 0.307871
O O15 0.116741 0.726406 0.144916
O O16 0.067591 0.395949 0.031837
O O17 0.966502 0.878436 0.676088
#
# Coordination Sequence:
#
# PCOD9363889 Si02
#       8
#     8   8   8   8   8   8   8   8
#     4  10  22  36  56  85 121 149 194 238 297 342
#     4  11  26  43  59  78 111 158 216 256 284 331
#     4  11  19  32  55  91 135 146 177 219 299 373
#     4  11  19  32  56  90 124 148 180 228 291 364
#     4  10  20  35  58  94 122 151 183 228 297 371
#     4  10  20  37  60  84 118 152 195 233 289 351
#     4  11  21  35  59  89 126 156 183 239 301 352
#     4  10  21  32  55  89 123 153 177 228 301 373
#
# _framework density 17.897573000000001
#
# number of rings (size 3 to 8) (size 9 to 14) (size 15 to 20)
#    0.000    1.500    6.250    0.000    1.750    2.000 
#    0.000    3.750    0.000    0.000    0.000    0.000 
#    0.000    0.000    0.000    0.000    0.000    0.000 
#
# Total GULP energy -178275.368459 kJ/mol
# GULP energy per Si atom -5571.105264 kJ/mol
# Density = 1.785684 g / cm^3
# Si number density = 17.897573 Si / 1000 Ang^3
#
#
#
# Elastic Constant Matrix: (Units=GPa)
#
#
# Indices 1 2 3 4 5 6 
#
# 1 61.4507 36.2083 29.1998 0.0000 0.0000 0.0000
# 2 36.2083 95.1464 34.6809 0.0000 0.0000 0.0000
# 3 29.1998 34.6809 98.9083 0.0000 0.0000 0.0000
# 4 0.0000 0.0000 0.0000 13.5960 0.0000 0.0000
# 5 0.0000 0.0000 0.0000 0.0000 4.9312 0.0000
# 6 0.0000 0.0000 0.0000 0.0000 0.0000 10.3086
#
#
#
# Elastic Compliance Matrix: (Units=1/GPa)
#
#
# Indices 1 2 3 4 5 6 
#
# 1 0.022370 -0.007000 -0.004149 0.000000 0.000000 0.000000
# 2 -0.007000 0.014241 -0.002927 0.000000 0.000000 0.000000
# 3 -0.004149 -0.002927 0.012362 0.000000 0.000000 0.000000
# 4 0.000000 0.000000 0.000000 0.073551 0.000000 0.000000
# 5 0.000000 0.000000 0.000000 0.000000 0.202789 0.000000
# 6 0.000000 0.000000 0.000000 0.000000 0.000000 0.097007
#
#
# Mechanical properties :
#
#
# Convention : Reuss Voigt Hill
#
# Bulk Modulus (GPa) = 48.03273 50.63150 49.33211
# Shear Modulus (GPa) = 10.93107 16.12825 13.52966
#
# Velocity S-wave (km/s) = 2.47403 3.00516 2.75244
# Velocity P-wave (km/s) = 5.92089 6.35549 6.14204
#
# Compressibility (1/GPa) = 0.02081914
#
# Stress axis : x y z
#
# Youngs Moduli (GPa) = 44.70332 70.22005 80.89575
#
# Poissons Ratio (x) = 0.49157 0.33567
# Poissons Ratio (y) = 0.31294 0.23676
# Poissons Ratio (z) = 0.18549 0.20552
#
# Static dielectric constant tensor:
#      x y z
#    x 1.583780 0.000000 0.000000 
#    y 0.000000 1.625840 0.000000 
#    z 0.000000 0.000000 1.672940 
# 
# From -- ./inp_files/8484.got.cif
#   From: 2010.05.17/outbox.cif.g08.bks.cpg/sg40_5_cif.got.tgz:8484.got - 2010.06.03 18:35:42.
