data_PCOD9363402
_publ_section_title
;
Structure prediction by ZEFSAII (Michael W. Deem and Ramdas Pophale) SiO2 
 PCOD9363402
Probable space group: A M A 2
;
_chemical_formula_sum "Si O2"
_cell_formula_units_Z 44
_cell_length_a 23.628953
_cell_length_b 10.013211
_cell_length_c 10.243457
_cell_angle_alpha 90.000000
_cell_angle_beta 90.000000
_cell_angle_gamma 90.000000
_cell_volume 2423.619259
_symmetry_space_group_name_H-M "A M A 2"
_symmetry_group_IT_number 40
_symmetry_cell_setting 'orthorhombic'
loop_
_space_group_symop_operation_xyz
x,y,z
-x,-y,z
1/2-x,y,z
1/2+x,-y,z
x,1/2+y,1/2+z
-x,1/2-y,1/2+z
1/2-x,1/2+y,1/2+z
1/2+x,1/2-y,1/2+z
loop_
_atom_site_type_symbol
_atom_site_label
_atom_site_fract_x
_atom_site_fract_y
_atom_site_fract_z
Si Si1 0.567304 0.502094 0.266910
Si Si2 0.750000 0.108718 0.574992
Si Si3 0.750000 0.621209 0.372826
Si Si4 0.750000 0.804503 0.834742
Si Si5 0.372636 0.802798 0.970409
Si Si6 0.373343 0.281489 0.765385
Si Si7 0.128296 0.992117 0.496828
O O1 0.500000 0.500000 0.271460
O O2 0.592533 0.606538 0.370328
O O3 0.592266 0.354085 0.293570
O O4 0.589481 0.538493 0.121985
O O5 0.750000 0.165013 0.721268
O O6 0.750000 0.229085 0.472773
O O7 0.806816 0.024997 0.546575
O O8 0.750000 0.461241 0.359867
O O9 0.693284 0.668028 0.442953
O O10 0.692840 0.760366 0.763271
O O11 0.387711 0.833303 0.120954
O O12 0.381990 0.644314 0.953958
O O13 0.381148 0.390150 0.878363
#
# Coordination Sequence:
#
# PCOD9363402 Si02
#       7
#     8   4   4   4   8   8   8
#     4  11  24  42  61  84 116 159 208 250 291 344
#     4  10  19  35  61  92 120 156 189 233 299 368
#     4  12  18  34  62  90 122 156 190 236 296 362
#     4  10  19  35  59  88 122 154 185 237 299 360
#     4  11  22  36  62  92 116 155 196 240 298 356
#     4  10  22  40  60  88 122 154 191 245 303 355
#     4  10  22  41  62  89 123 155 195 244 298 358
#
# _framework density 18.154667
#
# number of rings (size 3 to 8) (size 9 to 14) (size 15 to 20)
#    0.000    1.455    3.636    2.182    0.000    5.818 
#    0.000    0.909    0.000    0.000    0.000    0.000 
#    0.000    0.000    0.000    0.000    0.000    0.000 
#
# Total GULP energy -122897.923306 kJ/mol
# GULP energy per Si atom -5586.269241 kJ/mol
# Density = 1.811335 g / cm^3
# Si number density = 18.154667 Si / 1000 Ang^3
#
#
#
# Elastic Constant Matrix: (Units=GPa)
#
#
# Indices 1 2 3 4 5 6 
#
# 1 135.6085 44.3205 57.1567 0.0000 0.0000 0.0000
# 2 44.3205 77.1016 89.1110 0.0000 0.0000 0.0000
# 3 57.1567 89.1110 139.5559 0.0000 0.0000 0.0000
# 4 0.0000 0.0000 0.0000 36.0607 0.0000 0.0000
# 5 0.0000 0.0000 0.0000 0.0000 0.5102 0.0000
# 6 0.0000 0.0000 0.0000 0.0000 0.0000 -2.6119
#
#
#
# Elastic Compliance Matrix: (Units=1/GPa)
#
#
# Indices 1 2 3 4 5 6 
#
# 1 0.009160 -0.003548 -0.001486 0.000000 0.000000 0.000000
# 2 -0.003548 0.050876 -0.031033 0.000000 0.000000 0.000000
# 3 -0.001486 -0.031033 0.027590 0.000000 0.000000 0.000000
# 4 0.000000 0.000000 0.000000 0.027731 0.000000 0.000000
# 5 0.000000 0.000000 0.000000 0.000000 1.960109 0.000000
# 6 0.000000 0.000000 0.000000 0.000000 0.000000 -0.382866
#
#
# Mechanical properties :
#
#
# Convention : Reuss Voigt Hill
#
# Bulk Modulus (GPa) = 64.54958 81.49362 73.02160
# Shear Modulus (GPa) = 2.82502 17.57031 10.19767
#
# Velocity S-wave (km/s) = 1.24878 3.11434 2.37261
# Velocity P-wave (km/s) = 6.14100 7.61040 6.91484
#
# Compressibility (1/GPa) = 0.01549197
#
# Stress axis : x y z
#
# Youngs Moduli (GPa) = 109.16895 19.65569 36.24525
#
# Poissons Ratio (x) = 0.06973 0.05387
# Poissons Ratio (y) = 0.38731 1.12479
# Poissons Ratio (z) = 0.16225 0.60997
#
# Static dielectric constant tensor:
#      x y z
#    x 1.608940 0.000000 0.000000 
#    y 0.000000 1.602680 0.000000 
#    z 0.000000 0.000000 1.626290 
# 
# From -- ./inp_files/8688.got.cif
#   From: 2010.05.17/outbox.cif.g08.bks.cpg/sg40_5_cif.got.tgz:8688.got - 2010.06.03 18:35:42.
