data_PCOD9363667
_publ_section_title
;
Structure prediction by ZEFSAII (Michael W. Deem and Ramdas Pophale) SiO2 
 PCOD9363667
Probable space group: A M A 2
;
_chemical_formula_sum "Si O2"
_cell_formula_units_Z 48
_cell_length_a 8.641312
_cell_length_b 9.509264
_cell_length_c 32.183257
_cell_angle_alpha 90.000000
_cell_angle_beta 90.000000
_cell_angle_gamma 90.000000
_cell_volume 2644.579237
_symmetry_space_group_name_H-M "A M A 2"
_symmetry_group_IT_number 40
_symmetry_cell_setting 'orthorhombic'
loop_
_space_group_symop_operation_xyz
x,y,z
-x,-y,z
1/2-x,y,z
1/2+x,-y,z
x,1/2+y,1/2+z
-x,1/2-y,1/2+z
1/2-x,1/2+y,1/2+z
1/2+x,1/2-y,1/2+z
loop_
_atom_site_type_symbol
_atom_site_label
_atom_site_fract_x
_atom_site_fract_y
_atom_site_fract_z
Si Si1 0.934997 0.842062 0.259040
Si Si2 0.436464 0.157578 0.015119
Si Si3 0.064845 0.158157 0.590430
Si Si4 0.063880 0.343351 0.179636
Si Si5 0.563550 0.158290 0.436091
Si Si6 0.564601 0.659277 0.844528
O O1 0.750000 0.849155 0.261431
O O2 0.979221 0.753404 0.218568
O O3 0.997087 0.776916 0.302281
O O4 0.000000 0.000000 0.255351
O O5 0.250000 0.155672 0.016664
O O6 0.500688 0.241489 0.054701
O O7 0.500000 0.000000 0.014475
O O8 0.485840 0.242054 0.973641
O O9 0.250000 0.153853 0.589612
O O10 0.006511 0.206121 0.635836
O O11 0.000000 0.000000 0.584190
O O12 0.250000 0.347651 0.176069
O O13 0.000000 0.500000 0.186502
O O14 0.750000 0.148822 0.436899
O O15 0.520003 0.215549 0.390149
O O16 0.500000 0.000000 0.441104
O O17 0.500000 0.500000 0.844959
O O18 0.750000 0.656722 0.841447
#
# Coordination Sequence:
#
# PCOD9363667 Si02
#       6
#     8   8   8   8   8   8
#     4  10  20  33  52  79 108 139 176 217 262 313
#     4  11  23  39  56  79 111 143 178 220 270 322
#     4  11  22  38  60  83 107 139 179 221 266 317
#     4  10  21  37  56  79 107 139 178 220 263 314
#     4   9  19  34  55  80 105 137 178 220 261 312
#     4   9  16  29  50  76 105 137 175 218 261 306
#
# _framework density 18.150335999999999
#
# number of rings (size 3 to 8) (size 9 to 14) (size 15 to 20)
#    0.000    2.000    0.000    6.000    0.000    6.667 
#    0.000    2.500    0.000    4.000    0.000    0.000 
#    0.000    0.000    0.000    0.000    0.000    0.000 
#
# Total GULP energy -133938.762893 kJ/mol
# GULP energy per Si atom -5580.781787 kJ/mol
# Density = 1.810903 g / cm^3
# Si number density = 18.150336 Si / 1000 Ang^3
#
#
#
# Elastic Constant Matrix: (Units=GPa)
#
#
# Indices 1 2 3 4 5 6 
#
# 1 74.0598 33.0961 66.3396 0.0000 0.0000 0.0000
# 2 33.0961 74.6659 99.1373 0.0000 0.0000 0.0000
# 3 66.3396 99.1373 228.3847 0.0000 0.0000 0.0000
# 4 0.0000 0.0000 0.0000 29.8224 0.0000 0.0000
# 5 0.0000 0.0000 0.0000 0.0000 34.4478 0.0000
# 6 0.0000 0.0000 0.0000 0.0000 0.0000 18.2596
#
#
#
# Elastic Compliance Matrix: (Units=1/GPa)
#
#
# Indices 1 2 3 4 5 6 
#
# 1 0.018448 -0.002507 -0.004270 0.000000 0.000000 0.000000
# 2 -0.002507 0.031954 -0.013142 0.000000 0.000000 0.000000
# 3 -0.004270 -0.013142 0.011324 0.000000 0.000000 0.000000
# 4 0.000000 0.000000 0.000000 0.033532 0.000000 0.000000
# 5 0.000000 0.000000 0.000000 0.000000 0.029029 0.000000
# 6 0.000000 0.000000 0.000000 0.000000 0.000000 0.054766
#
#
# Mechanical properties :
#
#
# Convention : Reuss Voigt Hill
#
# Bulk Modulus (GPa) = 45.69120 86.02850 65.85985
# Shear Modulus (GPa) = 22.10547 28.40845 25.25696
#
# Velocity S-wave (km/s) = 3.49364 3.96052 3.73439
# Velocity P-wave (km/s) = 6.44224 8.27133 7.41341
#
# Compressibility (1/GPa) = 0.02188605
#
# Stress axis : x y z
#
# Youngs Moduli (GPa) = 54.20557 31.29501 88.30979
#
# Poissons Ratio (x) = 0.07847 0.37711
# Poissons Ratio (y) = 0.13592 1.16059
# Poissons Ratio (z) = 0.23147 0.41129
#
# Static dielectric constant tensor:
#      x y z
#    x 1.611310 0.000000 0.000000 
#    y 0.000000 1.564520 0.000000 
#    z 0.000000 0.000000 1.659750 
# 
# From -- ./inp_files/26158.got.cif
#   From: 2010.05.17/outbox.cif.g08.bks.cpg/sg40_14_cif.got.tgz:26158.got - 2010.06.03 18:35:42.
