data_PCOD9363438
_publ_section_title
;
Structure prediction by ZEFSAII (Michael W. Deem and Ramdas Pophale) SiO2 
 PCOD9363438
Probable space group: A M A 2
;
_chemical_formula_sum "Si O2"
_cell_formula_units_Z 64
_cell_length_a 20.819140
_cell_length_b 30.124302
_cell_length_c 5.201917
_cell_angle_alpha 90.000000
_cell_angle_beta 90.000000
_cell_angle_gamma 90.000000
_cell_volume 3262.444986
_symmetry_space_group_name_H-M "A M A 2"
_symmetry_group_IT_number 40
_symmetry_cell_setting 'orthorhombic'
loop_
_space_group_symop_operation_xyz
x,y,z
-x,-y,z
1/2-x,y,z
1/2+x,-y,z
x,1/2+y,1/2+z
-x,1/2-y,1/2+z
1/2-x,1/2+y,1/2+z
1/2+x,1/2-y,1/2+z
loop_
_atom_site_type_symbol
_atom_site_label
_atom_site_fract_x
_atom_site_fract_y
_atom_site_fract_z
Si Si1 0.959188 0.245744 0.830010
Si Si2 0.131852 0.539928 0.238850
Si Si3 0.177330 0.392348 0.606683
Si Si4 0.571226 0.837850 0.388926
Si Si5 0.442818 0.844554 0.076506
Si Si6 0.631752 0.561597 0.089073
Si Si7 0.675800 0.906806 0.234630
Si Si8 0.005114 0.589054 0.218128
O O1 0.911785 0.285907 0.916413
O O2 0.981927 0.249933 0.535467
O O3 0.934966 0.195689 0.876481
O O4 0.140295 0.488023 0.193543
O O5 0.162657 0.561287 0.492645
O O6 0.055650 0.550211 0.258370
O O7 0.160382 0.565553 0.992401
O O8 0.250000 0.377218 0.618090
O O9 0.126078 0.355149 0.691280
O O10 0.160832 0.407447 0.315438
O O11 0.166168 0.430966 0.816925
O O12 0.501864 0.832543 0.255965
O O13 0.625187 0.865762 0.238119
O O14 0.549842 0.869751 0.622755
O O15 0.469034 0.890771 0.961169
O O16 0.555749 0.573170 0.050876
O O17 0.750000 0.892340 0.234027
#
# Coordination Sequence:
#
# PCOD9363438 Si02
#       8
#     8   8   8   8   8   8   8   8
#     4  10  20  32  59  92 115 144 190 244 286 342
#     4  11  23  38  59  83 114 151 197 244 288 340
#     4  11  24  39  58  83 117 156 192 235 291 348
#     4  10  19  37  59  86 116 150 191 238 287 350
#     4  10  19  37  59  86 116 150 191 238 287 350
#     4  11  23  38  59  83 114 151 197 244 288 340
#     4  11  24  39  58  83 117 156 192 235 291 348
#     4  10  19  36  56  88 112 150 186 244 291 340
#
# _framework density 19.617187999999999
#
# number of rings (size 3 to 8) (size 9 to 14) (size 15 to 20)
#    0.000    1.500    3.750    1.875    0.000    3.000 
#    0.000    3.125    0.000    0.000    0.000    9.625 
#    0.000    0.000    0.000    0.000    0.000    0.000 
#
# Total GULP energy -178248.640320 kJ/mol
# GULP energy per Si atom -5570.270010 kJ/mol
# Density = 1.957254 g / cm^3
# Si number density = 19.617188 Si / 1000 Ang^3
#
#
#
# Elastic Constant Matrix: (Units=GPa)
#
#
# Indices 1 2 3 4 5 6 
#
# 1 131.7340 24.5270 21.0647 0.0000 0.0000 0.0000
# 2 24.5270 54.2870 6.9023 0.0000 0.0000 0.0000
# 3 21.0647 6.9023 75.3602 0.0000 0.0000 0.0000
# 4 0.0000 0.0000 0.0000 25.2839 0.0000 0.0000
# 5 0.0000 0.0000 0.0000 0.0000 10.7870 0.0000
# 6 0.0000 0.0000 0.0000 0.0000 0.0000 5.3117
#
#
#
# Elastic Compliance Matrix: (Units=1/GPa)
#
#
# Indices 1 2 3 4 5 6 
#
# 1 0.008596 -0.003621 -0.002071 0.000000 0.000000 0.000000
# 2 -0.003621 0.020162 -0.000835 0.000000 0.000000 0.000000
# 3 -0.002071 -0.000835 0.013925 0.000000 0.000000 0.000000
# 4 0.000000 0.000000 0.000000 0.039551 0.000000 0.000000
# 5 0.000000 0.000000 0.000000 0.000000 0.092704 0.000000
# 6 0.000000 0.000000 0.000000 0.000000 0.000000 0.188265
#
#
# Mechanical properties :
#
#
# Convention : Reuss Voigt Hill
#
# Bulk Modulus (GPa) = 33.74849 40.70769 37.22809
# Shear Modulus (GPa) = 12.94889 22.20234 17.57561
#
# Velocity S-wave (km/s) = 2.57199 3.36784 2.99646
# Velocity P-wave (km/s) = 5.10500 5.99327 5.56688
#
# Compressibility (1/GPa) = 0.02963096
#
# Stress axis : x y z
#
# Youngs Moduli (GPa) = 116.32861 49.59703 71.81324
#
# Poissons Ratio (x) = 0.17957 0.14874
# Poissons Ratio (y) = 0.42117 0.05994
# Poissons Ratio (z) = 0.24094 0.04140
#
# Static dielectric constant tensor:
#      x y z
#    x 1.739730 0.000000 0.000000 
#    y 0.000000 1.809830 0.000000 
#    z 0.000000 0.000000 1.732830 
# 
# From -- ./inp_files/2465.got.cif
#   From: 2010.05.17/outbox.cif.g08.bks.cpg/sg40_2_cif.got.tgz:2465.got - 2010.06.03 18:35:42.
