data_PCOD9363691
_publ_section_title
;
Structure prediction by ZEFSAII (Michael W. Deem and Ramdas Pophale) SiO2 
 PCOD9363691
Probable space group: A M A 2
;
_chemical_formula_sum "Si O2"
_cell_formula_units_Z 56
_cell_length_a 8.666307
_cell_length_b 14.934060
_cell_length_c 22.008839
_cell_angle_alpha 90.000000
_cell_angle_beta 90.000000
_cell_angle_gamma 90.000000
_cell_volume 2848.453243
_symmetry_space_group_name_H-M "A M A 2"
_symmetry_group_IT_number 40
_symmetry_cell_setting 'orthorhombic'
loop_
_space_group_symop_operation_xyz
x,y,z
-x,-y,z
1/2-x,y,z
1/2+x,-y,z
x,1/2+y,1/2+z
-x,1/2-y,1/2+z
1/2-x,1/2+y,1/2+z
1/2+x,1/2-y,1/2+z
loop_
_atom_site_type_symbol
_atom_site_label
_atom_site_fract_x
_atom_site_fract_y
_atom_site_fract_z
Si Si1 0.934951 0.095715 0.104430
Si Si2 0.935147 0.403912 0.024567
Si Si3 0.565051 0.906783 0.240942
Si Si4 0.436119 0.399734 0.389545
Si Si5 0.935267 0.213140 0.771516
Si Si6 0.566021 0.404508 0.166808
Si Si7 0.434204 0.716465 0.500143
O O1 0.750000 0.094326 0.104115
O O2 0.996515 0.104430 0.173097
O O3 0.000000 0.000000 0.081271
O O4 0.996955 0.174604 0.062060
O O5 0.750000 0.403246 0.019955
O O6 0.978745 0.394198 0.096183
O O7 0.000000 0.500000 0.004089
O O8 0.005571 0.317566 0.992196
O O9 0.750000 0.913072 0.236244
O O10 0.522839 0.817462 0.277547
O O11 0.500000 0.000000 0.265891
O O12 0.500000 0.500000 0.388473
O O13 0.250000 0.401212 0.393331
O O14 0.482985 0.347174 0.328355
O O15 0.503569 0.345939 0.446385
O O16 0.750000 0.208494 0.767080
O O17 0.003655 0.172792 0.709887
O O18 0.500000 0.500000 0.188259
O O19 0.750000 0.406728 0.169818
O O20 0.250000 0.714757 0.502700
#
# Coordination Sequence:
#
# PCOD9363691 Si02
#       7
#     8   8   8   8   8   8   8
#     4  11  21  35  56  85 118 153 189 233 286 343
#     4  10  21  38  59  87 119 153 190 234 283 336
#     4  10  20  36  57  85 117 150 187 232 281 335
#     4  11  24  43  62  84 113 147 188 236 284 338
#     4  10  22  38  58  82 113 151 191 234 283 334
#     4  10  20  33  55  85 118 151 186 228 279 335
#     4  12  24  39  59  84 113 151 193 237 286 339
#
# _framework density 19.659791999999999
#
# number of rings (size 3 to 8) (size 9 to 14) (size 15 to 20)
#    0.000    1.429    0.000    6.857    0.000    7.429 
#    0.000    0.714    0.000    1.714    0.000    0.000 
#    0.000    0.000    0.000    0.000    0.000    0.000 
#
# Total GULP energy -156573.207502 kJ/mol
# GULP energy per Si atom -5591.900268 kJ/mol
# Density = 1.961505 g / cm^3
# Si number density = 19.659792 Si / 1000 Ang^3
#
#
#
# Elastic Constant Matrix: (Units=GPa)
#
#
# Indices 1 2 3 4 5 6 
#
# 1 89.8797 59.4927 25.0865 0.0000 0.0000 0.0000
# 2 59.4927 196.7594 48.9638 0.0000 0.0000 0.0000
# 3 25.0865 48.9638 38.5352 0.0000 0.0000 0.0000
# 4 0.0000 0.0000 0.0000 26.5149 0.0000 0.0000
# 5 0.0000 0.0000 0.0000 0.0000 -106.9720 0.0000
# 6 0.0000 0.0000 0.0000 0.0000 0.0000 37.4331
#
#
#
# Elastic Compliance Matrix: (Units=1/GPa)
#
#
# Indices 1 2 3 4 5 6 
#
# 1 0.014732 -0.003024 -0.005748 0.000000 0.000000 0.000000
# 2 -0.003024 0.008053 -0.008264 0.000000 0.000000 0.000000
# 3 -0.005748 -0.008264 0.040193 0.000000 0.000000 0.000000
# 4 0.000000 0.000000 0.000000 0.037715 0.000000 0.000000
# 5 0.000000 0.000000 0.000000 0.000000 -0.009348 0.000000
# 6 0.000000 0.000000 0.000000 0.000000 0.000000 0.026714
#
#
# Mechanical properties :
#
#
# Convention : Reuss Voigt Hill
#
# Bulk Modulus (GPa) = 34.59532 65.80669 50.20101
# Shear Modulus (GPa) = 30.90881 4.17064 17.53972
#
# Velocity S-wave (km/s) = 3.96938 1.45808 2.99015
# Velocity P-wave (km/s) = 6.21636 6.03159 6.12467
#
# Compressibility (1/GPa) = 0.02890564
#
# Stress axis : x y z
#
# Youngs Moduli (GPa) = 67.87954 124.17469 24.88006
#
# Poissons Ratio (x) = 0.37550 0.14302
# Poissons Ratio (y) = 0.20526 0.20561
# Poissons Ratio (z) = 0.39019 1.02618
#
# Static dielectric constant tensor:
#      x y z
#    x 1.655400 0.000000 0.000000 
#    y 0.000000 1.704440 0.000000 
#    z 0.000000 0.000000 1.673220 
# 
# From -- ./inp_files/22207.got.cif
#   From: 2010.05.17/outbox.cif.g08.bks.cpg/sg40_12_cif.got.tgz:22207.got - 2010.06.03 18:35:42.
