data_PCOD9363463
_publ_section_title
;
Structure prediction by ZEFSAII (Michael W. Deem and Ramdas Pophale) SiO2 
 PCOD9363463
Probable space group: A M A 2
;
_chemical_formula_sum "Si O2"
_cell_formula_units_Z 56
_cell_length_a 16.752639
_cell_length_b 13.586044
_cell_length_c 11.774040
_cell_angle_alpha 90.000000
_cell_angle_beta 90.000000
_cell_angle_gamma 90.000000
_cell_volume 2679.796118
_symmetry_space_group_name_H-M "A M A 2"
_symmetry_group_IT_number 40
_symmetry_cell_setting 'orthorhombic'
loop_
_space_group_symop_operation_xyz
x,y,z
-x,-y,z
1/2-x,y,z
1/2+x,-y,z
x,1/2+y,1/2+z
-x,1/2-y,1/2+z
1/2-x,1/2+y,1/2+z
1/2+x,1/2-y,1/2+z
loop_
_atom_site_type_symbol
_atom_site_label
_atom_site_fract_x
_atom_site_fract_y
_atom_site_fract_z
Si Si1 0.051973 0.404474 0.288240
Si Si2 0.380784 0.698577 0.487009
Si Si3 0.911764 0.539418 0.838502
Si Si4 0.657866 0.083976 0.573564
Si Si5 0.837851 0.993302 0.118638
Si Si6 0.571816 0.169696 0.020150
Si Si7 0.408444 0.237203 0.744528
O O1 0.110043 0.436595 0.188132
O O2 0.097572 0.348768 0.390347
O O3 0.000000 0.500000 0.327672
O O4 0.989756 0.324497 0.240480
O O5 0.350279 0.800760 0.538888
O O6 0.344153 0.608537 0.554488
O O7 0.477347 0.693058 0.506728
O O8 0.362014 0.688384 0.351499
O O9 0.853455 0.484083 0.752221
O O10 0.915628 0.653265 0.797952
O O11 0.000000 0.500000 0.828348
O O12 0.881685 0.530575 0.966318
O O13 0.750000 0.058280 0.584999
O O14 0.750000 0.038135 0.099932
O O15 0.907936 0.064058 0.074632
O O16 0.612116 0.244250 0.111561
#
# Coordination Sequence:
#
# PCOD9363463 Si02
#       7
#     8   8   8   8   8   8   8
#     4  11  22  38  61  90 122 168 211 262 314 389
#     4  10  19  36  60  88 123 165 208 268 315 392
#     4  10  21  38  64  91 121 164 211 265 313 382
#     4  11  23  39  58  88 129 168 207 262 329 387
#     4  11  21  34  58  93 128 163 209 268 326 376
#     4  10  19  37  61  87 120 159 218 257 310 379
#     4   9  19  36  61  93 117 151 213 266 309 368
#
# _framework density 20.897113000000001
#
# number of rings (size 3 to 8) (size 9 to 14) (size 15 to 20)
#    0.000    1.714    1.429    5.143    0.000    1.143 
#    0.000    0.714    0.000    4.286    0.000    0.000 
#    0.000    0.000    0.000    0.000    0.000    0.000 
#
# Total GULP energy -156057.857314 kJ/mol
# GULP energy per Si atom -5573.494904 kJ/mol
# Density = 2.084955 g / cm^3
# Si number density = 20.897113 Si / 1000 Ang^3
#
#
#
# Elastic Constant Matrix: (Units=GPa)
#
#
# Indices 1 2 3 4 5 6 
#
# 1 54.6131 -1.0768 10.7466 0.0000 0.0000 0.0000
# 2 -1.0768 29.1305 32.6815 0.0000 0.0000 0.0000
# 3 10.7466 32.6815 119.5938 0.0000 0.0000 0.0000
# 4 0.0000 0.0000 0.0000 33.8547 0.0000 0.0000
# 5 0.0000 0.0000 0.0000 0.0000 4.2354 0.0000
# 6 0.0000 0.0000 0.0000 0.0000 0.0000 40.2692
#
#
#
# Elastic Compliance Matrix: (Units=1/GPa)
#
#
# Indices 1 2 3 4 5 6 
#
# 1 0.018921 0.003760 -0.002728 0.000000 0.000000 0.000000
# 2 0.003760 0.050253 -0.014071 0.000000 0.000000 0.000000
# 3 -0.002728 -0.014071 0.012452 0.000000 0.000000 0.000000
# 4 0.000000 0.000000 0.000000 0.029538 0.000000 0.000000
# 5 0.000000 0.000000 0.000000 0.000000 0.236102 0.000000
# 6 0.000000 0.000000 0.000000 0.000000 0.000000 0.024833
#
#
# Mechanical properties :
#
#
# Convention : Reuss Voigt Hill
#
# Bulk Modulus (GPa) = 18.00211 32.00446 25.00329
# Shear Modulus (GPa) = 11.99924 26.40427 19.20175
#
# Velocity S-wave (km/s) = 2.39886 3.55848 3.03458
# Velocity P-wave (km/s) = 4.03807 5.67734 4.92637
#
# Compressibility (1/GPa) = 0.05554904
#
# Stress axis : x y z
#
# Youngs Moduli (GPa) = 52.84994 19.89932 80.30960
#
# Poissons Ratio (x) = -0.07481 0.21906
# Poissons Ratio (y) = -0.19869 1.13000
# Poissons Ratio (z) = 0.14416 0.27999
#
# Static dielectric constant tensor:
#      x y z
#    x 1.718640 0.000000 0.000000 
#    y 0.000000 1.757740 0.000000 
#    z 0.000000 0.000000 1.830830 
# 
# From -- ./inp_files/12209.got.cif
#   From: 2010.05.17/outbox.cif.g08.bks.cpg/sg40_7_cif.got.tgz:12209.got - 2010.06.03 18:35:42.
