data_PCOD9363797
_publ_section_title
;
Structure prediction by ZEFSAII (Michael W. Deem and Ramdas Pophale) SiO2 
 PCOD9363797
Probable space group: A M A 2
;
_chemical_formula_sum "Si O2"
_cell_formula_units_Z 64
_cell_length_a 18.923842
_cell_length_b 17.400778
_cell_length_c 9.708904
_cell_angle_alpha 90.000000
_cell_angle_beta 90.000000
_cell_angle_gamma 90.000000
_cell_volume 3197.040858
_symmetry_space_group_name_H-M "A M A 2"
_symmetry_group_IT_number 40
_symmetry_cell_setting 'orthorhombic'
loop_
_space_group_symop_operation_xyz
x,y,z
-x,-y,z
1/2-x,y,z
1/2+x,-y,z
x,1/2+y,1/2+z
-x,1/2-y,1/2+z
1/2-x,1/2+y,1/2+z
1/2+x,1/2-y,1/2+z
loop_
_atom_site_type_symbol
_atom_site_label
_atom_site_fract_x
_atom_site_fract_y
_atom_site_fract_z
Si Si1 0.071137 0.688232 0.909600
Si Si2 0.404171 0.165165 0.102625
Si Si3 0.168885 0.862167 0.206496
Si Si4 0.330819 0.561634 0.386372
Si Si5 0.943508 0.140391 0.991255
Si Si6 0.436229 0.950351 0.728018
Si Si7 0.172489 0.180380 0.643093
Si Si8 0.092357 0.333839 0.984486
O O1 0.105008 0.663196 0.766231
O O2 0.082332 0.779881 0.924575
O O3 0.111526 0.653788 0.040533
O O4 0.987572 0.673678 0.924575
O O5 0.384693 0.248431 0.036184
O O6 0.367320 0.095144 0.023166
O O7 0.488589 0.159006 0.082202
O O8 0.250000 0.887515 0.194305
O O9 0.165523 0.770358 0.176619
O O10 0.139600 0.868142 0.361425
O O11 0.116821 0.895461 0.088919
O O12 0.250000 0.537498 0.411782
O O13 0.373789 0.498977 0.298587
O O14 0.330455 0.634646 0.284085
O O15 0.968856 0.091226 0.862058
O O16 0.409680 0.889874 0.615752
O O17 0.500000 0.000000 0.665878
O O18 0.250000 0.168076 0.579377
#
# Coordination Sequence:
#
# PCOD9363797 Si02
#       8
#     8   8   8   8   8   8   8   8
#     4  10  20  34  63  97 124 148 212 278 314 363
#     4  11  20  37  64  95 124 159 216 273 314 374
#     4  10  20  38  62  89 124 160 205 269 326 372
#     4  11  24  41  63  90 127 171 211 256 321 395
#     4  10  21  37  60  95 122 163 207 260 321 383
#     4  12  24  41  63  92 130 172 211 258 327 398
#     4   9  19  37  60  88 122 163 202 253 322 374
#     4  11  22  36  62  97 124 162 216 268 319 385
#
# _framework density 20.018512999999999
#
# number of rings (size 3 to 8) (size 9 to 14) (size 15 to 20)
#    0.000    1.500    5.000    0.750    0.000    1.500 
#    0.000    3.125    0.000    0.000    0.000    0.000 
#    0.000    0.000    0.000    0.000    0.000    0.000 
#
# Total GULP energy -178579.492387 kJ/mol
# GULP energy per Si atom -5580.609137 kJ/mol
# Density = 1.997295 g / cm^3
# Si number density = 20.018513 Si / 1000 Ang^3
#
#
#
# Elastic Constant Matrix: (Units=GPa)
#
#
# Indices 1 2 3 4 5 6 
#
# 1 57.5169 7.1203 28.7942 0.0000 0.0000 0.0000
# 2 7.1203 43.8853 14.4729 0.0000 0.0000 0.0000
# 3 28.7942 14.4729 102.0289 0.0000 0.0000 0.0000
# 4 0.0000 0.0000 0.0000 24.1907 0.0000 0.0000
# 5 0.0000 0.0000 0.0000 0.0000 29.6003 0.0000
# 6 0.0000 0.0000 0.0000 0.0000 0.0000 19.9709
#
#
#
# Elastic Compliance Matrix: (Units=1/GPa)
#
#
# Indices 1 2 3 4 5 6 
#
# 1 0.020337 -0.001476 -0.005530 0.000000 0.000000 0.000000
# 2 -0.001476 0.024012 -0.002990 0.000000 0.000000 0.000000
# 3 -0.005530 -0.002990 0.011786 0.000000 0.000000 0.000000
# 4 0.000000 0.000000 0.000000 0.041338 0.000000 0.000000
# 5 0.000000 0.000000 0.000000 0.000000 0.033783 0.000000
# 6 0.000000 0.000000 0.000000 0.000000 0.000000 0.050073
#
#
# Mechanical properties :
#
#
# Convention : Reuss Voigt Hill
#
# Bulk Modulus (GPa) = 27.66712 33.80068 30.73390
# Shear Modulus (GPa) = 23.43354 24.95529 24.19441
#
# Velocity S-wave (km/s) = 3.42511 3.53457 3.48027
# Velocity P-wave (km/s) = 5.43071 5.79473 5.61567
#
# Compressibility (1/GPa) = 0.03614399
#
# Stress axis : x y z
#
# Youngs Moduli (GPa) = 49.17034 41.64575 84.84690
#
# Poissons Ratio (x) = 0.06147 0.46922
# Poissons Ratio (y) = 0.07257 0.25366
# Poissons Ratio (z) = 0.27192 0.12450
#
# Static dielectric constant tensor:
#      x y z
#    x 1.721790 0.000000 0.000000 
#    y 0.000000 1.738010 0.000000 
#    z 0.000000 0.000000 1.690100 
# 
# From -- ./inp_files/7782.got.cif
#   From: 2010.05.17/outbox.cif.g08.bks.cpg/sg40_4_cif.got.tgz:7782.got - 2010.06.03 18:35:42.
