data_PCOD9363927
_publ_section_title
;
Structure prediction by ZEFSAII (Michael W. Deem and Ramdas Pophale) SiO2 
 PCOD9363927
Probable space group: A M A 2
;
_chemical_formula_sum "Si O2"
_cell_formula_units_Z 48
_cell_length_a 8.703876
_cell_length_b 10.465897
_cell_length_c 29.762186
_cell_angle_alpha 90.000000
_cell_angle_beta 90.000000
_cell_angle_gamma 90.000000
_cell_volume 2711.152694
_symmetry_space_group_name_H-M "A M A 2"
_symmetry_group_IT_number 40
_symmetry_cell_setting 'orthorhombic'
loop_
_space_group_symop_operation_xyz
x,y,z
-x,-y,z
1/2-x,y,z
1/2+x,-y,z
x,1/2+y,1/2+z
-x,1/2-y,1/2+z
1/2-x,1/2+y,1/2+z
1/2+x,1/2-y,1/2+z
loop_
_atom_site_type_symbol
_atom_site_label
_atom_site_fract_x
_atom_site_fract_y
_atom_site_fract_z
Si Si1 0.933403 0.361713 0.500000
Si Si2 0.933920 0.361610 0.167632
Si Si3 0.435322 0.862372 0.767416
Si Si4 0.434789 0.637399 0.834689
Si Si5 0.434266 0.638392 0.938628
Si Si6 0.065885 0.639026 0.605642
O O1 0.750000 0.363526 0.495342
O O2 0.970087 0.341541 0.552784
O O3 0.000000 0.500000 0.487018
O O4 0.002976 0.249768 0.470049
O O5 0.750000 0.367073 0.168707
O O6 0.000000 0.500000 0.153553
O O7 0.998228 0.337534 0.217787
O O8 0.991757 0.250510 0.134987
O O9 0.250000 0.867941 0.765013
O O10 0.482041 0.751232 0.801769
O O11 0.500000 0.000000 0.781960
O O12 0.500000 0.500000 0.820760
O O13 0.250000 0.630682 0.833734
O O14 0.481182 0.660664 0.886525
O O15 0.500000 0.500000 0.951922
O O16 0.250000 0.635178 0.940705
O O17 0.250000 0.639605 0.611028
O O18 0.000000 0.500000 0.618439
#
# Coordination Sequence:
#
# PCOD9363927 Si02
#       6
#     8   8   8   8   8   8
#     4  10  21  37  57  81 109 142 179 221 268 318
#     4  11  22  37  57  81 109 142 180 222 269 318
#     4  10  20  36  55  78 108 140 178 221 266 317
#     4   9  20  36  55  79 107 140 178 220 264 315
#     4  10  20  36  56  80 110 143 181 223 268 317
#     4  10  21  38  58  81 109 141 179 221 267 319
#
# _framework density 17.704647000000001
#
# number of rings (size 3 to 8) (size 9 to 14) (size 15 to 20)
#    0.000    2.000    0.000    4.500    0.000    6.000 
#    0.000    3.333    0.000    0.000    0.000    0.000 
#    0.000    0.000    0.000    0.000    0.000    0.000 
#
# Total GULP energy -134037.383449 kJ/mol
# GULP energy per Si atom -5584.890977 kJ/mol
# Density = 1.766435 g / cm^3
# Si number density = 17.704647 Si / 1000 Ang^3
#
#
#
# Elastic Constant Matrix: (Units=GPa)
#
#
# Indices 1 2 3 4 5 6 
#
# 1 80.0808 74.3310 50.7943 0.0000 0.0000 0.0000
# 2 74.3310 210.9282 120.8195 0.0000 0.0000 0.0000
# 3 50.7943 120.8195 84.8365 0.0000 0.0000 0.0000
# 4 0.0000 0.0000 0.0000 42.9238 0.0000 0.0000
# 5 0.0000 0.0000 0.0000 0.0000 36.6651 0.0000
# 6 0.0000 0.0000 0.0000 0.0000 0.0000 38.9438
#
#
#
# Elastic Compliance Matrix: (Units=1/GPa)
#
#
# Indices 1 2 3 4 5 6 
#
# 1 0.020175 -0.001034 -0.010606 0.000000 0.000000 0.000000
# 2 -0.001034 0.025784 -0.036101 0.000000 0.000000 0.000000
# 3 -0.010606 -0.036101 0.069550 0.000000 0.000000 0.000000
# 4 0.000000 0.000000 0.000000 0.023297 0.000000 0.000000
# 5 0.000000 0.000000 0.000000 0.000000 0.027274 0.000000
# 6 0.000000 0.000000 0.000000 0.000000 0.000000 0.025678
#
#
# Mechanical properties :
#
#
# Convention : Reuss Voigt Hill
#
# Bulk Modulus (GPa) = 49.93388 96.41501 73.17444
# Shear Modulus (GPa) = 17.01164 32.36660 24.68912
#
# Velocity S-wave (km/s) = 3.10313 4.28032 3.73835
# Velocity P-wave (km/s) = 6.41126 8.88841 7.74946
#
# Compressibility (1/GPa) = 0.02002648
#
# Stress axis : x y z
#
# Youngs Moduli (GPa) = 49.56652 38.78380 14.37807
#
# Poissons Ratio (x) = 0.04012 0.15250
# Poissons Ratio (y) = 0.05127 0.51906
# Poissons Ratio (z) = 0.52571 1.40013
#
# Static dielectric constant tensor:
#      x y z
#    x 1.593970 0.000000 0.000000 
#    y 0.000000 1.571310 0.000000 
#    z 0.000000 0.000000 1.591330 
# 
# From -- ./inp_files/26119.got.cif
#   From: 2010.05.17/outbox.cif.g08.bks.cpg/sg40_14_cif.got.tgz:26119.got - 2010.06.03 18:35:42.
