data_PCOD9363412
_publ_section_title
;
Structure prediction by ZEFSAII (Michael W. Deem and Ramdas Pophale) SiO2 
 PCOD9363412
Probable space group: A M A 2
;
_chemical_formula_sum "Si O2"
_cell_formula_units_Z 40
_cell_length_a 10.748976
_cell_length_b 13.321247
_cell_length_c 13.460649
_cell_angle_alpha 90.000000
_cell_angle_beta 90.000000
_cell_angle_gamma 90.000000
_cell_volume 1927.427158
_symmetry_space_group_name_H-M "A M A 2"
_symmetry_group_IT_number 40
_symmetry_cell_setting 'orthorhombic'
loop_
_space_group_symop_operation_xyz
x,y,z
-x,-y,z
1/2-x,y,z
1/2+x,-y,z
x,1/2+y,1/2+z
-x,1/2-y,1/2+z
1/2-x,1/2+y,1/2+z
1/2+x,1/2-y,1/2+z
loop_
_atom_site_type_symbol
_atom_site_label
_atom_site_fract_x
_atom_site_fract_y
_atom_site_fract_z
Si Si1 0.750000 0.395475 0.643900
Si Si2 0.750000 0.126009 0.181537
Si Si3 0.750000 0.695871 0.898847
Si Si4 0.250000 0.409968 0.113865
Si Si5 0.004458 0.668994 0.365800
Si Si6 0.011572 0.386849 0.583581
Si Si7 0.500000 0.000000 0.699433
Si Si8 0.750000 0.252894 0.793888
O O1 0.750000 0.514903 0.631249
O O2 0.626203 0.346496 0.600542
O O3 0.750000 0.367180 0.758306
O O4 0.750000 0.126564 0.299652
O O5 0.878444 0.170849 0.139319
O O6 0.873506 0.764647 0.886449
O O7 0.750000 0.636116 0.002867
O O8 0.376756 0.472895 0.136058
O O9 0.250000 0.323994 0.199834
O O10 0.969824 0.609808 0.466533
O O11 0.025791 0.593587 0.274091
O O12 0.879880 0.732516 0.346978
O O13 0.000000 0.500000 0.625755
#
# Coordination Sequence:
#
# PCOD9363412 Si02
#       8
#     4   4   4   4   8   8   4   4
#     4  10  20  37  58  80 123 159 187 248 311 359
#     4  10  23  39  58  85 126 156 204 248 313 373
#     4  12  25  40  60  93 129 172 213 261 307 391
#     4  10  23  43  62  94 129 173 221 261 319 387
#     4  11  21  38  66  95 123 159 212 266 321 374
#     4  10  19  35  60  89 112 148 195 254 307 360
#     4  10  22  44  68  94 130 174 214 270 324 396
#     4  10  21  37  60  90 123 156 209 260 312 372
#
# _framework density 20.753055
#
# number of rings (size 3 to 8) (size 9 to 14) (size 15 to 20)
#    0.000    1.600    1.000    4.200    0.000    1.600 
#    9.000    0.000    0.000    0.000    0.000    0.000 
#    0.000    0.000    0.000    0.000    0.000    0.000 
#
# Total GULP energy -111482.050451 kJ/mol
# GULP energy per Si atom -5574.102523 kJ/mol
# Density = 2.070582 g / cm^3
# Si number density = 20.753055 Si / 1000 Ang^3
#
#
#
# Elastic Constant Matrix: (Units=GPa)
#
#
# Indices 1 2 3 4 5 6 
#
# 1 188.1288 26.8021 68.4279 0.0000 0.0000 0.0000
# 2 26.8021 25.3982 15.7618 0.0000 0.0000 0.0000
# 3 68.4279 15.7618 116.6837 0.0000 0.0000 0.0000
# 4 0.0000 0.0000 0.0000 28.4774 0.0000 0.0000
# 5 0.0000 0.0000 0.0000 0.0000 31.7017 0.0000
# 6 0.0000 0.0000 0.0000 0.0000 0.0000 10.4826
#
#
#
# Elastic Compliance Matrix: (Units=1/GPa)
#
#
# Indices 1 2 3 4 5 6 
#
# 1 0.007421 -0.005600 -0.003596 0.000000 0.000000 0.000000
# 2 -0.005600 0.047201 -0.003092 0.000000 0.000000 0.000000
# 3 -0.003596 -0.003092 0.011096 0.000000 0.000000 0.000000
# 4 0.000000 0.000000 0.000000 0.035116 0.000000 0.000000
# 5 0.000000 0.000000 0.000000 0.000000 0.031544 0.000000
# 6 0.000000 0.000000 0.000000 0.000000 0.000000 0.095396
#
#
# Mechanical properties :
#
#
# Convention : Reuss Voigt Hill
#
# Bulk Modulus (GPa) = 24.30508 61.35494 42.83001
# Shear Modulus (GPa) = 18.79244 28.74691 23.76968
#
# Velocity S-wave (km/s) = 3.01246 3.72585 3.38799
# Velocity P-wave (km/s) = 4.88230 6.93814 5.99894
#
# Compressibility (1/GPa) = 0.04114366
#
# Stress axis : x y z
#
# Youngs Moduli (GPa) = 134.75018 21.18592 90.11891
#
# Poissons Ratio (x) = 0.11864 0.32403
# Poissons Ratio (y) = 0.75460 0.27865
# Poissons Ratio (z) = 0.48451 0.06551
#
# Static dielectric constant tensor:
#      x y z
#    x 1.868710 0.000000 0.000000 
#    y 0.000000 1.762210 0.000000 
#    z 0.000000 0.000000 1.750260 
# 
# From -- ./inp_files/11111.got.cif
#   From: 2010.05.17/outbox.cif.g08.bks.cpg/sg40_6_cif.got.tgz:11111.got - 2010.06.03 18:35:42.
