data_PCOD9363519
_publ_section_title
;
Structure prediction by ZEFSAII (Michael W. Deem and Ramdas Pophale) SiO2 
 PCOD9363519
Probable space group: A M A 2
;
_chemical_formula_sum "Si O2"
_cell_formula_units_Z 64
_cell_length_a 17.703159
_cell_length_b 12.132397
_cell_length_c 16.362542
_cell_angle_alpha 90.000000
_cell_angle_beta 90.000000
_cell_angle_gamma 90.000000
_cell_volume 3514.375457
_symmetry_space_group_name_H-M "A M A 2"
_symmetry_group_IT_number 40
_symmetry_cell_setting 'orthorhombic'
loop_
_space_group_symop_operation_xyz
x,y,z
-x,-y,z
1/2-x,y,z
1/2+x,-y,z
x,1/2+y,1/2+z
-x,1/2-y,1/2+z
1/2-x,1/2+y,1/2+z
1/2+x,1/2-y,1/2+z
loop_
_atom_site_type_symbol
_atom_site_label
_atom_site_fract_x
_atom_site_fract_y
_atom_site_fract_z
Si Si1 0.590112 0.493582 0.551830
Si Si2 0.160783 0.154453 0.516891
Si Si3 0.659573 0.795326 0.815479
Si Si4 0.092333 0.332380 0.412561
Si Si5 0.419967 0.949639 0.587949
Si Si6 0.658641 0.546719 0.261544
Si Si7 0.926112 0.767568 0.979071
Si Si8 0.159295 0.329838 0.657818
O O1 0.500000 0.500000 0.560447
O O2 0.614251 0.566096 0.472825
O O3 0.606072 0.367075 0.534159
O O4 0.627292 0.554281 0.628054
O O5 0.250000 0.136846 0.521933
O O6 0.139223 0.224189 0.437239
O O7 0.137794 0.236273 0.591394
O O8 0.118389 0.040459 0.529329
O O9 0.750000 0.791581 0.816302
O O10 0.628305 0.757503 0.901879
O O11 0.631935 0.713465 0.744622
O O12 0.640023 0.921124 0.790174
O O13 0.112614 0.372987 0.322310
O O14 0.006157 0.304525 0.438234
O O15 0.368113 0.936585 0.668319
O O16 0.433048 0.839197 0.535694
O O17 0.500000 0.000000 0.615136
O O18 0.750000 0.561009 0.268744
O O19 0.250000 0.335231 0.657691
#
# Coordination Sequence:
#
# PCOD9363519 Si02
#       8
#     8   8   8   8   8   8   8   8
#     4   9  19  34  58  86 119 154 195 243 299 359
#     4  10  19  37  63  87 121 165 205 249 304 371
#     4  10  21  37  60  90 122 159 208 256 306 368
#     4  10  20  38  62  91 123 153 207 260 305 365
#     4  12  25  40  61  92 129 164 205 255 314 381
#     4  11  23  39  64  96 123 157 209 265 314 361
#     4  11  23  40  59  90 126 163 204 251 319 372
#     4   9  18  35  59  88 116 151 202 250 297 362
#
# _framework density 18.210917999999999
#
# number of rings (size 3 to 8) (size 9 to 14) (size 15 to 20)
#    0.000    1.750    3.750    0.750    1.750    2.000 
#    0.000    1.875    0.000    1.500    0.000    0.000 
#    0.000    0.000    0.000    0.000    0.000    0.000 
#
# Total GULP energy -178523.666864 kJ/mol
# GULP energy per Si atom -5578.864589 kJ/mol
# Density = 1.816947 g / cm^3
# Si number density = 18.210918 Si / 1000 Ang^3
#
#
#
# Elastic Constant Matrix: (Units=GPa)
#
#
# Indices 1 2 3 4 5 6 
#
# 1 36.6087 28.6811 19.3525 0.0000 0.0000 0.0000
# 2 28.6811 109.5877 57.1077 0.0000 0.0000 0.0000
# 3 19.3525 57.1077 98.4072 0.0000 0.0000 0.0000
# 4 0.0000 0.0000 0.0000 30.3756 0.0000 0.0000
# 5 0.0000 0.0000 0.0000 0.0000 18.4991 0.0000
# 6 0.0000 0.0000 0.0000 0.0000 0.0000 26.1134
#
#
#
# Elastic Compliance Matrix: (Units=1/GPa)
#
#
# Indices 1 2 3 4 5 6 
#
# 1 0.034699 -0.007921 -0.002227 0.000000 0.000000 0.000000
# 2 -0.007921 0.014889 -0.007083 0.000000 0.000000 0.000000
# 3 -0.002227 -0.007083 0.014710 0.000000 0.000000 0.000000
# 4 0.000000 0.000000 0.000000 0.032921 0.000000 0.000000
# 5 0.000000 0.000000 0.000000 0.000000 0.054057 0.000000
# 6 0.000000 0.000000 0.000000 0.000000 0.000000 0.038294
#
#
# Mechanical properties :
#
#
# Convention : Reuss Voigt Hill
#
# Bulk Modulus (GPa) = 33.51585 50.54292 42.02939
# Shear Modulus (GPa) = 21.36961 24.29511 22.83236
#
# Velocity S-wave (km/s) = 3.42928 3.65649 3.54471
# Velocity P-wave (km/s) = 5.84159 6.75581 6.31527
#
# Compressibility (1/GPa) = 0.02983663
#
# Stress axis : x y z
#
# Youngs Moduli (GPa) = 28.81946 67.16361 67.98038
#
# Poissons Ratio (x) = 0.53198 0.15141
# Poissons Ratio (y) = 0.22827 0.48149
# Poissons Ratio (z) = 0.06419 0.47570
#
# Static dielectric constant tensor:
#      x y z
#    x 1.640740 0.000000 0.000000 
#    y 0.000000 1.626250 0.000000 
#    z 0.000000 0.000000 1.626490 
# 
# From -- ./inp_files/17876.got.cif
#   From: 2010.05.17/outbox.cif.g08.bks.cpg/sg40_9_cif.got.tgz:17876.got - 2010.06.03 18:35:42.
