data_PCOD9363587
_publ_section_title
;
Structure prediction by ZEFSAII (Michael W. Deem and Ramdas Pophale) SiO2 
 PCOD9363587
Probable space group: A M A 2
;
_chemical_formula_sum "Si O2"
_cell_formula_units_Z 44
_cell_length_a 14.368158
_cell_length_b 9.232317
_cell_length_c 16.839151
_cell_angle_alpha 90.000000
_cell_angle_beta 90.000000
_cell_angle_gamma 90.000000
_cell_volume 2233.736776
_symmetry_space_group_name_H-M "A M A 2"
_symmetry_group_IT_number 40
_symmetry_cell_setting 'orthorhombic'
loop_
_space_group_symop_operation_xyz
x,y,z
-x,-y,z
1/2-x,y,z
1/2+x,-y,z
x,1/2+y,1/2+z
-x,1/2-y,1/2+z
1/2-x,1/2+y,1/2+z
1/2+x,1/2-y,1/2+z
loop_
_atom_site_type_symbol
_atom_site_label
_atom_site_fract_x
_atom_site_fract_y
_atom_site_fract_z
Si Si1 0.250000 0.183582 0.752171
Si Si2 0.750000 0.839539 0.144893
Si Si3 0.090530 0.915933 0.419184
Si Si4 0.587062 0.397858 0.357763
Si Si5 0.250000 0.909077 0.538048
Si Si6 0.750000 0.486090 0.813788
Si Si7 0.111270 0.492733 0.531608
Si Si8 0.250000 0.742621 0.065970
O O1 0.339418 0.102248 0.786801
O O2 0.250000 0.344091 0.790194
O O3 0.250000 0.216294 0.659979
O O4 0.750000 0.885852 0.236407
O O5 0.837354 0.911939 0.098667
O O6 0.750000 0.670164 0.122589
O O7 0.060982 0.770485 0.372683
O O8 0.158347 0.864446 0.489473
O O9 0.155692 0.021027 0.365442
O O10 0.000000 0.000000 0.447338
O O11 0.500000 0.500000 0.341034
O O12 0.629511 0.453523 0.441639
O O13 0.250000 0.081331 0.534219
O O14 0.159579 0.335759 0.541106
O O15 0.000000 0.500000 0.542028
#
# Coordination Sequence:
#
# PCOD9363587 Si02
#       8
#     4   4   8   8   4   4   8   4
#     4  10  19  42  61  88 131 157 199 263 313 369
#     4  11  19  41  59  90 126 159 203 252 317 374
#     4  10  22  41  62  90 124 161 213 262 306 367
#     4  10  21  39  66  92 117 165 216 258 306 371
#     4  11  24  38  61  90 128 163 201 269 319 365
#     4   9  20  39  64  85 121 167 204 247 312 375
#     4  10  21  38  65  92 115 164 220 254 299 382
#     4  11  24  40  61  93 128 166 199 257 335 373
#
# _framework density 19.697935000000001
#
# number of rings (size 3 to 8) (size 9 to 14) (size 15 to 20)
#    0.000    1.818    3.636    1.636    5.091    0.727 
#    3.273    0.909    0.000    0.000    0.000    0.000 
#    0.000    0.000    0.000    0.000    0.000    0.000 
#
# Total GULP energy -122723.608433 kJ/mol
# GULP energy per Si atom -5578.345838 kJ/mol
# Density = 1.965310 g / cm^3
# Si number density = 19.697935 Si / 1000 Ang^3
#
#
#
# Elastic Constant Matrix: (Units=GPa)
#
#
# Indices 1 2 3 4 5 6 
#
# 1 117.7588 42.8993 20.8000 0.0000 0.0000 0.0000
# 2 42.8993 100.4222 10.1783 0.0000 0.0000 0.0000
# 3 20.8000 10.1783 78.5841 0.0000 0.0000 0.0000
# 4 0.0000 0.0000 0.0000 39.4735 0.0000 0.0000
# 5 0.0000 0.0000 0.0000 0.0000 16.1885 0.0000
# 6 0.0000 0.0000 0.0000 0.0000 0.0000 16.2884
#
#
#
# Elastic Compliance Matrix: (Units=1/GPa)
#
#
# Indices 1 2 3 4 5 6 
#
# 1 0.010423 -0.004228 -0.002211 0.000000 0.000000 0.000000
# 2 -0.004228 0.011806 -0.000410 0.000000 0.000000 0.000000
# 3 -0.002211 -0.000410 0.013364 0.000000 0.000000 0.000000
# 4 0.000000 0.000000 0.000000 0.025333 0.000000 0.000000
# 5 0.000000 0.000000 0.000000 0.000000 0.061772 0.000000
# 6 0.000000 0.000000 0.000000 0.000000 0.000000 0.061394
#
#
# Mechanical properties :
#
#
# Convention : Reuss Voigt Hill
#
# Bulk Modulus (GPa) = 45.67588 49.39115 47.53352
# Shear Modulus (GPa) = 24.37976 29.24924 26.81450
#
# Velocity S-wave (km/s) = 3.52189 3.85761 3.69356
# Velocity P-wave (km/s) = 6.30688 6.70598 6.50949
#
# Compressibility (1/GPa) = 0.02189339
#
# Stress axis : x y z
#
# Youngs Moduli (GPa) = 95.94250 84.70372 74.83039
#
# Poissons Ratio (x) = 0.35817 0.16546
# Poissons Ratio (y) = 0.40569 0.03067
# Poissons Ratio (z) = 0.21214 0.03472
#
# Static dielectric constant tensor:
#      x y z
#    x 1.679130 0.000000 0.000000 
#    y 0.000000 1.752410 0.000000 
#    z 0.000000 0.000000 1.731350 
# 
# From -- ./inp_files/20518.got.cif
#   From: 2010.05.17/outbox.cif.g08.bks.cpg/sg40_11_cif.got.tgz:20518.got - 2010.06.03 18:35:42.
