data_PCOD9363472
_publ_section_title
;
Structure prediction by ZEFSAII (Michael W. Deem and Ramdas Pophale) SiO2 
 PCOD9363472
Probable space group: A M A 2
;
_chemical_formula_sum "Si O2"
_cell_formula_units_Z 64
_cell_length_a 15.065291
_cell_length_b 18.278553
_cell_length_c 11.796978
_cell_angle_alpha 90.000000
_cell_angle_beta 90.000000
_cell_angle_gamma 90.000000
_cell_volume 3248.554123
_symmetry_space_group_name_H-M "A M A 2"
_symmetry_group_IT_number 40
_symmetry_cell_setting 'orthorhombic'
loop_
_space_group_symop_operation_xyz
x,y,z
-x,-y,z
1/2-x,y,z
1/2+x,-y,z
x,1/2+y,1/2+z
-x,1/2-y,1/2+z
1/2-x,1/2+y,1/2+z
1/2+x,1/2-y,1/2+z
loop_
_atom_site_type_symbol
_atom_site_label
_atom_site_fract_x
_atom_site_fract_y
_atom_site_fract_z
Si Si1 0.851155 0.573554 0.707220
Si Si2 0.357217 0.357619 0.111158
Si Si3 0.852310 0.309866 0.630591
Si Si4 0.971805 0.074651 0.422937
Si Si5 0.592645 0.460198 0.529004
Si Si6 0.351667 0.167698 0.400802
Si Si7 0.143242 0.822851 0.013724
Si Si8 0.642908 0.056034 0.834800
O O1 0.750000 0.583299 0.751045
O O2 0.923527 0.558938 0.803310
O O3 0.847104 0.506886 0.616753
O O4 0.880746 0.646161 0.637084
O O5 0.250000 0.356862 0.112138
O O6 0.387011 0.273036 0.121346
O O7 0.385382 0.413271 0.212254
O O8 0.398467 0.384825 0.995609
O O9 0.750000 0.312123 0.588736
O O10 0.901892 0.375573 0.565076
O O11 0.849182 0.321633 0.765514
O O12 0.064733 0.116087 0.416744
O O13 0.000000 0.000000 0.481289
O O14 0.500000 0.500000 0.550206
O O15 0.615622 0.480790 0.398179
O O16 0.250000 0.144708 0.433380
O O17 0.374158 0.241670 0.470317
O O18 0.250000 0.829325 0.011483
O O19 0.109948 0.881043 0.921475
O O20 0.750000 0.055466 0.833038
#
# Coordination Sequence:
#
# PCOD9363472 Si02
#       8
#     8   8   8   8   8   8   8   8
#     4  10  20  37  61  88 120 154 194 249 307 363
#     4  10  22  41  64  84 117 166 213 258 313 380
#     4  10  19  36  61  91 122 158 205 259 319 382
#     4  12  26  39  56  84 118 160 209 253 303 374
#     4  11  21  32  57  94 130 154 199 260 317 371
#     4  10  20  36  60  88 121 156 196 251 312 377
#     4   8  15  32  59  87 113 147 191 240 300 368
#     4   9  17  35  59  84 111 153 200 244 303 369
#
# _framework density 19.701073000000001
#
# number of rings (size 3 to 8) (size 9 to 14) (size 15 to 20)
#    0.000    2.000    1.250    4.125    0.000    5.500 
#    0.000    0.000    2.750    0.000    0.000    0.000 
#    0.000    0.000    0.000    0.000    0.000    0.000 
#
# Total GULP energy -178248.020858 kJ/mol
# GULP energy per Si atom -5570.250652 kJ/mol
# Density = 1.965623 g / cm^3
# Si number density = 19.701073 Si / 1000 Ang^3
#
#
#
# Elastic Constant Matrix: (Units=GPa)
#
#
# Indices 1 2 3 4 5 6 
#
# 1 55.5431 21.1068 21.3479 0.0000 0.0000 0.0000
# 2 21.1068 86.6518 39.9719 0.0000 0.0000 0.0000
# 3 21.3479 39.9719 61.3936 0.0000 0.0000 0.0000
# 4 0.0000 0.0000 0.0000 6.3339 0.0000 0.0000
# 5 0.0000 0.0000 0.0000 0.0000 2.1704 0.0000
# 6 0.0000 0.0000 0.0000 0.0000 0.0000 18.9882
#
#
#
# Elastic Compliance Matrix: (Units=1/GPa)
#
#
# Indices 1 2 3 4 5 6 
#
# 1 0.021158 -0.002515 -0.005719 0.000000 0.000000 0.000000
# 2 -0.002515 0.016793 -0.010059 0.000000 0.000000 0.000000
# 3 -0.005719 -0.010059 0.024826 0.000000 0.000000 0.000000
# 4 0.000000 0.000000 0.000000 0.157881 0.000000 0.000000
# 5 0.000000 0.000000 0.000000 0.000000 0.460753 0.000000
# 6 0.000000 0.000000 0.000000 0.000000 0.000000 0.052664
#
#
# Mechanical properties :
#
#
# Convention : Reuss Voigt Hill
#
# Bulk Modulus (GPa) = 38.18252 40.93797 39.56024
# Shear Modulus (GPa) = 6.41524 13.57596 9.99560
#
# Velocity S-wave (km/s) = 1.80648 2.62791 2.25492
# Velocity P-wave (km/s) = 4.87587 5.48020 5.18685
#
# Compressibility (1/GPa) = 0.02619000
#
# Stress axis : x y z
#
# Youngs Moduli (GPa) = 47.26312 59.54742 40.27979
#
# Poissons Ratio (x) = 0.14979 0.23038
# Poissons Ratio (y) = 0.11889 0.40518
# Poissons Ratio (z) = 0.27032 0.59899
#
# Static dielectric constant tensor:
#      x y z
#    x 1.734260 0.000000 0.000000 
#    y 0.000000 1.760950 0.000000 
#    z 0.000000 0.000000 1.687870 
# 
# From -- ./inp_files/12419.got.cif
#   From: 2010.05.17/outbox.cif.g08.bks.cpg/sg40_7_cif.got.tgz:12419.got - 2010.06.03 18:35:42.
