data_PCOD9363365
_publ_section_title
;
Structure prediction by ZEFSAII (Michael W. Deem and Ramdas Pophale) SiO2 
 PCOD9363365
Probable space group: A M A 2
;
_chemical_formula_sum "Si O2"
_cell_formula_units_Z 56
_cell_length_a 8.473203
_cell_length_b 15.064556
_cell_length_c 22.401440
_cell_angle_alpha 90.000000
_cell_angle_beta 90.000000
_cell_angle_gamma 90.000000
_cell_volume 2859.432729
_symmetry_space_group_name_H-M "A M A 2"
_symmetry_group_IT_number 40
_symmetry_cell_setting 'orthorhombic'
loop_
_space_group_symop_operation_xyz
x,y,z
-x,-y,z
1/2-x,y,z
1/2+x,-y,z
x,1/2+y,1/2+z
-x,1/2-y,1/2+z
1/2-x,1/2+y,1/2+z
1/2+x,1/2-y,1/2+z
loop_
_atom_site_type_symbol
_atom_site_label
_atom_site_fract_x
_atom_site_fract_y
_atom_site_fract_z
Si Si1 0.061071 0.100249 0.444240
Si Si2 0.438586 0.096541 0.661372
Si Si3 0.442430 0.715929 0.831726
Si Si4 0.559805 0.404481 0.585636
Si Si5 0.939260 0.212669 0.555291
Si Si6 0.440379 0.595927 0.723437
Si Si7 0.560699 0.094728 0.796789
O O1 0.250000 0.097624 0.442646
O O2 0.003682 0.155892 0.386720
O O3 0.007833 0.152164 0.503145
O O4 0.000000 0.000000 0.443538
O O5 0.250000 0.097151 0.660265
O O6 0.506464 0.171599 0.618239
O O7 0.498708 0.106324 0.729092
O O8 0.500000 0.000000 0.640070
O O9 0.250000 0.714923 0.832115
O O10 0.493349 0.671258 0.769354
O O11 0.490893 0.818611 0.833387
O O12 0.500000 0.500000 0.564018
O O13 0.750000 0.406834 0.585628
O O14 0.509089 0.315633 0.551443
O O15 0.506553 0.393402 0.654917
O O16 0.750000 0.209941 0.552957
O O17 0.500000 0.500000 0.744679
O O18 0.250000 0.595768 0.723073
O O19 0.750000 0.092038 0.794396
O O20 0.500000 0.000000 0.819344
#
# Coordination Sequence:
#
# PCOD9363365 Si02
#       7
#     8   8   8   8   8   8   8
#     4  11  23  40  59  82 109 142 182 228 275 325
#     4  11  21  34  54  83 114 146 181 225 276 331
#     4   9  19  35  56  77 106 145 181 216 265 320
#     4   9  19  34  55  80 109 140 175 218 267 319
#     4  11  22  38  57  79 108 147 187 228 275 327
#     4   9  16  30  51  78 106 136 169 208 258 315
#     4  10  19  35  56  81 111 144 180 223 271 325
#
# _framework density 19.584305000000001
#
# number of rings (size 3 to 8) (size 9 to 14) (size 15 to 20)
#    0.000    2.000    0.000    5.143    0.000    3.429 
#    0.000    8.571    0.000    3.429    0.000    0.000 
#    0.000    0.000    0.000    0.000    0.000    0.000 
#
# Total GULP energy -156370.648672 kJ/mol
# GULP energy per Si atom -5584.666024 kJ/mol
# Density = 1.953973 g / cm^3
# Si number density = 19.584305 Si / 1000 Ang^3
#
#
#
# Elastic Constant Matrix: (Units=GPa)
#
#
# Indices 1 2 3 4 5 6 
#
# 1 47.5602 32.2986 14.5780 0.0000 0.0000 0.0000
# 2 32.2986 205.9787 60.3483 0.0000 0.0000 0.0000
# 3 14.5780 60.3483 44.2577 0.0000 0.0000 0.0000
# 4 0.0000 0.0000 0.0000 28.3328 0.0000 0.0000
# 5 0.0000 0.0000 0.0000 0.0000 81.9198 0.0000
# 6 0.0000 0.0000 0.0000 0.0000 0.0000 29.9755
#
#
#
# Elastic Compliance Matrix: (Units=1/GPa)
#
#
# Indices 1 2 3 4 5 6 
#
# 1 0.024090 -0.002419 -0.004636 0.000000 0.000000 0.000000
# 2 -0.002419 0.008328 -0.010558 0.000000 0.000000 0.000000
# 3 -0.004636 -0.010558 0.038519 0.000000 0.000000 0.000000
# 4 0.000000 0.000000 0.000000 0.035295 0.000000 0.000000
# 5 0.000000 0.000000 0.000000 0.000000 0.012207 0.000000
# 6 0.000000 0.000000 0.000000 0.000000 0.000000 0.033361
#
#
# Mechanical properties :
#
#
# Convention : Reuss Voigt Hill
#
# Bulk Modulus (GPa) = 28.00419 56.91626 42.46022
# Shear Modulus (GPa) = 25.13444 40.75039 32.94242
#
# Velocity S-wave (km/s) = 3.58634 4.56649 4.10577
# Velocity P-wave (km/s) = 5.61066 7.54514 6.64863
#
# Compressibility (1/GPa) = 0.03570894
#
# Stress axis : x y z
#
# Youngs Moduli (GPa) = 41.51113 120.08197 25.96103
#
# Poissons Ratio (x) = 0.29048 0.12037
# Poissons Ratio (y) = 0.10042 0.27411
# Poissons Ratio (z) = 0.19246 1.26788
#
# Static dielectric constant tensor:
#      x y z
#    x 1.665360 0.000000 0.000000 
#    y 0.000000 1.715910 0.000000 
#    z 0.000000 0.000000 1.669530 
# 
# From -- ./inp_files/22161.got.cif
#   From: 2010.05.17/outbox.cif.g08.bks.cpg/sg40_12_cif.got.tgz:22161.got - 2010.06.03 18:35:42.
