data_PCOD9363493
_publ_section_title
;
Structure prediction by ZEFSAII (Michael W. Deem and Ramdas Pophale) SiO2 
 PCOD9363493
Probable space group: A M A 2
;
_chemical_formula_sum "Si O2"
_cell_formula_units_Z 56
_cell_length_a 13.787937
_cell_length_b 8.784361
_cell_length_c 18.978492
_cell_angle_alpha 90.000000
_cell_angle_beta 90.000000
_cell_angle_gamma 90.000000
_cell_volume 2298.641094
_symmetry_space_group_name_H-M "A M A 2"
_symmetry_group_IT_number 40
_symmetry_cell_setting 'orthorhombic'
loop_
_space_group_symop_operation_xyz
x,y,z
-x,-y,z
1/2-x,y,z
1/2+x,-y,z
x,1/2+y,1/2+z
-x,1/2-y,1/2+z
1/2-x,1/2+y,1/2+z
1/2+x,1/2-y,1/2+z
loop_
_atom_site_type_symbol
_atom_site_label
_atom_site_fract_x
_atom_site_fract_y
_atom_site_fract_z
Si Si1 0.639547 0.430705 0.973120
Si Si2 0.365792 0.231098 0.013572
Si Si3 0.632477 0.098277 0.953250
Si Si4 0.956047 0.154629 0.647673
Si Si5 0.864228 0.026264 0.793002
Si Si6 0.146789 0.083784 0.305315
Si Si7 0.438656 0.292681 0.757627
O O1 0.750000 0.432672 0.003709
O O2 0.646542 0.428327 0.888778
O O3 0.598287 0.259046 0.988508
O O4 0.599053 0.601701 0.986082
O O5 0.250000 0.230374 0.001440
O O6 0.391015 0.247324 0.096028
O O7 0.400351 0.068553 0.981746
O O8 0.750000 0.101374 0.961303
O O9 0.615205 0.103293 0.868669
O O10 0.045887 0.253349 0.675982
O O11 0.900343 0.096992 0.718543
O O12 0.000000 0.000000 0.615197
O O13 0.750000 0.002843 0.788503
O O14 0.913431 0.861911 0.796695
O O15 0.250000 0.158486 0.284228
O O16 0.043768 0.149123 0.282084
O O17 0.141377 0.916157 0.272947
#
# Coordination Sequence:
#
# PCOD9363493 Si02
#       7
#     8   8   8   8   8   8   8
#     4   9  18  35  60  91 128 165 214 274 331 401
#     4  10  20  37  61  88 124 174 222 268 335 411
#     4   9  18  34  62  97 127 162 220 282 333 399
#     4  10  22  39  57  84 129 174 219 274 332 403
#     4  10  19  36  64  94 128 172 221 280 344 400
#     4  10  20  37  62  94 131 172 215 277 349 401
#     4  10  21  36  58  93 129 166 221 279 327 407
#
# _framework density 24.362221000000002
#
# number of rings (size 3 to 8) (size 9 to 14) (size 15 to 20)
#    0.000    2.286    0.000    2.571    0.000    4.571 
#    5.143    5.714    0.000    6.857    0.000    0.000 
#    0.000    0.000    0.000    0.000    0.000    0.000 
#
# Total GULP energy -156206.068962 kJ/mol
# GULP energy per Si atom -5578.788177 kJ/mol
# Density = 2.430677 g / cm^3
# Si number density = 24.362221 Si / 1000 Ang^3
#
#
#
# Elastic Constant Matrix: (Units=GPa)
#
#
# Indices 1 2 3 4 5 6 
#
# 1 99.0393 56.7814 19.9678 0.0000 0.0000 0.0000
# 2 56.7814 209.1569 60.2589 0.0000 0.0000 0.0000
# 3 19.9678 60.2589 54.3932 0.0000 0.0000 0.0000
# 4 0.0000 0.0000 0.0000 -3.6923 0.0000 0.0000
# 5 0.0000 0.0000 0.0000 0.0000 19.9429 0.0000
# 6 0.0000 0.0000 0.0000 0.0000 0.0000 35.8736
#
#
#
# Elastic Compliance Matrix: (Units=1/GPa)
#
#
# Indices 1 2 3 4 5 6 
#
# 1 0.012009 -0.002923 -0.001170 0.000000 0.000000 0.000000
# 2 -0.002923 0.007734 -0.007495 0.000000 0.000000 0.000000
# 3 -0.001170 -0.007495 0.027117 0.000000 0.000000 0.000000
# 4 0.000000 0.000000 0.000000 -0.270836 0.000000 0.000000
# 5 0.000000 0.000000 0.000000 0.000000 0.050143 0.000000
# 6 0.000000 0.000000 0.000000 0.000000 0.000000 0.027876
#
#
# Mechanical properties :
#
#
# Convention : Reuss Voigt Hill
#
# Bulk Modulus (GPa) = 42.22295 70.73395 56.47845
# Shear Modulus (GPa) = -43.52140 25.46360 -9.02890
#
# Velocity S-wave (km/s) = -4.23120 3.23648 -1.92721
# Velocity P-wave (km/s) = 2.54987 6.56229 4.27562
#
# Compressibility (1/GPa) = 0.02368381
#
# Stress axis : x y z
#
# Youngs Moduli (GPa) = 83.27275 129.30040 36.87665
#
# Poissons Ratio (x) = 0.37794 0.04316
# Poissons Ratio (y) = 0.24340 0.27639
# Poissons Ratio (z) = 0.09745 0.96910
#
# Static dielectric constant tensor:
#      x y z
#    x 1.986670 0.000000 0.000000 
#    y 0.000000 2.113120 0.000000 
#    z 0.000000 0.000000 1.900660 
# 
# From -- ./inp_files/23119.got.cif
#   From: 2010.05.17/outbox.cif.g08.bks.cpg/sg40_12_cif.got.tgz:23119.got - 2010.06.03 18:35:42.
