data_PCOD9363459
_publ_section_title
;
Structure prediction by ZEFSAII (Michael W. Deem and Ramdas Pophale) SiO2 
 PCOD9363459
Probable space group: A M A 2
;
_chemical_formula_sum "Si O2"
_cell_formula_units_Z 48
_cell_length_a 17.266855
_cell_length_b 10.339680
_cell_length_c 15.711984
_cell_angle_alpha 90.000000
_cell_angle_beta 90.000000
_cell_angle_gamma 90.000000
_cell_volume 2805.119507
_symmetry_space_group_name_H-M "A M A 2"
_symmetry_group_IT_number 40
_symmetry_cell_setting 'orthorhombic'
loop_
_space_group_symop_operation_xyz
x,y,z
-x,-y,z
1/2-x,y,z
1/2+x,-y,z
x,1/2+y,1/2+z
-x,1/2-y,1/2+z
1/2-x,1/2+y,1/2+z
1/2+x,1/2-y,1/2+z
loop_
_atom_site_type_symbol
_atom_site_label
_atom_site_fract_x
_atom_site_fract_y
_atom_site_fract_z
Si Si1 0.341066 0.722868 0.435850
Si Si2 0.556286 0.878017 0.278193
Si Si3 0.842723 0.269093 0.630362
Si Si4 0.447902 0.127657 0.788574
Si Si5 0.591540 0.481199 0.115366
Si Si6 0.341183 0.533266 0.934190
O O1 0.250000 0.698660 0.424264
O O2 0.361521 0.690425 0.533407
O O3 0.390154 0.647782 0.366468
O O4 0.353215 0.877811 0.426191
O O5 0.614016 0.855625 0.199380
O O6 0.503542 0.751085 0.284983
O O7 0.606497 0.899214 0.363378
O O8 0.500000 0.000000 0.266307
O O9 0.750000 0.272127 0.640673
O O10 0.871884 0.120695 0.638111
O O11 0.404503 0.109331 0.698179
O O12 0.500000 0.000000 0.798887
O O13 0.500000 0.500000 0.096812
O O14 0.632638 0.432147 0.029959
O O15 0.250000 0.559342 0.922633
#
# Coordination Sequence:
#
# PCOD9363459 Si02
#       6
#     8   8   8   8   8   8
#     4   9  20  38  60  84 116 156 192 238 296 351
#     4  12  22  37  62  88 119 154 194 246 292 343
#     4  10  21  39  61  86 119 158 197 239 297 357
#     4  11  22  38  58  89 118 149 194 240 291 346
#     4  10  19  36  60  87 116 153 200 239 285 353
#     4  10  21  37  60  87 116 155 200 241 289 351
#
# _framework density 17.11157
#
# number of rings (size 3 to 8) (size 9 to 14) (size 15 to 20)
#    0.000    1.667    5.000    2.500    2.333    2.000 
#    0.000    0.000    0.000    2.000    0.000    0.000 
#    0.000    0.000    0.000    0.000    0.000    0.000 
#
# Total GULP energy -133947.691096 kJ/mol
# GULP energy per Si atom -5581.153796 kJ/mol
# Density = 1.707262 g / cm^3
# Si number density = 17.111570 Si / 1000 Ang^3
#
#
#
# Elastic Constant Matrix: (Units=GPa)
#
#
# Indices 1 2 3 4 5 6 
#
# 1 86.5876 50.7109 87.1744 0.0000 0.0000 0.0000
# 2 50.7109 86.9789 68.7329 0.0000 0.0000 0.0000
# 3 87.1744 68.7329 177.4784 0.0000 0.0000 0.0000
# 4 0.0000 0.0000 0.0000 33.0995 0.0000 0.0000
# 5 0.0000 0.0000 0.0000 0.0000 37.0481 0.0000
# 6 0.0000 0.0000 0.0000 0.0000 0.0000 27.8150
#
#
#
# Elastic Compliance Matrix: (Units=1/GPa)
#
#
# Indices 1 2 3 4 5 6 
#
# 1 0.025635 -0.007199 -0.009804 0.000000 0.000000 0.000000
# 2 -0.007199 0.018589 -0.003663 0.000000 0.000000 0.000000
# 3 -0.009804 -0.003663 0.011868 0.000000 0.000000 0.000000
# 4 0.000000 0.000000 0.000000 0.030212 0.000000 0.000000
# 5 0.000000 0.000000 0.000000 0.000000 0.026992 0.000000
# 6 0.000000 0.000000 0.000000 0.000000 0.000000 0.035952
#
#
# Mechanical properties :
#
#
# Convention : Reuss Voigt Hill
#
# Bulk Modulus (GPa) = 67.74431 84.92014 76.33222
# Shear Modulus (GPa) = 25.57551 29.22096 27.39824
#
# Velocity S-wave (km/s) = 3.87024 4.13688 4.00578
# Velocity P-wave (km/s) = 7.72317 8.51783 8.13022
#
# Compressibility (1/GPa) = 0.01476139
#
# Stress axis : x y z
#
# Youngs Moduli (GPa) = 39.00893 53.79593 84.25711
#
# Poissons Ratio (x) = 0.38727 0.82602
# Poissons Ratio (y) = 0.28082 0.30863
# Poissons Ratio (z) = 0.38243 0.19705
#
# Static dielectric constant tensor:
#      x y z
#    x 1.575200 0.000000 0.000000 
#    y 0.000000 1.553160 0.000000 
#    z 0.000000 0.000000 1.582930 
# 
# From -- ./inp_files/16992.got.cif
#   From: 2010.05.17/outbox.cif.g08.bks.cpg/sg40_9_cif.got.tgz:16992.got - 2010.06.03 18:35:42.
