data_PCOD9363847
_publ_section_title
;
Structure prediction by ZEFSAII (Michael W. Deem and Ramdas Pophale) SiO2 
 PCOD9363847
Probable space group: A M A 2
;
_chemical_formula_sum "Si O2"
_cell_formula_units_Z 48
_cell_length_a 8.824655
_cell_length_b 23.418132
_cell_length_c 11.868678
_cell_angle_alpha 90.000000
_cell_angle_beta 90.000000
_cell_angle_gamma 90.000000
_cell_volume 2452.744626
_symmetry_space_group_name_H-M "A M A 2"
_symmetry_group_IT_number 40
_symmetry_cell_setting 'orthorhombic'
loop_
_space_group_symop_operation_xyz
x,y,z
-x,-y,z
1/2-x,y,z
1/2+x,-y,z
x,1/2+y,1/2+z
-x,1/2-y,1/2+z
1/2-x,1/2+y,1/2+z
1/2+x,1/2-y,1/2+z
loop_
_atom_site_type_symbol
_atom_site_label
_atom_site_fract_x
_atom_site_fract_y
_atom_site_fract_z
Si Si1 0.068766 0.937484 0.211940
Si Si2 0.569110 0.148167 0.760055
Si Si3 0.565740 0.142650 0.017774
Si Si4 0.922912 0.856026 0.394483
Si Si5 0.433449 0.731833 0.076011
Si Si6 0.422208 0.058382 0.605827
O O1 0.250000 0.942648 0.214847
O O2 0.018333 0.911968 0.090741
O O3 0.018789 0.888522 0.300449
O O4 0.000000 0.000000 0.235223
O O5 0.750000 0.154438 0.758894
O O6 0.498921 0.197658 0.681960
O O7 0.519170 0.089618 0.700900
O O8 0.515042 0.146339 0.888740
O O9 0.750000 0.141677 0.016239
O O10 0.521546 0.202201 0.076413
O O11 0.750000 0.846645 0.353909
O O12 0.979671 0.798530 0.457230
O O13 0.917711 0.899942 0.499083
O O14 0.250000 0.727299 0.079178
O O15 0.250000 0.049269 0.644150
O O16 0.500000 0.000000 0.572000
#
# Coordination Sequence:
#
# PCOD9363847 Si02
#       6
#     8   8   8   8   8   8
#     4  11  23  39  58  82 116 156 196 237 284 340
#     4  10  20  36  57  83 112 145 188 232 282 343
#     4   9  21  39  58  81 114 153 187 235 291 341
#     4   9  19  35  58  85 113 146 184 233 286 337
#     4   9  19  38  60  83 115 148 185 236 295 344
#     4  10  20  35  56  82 113 148 185 233 285 333
#
# _framework density 19.569914000000001
#
# number of rings (size 3 to 8) (size 9 to 14) (size 15 to 20)
#    0.000    2.333    0.000    3.000    2.333    5.333 
#    0.000    7.500    0.000    0.000    0.000    0.000 
#    0.000    0.000    0.000    0.000    0.000    0.000 
#
# Total GULP energy -133882.447793 kJ/mol
# GULP energy per Si atom -5578.435325 kJ/mol
# Density = 1.952537 g / cm^3
# Si number density = 19.569914 Si / 1000 Ang^3
#
#
#
# Elastic Constant Matrix: (Units=GPa)
#
#
# Indices 1 2 3 4 5 6 
#
# 1 40.0889 11.4092 24.1539 0.0000 0.0000 0.0000
# 2 11.4092 56.4108 3.7403 0.0000 0.0000 0.0000
# 3 24.1539 3.7403 80.6688 0.0000 0.0000 0.0000
# 4 0.0000 0.0000 0.0000 11.3850 0.0000 0.0000
# 5 0.0000 0.0000 0.0000 0.0000 21.1748 0.0000
# 6 0.0000 0.0000 0.0000 0.0000 0.0000 18.9149
#
#
#
# Elastic Compliance Matrix: (Units=1/GPa)
#
#
# Indices 1 2 3 4 5 6 
#
# 1 0.032285 -0.005907 -0.009393 0.000000 0.000000 0.000000
# 2 -0.005907 0.018862 0.000894 0.000000 0.000000 0.000000
# 3 -0.009393 0.000894 0.015167 0.000000 0.000000 0.000000
# 4 0.000000 0.000000 0.000000 0.087835 0.000000 0.000000
# 5 0.000000 0.000000 0.000000 0.000000 0.047226 0.000000
# 6 0.000000 0.000000 0.000000 0.000000 0.000000 0.052868
#
#
# Mechanical properties :
#
#
# Convention : Reuss Voigt Hill
#
# Bulk Modulus (GPa) = 26.66431 28.41948 27.54189
# Shear Modulus (GPa) = 16.91723 19.48594 18.20159
#
# Velocity S-wave (km/s) = 2.94334 3.15891 3.05303
# Velocity P-wave (km/s) = 5.02053 5.27811 5.15094
#
# Compressibility (1/GPa) = 0.03750332
#
# Stress axis : x y z
#
# Youngs Moduli (GPa) = 30.97420 53.01527 65.93108
#
# Poissons Ratio (x) = 0.31316 0.61928
# Poissons Ratio (y) = 0.18296 -0.05895
# Poissons Ratio (z) = 0.29094 -0.04740
#
# Static dielectric constant tensor:
#      x y z
#    x 1.677700 0.000000 0.000000 
#    y 0.000000 1.694020 0.000000 
#    z 0.000000 0.000000 1.693660 
# 
# From -- ./inp_files/10260.got.cif
#   From: 2010.05.17/outbox.cif.g08.bks.cpg/sg40_6_cif.got.tgz:10260.got - 2010.06.03 18:35:42.
