data_PCOD9363383
_publ_section_title
;
Structure prediction by ZEFSAII (Michael W. Deem and Ramdas Pophale) SiO2 
 PCOD9363383
Probable space group: A M A 2
;
_chemical_formula_sum "Si O2"
_cell_formula_units_Z 64
_cell_length_a 8.359448
_cell_length_b 33.665960
_cell_length_c 12.093744
_cell_angle_alpha 90.000000
_cell_angle_beta 90.000000
_cell_angle_gamma 90.000000
_cell_volume 3403.528369
_symmetry_space_group_name_H-M "A M A 2"
_symmetry_group_IT_number 40
_symmetry_cell_setting 'orthorhombic'
loop_
_space_group_symop_operation_xyz
x,y,z
-x,-y,z
1/2-x,y,z
1/2+x,-y,z
x,1/2+y,1/2+z
-x,1/2-y,1/2+z
1/2-x,1/2+y,1/2+z
1/2+x,1/2-y,1/2+z
loop_
_atom_site_type_symbol
_atom_site_label
_atom_site_fract_x
_atom_site_fract_y
_atom_site_fract_z
Si Si1 0.936101 0.175690 0.139490
Si Si2 0.942060 0.313082 0.395636
Si Si3 0.439279 0.955699 0.074177
Si Si4 0.566286 0.898471 0.259328
Si Si5 0.054709 0.648091 0.965002
Si Si6 0.442086 0.454662 0.326697
Si Si7 0.556855 0.273661 0.826324
Si Si8 0.557016 0.376792 0.209207
O O1 0.750000 0.165494 0.157975
O O2 0.049668 0.142505 0.192199
O O3 0.981048 0.214845 0.208178
O O4 0.972327 0.178420 0.011132
O O5 0.750000 0.315369 0.409228
O O6 0.991580 0.345240 0.303382
O O7 0.991522 0.268831 0.361277
O O8 0.250000 0.955617 0.066093
O O9 0.485734 0.929879 0.179318
O O10 0.500000 0.000000 0.090553
O O11 0.499488 0.942832 0.951736
O O12 0.750000 0.910181 0.272809
O O13 0.499837 0.886271 0.379451
O O14 0.250000 0.647622 0.963606
O O15 0.010045 0.690941 0.912660
O O16 0.001197 0.638513 0.088933
O O17 0.500000 0.500000 0.306026
O O18 0.250000 0.455075 0.324850
O O19 0.500983 0.420815 0.243072
O O20 0.750000 0.273036 0.819713
O O21 0.750000 0.377189 0.206433
#
# Coordination Sequence:
#
# PCOD9363383 Si02
#       8
#     8   8   8   8   8   8   8   8
#     4  11  22  37  56  78 109 147 188 232 282 337
#     4  11  23  36  56  86 116 148 190 238 290 348
#     4  10  20  34  55  84 116 146 182 229 285 344
#     4  10  19  35  58  81 109 143 185 232 282 340
#     4   8  18  37  58  79 108 150 189 230 285 342
#     4  10  21  37  58  85 116 149 187 233 287 342
#     4  10  21  38  59  82 112 148 190 240 294 346
#     4  10  21  38  59  83 114 151 192 236 286 347
#
# _framework density 18.804016000000001
#
# number of rings (size 3 to 8) (size 9 to 14) (size 15 to 20)
#    0.000    2.000    0.000    4.500    1.750    4.500 
#    0.000    4.375    0.000    0.000    0.000    0.000 
#    0.000    0.000    0.000    0.000    0.000    0.000 
#
# Total GULP energy -178540.957316 kJ/mol
# GULP energy per Si atom -5579.404916 kJ/mol
# Density = 1.876122 g / cm^3
# Si number density = 18.804016 Si / 1000 Ang^3
#
#
#
# Elastic Constant Matrix: (Units=GPa)
#
#
# Indices 1 2 3 4 5 6 
#
# 1 30.2515 2.5426 9.0008 0.0000 0.0000 0.0000
# 2 2.5426 75.5325 52.9701 0.0000 0.0000 0.0000
# 3 9.0008 52.9701 135.1890 0.0000 0.0000 0.0000
# 4 0.0000 0.0000 0.0000 12.7684 0.0000 0.0000
# 5 0.0000 0.0000 0.0000 0.0000 18.8773 0.0000
# 6 0.0000 0.0000 0.0000 0.0000 0.0000 33.4698
#
#
#
# Elastic Compliance Matrix: (Units=1/GPa)
#
#
# Indices 1 2 3 4 5 6 
#
# 1 0.033744 0.000606 -0.002484 0.000000 0.000000 0.000000
# 2 0.000606 0.018267 -0.007198 0.000000 0.000000 0.000000
# 3 -0.002484 -0.007198 0.010383 0.000000 0.000000 0.000000
# 4 0.000000 0.000000 0.000000 0.078319 0.000000 0.000000
# 5 0.000000 0.000000 0.000000 0.000000 0.052974 0.000000
# 6 0.000000 0.000000 0.000000 0.000000 0.000000 0.029878
#
#
# Mechanical properties :
#
#
# Convention : Reuss Voigt Hill
#
# Bulk Modulus (GPa) = 22.60277 41.11111 31.85694
# Shear Modulus (GPa) = 19.49606 24.78705 22.14155
#
# Velocity S-wave (km/s) = 3.22344 3.63461 3.43518
# Velocity P-wave (km/s) = 5.08924 6.28683 5.71947
#
# Compressibility (1/GPa) = 0.04424236
#
# Stress axis : x y z
#
# Youngs Moduli (GPa) = 29.63455 54.74496 96.31473
#
# Poissons Ratio (x) = -0.03319 0.23927
# Poissons Ratio (y) = -0.01796 0.69323
# Poissons Ratio (z) = 0.07362 0.39403
#
# Static dielectric constant tensor:
#      x y z
#    x 1.649320 0.000000 0.000000 
#    y 0.000000 1.649370 0.000000 
#    z 0.000000 0.000000 1.680390 
# 
# From -- ./inp_files/10662.got.cif
#   From: 2010.05.17/outbox.cif.g08.bks.cpg/sg40_6_cif.got.tgz:10662.got - 2010.06.03 18:35:42.
