data_PCOD9363698
_publ_section_title
;
Structure prediction by ZEFSAII (Michael W. Deem and Ramdas Pophale) SiO2 
 PCOD9363698
Probable space group: A M A 2
;
_chemical_formula_sum "Si O2"
_cell_formula_units_Z 64
_cell_length_a 14.179418
_cell_length_b 27.017335
_cell_length_c 7.236377
_cell_angle_alpha 90.000000
_cell_angle_beta 90.000000
_cell_angle_gamma 90.000000
_cell_volume 2772.184289
_symmetry_space_group_name_H-M "A M A 2"
_symmetry_group_IT_number 40
_symmetry_cell_setting 'orthorhombic'
loop_
_space_group_symop_operation_xyz
x,y,z
-x,-y,z
1/2-x,y,z
1/2+x,-y,z
x,1/2+y,1/2+z
-x,1/2-y,1/2+z
1/2-x,1/2+y,1/2+z
1/2+x,1/2-y,1/2+z
loop_
_atom_site_type_symbol
_atom_site_label
_atom_site_fract_x
_atom_site_fract_y
_atom_site_fract_z
Si Si1 0.463023 0.207076 0.069320
Si Si2 0.033558 0.952620 0.137666
Si Si3 0.640536 0.140635 0.173063
Si Si4 0.363289 0.493657 0.999330
Si Si5 0.640518 0.399749 0.159482
Si Si6 0.357444 0.888774 0.611464
Si Si7 0.857606 0.386579 0.606578
Si Si8 0.008826 0.183605 0.669618
O O1 0.564012 0.182987 0.126632
O O2 0.384975 0.170211 0.154551
O O3 0.469312 0.265720 0.090125
O O4 0.441638 0.200528 0.854654
O O5 0.106228 0.910233 0.074085
O O6 0.086614 0.979158 0.308546
O O7 0.939955 0.921034 0.186976
O O8 0.000000 0.000000 0.018508
O O9 0.750000 0.152464 0.134408
O O10 0.633825 0.127502 0.393693
O O11 0.250000 0.493189 0.970096
O O12 0.388664 0.546178 0.087318
O O13 0.384539 0.446066 0.126596
O O14 0.750000 0.392814 0.113464
O O15 0.633443 0.396368 0.383728
O O16 0.579052 0.355214 0.073888
O O17 0.250000 0.883060 0.665131
O O18 0.422038 0.851412 0.720145
O O19 0.750000 0.398392 0.659325
#
# Coordination Sequence:
#
# PCOD9363698 Si02
#       8
#     8   8   8   8   8   8   8   8
#     4  10  22  39  59  88 115 157 200 254 311 354
#     4  10  20  33  57  90 121 158 196 237 296 352
#     4   9  19  38  59  81 117 154 194 241 294 358
#     4   9  19  37  60  89 123 157 199 248 299 358
#     4   9  20  39  62  87 118 162 207 252 303 358
#     4   9  19  35  58  85 115 155 193 238 301 361
#     4   9  20  41  61  85 121 162 208 249 300 366
#     4  11  22  37  61  86 120 151 204 258 302 366
#
# _framework density 23.086487999999999
#
# number of rings (size 3 to 8) (size 9 to 14) (size 15 to 20)
#    0.000    2.500    0.000    1.875    3.500    2.500 
#    6.750    2.500    0.000    0.000    0.000    0.000 
#    0.000    0.000    0.000    0.000    0.000    0.000 
#
# Total GULP energy -178564.708573 kJ/mol
# GULP energy per Si atom -5580.147143 kJ/mol
# Density = 2.303394 g / cm^3
# Si number density = 23.086488 Si / 1000 Ang^3
#
#
#
# Elastic Constant Matrix: (Units=GPa)
#
#
# Indices 1 2 3 4 5 6 
#
# 1 113.9232 40.3972 0.0793 0.0000 0.0000 0.0000
# 2 40.3972 179.5416 29.8734 0.0000 0.0000 0.0000
# 3 0.0793 29.8734 60.2502 0.0000 0.0000 0.0000
# 4 0.0000 0.0000 0.0000 35.4871 0.0000 0.0000
# 5 0.0000 0.0000 0.0000 0.0000 19.3764 0.0000
# 6 0.0000 0.0000 0.0000 0.0000 0.0000 59.8145
#
#
#
# Elastic Compliance Matrix: (Units=1/GPa)
#
#
# Indices 1 2 3 4 5 6 
#
# 1 0.009612 -0.002355 0.001155 0.000000 0.000000 0.000000
# 2 -0.002355 0.006647 -0.003293 0.000000 0.000000 0.000000
# 3 0.001155 -0.003293 0.018229 0.000000 0.000000 0.000000
# 4 0.000000 0.000000 0.000000 0.028179 0.000000 0.000000
# 5 0.000000 0.000000 0.000000 0.000000 0.051609 0.000000
# 6 0.000000 0.000000 0.000000 0.000000 0.000000 0.016718
#
#
# Mechanical properties :
#
#
# Convention : Reuss Voigt Hill
#
# Bulk Modulus (GPa) = 39.21175 54.93498 47.07336
# Shear Modulus (GPa) = 33.67423 41.82661 37.75042
#
# Velocity S-wave (km/s) = 3.82332 4.26107 4.04812
# Velocity P-wave (km/s) = 6.04251 6.93223 6.50261
#
# Compressibility (1/GPa) = 0.02550256
#
# Stress axis : x y z
#
# Youngs Moduli (GPa) = 104.03562 150.43272 54.85881
#
# Poissons Ratio (x) = 0.35426 -0.06336
# Poissons Ratio (y) = 0.24499 0.18064
# Poissons Ratio (z) = -0.12016 0.49536
#
# Static dielectric constant tensor:
#      x y z
#    x 1.856530 0.000000 0.000000 
#    y 0.000000 1.899200 0.000000 
#    z 0.000000 0.000000 1.978010 
# 
# From -- ./inp_files/6870.got.cif
#   From: 2010.05.17/outbox.cif.g08.bks.cpg/sg40_4_cif.got.tgz:6870.got - 2010.06.03 18:35:42.
