data_PCOD9363517
_publ_section_title
;
Structure prediction by ZEFSAII (Michael W. Deem and Ramdas Pophale) SiO2 
 PCOD9363517
Probable space group: A M A 2
;
_chemical_formula_sum "Si O2"
_cell_formula_units_Z 64
_cell_length_a 16.696720
_cell_length_b 21.662618
_cell_length_c 7.873097
_cell_angle_alpha 90.000000
_cell_angle_beta 90.000000
_cell_angle_gamma 90.000000
_cell_volume 2847.657199
_symmetry_space_group_name_H-M "A M A 2"
_symmetry_group_IT_number 40
_symmetry_cell_setting 'orthorhombic'
loop_
_space_group_symop_operation_xyz
x,y,z
-x,-y,z
1/2-x,y,z
1/2+x,-y,z
x,1/2+y,1/2+z
-x,1/2-y,1/2+z
1/2-x,1/2+y,1/2+z
1/2+x,1/2-y,1/2+z
loop_
_atom_site_type_symbol
_atom_site_label
_atom_site_fract_x
_atom_site_fract_y
_atom_site_fract_z
Si Si1 0.155012 0.402675 0.425290
Si Si2 0.411158 0.471822 0.754092
Si Si3 0.155749 0.589580 0.929805
Si Si4 0.159973 0.160948 0.752682
Si Si5 0.095766 0.276129 0.576259
Si Si6 0.655782 0.759038 0.054990
Si Si7 0.459395 0.192610 0.315887
Si Si8 0.655757 0.613507 0.031616
O O1 0.250000 0.413352 0.434875
O O2 0.114815 0.447121 0.567393
O O3 0.136478 0.332220 0.479375
O O4 0.132556 0.406222 0.224778
O O5 0.500000 0.500000 0.745993
O O6 0.354544 0.523694 0.842195
O O7 0.400669 0.418108 0.893659
O O8 0.250000 0.608273 0.915450
O O9 0.089596 0.630341 0.834922
O O10 0.132913 0.605509 0.128250
O O11 0.250000 0.143803 0.798308
O O12 0.157678 0.224801 0.644065
O O13 0.121974 0.187903 0.925719
O O14 0.031319 0.229962 0.488910
O O15 0.040339 0.308485 0.714992
O O16 0.750000 0.772393 0.080411
O O17 0.606655 0.764992 0.224783
O O18 0.652725 0.687311 0.005473
O O19 0.750000 0.596278 0.006825
#
# Coordination Sequence:
#
# PCOD9363517 Si02
#       8
#     8   8   8   8   8   8   8   8
#     4  11  23  43  71  98 125 172 233 287 334 392
#     4  12  26  45  67  95 135 175 222 277 347 405
#     4  10  22  42  61  86 124 171 216 259 317 393
#     4   9  19  34  58  87 121 165 206 250 316 390
#     4  11  21  36  57  91 130 162 205 261 332 389
#     4  10  19  37  62  95 126 159 213 269 323 386
#     4  11  22  36  59  92 129 169 199 258 326 400
#     4  10  22  41  69 100 128 169 227 287 336 391
#
# _framework density 22.474615
#
# number of rings (size 3 to 8) (size 9 to 14) (size 15 to 20)
#    0.000    1.500    1.250    4.125    0.000    4.500 
#    4.500    0.000    0.000    0.000    0.000    0.000 
#    0.000    0.000    0.000    0.000    0.000    0.000 
#
# Total GULP energy -178352.876293 kJ/mol
# GULP energy per Si atom -5573.527384 kJ/mol
# Density = 2.242346 g / cm^3
# Si number density = 22.474615 Si / 1000 Ang^3
#
#
#
# Elastic Constant Matrix: (Units=GPa)
#
#
# Indices 1 2 3 4 5 6 
#
# 1 56.1825 9.4441 31.2419 0.0000 0.0000 0.0000
# 2 9.4441 70.0964 30.3056 0.0000 0.0000 0.0000
# 3 31.2419 30.3056 88.4286 0.0000 0.0000 0.0000
# 4 0.0000 0.0000 0.0000 42.4396 0.0000 0.0000
# 5 0.0000 0.0000 0.0000 0.0000 26.4594 0.0000
# 6 0.0000 0.0000 0.0000 0.0000 0.0000 32.7666
#
#
#
# Elastic Compliance Matrix: (Units=1/GPa)
#
#
# Indices 1 2 3 4 5 6 
#
# 1 0.022164 0.000469 -0.007991 0.000000 0.000000 0.000000
# 2 0.000469 0.016757 -0.005909 0.000000 0.000000 0.000000
# 3 -0.007991 -0.005909 0.016157 0.000000 0.000000 0.000000
# 4 0.000000 0.000000 0.000000 0.023563 0.000000 0.000000
# 5 0.000000 0.000000 0.000000 0.000000 0.037794 0.000000
# 6 0.000000 0.000000 0.000000 0.000000 0.000000 0.030519
#
#
# Mechanical properties :
#
#
# Convention : Reuss Voigt Hill
#
# Bulk Modulus (GPa) = 35.44064 39.63230 37.53647
# Shear Modulus (GPa) = 27.28938 29.91417 28.60177
#
# Velocity S-wave (km/s) = 3.48836 3.65227 3.57126
# Velocity P-wave (km/s) = 5.65936 5.95466 5.80889
#
# Compressibility (1/GPa) = 0.02821619
#
# Stress axis : x y z
#
# Youngs Moduli (GPa) = 45.11807 59.67499 61.89338
#
# Poissons Ratio (x) = -0.02797 0.49460
# Poissons Ratio (y) = -0.02115 0.36570
# Poissons Ratio (z) = 0.36055 0.35260
#
# Static dielectric constant tensor:
#      x y z
#    x 1.902030 0.000000 0.000000 
#    y 0.000000 1.892790 0.000000 
#    z 0.000000 0.000000 1.907720 
# 
# From -- ./inp_files/7786.got.cif
#   From: 2010.05.17/outbox.cif.g08.bks.cpg/sg40_4_cif.got.tgz:7786.got - 2010.06.03 18:35:42.
