data_PCOD9363734
_publ_section_title
;
Structure prediction by ZEFSAII (Michael W. Deem and Ramdas Pophale) SiO2 
 PCOD9363734
Probable space group: A M A 2
;
_chemical_formula_sum "Si O2"
_cell_formula_units_Z 64
_cell_length_a 18.483020
_cell_length_b 21.316931
_cell_length_c 7.618363
_cell_angle_alpha 90.000000
_cell_angle_beta 90.000000
_cell_angle_gamma 90.000000
_cell_volume 3001.644636
_symmetry_space_group_name_H-M "A M A 2"
_symmetry_group_IT_number 40
_symmetry_cell_setting 'orthorhombic'
loop_
_space_group_symop_operation_xyz
x,y,z
-x,-y,z
1/2-x,y,z
1/2+x,-y,z
x,1/2+y,1/2+z
-x,1/2-y,1/2+z
1/2-x,1/2+y,1/2+z
1/2+x,1/2-y,1/2+z
loop_
_atom_site_type_symbol
_atom_site_label
_atom_site_fract_x
_atom_site_fract_y
_atom_site_fract_z
Si Si1 0.084800 0.749738 0.520390
Si Si2 0.916578 0.000606 0.597072
Si Si3 0.583422 0.000606 0.027066
Si Si4 0.915199 0.250262 0.103748
Si Si5 0.668332 0.123170 0.603447
Si Si6 0.331668 0.876830 0.020691
Si Si7 0.666378 0.374717 0.097256
Si Si8 0.833622 0.374717 0.526882
O O1 0.091930 0.747721 0.312069
O O2 0.124094 0.813019 0.579364
O O3 0.124524 0.687340 0.589138
O O4 1.000000 0.750001 0.562069
O O5 0.875254 0.062936 0.535218
O O6 0.874655 0.937864 0.542570
O O7 0.916907 0.001189 0.812069
O O8 0.000000 0.000000 0.541104
O O9 0.624747 0.062936 0.088921
O O10 0.500000 0.000000 0.083035
O O11 0.625345 0.937864 0.081568
O O12 0.875906 0.186981 0.044775
O O13 0.875475 0.312659 0.035000
O O14 0.750000 0.128022 0.532110
O O15 0.674377 0.113352 0.812069
O O16 0.250000 0.871978 0.092029
O O17 0.750000 0.374358 0.042586
O O18 0.665833 0.374455 0.312069
O O19 0.750000 0.374357 0.581551
#
# Coordination Sequence:
#
# PCOD9363734 Si02
#       8
#     8   8   8   8   8   8   8   8
#     4  11  22  36  55  78 106 140 179 223 270 319
#     4   9  16  28  49  77 107 137 173 218 262 305
#     4   9  16  28  49  77 107 137 173 218 262 305
#     4  11  22  36  55  78 106 140 179 223 270 319
#     4  10  20  34  54  81 111 141 174 216 268 323
#     4  10  20  34  54  81 111 141 174 216 268 323
#     4   9  17  30  50  76 103 133 173 218 259 303
#     4   9  17  30  50  76 103 133 173 218 259 303
#
# _framework density 21.321643999999999
#
# number of rings (size 3 to 8) (size 9 to 14) (size 15 to 20)
#    0.000    2.250    0.000    3.750    0.000    8.500 
#    0.000    0.000    0.000    8.250    0.000    0.000 
#    0.000    0.000    0.000    0.000    0.000    0.000 
#
# Total GULP energy -178850.614458 kJ/mol
# GULP energy per Si atom -5589.081702 kJ/mol
# Density = 2.127311 g / cm^3
# Si number density = 21.321644 Si / 1000 Ang^3
#
#
#
# Elastic Constant Matrix: (Units=GPa)
#
#
# Indices 1 2 3 4 5 6 
#
# 1 260.8520 161.9302 1.0858 0.0000 0.0000 0.0000
# 2 161.9302 255.9424 -0.3960 0.0000 0.0000 0.0000
# 3 1.0858 -0.3960 41.9772 0.0000 0.0000 0.0000
# 4 0.0000 0.0000 0.0000 20.4453 0.0000 0.0000
# 5 0.0000 0.0000 0.0000 0.0000 11.0886 0.0000
# 6 0.0000 0.0000 0.0000 0.0000 0.0000 52.9679
#
#
#
# Elastic Compliance Matrix: (Units=1/GPa)
#
#
# Indices 1 2 3 4 5 6 
#
# 1 0.006315 -0.003996 -0.000201 0.000000 0.000000 0.000000
# 2 -0.003996 0.006435 0.000164 0.000000 0.000000 0.000000
# 3 -0.000201 0.000164 0.023829 0.000000 0.000000 0.000000
# 4 0.000000 0.000000 0.000000 0.048911 0.000000 0.000000
# 5 0.000000 0.000000 0.000000 0.000000 0.090182 0.000000
# 6 0.000000 0.000000 0.000000 0.000000 0.000000 0.018879
#
#
# Mechanical properties :
#
#
# Convention : Reuss Voigt Hill
#
# Bulk Modulus (GPa) = 35.07025 98.22349 66.64687
# Shear Modulus (GPa) = 23.57135 43.31048 33.44091
#
# Velocity S-wave (km/s) = 3.32853 4.51187 3.96460
# Velocity P-wave (km/s) = 5.59071 8.56214 7.23071
#
# Compressibility (1/GPa) = 0.02851420
#
# Stress axis : x y z
#
# Youngs Moduli (GPa) = 158.35913 155.39309 41.96535
#
# Poissons Ratio (x) = 0.62088 0.00844
# Poissons Ratio (y) = 0.63273 -0.00689
# Poissons Ratio (z) = 0.03184 -0.02549
#
# Static dielectric constant tensor:
#      x y z
#    x 1.722050 0.000000 0.000000 
#    y 0.000000 1.725060 0.000000 
#    z 0.000000 0.000000 1.833490 
# 
# From -- ./inp_files/7767.got.cif
#   From: 2010.05.17/outbox.cif.g08.bks.cpg/sg40_4_cif.got.tgz:7767.got - 2010.06.03 18:35:42.
