data_PCOD9363745
_publ_section_title
;
Structure prediction by ZEFSAII (Michael W. Deem and Ramdas Pophale) SiO2 
 PCOD9363745
Probable space group: A M A 2
;
_chemical_formula_sum "Si O2"
_cell_formula_units_Z 56
_cell_length_a 14.288646
_cell_length_b 5.150512
_cell_length_c 32.528645
_cell_angle_alpha 90.000000
_cell_angle_beta 90.000000
_cell_angle_gamma 90.000000
_cell_volume 2393.907983
_symmetry_space_group_name_H-M "A M A 2"
_symmetry_group_IT_number 40
_symmetry_cell_setting 'orthorhombic'
loop_
_space_group_symop_operation_xyz
x,y,z
-x,-y,z
1/2-x,y,z
1/2+x,-y,z
x,1/2+y,1/2+z
-x,1/2-y,1/2+z
1/2-x,1/2+y,1/2+z
1/2+x,1/2-y,1/2+z
loop_
_atom_site_type_symbol
_atom_site_label
_atom_site_fract_x
_atom_site_fract_y
_atom_site_fract_z
Si Si1 0.396401 0.612170 0.917380
Si Si2 0.063490 0.253504 0.332756
Si Si3 0.137457 0.364216 0.242609
Si Si4 0.135560 0.850692 0.552102
Si Si5 0.363997 0.846107 0.100925
Si Si6 0.854561 0.880173 0.967603
Si Si7 0.864836 0.639095 0.693955
O O1 0.500000 0.500000 0.913151
O O2 0.368615 0.694803 0.871291
O O3 0.346719 0.364919 0.937173
O O4 0.396983 0.866521 0.946082
O O5 0.109497 0.318414 0.289420
O O6 0.000000 0.500000 0.345240
O O7 0.000000 0.000000 0.326066
O O8 0.250000 0.364272 0.241009
O O9 0.104703 0.639252 0.225436
O O10 0.105723 0.136950 0.211981
O O11 0.250000 0.867027 0.548510
O O12 0.112763 0.633286 0.585753
O O13 0.100199 0.741740 0.508535
O O14 0.103532 0.129680 0.568397
O O15 0.250000 0.829976 0.101368
O O16 0.396005 0.804732 0.147541
O O17 0.750000 0.971142 0.979337
O O18 0.750000 0.639445 0.692948
#
# Coordination Sequence:
#
# PCOD9363745 Si02
#       7
#     8   8   8   8   8   8   8
#     4  11  23  41  60  82 113 153 194 233 283 351
#     4  11  23  41  60  80 108 145 189 228 271 338
#     4  10  20  34  54  83 113 139 177 230 280 322
#     4   9  17  28  46  76 111 143 178 224 273 322
#     4   9  15  26  45  72 110 148 176 213 271 326
#     4  11  22  37  59  89 119 146 188 243 292 335
#     4   9  17  29  48  78 113 144 177 221 271 324
#
# _framework density 23.392712
#
# number of rings (size 3 to 8) (size 9 to 14) (size 15 to 20)
#    0.000    2.000    0.000    5.143    0.000    6.857 
#    0.000    1.429    0.000    0.000    0.000   35.000 
#    0.000    0.000    0.000    0.000    0.000    0.000 
#
# Total GULP energy -156610.649612 kJ/mol
# GULP energy per Si atom -5593.237486 kJ/mol
# Density = 2.333947 g / cm^3
# Si number density = 23.392712 Si / 1000 Ang^3
#
#
#
# Elastic Constant Matrix: (Units=GPa)
#
#
# Indices 1 2 3 4 5 6 
#
# 1 44.9900 10.1836 8.8163 0.0000 0.0000 0.0000
# 2 10.1836 139.5551 32.1007 0.0000 0.0000 0.0000
# 3 8.8163 32.1007 133.8241 0.0000 0.0000 0.0000
# 4 0.0000 0.0000 0.0000 41.2952 0.0000 0.0000
# 5 0.0000 0.0000 0.0000 0.0000 -8.8652 0.0000
# 6 0.0000 0.0000 0.0000 0.0000 0.0000 12.5167
#
#
#
# Elastic Compliance Matrix: (Units=1/GPa)
#
#
# Indices 1 2 3 4 5 6 
#
# 1 0.022771 -0.001393 -0.001166 0.000000 0.000000 0.000000
# 2 -0.001393 0.007669 -0.001748 0.000000 0.000000 0.000000
# 3 -0.001166 -0.001748 0.007969 0.000000 0.000000 0.000000
# 4 0.000000 0.000000 0.000000 0.024216 0.000000 0.000000
# 5 0.000000 0.000000 0.000000 0.000000 -0.112800 0.000000
# 6 0.000000 0.000000 0.000000 0.000000 0.000000 0.079893
#
#
# Mechanical properties :
#
#
# Convention : Reuss Voigt Hill
#
# Bulk Modulus (GPa) = 33.56323 46.73006 40.14665
# Shear Modulus (GPa) = 103.59710 26.80724 65.20217
#
# Velocity S-wave (km/s) = 6.66200 3.38888 5.28520
# Velocity P-wave (km/s) = 8.57643 5.94411 7.37860
#
# Compressibility (1/GPa) = 0.02979451
#
# Stress axis : x y z
#
# Youngs Moduli (GPa) = 43.91543 130.38898 125.49305
#
# Poissons Ratio (x) = 0.18169 0.14631
# Poissons Ratio (y) = 0.06119 0.21935
# Poissons Ratio (z) = 0.05120 0.22790
#
# Static dielectric constant tensor:
#      x y z
#    x 1.985350 0.000000 0.000000 
#    y 0.000000 1.817190 0.000000 
#    z 0.000000 0.000000 1.861670 
# 
# From -- ./inp_files/26589.got.cif
#   From: 2010.05.17/outbox.cif.g08.bks.cpg/sg40_14_cif.got.tgz:26589.got - 2010.06.03 18:35:42.
