data_PCOD9363311
_publ_section_title
;
Structure prediction by ZEFSAII (Michael W. Deem and Ramdas Pophale) SiO2 
 PCOD9363311
Probable space group: A M A 2
;
_chemical_formula_sum "Si O2"
_cell_formula_units_Z 64
_cell_length_a 15.397519
_cell_length_b 8.745140
_cell_length_c 23.539232
_cell_angle_alpha 90.000000
_cell_angle_beta 90.000000
_cell_angle_gamma 90.000000
_cell_volume 3169.639018
_symmetry_space_group_name_H-M "A M A 2"
_symmetry_group_IT_number 40
_symmetry_cell_setting 'orthorhombic'
loop_
_space_group_symop_operation_xyz
x,y,z
-x,-y,z
1/2-x,y,z
1/2+x,-y,z
x,1/2+y,1/2+z
-x,1/2-y,1/2+z
1/2-x,1/2+y,1/2+z
1/2+x,1/2-y,1/2+z
loop_
_atom_site_type_symbol
_atom_site_label
_atom_site_fract_x
_atom_site_fract_y
_atom_site_fract_z
Si Si1 0.903115 0.928571 0.721760
Si Si2 0.974854 0.826155 0.215509
Si Si3 0.656149 0.875234 0.599567
Si Si4 0.409678 0.406524 0.004753
Si Si5 0.144057 0.686724 0.824172
Si Si6 0.015807 0.677813 0.589355
Si Si7 0.352324 0.857201 0.377699
Si Si8 0.151216 0.019024 0.845820
O O1 0.857522 0.949736 0.661670
O O2 0.851809 0.976225 0.777180
O O3 0.932658 0.753666 0.727933
O O4 0.000000 0.000000 0.720979
O O5 0.903875 0.798643 0.263657
O O6 0.944411 0.785477 0.151594
O O7 0.000000 0.000000 0.213819
O O8 0.750000 0.800019 0.598081
O O9 0.577447 0.759481 0.591689
O O10 0.646690 0.995745 0.548994
O O11 0.500000 0.500000 0.996644
O O12 0.431931 0.251153 0.037919
O O13 0.366033 0.379921 0.944626
O O14 0.250000 0.689213 0.820190
O O15 0.117262 0.519505 0.849524
O O16 0.117912 0.844640 0.858145
O O17 0.000000 0.500000 0.582671
O O18 0.250000 0.849342 0.362925
O O19 0.388948 0.685479 0.363025
O O20 0.250000 0.021133 0.867384
#
# Coordination Sequence:
#
# PCOD9363311 Si02
#       8
#     8   8   8   8   8   8   8   8
#     4  11  19  33  54  86 121 151 190 247 298 351
#     4  10  19  34  57  83 118 154 189 239 300 358
#     4  10  20  36  61  88 117 158 201 245 301 364
#     4  10  21  40  62  84 114 156 203 247 300 362
#     4  10  21  38  59  85 120 159 199 246 300 358
#     4   9  20  40  60  87 124 155 196 254 308 361
#     4  10  22  41  59  83 121 159 201 255 304 353
#     4  10  21  37  57  85 117 155 200 244 298 359
#
# _framework density 20.191575
#
# number of rings (size 3 to 8) (size 9 to 14) (size 15 to 20)
#    0.000    2.000    1.250    3.375    0.000    1.500 
#    4.500    8.750    0.000    0.000    0.000    0.000 
#    0.000    0.000    0.000    0.000    0.000    0.000 
#
# Total GULP energy -178216.505701 kJ/mol
# GULP energy per Si atom -5569.265803 kJ/mol
# Density = 2.014562 g / cm^3
# Si number density = 20.191575 Si / 1000 Ang^3
#
#
#
# Elastic Constant Matrix: (Units=GPa)
#
#
# Indices 1 2 3 4 5 6 
#
# 1 37.6091 14.6284 13.3158 0.0000 0.0000 0.0000
# 2 14.6284 153.0887 38.0081 0.0000 0.0000 0.0000
# 3 13.3158 38.0081 92.7835 0.0000 0.0000 0.0000
# 4 0.0000 0.0000 0.0000 25.9809 0.0000 0.0000
# 5 0.0000 0.0000 0.0000 0.0000 28.2384 0.0000
# 6 0.0000 0.0000 0.0000 0.0000 0.0000 0.9546
#
#
#
# Elastic Compliance Matrix: (Units=1/GPa)
#
#
# Indices 1 2 3 4 5 6 
#
# 1 0.028501 -0.001901 -0.003312 0.000000 0.000000 0.000000
# 2 -0.001901 0.007399 -0.002758 0.000000 0.000000 0.000000
# 3 -0.003312 -0.002758 0.012383 0.000000 0.000000 0.000000
# 4 0.000000 0.000000 0.000000 0.038490 0.000000 0.000000
# 5 0.000000 0.000000 0.000000 0.000000 0.035413 0.000000
# 6 0.000000 0.000000 0.000000 0.000000 0.000000 1.047508
#
#
# Mechanical properties :
#
#
# Convention : Reuss Voigt Hill
#
# Bulk Modulus (GPa) = 30.92029 46.15400 38.53715
# Shear Modulus (GPa) = 4.17915 25.53672 14.85794
#
# Velocity S-wave (km/s) = 1.44022 3.56015 2.71560
# Velocity P-wave (km/s) = 4.25586 6.30930 5.38143
#
# Compressibility (1/GPa) = 0.03234122
#
# Stress axis : x y z
#
# Youngs Moduli (GPa) = 35.08613 135.16149 80.75731
#
# Poissons Ratio (x) = 0.25698 0.26743
# Poissons Ratio (y) = 0.06671 0.22272
# Poissons Ratio (z) = 0.11619 0.37276
#
# Static dielectric constant tensor:
#      x y z
#    x 1.720220 0.000000 0.000000 
#    y 0.000000 1.949970 0.000000 
#    z 0.000000 0.000000 1.709720 
# 
# From -- ./inp_files/24836.got.cif
#   From: 2010.05.17/outbox.cif.g08.bks.cpg/sg40_13_cif.got.tgz:24836.got - 2010.06.03 18:35:42.
