data_PCOD9363102
_publ_section_title
;
Structure prediction by ZEFSAII (Michael W. Deem and Ramdas Pophale) SiO2 
 PCOD9363102
Probable space group: A M A 2
;
_chemical_formula_sum "Si O2"
_cell_formula_units_Z 48
_cell_length_a 8.409512
_cell_length_b 12.904944
_cell_length_c 18.822269
_cell_angle_alpha 90.000000
_cell_angle_beta 90.000000
_cell_angle_gamma 90.000000
_cell_volume 2042.673218
_symmetry_space_group_name_H-M "A M A 2"
_symmetry_group_IT_number 40
_symmetry_cell_setting 'orthorhombic'
loop_
_space_group_symop_operation_xyz
x,y,z
-x,-y,z
1/2-x,y,z
1/2+x,-y,z
x,1/2+y,1/2+z
-x,1/2-y,1/2+z
1/2-x,1/2+y,1/2+z
1/2+x,1/2-y,1/2+z
loop_
_atom_site_type_symbol
_atom_site_label
_atom_site_fract_x
_atom_site_fract_y
_atom_site_fract_z
Si Si1 0.250000 0.119837 0.402290
Si Si2 0.432150 0.337279 0.144312
Si Si3 0.073331 0.377622 0.826037
Si Si4 0.565377 0.607594 0.657589
Si Si5 0.250000 0.635346 0.059392
Si Si6 0.580065 0.358454 0.289142
Si Si7 0.250000 0.337621 0.467163
Si Si8 0.500000 0.500000 0.415574
O O1 0.412139 0.088582 0.363904
O O2 0.250000 0.079460 0.483103
O O3 0.250000 0.247987 0.405907
O O4 0.250000 0.358559 0.120902
O O5 0.465670 0.212176 0.142503
O O6 0.583297 0.382065 0.100400
O O7 0.452465 0.373616 0.226632
O O8 0.250000 0.400347 0.855228
O O9 0.066712 0.403891 0.742958
O O10 0.061350 0.253579 0.822925
O O11 0.500000 0.500000 0.626764
O O12 0.750000 0.617115 0.639196
O O13 0.250000 0.755634 0.031475
O O14 0.750000 0.358959 0.249926
O O15 0.589356 0.432003 0.356418
O O16 0.397739 0.416751 0.459828
#
# Coordination Sequence:
#
# PCOD9363102 Si02
#       8
#     4   8   8   8   4   8   4   4
#     4  10  20  36  59  75 109 153 189 234 278 343
#     4  11  22  38  60  81 113 162 203 239 293 344
#     4   9  19  33  53  84 110 143 184 230 292 349
#     4  10  20  34  54  86 119 140 181 241 292 347
#     4  10  22  45  50  81 114 154 211 241 260 355
#     4  10  19  32  56  83 124 146 187 253 295 357
#     4  10  24  37  55  80 127 155 200 235 288 372
#     4  12  20  36  56  96 122 160 188 242 328 356
#
# _framework density 23.498618
#
# number of rings (size 3 to 8) (size 9 to 14) (size 15 to 20)
#    0.500    1.333    4.167    1.500    7.000    0.667 
#    3.000    0.000    0.000    0.000    2.167    0.000 
#    0.000    0.000    0.000    0.000    0.000    0.000 
#
# Total GULP energy -133789.709875 kJ/mol
# GULP energy per Si atom -5574.571245 kJ/mol
# Density = 2.344513 g / cm^3
# Si number density = 23.498618 Si / 1000 Ang^3
#
#
#
# Elastic Constant Matrix: (Units=GPa)
#
#
# Indices 1 2 3 4 5 6 
#
# 1 209.2443 19.4948 62.6506 0.0000 0.0000 0.0000
# 2 19.4948 63.5532 -10.6971 0.0000 0.0000 0.0000
# 3 62.6506 -10.6971 66.1438 0.0000 0.0000 0.0000
# 4 0.0000 0.0000 0.000013600.6526 0.0000 0.0000
# 5 0.0000 0.0000 0.0000 0.0000 23.8093 0.0000
# 6 0.0000 0.0000 0.0000 0.0000 0.0000 -83.3649
#
#
#
# Elastic Compliance Matrix: (Units=1/GPa)
#
#
# Indices 1 2 3 4 5 6 
#
# 1 0.007369 -0.003531 -0.007551 0.000000 0.000000 0.000000
# 2 -0.003531 0.017867 0.006234 0.000000 0.000000 0.000000
# 3 -0.007551 0.006234 0.023279 0.000000 0.000000 0.000000
# 4 0.000000 0.000000 0.000000 0.000074 0.000000 0.000000
# 5 0.000000 0.000000 0.000000 0.000000 0.042000 0.000000
# 6 0.000000 0.000000 0.000000 0.000000 0.000000 -0.011995
#
#
# Mechanical properties :
#
#
# Convention : Reuss Voigt Hill
#
# Bulk Modulus (GPa) = 25.76006 53.53753 39.64879
# Shear Modulus (GPa) = 49.39282 2726.05227 1387.72254
#
# Velocity S-wave (km/s) = 4.58967 34.09705 24.32770
# Velocity P-wave (km/s) = 6.25084 39.66079 28.39059
#
# Compressibility (1/GPa) = 0.03881978
#
# Stress axis : x y z
#
# Youngs Moduli (GPa) = 135.70473 55.96772 42.95731
#
# Poissons Ratio (x) = 0.19764 0.32437
# Poissons Ratio (y) = 0.47922 -0.26782
# Poissons Ratio (z) = 1.02469 -0.34893
#
# Static dielectric constant tensor:
#      x y z
#    x 1.885690 0.000000 0.000000 
#    y 0.000000 -0.913610 0.000000 
#    z 0.000000 0.000000 1.864380 
# 
# From -- ./inp_files/24081.got.cif
#   From: 2010.05.17/outbox.cif.g08.bks.cpg/sg40_13_cif.got.tgz:24081.got - 2010.06.03 18:35:42.
