data_PCOD9363994
_publ_section_title
;
Structure prediction by ZEFSAII (Michael W. Deem and Ramdas Pophale) SiO2 
 PCOD9363994
Probable space group: A M A 2
;
_chemical_formula_sum "Si O2"
_cell_formula_units_Z 40
_cell_length_a 8.922445
_cell_length_b 24.101769
_cell_length_c 10.444536
_cell_angle_alpha 90.000000
_cell_angle_beta 90.000000
_cell_angle_gamma 90.000000
_cell_volume 2246.063087
_symmetry_space_group_name_H-M "A M A 2"
_symmetry_group_IT_number 40
_symmetry_cell_setting 'orthorhombic'
loop_
_space_group_symop_operation_xyz
x,y,z
-x,-y,z
1/2-x,y,z
1/2+x,-y,z
x,1/2+y,1/2+z
-x,1/2-y,1/2+z
1/2-x,1/2+y,1/2+z
1/2+x,1/2-y,1/2+z
loop_
_atom_site_type_symbol
_atom_site_label
_atom_site_fract_x
_atom_site_fract_y
_atom_site_fract_z
Si Si1 0.929713 0.060765 0.784870
Si Si2 0.072100 0.134503 0.007231
Si Si3 0.574667 0.740853 0.598775
Si Si4 0.069805 0.858554 0.554817
Si Si5 0.426103 0.358947 0.765361
O O1 0.750000 0.057636 0.795784
O O2 0.967796 0.092939 0.653552
O O3 0.000000 0.000000 0.786763
O O4 0.995239 0.097244 0.900437
O O5 0.250000 0.134121 0.994755
O O6 0.008571 0.197589 0.004188
O O7 0.020546 0.114889 0.149535
O O8 0.750000 0.744216 0.566263
O O9 0.502511 0.800811 0.598573
O O10 0.562166 0.707126 0.733191
O O11 0.250000 0.851763 0.553599
O O12 0.023383 0.870758 0.408621
O O13 0.250000 0.373381 0.750890
#
# Coordination Sequence:
#
# PCOD9363994 Si02
#       5
#     8   8   8   8   8
#     4  11  24  42  62  86 118 160 206 251 299 356
#     4  10  20  36  59  84 115 153 196 244 292 352
#     4   9  19  33  55  86 121 153 189 238 297 357
#     4  10  21  37  59  85 119 157 196 247 303 357
#     4   8  18  36  55  83 116 149 187 236 294 351
#
# _framework density 17.808938999999999
#
# number of rings (size 3 to 8) (size 9 to 14) (size 15 to 20)
#    1.200    1.200    0.000    2.400    2.800    2.400 
#    0.000    1.000    0.000    2.400    0.000    0.000 
#    0.000    0.000    0.000    0.000    0.000    0.000 
#
# Total GULP energy -111402.226439 kJ/mol
# GULP energy per Si atom -5570.111322 kJ/mol
# Density = 1.776841 g / cm^3
# Si number density = 17.808939 Si / 1000 Ang^3
#
#
#
# Elastic Constant Matrix: (Units=GPa)
#
#
# Indices 1 2 3 4 5 6 
#
# 1 50.7700 21.2996 18.7904 0.0000 0.0000 0.0000
# 2 21.2996 66.4531 6.7300 0.0000 0.0000 0.0000
# 3 18.7904 6.7300 68.6609 0.0000 0.0000 0.0000
# 4 0.0000 0.0000 0.0000 18.7342 0.0000 0.0000
# 5 0.0000 0.0000 0.0000 0.0000 2.9788 0.0000
# 6 0.0000 0.0000 0.0000 0.0000 0.0000 28.9115
#
#
#
# Elastic Compliance Matrix: (Units=1/GPa)
#
#
# Indices 1 2 3 4 5 6 
#
# 1 0.025080 -0.007417 -0.006137 0.000000 0.000000 0.000000
# 2 -0.007417 0.017393 0.000325 0.000000 0.000000 0.000000
# 3 -0.006137 0.000325 0.016212 0.000000 0.000000 0.000000
# 4 0.000000 0.000000 0.000000 0.053378 0.000000 0.000000
# 5 0.000000 0.000000 0.000000 0.000000 0.335700 0.000000
# 6 0.000000 0.000000 0.000000 0.000000 0.000000 0.034588
#
#
# Mechanical properties :
#
#
# Convention : Reuss Voigt Hill
#
# Bulk Modulus (GPa) = 31.02996 31.05825 31.04411
# Shear Modulus (GPa) = 9.62371 19.39583 14.50977
#
# Velocity S-wave (km/s) = 2.32714 3.30374 2.85747
# Velocity P-wave (km/s) = 4.96814 5.65955 5.32508
#
# Compressibility (1/GPa) = 0.03222692
#
# Stress axis : x y z
#
# Youngs Moduli (GPa) = 39.87314 57.49569 61.68329
#
# Poissons Ratio (x) = 0.42645 0.37852
# Poissons Ratio (y) = 0.29574 -0.02005
# Poissons Ratio (z) = 0.24468 -0.01869
#
# Static dielectric constant tensor:
#      x y z
#    x 1.592970 0.000000 0.000000 
#    y 0.000000 1.579540 0.000000 
#    z 0.000000 0.000000 1.630300 
# 
# From -- ./inp_files/10127.got.cif
#   From: 2010.05.17/outbox.cif.g08.bks.cpg/sg40_6_cif.got.tgz:10127.got - 2010.06.03 18:35:42.
