data_PCOD9363068
_publ_section_title
;
Structure prediction by ZEFSAII (Michael W. Deem and Ramdas Pophale) SiO2 
 PCOD9363068
Probable space group: A M A 2
;
_chemical_formula_sum "Si O2"
_cell_formula_units_Z 56
_cell_length_a 8.650822
_cell_length_b 14.985945
_cell_length_c 22.193771
_cell_angle_alpha 90.000000
_cell_angle_beta 90.000000
_cell_angle_gamma 90.000000
_cell_volume 2877.216956
_symmetry_space_group_name_H-M "A M A 2"
_symmetry_group_IT_number 40
_symmetry_cell_setting 'orthorhombic'
loop_
_space_group_symop_operation_xyz
x,y,z
-x,-y,z
1/2-x,y,z
1/2+x,-y,z
x,1/2+y,1/2+z
-x,1/2-y,1/2+z
1/2-x,1/2+y,1/2+z
1/2+x,1/2-y,1/2+z
loop_
_atom_site_type_symbol
_atom_site_label
_atom_site_fract_x
_atom_site_fract_y
_atom_site_fract_z
Si Si1 0.435414 0.720749 0.850880
Si Si2 0.562684 0.787831 0.120929
Si Si3 0.064380 0.903857 0.452453
Si Si4 0.934341 0.405102 0.380237
Si Si5 0.934795 0.595130 0.515460
Si Si6 0.563716 0.900410 0.237549
Si Si7 0.435130 0.905965 0.593469
O O1 0.250000 0.727209 0.852439
O O2 0.494837 0.674031 0.911835
O O3 0.505822 0.819039 0.844827
O O4 0.482559 0.656618 0.795950
O O5 0.750000 0.790957 0.116043
O O6 0.491946 0.828966 0.060482
O O7 0.514688 0.847774 0.177487
O O8 0.516831 0.684269 0.127030
O O9 0.250000 0.902880 0.448064
O O10 0.020274 0.895023 0.522841
O O11 0.000000 0.000000 0.431523
O O12 0.750000 0.408256 0.381416
O O13 0.000000 0.500000 0.358269
O O14 0.996931 0.393387 0.448617
O O15 0.750000 0.592090 0.512248
O O16 0.000000 0.500000 0.538303
O O17 0.750000 0.904651 0.237175
O O18 0.500000 0.000000 0.239190
O O19 0.250000 0.911394 0.595226
O O20 0.500000 0.000000 0.615656
#
# Coordination Sequence:
#
# PCOD9363068 Si02
#       7
#     8   8   8   8   8   8   8
#     4  11  22  37  56  81 111 147 188 233 282 335
#     4  10  20  37  57  80 111 150 190 232 279 330
#     4  10  19  32  52  81 112 146 183 227 282 340
#     4  11  22  38  59  84 113 147 184 228 279 336
#     4  11  21  34  55  85 117 149 183 227 278 334
#     4  10  23  40  59  81 111 147 187 232 278 327
#     4   9  19  34  54  78 108 140 176 221 272 326
#
# _framework density 19.463253000000002
#
# number of rings (size 3 to 8) (size 9 to 14) (size 15 to 20)
#    0.000    1.714    0.000    6.000    0.000    6.286 
#    0.000    0.714    0.000    1.714    0.000    0.000 
#    0.000    0.000    0.000    0.000    0.000    0.000 
#
# Total GULP energy -156492.430250 kJ/mol
# GULP energy per Si atom -5589.015366 kJ/mol
# Density = 1.941895 g / cm^3
# Si number density = 19.463253 Si / 1000 Ang^3
#
#
#
# Elastic Constant Matrix: (Units=GPa)
#
#
# Indices 1 2 3 4 5 6 
#
# 1 72.9375 46.8788 20.3507 0.0000 0.0000 0.0000
# 2 46.8788 200.8049 53.7433 0.0000 0.0000 0.0000
# 3 20.3507 53.7433 41.3379 0.0000 0.0000 0.0000
# 4 0.0000 0.0000 0.0000 32.7844 0.0000 0.0000
# 5 0.0000 0.0000 0.0000 0.0000 12.8623 0.0000
# 6 0.0000 0.0000 0.0000 0.0000 0.0000 37.1721
#
#
#
# Elastic Compliance Matrix: (Units=1/GPa)
#
#
# Indices 1 2 3 4 5 6 
#
# 1 0.016741 -0.002611 -0.004847 0.000000 0.000000 0.000000
# 2 -0.002611 0.008045 -0.009173 0.000000 0.000000 0.000000
# 3 -0.004847 -0.009173 0.038503 0.000000 0.000000 0.000000
# 4 0.000000 0.000000 0.000000 0.030502 0.000000 0.000000
# 5 0.000000 0.000000 0.000000 0.000000 0.077747 0.000000
# 6 0.000000 0.000000 0.000000 0.000000 0.000000 0.026902
#
#
# Mechanical properties :
#
#
# Convention : Reuss Voigt Hill
#
# Bulk Modulus (GPa) = 33.30443 61.89177 47.59810
# Shear Modulus (GPa) = 20.68581 29.50426 25.09504
#
# Velocity S-wave (km/s) = 3.26362 3.89767 3.59465
# Velocity P-wave (km/s) = 5.59912 7.21971 6.46043
#
# Compressibility (1/GPa) = 0.03002604
#
# Stress axis : x y z
#
# Youngs Moduli (GPa) = 59.73391 124.30577 25.97171
#
# Poissons Ratio (x) = 0.32456 0.12589
# Poissons Ratio (y) = 0.15596 0.23825
# Poissons Ratio (z) = 0.28953 1.14031
#
# Static dielectric constant tensor:
#      x y z
#    x 1.653990 0.000000 0.000000 
#    y 0.000000 1.695790 0.000000 
#    z 0.000000 0.000000 1.668990 
# 
# From -- ./inp_files/22155.got.cif
#   From: 2010.05.17/outbox.cif.g08.bks.cpg/sg40_12_cif.got.tgz:22155.got - 2010.06.03 18:35:42.
