data_PCOD9363031
_publ_section_title
;
Structure prediction by ZEFSAII (Michael W. Deem and Ramdas Pophale) SiO2 
 PCOD9363031
Probable space group: A M A 2
;
_chemical_formula_sum "Si O2"
_cell_formula_units_Z 64
_cell_length_a 8.643457
_cell_length_b 15.258270
_cell_length_c 27.943366
_cell_angle_alpha 90.000000
_cell_angle_beta 90.000000
_cell_angle_gamma 90.000000
_cell_volume 3685.288488
_symmetry_space_group_name_H-M "A M A 2"
_symmetry_group_IT_number 40
_symmetry_cell_setting 'orthorhombic'
loop_
_space_group_symop_operation_xyz
x,y,z
-x,-y,z
1/2-x,y,z
1/2+x,-y,z
x,1/2+y,1/2+z
-x,1/2-y,1/2+z
1/2-x,1/2+y,1/2+z
1/2+x,1/2-y,1/2+z
loop_
_atom_site_type_symbol
_atom_site_label
_atom_site_fract_x
_atom_site_fract_y
_atom_site_fract_z
Si Si1 0.935826 0.595735 0.127070
Si Si2 0.935106 0.404868 0.739840
Si Si3 0.435412 0.595452 0.851264
Si Si4 0.936373 0.406404 0.398436
Si Si5 0.562799 0.221036 0.432198
Si Si6 0.436327 0.905251 0.516231
Si Si7 0.936297 0.905757 0.787783
Si Si8 0.064325 0.726414 0.205381
O O1 0.750000 0.594513 0.130283
O O2 0.981564 0.609817 0.071464
O O3 0.000000 0.500000 0.141399
O O4 0.002799 0.671148 0.160609
O O5 0.750000 0.406496 0.737438
O O6 0.980590 0.390189 0.795728
O O7 0.000000 0.500000 0.725780
O O8 0.999860 0.324238 0.709526
O O9 0.500000 0.500000 0.865390
O O10 0.250000 0.594750 0.854319
O O11 0.503453 0.668314 0.886142
O O12 0.750000 0.410163 0.398922
O O13 0.987149 0.321936 0.428349
O O14 0.985472 0.392694 0.342896
O O15 0.000000 0.500000 0.414523
O O16 0.750000 0.219797 0.431138
O O17 0.511199 0.169469 0.479574
O O18 0.250000 0.908802 0.514838
O O19 0.500000 0.000000 0.501264
O O20 0.750000 0.909154 0.786914
O O21 0.986324 0.828553 0.752546
O O22 0.000000 0.000000 0.771688
O O23 0.250000 0.728758 0.204465
#
# Coordination Sequence:
#
# PCOD9363031 Si02
#       8
#     8   8   8   8   8   8   8   8
#     4  10  20  35  53  75 103 132 164 204 253 306
#     4  10  21  36  52  72 101 136 171 208 249 294
#     4  10  20  32  48  73 104 136 168 203 245 295
#     4   9  18  32  48  67  95 129 163 200 241 284
#     4  10  19  32  51  73  98 131 170 210 253 299
#     4   9  19  34  52  74 100 130 162 201 251 304
#     4   9  18  30  45  68  98 130 161 196 238 287
#     4  11  21  33  52  76 100 130 169 208 250 301
#
# _framework density 17.366347000000001
#
# number of rings (size 3 to 8) (size 9 to 14) (size 15 to 20)
#    0.000    2.250    0.000    3.000    0.000    7.000 
#    0.000    2.500    0.000    0.750    0.000    1.750 
#    0.000    0.000    0.000    0.000    0.000    0.000 
#
# Total GULP energy -178630.022704 kJ/mol
# GULP energy per Si atom -5582.188209 kJ/mol
# Density = 1.732682 g / cm^3
# Si number density = 17.366347 Si / 1000 Ang^3
#
#
#
# Elastic Constant Matrix: (Units=GPa)
#
#
# Indices 1 2 3 4 5 6 
#
# 1 23.8477 35.9135 24.5704 0.0000 0.0000 0.0000
# 2 35.9135 182.6325 84.2125 0.0000 0.0000 0.0000
# 3 24.5704 84.2125 72.6656 0.0000 0.0000 0.0000
# 4 0.0000 0.0000 0.0000 29.5096 0.0000 0.0000
# 5 0.0000 0.0000 0.0000 0.0000 24.6470 0.0000
# 6 0.0000 0.0000 0.0000 0.0000 0.0000 30.7277
#
#
#
# Elastic Compliance Matrix: (Units=1/GPa)
#
#
# Indices 1 2 3 4 5 6 
#
# 1 0.067164 -0.005875 -0.015901 0.000000 0.000000 0.000000
# 2 -0.005875 0.012273 -0.012237 0.000000 0.000000 0.000000
# 3 -0.015901 -0.012237 0.033320 0.000000 0.000000 0.000000
# 4 0.000000 0.000000 0.000000 0.033887 0.000000 0.000000
# 5 0.000000 0.000000 0.000000 0.000000 0.040573 0.000000
# 6 0.000000 0.000000 0.000000 0.000000 0.000000 0.032544
#
#
# Mechanical properties :
#
#
# Convention : Reuss Voigt Hill
#
# Bulk Modulus (GPa) = 22.35641 63.17096 42.76368
# Shear Modulus (GPa) = 16.51812 25.94016 21.22914
#
# Velocity S-wave (km/s) = 3.08743 3.86904 3.50012
# Velocity P-wave (km/s) = 5.06073 7.51091 6.40409
#
# Compressibility (1/GPa) = 0.04472991
#
# Stress axis : x y z
#
# Youngs Moduli (GPa) = 14.88902 81.47737 30.01205
#
# Poissons Ratio (x) = 0.47869 0.47723
# Poissons Ratio (y) = 0.08748 0.36726
# Poissons Ratio (z) = 0.23675 0.99704
#
# Static dielectric constant tensor:
#      x y z
#    x 1.587380 0.000000 0.000000 
#    y 0.000000 1.575840 0.000000 
#    z 0.000000 0.000000 1.591050 
# 
# From -- ./inp_files/24287.got.cif
#   From: 2010.05.17/outbox.cif.g08.bks.cpg/sg40_13_cif.got.tgz:24287.got - 2010.06.03 18:35:42.
