data_PCOD9363953
_publ_section_title
;
Structure prediction by ZEFSAII (Michael W. Deem and Ramdas Pophale) SiO2 
 PCOD9363953
Probable space group: A M A 2
;
_chemical_formula_sum "Si O2"
_cell_formula_units_Z 48
_cell_length_a 8.554917
_cell_length_b 9.381780
_cell_length_c 31.556822
_cell_angle_alpha 90.000000
_cell_angle_beta 90.000000
_cell_angle_gamma 90.000000
_cell_volume 2532.761554
_symmetry_space_group_name_H-M "A M A 2"
_symmetry_group_IT_number 40
_symmetry_cell_setting 'orthorhombic'
loop_
_space_group_symop_operation_xyz
x,y,z
-x,-y,z
1/2-x,y,z
1/2+x,-y,z
x,1/2+y,1/2+z
-x,1/2-y,1/2+z
1/2-x,1/2+y,1/2+z
1/2+x,1/2-y,1/2+z
loop_
_atom_site_type_symbol
_atom_site_label
_atom_site_fract_x
_atom_site_fract_y
_atom_site_fract_z
Si Si1 0.437679 0.658879 0.548240
Si Si2 0.561064 0.159463 0.371861
Si Si3 0.561181 0.160561 0.207455
Si Si4 0.061437 0.658072 0.451598
Si Si5 0.062553 0.659555 0.125343
Si Si6 0.061149 0.660504 0.289838
O O1 0.500000 0.500000 0.557737
O O2 0.250000 0.657479 0.550173
O O3 0.486346 0.693687 0.499812
O O4 0.502905 0.768864 0.582219
O O5 0.750000 0.156021 0.371808
O O6 0.508483 0.231298 0.415932
O O7 0.510731 0.257689 0.332439
O O8 0.500000 0.000000 0.367277
O O9 0.750000 0.156210 0.207617
O O10 0.510672 0.243145 0.165013
O O11 0.510221 0.249553 0.248734
O O12 0.500000 0.000000 0.208416
O O13 0.250000 0.653779 0.450816
O O14 0.000000 0.500000 0.441755
O O15 0.250000 0.656425 0.125050
O O16 0.000000 0.500000 0.130008
O O17 0.250000 0.656115 0.289680
O O18 0.000000 0.500000 0.288543
#
# Coordination Sequence:
#
# PCOD9363953 Si02
#       6
#     8   8   8   8   8   8
#     4  10  20  36  57  81 110 143 182 226 272 323
#     4  10  21  36  54  79 110 142 179 220 264 316
#     4  10  22  38  57  82 110 141 178 220 266 318
#     4   9  19  35  55  80 108 140 179 222 267 318
#     4  11  23  38  56  80 110 144 183 225 272 323
#     4  10  21  37  57  82 110 140 177 219 264 316
#
# _framework density 18.951646
#
# number of rings (size 3 to 8) (size 9 to 14) (size 15 to 20)
#    0.000    2.000    0.000    3.000    0.000    6.000 
#    0.000    1.667    0.000    0.000    0.000    0.000 
#    0.000    0.000    0.000    0.000    0.000    0.000 
#
# Total GULP energy -134086.658704 kJ/mol
# GULP energy per Si atom -5586.944113 kJ/mol
# Density = 1.890851 g / cm^3
# Si number density = 18.951646 Si / 1000 Ang^3
#
#
#
# Elastic Constant Matrix: (Units=GPa)
#
#
# Indices 1 2 3 4 5 6 
#
# 1 18.1984 29.1847 29.8380 0.0000 0.0000 0.0000
# 2 29.1847 197.4218 122.2050 0.0000 0.0000 0.0000
# 3 29.8380 122.2050 146.8277 0.0000 0.0000 0.0000
# 4 0.0000 0.0000 0.0000 42.2007 0.0000 0.0000
# 5 0.0000 0.0000 0.0000 0.0000 20.2940 0.0000
# 6 0.0000 0.0000 0.0000 0.0000 0.0000 40.3085
#
#
#
# Elastic Compliance Matrix: (Units=1/GPa)
#
#
# Indices 1 2 3 4 5 6 
#
# 1 0.083773 -0.003808 -0.013855 0.000000 0.000000 0.000000
# 2 -0.003808 0.010621 -0.008066 0.000000 0.000000 0.000000
# 3 -0.013855 -0.008066 0.016340 0.000000 0.000000 0.000000
# 4 0.000000 0.000000 0.000000 0.023696 0.000000 0.000000
# 5 0.000000 0.000000 0.000000 0.000000 0.049276 0.000000
# 6 0.000000 0.000000 0.000000 0.000000 0.000000 0.024809
#
#
# Mechanical properties :
#
#
# Convention : Reuss Voigt Hill
#
# Bulk Modulus (GPa) = 16.87022 80.54484 48.70753
# Shear Modulus (GPa) = 17.87429 32.64199 25.25814
#
# Velocity S-wave (km/s) = 3.07441 4.15466 3.65467
# Velocity P-wave (km/s) = 4.63936 8.09984 6.60042
#
# Compressibility (1/GPa) = 0.05927604
#
# Stress axis : x y z
#
# Youngs Moduli (GPa) = 11.93702 94.15064 61.20003
#
# Poissons Ratio (x) = 0.35851 0.84792
# Poissons Ratio (y) = 0.04545 0.49366
# Poissons Ratio (z) = 0.16539 0.75945
#
# Static dielectric constant tensor:
#      x y z
#    x 1.651580 0.000000 0.000000 
#    y 0.000000 1.601890 0.000000 
#    z 0.000000 0.000000 1.665060 
# 
# From -- ./inp_files/26109.got.cif
#   From: 2010.05.17/outbox.cif.g08.bks.cpg/sg40_14_cif.got.tgz:26109.got - 2010.06.03 18:35:42.
