data_PCOD9363424
_publ_section_title
;
Structure prediction by ZEFSAII (Michael W. Deem and Ramdas Pophale) SiO2 
 PCOD9363424
Probable space group: A M A 2
;
_chemical_formula_sum "Si O2"
_cell_formula_units_Z 64
_cell_length_a 16.325583
_cell_length_b 16.004243
_cell_length_c 11.321789
_cell_angle_alpha 90.000000
_cell_angle_beta 90.000000
_cell_angle_gamma 90.000000
_cell_volume 2958.141151
_symmetry_space_group_name_H-M "A M A 2"
_symmetry_group_IT_number 40
_symmetry_cell_setting 'orthorhombic'
loop_
_space_group_symop_operation_xyz
x,y,z
-x,-y,z
1/2-x,y,z
1/2+x,-y,z
x,1/2+y,1/2+z
-x,1/2-y,1/2+z
1/2-x,1/2+y,1/2+z
1/2+x,1/2-y,1/2+z
loop_
_atom_site_type_symbol
_atom_site_label
_atom_site_fract_x
_atom_site_fract_y
_atom_site_fract_z
Si Si1 0.654482 0.179968 0.691150
Si Si2 0.847113 0.038987 0.866029
Si Si3 0.614572 0.816742 0.526973
Si Si4 0.941460 0.751144 0.976642
Si Si5 0.850054 0.855948 0.788466
Si Si6 0.489647 0.091961 0.138317
Si Si7 0.840192 0.134807 0.110182
Si Si8 0.660843 0.867525 0.290064
O O1 0.750000 0.163067 0.669829
O O2 0.617751 0.107121 0.773850
O O3 0.611320 0.196147 0.567218
O O4 0.651090 0.268713 0.759724
O O5 0.750000 0.036827 0.840865
O O6 0.873832 0.944122 0.848144
O O7 0.852239 0.073838 0.998172
O O8 0.527257 0.796504 0.466827
O O9 0.614460 0.856763 0.656192
O O10 0.656172 0.727313 0.554046
O O11 0.659854 0.872232 0.430778
O O12 0.964420 0.836966 0.045748
O O13 0.891468 0.781044 0.862568
O O14 0.750000 0.847088 0.786502
O O15 0.578482 0.120861 0.187316
O O16 0.415776 0.087610 0.231221
O O17 0.500000 0.000000 0.086957
O O18 0.750000 0.121904 0.163138
O O19 0.750000 0.894091 0.241993
#
# Coordination Sequence:
#
# PCOD9363424 Si02
#       8
#     8   8   8   8   8   8   8   8
#     4   9  17  35  61  88 118 160 208 252 304 381
#     4   9  18  34  62  96 126 158 205 258 317 380
#     4  11  23  38  60  87 124 165 210 255 309 377
#     4  10  23  36  60  87 126 162 204 258 318 374
#     4  11  23  39  62  95 128 160 207 269 327 375
#     4  10  22  37  58  90 126 157 204 262 312 372
#     4  10  19  35  62  90 122 164 205 250 311 380
#     4  10  20  38  64  86 115 167 217 253 307 380
#
# _framework density 21.635207999999999
#
# number of rings (size 3 to 8) (size 9 to 14) (size 15 to 20)
#    0.000    2.000    1.250    2.250    5.250    1.000 
#    0.000    4.375    0.000    0.000    0.000    0.000 
#    0.000    0.000    0.000    0.000    0.000    0.000 
#
# Total GULP energy -178612.246023 kJ/mol
# GULP energy per Si atom -5581.632688 kJ/mol
# Density = 2.158597 g / cm^3
# Si number density = 21.635208 Si / 1000 Ang^3
#
#
#
# Elastic Constant Matrix: (Units=GPa)
#
#
# Indices 1 2 3 4 5 6 
#
# 1 127.7826 15.8124 24.2406 0.0000 0.0000 0.0000
# 2 15.8124 51.2869 -4.2027 0.0000 0.0000 0.0000
# 3 24.2406 -4.2027 39.9729 0.0000 0.0000 0.0000
# 4 0.0000 0.0000 0.0000 25.0688 0.0000 0.0000
# 5 0.0000 0.0000 0.0000 0.0000 15.1772 0.0000
# 6 0.0000 0.0000 0.0000 0.0000 0.0000 20.7692
#
#
#
# Elastic Compliance Matrix: (Units=1/GPa)
#
#
# Indices 1 2 3 4 5 6 
#
# 1 0.009394 -0.003392 -0.006053 0.000000 0.000000 0.000000
# 2 -0.003392 0.020893 0.004254 0.000000 0.000000 0.000000
# 3 -0.006053 0.004254 0.029135 0.000000 0.000000 0.000000
# 4 0.000000 0.000000 0.000000 0.039890 0.000000 0.000000
# 5 0.000000 0.000000 0.000000 0.000000 0.065888 0.000000
# 6 0.000000 0.000000 0.000000 0.000000 0.000000 0.048148
#
#
# Mechanical properties :
#
#
# Convention : Reuss Voigt Hill
#
# Bulk Modulus (GPa) = 20.39238 32.30477 26.34858
# Shear Modulus (GPa) = 20.82656 24.41586 22.62121
#
# Velocity S-wave (km/s) = 3.10598 3.36300 3.23704
# Velocity P-wave (km/s) = 4.72323 5.48121 5.11627
#
# Compressibility (1/GPa) = 0.04903793
#
# Stress axis : x y z
#
# Youngs Moduli (GPa) = 106.45202 47.86379 34.32283
#
# Poissons Ratio (x) = 0.16237 0.20777
# Poissons Ratio (y) = 0.36112 -0.14600
# Poissons Ratio (z) = 0.64439 -0.20360
#
# Static dielectric constant tensor:
#      x y z
#    x 1.866460 0.000000 0.000000 
#    y 0.000000 1.784680 0.000000 
#    z 0.000000 0.000000 1.792000 
# 
# From -- ./inp_files/12489.got.cif
#   From: 2010.05.17/outbox.cif.g08.bks.cpg/sg40_7_cif.got.tgz:12489.got - 2010.06.03 18:35:42.
