data_PCOD9363583
_publ_section_title
;
Structure prediction by ZEFSAII (Michael W. Deem and Ramdas Pophale) SiO2 
 PCOD9363583
Probable space group: A M A 2
;
_chemical_formula_sum "Si O2"
_cell_formula_units_Z 32
_cell_length_a 15.467710
_cell_length_b 9.120537
_cell_length_c 11.412912
_cell_angle_alpha 90.000000
_cell_angle_beta 90.000000
_cell_angle_gamma 90.000000
_cell_volume 1610.063109
_symmetry_space_group_name_H-M "A M A 2"
_symmetry_group_IT_number 40
_symmetry_cell_setting 'orthorhombic'
loop_
_space_group_symop_operation_xyz
x,y,z
-x,-y,z
1/2-x,y,z
1/2+x,-y,z
x,1/2+y,1/2+z
-x,1/2-y,1/2+z
1/2-x,1/2+y,1/2+z
1/2+x,1/2-y,1/2+z
loop_
_atom_site_type_symbol
_atom_site_label
_atom_site_fract_x
_atom_site_fract_y
_atom_site_fract_z
Si Si1 0.250000 0.947300 0.087750
Si Si2 0.250000 0.185180 0.407122
Si Si3 0.384683 0.192674 0.006171
Si Si4 0.750000 0.137507 0.359706
Si Si5 0.151674 0.366744 0.235975
Si Si6 0.000000 0.000000 0.877748
O O1 0.250000 0.908002 0.224333
O O2 0.250000 0.797994 0.013825
O O3 0.330989 0.049719 0.050470
O O4 0.169245 0.230044 0.324011
O O5 0.250000 0.014896 0.431756
O O6 0.331931 0.268339 0.901057
O O7 0.476059 0.136944 0.959916
O O8 0.382603 0.304851 0.113968
O O9 0.250000 0.428736 0.223577
O O10 0.083257 0.470357 0.297807
#
# Coordination Sequence:
#
# PCOD9363583 Si02
#       6
#     4   4   8   4   8   4
#     4  11  19  41  74  92 128 187 217 271 348 408
#     4  10  19  40  71  93 132 182 219 275 346 405
#     4  11  23  44  67 100 136 176 229 285 337 415
#     4  11  22  39  71 103 126 181 232 272 348 411
#     4  10  21  46  69  93 142 179 222 292 340 405
#     4  12  26  42  70 108 134 188 234 284 354 412
#
# _framework density 19.874998000000001
#
# number of rings (size 3 to 8) (size 9 to 14) (size 15 to 20)
#    0.750    0.500    7.500    0.000    1.750    4.000 
#    4.500    0.000    0.000    0.000    0.000    0.000 
#    0.000    0.000    0.000    0.000    0.000    0.000 
#
# Total GULP energy -89242.763179 kJ/mol
# GULP energy per Si atom -5577.672699 kJ/mol
# Density = 1.982976 g / cm^3
# Si number density = 19.874998 Si / 1000 Ang^3
#
#
#
# Elastic Constant Matrix: (Units=GPa)
#
#
# Indices 1 2 3 4 5 6 
#
# 1 65.0247 16.6012 29.8097 0.0000 0.0000 0.0000
# 2 16.6012 73.3721 43.5036 0.0000 0.0000 0.0000
# 3 29.8097 43.5036 124.3729 0.0000 0.0000 0.0000
# 4 0.0000 0.0000 0.0000 25.4739 0.0000 0.0000
# 5 0.0000 0.0000 0.0000 0.0000 13.0815 0.0000
# 6 0.0000 0.0000 0.0000 0.0000 0.0000 9.4479
#
#
#
# Elastic Compliance Matrix: (Units=1/GPa)
#
#
# Indices 1 2 3 4 5 6 
#
# 1 0.017475 -0.001855 -0.003539 0.000000 0.000000 0.000000
# 2 -0.001855 0.017392 -0.005639 0.000000 0.000000 0.000000
# 3 -0.003539 -0.005639 0.010861 0.000000 0.000000 0.000000
# 4 0.000000 0.000000 0.000000 0.039256 0.000000 0.000000
# 5 0.000000 0.000000 0.000000 0.000000 0.076444 0.000000
# 6 0.000000 0.000000 0.000000 0.000000 0.000000 0.105843
#
#
# Mechanical properties :
#
#
# Convention : Reuss Voigt Hill
#
# Bulk Modulus (GPa) = 42.26335 49.17762 45.72049
# Shear Modulus (GPa) = 16.82225 21.12436 18.97331
#
# Velocity S-wave (km/s) = 2.91246 3.26369 3.09306
# Velocity P-wave (km/s) = 5.71145 6.24495 5.98415
#
# Compressibility (1/GPa) = 0.02366116
#
# Stress axis : x y z
#
# Youngs Moduli (GPa) = 57.22440 57.49660 92.07209
#
# Poissons Ratio (x) = 0.10667 0.32589
# Poissons Ratio (y) = 0.10617 0.51918
# Poissons Ratio (z) = 0.20254 0.32422
#
# Static dielectric constant tensor:
#      x y z
#    x 1.706210 0.000000 0.000000 
#    y 0.000000 1.707640 0.000000 
#    z 0.000000 0.000000 1.719100 
# 
# From -- ./inp_files/11756.got.cif
#   From: 2010.05.17/outbox.cif.g08.bks.cpg/sg40_6_cif.got.tgz:11756.got - 2010.06.03 18:35:42.
