data_PCOD9363743
_publ_section_title
;
Structure prediction by ZEFSAII (Michael W. Deem and Ramdas Pophale) SiO2 
 PCOD9363743
Probable space group: A M A 2
;
_chemical_formula_sum "Si O2"
_cell_formula_units_Z 64
_cell_length_a 8.828779
_cell_length_b 16.778253
_cell_length_c 21.820191
_cell_angle_alpha 90.000000
_cell_angle_beta 90.000000
_cell_angle_gamma 90.000000
_cell_volume 3232.257356
_symmetry_space_group_name_H-M "A M A 2"
_symmetry_group_IT_number 40
_symmetry_cell_setting 'orthorhombic'
loop_
_space_group_symop_operation_xyz
x,y,z
-x,-y,z
1/2-x,y,z
1/2+x,-y,z
x,1/2+y,1/2+z
-x,1/2-y,1/2+z
1/2-x,1/2+y,1/2+z
1/2+x,1/2-y,1/2+z
loop_
_atom_site_type_symbol
_atom_site_label
_atom_site_fract_x
_atom_site_fract_y
_atom_site_fract_z
Si Si1 0.930274 0.259028 0.941160
Si Si2 0.077615 0.885249 0.640694
Si Si3 0.573588 0.580702 0.283014
Si Si4 0.075966 0.581773 0.613608
Si Si5 0.572043 0.252201 0.316240
Si Si6 0.929235 0.416970 0.014942
Si Si7 0.925969 0.225454 0.177569
Si Si8 0.923203 0.915277 0.965889
O O1 0.750000 0.251704 0.948226
O O2 0.976427 0.282189 0.872066
O O3 0.999607 0.170093 0.950603
O O4 0.982560 0.332368 0.985120
O O5 0.250000 0.895796 0.619329
O O6 0.064557 0.921106 0.708751
O O7 0.967940 0.914039 0.587275
O O8 0.035837 0.793907 0.653324
O O9 0.500000 0.500000 0.306445
O O10 0.750000 0.588417 0.299896
O O11 0.481235 0.656750 0.305873
O O12 0.250000 0.590962 0.634779
O O13 0.078662 0.583083 0.539952
O O14 0.000000 0.500000 0.633857
O O15 0.967083 0.649533 0.638527
O O16 0.750000 0.249281 0.330784
O O17 0.547669 0.212419 0.249897
O O18 0.750000 0.420540 0.005959
O O19 0.000000 0.500000 0.990705
O O20 0.750000 0.250024 0.170466
O O21 0.750000 0.914206 0.943177
O O22 0.000000 0.000000 0.947403
#
# Coordination Sequence:
#
# PCOD9363743 Si02
#       8
#     8   8   8   8   8   8   8   8
#     4  11  24  41  60  83 113 151 194 241 289 336
#     4  10  20  34  56  85 116 149 183 224 277 336
#     4  10  20  34  54  82 115 147 180 221 270 328
#     4  10  20  34  55  83 114 146 181 225 278 335
#     4  10  22  39  58  79 105 142 187 232 277 329
#     4  11  24  40  60  86 116 151 192 240 290 342
#     4  10  20  35  56  82 112 145 183 228 279 335
#     4  10  21  37  59  88 120 153 189 231 280 339
#
# _framework density 19.800404
#
# number of rings (size 3 to 8) (size 9 to 14) (size 15 to 20)
#    0.000    1.750    0.000    4.125    0.000   10.000 
#    0.000    3.125    0.000    1.500    0.000    0.000 
#    0.000    0.000    0.000    0.000    0.000    0.000 
#
# Total GULP energy -178642.449820 kJ/mol
# GULP energy per Si atom -5582.576557 kJ/mol
# Density = 1.975534 g / cm^3
# Si number density = 19.800404 Si / 1000 Ang^3
#
#
#
# Elastic Constant Matrix: (Units=GPa)
#
#
# Indices 1 2 3 4 5 6 
#
# 1 59.1956 33.4267 16.3771 0.0000 0.0000 0.0000
# 2 33.4267 85.3715 18.0709 0.0000 0.0000 0.0000
# 3 16.3771 18.0709 48.7392 0.0000 0.0000 0.0000
# 4 0.0000 0.0000 0.0000 -10.1326 0.0000 0.0000
# 5 0.0000 0.0000 0.0000 0.0000 22.4514 0.0000
# 6 0.0000 0.0000 0.0000 0.0000 0.0000 31.8187
#
#
#
# Elastic Compliance Matrix: (Units=1/GPa)
#
#
# Indices 1 2 3 4 5 6 
#
# 1 0.022634 -0.007870 -0.004687 0.000000 0.000000 0.000000
# 2 -0.007870 0.015448 -0.003083 0.000000 0.000000 0.000000
# 3 -0.004687 -0.003083 0.023235 0.000000 0.000000 0.000000
# 4 0.000000 0.000000 0.000000 -0.098691 0.000000 0.000000
# 5 0.000000 0.000000 0.000000 0.000000 0.044541 0.000000
# 6 0.000000 0.000000 0.000000 0.000000 0.000000 0.031428
#
#
# Mechanical properties :
#
#
# Convention : Reuss Voigt Hill
#
# Bulk Modulus (GPa) = 33.29319 36.56175 34.92747
# Shear Modulus (GPa) = 62.58800 17.18960 39.88880
#
# Velocity S-wave (km/s) = 5.62833 2.94962 4.49324
# Velocity P-wave (km/s) = 7.68689 5.48686 6.67810
#
# Compressibility (1/GPa) = 0.03003618
#
# Stress axis : x y z
#
# Youngs Moduli (GPa) = 44.18124 64.73515 43.03764
#
# Poissons Ratio (x) = 0.50947 0.20174
# Poissons Ratio (y) = 0.34771 0.13269
# Poissons Ratio (z) = 0.20710 0.19958
#
# Static dielectric constant tensor:
#      x y z
#    x 1.686090 0.000000 0.000000 
#    y 0.000000 1.717480 0.000000 
#    z 0.000000 0.000000 1.708160 
# 
# From -- ./inp_files/22372.got.cif
#   From: 2010.05.17/outbox.cif.g08.bks.cpg/sg40_12_cif.got.tgz:22372.got - 2010.06.03 18:35:42.
