data_PCOD9363338
_publ_section_title
;
Structure prediction by ZEFSAII (Michael W. Deem and Ramdas Pophale) SiO2 
 PCOD9363338
Probable space group: A M A 2
;
_chemical_formula_sum "Si O2"
_cell_formula_units_Z 44
_cell_length_a 13.721036
_cell_length_b 5.292441
_cell_length_c 26.852113
_cell_angle_alpha 90.000000
_cell_angle_beta 90.000000
_cell_angle_gamma 90.000000
_cell_volume 1949.940660
_symmetry_space_group_name_H-M "A M A 2"
_symmetry_group_IT_number 40
_symmetry_cell_setting 'orthorhombic'
loop_
_space_group_symop_operation_xyz
x,y,z
-x,-y,z
1/2-x,y,z
1/2+x,-y,z
x,1/2+y,1/2+z
-x,1/2-y,1/2+z
1/2-x,1/2+y,1/2+z
1/2+x,1/2-y,1/2+z
loop_
_atom_site_type_symbol
_atom_site_label
_atom_site_fract_x
_atom_site_fract_y
_atom_site_fract_z
Si Si1 0.000000 0.000000 0.978220
Si Si2 0.861637 0.336850 0.673500
Si Si3 0.939853 0.256424 0.572200
Si Si4 0.367219 0.826945 0.333220
Si Si5 0.630180 0.335705 0.224274
Si Si6 0.366782 0.818157 0.895047
O O1 0.931923 0.176311 0.944533
O O2 0.071972 0.162432 0.014459
O O3 0.750000 0.355982 0.689526
O O4 0.862072 0.246797 0.616038
O O5 0.898354 0.618442 0.684981
O O6 0.904078 0.111865 0.707042
O O7 0.000000 0.500000 0.589916
O O8 0.000000 0.000000 0.572725
O O9 0.250000 0.848504 0.328330
O O10 0.403865 0.757699 0.278384
O O11 0.384885 0.588339 0.368969
O O12 0.396494 0.091430 0.358200
O O13 0.750000 0.353604 0.225853
O O14 0.250000 0.796259 0.905036
#
# Coordination Sequence:
#
# PCOD9363338 Si02
#       6
#     4   8   8   8   8   8
#     4  10  26  40  64  80 120 156 200 258 302 346
#     4  10  19  34  60  88 113 149 196 236 283 359
#     4  10  23  40  57  79 110 160 187 242 306 338
#     4   9  18  34  58  89 119 150 190 235 291 355
#     4   9  17  31  57  89 118 149 185 235 291 346
#     4  10  21  37  61  87 116 156 198 242 294 355
#
# _framework density 22.564788
#
# number of rings (size 3 to 8) (size 9 to 14) (size 15 to 20)
#    0.545    1.818    0.000    2.182    2.545    5.091 
#    0.000    0.909   20.000    0.000    0.000    0.000 
#    0.000    0.000    0.000    0.000    0.000    0.000 
#
# Total GULP energy -122695.789198 kJ/mol
# GULP energy per Si atom -5577.081327 kJ/mol
# Density = 2.251343 g / cm^3
# Si number density = 22.564788 Si / 1000 Ang^3
#
#
#
# Elastic Constant Matrix: (Units=GPa)
#
#
# Indices 1 2 3 4 5 6 
#
# 1 49.4421 7.5545 7.9386 0.0000 0.0000 0.0000
# 2 7.5545 155.0373 39.5613 0.0000 0.0000 0.0000
# 3 7.9386 39.5613 129.5395 0.0000 0.0000 0.0000
# 4 0.0000 0.0000 0.0000 46.0443 0.0000 0.0000
# 5 0.0000 0.0000 0.0000 0.0000 33.7048 0.0000
# 6 0.0000 0.0000 0.0000 0.0000 0.0000 25.7710
#
#
#
# Elastic Compliance Matrix: (Units=1/GPa)
#
#
# Indices 1 2 3 4 5 6 
#
# 1 0.020504 -0.000736 -0.001032 0.000000 0.000000 0.000000
# 2 -0.000736 0.007022 -0.002099 0.000000 0.000000 0.000000
# 3 -0.001032 -0.002099 0.008424 0.000000 0.000000 0.000000
# 4 0.000000 0.000000 0.000000 0.021718 0.000000 0.000000
# 5 0.000000 0.000000 0.000000 0.000000 0.029669 0.000000
# 6 0.000000 0.000000 0.000000 0.000000 0.000000 0.038803
#
#
# Mechanical properties :
#
#
# Convention : Reuss Voigt Hill
#
# Bulk Modulus (GPa) = 35.44145 49.34752 42.39449
# Shear Modulus (GPa) = 34.89687 39.70164 37.29926
#
# Velocity S-wave (km/s) = 3.93685 4.19913 4.07010
# Velocity P-wave (km/s) = 6.03371 6.73996 6.39659
#
# Compressibility (1/GPa) = 0.02821555
#
# Stress axis : x y z
#
# Youngs Moduli (GPa) = 48.77149 142.41769 118.70821
#
# Poissons Ratio (x) = 0.10479 0.12249
# Poissons Ratio (y) = 0.03589 0.24920
# Poissons Ratio (z) = 0.05032 0.29898
#
# Static dielectric constant tensor:
#      x y z
#    x 1.881950 0.000000 0.000000 
#    y 0.000000 1.805990 0.000000 
#    z 0.000000 0.000000 1.854670 
# 
# From -- ./inp_files/25681.got.cif
#   From: 2010.05.17/outbox.cif.g08.bks.cpg/sg40_13_cif.got.tgz:25681.got - 2010.06.03 18:35:42.
