data_PCOD9363536
_publ_section_title
;
Structure prediction by ZEFSAII (Michael W. Deem and Ramdas Pophale) SiO2 
 PCOD9363536
Probable space group: A M A 2
;
_chemical_formula_sum "Si O2"
_cell_formula_units_Z 48
_cell_length_a 23.056104
_cell_length_b 6.267816
_cell_length_c 13.183273
_cell_angle_alpha 90.000000
_cell_angle_beta 90.000000
_cell_angle_gamma 90.000000
_cell_volume 1905.133469
_symmetry_space_group_name_H-M "A M A 2"
_symmetry_group_IT_number 40
_symmetry_cell_setting 'orthorhombic'
loop_
_space_group_symop_operation_xyz
x,y,z
-x,-y,z
1/2-x,y,z
1/2+x,-y,z
x,1/2+y,1/2+z
-x,1/2-y,1/2+z
1/2-x,1/2+y,1/2+z
1/2+x,1/2-y,1/2+z
loop_
_atom_site_type_symbol
_atom_site_label
_atom_site_fract_x
_atom_site_fract_y
_atom_site_fract_z
Si Si1 0.500000 0.500000 0.302881
Si Si2 0.870588 0.829374 0.475078
Si Si3 0.750000 0.106125 0.730124
Si Si4 0.457918 0.812658 0.474832
Si Si5 0.250000 0.037781 0.397304
Si Si6 0.622301 0.624815 0.268277
Si Si7 0.750000 0.827655 0.023838
Si Si8 0.375502 0.526725 0.602123
O O1 0.486852 0.700004 0.378065
O O2 0.559416 0.531638 0.240346
O O3 0.885612 0.659955 0.388061
O O4 0.884056 0.724486 0.583276
O O5 0.901778 0.048175 0.448799
O O6 0.804569 0.877483 0.457407
O O7 0.750000 0.335713 0.790888
O O8 0.685400 0.014519 0.753242
O O9 0.750000 0.148398 0.611240
O O10 0.431551 0.637780 0.550283
O O11 0.500000 0.000000 0.514217
O O12 0.250000 0.782938 0.413290
O O13 0.628446 0.851761 0.209071
O O14 0.687566 0.936311 0.046777
#
# Coordination Sequence:
#
# PCOD9363536 Si02
#       8
#     4   8   4   8   4   8   4   8
#     4  12  24  46  68 100 144 190 238 302 362 424
#     4  11  22  44  66  98 136 183 229 290 349 429
#     4   8  20  38  66  99 140 175 235 292 340 431
#     4  12  23  42  65  93 135 181 234 288 347 426
#     4  10  19  37  71  99 135 185 222 279 374 408
#     4  10  22  43  67  99 139 186 230 294 360 420
#     4  10  19  39  69 102 137 178 229 291 348 431
#     4  11  23  42  68  99 138 181 233 290 357 425
#
# _framework density 25.195084999999999
#
# number of rings (size 3 to 8) (size 9 to 14) (size 15 to 20)
#    0.000    1.333    5.000    0.500    1.167    0.000 
#    3.000    4.167    0.000    6.000    0.000    0.000 
#    0.000    0.000    0.000    0.000    0.000    0.000 
#
# Total GULP energy -133848.357913 kJ/mol
# GULP energy per Si atom -5577.014913 kJ/mol
# Density = 2.513774 g / cm^3
# Si number density = 25.195085 Si / 1000 Ang^3
#
#
#
# Elastic Constant Matrix: (Units=GPa)
#
#
# Indices 1 2 3 4 5 6 
#
# 1 198.8501 43.6467 27.6176 0.0000 0.0000 0.0000
# 2 43.6467 41.7926 29.5653 0.0000 0.0000 0.0000
# 3 27.6176 29.5653 81.3267 0.0000 0.0000 0.0000
# 4 0.0000 0.0000 0.0000 32.5521 0.0000 0.0000
# 5 0.0000 0.0000 0.0000 0.0000 33.2257 0.0000
# 6 0.0000 0.0000 0.0000 0.0000 0.0000 24.8580
#
#
#
# Elastic Compliance Matrix: (Units=1/GPa)
#
#
# Indices 1 2 3 4 5 6 
#
# 1 0.006532 -0.007071 0.000352 0.000000 0.000000 0.000000
# 2 -0.007071 0.039867 -0.012092 0.000000 0.000000 0.000000
# 3 0.000352 -0.012092 0.016572 0.000000 0.000000 0.000000
# 4 0.000000 0.000000 0.000000 0.030720 0.000000 0.000000
# 5 0.000000 0.000000 0.000000 0.000000 0.030097 0.000000
# 6 0.000000 0.000000 0.000000 0.000000 0.000000 0.040228
#
#
# Mechanical properties :
#
#
# Convention : Reuss Voigt Hill
#
# Bulk Modulus (GPa) = 39.44787 58.18096 48.81441
# Shear Modulus (GPa) = 23.79964 32.86982 28.33473
#
# Velocity S-wave (km/s) = 3.07679 3.61586 3.35716
# Velocity P-wave (km/s) = 5.32101 6.36984 5.86890
#
# Compressibility (1/GPa) = 0.02534991
#
# Stress axis : x y z
#
# Youngs Moduli (GPa) = 153.09123 25.08371 60.34200
#
# Poissons Ratio (x) = 0.17737 -0.02127
# Poissons Ratio (y) = 1.08253 0.72964
# Poissons Ratio (z) = -0.05395 0.30330
#
# Static dielectric constant tensor:
#      x y z
#    x 2.125840 0.000000 0.000000 
#    y 0.000000 2.191430 0.000000 
#    z 0.000000 0.000000 1.973220 
# 
# From -- ./inp_files/21514.got.cif
#   From: 2010.05.17/outbox.cif.g08.bks.cpg/sg40_11_cif.got.tgz:21514.got - 2010.06.03 18:35:42.
