data_PCOD9363140
_publ_section_title
;
Structure prediction by ZEFSAII (Michael W. Deem and Ramdas Pophale) SiO2 
 PCOD9363140
Probable space group: A M A 2
;
_chemical_formula_sum "Si O2"
_cell_formula_units_Z 60
_cell_length_a 9.891438
_cell_length_b 18.724318
_cell_length_c 18.446727
_cell_angle_alpha 90.000000
_cell_angle_beta 90.000000
_cell_angle_gamma 90.000000
_cell_volume 3416.526251
_symmetry_space_group_name_H-M "A M A 2"
_symmetry_group_IT_number 40
_symmetry_cell_setting 'orthorhombic'
loop_
_space_group_symop_operation_xyz
x,y,z
-x,-y,z
1/2-x,y,z
1/2+x,-y,z
x,1/2+y,1/2+z
-x,1/2-y,1/2+z
1/2-x,1/2+y,1/2+z
1/2+x,1/2-y,1/2+z
loop_
_atom_site_type_symbol
_atom_site_label
_atom_site_fract_x
_atom_site_fract_y
_atom_site_fract_z
Si Si1 0.093845 0.564464 0.731370
Si Si2 0.903713 0.175913 0.157984
Si Si3 0.096570 0.227462 0.043327
Si Si4 0.402729 0.671377 0.236489
Si Si5 0.092571 0.755171 0.376711
Si Si6 0.899984 0.391161 0.893316
Si Si7 0.098685 0.381062 0.119533
Si Si8 0.500000 0.500000 0.013977
O O1 0.250000 0.563134 0.706129
O O2 0.098678 0.564652 0.818624
O O3 0.000000 0.500000 0.705028
O O4 0.009455 0.633288 0.707236
O O5 0.750000 0.147084 0.156281
O O6 0.895588 0.255051 0.190936
O O7 0.978570 0.182900 0.081154
O O8 0.250000 0.206666 0.066282
O O9 0.079059 0.309938 0.069708
O O10 0.089241 0.223110 0.957102
O O11 0.250000 0.642876 0.244436
O O12 0.453355 0.699244 0.314957
O O13 0.495170 0.621284 0.186608
O O14 0.250000 0.772724 0.358811
O O15 0.007198 0.827800 0.382800
O O16 0.750000 0.359272 0.901837
O O17 0.926552 0.444199 0.960188
O O18 0.250000 0.376729 0.149007
O O19 0.084617 0.449192 0.067453
#
# Coordination Sequence:
#
# PCOD9363140 Si02
#       8
#     8   8   8   8   8   8   8   4
#     4  11  22  35  51  75 106 143 181 216 261 321
#     4  10  19  33  52  75 106 141 175 221 270 321
#     4   9  18  33  53  77 104 136 177 221 272 328
#     4   9  19  34  54  77 105 141 183 230 274 319
#     4  10  19  35  56  78 106 139 176 222 276 323
#     4  11  23  33  49  77 109 145 181 218 260 314
#     4  10  21  35  53  76 107 149 186 222 268 325
#     4  12  22  38  52  78 116 156 188 222 272 336
#
# _framework density 17.561698
#
# number of rings (size 3 to 8) (size 9 to 14) (size 15 to 20)
#    0.000    1.867    3.333    1.200    0.000    3.733 
#    0.000    0.000    0.000    0.000    1.733    0.000 
#    0.000    0.000    0.000    0.000    0.000    0.000 
#
# Total GULP energy -167094.723497 kJ/mol
# GULP energy per Si atom -5569.824117 kJ/mol
# Density = 1.752173 g / cm^3
# Si number density = 17.561698 Si / 1000 Ang^3
#
#
#
# Elastic Constant Matrix: (Units=GPa)
#
#
# Indices 1 2 3 4 5 6 
#
# 1 112.9433 29.7068 44.2504 0.0000 0.0000 0.0000
# 2 29.7068 29.2135 17.0175 0.0000 0.0000 0.0000
# 3 44.2504 17.0175 92.3739 0.0000 0.0000 0.0000
# 4 0.0000 0.0000 0.0000 26.9277 0.0000 0.0000
# 5 0.0000 0.0000 0.0000 0.0000 20.2327 0.0000
# 6 0.0000 0.0000 0.0000 0.0000 0.0000 16.6987
#
#
#
# Elastic Compliance Matrix: (Units=1/GPa)
#
#
# Indices 1 2 3 4 5 6 
#
# 1 0.013526 -0.011180 -0.004420 0.000000 0.000000 0.000000
# 2 -0.011180 0.047586 -0.003411 0.000000 0.000000 0.000000
# 3 -0.004420 -0.003411 0.013571 0.000000 0.000000 0.000000
# 4 0.000000 0.000000 0.000000 0.037137 0.000000 0.000000
# 5 0.000000 0.000000 0.000000 0.000000 0.049425 0.000000
# 6 0.000000 0.000000 0.000000 0.000000 0.000000 0.059885
#
#
# Mechanical properties :
#
#
# Convention : Reuss Voigt Hill
#
# Bulk Modulus (GPa) = 27.27607 46.27557 36.77582
# Shear Modulus (GPa) = 18.42485 22.34222 20.38353
#
# Velocity S-wave (km/s) = 3.24257 3.57068 3.41057
# Velocity P-wave (km/s) = 5.43915 6.58841 6.04117
#
# Compressibility (1/GPa) = 0.03666217
#
# Stress axis : x y z
#
# Youngs Moduli (GPa) = 73.93008 21.01443 73.68503
#
# Poissons Ratio (x) = 0.23494 0.32569
# Poissons Ratio (y) = 0.82653 0.25134
# Poissons Ratio (z) = 0.32677 0.07168
#
# Static dielectric constant tensor:
#      x y z
#    x 1.630220 0.000000 0.000000 
#    y 0.000000 1.605130 0.000000 
#    z 0.000000 0.000000 1.608710 
# 
# From -- ./inp_files/19411.got.cif
#   From: 2010.05.17/outbox.cif.g08.bks.cpg/sg40_10_cif.got.tgz:19411.got - 2010.06.03 18:35:42.
