data_PCOD9363123
_publ_section_title
;
Structure prediction by ZEFSAII (Michael W. Deem and Ramdas Pophale) SiO2 
 PCOD9363123
Probable space group: A M A 2
;
_chemical_formula_sum "Si O2"
_cell_formula_units_Z 64
_cell_length_a 8.627817
_cell_length_b 23.902845
_cell_length_c 19.648152
_cell_angle_alpha 90.000000
_cell_angle_beta 90.000000
_cell_angle_gamma 90.000000
_cell_volume 4052.026057
_symmetry_space_group_name_H-M "A M A 2"
_symmetry_group_IT_number 40
_symmetry_cell_setting 'orthorhombic'
loop_
_space_group_symop_operation_xyz
x,y,z
-x,-y,z
1/2-x,y,z
1/2+x,-y,z
x,1/2+y,1/2+z
-x,1/2-y,1/2+z
1/2-x,1/2+y,1/2+z
1/2+x,1/2-y,1/2+z
loop_
_atom_site_type_symbol
_atom_site_label
_atom_site_fract_x
_atom_site_fract_y
_atom_site_fract_z
Si Si1 0.935981 0.562439 0.896720
Si Si2 0.436840 0.276730 0.687708
Si Si3 0.562308 0.336179 0.267285
Si Si4 0.064078 0.381633 0.041231
Si Si5 0.435724 0.244552 0.539051
Si Si6 0.936261 0.769680 0.895723
Si Si7 0.934310 0.336783 0.813844
Si Si8 0.436336 0.561849 0.177385
O O1 0.750000 0.562202 0.892236
O O2 0.000000 0.500000 0.890694
O O3 0.004363 0.604043 0.840273
O O4 0.979312 0.588226 0.970509
O O5 0.250000 0.281977 0.693697
O O6 0.479877 0.215549 0.717938
O O7 0.479860 0.276377 0.608550
O O8 0.514595 0.321591 0.737228
O O9 0.750000 0.337863 0.268038
O O10 0.513154 0.318017 0.342849
O O11 0.508727 0.394134 0.234959
O O12 0.250000 0.381878 0.046637
O O13 0.004952 0.317971 0.040689
O O14 0.992626 0.414153 0.105055
O O15 0.250000 0.239647 0.538207
O O16 0.493841 0.273573 0.470469
O O17 0.750000 0.768978 0.899578
O O18 0.990176 0.711382 0.861445
O O19 0.750000 0.333787 0.820416
O O20 0.500000 0.500000 0.188121
O O21 0.250000 0.560682 0.177350
#
# Coordination Sequence:
#
# PCOD9363123 Si02
#       8
#     8   8   8   8   8   8   8   8
#     4  11  23  37  52  71 100 138 176 215 252 298
#     4   9  18  34  52  71  99 134 165 203 256 307
#     4   8  16  32  50  67  94 133 167 201 251 299
#     4  11  22  34  49  72 102 138 175 210 245 293
#     4  11  20  32  52  77 104 136 168 206 255 307
#     4  10  19  33  51  72 100 133 168 209 255 304
#     4  11  21  33  51  75 100 131 170 213 253 301
#     4  11  21  35  51  71  99 136 176 214 252 297
#
# _framework density 15.794568
#
# number of rings (size 3 to 8) (size 9 to 14) (size 15 to 20)
#    0.000    1.750    2.500    4.125    0.000    3.500 
#    0.000    1.875    0.000    0.000    0.000    0.875 
#    0.000    4.000    0.000    0.000    0.000    0.000 
#
# Total GULP energy -178628.894161 kJ/mol
# GULP energy per Si atom -5582.152943 kJ/mol
# Density = 1.575862 g / cm^3
# Si number density = 15.794568 Si / 1000 Ang^3
#
#
#
# Elastic Constant Matrix: (Units=GPa)
#
#
# Indices 1 2 3 4 5 6 
#
# 1 49.0226 31.2424 36.2185 0.0000 0.0000 0.0000
# 2 31.2424 102.2628 73.6456 0.0000 0.0000 0.0000
# 3 36.2185 73.6456 142.7822 0.0000 0.0000 0.0000
# 4 0.0000 0.0000 0.0000 17.9678 0.0000 0.0000
# 5 0.0000 0.0000 0.0000 0.0000 59.9246 0.0000
# 6 0.0000 0.0000 0.0000 0.0000 0.0000 14.5939
#
#
#
# Elastic Compliance Matrix: (Units=1/GPa)
#
#
# Indices 1 2 3 4 5 6 
#
# 1 0.026752 -0.005228 -0.004089 0.000000 0.000000 0.000000
# 2 -0.005228 0.016579 -0.007225 0.000000 0.000000 0.000000
# 3 -0.004089 -0.007225 0.011768 0.000000 0.000000 0.000000
# 4 0.000000 0.000000 0.000000 0.055655 0.000000 0.000000
# 5 0.000000 0.000000 0.000000 0.000000 0.016688 0.000000
# 6 0.000000 0.000000 0.000000 0.000000 0.000000 0.068522
#
#
# Mechanical properties :
#
#
# Convention : Reuss Voigt Hill
#
# Bulk Modulus (GPa) = 45.42654 64.03117 54.72886
# Shear Modulus (GPa) = 21.15181 28.69468 24.92325
#
# Velocity S-wave (km/s) = 3.66345 4.26695 3.97667
# Velocity P-wave (km/s) = 6.83504 8.05629 7.47067
#
# Compressibility (1/GPa) = 0.02201356
#
# Stress axis : x y z
#
# Youngs Moduli (GPa) = 37.38058 60.31627 84.97812
#
# Poissons Ratio (x) = 0.31533 0.34751
# Poissons Ratio (y) = 0.19542 0.61399
# Poissons Ratio (z) = 0.15287 0.43580
#
# Static dielectric constant tensor:
#      x y z
#    x 1.531560 0.000000 0.000000 
#    y 0.000000 1.502600 0.000000 
#    z 0.000000 0.000000 1.536610 
# 
# From -- ./inp_files/19611.got.cif
#   From: 2010.05.17/outbox.cif.g08.bks.cpg/sg40_10_cif.got.tgz:19611.got - 2010.06.03 18:35:42.
