data_PCOD9363485
_publ_section_title
;
Structure prediction by ZEFSAII (Michael W. Deem and Ramdas Pophale) SiO2 
 PCOD9363485
Probable space group: A M A 2
;
_chemical_formula_sum "Si O2"
_cell_formula_units_Z 64
_cell_length_a 17.307092
_cell_length_b 11.017395
_cell_length_c 14.702093
_cell_angle_alpha 90.000000
_cell_angle_beta 90.000000
_cell_angle_gamma 90.000000
_cell_volume 2803.381404
_symmetry_space_group_name_H-M "A M A 2"
_symmetry_group_IT_number 40
_symmetry_cell_setting 'orthorhombic'
loop_
_space_group_symop_operation_xyz
x,y,z
-x,-y,z
1/2-x,y,z
1/2+x,-y,z
x,1/2+y,1/2+z
-x,1/2-y,1/2+z
1/2-x,1/2+y,1/2+z
1/2+x,1/2-y,1/2+z
loop_
_atom_site_type_symbol
_atom_site_label
_atom_site_fract_x
_atom_site_fract_y
_atom_site_fract_z
Si Si1 0.423452 0.418950 0.627540
Si Si2 0.415340 0.540636 0.204005
Si Si3 0.898634 0.239519 0.467447
Si Si4 0.340306 0.289966 0.172101
Si Si5 0.660870 0.213223 0.279993
Si Si6 0.159452 0.504868 0.458943
Si Si7 0.157821 0.748138 0.863811
Si Si8 0.941761 0.832265 0.518172
O O1 0.500000 0.500000 0.631251
O O2 0.388198 0.384389 0.724087
O O3 0.355817 0.473686 0.564315
O O4 0.443794 0.295066 0.573680
O O5 0.500000 0.500000 0.240463
O O6 0.356867 0.428720 0.200252
O O7 0.377736 0.656984 0.252484
O O8 0.429718 0.573672 0.098239
O O9 0.873981 0.231598 0.572640
O O10 0.844454 0.190214 0.387650
O O11 0.898062 0.383028 0.444150
O O12 0.978933 0.169512 0.463048
O O13 0.250000 0.265125 0.165602
O O14 0.372942 0.222164 0.261985
O O15 0.750000 0.214664 0.250720
O O16 0.250000 0.537722 0.443766
O O17 0.140717 0.386487 0.398592
O O18 0.250000 0.739340 0.860669
O O19 0.124840 0.665961 0.943625
#
# Coordination Sequence:
#
# PCOD9363485 Si02
#       8
#     8   8   8   8   8   8   8   8
#     4  10  20  40  64  94 123 160 209 261 318 376
#     4  11  23  42  65  95 127 168 217 265 321 382
#     4  12  23  39  62  90 130 167 210 261 320 378
#     4  11  23  41  64  91 127 167 213 263 316 378
#     4  11  25  43  65  95 130 172 215 263 325 386
#     4  10  19  36  63  90 121 159 205 256 314 381
#     4   9  21  39  64  96 126 162 211 260 315 382
#     4  10  22  39  64  94 125 164 208 260 320 379
#
# _framework density 22.829574000000001
#
# number of rings (size 3 to 8) (size 9 to 14) (size 15 to 20)
#    0.000    1.500    2.500    2.625    1.750    4.500 
#    2.250    0.000    0.000    1.500    0.000    0.000 
#    0.000    0.000    0.000    0.000    0.000    0.000 
#
# Total GULP energy -178754.702050 kJ/mol
# GULP energy per Si atom -5586.084439 kJ/mol
# Density = 2.277761 g / cm^3
# Si number density = 22.829574 Si / 1000 Ang^3
#
#
#
# Elastic Constant Matrix: (Units=GPa)
#
#
# Indices 1 2 3 4 5 6 
#
# 1 43.6337 -4.6101 36.6744 0.0000 0.0000 0.0000
# 2 -4.6101 16.3407 15.9158 0.0000 0.0000 0.0000
# 3 36.6744 15.9158 154.4602 0.0000 0.0000 0.0000
# 4 0.0000 0.0000 0.0000 3.2848 0.0000 0.0000
# 5 0.0000 0.0000 0.0000 0.0000 31.5615 0.0000
# 6 0.0000 0.0000 0.0000 0.0000 0.0000 28.1742
#
#
#
# Elastic Compliance Matrix: (Units=1/GPa)
#
#
# Indices 1 2 3 4 5 6 
#
# 1 0.033180 0.018934 -0.009829 0.000000 0.000000 0.000000
# 2 0.018934 0.078829 -0.012618 0.000000 0.000000 0.000000
# 3 -0.009829 -0.012618 0.010108 0.000000 0.000000 0.000000
# 4 0.000000 0.000000 0.000000 0.304431 0.000000 0.000000
# 5 0.000000 0.000000 0.000000 0.000000 0.031684 0.000000
# 6 0.000000 0.000000 0.000000 0.000000 0.000000 0.035493
#
#
# Mechanical properties :
#
#
# Convention : Reuss Voigt Hill
#
# Bulk Modulus (GPa) = 8.68878 34.48832 21.58855
# Shear Modulus (GPa) = 9.27444 23.70107 16.48776
#
# Velocity S-wave (km/s) = 2.01774 3.22557 2.69031
# Velocity P-wave (km/s) = 3.04016 5.38628 4.37348
#
# Compressibility (1/GPa) = 0.11509090
#
# Stress axis : x y z
#
# Youngs Moduli (GPa) = 30.13853 12.68571 98.92975
#
# Poissons Ratio (x) = -0.24020 0.97240
# Poissons Ratio (y) = -0.57066 1.24833
# Poissons Ratio (z) = 0.29624 0.16007
#
# Static dielectric constant tensor:
#      x y z
#    x 1.810380 0.000000 0.000000 
#    y 0.000000 1.887770 0.000000 
#    z 0.000000 0.000000 1.869110 
# 
# From -- ./inp_files/17887.got.cif
#   From: 2010.05.17/outbox.cif.g08.bks.cpg/sg40_9_cif.got.tgz:17887.got - 2010.06.03 18:35:42.
