data_PCOD9363765
_publ_section_title
;
Structure prediction by ZEFSAII (Michael W. Deem and Ramdas Pophale) SiO2 
 PCOD9363765
Probable space group: A M A 2
;
_chemical_formula_sum "Si O2"
_cell_formula_units_Z 48
_cell_length_a 9.247858
_cell_length_b 22.702566
_cell_length_c 11.595378
_cell_angle_alpha 90.000000
_cell_angle_beta 90.000000
_cell_angle_gamma 90.000000
_cell_volume 2434.450847
_symmetry_space_group_name_H-M "A M A 2"
_symmetry_group_IT_number 40
_symmetry_cell_setting 'orthorhombic'
loop_
_space_group_symop_operation_xyz
x,y,z
-x,-y,z
1/2-x,y,z
1/2+x,-y,z
x,1/2+y,1/2+z
-x,1/2-y,1/2+z
1/2-x,1/2+y,1/2+z
1/2+x,1/2-y,1/2+z
loop_
_atom_site_type_symbol
_atom_site_label
_atom_site_fract_x
_atom_site_fract_y
_atom_site_fract_z
Si Si1 0.585055 0.649752 0.780780
Si Si2 0.921595 0.362713 0.144192
Si Si3 0.577930 0.266606 0.948572
Si Si4 0.089051 0.445513 0.984165
Si Si5 0.920083 0.349628 0.411674
Si Si6 0.078522 0.062780 0.108023
O O1 0.750000 0.664445 0.743371
O O2 0.501944 0.704992 0.837088
O O3 0.494275 0.613243 0.687222
O O4 0.595753 0.604316 0.887336
O O5 0.750000 0.373574 0.135941
O O6 0.957993 0.353058 0.277110
O O7 0.007527 0.417490 0.092120
O O8 0.952923 0.307140 0.060663
O O9 0.750000 0.266544 0.930378
O O10 0.515826 0.201754 0.966545
O O11 0.250000 0.464399 0.014632
O O12 0.000000 0.500000 0.936582
O O13 0.750000 0.333454 0.421338
O O14 0.937924 0.410949 0.479075
O O15 0.250000 0.057211 0.134121
O O16 0.000000 0.000000 0.122061
#
# Coordination Sequence:
#
# PCOD9363765 Si02
#       6
#     8   8   8   8   8   8
#     4  10  21  38  61  88 120 157 198 248 302 354
#     4   9  20  39  58  81 114 151 192 239 290 350
#     4  10  21  37  61  91 119 152 198 247 302 362
#     4  10  20  34  56  85 114 149 189 238 291 345
#     4  10  23  41  60  85 120 159 198 246 300 358
#     4  11  24  41  61  88 123 164 209 254 303 362
#
# _framework density 19.716971000000001
#
# number of rings (size 3 to 8) (size 9 to 14) (size 15 to 20)
#    0.000    2.000    0.000    2.500    2.333    6.667 
#    0.000    1.667    0.000    0.000    0.000    0.000 
#    0.000    0.000    0.000    0.000    0.000    0.000 
#
# Total GULP energy -134013.118526 kJ/mol
# GULP energy per Si atom -5583.879939 kJ/mol
# Density = 1.967209 g / cm^3
# Si number density = 19.716971 Si / 1000 Ang^3
#
#
#
# Elastic Constant Matrix: (Units=GPa)
#
#
# Indices 1 2 3 4 5 6 
#
# 1 76.1670 31.0128 37.5313 0.0000 0.0000 0.0000
# 2 31.0128 60.0848 8.1662 0.0000 0.0000 0.0000
# 3 37.5313 8.1662 77.9420 0.0000 0.0000 0.0000
# 4 0.0000 0.0000 0.0000 17.8640 0.0000 0.0000
# 5 0.0000 0.0000 0.0000 0.0000 11.7633 0.0000
# 6 0.0000 0.0000 0.0000 0.0000 0.0000 34.9280
#
#
#
# Elastic Compliance Matrix: (Units=1/GPa)
#
#
# Indices 1 2 3 4 5 6 
#
# 1 0.021876 -0.010002 -0.009486 0.000000 0.000000 0.000000
# 2 -0.010002 0.021457 0.002568 0.000000 0.000000 0.000000
# 3 -0.009486 0.002568 0.017129 0.000000 0.000000 0.000000
# 4 0.000000 0.000000 0.000000 0.055978 0.000000 0.000000
# 5 0.000000 0.000000 0.000000 0.000000 0.085010 0.000000
# 6 0.000000 0.000000 0.000000 0.000000 0.000000 0.028630
#
#
# Mechanical properties :
#
#
# Convention : Reuss Voigt Hill
#
# Bulk Modulus (GPa) = 37.56330 40.84605 39.20468
# Shear Modulus (GPa) = 18.32892 22.07663 20.20277
#
# Velocity S-wave (km/s) = 3.05224 3.34979 3.20447
# Velocity P-wave (km/s) = 5.61375 5.97684 5.79814
#
# Compressibility (1/GPa) = 0.02662173
#
# Stress axis : x y z
#
# Youngs Moduli (GPa) = 45.71299 46.60572 58.38171
#
# Poissons Ratio (x) = 0.46615 0.55380
# Poissons Ratio (y) = 0.45722 -0.14993
# Poissons Ratio (z) = 0.43362 -0.11969
#
# Static dielectric constant tensor:
#      x y z
#    x 1.683810 0.000000 0.000000 
#    y 0.000000 1.676630 0.000000 
#    z 0.000000 0.000000 1.699750 
# 
# From -- ./inp_files/10238.got.cif
#   From: 2010.05.17/outbox.cif.g08.bks.cpg/sg40_6_cif.got.tgz:10238.got - 2010.06.03 18:35:42.
