data_PCOD9363047
_publ_section_title
;
Structure prediction by ZEFSAII (Michael W. Deem and Ramdas Pophale) SiO2 
 PCOD9363047
Probable space group: A M A 2
;
_chemical_formula_sum "Si O2"
_cell_formula_units_Z 64
_cell_length_a 8.727334
_cell_length_b 16.924843
_cell_length_c 22.277593
_cell_angle_alpha 90.000000
_cell_angle_beta 90.000000
_cell_angle_gamma 90.000000
_cell_volume 3290.595588
_symmetry_space_group_name_H-M "A M A 2"
_symmetry_group_IT_number 40
_symmetry_cell_setting 'orthorhombic'
loop_
_space_group_symop_operation_xyz
x,y,z
-x,-y,z
1/2-x,y,z
1/2+x,-y,z
x,1/2+y,1/2+z
-x,1/2-y,1/2+z
1/2-x,1/2+y,1/2+z
1/2+x,1/2-y,1/2+z
loop_
_atom_site_type_symbol
_atom_site_label
_atom_site_fract_x
_atom_site_fract_y
_atom_site_fract_z
Si Si1 0.568368 0.416566 0.132740
Si Si2 0.573039 0.917695 0.231365
Si Si3 0.935051 0.233706 0.561661
Si Si4 0.429455 0.774317 0.295815
Si Si5 0.430224 0.385115 0.260421
Si Si6 0.568098 0.579017 0.395739
Si Si7 0.067681 0.242839 0.930384
Si Si8 0.926114 0.414844 0.586568
O O1 0.500000 0.500000 0.108903
O O2 0.750000 0.417784 0.125887
O O3 0.503358 0.335798 0.102925
O O4 0.523366 0.413443 0.203139
O O5 0.750000 0.908740 0.250536
O O6 0.465900 0.851715 0.259254
O O7 0.571402 0.914430 0.159132
O O8 0.500000 0.000000 0.250103
O O9 0.750000 0.233397 0.570643
O O10 0.973110 0.214537 0.492143
O O11 0.986690 0.325940 0.570755
O O12 0.250000 0.751254 0.290893
O O13 0.537721 0.707661 0.267807
O O14 0.466822 0.783192 0.366559
O O15 0.250000 0.401724 0.252062
O O16 0.482249 0.416069 0.325676
O O17 0.500000 0.500000 0.422886
O O18 0.750000 0.576764 0.396405
O O19 0.509963 0.657366 0.427493
O O20 0.250000 0.230300 0.932242
O O21 0.750000 0.416833 0.565166
O O22 0.000000 0.500000 0.568742
#
# Coordination Sequence:
#
# PCOD9363047 Si02
#       8
#     8   8   8   8   8   8   8   8
#     4  12  25  40  60  86 114 148 189 238 290 344
#     4  10  19  32  51  77 107 139 175 221 276 333
#     4  10  21  40  61  82 112 151 191 234 281 332
#     4  10  19  33  54  81 110 142 180 224 276 333
#     4  10  20  35  56  83 113 146 181 223 277 338
#     4  10  20  33  53  80 112 146 181 222 271 328
#     4   9  20  37  56  77 106 143 183 226 274 326
#     4   9  19  34  55  82 113 145 179 220 269 326
#
# _framework density 19.449366999999999
#
# number of rings (size 3 to 8) (size 9 to 14) (size 15 to 20)
#    0.000    2.000    0.000    3.750    0.000    6.000 
#    0.000    1.875    0.000    0.000    0.000    0.000 
#    0.000    0.000    0.000    0.000    0.000    0.000 
#
# Total GULP energy -178502.554722 kJ/mol
# GULP energy per Si atom -5578.204835 kJ/mol
# Density = 1.940510 g / cm^3
# Si number density = 19.449367 Si / 1000 Ang^3
#
#
#
# Elastic Constant Matrix: (Units=GPa)
#
#
# Indices 1 2 3 4 5 6 
#
# 1 39.6473 18.8761 28.2671 0.0000 0.0000 0.0000
# 2 18.8761 101.6391 30.7038 0.0000 0.0000 0.0000
# 3 28.2671 30.7038 65.4777 0.0000 0.0000 0.0000
# 4 0.0000 0.0000 0.0000 -11.0500 0.0000 0.0000
# 5 0.0000 0.0000 0.0000 0.0000 12.9065 0.0000
# 6 0.0000 0.0000 0.0000 0.0000 0.0000 30.2553
#
#
#
# Elastic Compliance Matrix: (Units=1/GPa)
#
#
# Indices 1 2 3 4 5 6 
#
# 1 0.036925 -0.002379 -0.014825 0.000000 0.000000 0.000000
# 2 -0.002379 0.011616 -0.004420 0.000000 0.000000 0.000000
# 3 -0.014825 -0.004420 0.023745 0.000000 0.000000 0.000000
# 4 0.000000 0.000000 0.000000 -0.090498 0.000000 0.000000
# 5 0.000000 0.000000 0.000000 0.000000 0.077481 0.000000
# 6 0.000000 0.000000 0.000000 0.000000 0.000000 0.033052
#
#
# Mechanical properties :
#
#
# Convention : Reuss Voigt Hill
#
# Bulk Modulus (GPa) = 34.43807 40.27312 37.35559
# Shear Modulus (GPa) = 34.42411 15.01683 24.72047
#
# Velocity S-wave (km/s) = 4.21162 2.78168 3.56900
# Velocity P-wave (km/s) = 6.43392 5.57392 6.01930
#
# Compressibility (1/GPa) = 0.02903764
#
# Stress axis : x y z
#
# Youngs Moduli (GPa) = 27.08207 86.09016 42.11423
#
# Poissons Ratio (x) = 0.20482 0.62434
# Poissons Ratio (y) = 0.06443 0.18613
# Poissons Ratio (z) = 0.40149 0.38050
#
# Static dielectric constant tensor:
#      x y z
#    x 1.661600 0.000000 0.000000 
#    y 0.000000 1.720340 0.000000 
#    z 0.000000 0.000000 1.690800 
# 
# From -- ./inp_files/24286.got.cif
#   From: 2010.05.17/outbox.cif.g08.bks.cpg/sg40_13_cif.got.tgz:24286.got - 2010.06.03 18:35:42.
