data_PCOD9363202
_publ_section_title
;
Structure prediction by ZEFSAII (Michael W. Deem and Ramdas Pophale) SiO2 
 PCOD9363202
Probable space group: A M A 2
;
_chemical_formula_sum "Si O2"
_cell_formula_units_Z 48
_cell_length_a 8.402875
_cell_length_b 19.674442
_cell_length_c 15.557951
_cell_angle_alpha 90.000000
_cell_angle_beta 90.000000
_cell_angle_gamma 90.000000
_cell_volume 2572.069659
_symmetry_space_group_name_H-M "A M A 2"
_symmetry_group_IT_number 40
_symmetry_cell_setting 'orthorhombic'
loop_
_space_group_symop_operation_xyz
x,y,z
-x,-y,z
1/2-x,y,z
1/2+x,-y,z
x,1/2+y,1/2+z
-x,1/2-y,1/2+z
1/2-x,1/2+y,1/2+z
1/2+x,1/2-y,1/2+z
loop_
_atom_site_type_symbol
_atom_site_label
_atom_site_fract_x
_atom_site_fract_y
_atom_site_fract_z
Si Si1 0.059147 0.075912 0.635140
Si Si2 0.942287 0.328208 0.290094
Si Si3 0.444553 0.327491 0.788656
Si Si4 0.059203 0.924096 0.443567
Si Si5 0.557935 0.074962 0.136294
Si Si6 0.559292 0.075181 0.939281
O O1 0.250000 0.074869 0.634324
O O2 0.003726 0.129589 0.706375
O O3 0.000237 0.092485 0.539306
O O4 0.000000 0.000000 0.656513
O O5 0.750000 0.327388 0.288476
O O6 0.998394 0.250382 0.289636
O O7 0.995872 0.368813 0.374161
O O8 0.250000 0.326960 0.788450
O O9 0.494690 0.370000 0.872480
O O10 0.496046 0.368486 0.703835
O O11 0.250000 0.925405 0.444499
O O12 0.000000 0.000000 0.422063
O O13 0.750000 0.074399 0.136632
O O14 0.500000 0.000000 0.162117
O O15 0.505581 0.087289 0.037915
O O16 0.750000 0.075312 0.937599
O O17 0.500000 0.000000 0.913950
#
# Coordination Sequence:
#
# PCOD9363202 Si02
#       6
#     8   8   8   8   8   8
#     4  10  20  34  54  76 100 132 170 212 254 299
#     4  10  21  36  53  74 104 140 172 206 253 306
#     4   9  19  35  53  75 105 139 169 203 255 309
#     4  10  19  33  55  78 102 133 170 212 254 300
#     4   9  18  34  55  77 102 133 170 210 253 302
#     4  10  20  34  55  80 104 133 170 213 255 298
#
# _framework density 18.662013999999999
#
# number of rings (size 3 to 8) (size 9 to 14) (size 15 to 20)
#    0.000    2.333    0.000    3.500    0.000    4.667 
#    0.000    5.000    0.000    0.000    0.000    0.000 
#    0.000    0.000    0.000    0.000    0.000    0.000 
#
# Total GULP energy -133986.230449 kJ/mol
# GULP energy per Si atom -5582.759602 kJ/mol
# Density = 1.861954 g / cm^3
# Si number density = 18.662014 Si / 1000 Ang^3
#
#
#
# Elastic Constant Matrix: (Units=GPa)
#
#
# Indices 1 2 3 4 5 6 
#
# 1 20.1999 20.8811 19.2142 0.0000 0.0000 0.0000
# 2 20.8811 192.6241 136.6583 0.0000 0.0000 0.0000
# 3 19.2142 136.6583 137.2015 0.0000 0.0000 0.0000
# 4 0.0000 0.0000 0.0000 13.3592 0.0000 0.0000
# 5 0.0000 0.0000 0.0000 0.0000 -15.2518 0.0000
# 6 0.0000 0.0000 0.0000 0.0000 0.0000 20.7056
#
#
#
# Elastic Compliance Matrix: (Units=1/GPa)
#
#
# Indices 1 2 3 4 5 6 
#
# 1 0.057289 -0.001767 -0.006263 0.000000 0.000000 0.000000
# 2 -0.001767 0.017751 -0.017434 0.000000 0.000000 0.000000
# 3 -0.006263 -0.017434 0.025530 0.000000 0.000000 0.000000
# 4 0.000000 0.000000 0.000000 0.074855 0.000000 0.000000
# 5 0.000000 0.000000 0.000000 0.000000 -0.065566 0.000000
# 6 0.000000 0.000000 0.000000 0.000000 0.000000 0.048296
#
#
# Mechanical properties :
#
#
# Convention : Reuss Voigt Hill
#
# Bulk Modulus (GPa) = 20.14362 78.17029 49.15695
# Shear Modulus (GPa) = 22.16010 15.31408 18.73709
#
# Velocity S-wave (km/s) = 3.44967 2.86772 3.17207
# Velocity P-wave (km/s) = 5.16569 7.27622 6.30982
#
# Compressibility (1/GPa) = 0.04964351
#
# Stress axis : x y z
#
# Youngs Moduli (GPa) = 17.45534 56.33336 39.16913
#
# Poissons Ratio (x) = 0.09955 0.24531
# Poissons Ratio (y) = 0.03085 0.68286
# Poissons Ratio (z) = 0.10932 0.98210
#
# Static dielectric constant tensor:
#      x y z
#    x 1.641900 0.000000 0.000000 
#    y 0.000000 1.616060 0.000000 
#    z 0.000000 0.000000 1.643630 
# 
# From -- ./inp_files/15053.got.cif
#   From: 2010.05.17/outbox.cif.g08.bks.cpg/sg40_8_cif.got.tgz:15053.got - 2010.06.03 18:35:42.
