data_PCOD9363460
_publ_section_title
;
Structure prediction by ZEFSAII (Michael W. Deem and Ramdas Pophale) SiO2 
 PCOD9363460
Probable space group: A M A 2
;
_chemical_formula_sum "Si O2"
_cell_formula_units_Z 56
_cell_length_a 12.473353
_cell_length_b 13.125931
_cell_length_c 12.787108
_cell_angle_alpha 90.000000
_cell_angle_beta 90.000000
_cell_angle_gamma 90.000000
_cell_volume 2093.561212
_symmetry_space_group_name_H-M "A M A 2"
_symmetry_group_IT_number 40
_symmetry_cell_setting 'orthorhombic'
loop_
_space_group_symop_operation_xyz
x,y,z
-x,-y,z
1/2-x,y,z
1/2+x,-y,z
x,1/2+y,1/2+z
-x,1/2-y,1/2+z
1/2-x,1/2+y,1/2+z
1/2+x,1/2-y,1/2+z
loop_
_atom_site_type_symbol
_atom_site_label
_atom_site_fract_x
_atom_site_fract_y
_atom_site_fract_z
Si Si1 0.622392 0.439630 0.507330
Si Si2 0.913705 0.234972 0.788309
Si Si3 0.575547 0.891783 0.554014
Si Si4 0.627539 0.463669 0.832855
Si Si5 0.126811 0.125758 0.776394
Si Si6 0.869054 0.705812 0.057963
Si Si7 0.871005 0.663654 0.521072
O O1 0.750000 0.436954 0.532756
O O2 0.612939 0.440768 0.380844
O O3 0.590893 0.322467 0.537121
O O4 0.417404 0.448245 0.544456
O O5 0.878055 0.351370 0.782438
O O6 0.870065 0.187547 0.682086
O O7 0.876561 0.184972 0.896270
O O8 0.041756 0.217283 0.788465
O O9 0.634526 0.938080 0.456387
O O10 0.600000 0.933397 0.668772
O O11 0.452295 0.877801 0.517794
O O12 0.601236 0.772298 0.569596
O O13 0.500000 0.500000 0.812654
O O14 0.750000 0.507281 0.804307
O O15 0.250000 0.159024 0.773331
O O16 0.750000 0.696327 0.014195
O O17 0.750000 0.650449 0.553306
#
# Coordination Sequence:
#
# PCOD9363460 Si02
#       7
#     8   8   8   8   8   8   8
#     4   9  19  34  58  88 123 156 194 254 308 358
#     4  10  21  38  63  87 118 165 206 255 314 374
#     4  10  21  38  63  87 118 165 206 255 314 374
#     4  11  24  44  66  90 124 166 213 268 317 374
#     4  10  20  37  58  88 125 160 201 254 312 372
#     4  10  20  37  58  88 125 160 201 254 312 372
#     4  10  19  36  60  87 116 158 203 245 302 373
#
# _framework density 26.748681999999999
#
# number of rings (size 3 to 8) (size 9 to 14) (size 15 to 20)
#    0.000    2.000    0.000    5.143    0.000    3.429 
#   10.286    0.000    0.000    0.000    0.000    0.000 
#    0.000    0.000    0.000    0.000    0.000    0.000 
#
# Total GULP energy -156221.107769 kJ/mol
# GULP energy per Si atom -5579.325277 kJ/mol
# Density = 2.668780 g / cm^3
# Si number density = 26.748682 Si / 1000 Ang^3
#
#
#
# Elastic Constant Matrix: (Units=GPa)
#
#
# Indices 1 2 3 4 5 6 
#
# 1 167.1709 42.5331 -14.7123 0.0000 0.0000 0.0000
# 2 42.5331 65.6219 12.5823 0.0000 0.0000 0.0000
# 3 -14.7123 12.5823 72.9465 0.0000 0.0000 0.0000
# 4 0.0000 0.0000 0.0000 1.8164 0.0000 0.0000
# 5 0.0000 0.0000 0.0000 0.0000 16.7577 0.0000
# 6 0.0000 0.0000 0.0000 0.0000 0.0000 46.4894
#
#
#
# Elastic Compliance Matrix: (Units=1/GPa)
#
#
# Indices 1 2 3 4 5 6 
#
# 1 0.007565 -0.005373 0.002453 0.000000 0.000000 0.000000
# 2 -0.005373 0.019577 -0.004461 0.000000 0.000000 0.000000
# 3 0.002453 -0.004461 0.014973 0.000000 0.000000 0.000000
# 4 0.000000 0.000000 0.000000 0.550543 0.000000 0.000000
# 5 0.000000 0.000000 0.000000 0.000000 0.059674 0.000000
# 6 0.000000 0.000000 0.000000 0.000000 0.000000 0.021510
#
#
# Mechanical properties :
#
#
# Convention : Reuss Voigt Hill
#
# Bulk Modulus (GPa) = 36.56077 42.94950 39.75514
# Shear Modulus (GPa) = 7.16617 30.70176 18.93397
#
# Velocity S-wave (km/s) = 1.63856 3.39157 2.66343
# Velocity P-wave (km/s) = 4.15665 5.60612 4.93489
#
# Compressibility (1/GPa) = 0.02735172
#
# Stress axis : x y z
#
# Youngs Moduli (GPa) = 132.18901 51.08052 66.78814
#
# Poissons Ratio (x) = 0.27448 -0.16380
# Poissons Ratio (y) = 0.71032 0.29791
# Poissons Ratio (z) = -0.32421 0.22785
#
# Static dielectric constant tensor:
#      x y z
#    x 2.394650 0.000000 0.000000 
#    y 0.000000 2.096670 0.000000 
#    z 0.000000 0.000000 2.026180 
# 
# From -- ./inp_files/16383.got.cif
#   From: 2010.05.17/outbox.cif.g08.bks.cpg/sg40_9_cif.got.tgz:16383.got - 2010.06.03 18:35:42.
