data_PCOD9363444
_publ_section_title
;
Structure prediction by ZEFSAII (Michael W. Deem and Ramdas Pophale) SiO2 
 PCOD9363444
Probable space group: A M A 2
;
_chemical_formula_sum "Si O2"
_cell_formula_units_Z 64
_cell_length_a 7.646508
_cell_length_b 27.289026
_cell_length_c 13.469500
_cell_angle_alpha 90.000000
_cell_angle_beta 90.000000
_cell_angle_gamma 90.000000
_cell_volume 2810.623395
_symmetry_space_group_name_H-M "A M A 2"
_symmetry_group_IT_number 40
_symmetry_cell_setting 'orthorhombic'
loop_
_space_group_symop_operation_xyz
x,y,z
-x,-y,z
1/2-x,y,z
1/2+x,-y,z
x,1/2+y,1/2+z
-x,1/2-y,1/2+z
1/2-x,1/2+y,1/2+z
1/2+x,1/2-y,1/2+z
loop_
_atom_site_type_symbol
_atom_site_label
_atom_site_fract_x
_atom_site_fract_y
_atom_site_fract_z
Si Si1 0.544023 0.617909 0.188680
Si Si2 0.541260 0.943230 0.875927
Si Si3 0.541543 0.557275 0.769574
Si Si4 0.959581 0.779064 0.126795
Si Si5 0.457121 0.614788 0.569191
Si Si6 0.952314 0.781996 0.455018
Si Si7 0.950355 0.609386 0.966589
Si Si8 0.959955 0.213719 0.799991
O O1 0.750000 0.628494 0.170659
O O2 0.529154 0.575074 0.269849
O O3 0.468984 0.665555 0.246669
O O4 0.471030 0.606371 0.078522
O O5 0.750000 0.937779 0.872098
O O6 0.500000 0.000000 0.893675
O O7 0.472978 0.910808 0.969043
O O8 0.500000 0.500000 0.768030
O O9 0.750000 0.564432 0.769554
O O10 0.477158 0.582223 0.668030
O O11 0.470431 0.581049 0.872165
O O12 0.750000 0.777861 0.114371
O O13 0.030667 0.831469 0.094221
O O14 0.991423 0.763975 0.239770
O O15 0.037355 0.733067 0.068911
O O16 0.250000 0.620845 0.553063
O O17 0.750000 0.789016 0.425952
O O18 0.025239 0.731728 0.406158
O O19 0.046869 0.833021 0.439888
O O20 0.750000 0.591649 0.974905
O O21 0.750000 0.205397 0.807764
#
# Coordination Sequence:
#
# PCOD9363444 Si02
#       8
#     8   8   8   8   8   8   8   8
#     4  10  20  39  63  85 118 162 204 248 300 359
#     4  11  24  41  61  89 119 155 202 253 309 363
#     4  11  24  41  64  91 120 157 206 259 313 370
#     4  10  19  36  58  82 117 159 192 229 290 356
#     4  10  22  40  64  92 125 161 200 250 309 368
#     4  11  21  33  55  88 119 154 201 247 288 345
#     4  10  22  41  62  86 121 165 203 245 306 366
#     4   9  18  33  55  81 115 157 193 229 286 349
#
# _framework density 22.77075
#
# number of rings (size 3 to 8) (size 9 to 14) (size 15 to 20)
#    0.000    1.750    1.250    3.000    0.000    5.500 
#    0.000    3.125    0.000    0.000    0.000    0.000 
#    0.000    0.000    0.000    0.000    0.000    0.000 
#
# Total GULP energy -178574.186973 kJ/mol
# GULP energy per Si atom -5580.443343 kJ/mol
# Density = 2.271892 g / cm^3
# Si number density = 22.770750 Si / 1000 Ang^3
#
#
#
# Elastic Constant Matrix: (Units=GPa)
#
#
# Indices 1 2 3 4 5 6 
#
# 1 41.7919 -14.6522 -4.2666 0.0000 0.0000 0.0000
# 2 -14.6522 79.9913 0.9521 0.0000 0.0000 0.0000
# 3 -4.2666 0.9521 78.2400 0.0000 0.0000 0.0000
# 4 0.0000 0.0000 0.0000 42.3648 0.0000 0.0000
# 5 0.0000 0.0000 0.0000 0.0000 1.8555 0.0000
# 6 0.0000 0.0000 0.0000 0.0000 0.0000 17.0977
#
#
#
# Elastic Compliance Matrix: (Units=1/GPa)
#
#
# Indices 1 2 3 4 5 6 
#
# 1 0.025711 0.004694 0.001345 0.000000 0.000000 0.000000
# 2 0.004694 0.013360 0.000093 0.000000 0.000000 0.000000
# 3 0.001345 0.000093 0.012853 0.000000 0.000000 0.000000
# 4 0.000000 0.000000 0.000000 0.023604 0.000000 0.000000
# 5 0.000000 0.000000 0.000000 0.000000 0.538944 0.000000
# 6 0.000000 0.000000 0.000000 0.000000 0.000000 0.058488
#
#
# Mechanical properties :
#
#
# Convention : Reuss Voigt Hill
#
# Bulk Modulus (GPa) = 15.57924 18.23221 16.90573
# Shear Modulus (GPa) = 7.33038 26.79626 17.06332
#
# Velocity S-wave (km/s) = 1.79616 3.43415 2.74040
# Velocity P-wave (km/s) = 3.34039 4.87327 4.17774
#
# Compressibility (1/GPa) = 0.06418797
#
# Stress axis : x y z
#
# Youngs Moduli (GPa) = 38.89397 74.85046 77.80049
#
# Poissons Ratio (x) = -0.35131 -0.10464
# Poissons Ratio (y) = -0.18255 -0.00726
# Poissons Ratio (z) = -0.05231 -0.00699
#
# Static dielectric constant tensor:
#      x y z
#    x 1.970930 0.000000 0.000000 
#    y 0.000000 1.801030 0.000000 
#    z 0.000000 0.000000 1.859940 
# 
# From -- ./inp_files/10698.got.cif
#   From: 2010.05.17/outbox.cif.g08.bks.cpg/sg40_6_cif.got.tgz:10698.got - 2010.06.03 18:35:42.
