data_PCOD9363121
_publ_section_title
;
Structure prediction by ZEFSAII (Michael W. Deem and Ramdas Pophale) SiO2 
 PCOD9363121
Probable space group: A M A 2
;
_chemical_formula_sum "Si O2"
_cell_formula_units_Z 64
_cell_length_a 8.999809
_cell_length_b 19.068627
_cell_length_c 21.540162
_cell_angle_alpha 90.000000
_cell_angle_beta 90.000000
_cell_angle_gamma 90.000000
_cell_volume 3696.593381
_symmetry_space_group_name_H-M "A M A 2"
_symmetry_group_IT_number 40
_symmetry_cell_setting 'orthorhombic'
loop_
_space_group_symop_operation_xyz
x,y,z
-x,-y,z
1/2-x,y,z
1/2+x,-y,z
x,1/2+y,1/2+z
-x,1/2-y,1/2+z
1/2-x,1/2+y,1/2+z
1/2+x,1/2-y,1/2+z
loop_
_atom_site_type_symbol
_atom_site_label
_atom_site_fract_x
_atom_site_fract_y
_atom_site_fract_z
Si Si1 0.929438 0.927986 0.626080
Si Si2 0.579118 0.318010 0.883705
Si Si3 0.074697 0.073827 0.029491
Si Si4 0.925608 0.869773 0.168385
Si Si5 0.082957 0.062787 0.484623
Si Si6 0.427198 0.925241 0.291364
Si Si7 0.429642 0.729386 0.121190
Si Si8 0.070561 0.785552 0.984024
O O1 0.750000 0.933248 0.630033
O O2 0.977872 0.925875 0.553435
O O3 0.968780 0.848502 0.646064
O O4 0.000000 0.000000 0.652407
O O5 0.750000 0.308466 0.861532
O O6 0.584299 0.369738 0.942861
O O7 0.484920 0.360219 0.833311
O O8 0.521379 0.248471 0.918454
O O9 0.250000 0.072303 0.016763
O O10 0.055274 0.090676 0.102800
O O11 0.000000 0.000000 0.014763
O O12 0.997930 0.138247 0.994243
O O13 0.750000 0.868645 0.183476
O O14 0.017185 0.907566 0.222109
O O15 0.988204 0.791377 0.157520
O O16 0.250000 0.038584 0.493837
O O17 0.000000 0.000000 0.451871
O O18 0.250000 0.930870 0.294967
O O19 0.500000 0.000000 0.309022
O O20 0.250000 0.736939 0.125982
O O21 0.465918 0.741776 0.047549
O O22 0.250000 0.788114 0.981950
#
# Coordination Sequence:
#
# PCOD9363121 Si02
#       8
#     8   8   8   8   8   8   8   8
#     4   9  16  26  41  65  97 131 166 202 243 294
#     4  10  19  33  51  71 100 136 173 210 250 297
#     4  10  20  33  52  78 105 132 166 210 261 312
#     4  10  21  36  54  76 101 132 174 220 263 309
#     4   9  16  26  40  61  90 127 166 199 235 280
#     4  12  25  39  54  74 102 139 180 220 258 300
#     4   9  16  30  50  72 100 134 170 210 259 311
#     4   9  17  31  51  73 101 135 168 205 254 309
#
# _framework density 17.313238999999999
#
# number of rings (size 3 to 8) (size 9 to 14) (size 15 to 20)
#    0.000    2.250    1.250    2.625    0.000    5.000 
#    0.000    0.000    0.000    0.000    0.000    0.875 
#    0.000    2.000    0.000    0.000    0.000    0.125 
#
# Total GULP energy -178234.547762 kJ/mol
# GULP energy per Si atom -5569.829618 kJ/mol
# Density = 1.727383 g / cm^3
# Si number density = 17.313239 Si / 1000 Ang^3
#
#
#
# Elastic Constant Matrix: (Units=GPa)
#
#
# Indices 1 2 3 4 5 6 
#
# 1 61.0583 46.1558 29.5380 0.0000 0.0000 0.0000
# 2 46.1558 129.6669 23.6100 0.0000 0.0000 0.0000
# 3 29.5380 23.6100 45.8847 0.0000 0.0000 0.0000
# 4 0.0000 0.0000 0.0000 16.7799 0.0000 0.0000
# 5 0.0000 0.0000 0.0000 0.0000 16.3749 0.0000
# 6 0.0000 0.0000 0.0000 0.0000 0.0000 27.1551
#
#
#
# Elastic Compliance Matrix: (Units=1/GPa)
#
#
# Indices 1 2 3 4 5 6 
#
# 1 0.029508 -0.007773 -0.014996 0.000000 0.000000 0.000000
# 2 -0.007773 0.010557 -0.000428 0.000000 0.000000 0.000000
# 3 -0.014996 -0.000428 0.031668 0.000000 0.000000 0.000000
# 4 0.000000 0.000000 0.000000 0.059595 0.000000 0.000000
# 5 0.000000 0.000000 0.000000 0.000000 0.061069 0.000000
# 6 0.000000 0.000000 0.000000 0.000000 0.000000 0.036825
#
#
# Mechanical properties :
#
#
# Convention : Reuss Voigt Hill
#
# Bulk Modulus (GPa) = 39.46622 48.35749 43.91186
# Shear Modulus (GPa) = 17.60168 21.21573 19.40871
#
# Velocity S-wave (km/s) = 3.19197 3.50438 3.35182
# Velocity P-wave (km/s) = 6.03571 6.66076 6.35592
#
# Compressibility (1/GPa) = 0.02533812
#
# Stress axis : x y z
#
# Youngs Moduli (GPa) = 33.88855 94.72428 31.57787
#
# Poissons Ratio (x) = 0.73631 0.47355
# Poissons Ratio (y) = 0.26342 0.01352
# Poissons Ratio (z) = 0.50820 0.04055
#
# Static dielectric constant tensor:
#      x y z
#    x 1.585840 0.000000 0.000000 
#    y 0.000000 1.646440 0.000000 
#    z 0.000000 0.000000 1.592910 
# 
# From -- ./inp_files/22418.got.cif
#   From: 2010.05.17/outbox.cif.g08.bks.cpg/sg40_12_cif.got.tgz:22418.got - 2010.06.03 18:35:42.
