data_PCOD9363401
_publ_section_title
;
Structure prediction by ZEFSAII (Michael W. Deem and Ramdas Pophale) SiO2 
 PCOD9363401
Probable space group: A M A 2
;
_chemical_formula_sum "Si O2"
_cell_formula_units_Z 64
_cell_length_a 18.598535
_cell_length_b 11.855053
_cell_length_c 16.324676
_cell_angle_alpha 90.000000
_cell_angle_beta 90.000000
_cell_angle_gamma 90.000000
_cell_volume 3599.372604
_symmetry_space_group_name_H-M "A M A 2"
_symmetry_group_IT_number 40
_symmetry_cell_setting 'orthorhombic'
loop_
_space_group_symop_operation_xyz
x,y,z
-x,-y,z
1/2-x,y,z
1/2+x,-y,z
x,1/2+y,1/2+z
-x,1/2-y,1/2+z
1/2-x,1/2+y,1/2+z
1/2+x,1/2-y,1/2+z
loop_
_atom_site_type_symbol
_atom_site_label
_atom_site_fract_x
_atom_site_fract_y
_atom_site_fract_z
Si Si1 0.163706 0.210417 0.934120
Si Si2 0.664551 0.528486 0.888417
Si Si3 0.165754 0.584930 0.056680
Si Si4 0.332617 0.401513 0.199764
Si Si5 0.400001 0.192980 0.115658
Si Si6 0.428566 0.061024 0.808851
Si Si7 0.583962 0.519965 0.722257
Si Si8 0.559671 0.764772 0.659664
O O1 0.250000 0.189816 0.929806
O O2 0.150629 0.339684 0.906814
O O3 0.118662 0.128132 0.874996
O O4 0.135046 0.199082 0.026507
O O5 0.750000 0.515681 0.880630
O O6 0.627081 0.495959 0.804527
O O7 0.642269 0.454530 0.966762
O O8 0.250000 0.619776 0.055138
O O9 0.161969 0.476490 0.116783
O O10 0.113961 0.677455 0.096017
O O11 0.250000 0.401044 0.225702
O O12 0.358966 0.277902 0.176424
O O13 0.380523 0.464630 0.266389
O O14 0.483101 0.234297 0.119001
O O15 0.395993 0.067289 0.151183
O O16 0.449797 0.148216 0.735585
O O17 0.500000 0.000000 0.842134
O O18 0.500000 0.500000 0.739847
O O19 0.592563 0.648922 0.694363
#
# Coordination Sequence:
#
# PCOD9363401 Si02
#       8
#     8   8   8   8   8   8   8   8
#     4  11  23  40  63  90 124 165 206 248 302 369
#     4  10  20  37  59  89 118 153 201 247 299 359
#     4   9  19  35  59  89 120 152 200 257 304 358
#     4  10  19  35  59  88 119 153 197 250 301 359
#     4  11  22  39  61  86 124 162 205 247 307 373
#     4  11  21  37  64  91 121 155 204 258 307 356
#     4  10  23  40  59  83 120 160 198 243 305 367
#     4  10  21  39  59  89 120 158 206 256 310 361
#
# _framework density 17.780877
#
# number of rings (size 3 to 8) (size 9 to 14) (size 15 to 20)
#    0.000    1.750    3.750    0.750    0.000    4.500 
#    0.000    1.250    0.000    1.500    0.000    0.000 
#    0.000    0.000    0.000    0.000    0.000    0.000 
#
# Total GULP energy -178640.805704 kJ/mol
# GULP energy per Si atom -5582.525178 kJ/mol
# Density = 1.774041 g / cm^3
# Si number density = 17.780877 Si / 1000 Ang^3
#
#
#
# Elastic Constant Matrix: (Units=GPa)
#
#
# Indices 1 2 3 4 5 6 
#
# 1 69.6158 38.4563 41.7259 0.0000 0.0000 0.0000
# 2 38.4563 79.7184 27.8424 0.0000 0.0000 0.0000
# 3 41.7259 27.8424 77.1659 0.0000 0.0000 0.0000
# 4 0.0000 0.0000 0.0000 25.9319 0.0000 0.0000
# 5 0.0000 0.0000 0.0000 0.0000 32.8712 0.0000
# 6 0.0000 0.0000 0.0000 0.0000 0.0000 17.7639
#
#
#
# Elastic Compliance Matrix: (Units=1/GPa)
#
#
# Indices 1 2 3 4 5 6 
#
# 1 0.025514 -0.008570 -0.010704 0.000000 0.000000 0.000000
# 2 -0.008570 0.017231 -0.001583 0.000000 0.000000 0.000000
# 3 -0.010704 -0.001583 0.019319 0.000000 0.000000 0.000000
# 4 0.000000 0.000000 0.000000 0.038563 0.000000 0.000000
# 5 0.000000 0.000000 0.000000 0.000000 0.030422 0.000000
# 6 0.000000 0.000000 0.000000 0.000000 0.000000 0.056294
#
#
# Mechanical properties :
#
#
# Convention : Reuss Voigt Hill
#
# Bulk Modulus (GPa) = 49.14142 49.17213 49.15677
# Shear Modulus (GPa) = 21.20079 23.21176 22.20628
#
# Velocity S-wave (km/s) = 3.45677 3.61700 3.53779
# Velocity P-wave (km/s) = 6.60527 6.71998 6.66287
#
# Compressibility (1/GPa) = 0.02034943
#
# Stress axis : x y z
#
# Youngs Moduli (GPa) = 39.19357 58.03442 51.76371
#
# Poissons Ratio (x) = 0.49733 0.55410
# Poissons Ratio (y) = 0.33587 0.08196
# Poissons Ratio (z) = 0.41954 0.09189
#
# Static dielectric constant tensor:
#      x y z
#    x 1.601140 0.000000 0.000000 
#    y 0.000000 1.594960 0.000000 
#    z 0.000000 0.000000 1.580240 
# 
# From -- ./inp_files/17833.got.cif
#   From: 2010.05.17/outbox.cif.g08.bks.cpg/sg40_9_cif.got.tgz:17833.got - 2010.06.03 18:35:42.
