data_PCOD9363814
_publ_section_title
;
Structure prediction by ZEFSAII (Michael W. Deem and Ramdas Pophale) SiO2 
 PCOD9363814
Probable space group: A M A 2
;
_chemical_formula_sum "Si O2"
_cell_formula_units_Z 64
_cell_length_a 8.703097
_cell_length_b 20.515953
_cell_length_c 20.521560
_cell_angle_alpha 90.000000
_cell_angle_beta 90.000000
_cell_angle_gamma 90.000000
_cell_volume 3664.172333
_symmetry_space_group_name_H-M "A M A 2"
_symmetry_group_IT_number 40
_symmetry_cell_setting 'orthorhombic'
loop_
_space_group_symop_operation_xyz
x,y,z
-x,-y,z
1/2-x,y,z
1/2+x,-y,z
x,1/2+y,1/2+z
-x,1/2-y,1/2+z
1/2-x,1/2+y,1/2+z
1/2+x,1/2-y,1/2+z
loop_
_atom_site_type_symbol
_atom_site_label
_atom_site_fract_x
_atom_site_fract_y
_atom_site_fract_z
Si Si1 0.433760 0.177767 0.329400
Si Si2 0.934966 0.571357 0.578469
Si Si3 0.065128 0.071299 0.935836
Si Si4 0.433167 0.928672 0.579246
Si Si5 0.934876 0.826489 0.680876
Si Si6 0.434956 0.679657 0.330977
Si Si7 0.064972 0.071463 0.436586
Si Si8 0.934985 0.176374 0.186840
O O1 0.250000 0.179178 0.327724
O O2 0.494800 0.249838 0.345826
O O3 0.481607 0.124666 0.382975
O O4 0.495395 0.161321 0.257425
O O5 0.750000 0.568333 0.575130
O O6 0.980454 0.624667 0.632045
O O7 0.000000 0.500000 0.595396
O O8 0.000322 0.588186 0.507203
O O9 0.250000 0.068038 0.938769
O O10 0.019271 0.124876 0.882614
O O11 0.000000 0.000000 0.918991
O O12 0.250000 0.932782 0.575111
O O13 0.484510 0.875767 0.632046
O O14 0.501009 0.911600 0.508124
O O15 0.500000 0.000000 0.596291
O O16 0.750000 0.833010 0.674105
O O17 0.975843 0.838938 0.756614
O O18 0.976359 0.750761 0.668356
O O19 0.250000 0.686051 0.332618
O O20 0.250000 0.068491 0.439555
O O21 0.000000 0.000000 0.420006
O O22 0.750000 0.174915 0.193074
#
# Coordination Sequence:
#
# PCOD9363814 Si02
#       8
#     8   8   8   8   8   8   8   8
#     4  10  21  35  55  81 107 135 173 217 260 307
#     4  10  20  35  54  78 106 140 177 215 260 309
#     4  10  20  35  54  78 106 138 175 217 260 307
#     4  11  22  36  55  79 105 137 174 215 260 310
#     4   9  18  36  56  76 105 138 171 213 260 310
#     4   9  20  37  56  78 107 140 174 212 260 311
#     4  10  21  37  55  78 106 138 174 215 260 309
#     4   9  20  37  56  76 105 142 176 212 260 311
#
# _framework density 17.466428000000001
#
# number of rings (size 3 to 8) (size 9 to 14) (size 15 to 20)
#    0.000    2.250    0.000    4.875    0.000    8.000 
#    0.000    7.500    0.000    0.000    0.000    0.000 
#    0.000    0.000    0.000    0.000    0.000    0.000 
#
# Total GULP energy -178619.825157 kJ/mol
# GULP energy per Si atom -5581.869536 kJ/mol
# Density = 1.742667 g / cm^3
# Si number density = 17.466428 Si / 1000 Ang^3
#
#
#
# Elastic Constant Matrix: (Units=GPa)
#
#
# Indices 1 2 3 4 5 6 
#
# 1 58.1442 54.9735 55.1457 0.0000 0.0000 0.0000
# 2 54.9735 151.0209 144.3007 0.0000 0.0000 0.0000
# 3 55.1457 144.3007 151.5512 0.0000 0.0000 0.0000
# 4 0.0000 0.0000 0.0000 43.9760 0.0000 0.0000
# 5 0.0000 0.0000 0.0000 0.0000 35.0545 0.0000
# 6 0.0000 0.0000 0.0000 0.0000 0.0000 19.9687
#
#
#
# Elastic Compliance Matrix: (Units=1/GPa)
#
#
# Indices 1 2 3 4 5 6 
#
# 1 0.026573 -0.004810 -0.005090 0.000000 0.000000 0.000000
# 2 -0.004810 0.074272 -0.068968 0.000000 0.000000 0.000000
# 3 -0.005090 -0.068968 0.074119 0.000000 0.000000 0.000000
# 4 0.000000 0.000000 0.000000 0.022740 0.000000 0.000000
# 5 0.000000 0.000000 0.000000 0.000000 0.028527 0.000000
# 6 0.000000 0.000000 0.000000 0.000000 0.000000 0.050078
#
#
# Mechanical properties :
#
#
# Convention : Reuss Voigt Hill
#
# Bulk Modulus (GPa) = 58.04268 96.61736 77.33002
# Shear Modulus (GPa) = 11.36913 26.88627 19.12770
#
# Velocity S-wave (km/s) = 2.55407 3.92766 3.31284
# Velocity P-wave (km/s) = 6.48080 8.71807 7.68133
#
# Compressibility (1/GPa) = 0.01722870
#
# Stress axis : x y z
#
# Youngs Moduli (GPa) = 37.63164 13.46407 13.49181
#
# Poissons Ratio (x) = 0.06476 0.06867
# Poissons Ratio (y) = 0.18101 0.93051
# Poissons Ratio (z) = 0.19153 0.92859
#
# Static dielectric constant tensor:
#      x y z
#    x 1.588450 0.000000 0.000000 
#    y 0.000000 1.574360 0.000000 
#    z 0.000000 0.000000 1.574370 
# 
# From -- ./inp_files/19602.got.cif
#   From: 2010.05.17/outbox.cif.g08.bks.cpg/sg40_10_cif.got.tgz:19602.got - 2010.06.03 18:35:42.
