data_PCOD9363320
_publ_section_title
;
Structure prediction by ZEFSAII (Michael W. Deem and Ramdas Pophale) SiO2 
 PCOD9363320
Probable space group: A M A 2
;
_chemical_formula_sum "Si O2"
_cell_formula_units_Z 48
_cell_length_a 18.552876
_cell_length_b 15.726427
_cell_length_c 8.592461
_cell_angle_alpha 90.000000
_cell_angle_beta 90.000000
_cell_angle_gamma 90.000000
_cell_volume 2507.026213
_symmetry_space_group_name_H-M "A M A 2"
_symmetry_group_IT_number 40
_symmetry_cell_setting 'orthorhombic'
loop_
_space_group_symop_operation_xyz
x,y,z
-x,-y,z
1/2-x,y,z
1/2+x,-y,z
x,1/2+y,1/2+z
-x,1/2-y,1/2+z
1/2-x,1/2+y,1/2+z
1/2+x,1/2-y,1/2+z
loop_
_atom_site_type_symbol
_atom_site_label
_atom_site_fract_x
_atom_site_fract_y
_atom_site_fract_z
Si Si1 0.668087 0.146359 0.295470
Si Si2 0.548733 0.227315 0.719136
Si Si3 0.907729 0.302686 0.417530
Si Si4 0.833083 0.747737 0.484610
Si Si5 0.834997 0.917661 0.692472
Si Si6 0.071332 0.944911 0.522944
O O1 0.750000 0.116201 0.316803
O O2 0.655226 0.232590 0.396267
O O3 0.609926 0.081921 0.363134
O O4 0.658443 0.176205 0.118162
O O5 0.562185 0.300438 0.591456
O O6 0.472640 0.228947 0.806303
O O7 0.610779 0.233555 0.847869
O O8 0.552582 0.139829 0.620779
O O9 0.876370 0.389236 0.348714
O O10 0.750000 0.745902 0.430438
O O11 0.844611 0.837990 0.572760
O O12 0.750000 0.928148 0.718509
O O13 0.871812 0.999688 0.620093
O O14 0.000000 0.000000 0.499263
#
# Coordination Sequence:
#
# PCOD9363320 Si02
#       6
#     8   8   8   8   8   8
#     4   9  19  36  59  84 112 152 196 238 293 355
#     4  11  22  36  61  85 121 154 201 250 299 352
#     4  10  19  34  57  86 114 152 199 243 293 350
#     4   9  20  38  60  86 115 152 202 252 296 351
#     4  10  20  38  60  83 120 157 196 245 298 353
#     4  11  22  37  57  90 121 158 199 235 299 362
#
# _framework density 19.146189
#
# number of rings (size 3 to 8) (size 9 to 14) (size 15 to 20)
#    0.000    2.000    1.667    4.000    2.333    4.000 
#    0.000    2.500    0.000    0.000    0.000    0.000 
#    0.000    0.000    0.000    0.000    0.000    0.000 
#
# Total GULP energy -133983.205702 kJ/mol
# GULP energy per Si atom -5582.633571 kJ/mol
# Density = 1.910261 g / cm^3
# Si number density = 19.146189 Si / 1000 Ang^3
#
#
#
# Elastic Constant Matrix: (Units=GPa)
#
#
# Indices 1 2 3 4 5 6 
#
# 1 109.1071 15.4096 44.1642 0.0000 0.0000 0.0000
# 2 15.4096 47.6691 7.8439 0.0000 0.0000 0.0000
# 3 44.1642 7.8439 65.7912 0.0000 0.0000 0.0000
# 4 0.0000 0.0000 0.0000 20.6637 0.0000 0.0000
# 5 0.0000 0.0000 0.0000 0.0000 34.3346 0.0000
# 6 0.0000 0.0000 0.0000 0.0000 0.0000 27.7422
#
#
#
# Elastic Compliance Matrix: (Units=1/GPa)
#
#
# Indices 1 2 3 4 5 6 
#
# 1 0.012944 -0.002810 -0.008354 0.000000 0.000000 0.000000
# 2 -0.002810 0.022008 -0.000738 0.000000 0.000000 0.000000
# 3 -0.008354 -0.000738 0.020895 0.000000 0.000000 0.000000
# 4 0.000000 0.000000 0.000000 0.048394 0.000000 0.000000
# 5 0.000000 0.000000 0.000000 0.000000 0.029125 0.000000
# 6 0.000000 0.000000 0.000000 0.000000 0.000000 0.036046
#
#
# Mechanical properties :
#
#
# Convention : Reuss Voigt Hill
#
# Bulk Modulus (GPa) = 31.20700 39.71143 35.45921
# Shear Modulus (GPa) = 24.52239 26.89142 25.70690
#
# Velocity S-wave (km/s) = 3.58271 3.75177 3.66821
# Velocity P-wave (km/s) = 5.78352 6.28919 6.04165
#
# Compressibility (1/GPa) = 0.03204409
#
# Stress axis : x y z
#
# Youngs Moduli (GPa) = 77.25865 45.43887 47.85771
#
# Poissons Ratio (x) = 0.12766 0.39979
# Poissons Ratio (y) = 0.21706 0.03531
# Poissons Ratio (z) = 0.64540 0.03353
#
# Static dielectric constant tensor:
#      x y z
#    x 1.672280 0.000000 0.000000 
#    y 0.000000 1.662650 0.000000 
#    z 0.000000 0.000000 1.664250 
# 
# From -- ./inp_files/7471.got.cif
#   From: 2010.05.17/outbox.cif.g08.bks.cpg/sg40_4_cif.got.tgz:7471.got - 2010.06.03 18:35:42.
