data_PCOD9363334
_publ_section_title
;
Structure prediction by ZEFSAII (Michael W. Deem and Ramdas Pophale) SiO2 
 PCOD9363334
Probable space group: A M A 2
;
_chemical_formula_sum "Si O2"
_cell_formula_units_Z 64
_cell_length_a 8.751269
_cell_length_b 25.291282
_cell_length_c 15.366164
_cell_angle_alpha 90.000000
_cell_angle_beta 90.000000
_cell_angle_gamma 90.000000
_cell_volume 3401.005558
_symmetry_space_group_name_H-M "A M A 2"
_symmetry_group_IT_number 40
_symmetry_cell_setting 'orthorhombic'
loop_
_space_group_symop_operation_xyz
x,y,z
-x,-y,z
1/2-x,y,z
1/2+x,-y,z
x,1/2+y,1/2+z
-x,1/2-y,1/2+z
1/2-x,1/2+y,1/2+z
1/2+x,1/2-y,1/2+z
loop_
_atom_site_type_symbol
_atom_site_label
_atom_site_fract_x
_atom_site_fract_y
_atom_site_fract_z
Si Si1 0.932227 0.283549 0.125000
Si Si2 0.932205 0.360629 0.425143
Si Si3 0.431944 0.892979 0.594215
Si Si4 0.567682 0.231431 0.814962
Si Si5 0.933551 0.943673 0.423476
Si Si6 0.566534 0.441195 0.271288
Si Si7 0.567647 0.662352 0.601285
Si Si8 0.066984 0.148507 0.290491
O O1 0.750000 0.290254 0.117618
O O2 0.973553 0.224858 0.092586
O O3 0.014903 0.332516 0.079983
O O4 0.982340 0.284398 0.226035
O O5 0.750000 0.354240 0.424344
O O6 0.971895 0.406994 0.357054
O O7 0.010942 0.307456 0.389351
O O8 0.990439 0.369052 0.522779
O O9 0.250000 0.896466 0.595800
O O10 0.499864 0.928419 0.517371
O O11 0.498570 0.912588 0.686293
O O12 0.750000 0.225651 0.803017
O O13 0.534007 0.293332 0.829770
O O14 0.750000 0.945646 0.428325
O O15 0.978289 0.897908 0.355550
O O16 0.000000 0.000000 0.396287
O O17 0.500000 0.500000 0.276928
O O18 0.750000 0.443067 0.263018
O O19 0.750000 0.658306 0.595929
O O20 0.511859 0.645309 0.696598
O O21 0.250000 0.145900 0.277636
#
# Coordination Sequence:
#
# PCOD9363334 Si02
#       8
#     8   8   8   8   8   8   8   8
#     4  10  20  36  56  85 123 161 197 241 297 354
#     4  11  23  38  59  88 124 162 201 249 301 356
#     4  12  24  38  60  90 122 161 202 247 298 363
#     4  10  19  34  58  88 119 156 198 241 295 359
#     4  11  24  43  64  88 120 158 203 256 304 360
#     4  11  24  42  63  87 120 161 203 251 302 358
#     4  10  22  38  61  89 123 160 200 251 301 359
#     4   9  21  41  63  87 119 157 199 250 306 358
#
# _framework density 18.817964
#
# number of rings (size 3 to 8) (size 9 to 14) (size 15 to 20)
#    0.000    1.500    1.250    3.750    1.750    4.500 
#    0.000    0.625    0.000    0.000    0.000    0.000 
#    0.000    0.000    0.000    0.000    0.000    0.000 
#
# Total GULP energy -178889.472433 kJ/mol
# GULP energy per Si atom -5590.296014 kJ/mol
# Density = 1.877513 g / cm^3
# Si number density = 18.817964 Si / 1000 Ang^3
#
#
#
# Elastic Constant Matrix: (Units=GPa)
#
#
# Indices 1 2 3 4 5 6 
#
# 1 66.0349 45.7601 38.8881 0.0000 0.0000 0.0000
# 2 45.7601 107.0587 50.5986 0.0000 0.0000 0.0000
# 3 38.8881 50.5986 85.6530 0.0000 0.0000 0.0000
# 4 0.0000 0.0000 0.0000 28.4172 0.0000 0.0000
# 5 0.0000 0.0000 0.0000 0.0000 25.0053 0.0000
# 6 0.0000 0.0000 0.0000 0.0000 0.0000 -25.2402
#
#
#
# Elastic Compliance Matrix: (Units=1/GPa)
#
#
# Indices 1 2 3 4 5 6 
#
# 1 0.024010 -0.007090 -0.006713 0.000000 0.000000 0.000000
# 2 -0.007090 0.015052 -0.005673 0.000000 0.000000 0.000000
# 3 -0.006713 -0.005673 0.018074 0.000000 0.000000 0.000000
# 4 0.000000 0.000000 0.000000 0.035190 0.000000 0.000000
# 5 0.000000 0.000000 0.000000 0.000000 0.039991 0.000000
# 6 0.000000 0.000000 0.000000 0.000000 0.000000 -0.039619
#
#
# Mechanical properties :
#
#
# Convention : Reuss Voigt Hill
#
# Bulk Modulus (GPa) = 54.99072 58.80447 56.89759
# Shear Modulus (GPa) = 36.30797 13.86976 25.08886
#
# Velocity S-wave (km/s) = 4.39729 2.71781 3.65532
# Velocity P-wave (km/s) = 7.42075 6.41604 6.93661
#
# Compressibility (1/GPa) = 0.01818489
#
# Stress axis : x y z
#
# Youngs Moduli (GPa) = 41.64994 66.43472 55.32830
#
# Poissons Ratio (x) = 0.47102 0.37139
# Poissons Ratio (y) = 0.29530 0.31388
# Poissons Ratio (z) = 0.27958 0.37689
#
# Static dielectric constant tensor:
#      x y z
#    x 1.625820 0.000000 0.000000 
#    y 0.000000 1.647930 0.000000 
#    z 0.000000 0.000000 1.647070 
# 
# From -- ./inp_files/15691.got.cif
#   From: 2010.05.17/outbox.cif.g08.bks.cpg/sg40_8_cif.got.tgz:15691.got - 2010.06.03 18:35:42.
