data_PCOD9363339
_publ_section_title
;
Structure prediction by ZEFSAII (Michael W. Deem and Ramdas Pophale) SiO2 
 PCOD9363339
Probable space group: A M A 2
;
_chemical_formula_sum "Si O2"
_cell_formula_units_Z 56
_cell_length_a 15.860219
_cell_length_b 15.742772
_cell_length_c 9.821411
_cell_angle_alpha 90.000000
_cell_angle_beta 90.000000
_cell_angle_gamma 90.000000
_cell_volume 2452.247334
_symmetry_space_group_name_H-M "A M A 2"
_symmetry_group_IT_number 40
_symmetry_cell_setting 'orthorhombic'
loop_
_space_group_symop_operation_xyz
x,y,z
-x,-y,z
1/2-x,y,z
1/2+x,-y,z
x,1/2+y,1/2+z
-x,1/2-y,1/2+z
1/2-x,1/2+y,1/2+z
1/2+x,1/2-y,1/2+z
loop_
_atom_site_type_symbol
_atom_site_label
_atom_site_fract_x
_atom_site_fract_y
_atom_site_fract_z
Si Si1 0.158098 0.399071 0.440150
Si Si2 0.027630 0.352565 0.977979
Si Si3 0.014981 0.405563 0.265016
Si Si4 0.654802 0.869964 0.364395
Si Si5 0.156578 0.215342 0.077083
Si Si6 0.089768 0.460195 0.725776
Si Si7 0.660848 0.409438 0.340588
O O1 0.250000 0.357526 0.429811
O O2 0.079470 0.357130 0.362550
O O3 0.135924 0.420415 0.595781
O O4 0.163431 0.489038 0.358359
O O5 0.066169 0.391368 0.840717
O O6 0.926896 0.349790 0.955925
O O7 0.045416 0.411154 0.110494
O O8 0.078614 0.269078 0.021484
O O9 0.000000 0.500000 0.322744
O O10 0.920019 0.371598 0.266250
O O11 0.750000 0.865357 0.421891
O O12 0.649922 0.808162 0.233987
O O13 0.640113 0.964502 0.301322
O O14 0.250000 0.255583 0.053304
O O15 0.156566 0.127995 0.992522
O O16 0.000000 0.500000 0.678920
O O17 0.750000 0.382182 0.278963
#
# Coordination Sequence:
#
# PCOD9363339 Si02
#       7
#     8   8   8   8   8   8   8
#     4  10  19  34  60  89 116 157 209 256 300 365
#     4  11  25  38  62  95 131 163 201 261 334 372
#     4  10  21  37  56  88 126 156 192 251 311 374
#     4  10  21  40  67  91 123 170 221 260 309 388
#     4  10  22  40  60  86 119 163 208 254 311 373
#     4  10  19  36  62  95 122 160 214 267 308 368
#     4   9  18  35  61  84 107 152 207 249 293 360
#
# _framework density 22.836196000000001
#
# number of rings (size 3 to 8) (size 9 to 14) (size 15 to 20)
#    0.000    2.000    1.429    3.000    4.000    2.286 
#    0.000    2.857    0.000    0.000    0.000    0.000 
#    0.000    0.000    0.000    0.000    0.000    0.000 
#
# Total GULP energy -156217.887057 kJ/mol
# GULP energy per Si atom -5579.210252 kJ/mol
# Density = 2.278422 g / cm^3
# Si number density = 22.836196 Si / 1000 Ang^3
#
#
#
# Elastic Constant Matrix: (Units=GPa)
#
#
# Indices 1 2 3 4 5 6 
#
# 1 180.4863 14.0038 46.9615 0.0000 0.0000 0.0000
# 2 14.0038 33.8603 -6.4895 0.0000 0.0000 0.0000
# 3 46.9615 -6.4895 95.0258 0.0000 0.0000 0.0000
# 4 0.0000 0.0000 0.0000 33.6610 0.0000 0.0000
# 5 0.0000 0.0000 0.0000 0.0000 6.7565 0.0000
# 6 0.0000 0.0000 0.0000 0.0000 0.0000 16.8682
#
#
#
# Elastic Compliance Matrix: (Units=1/GPa)
#
#
# Indices 1 2 3 4 5 6 
#
# 1 0.006738 -0.003470 -0.003567 0.000000 0.000000 0.000000
# 2 -0.003470 0.031712 0.003881 0.000000 0.000000 0.000000
# 3 -0.003567 0.003881 0.012551 0.000000 0.000000 0.000000
# 4 0.000000 0.000000 0.000000 0.029708 0.000000 0.000000
# 5 0.000000 0.000000 0.000000 0.000000 0.148006 0.000000
# 6 0.000000 0.000000 0.000000 0.000000 0.000000 0.059283
#
#
# Mechanical properties :
#
#
# Convention : Reuss Voigt Hill
#
# Bulk Modulus (GPa) = 22.37721 46.48045 34.42883
# Shear Modulus (GPa) = 16.17038 28.45024 22.31031
#
# Velocity S-wave (km/s) = 2.66391 3.53347 3.12904
# Velocity P-wave (km/s) = 4.39114 6.08648 5.30695
#
# Compressibility (1/GPa) = 0.04468833
#
# Stress axis : x y z
#
# Youngs Moduli (GPa) = 148.41390 31.53376 79.67361
#
# Poissons Ratio (x) = 0.10943 0.28418
# Poissons Ratio (y) = 0.51503 -0.30919
# Poissons Ratio (z) = 0.52937 -0.12237
#
# Static dielectric constant tensor:
#      x y z
#    x 2.010430 0.000000 0.000000 
#    y 0.000000 1.759360 0.000000 
#    z 0.000000 0.000000 1.799930 
# 
# From -- ./inp_files/6715.got.cif
#   From: 2010.05.17/outbox.cif.g08.bks.cpg/sg40_4_cif.got.tgz:6715.got - 2010.06.03 18:35:42.
