data_PCOD9363146
_publ_section_title
;
Structure prediction by ZEFSAII (Michael W. Deem and Ramdas Pophale) SiO2 
 PCOD9363146
Probable space group: A M A 2
;
_chemical_formula_sum "Si O2"
_cell_formula_units_Z 64
_cell_length_a 8.115451
_cell_length_b 14.958178
_cell_length_c 24.902451
_cell_angle_alpha 90.000000
_cell_angle_beta 90.000000
_cell_angle_gamma 90.000000
_cell_volume 3022.967312
_symmetry_space_group_name_H-M "A M A 2"
_symmetry_group_IT_number 40
_symmetry_cell_setting 'orthorhombic'
loop_
_space_group_symop_operation_xyz
x,y,z
-x,-y,z
1/2-x,y,z
1/2+x,-y,z
x,1/2+y,1/2+z
-x,1/2-y,1/2+z
1/2-x,1/2+y,1/2+z
1/2+x,1/2-y,1/2+z
loop_
_atom_site_type_symbol
_atom_site_label
_atom_site_fract_x
_atom_site_fract_y
_atom_site_fract_z
Si Si1 0.552599 0.595440 0.650440
Si Si2 0.449573 0.200116 0.640217
Si Si3 0.435923 0.620195 0.770861
Si Si4 0.051844 0.400792 0.372130
Si Si5 0.937178 0.758548 0.444588
Si Si6 0.053204 0.183341 0.762143
Si Si7 0.934296 0.092537 0.379581
Si Si8 0.949541 0.397531 0.033946
O O1 0.500000 0.500000 0.624610
O O2 0.750000 0.596368 0.651191
O O3 0.498361 0.695428 0.631131
O O4 0.484625 0.594004 0.711041
O O5 0.250000 0.201897 0.638208
O O6 0.491851 0.163586 0.699867
O O7 0.505683 0.135738 0.592630
O O8 0.250000 0.592888 0.782813
O O9 0.454230 0.726645 0.773623
O O10 0.560038 0.586108 0.815632
O O11 0.250000 0.392412 0.370015
O O12 0.988622 0.329711 0.416914
O O13 0.000000 0.500000 0.387561
O O14 0.985003 0.381063 0.311965
O O15 0.750000 0.736015 0.460660
O O16 0.009194 0.820315 0.492308
O O17 0.943309 0.829487 0.396133
O O18 0.250000 0.201863 0.762682
O O19 0.750000 0.112483 0.397552
O O20 0.000000 0.000000 0.402395
O O21 0.750000 0.396030 0.030938
O O22 0.000000 0.500000 0.024072
#
# Coordination Sequence:
#
# PCOD9363146 Si02
#       8
#     8   8   8   8   8   8   8   8
#     4  10  19  33  52  78 113 155 198 241 292 349
#     4   8  18  36  59  85 118 157 198 240 296 358
#     4  11  20  32  50  77 114 153 194 237 286 349
#     4  11  23  39  60  87 120 158 199 246 298 363
#     4  10  22  40  61  84 115 152 195 243 298 355
#     4  10  19  35  58  86 119 159 199 243 296 353
#     4  12  23  34  52  78 112 151 192 238 291 348
#     4  10  21  41  65  89 117 153 195 247 301 357
#
# _framework density 21.171250000000001
#
# number of rings (size 3 to 8) (size 9 to 14) (size 15 to 20)
#    0.000    1.750    1.250    4.875    0.000    2.500 
#    0.000    5.625    0.000    0.000    0.000    0.000 
#    0.000    0.000    0.000    0.000    0.000    0.000 
#
# Total GULP energy -178404.814731 kJ/mol
# GULP energy per Si atom -5575.150460 kJ/mol
# Density = 2.112306 g / cm^3
# Si number density = 21.171250 Si / 1000 Ang^3
#
#
#
# Elastic Constant Matrix: (Units=GPa)
#
#
# Indices 1 2 3 4 5 6 
#
# 1 62.4020 4.6609 13.4026 0.0000 0.0000 0.0000
# 2 4.6609 153.2785 63.4177 0.0000 0.0000 0.0000
# 3 13.4026 63.4177 121.3342 0.0000 0.0000 0.0000
# 4 0.0000 0.0000 0.0000 3.8111 0.0000 0.0000
# 5 0.0000 0.0000 0.0000 0.0000 14.0920 0.0000
# 6 0.0000 0.0000 0.0000 0.0000 0.0000 29.0772
#
#
#
# Elastic Compliance Matrix: (Units=1/GPa)
#
#
# Indices 1 2 3 4 5 6 
#
# 1 0.016427 0.000321 -0.001982 0.000000 0.000000 0.000000
# 2 0.000321 0.008330 -0.004389 0.000000 0.000000 0.000000
# 3 -0.001982 -0.004389 0.010755 0.000000 0.000000 0.000000
# 4 0.000000 0.000000 0.000000 0.262390 0.000000 0.000000
# 5 0.000000 0.000000 0.000000 0.000000 0.070962 0.000000
# 6 0.000000 0.000000 0.000000 0.000000 0.000000 0.034391
#
#
# Mechanical properties :
#
#
# Convention : Reuss Voigt Hill
#
# Bulk Modulus (GPa) = 42.71635 55.55301 49.13468
# Shear Modulus (GPa) = 11.81584 26.43165 19.12374
#
# Velocity S-wave (km/s) = 2.36499 3.53720 3.00874
# Velocity P-wave (km/s) = 5.26099 6.55585 5.94379
#
# Compressibility (1/GPa) = 0.02341024
#
# Stress axis : x y z
#
# Youngs Moduli (GPa) = 60.87584 120.04179 92.98102
#
# Poissons Ratio (x) = -0.03848 0.18429
# Poissons Ratio (y) = -0.01951 0.40814
# Poissons Ratio (z) = 0.12066 0.52692
#
# Static dielectric constant tensor:
#      x y z
#    x 1.766920 0.000000 0.000000 
#    y 0.000000 1.865190 0.000000 
#    z 0.000000 0.000000 1.799640 
# 
# From -- ./inp_files/24332.got.cif
#   From: 2010.05.17/outbox.cif.g08.bks.cpg/sg40_13_cif.got.tgz:24332.got - 2010.06.03 18:35:42.
