data_PCOD9363726
_publ_section_title
;
Structure prediction by ZEFSAII (Michael W. Deem and Ramdas Pophale) SiO2 
 PCOD9363726
Probable space group: A M A 2
;
_chemical_formula_sum "Si O2"
_cell_formula_units_Z 56
_cell_length_a 8.501694
_cell_length_b 23.675986
_cell_length_c 13.795264
_cell_angle_alpha 90.000000
_cell_angle_beta 90.000000
_cell_angle_gamma 90.000000
_cell_volume 2776.793346
_symmetry_space_group_name_H-M "A M A 2"
_symmetry_group_IT_number 40
_symmetry_cell_setting 'orthorhombic'
loop_
_space_group_symop_operation_xyz
x,y,z
-x,-y,z
1/2-x,y,z
1/2+x,-y,z
x,1/2+y,1/2+z
-x,1/2-y,1/2+z
1/2-x,1/2+y,1/2+z
1/2+x,1/2-y,1/2+z
loop_
_atom_site_type_symbol
_atom_site_label
_atom_site_fract_x
_atom_site_fract_y
_atom_site_fract_z
Si Si1 0.562396 0.436669 0.685880
Si Si2 0.565882 0.236019 0.097009
Si Si3 0.440362 0.632778 0.496488
Si Si4 0.563113 0.127518 0.373576
Si Si5 0.065908 0.241093 0.298923
Si Si6 0.562933 0.638830 0.083612
Si Si7 0.436232 0.632332 0.285819
O O1 0.500000 0.500000 0.684720
O O2 0.750000 0.436915 0.682615
O O3 0.507573 0.403984 0.588774
O O4 0.511311 0.406720 0.785433
O O5 0.750000 0.229462 0.119754
O O6 0.459587 0.218810 0.188974
O O7 0.527261 0.301348 0.079644
O O8 0.517840 0.194218 0.011257
O O9 0.250000 0.638799 0.497813
O O10 0.482946 0.607944 0.390901
O O11 0.750000 0.125379 0.361885
O O12 0.508115 0.192514 0.364311
O O13 0.524063 0.107548 0.482998
O O14 0.750000 0.373704 0.273147
O O15 0.978460 0.301069 0.296906
O O16 0.750000 0.650332 0.083857
O O17 0.518469 0.612023 0.187109
O O18 0.750000 0.751365 0.319521
#
# Coordination Sequence:
#
# PCOD9363726 Si02
#       7
#     8   8   8   8   8   8   8
#     4  11  24  42  64  87 112 143 183 238 294 342
#     4  11  20  30  50  79 112 151 193 230 272 333
#     4  10  21  37  56  79 110 147 184 231 285 332
#     4  11  22  37  57  81 110 147 190 235 283 336
#     4  11  20  31  49  77 114 152 189 229 278 333
#     4  10  21  35  52  78 116 153 188 229 274 329
#     4  10  20  34  53  79 113 151 192 228 269 333
#
# _framework density 20.167148000000001
#
# number of rings (size 3 to 8) (size 9 to 14) (size 15 to 20)
#    0.000    1.429    1.429    6.857    0.000    7.429 
#    0.000    0.000    0.000    0.857    0.000    4.000 
#    0.000    0.000    0.000    0.000    0.000    0.000 
#
# Total GULP energy -156345.854966 kJ/mol
# GULP energy per Si atom -5583.780534 kJ/mol
# Density = 2.012125 g / cm^3
# Si number density = 20.167148 Si / 1000 Ang^3
#
#
#
# Elastic Constant Matrix: (Units=GPa)
#
#
# Indices 1 2 3 4 5 6 
#
# 1 47.5894 9.8360 22.9732 0.0000 0.0000 0.0000
# 2 9.8360 34.9729 27.7878 0.0000 0.0000 0.0000
# 3 22.9732 27.7878 172.9333 0.0000 0.0000 0.0000
# 4 0.0000 0.0000 0.0000 11.6160 0.0000 0.0000
# 5 0.0000 0.0000 0.0000 0.0000 28.2232 0.0000
# 6 0.0000 0.0000 0.0000 0.0000 0.0000 -19.5328
#
#
#
# Elastic Compliance Matrix: (Units=1/GPa)
#
#
# Indices 1 2 3 4 5 6 
#
# 1 0.023095 -0.004652 -0.002321 0.000000 0.000000 0.000000
# 2 -0.004652 0.033715 -0.004800 0.000000 0.000000 0.000000
# 3 -0.002321 -0.004800 0.006862 0.000000 0.000000 0.000000
# 4 0.000000 0.000000 0.000000 0.086089 0.000000 0.000000
# 5 0.000000 0.000000 0.000000 0.000000 0.035432 0.000000
# 6 0.000000 0.000000 0.000000 0.000000 0.000000 -0.051196
#
#
# Mechanical properties :
#
#
# Convention : Reuss Voigt Hill
#
# Bulk Modulus (GPa) = 24.91980 41.85442 33.38711
# Shear Modulus (GPa) = 29.25406 17.05449 23.15428
#
# Velocity S-wave (km/s) = 3.81278 2.91117 3.39207
# Velocity P-wave (km/s) = 5.63618 5.66557 5.65090
#
# Compressibility (1/GPa) = 0.04012874
#
# Stress axis : x y z
#
# Youngs Moduli (GPa) = 43.29996 29.66006 145.72841
#
# Poissons Ratio (x) = 0.13796 0.33817
# Poissons Ratio (y) = 0.20141 0.69944
# Poissons Ratio (z) = 0.10048 0.14236
#
# Static dielectric constant tensor:
#      x y z
#    x 1.667460 0.000000 0.000000 
#    y 0.000000 1.670940 0.000000 
#    z 0.000000 0.000000 1.842890 
# 
# From -- ./inp_files/15353.got.cif
#   From: 2010.05.17/outbox.cif.g08.bks.cpg/sg40_8_cif.got.tgz:15353.got - 2010.06.03 18:35:42.
