data_PCOD9363981
_publ_section_title
;
Structure prediction by ZEFSAII (Michael W. Deem and Ramdas Pophale) SiO2 
 PCOD9363981
Probable space group: A M A 2
;
_chemical_formula_sum "Si O2"
_cell_formula_units_Z 64
_cell_length_a 27.792133
_cell_length_b 13.852839
_cell_length_c 8.102234
_cell_angle_alpha 90.000000
_cell_angle_beta 90.000000
_cell_angle_gamma 90.000000
_cell_volume 3119.359636
_symmetry_space_group_name_H-M "A M A 2"
_symmetry_group_IT_number 40
_symmetry_cell_setting 'orthorhombic'
loop_
_space_group_symop_operation_xyz
x,y,z
-x,-y,z
1/2-x,y,z
1/2+x,-y,z
x,1/2+y,1/2+z
-x,1/2-y,1/2+z
1/2-x,1/2+y,1/2+z
1/2+x,1/2-y,1/2+z
loop_
_atom_site_type_symbol
_atom_site_label
_atom_site_fract_x
_atom_site_fract_y
_atom_site_fract_z
Si Si1 0.874613 0.346416 0.010720
Si Si2 0.112021 0.627388 0.641909
Si Si3 0.861872 0.191246 0.450487
Si Si4 0.696098 0.715900 0.637378
Si Si5 0.010167 0.611401 0.467687
Si Si6 0.802715 0.504343 0.512705
Si Si7 0.693386 0.017668 0.624705
Si Si8 0.450160 0.766895 0.228186
O O1 0.838709 0.255480 0.995974
O O2 0.839267 0.423990 0.093080
O O3 0.918010 0.308124 0.122018
O O4 0.892601 0.384207 0.836661
O O5 0.126218 0.736457 0.597594
O O6 0.062922 0.606432 0.547956
O O7 0.154255 0.561544 0.571498
O O8 0.827194 0.240335 0.313687
O O9 0.833591 0.100643 0.522365
O O10 0.912498 0.179404 0.351700
O O11 0.750000 0.753496 0.622382
O O12 0.696663 0.601008 0.620995
O O13 0.013637 0.696159 0.328653
O O14 0.000000 0.500000 0.414595
O O15 0.974794 0.655118 0.608043
O O16 0.750000 0.457170 0.532366
O O17 0.807315 0.534082 0.321420
O O18 0.750000 0.008547 0.576149
#
# Coordination Sequence:
#
# PCOD9363981 Si02
#       8
#     8   8   8   8   8   8   8   8
#     4  11  23  39  64  89 131 169 212 278 325 403
#     4  11  24  42  63  94 126 169 219 268 338 400
#     4  10  22  39  62  90 127 166 213 273 327 397
#     4  10  20  36  58  87 123 168 211 262 324 387
#     4  11  25  46  74  98 136 180 223 290 350 409
#     4  10  22  38  61  91 129 171 219 267 325 401
#     4  11  22  38  60  95 133 177 226 269 331 406
#     4  10  24  48  64 103 130 167 232 277 347 421
#
# _framework density 20.517032
#
# number of rings (size 3 to 8) (size 9 to 14) (size 15 to 20)
#    0.000    1.500    0.000    5.250    5.250    4.000 
#   11.250    0.625    0.000    0.000    0.000    0.000 
#    0.000    0.000    0.000    0.000    0.000    0.000 
#
# Total GULP energy -178632.581019 kJ/mol
# GULP energy per Si atom -5582.268157 kJ/mol
# Density = 2.047033 g / cm^3
# Si number density = 20.517032 Si / 1000 Ang^3
#
#
#
# Elastic Constant Matrix: (Units=GPa)
#
#
# Indices 1 2 3 4 5 6 
#
# 1 60.7874 27.9442 8.0843 0.0000 0.0000 0.0000
# 2 27.9442 64.8418 4.9697 0.0000 0.0000 0.0000
# 3 8.0843 4.9697 63.6738 0.0000 0.0000 0.0000
# 4 0.0000 0.0000 0.0000 30.7326 0.0000 0.0000
# 5 0.0000 0.0000 0.0000 0.0000 22.8269 0.0000
# 6 0.0000 0.0000 0.0000 0.0000 0.0000 43.2902
#
#
#
# Elastic Compliance Matrix: (Units=1/GPa)
#
#
# Indices 1 2 3 4 5 6 
#
# 1 0.020753 -0.008794 -0.001948 0.000000 0.000000 0.000000
# 2 -0.008794 0.019242 -0.000385 0.000000 0.000000 0.000000
# 3 -0.001948 -0.000385 0.015982 0.000000 0.000000 0.000000
# 4 0.000000 0.000000 0.000000 0.032539 0.000000 0.000000
# 5 0.000000 0.000000 0.000000 0.000000 0.043808 0.000000
# 6 0.000000 0.000000 0.000000 0.000000 0.000000 0.023100
#
#
# Mechanical properties :
#
#
# Convention : Reuss Voigt Hill
#
# Bulk Modulus (GPa) = 29.65519 30.14439 29.89979
# Shear Modulus (GPa) = 26.46629 29.25692 27.86160
#
# Velocity S-wave (km/s) = 3.59551 3.78031 3.68907
# Velocity P-wave (km/s) = 5.63225 5.81194 5.72280
#
# Compressibility (1/GPa) = 0.03372091
#
# Stress axis : x y z
#
# Youngs Moduli (GPa) = 48.18666 51.97061 62.56847
#
# Poissons Ratio (x) = 0.45704 0.12191
# Poissons Ratio (y) = 0.42376 0.02411
# Poissons Ratio (z) = 0.09389 0.02002
#
# Static dielectric constant tensor:
#      x y z
#    x 1.725580 0.000000 0.000000 
#    y 0.000000 1.774220 0.000000 
#    z 0.000000 0.000000 1.717930 
# 
# From -- ./inp_files/8936.got.cif
#   From: 2010.05.17/outbox.cif.g08.bks.cpg/sg40_5_cif.got.tgz:8936.got - 2010.06.03 18:35:42.
