data_PCOD9363882
_publ_section_title
;
Structure prediction by ZEFSAII (Michael W. Deem and Ramdas Pophale) SiO2 
 PCOD9363882
Probable space group: A M A 2
;
_chemical_formula_sum "Si O2"
_cell_formula_units_Z 40
_cell_length_a 8.712756
_cell_length_b 9.238076
_cell_length_c 26.720074
_cell_angle_alpha 90.000000
_cell_angle_beta 90.000000
_cell_angle_gamma 90.000000
_cell_volume 2150.674764
_symmetry_space_group_name_H-M "A M A 2"
_symmetry_group_IT_number 40
_symmetry_cell_setting 'orthorhombic'
loop_
_space_group_symop_operation_xyz
x,y,z
-x,-y,z
1/2-x,y,z
1/2+x,-y,z
x,1/2+y,1/2+z
-x,1/2-y,1/2+z
1/2-x,1/2+y,1/2+z
1/2+x,1/2-y,1/2+z
loop_
_atom_site_type_symbol
_atom_site_label
_atom_site_fract_x
_atom_site_fract_y
_atom_site_fract_z
Si Si1 0.934406 0.838830 0.492890
Si Si2 0.066297 0.339477 0.392956
Si Si3 0.433381 0.663319 0.586319
Si Si4 0.433878 0.836962 0.189270
Si Si5 0.066117 0.837202 0.300340
O O1 0.750000 0.842546 0.497237
O O2 0.974926 0.752330 0.442313
O O3 0.004388 0.756262 0.540371
O O4 0.000000 0.000000 0.490114
O O5 0.250000 0.345812 0.389761
O O6 0.000000 0.500000 0.397124
O O7 0.001354 0.260424 0.344032
O O8 0.500000 0.500000 0.582107
O O9 0.250000 0.656277 0.585967
O O10 0.491267 0.727689 0.639444
O O11 0.250000 0.841120 0.183324
O O12 0.470205 0.777068 0.244500
O O13 0.500000 0.000000 0.190929
O O14 0.250000 0.845214 0.304538
O O15 0.000000 0.000000 0.304458
#
# Coordination Sequence:
#
# PCOD9363882 Si02
#       5
#     8   8   8   8   8
#     4  11  24  41  60  84 113 147 186 231 282 337
#     4  11  24  40  60  84 113 148 187 232 282 335
#     4  11  21  35  58  86 116 151 189 233 279 329
#     4   9  17  31  53  82 114 149 188 230 275 328
#     4  10  20  35  58  86 117 151 189 232 278 329
#
# _framework density 18.598814999999998
#
# number of rings (size 3 to 8) (size 9 to 14) (size 15 to 20)
#    0.000    1.600    0.000    6.600    0.000    8.800 
#    0.000    1.000    0.000    4.800    0.000    0.000 
#    0.000    0.000    0.000    0.000    0.000    0.000 
#
# Total GULP energy -111720.298209 kJ/mol
# GULP energy per Si atom -5586.014910 kJ/mol
# Density = 1.855648 g / cm^3
# Si number density = 18.598815 Si / 1000 Ang^3
#
#
#
# Elastic Constant Matrix: (Units=GPa)
#
#
# Indices 1 2 3 4 5 6 
#
# 1 104.3110 53.3553 94.7401 0.0000 0.0000 0.0000
# 2 53.3553 112.8604 97.7021 0.0000 0.0000 0.0000
# 3 94.7401 97.7021 228.5866 0.0000 0.0000 0.0000
# 4 0.0000 0.0000 0.0000 33.8925 0.0000 0.0000
# 5 0.0000 0.0000 0.0000 0.0000 34.3514 0.0000
# 6 0.0000 0.0000 0.0000 0.0000 0.0000 29.7371
#
#
#
# Elastic Compliance Matrix: (Units=1/GPa)
#
#
# Indices 1 2 3 4 5 6 
#
# 1 0.015944 -0.002884 -0.005376 0.000000 0.000000 0.000000
# 2 -0.002884 0.014586 -0.005039 0.000000 0.000000 0.000000
# 3 -0.005376 -0.005039 0.008756 0.000000 0.000000 0.000000
# 4 0.000000 0.000000 0.000000 0.029505 0.000000 0.000000
# 5 0.000000 0.000000 0.000000 0.000000 0.029111 0.000000
# 6 0.000000 0.000000 0.000000 0.000000 0.000000 0.033628
#
#
# Mechanical properties :
#
#
# Convention : Reuss Voigt Hill
#
# Bulk Modulus (GPa) = 78.80565 104.15033 91.47799
# Shear Modulus (GPa) = 30.79608 32.92691 31.86149
#
# Velocity S-wave (km/s) = 4.07358 4.21215 4.14344
# Velocity P-wave (km/s) = 8.03671 8.93175 8.49603
#
# Compressibility (1/GPa) = 0.01268945
#
# Stress axis : x y z
#
# Youngs Moduli (GPa) = 62.71837 68.55755 114.20180
#
# Poissons Ratio (x) = 0.19774 0.61389
# Poissons Ratio (y) = 0.18089 0.57547
# Poissons Ratio (z) = 0.33714 0.34546
#
# Static dielectric constant tensor:
#      x y z
#    x 1.620720 0.000000 0.000000 
#    y 0.000000 1.602850 0.000000 
#    z 0.000000 0.000000 1.668070 
# 
# From -- ./inp_files/23811.got.cif
#   From: 2010.05.17/outbox.cif.g08.bks.cpg/sg40_12_cif.got.tgz:23811.got - 2010.06.03 18:35:42.
