data_PCOD9363948
_publ_section_title
;
Structure prediction by ZEFSAII (Michael W. Deem and Ramdas Pophale) SiO2 
 PCOD9363948
Probable space group: A M A 2
;
_chemical_formula_sum "Si O2"
_cell_formula_units_Z 56
_cell_length_a 20.798520
_cell_length_b 5.110590
_cell_length_c 24.396365
_cell_angle_alpha 90.000000
_cell_angle_beta 90.000000
_cell_angle_gamma 90.000000
_cell_volume 2593.155709
_symmetry_space_group_name_H-M "A M A 2"
_symmetry_group_IT_number 40
_symmetry_cell_setting 'orthorhombic'
loop_
_space_group_symop_operation_xyz
x,y,z
-x,-y,z
1/2-x,y,z
1/2+x,-y,z
x,1/2+y,1/2+z
-x,1/2-y,1/2+z
1/2-x,1/2+y,1/2+z
1/2+x,1/2-y,1/2+z
loop_
_atom_site_type_symbol
_atom_site_label
_atom_site_fract_x
_atom_site_fract_y
_atom_site_fract_z
Si Si1 0.672704 0.217041 0.126790
Si Si2 0.818587 0.677666 0.424818
Si Si3 0.821969 0.339017 0.528431
Si Si4 0.061777 0.813422 0.348934
Si Si5 0.172545 0.782088 0.689414
Si Si6 0.628023 0.676710 0.312070
Si Si7 0.073410 0.939834 0.469726
O O1 0.750000 0.229360 0.131185
O O2 0.662177 0.083916 0.067771
O O3 0.648915 0.001578 0.170290
O O4 0.649884 0.501673 0.145226
O O5 0.750000 0.825153 0.432186
O O6 0.815021 0.439771 0.466630
O O7 0.825025 0.597320 0.361843
O O8 0.882019 0.831915 0.443915
O O9 0.750000 0.236059 0.545450
O O10 0.884080 0.158450 0.520837
O O11 0.070670 0.533509 0.320554
O O12 0.114707 0.017232 0.325376
O O13 0.065616 0.762924 0.414557
O O14 0.000000 0.000000 0.341017
O O15 0.250000 0.775096 0.688103
O O16 0.152336 0.848659 0.750683
O O17 0.000000 0.000000 0.485914
#
# Coordination Sequence:
#
# PCOD9363948 Si02
#       7
#     8   8   8   8   8   8   8
#     4   9  20  35  56  81 114 153 195 237 295 356
#     4  10  21  35  56  90 122 154 190 247 311 363
#     4  10  20  36  58  86 117 153 194 251 302 356
#     4  10  21  36  56  84 117 156 198 241 291 366
#     4  10  20  36  56  85 115 151 193 239 291 355
#     4  11  20  36  58  86 118 153 190 244 303 352
#     4  10  21  36  56  85 122 161 201 241 300 368
#
# _framework density 21.595309
#
# number of rings (size 3 to 8) (size 9 to 14) (size 15 to 20)
#    0.000    2.000    1.429    2.143    2.000    0.571 
#    0.000    1.429    0.000    3.429    0.000    0.000 
#    0.000    0.000    0.000    0.000    0.000    0.000 
#
# Total GULP energy -155958.562423 kJ/mol
# GULP energy per Si atom -5569.948658 kJ/mol
# Density = 2.154616 g / cm^3
# Si number density = 21.595309 Si / 1000 Ang^3
#
#
#
# Elastic Constant Matrix: (Units=GPa)
#
#
# Indices 1 2 3 4 5 6 
#
# 1 108.3518 13.2697 16.3062 0.0000 0.0000 0.0000
# 2 13.2697 66.8113 5.4175 0.0000 0.0000 0.0000
# 3 16.3062 5.4175 96.5554 0.0000 0.0000 0.0000
# 4 0.0000 0.0000 0.0000 31.6977 0.0000 0.0000
# 5 0.0000 0.0000 0.0000 0.0000 13.3345 0.0000
# 6 0.0000 0.0000 0.0000 0.0000 0.0000 18.7087
#
#
#
# Elastic Compliance Matrix: (Units=1/GPa)
#
#
# Indices 1 2 3 4 5 6 
#
# 1 0.009680 -0.001798 -0.001534 0.000000 0.000000 0.000000
# 2 -0.001798 0.015370 -0.000559 0.000000 0.000000 0.000000
# 3 -0.001534 -0.000559 0.010647 0.000000 0.000000 0.000000
# 4 0.000000 0.000000 0.000000 0.031548 0.000000 0.000000
# 5 0.000000 0.000000 0.000000 0.000000 0.074993 0.000000
# 6 0.000000 0.000000 0.000000 0.000000 0.000000 0.053451
#
#
# Mechanical properties :
#
#
# Convention : Reuss Voigt Hill
#
# Bulk Modulus (GPa) = 35.82213 37.96725 36.89469
# Shear Modulus (GPa) = 23.49882 28.52986 26.01434
#
# Velocity S-wave (km/s) = 3.30228 3.63866 3.47454
# Velocity P-wave (km/s) = 5.58247 5.93907 5.76353
#
# Compressibility (1/GPa) = 0.02791571
#
# Stress axis : x y z
#
# Youngs Moduli (GPa) = 103.30291 65.06182 93.92198
#
# Poissons Ratio (x) = 0.11700 0.14407
# Poissons Ratio (y) = 0.18577 0.05247
# Poissons Ratio (z) = 0.15846 0.03635
#
# Static dielectric constant tensor:
#      x y z
#    x 1.888850 0.000000 0.000000 
#    y 0.000000 1.851250 0.000000 
#    z 0.000000 0.000000 1.783900 
# 
# From -- ./inp_files/23619.got.cif
#   From: 2010.05.17/outbox.cif.g08.bks.cpg/sg40_12_cif.got.tgz:23619.got - 2010.06.03 18:35:42.
