data_PCOD9363601
_publ_section_title
;
Structure prediction by ZEFSAII (Michael W. Deem and Ramdas Pophale) SiO2 
 PCOD9363601
Probable space group: A M A 2
;
_chemical_formula_sum "Si O2"
_cell_formula_units_Z 48
_cell_length_a 9.059972
_cell_length_b 33.305326
_cell_length_c 7.332697
_cell_angle_alpha 90.000000
_cell_angle_beta 90.000000
_cell_angle_gamma 90.000000
_cell_volume 2212.607010
_symmetry_space_group_name_H-M "A M A 2"
_symmetry_group_IT_number 40
_symmetry_cell_setting 'orthorhombic'
loop_
_space_group_symop_operation_xyz
x,y,z
-x,-y,z
1/2-x,y,z
1/2+x,-y,z
x,1/2+y,1/2+z
-x,1/2-y,1/2+z
1/2-x,1/2+y,1/2+z
1/2+x,1/2-y,1/2+z
loop_
_atom_site_type_symbol
_atom_site_label
_atom_site_fract_x
_atom_site_fract_y
_atom_site_fract_z
Si Si1 0.915474 0.285415 0.589280
Si Si2 0.414623 0.203939 0.524110
Si Si3 0.927278 0.459798 0.543093
Si Si4 0.928336 0.871858 0.071743
Si Si5 0.075308 0.373709 0.971374
Si Si6 0.926961 0.038790 0.447489
O O1 0.750000 0.275512 0.525460
O O2 0.908271 0.295038 0.804001
O O3 0.966432 0.327323 0.497338
O O4 0.014519 0.246322 0.573251
O O5 0.250000 0.200846 0.597164
O O6 0.503465 0.163872 0.571814
O O7 0.750000 0.464738 0.547496
O O8 0.959772 0.414361 0.472832
O O9 0.000000 0.500000 0.460016
O O10 0.993974 0.458802 0.749212
O O11 0.750000 0.870965 0.101029
O O12 0.011537 0.874081 0.265514
O O13 0.250000 0.368054 0.963871
O O14 0.044795 0.418564 0.042814
O O15 0.750000 0.034022 0.425960
O O16 0.000000 0.000000 0.537887
#
# Coordination Sequence:
#
# PCOD9363601 Si02
#       6
#     8   8   8   8   8   8
#     4   9  18  32  47  64  88 116 147 183 220 261
#     4  10  20  32  47  67  89 116 149 183 222 265
#     4   9  14  20  31  48  73 104 136 169 206 249
#     4   8  15  26  38  54  79 110 141 175 215 256
#     4   9  16  25  38  56  79 109 142 175 213 256
#     4   9  15  21  31  49  73 103 137 169 205 249
#
# _framework density 21.693866
#
# number of rings (size 3 to 8) (size 9 to 14) (size 15 to 20)
#    0.000    3.000    0.000    4.000    0.000    6.000 
#    0.000    0.000    0.000    0.000    0.000    0.000 
#    0.000    1.333    0.000   10.000    0.000    9.500 
#
# Total GULP energy -133681.613657 kJ/mol
# GULP energy per Si atom -5570.067236 kJ/mol
# Density = 2.164449 g / cm^3
# Si number density = 21.693866 Si / 1000 Ang^3
#
#
#
# Elastic Constant Matrix: (Units=GPa)
#
#
# Indices 1 2 3 4 5 6 
#
# 1 93.8783 99.5512 9.5327 0.0000 0.0000 0.0000
# 2 99.5512 235.6473 -20.6438 0.0000 0.0000 0.0000
# 3 9.5327 -20.6438 39.2925 0.0000 0.0000 0.0000
# 4 0.0000 0.0000 0.0000 2.5559 0.0000 0.0000
# 5 0.0000 0.0000 0.0000 0.0000 0.2466 0.0000
# 6 0.0000 0.0000 0.0000 0.0000 0.0000 52.7084
#
#
#
# Elastic Compliance Matrix: (Units=1/GPa)
#
#
# Indices 1 2 3 4 5 6 
#
# 1 0.023292 -0.010834 -0.011343 0.000000 0.000000 0.000000
# 2 -0.010834 0.009487 0.007613 0.000000 0.000000 0.000000
# 3 -0.011343 0.007613 0.032202 0.000000 0.000000 0.000000
# 4 0.000000 0.000000 0.000000 0.391259 0.000000 0.000000
# 5 0.000000 0.000000 0.000000 0.000000 4.054918 0.000000
# 6 0.000000 0.000000 0.000000 0.000000 0.000000 0.018972
#
#
# Mechanical properties :
#
#
# Convention : Reuss Voigt Hill
#
# Bulk Modulus (GPa) = 27.89083 60.63315 44.26199
# Shear Modulus (GPa) = 1.09380 29.79403 15.44392
#
# Velocity S-wave (km/s) = 0.71084 3.70994 2.67104
# Velocity P-wave (km/s) = 3.68214 6.80894 5.47357
#
# Compressibility (1/GPa) = 0.03585408
#
# Stress axis : x y z
#
# Youngs Moduli (GPa) = 42.93287 105.40379 31.05431
#
# Poissons Ratio (x) = 1.14191 0.35224
# Poissons Ratio (y) = 0.46512 -0.23641
# Poissons Ratio (z) = 0.48698 -0.80242
#
# Static dielectric constant tensor:
#      x y z
#    x 1.747050 0.000000 0.000000 
#    y 0.000000 1.892070 0.000000 
#    z 0.000000 0.000000 1.898390 
# 
# From -- ./inp_files/10447.got.cif
#   From: 2010.05.17/outbox.cif.g08.bks.cpg/sg40_6_cif.got.tgz:10447.got - 2010.06.03 18:35:42.
