data_PCOD9363966
_publ_section_title
;
Structure prediction by ZEFSAII (Michael W. Deem and Ramdas Pophale) SiO2 
 PCOD9363966
Probable space group: A M A 2
;
_chemical_formula_sum "Si O2"
_cell_formula_units_Z 64
_cell_length_a 17.114539
_cell_length_b 19.828520
_cell_length_c 9.705939
_cell_angle_alpha 90.000000
_cell_angle_beta 90.000000
_cell_angle_gamma 90.000000
_cell_volume 3293.768430
_symmetry_space_group_name_H-M "A M A 2"
_symmetry_group_IT_number 40
_symmetry_cell_setting 'orthorhombic'
loop_
_space_group_symop_operation_xyz
x,y,z
-x,-y,z
1/2-x,y,z
1/2+x,-y,z
x,1/2+y,1/2+z
-x,1/2-y,1/2+z
1/2-x,1/2+y,1/2+z
1/2+x,1/2-y,1/2+z
loop_
_atom_site_type_symbol
_atom_site_label
_atom_site_fract_x
_atom_site_fract_y
_atom_site_fract_z
Si Si1 0.422716 0.884181 0.735610
Si Si2 0.843971 0.869567 0.410803
Si Si3 0.661093 0.202242 0.522029
Si Si4 0.662745 0.484285 0.118818
Si Si5 0.659727 0.360972 0.596066
Si Si6 0.926020 0.726999 0.451738
Si Si7 0.599811 0.886487 0.814761
Si Si8 0.078600 0.762760 0.267830
O O1 0.405338 0.832624 0.612282
O O2 0.395837 0.840075 0.870409
O O3 0.512781 0.901384 0.762429
O O4 0.381151 0.950715 0.677709
O O5 0.750000 0.869115 0.423320
O O6 0.872180 0.933648 0.501602
O O7 0.864707 0.877890 0.250310
O O8 0.873431 0.794497 0.448275
O O9 0.750000 0.178129 0.547851
O O10 0.659361 0.280459 0.568389
O O11 0.636926 0.194258 0.362613
O O12 0.750000 0.503668 0.075160
O O13 0.662112 0.435289 0.249479
O O14 0.750000 0.382660 0.576965
O O15 0.604819 0.390214 0.478451
O O16 0.940329 0.713021 0.614015
O O17 0.002477 0.748413 0.363003
O O18 0.617707 0.811179 0.762951
#
# Coordination Sequence:
#
# PCOD9363966 Si02
#       8
#     8   8   8   8   8   8   8   8
#     4  11  23  37  60  89 126 167 204 257 323 391
#     4  10  21  36  60  89 120 160 214 263 305 372
#     4  10  20  36  57  87 125 163 202 256 327 383
#     4  11  23  40  59  85 120 165 209 254 311 378
#     4   9  18  35  60  90 118 153 205 261 314 369
#     4  11  21  37  60  93 127 159 209 267 330 376
#     4  10  20  36  60  87 120 159 205 253 310 376
#     4  10  21  35  60  92 122 160 202 270 319 379
#
# _framework density 19.430631000000002
#
# number of rings (size 3 to 8) (size 9 to 14) (size 15 to 20)
#    0.000    1.750    2.500    2.625    3.500    1.500 
#    0.000    1.250    0.000    1.500    0.000    0.000 
#    0.000    0.000    0.000    0.000    0.000    0.000 
#
# Total GULP energy -178231.737222 kJ/mol
# GULP energy per Si atom -5569.741788 kJ/mol
# Density = 1.938641 g / cm^3
# Si number density = 19.430631 Si / 1000 Ang^3
#
#
#
# Elastic Constant Matrix: (Units=GPa)
#
#
# Indices 1 2 3 4 5 6 
#
# 1 62.2131 24.1269 36.5374 0.0000 0.0000 0.0000
# 2 24.1269 62.9883 49.0778 0.0000 0.0000 0.0000
# 3 36.5374 49.0778 160.5935 0.0000 0.0000 0.0000
# 4 0.0000 0.0000 0.0000 22.5648 0.0000 0.0000
# 5 0.0000 0.0000 0.0000 0.0000 25.8246 0.0000
# 6 0.0000 0.0000 0.0000 0.0000 0.0000 2.6512
#
#
#
# Elastic Compliance Matrix: (Units=1/GPa)
#
#
# Indices 1 2 3 4 5 6 
#
# 1 0.019841 -0.005359 -0.002877 0.000000 0.000000 0.000000
# 2 -0.005359 0.022285 -0.005591 0.000000 0.000000 0.000000
# 3 -0.002877 -0.005591 0.008590 0.000000 0.000000 0.000000
# 4 0.000000 0.000000 0.000000 0.044317 0.000000 0.000000
# 5 0.000000 0.000000 0.000000 0.000000 0.038723 0.000000
# 6 0.000000 0.000000 0.000000 0.000000 0.000000 0.377182
#
#
# Mechanical properties :
#
#
# Convention : Reuss Voigt Hill
#
# Bulk Modulus (GPa) = 43.35859 56.14214 49.75037
# Shear Modulus (GPa) = 9.15284 21.94497 15.54890
#
# Velocity S-wave (km/s) = 2.17273 3.36430 2.83190
# Velocity P-wave (km/s) = 5.35325 6.63685 6.02931
#
# Compressibility (1/GPa) = 0.02306348
#
# Stress axis : x y z
#
# Youngs Moduli (GPa) = 50.39979 44.87336 116.41388
#
# Poissons Ratio (x) = 0.24046 0.33487
# Poissons Ratio (y) = 0.27008 0.65089
# Poissons Ratio (z) = 0.14498 0.25089
#
# Static dielectric constant tensor:
#      x y z
#    x 1.717950 0.000000 0.000000 
#    y 0.000000 1.714160 0.000000 
#    z 0.000000 0.000000 1.715290 
# 
# From -- ./inp_files/7823.got.cif
#   From: 2010.05.17/outbox.cif.g08.bks.cpg/sg40_4_cif.got.tgz:7823.got - 2010.06.03 18:35:42.
