data_PCOD9363139
_publ_section_title
;
Structure prediction by ZEFSAII (Michael W. Deem and Ramdas Pophale) SiO2 
 PCOD9363139
Probable space group: A M A 2
;
_chemical_formula_sum "Si O2"
_cell_formula_units_Z 64
_cell_length_a 8.904608
_cell_length_b 14.857575
_cell_length_c 28.362372
_cell_angle_alpha 90.000000
_cell_angle_beta 90.000000
_cell_angle_gamma 90.000000
_cell_volume 3752.366809
_symmetry_space_group_name_H-M "A M A 2"
_symmetry_group_IT_number 40
_symmetry_cell_setting 'orthorhombic'
loop_
_space_group_symop_operation_xyz
x,y,z
-x,-y,z
1/2-x,y,z
1/2+x,-y,z
x,1/2+y,1/2+z
-x,1/2-y,1/2+z
1/2-x,1/2+y,1/2+z
1/2+x,1/2-y,1/2+z
loop_
_atom_site_type_symbol
_atom_site_label
_atom_site_fract_x
_atom_site_fract_y
_atom_site_fract_z
Si Si1 0.431340 0.592169 0.899420
Si Si2 0.920518 0.147299 0.962235
Si Si3 0.070055 0.597495 0.174657
Si Si4 0.569916 0.903470 0.783116
Si Si5 0.069341 0.218634 0.870375
Si Si6 0.419344 0.148606 0.501351
Si Si7 0.071250 0.288539 0.093033
Si Si8 0.570874 0.409605 0.556842
O O1 0.500000 0.500000 0.879669
O O2 0.250000 0.593406 0.896857
O O3 0.497741 0.682425 0.876192
O O4 0.474300 0.597083 0.955069
O O5 0.750000 0.112872 0.956866
O O6 0.005332 0.156687 0.912754
O O7 0.910340 0.249343 0.981849
O O8 0.010588 0.097992 0.003321
O O9 0.250000 0.592415 0.171409
O O10 0.027748 0.618092 0.229052
O O11 0.000000 0.500000 0.163150
O O12 0.008010 0.670837 0.138588
O O13 0.750000 0.912268 0.784535
O O14 0.528049 0.828030 0.821042
O O15 0.500000 0.000000 0.795386
O O16 0.250000 0.224939 0.874429
O O17 0.250000 0.119149 0.513829
O O18 0.520907 0.153247 0.547438
O O19 0.250000 0.292809 0.097997
O O20 0.028874 0.184330 0.082387
O O21 0.500000 0.500000 0.578089
O O22 0.750000 0.416128 0.556618
#
# Coordination Sequence:
#
# PCOD9363139 Si02
#       8
#     8   8   8   8   8   8   8   8
#     4  10  20  33  50  74 103 138 176 211 251 296
#     4   9  17  30  47  69  98 131 168 205 244 289
#     4  10  20  36  56  77 101 128 161 203 253 305
#     4   9  20  36  55  78 101 128 162 203 252 304
#     4  10  19  33  52  75 104 135 170 210 252 300
#     4   8  16  30  46  66  95 130 166 202 240 285
#     4  10  20  33  51  76 103 132 168 208 251 299
#     4  10  20  33  50  73 103 138 174 210 249 294
#
# _framework density 17.055902
#
# number of rings (size 3 to 8) (size 9 to 14) (size 15 to 20)
#    0.000    2.500    0.000    3.000    0.000    7.500 
#    0.000    2.500    0.000    0.750    0.000    1.750 
#    0.000    0.000    0.000    0.000    0.000    0.000 
#
# Total GULP energy -178405.078552 kJ/mol
# GULP energy per Si atom -5575.158705 kJ/mol
# Density = 1.701708 g / cm^3
# Si number density = 17.055902 Si / 1000 Ang^3
#
#
#
# Elastic Constant Matrix: (Units=GPa)
#
#
# Indices 1 2 3 4 5 6 
#
# 1 60.3432 48.6344 49.5771 0.0000 0.0000 0.0000
# 2 48.6344 114.2865 72.7764 0.0000 0.0000 0.0000
# 3 49.5771 72.7764 98.1638 0.0000 0.0000 0.0000
# 4 0.0000 0.0000 0.0000 22.8282 0.0000 0.0000
# 5 0.0000 0.0000 0.0000 0.0000 22.7775 0.0000
# 6 0.0000 0.0000 0.0000 0.0000 0.0000 25.1227
#
#
#
# Elastic Compliance Matrix: (Units=1/GPa)
#
#
# Indices 1 2 3 4 5 6 
#
# 1 0.030335 -0.005973 -0.010892 0.000000 0.000000 0.000000
# 2 -0.005973 0.017751 -0.010144 0.000000 0.000000 0.000000
# 3 -0.010892 -0.010144 0.023208 0.000000 0.000000 0.000000
# 4 0.000000 0.000000 0.000000 0.043806 0.000000 0.000000
# 5 0.000000 0.000000 0.000000 0.000000 0.043903 0.000000
# 6 0.000000 0.000000 0.000000 0.000000 0.000000 0.039805
#
#
# Mechanical properties :
#
#
# Convention : Reuss Voigt Hill
#
# Bulk Modulus (GPa) = 57.88160 68.30770 63.09465
# Shear Modulus (GPa) = 19.33609 20.93271 20.13440
#
# Velocity S-wave (km/s) = 3.37068 3.50709 3.43956
# Velocity P-wave (km/s) = 7.01133 7.51903 7.26961
#
# Compressibility (1/GPa) = 0.01727665
#
# Stress axis : x y z
#
# Youngs Moduli (GPa) = 32.96557 56.33465 43.08767
#
# Poissons Ratio (x) = 0.33647 0.46932
# Poissons Ratio (y) = 0.19690 0.43707
# Poissons Ratio (z) = 0.35907 0.57144
#
# Static dielectric constant tensor:
#      x y z
#    x 1.577790 0.000000 0.000000 
#    y 0.000000 1.591690 0.000000 
#    z 0.000000 0.000000 1.566720 
# 
# From -- ./inp_files/24293.got.cif
#   From: 2010.05.17/outbox.cif.g08.bks.cpg/sg40_13_cif.got.tgz:24293.got - 2010.06.03 18:35:42.
