data_PCOD9363396
_publ_section_title
;
Structure prediction by ZEFSAII (Michael W. Deem and Ramdas Pophale) SiO2 
 PCOD9363396
Probable space group: A M A 2
;
_chemical_formula_sum "Si O2"
_cell_formula_units_Z 56
_cell_length_a 22.775786
_cell_length_b 15.147000
_cell_length_c 8.927651
_cell_angle_alpha 90.000000
_cell_angle_beta 90.000000
_cell_angle_gamma 90.000000
_cell_volume 3079.904167
_symmetry_space_group_name_H-M "A M A 2"
_symmetry_group_IT_number 40
_symmetry_cell_setting 'orthorhombic'
loop_
_space_group_symop_operation_xyz
x,y,z
-x,-y,z
1/2-x,y,z
1/2+x,-y,z
x,1/2+y,1/2+z
-x,1/2-y,1/2+z
1/2-x,1/2+y,1/2+z
1/2+x,1/2-y,1/2+z
loop_
_atom_site_type_symbol
_atom_site_label
_atom_site_fract_x
_atom_site_fract_y
_atom_site_fract_z
Si Si1 0.478408 0.597193 0.790950
Si Si2 0.649690 0.371345 0.732196
Si Si3 0.182602 0.944016 0.087987
Si Si4 0.902677 0.696809 0.736453
Si Si5 0.393347 0.124199 0.548721
Si Si6 0.314403 0.731215 0.459602
Si Si7 0.183697 0.042369 0.785479
O O1 0.500000 0.500000 0.750059
O O2 0.420399 0.623581 0.697574
O O3 0.532390 0.662314 0.769275
O O4 0.451996 0.596212 0.959864
O O5 0.676033 0.465447 0.683556
O O6 0.651526 0.357904 0.910381
O O7 0.677137 0.295147 0.631879
O O8 0.250000 0.912549 0.101517
O O9 0.171895 0.971684 0.915417
O O10 0.135192 0.874675 0.144848
O O11 0.903832 0.787418 0.642823
O O12 0.866368 0.712636 0.889031
O O13 0.364368 0.051658 0.656405
O O14 0.250000 0.771217 0.435034
O O15 0.315719 0.637266 0.371190
O O16 0.250000 0.028401 0.726917
#
# Coordination Sequence:
#
# PCOD9363396 Si02
#       7
#     8   8   8   8   8   8   8
#     4  10  21  38  56  77 110 150 194 230 277 348
#     4   9  19  35  57  80 111 147 192 229 285 341
#     4  10  19  35  59  84 111 149 192 232 284 353
#     4  11  20  36  58  80 118 148 192 237 292 340
#     4   9  21  35  56  82 108 148 186 237 298 329
#     4   9  18  33  56  84 112 144 184 232 285 348
#     4   8  16  33  55  80 110 142 184 230 282 344
#
# _framework density 18.182383999999999
#
# number of rings (size 3 to 8) (size 9 to 14) (size 15 to 20)
#    0.857    1.714    1.429    1.714    2.000    1.714 
#    0.000    4.286    0.000    3.429    0.000    0.000 
#    0.000    0.000    0.000    0.000    0.000    0.000 
#
# Total GULP energy -155903.756785 kJ/mol
# GULP energy per Si atom -5567.991314 kJ/mol
# Density = 1.814100 g / cm^3
# Si number density = 18.182384 Si / 1000 Ang^3
#
#
#
# Elastic Constant Matrix: (Units=GPa)
#
#
# Indices 1 2 3 4 5 6 
#
# 1 91.1615 7.6790 16.8422 0.0000 0.0000 0.0000
# 2 7.6790 21.1811 -5.4770 0.0000 0.0000 0.0000
# 3 16.8422 -5.4770 54.0885 0.0000 0.0000 0.0000
# 4 0.0000 0.0000 0.0000 18.0690 0.0000 0.0000
# 5 0.0000 0.0000 0.0000 0.0000 24.3664 0.0000
# 6 0.0000 0.0000 0.0000 0.0000 0.0000 24.2077
#
#
#
# Elastic Compliance Matrix: (Units=1/GPa)
#
#
# Indices 1 2 3 4 5 6 
#
# 1 0.012248 -0.005572 -0.004378 0.000000 0.000000 0.000000
# 2 -0.005572 0.051017 0.006901 0.000000 0.000000 0.000000
# 3 -0.004378 0.006901 0.020550 0.000000 0.000000 0.000000
# 4 0.000000 0.000000 0.000000 0.055343 0.000000 0.000000
# 5 0.000000 0.000000 0.000000 0.000000 0.041040 0.000000
# 6 0.000000 0.000000 0.000000 0.000000 0.000000 0.041309
#
#
# Mechanical properties :
#
#
# Convention : Reuss Voigt Hill
#
# Bulk Modulus (GPa) = 12.86739 22.72441 17.79590
# Shear Modulus (GPa) = 19.72300 23.15441 21.43870
#
# Velocity S-wave (km/s) = 3.29710 3.57242 3.43752
# Velocity P-wave (km/s) = 4.64615 5.43520 5.05609
#
# Compressibility (1/GPa) = 0.07771586
#
# Stress axis : x y z
#
# Youngs Moduli (GPa) = 81.64748 19.60149 48.66126
#
# Poissons Ratio (x) = 0.10923 0.21304
# Poissons Ratio (y) = 0.45497 -0.33581
# Poissons Ratio (z) = 0.35745 -0.13527
#
# Static dielectric constant tensor:
#      x y z
#    x 1.622730 0.000000 0.000000 
#    y 0.000000 1.607000 0.000000 
#    z 0.000000 0.000000 1.634350 
# 
# From -- ./inp_files/8299.got.cif
#   From: 2010.05.17/outbox.cif.g08.bks.cpg/sg40_5_cif.got.tgz:8299.got - 2010.06.03 18:35:42.
