data_PCOD9363518
_publ_section_title
;
Structure prediction by ZEFSAII (Michael W. Deem and Ramdas Pophale) SiO2 
 PCOD9363518
Probable space group: A M A 2
;
_chemical_formula_sum "Si O2"
_cell_formula_units_Z 56
_cell_length_a 15.081083
_cell_length_b 12.087028
_cell_length_c 15.318424
_cell_angle_alpha 90.000000
_cell_angle_beta 90.000000
_cell_angle_gamma 90.000000
_cell_volume 2792.326157
_symmetry_space_group_name_H-M "A M A 2"
_symmetry_group_IT_number 40
_symmetry_cell_setting 'orthorhombic'
loop_
_space_group_symop_operation_xyz
x,y,z
-x,-y,z
1/2-x,y,z
1/2+x,-y,z
x,1/2+y,1/2+z
-x,1/2-y,1/2+z
1/2-x,1/2+y,1/2+z
1/2+x,1/2-y,1/2+z
loop_
_atom_site_type_symbol
_atom_site_label
_atom_site_fract_x
_atom_site_fract_y
_atom_site_fract_z
Si Si1 0.146680 0.091364 0.586240
Si Si2 0.850377 0.573216 0.750476
Si Si3 0.858330 0.824819 0.767172
Si Si4 0.348931 0.821509 0.981236
Si Si5 0.045916 0.181943 0.942281
Si Si6 0.647495 0.450713 0.588096
Si Si7 0.414205 0.439880 0.932617
O O1 0.250000 0.064450 0.593468
O O2 0.112445 0.103163 0.684459
O O3 0.140634 0.211228 0.539776
O O4 0.106295 0.001948 0.521879
O O5 0.750000 0.585890 0.717401
O O6 0.888647 0.697616 0.748310
O O7 0.886487 0.479136 0.685834
O O8 0.847329 0.544538 0.852684
O O9 0.750000 0.824528 0.773278
O O10 0.899676 0.861362 0.858662
O O11 0.250000 0.815286 0.939123
O O12 0.440407 0.829343 0.927761
O O13 0.349140 0.929983 0.041154
O O14 0.069097 0.311572 0.949210
O O15 0.081804 0.122859 0.029609
O O16 0.750000 0.406141 0.588344
O O17 0.500000 0.500000 0.894849
#
# Coordination Sequence:
#
# PCOD9363518 Si02
#       7
#     8   8   8   8   8   8   8
#     4  10  19  37  63  84 116 164 205 240 287 363
#     4   9  18  35  59  88 118 153 197 247 299 361
#     4   9  18  36  63  91 119 162 208 241 293 372
#     4  10  20  37  61  87 116 161 208 244 298 365
#     4  11  22  37  61  94 123 154 202 260 304 346
#     4  10  20  37  63  92 122 153 198 254 310 363
#     4  11  22  36  55  89 122 154 201 247 299 357
#
# _framework density 20.054963999999998
#
# number of rings (size 3 to 8) (size 9 to 14) (size 15 to 20)
#    0.000    2.000    2.857    1.286    0.000    2.857 
#    0.000    1.429    3.143    0.000    0.000    1.000 
#    0.000    0.000    0.000    0.000    0.000    0.000 
#
# Total GULP energy -156036.678932 kJ/mol
# GULP energy per Si atom -5572.738533 kJ/mol
# Density = 2.000932 g / cm^3
# Si number density = 20.054964 Si / 1000 Ang^3
#
#
#
# Elastic Constant Matrix: (Units=GPa)
#
#
# Indices 1 2 3 4 5 6 
#
# 1 93.9265 19.2549 46.8258 0.0000 0.0000 0.0000
# 2 19.2549 65.9083 42.1500 0.0000 0.0000 0.0000
# 3 46.8258 42.1500 120.6925 0.0000 0.0000 0.0000
# 4 0.0000 0.0000 0.0000 26.3989 0.0000 0.0000
# 5 0.0000 0.0000 0.0000 0.0000 -6.7068 0.0000
# 6 0.0000 0.0000 0.0000 0.0000 0.0000 16.9189
#
#
#
# Elastic Compliance Matrix: (Units=1/GPa)
#
#
# Indices 1 2 3 4 5 6 
#
# 1 0.013228 -0.000750 -0.004870 0.000000 0.000000 0.000000
# 2 -0.000750 0.019578 -0.006546 0.000000 0.000000 0.000000
# 3 -0.004870 -0.006546 0.012461 0.000000 0.000000 0.000000
# 4 0.000000 0.000000 0.000000 0.037880 0.000000 0.000000
# 5 0.000000 0.000000 0.000000 0.000000 -0.149103 0.000000
# 6 0.000000 0.000000 0.000000 0.000000 0.000000 0.059105
#
#
# Mechanical properties :
#
#
# Convention : Reuss Voigt Hill
#
# Bulk Modulus (GPa) = 47.76799 55.22098 51.49448
# Shear Modulus (GPa) = 204.39228 18.80865 111.60047
#
# Velocity S-wave (km/s) = 10.10630 3.06576 7.46780
# Velocity P-wave (km/s) = 12.65122 6.33455 10.00449
#
# Compressibility (1/GPa) = 0.02093452
#
# Stress axis : x y z
#
# Youngs Moduli (GPa) = 75.59466 51.07699 80.24793
#
# Poissons Ratio (x) = 0.03830 0.39084
# Poissons Ratio (y) = 0.05669 0.52534
# Poissons Ratio (z) = 0.36818 0.33437
#
# Static dielectric constant tensor:
#      x y z
#    x 1.948610 0.000000 0.000000 
#    y 0.000000 1.703200 0.000000 
#    z 0.000000 0.000000 1.743170 
# 
# From -- ./inp_files/17179.got.cif
#   From: 2010.05.17/outbox.cif.g08.bks.cpg/sg40_9_cif.got.tgz:17179.got - 2010.06.03 18:35:42.
