data_PCOD9363807
_publ_section_title
;
Structure prediction by ZEFSAII (Michael W. Deem and Ramdas Pophale) SiO2 
 PCOD9363807
Probable space group: A M A 2
;
_chemical_formula_sum "Si O2"
_cell_formula_units_Z 64
_cell_length_a 18.023070
_cell_length_b 18.702799
_cell_length_c 9.744094
_cell_angle_alpha 90.000000
_cell_angle_beta 90.000000
_cell_angle_gamma 90.000000
_cell_volume 3284.557286
_symmetry_space_group_name_H-M "A M A 2"
_symmetry_group_IT_number 40
_symmetry_cell_setting 'orthorhombic'
loop_
_space_group_symop_operation_xyz
x,y,z
-x,-y,z
1/2-x,y,z
1/2+x,-y,z
x,1/2+y,1/2+z
-x,1/2-y,1/2+z
1/2-x,1/2+y,1/2+z
1/2+x,1/2-y,1/2+z
loop_
_atom_site_type_symbol
_atom_site_label
_atom_site_fract_x
_atom_site_fract_y
_atom_site_fract_z
Si Si1 0.839113 0.459220 0.946400
Si Si2 0.471883 0.278227 0.353222
Si Si3 0.167842 0.150948 0.077172
Si Si4 0.944136 0.067604 0.929167
Si Si5 0.161182 0.919745 0.664941
Si Si6 0.839725 0.008125 0.142868
Si Si7 0.573250 0.212997 0.547730
Si Si8 0.333397 0.192751 0.399488
O O1 0.750000 0.451168 0.933377
O O2 0.861712 0.494285 0.801403
O O3 0.865639 0.378307 0.971305
O O4 0.853740 0.511673 0.070474
O O5 0.486961 0.357037 0.412867
O O6 0.519960 0.214055 0.417075
O O7 0.473695 0.278829 0.188560
O O8 0.387708 0.259313 0.398336
O O9 0.250000 0.157772 0.018726
O O10 0.118920 0.214630 0.022932
O O11 0.170989 0.167002 0.240813
O O12 0.146787 0.068161 0.066886
O O13 0.885064 0.069732 0.803787
O O14 0.894158 0.062321 0.066467
O O15 0.000000 0.000000 0.921201
O O16 0.250000 0.911821 0.686991
O O17 0.128389 0.851818 0.581815
O O18 0.750000 0.022846 0.136096
O O19 0.250000 0.209812 0.446348
#
# Coordination Sequence:
#
# PCOD9363807 Si02
#       8
#     8   8   8   8   8   8   8   8
#     4   8  16  32  55  81 102 126 171 225 269 312
#     4  10  22  35  52  74 102 139 177 218 267 319
#     4   8  14  28  52  75  94 126 174 219 255 300
#     4  11  23  36  50  77 115 148 177 219 277 339
#     4  10  21  37  58  82 110 147 186 225 271 330
#     4   9  17  32  55  78 100 132 176 223 267 318
#     4  10  20  35  52  75 105 137 176 222 268 320
#     4   8  15  31  54  76  98 129 175 221 256 304
#
# _framework density 19.485122
#
# number of rings (size 3 to 8) (size 9 to 14) (size 15 to 20)
#    0.000    2.750    0.000    3.000    0.000    6.500 
#    0.000    0.625    0.000    1.500    0.000    0.000 
#    0.000    0.000    0.000    0.000    0.000    0.000 
#
# Total GULP energy -178192.867865 kJ/mol
# GULP energy per Si atom -5568.527121 kJ/mol
# Density = 1.944077 g / cm^3
# Si number density = 19.485122 Si / 1000 Ang^3
#
#
#
# Elastic Constant Matrix: (Units=GPa)
#
#
# Indices 1 2 3 4 5 6 
#
# 1 35.4145 15.2167 4.2562 0.0000 0.0000 0.0000
# 2 15.2167 47.4336 13.5042 0.0000 0.0000 0.0000
# 3 4.2562 13.5042 20.6206 0.0000 0.0000 0.0000
# 4 0.0000 0.0000 0.0000 20.6141 0.0000 0.0000
# 5 0.0000 0.0000 0.0000 0.0000 20.0978 0.0000
# 6 0.0000 0.0000 0.0000 0.0000 0.0000 24.8598
#
#
#
# Elastic Compliance Matrix: (Units=1/GPa)
#
#
# Indices 1 2 3 4 5 6 
#
# 1 0.032752 -0.010549 0.000148 0.000000 0.000000 0.000000
# 2 -0.010549 0.029311 -0.017018 0.000000 0.000000 0.000000
# 3 0.000148 -0.017018 0.059610 0.000000 0.000000 0.000000
# 4 0.000000 0.000000 0.000000 0.048510 0.000000 0.000000
# 5 0.000000 0.000000 0.000000 0.000000 0.049757 0.000000
# 6 0.000000 0.000000 0.000000 0.000000 0.000000 0.040226
#
#
# Mechanical properties :
#
#
# Convention : Reuss Voigt Hill
#
# Bulk Modulus (GPa) = 14.96228 18.82477 16.89352
# Shear Modulus (GPa) = 14.82441 17.81378 16.31910
#
# Velocity S-wave (km/s) = 2.76127 3.02689 2.89713
# Velocity P-wave (km/s) = 4.22630 4.67955 4.45869
#
# Compressibility (1/GPa) = 0.06683472
#
# Stress axis : x y z
#
# Youngs Moduli (GPa) = 30.53266 34.11663 16.77584
#
# Poissons Ratio (x) = 0.35990 -0.00249
# Poissons Ratio (y) = 0.32209 0.28549
# Poissons Ratio (z) = -0.00453 0.58060
#
# Static dielectric constant tensor:
#      x y z
#    x 1.714020 0.000000 0.000000 
#    y 0.000000 1.723880 0.000000 
#    z 0.000000 0.000000 1.674470 
# 
# From -- ./inp_files/12432.got.cif
#   From: 2010.05.17/outbox.cif.g08.bks.cpg/sg40_7_cif.got.tgz:12432.got - 2010.06.03 18:35:42.
