data_PCOD9363336
_publ_section_title
;
Structure prediction by ZEFSAII (Michael W. Deem and Ramdas Pophale) SiO2 
 PCOD9363336
Probable space group: A M A 2
;
_chemical_formula_sum "Si O2"
_cell_formula_units_Z 36
_cell_length_a 16.539579
_cell_length_b 7.972989
_cell_length_c 13.370261
_cell_angle_alpha 90.000000
_cell_angle_beta 90.000000
_cell_angle_gamma 90.000000
_cell_volume 1763.134733
_symmetry_space_group_name_H-M "A M A 2"
_symmetry_group_IT_number 40
_symmetry_cell_setting 'orthorhombic'
loop_
_space_group_symop_operation_xyz
x,y,z
-x,-y,z
1/2-x,y,z
1/2+x,-y,z
x,1/2+y,1/2+z
-x,1/2-y,1/2+z
1/2-x,1/2+y,1/2+z
1/2+x,1/2-y,1/2+z
loop_
_atom_site_type_symbol
_atom_site_label
_atom_site_fract_x
_atom_site_fract_y
_atom_site_fract_z
Si Si1 0.005495 0.814242 0.697250
Si Si2 0.659808 0.816124 0.084944
Si Si3 0.000000 0.000000 0.347352
Si Si4 0.662675 0.128720 0.389337
Si Si5 0.839095 0.700532 0.652722
O O1 0.923430 0.792788 0.631820
O O2 0.087317 0.785338 0.635408
O O3 0.006364 0.664872 0.778099
O O4 0.000000 0.000000 0.741918
O O5 0.750000 0.763341 0.120039
O O6 0.652123 0.011560 0.111464
O O7 0.656813 0.781236 0.966790
O O8 0.916158 0.016519 0.405470
O O9 0.750000 0.044522 0.406885
O O10 0.662924 0.186156 0.273989
O O11 0.750000 0.766053 0.621379
#
# Coordination Sequence:
#
# PCOD9363336 Si02
#       5
#     8   8   4   8   8
#     4  11  21  35  59  89 117 162 210 249 320 382
#     4  10  19  34  59  87 119 163 211 261 315 377
#     4  10  20  40  60  84 124 162 200 264 320 360
#     4   9  18  33  59  86 114 161 207 251 313 372
#     4   9  18  38  61  84 121 163 207 261 319 374
#
# _framework density 20.41818
#
# number of rings (size 3 to 8) (size 9 to 14) (size 15 to 20)
#    0.000    2.222    4.444    0.000    1.556    0.889 
#    0.000    8.889    0.000    0.000    0.000    0.000 
#    0.000    0.000    0.000    0.000    0.000    0.000 
#
# Total GULP energy -100256.428205 kJ/mol
# GULP energy per Si atom -5569.801567 kJ/mol
# Density = 2.037171 g / cm^3
# Si number density = 20.418180 Si / 1000 Ang^3
#
#
#
# Elastic Constant Matrix: (Units=GPa)
#
#
# Indices 1 2 3 4 5 6 
#
# 1 199.5424 37.5168 22.7372 0.0000 0.0000 0.0000
# 2 37.5168 103.1173 36.5402 0.0000 0.0000 0.0000
# 3 22.7372 36.5402 66.6489 0.0000 0.0000 0.0000
# 4 0.0000 0.0000 0.0000 23.8112 0.0000 0.0000
# 5 0.0000 0.0000 0.0000 0.0000 25.3979 0.0000
# 6 0.0000 0.0000 0.0000 0.0000 0.0000 73.2357
#
#
#
# Elastic Compliance Matrix: (Units=1/GPa)
#
#
# Indices 1 2 3 4 5 6 
#
# 1 0.005428 -0.001637 -0.000954 0.000000 0.000000 0.000000
# 2 -0.001637 0.012529 -0.006311 0.000000 0.000000 0.000000
# 3 -0.000954 -0.006311 0.018790 0.000000 0.000000 0.000000
# 4 0.000000 0.000000 0.000000 0.041997 0.000000 0.000000
# 5 0.000000 0.000000 0.000000 0.000000 0.039373 0.000000
# 6 0.000000 0.000000 0.000000 0.000000 0.000000 0.013655
#
#
# Mechanical properties :
#
#
# Convention : Reuss Voigt Hill
#
# Bulk Modulus (GPa) = 52.79009 62.54412 57.66711
# Shear Modulus (GPa) = 32.07386 42.65659 37.36522
#
# Velocity S-wave (km/s) = 3.96769 4.57568 4.28249
# Velocity P-wave (km/s) = 6.84841 7.65597 7.26342
#
# Compressibility (1/GPa) = 0.01894295
#
# Stress axis : x y z
#
# Youngs Moduli (GPa) = 184.23229 79.81204 53.22103
#
# Poissons Ratio (x) = 0.13062 0.05080
# Poissons Ratio (y) = 0.30152 0.33587
# Poissons Ratio (z) = 0.17584 0.50369
#
# Static dielectric constant tensor:
#      x y z
#    x 1.829460 0.000000 0.000000 
#    y 0.000000 1.692700 0.000000 
#    z 0.000000 0.000000 1.724210 
# 
# From -- ./inp_files/17424.got.cif
#   From: 2010.05.17/outbox.cif.g08.bks.cpg/sg40_9_cif.got.tgz:17424.got - 2010.06.03 18:35:42.
