data_PCOD9363089
_publ_section_title
;
Structure prediction by ZEFSAII (Michael W. Deem and Ramdas Pophale) SiO2 
 PCOD9363089
Probable space group: A M A 2
;
_chemical_formula_sum "Si O2"
_cell_formula_units_Z 64
_cell_length_a 8.926291
_cell_length_b 33.432570
_cell_length_c 12.029973
_cell_angle_alpha 90.000000
_cell_angle_beta 90.000000
_cell_angle_gamma 90.000000
_cell_volume 3590.090992
_symmetry_space_group_name_H-M "A M A 2"
_symmetry_group_IT_number 40
_symmetry_cell_setting 'orthorhombic'
loop_
_space_group_symop_operation_xyz
x,y,z
-x,-y,z
1/2-x,y,z
1/2+x,-y,z
x,1/2+y,1/2+z
-x,1/2-y,1/2+z
1/2-x,1/2+y,1/2+z
1/2+x,1/2-y,1/2+z
loop_
_atom_site_type_symbol
_atom_site_label
_atom_site_fract_x
_atom_site_fract_y
_atom_site_fract_z
Si Si1 0.067674 0.123818 0.290130
Si Si2 0.429367 0.226148 0.668947
Si Si3 0.430050 0.689217 0.606527
Si Si4 0.069482 0.144769 0.539777
Si Si5 0.930531 0.456193 0.668609
Si Si6 0.071216 0.543449 0.413810
Si Si7 0.079300 0.314911 0.371490
Si Si8 0.079975 0.398257 0.239270
O O1 0.250000 0.123336 0.290542
O O2 0.022760 0.157093 0.199810
O O3 0.019823 0.136411 0.413781
O O4 0.019828 0.079626 0.249822
O O5 0.250000 0.230485 0.667725
O O6 0.508738 0.266888 0.634459
O O7 0.469287 0.189057 0.586641
O O8 0.486960 0.214384 0.791443
O O9 0.250000 0.689464 0.601634
O O10 0.498133 0.678382 0.487559
O O11 0.250000 0.141941 0.544545
O O12 0.999872 0.112497 0.623855
O O13 0.750000 0.459766 0.675605
O O14 0.967018 0.443868 0.540832
O O15 0.000000 0.500000 0.689742
O O16 0.250000 0.541551 0.406566
O O17 0.000000 0.500000 0.399525
O O18 0.008008 0.571789 0.318673
O O19 0.250000 0.300283 0.388014
O O20 0.085182 0.356563 0.306049
O O21 0.250000 0.412213 0.221087
#
# Coordination Sequence:
#
# PCOD9363089 Si02
#       8
#     8   8   8   8   8   8   8   8
#     4   9  19  36  57  81 108 147 189 227 274 338
#     4  10  21  36  55  80 108 143 186 231 283 337
#     4  11  22  35  56  83 111 143 183 233 284 337
#     4   9  19  37  58  76 104 148 189 225 272 335
#     4   9  18  34  56  82 112 143 181 224 275 330
#     4  10  19  32  54  83 113 144 177 224 277 335
#     4  10  21  37  55  76 106 142 182 228 276 329
#     4  10  20  35  55  79 107 140 180 228 276 325
#
# _framework density 17.826844999999999
#
# number of rings (size 3 to 8) (size 9 to 14) (size 15 to 20)
#    0.000    2.250    0.000    2.625    1.750    3.500 
#    0.000    3.750    0.000    1.500    0.000    0.000 
#    0.000    0.000    0.000    0.000    0.000    0.000 
#
# Total GULP energy -178548.259875 kJ/mol
# GULP energy per Si atom -5579.633121 kJ/mol
# Density = 1.778627 g / cm^3
# Si number density = 17.826845 Si / 1000 Ang^3
#
#
#
# Elastic Constant Matrix: (Units=GPa)
#
#
# Indices 1 2 3 4 5 6 
#
# 1 53.5190 30.3270 44.9811 0.0000 0.0000 0.0000
# 2 30.3270 77.5782 65.9158 0.0000 0.0000 0.0000
# 3 44.9811 65.9158 159.5977 0.0000 0.0000 0.0000
# 4 0.0000 0.0000 0.0000 4.1461 0.0000 0.0000
# 5 0.0000 0.0000 0.0000 0.0000 24.7479 0.0000
# 6 0.0000 0.0000 0.0000 0.0000 0.0000 29.1454
#
#
#
# Elastic Compliance Matrix: (Units=1/GPa)
#
#
# Indices 1 2 3 4 5 6 
#
# 1 0.026247 -0.006124 -0.004868 0.000000 0.000000 0.000000
# 2 -0.006124 0.021288 -0.007066 0.000000 0.000000 0.000000
# 3 -0.004868 -0.007066 0.010556 0.000000 0.000000 0.000000
# 4 0.000000 0.000000 0.000000 0.241193 0.000000 0.000000
# 5 0.000000 0.000000 0.000000 0.000000 0.040407 0.000000
# 6 0.000000 0.000000 0.000000 0.000000 0.000000 0.034311
#
#
# Mechanical properties :
#
#
# Convention : Reuss Voigt Hill
#
# Bulk Modulus (GPa) = 45.50786 63.68254 54.59520
# Shear Modulus (GPa) = 11.97764 21.57259 16.77512
#
# Velocity S-wave (km/s) = 2.59489 3.48245 3.07091
# Velocity P-wave (km/s) = 5.87887 7.20904 6.57767
#
# Compressibility (1/GPa) = 0.02197423
#
# Stress axis : x y z
#
# Youngs Moduli (GPa) = 38.10002 46.97412 94.73083
#
# Poissons Ratio (x) = 0.28768 0.46115
# Poissons Ratio (y) = 0.23333 0.66940
# Poissons Ratio (z) = 0.18547 0.33193
#
# Static dielectric constant tensor:
#      x y z
#    x 1.605400 0.000000 0.000000 
#    y 0.000000 1.617050 0.000000 
#    z 0.000000 0.000000 1.603730 
# 
# From -- ./inp_files/10594.got.cif
#   From: 2010.05.17/outbox.cif.g08.bks.cpg/sg40_6_cif.got.tgz:10594.got - 2010.06.03 18:35:42.
