data_PCOD9363975
_publ_section_title
;
Structure prediction by ZEFSAII (Michael W. Deem and Ramdas Pophale) SiO2 
 PCOD9363975
Probable space group: A M A 2
;
_chemical_formula_sum "Si O2"
_cell_formula_units_Z 48
_cell_length_a 8.590493
_cell_length_b 9.295464
_cell_length_c 31.535903
_cell_angle_alpha 90.000000
_cell_angle_beta 90.000000
_cell_angle_gamma 90.000000
_cell_volume 2518.224429
_symmetry_space_group_name_H-M "A M A 2"
_symmetry_group_IT_number 40
_symmetry_cell_setting 'orthorhombic'
loop_
_space_group_symop_operation_xyz
x,y,z
-x,-y,z
1/2-x,y,z
1/2+x,-y,z
x,1/2+y,1/2+z
-x,1/2-y,1/2+z
1/2-x,1/2+y,1/2+z
1/2+x,1/2-y,1/2+z
loop_
_atom_site_type_symbol
_atom_site_label
_atom_site_fract_x
_atom_site_fract_y
_atom_site_fract_z
Si Si1 0.436234 0.161742 0.650190
Si Si2 0.562152 0.339127 0.475444
Si Si3 0.562623 0.838100 0.809090
Si Si4 0.063897 0.161320 0.229084
Si Si5 0.562533 0.660622 0.057998
Si Si6 0.937790 0.161425 0.393002
O O1 0.250000 0.158736 0.651363
O O2 0.501446 0.266062 0.686126
O O3 0.494035 0.205818 0.603400
O O4 0.500000 0.000000 0.657575
O O5 0.500000 0.500000 0.472128
O O6 0.750000 0.343094 0.474495
O O7 0.515799 0.264291 0.519585
O O8 0.509378 0.243071 0.435566
O O9 0.750000 0.840383 0.806628
O O10 0.496117 0.755864 0.768397
O O11 0.515903 0.752002 0.851540
O O12 0.500000 0.000000 0.810581
O O13 0.250000 0.159476 0.228754
O O14 0.000000 0.000000 0.233119
O O15 0.500000 0.500000 0.049415
O O16 0.750000 0.655864 0.060818
O O17 0.750000 0.155948 0.393705
O O18 0.000000 0.000000 0.391197
#
# Coordination Sequence:
#
# PCOD9363975 Si02
#       6
#     8   8   8   8   8   8
#     4  11  22  39  62  88 118 154 196 241 293 348
#     4  10  22  38  57  84 117 153 194 239 287 343
#     4  11  23  40  62  89 120 155 196 240 290 345
#     4  12  25  42  62  87 119 154 195 241 292 348
#     4  10  20  36  58  85 116 151 195 242 290 345
#     4  10  22  39  60  87 118 153 194 239 288 343
#
# _framework density 19.061050000000002
#
# number of rings (size 3 to 8) (size 9 to 14) (size 15 to 20)
#    0.000    1.333    0.000    7.000    0.000    5.333 
#    0.000    1.667    0.000    0.000    0.000    0.000 
#    0.000    0.000    0.000    0.000    0.000    0.000 
#
# Total GULP energy -134245.447835 kJ/mol
# GULP energy per Si atom -5593.560326 kJ/mol
# Density = 1.901767 g / cm^3
# Si number density = 19.061050 Si / 1000 Ang^3
#
#
#
# Elastic Constant Matrix: (Units=GPa)
#
#
# Indices 1 2 3 4 5 6 
#
# 1 99.9379 56.8436 63.0124 0.0000 0.0000 0.0000
# 2 56.8436 188.2365 137.8114 0.0000 0.0000 0.0000
# 3 63.0124 137.8114 182.8018 0.0000 0.0000 0.0000
# 4 0.0000 0.0000 0.0000 42.1757 0.0000 0.0000
# 5 0.0000 0.0000 0.0000 0.0000 30.7132 0.0000
# 6 0.0000 0.0000 0.0000 0.0000 0.0000 39.4499
#
#
#
# Elastic Compliance Matrix: (Units=1/GPa)
#
#
# Indices 1 2 3 4 5 6 
#
# 1 0.012956 -0.001435 -0.003384 0.000000 0.000000 0.000000
# 2 -0.001435 0.012015 -0.008564 0.000000 0.000000 0.000000
# 3 -0.003384 -0.008564 0.013093 0.000000 0.000000 0.000000
# 4 0.000000 0.000000 0.000000 0.023710 0.000000 0.000000
# 5 0.000000 0.000000 0.000000 0.000000 0.032559 0.000000
# 6 0.000000 0.000000 0.000000 0.000000 0.000000 0.025349
#
#
# Mechanical properties :
#
#
# Convention : Reuss Voigt Hill
#
# Bulk Modulus (GPa) = 88.50336 109.59013 99.04674
# Shear Modulus (GPa) = 33.28576 36.68836 34.98706
#
# Velocity S-wave (km/s) = 4.18337 4.39199 4.28895
# Velocity P-wave (km/s) = 8.35862 9.12900 8.75229
#
# Compressibility (1/GPa) = 0.01129901
#
# Stress axis : x y z
#
# Youngs Moduli (GPa) = 77.18310 83.22754 76.37686
#
# Poissons Ratio (x) = 0.11941 0.25849
# Poissons Ratio (y) = 0.11073 0.65406
# Poissons Ratio (z) = 0.26122 0.71272
#
# Static dielectric constant tensor:
#      x y z
#    x 1.645720 0.000000 0.000000 
#    y 0.000000 1.615030 0.000000 
#    z 0.000000 0.000000 1.650770 
# 
# From -- ./inp_files/26129.got.cif
#   From: 2010.05.17/outbox.cif.g08.bks.cpg/sg40_14_cif.got.tgz:26129.got - 2010.06.03 18:35:42.
