data_PCOD9363907
_publ_section_title
;
Structure prediction by ZEFSAII (Michael W. Deem and Ramdas Pophale) SiO2 
 PCOD9363907
Probable space group: A M A 2
;
_chemical_formula_sum "Si O2"
_cell_formula_units_Z 64
_cell_length_a 16.362469
_cell_length_b 16.888812
_cell_length_c 12.071701
_cell_angle_alpha 90.000000
_cell_angle_beta 90.000000
_cell_angle_gamma 90.000000
_cell_volume 3335.925999
_symmetry_space_group_name_H-M "A M A 2"
_symmetry_group_IT_number 40
_symmetry_cell_setting 'orthorhombic'
loop_
_space_group_symop_operation_xyz
x,y,z
-x,-y,z
1/2-x,y,z
1/2+x,-y,z
x,1/2+y,1/2+z
-x,1/2-y,1/2+z
1/2-x,1/2+y,1/2+z
1/2+x,1/2-y,1/2+z
loop_
_atom_site_type_symbol
_atom_site_label
_atom_site_fract_x
_atom_site_fract_y
_atom_site_fract_z
Si Si1 0.156869 0.108452 0.113360
Si Si2 0.082541 0.790685 0.990690
Si Si3 0.848135 0.571584 0.632933
Si Si4 0.411376 0.877843 0.375365
Si Si5 0.343449 0.526738 0.991688
Si Si6 0.895514 0.298173 0.409741
Si Si7 0.650646 0.337483 0.160762
Si Si8 0.399947 0.661241 0.834145
O O1 0.250000 0.106046 0.153336
O O2 0.107373 0.158211 0.203252
O O3 0.125597 0.018720 0.112586
O O4 0.153594 0.148686 0.995099
O O5 0.123477 0.745458 0.886527
O O6 0.989002 0.802505 0.953662
O O7 0.118430 0.871642 0.037110
O O8 0.101384 0.727752 0.089111
O O9 0.750000 0.575917 0.633274
O O10 0.879655 0.598256 0.753588
O O11 0.371318 0.794601 0.410597
O O12 0.507173 0.858956 0.366630
O O13 0.395755 0.950576 0.458036
O O14 0.250000 0.500078 0.001377
O O15 0.364869 0.578182 0.100542
O O16 0.349569 0.590751 0.891825
O O17 0.880711 0.329624 0.285767
O O18 0.750000 0.323377 0.155511
#
# Coordination Sequence:
#
# PCOD9363907 Si02
#       8
#     8   8   8   8   8   8   8   8
#     4  11  24  39  60  90 127 163 204 257 318 375
#     4  10  22  38  64  90 123 160 210 260 308 371
#     4  11  22  38  63  91 119 157 212 260 305 371
#     4  11  21  36  62  93 117 157 207 262 300 361
#     4  10  20  35  60  92 120 156 204 252 302 363
#     4  11  24  39  63  91 126 164 208 254 315 378
#     4  10  21  40  64  91 126 168 207 252 316 379
#     4  10  21  37  60  89 127 160 198 254 319 367
#
# _framework density 19.185078000000001
#
# number of rings (size 3 to 8) (size 9 to 14) (size 15 to 20)
#    0.000    1.500    2.500    2.625    1.750    4.500 
#    0.000    1.250    8.250    0.000    0.000    0.000 
#    0.000    0.000    0.000    0.000    0.000    0.000 
#
# Total GULP energy -178617.510437 kJ/mol
# GULP energy per Si atom -5581.797201 kJ/mol
# Density = 1.914141 g / cm^3
# Si number density = 19.185078 Si / 1000 Ang^3
#
#
#
# Elastic Constant Matrix: (Units=GPa)
#
#
# Indices 1 2 3 4 5 6 
#
# 1 60.0157 18.4806 32.5183 0.0000 0.0000 0.0000
# 2 18.4806 99.6677 59.6546 0.0000 0.0000 0.0000
# 3 32.5183 59.6546 128.4415 0.0000 0.0000 0.0000
# 4 0.0000 0.0000 0.0000 30.6004 0.0000 0.0000
# 5 0.0000 0.0000 0.0000 0.0000 19.9467 0.0000
# 6 0.0000 0.0000 0.0000 0.0000 0.0000 16.9816
#
#
#
# Elastic Compliance Matrix: (Units=1/GPa)
#
#
# Indices 1 2 3 4 5 6 
#
# 1 0.019371 -0.000909 -0.004482 0.000000 0.000000 0.000000
# 2 -0.000909 0.013939 -0.006244 0.000000 0.000000 0.000000
# 3 -0.004482 -0.006244 0.011820 0.000000 0.000000 0.000000
# 4 0.000000 0.000000 0.000000 0.032679 0.000000 0.000000
# 5 0.000000 0.000000 0.000000 0.000000 0.050134 0.000000
# 6 0.000000 0.000000 0.000000 0.000000 0.000000 0.058887
#
#
# Mechanical properties :
#
#
# Convention : Reuss Voigt Hill
#
# Bulk Modulus (GPa) = 45.74513 56.60353 51.17433
# Shear Modulus (GPa) = 23.00050 25.33718 24.16884
#
# Velocity S-wave (km/s) = 3.46623 3.63805 3.55318
# Velocity P-wave (km/s) = 6.31788 6.87133 6.60041
#
# Compressibility (1/GPa) = 0.02186025
#
# Stress axis : x y z
#
# Youngs Moduli (GPa) = 51.62434 71.74086 84.60023
#
# Poissons Ratio (x) = 0.06522 0.37917
# Poissons Ratio (y) = 0.04693 0.52823
# Poissons Ratio (z) = 0.23138 0.44794
#
# Static dielectric constant tensor:
#      x y z
#    x 1.710470 0.000000 0.000000 
#    y 0.000000 1.678140 0.000000 
#    z 0.000000 0.000000 1.652520 
# 
# From -- ./inp_files/12481.got.cif
#   From: 2010.05.17/outbox.cif.g08.bks.cpg/sg40_7_cif.got.tgz:12481.got - 2010.06.03 18:35:42.
