data_PCOD9363751
_publ_section_title
;
Structure prediction by ZEFSAII (Michael W. Deem and Ramdas Pophale) SiO2 
 PCOD9363751
Probable space group: A M A 2
;
_chemical_formula_sum "Si O2"
_cell_formula_units_Z 56
_cell_length_a 8.907968
_cell_length_b 14.880988
_cell_length_c 21.278558
_cell_angle_alpha 90.000000
_cell_angle_beta 90.000000
_cell_angle_gamma 90.000000
_cell_volume 2820.672135
_symmetry_space_group_name_H-M "A M A 2"
_symmetry_group_IT_number 40
_symmetry_cell_setting 'orthorhombic'
loop_
_space_group_symop_operation_xyz
x,y,z
-x,-y,z
1/2-x,y,z
1/2+x,-y,z
x,1/2+y,1/2+z
-x,1/2-y,1/2+z
1/2-x,1/2+y,1/2+z
1/2+x,1/2-y,1/2+z
loop_
_atom_site_type_symbol
_atom_site_label
_atom_site_fract_x
_atom_site_fract_y
_atom_site_fract_z
Si Si1 0.574072 0.720604 0.726840
Si Si2 0.070163 0.408938 0.487868
Si Si3 0.427197 0.405420 0.214414
Si Si4 0.928773 0.788985 0.460248
Si Si5 0.425776 0.403188 0.849282
Si Si6 0.929876 0.406739 0.626952
Si Si7 0.073052 0.405217 0.063624
O O1 0.750000 0.727522 0.710127
O O2 0.508389 0.818412 0.742023
O O3 0.558544 0.655169 0.786250
O O4 0.483126 0.675196 0.669953
O O5 0.250000 0.418609 0.493979
O O6 0.036808 0.316525 0.452044
O O7 0.000000 0.500000 0.460273
O O8 0.997755 0.398375 0.557132
O O9 0.500000 0.500000 0.233749
O O10 0.250000 0.404812 0.227733
O O11 0.447233 0.397519 0.138583
O O12 0.750000 0.799125 0.461694
O O13 0.997990 0.849146 0.405734
O O14 0.995619 0.825492 0.525620
O O15 0.500000 0.500000 0.841567
O O16 0.250000 0.414548 0.863032
O O17 0.750000 0.412432 0.624710
O O18 0.000000 0.500000 0.652987
O O19 0.250000 0.406236 0.050308
O O20 0.000000 0.500000 0.043596
#
# Coordination Sequence:
#
# PCOD9363751 Si02
#       7
#     8   8   8   8   8   8   8
#     4  11  23  39  59  84 114 151 193 237 285 338
#     4  10  21  37  58  85 116 150 187 232 282 335
#     4  10  21  37  59  87 118 153 190 234 284 336
#     4  11  23  38  58  83 113 150 190 233 282 334
#     4  11  25  43  63  85 112 147 187 233 282 333
#     4  11  21  34  56  86 119 154 189 232 285 341
#     4  10  20  34  55  84 117 151 187 229 280 335
#
# _framework density 19.853424
#
# number of rings (size 3 to 8) (size 9 to 14) (size 15 to 20)
#    0.000    1.429    0.000    6.429    0.000    9.714 
#    0.000    0.714    0.000    1.714    0.000    0.000 
#    0.000    0.000    0.000    0.000    0.000    0.000 
#
# Total GULP energy -156600.429751 kJ/mol
# GULP energy per Si atom -5592.872491 kJ/mol
# Density = 1.980824 g / cm^3
# Si number density = 19.853424 Si / 1000 Ang^3
#
#
#
# Elastic Constant Matrix: (Units=GPa)
#
#
# Indices 1 2 3 4 5 6 
#
# 1 131.0591 87.1140 31.2875 0.0000 0.0000 0.0000
# 2 87.1140 181.4462 22.8922 0.0000 0.0000 0.0000
# 3 31.2875 22.8922 14.0026 0.0000 0.0000 0.0000
# 4 0.0000 0.0000 0.0000 20.6716 0.0000 0.0000
# 5 0.0000 0.0000 0.0000 0.0000 -27.9540 0.0000
# 6 0.0000 0.0000 0.0000 0.0000 0.0000 38.8726
#
#
#
# Elastic Compliance Matrix: (Units=1/GPa)
#
#
# Indices 1 2 3 4 5 6 
#
# 1 0.019168 -0.004787 -0.035004 0.000000 0.000000 0.000000
# 2 -0.004787 0.008139 -0.002611 0.000000 0.000000 0.000000
# 3 -0.035004 -0.002611 0.153897 0.000000 0.000000 0.000000
# 4 0.000000 0.000000 0.000000 0.048375 0.000000 0.000000
# 5 0.000000 0.000000 0.000000 0.000000 -0.035773 0.000000
# 6 0.000000 0.000000 0.000000 0.000000 0.000000 0.025725
#
#
# Mechanical properties :
#
#
# Convention : Reuss Voigt Hill
#
# Bulk Modulus (GPa) = 10.37334 67.67726 39.02530
# Shear Modulus (GPa) = 14.86026 18.66566 16.76296
#
# Velocity S-wave (km/s) = 2.73884 3.06955 2.90890
# Velocity P-wave (km/s) = 3.90358 6.83559 5.56612
#
# Compressibility (1/GPa) = 0.09640097
#
# Stress axis : x y z
#
# Youngs Moduli (GPa) = 52.16963 122.87002 6.49786
#
# Poissons Ratio (x) = 0.58812 0.22745
# Poissons Ratio (y) = 0.24971 0.01696
# Poissons Ratio (z) = 1.82616 0.32076
#
# Static dielectric constant tensor:
#      x y z
#    x 1.660170 0.000000 0.000000 
#    y 0.000000 1.709240 0.000000 
#    z 0.000000 0.000000 1.684150 
# 
# From -- ./inp_files/22212.got.cif
#   From: 2010.05.17/outbox.cif.g08.bks.cpg/sg40_12_cif.got.tgz:22212.got - 2010.06.03 18:35:42.
