data_PCOD9363301
_publ_section_title
;
Structure prediction by ZEFSAII (Michael W. Deem and Ramdas Pophale) SiO2 
 PCOD9363301
Probable space group: A M A 2
;
_chemical_formula_sum "Si O2"
_cell_formula_units_Z 64
_cell_length_a 8.595533
_cell_length_b 21.277875
_cell_length_c 20.189731
_cell_angle_alpha 90.000000
_cell_angle_beta 90.000000
_cell_angle_gamma 90.000000
_cell_volume 3692.594325
_symmetry_space_group_name_H-M "A M A 2"
_symmetry_group_IT_number 40
_symmetry_cell_setting 'orthorhombic'
loop_
_space_group_symop_operation_xyz
x,y,z
-x,-y,z
1/2-x,y,z
1/2+x,-y,z
x,1/2+y,1/2+z
-x,1/2-y,1/2+z
1/2-x,1/2+y,1/2+z
1/2+x,1/2-y,1/2+z
loop_
_atom_site_type_symbol
_atom_site_label
_atom_site_fract_x
_atom_site_fract_y
_atom_site_fract_z
Si Si1 0.436505 0.765381 0.897960
Si Si2 0.937267 0.812308 0.032192
Si Si3 0.061565 0.759529 0.750144
Si Si4 0.563368 0.433176 0.615816
Si Si5 0.436554 0.933193 0.530397
Si Si6 0.435257 0.382053 0.751400
Si Si7 0.939364 0.688293 0.111764
Si Si8 0.063533 0.117660 0.394634
O O1 0.250000 0.769053 0.903308
O O2 0.481455 0.783960 0.823087
O O3 0.479931 0.691468 0.904652
O O4 0.509971 0.805029 0.956748
O O5 0.750000 0.811963 0.034437
O O6 0.990017 0.875101 0.069766
O O7 0.991960 0.749971 0.071397
O O8 0.250000 0.752018 0.749085
O O9 0.015433 0.802314 0.688182
O O10 0.990544 0.690182 0.742071
O O11 0.500000 0.500000 0.592316
O O12 0.750000 0.433870 0.616408
O O13 0.503917 0.420463 0.690134
O O14 0.250000 0.933977 0.530235
O O15 0.491662 0.875203 0.576097
O O16 0.495626 0.920226 0.456056
O O17 0.500000 0.000000 0.553636
O O18 0.250000 0.385587 0.751020
O O19 0.498976 0.402395 0.823195
O O20 0.750000 0.688075 0.109815
O O21 0.250000 0.113543 0.393849
#
# Coordination Sequence:
#
# PCOD9363301 Si02
#       8
#     8   8   8   8   8   8   8   8
#     4   9  18  30  52  82 110 135 170 223 267 309
#     4  10  19  34  57  79 105 141 177 217 263 317
#     4   9  17  34  55  79 108 141 179 220 269 314
#     4  11  23  39  56  77 107 143 179 220 268 319
#     4  11  22  36  54  78 108 143 181 222 268 319
#     4  11  21  33  52  80 110 143 179 218 262 315
#     4   9  17  33  57  79 103 140 180 219 265 317
#     4  10  20  35  53  76 108 146 182 219 260 312
#
# _framework density 17.331987999999999
#
# number of rings (size 3 to 8) (size 9 to 14) (size 15 to 20)
#    0.000    2.000    2.500    3.000    0.000    3.500 
#    0.000    3.750    0.000    0.750    0.000    3.500 
#    0.000    0.000    0.000    0.000    0.000    0.000 
#
# Total GULP energy -178621.511084 kJ/mol
# GULP energy per Si atom -5581.922221 kJ/mol
# Density = 1.729254 g / cm^3
# Si number density = 17.331988 Si / 1000 Ang^3
#
#
#
# Elastic Constant Matrix: (Units=GPa)
#
#
# Indices 1 2 3 4 5 6 
#
# 1 39.9656 27.3568 22.5677 0.0000 0.0000 0.0000
# 2 27.3568 120.9790 72.0821 0.0000 0.0000 0.0000
# 3 22.5677 72.0821 120.3894 0.0000 0.0000 0.0000
# 4 0.0000 0.0000 0.0000 22.5297 0.0000 0.0000
# 5 0.0000 0.0000 0.0000 0.0000 24.1436 0.0000
# 6 0.0000 0.0000 0.0000 0.0000 0.0000 28.9560
#
#
#
# Elastic Compliance Matrix: (Units=1/GPa)
#
#
# Indices 1 2 3 4 5 6 
#
# 1 0.030055 -0.005347 -0.002433 0.000000 0.000000 0.000000
# 2 -0.005347 0.013801 -0.007261 0.000000 0.000000 0.000000
# 3 -0.002433 -0.007261 0.013110 0.000000 0.000000 0.000000
# 4 0.000000 0.000000 0.000000 0.044386 0.000000 0.000000
# 5 0.000000 0.000000 0.000000 0.000000 0.041419 0.000000
# 6 0.000000 0.000000 0.000000 0.000000 0.000000 0.034535
#
#
# Mechanical properties :
#
#
# Convention : Reuss Voigt Hill
#
# Bulk Modulus (GPa) = 37.19525 58.37192 47.78358
# Shear Modulus (GPa) = 23.11077 25.74769 24.42923
#
# Velocity S-wave (km/s) = 3.65556 3.85848 3.75839
# Velocity P-wave (km/s) = 6.27093 7.32136 6.81641
#
# Compressibility (1/GPa) = 0.02688515
#
# Stress axis : x y z
#
# Youngs Moduli (GPa) = 33.27208 72.45674 76.27821
#
# Poissons Ratio (x) = 0.38742 0.18555
# Poissons Ratio (y) = 0.17790 0.55386
# Poissons Ratio (z) = 0.08094 0.52612
#
# Static dielectric constant tensor:
#      x y z
#    x 1.585770 0.000000 0.000000 
#    y 0.000000 1.586390 0.000000 
#    z 0.000000 0.000000 1.590040 
# 
# From -- ./inp_files/19639.got.cif
#   From: 2010.05.17/outbox.cif.g08.bks.cpg/sg40_10_cif.got.tgz:19639.got - 2010.06.03 18:35:42.
