data_PCOD9363001
_publ_section_title
;
Structure prediction by ZEFSAII (Michael W. Deem and Ramdas Pophale) SiO2 
 PCOD9363001
Probable space group: A M A 2
;
_chemical_formula_sum "Si O2"
_cell_formula_units_Z 56
_cell_length_a 8.573550
_cell_length_b 14.005030
_cell_length_c 30.287837
_cell_angle_alpha 90.000000
_cell_angle_beta 90.000000
_cell_angle_gamma 90.000000
_cell_volume 3636.746150
_symmetry_space_group_name_H-M "A M A 2"
_symmetry_group_IT_number 40
_symmetry_cell_setting 'orthorhombic'
loop_
_space_group_symop_operation_xyz
x,y,z
-x,-y,z
1/2-x,y,z
1/2+x,-y,z
x,1/2+y,1/2+z
-x,1/2-y,1/2+z
1/2-x,1/2+y,1/2+z
1/2+x,1/2-y,1/2+z
loop_
_atom_site_type_symbol
_atom_site_label
_atom_site_fract_x
_atom_site_fract_y
_atom_site_fract_z
Si Si1 0.437202 0.891523 0.863400
Si Si2 0.937429 0.895751 0.128578
Si Si3 0.939368 0.207118 0.677498
Si Si4 0.935864 0.891365 0.955706
Si Si5 0.062576 0.894838 0.587356
Si Si6 0.561400 0.108126 0.766325
Si Si7 0.063795 0.791995 0.042435
O O1 0.250000 0.892069 0.867397
O O2 0.509050 0.850734 0.908245
O O3 0.480807 0.852011 0.814989
O O4 0.500000 0.000000 0.862100
O O5 0.750000 0.896897 0.126498
O O6 0.986840 0.813592 0.163210
O O7 0.001017 0.861311 0.081168
O O8 0.000000 0.000000 0.139423
O O9 0.750000 0.206689 0.678650
O O10 0.985279 0.137762 0.637042
O O11 0.994927 0.169552 0.724693
O O12 0.750000 0.895389 0.957088
O O13 0.000000 0.000000 0.959689
O O14 0.000398 0.829606 0.996002
O O15 0.250000 0.893433 0.585363
O O16 0.996971 0.813304 0.555112
O O17 0.000000 0.000000 0.577931
O O18 0.750000 0.104061 0.765028
O O19 0.500000 0.000000 0.762230
O O20 0.250000 0.793444 0.042558
#
# Coordination Sequence:
#
# PCOD9363001 Si02
#       7
#     8   8   8   8   8   8   8
#     4   9  16  26  41  62  88 116 147 180 219 266
#     4  10  19  32  47  65  91 120 152 188 226 267
#     4   8  16  29  45  65  90 120 152 184 219 261
#     4  11  20  31  46  65  91 120 150 184 225 271
#     4  10  19  32  48  68  94 123 154 187 223 261
#     4   9  16  27  43  64  90 119 148 180 218 261
#     4  11  21  33  48  67  90 118 153 187 225 269
#
# _framework density 15.39838
#
# number of rings (size 3 to 8) (size 9 to 14) (size 15 to 20)
#    0.000    2.286    0.000    6.429    0.000    0.571 
#    0.000    3.571    0.000    0.000    0.000    1.000 
#    0.000    4.571    0.000    0.000    0.000    0.000 
#
# Total GULP energy -156097.032740 kJ/mol
# GULP energy per Si atom -5574.894026 kJ/mol
# Density = 1.536333 g / cm^3
# Si number density = 15.398380 Si / 1000 Ang^3
#
#
#
# Elastic Constant Matrix: (Units=GPa)
#
#
# Indices 1 2 3 4 5 6 
#
# 1 82.1184 31.3868 43.4165 0.0000 0.0000 0.0000
# 2 31.3868 92.5608 66.4042 0.0000 0.0000 0.0000
# 3 43.4165 66.4042 159.6072 0.0000 0.0000 0.0000
# 4 0.0000 0.0000 0.0000 23.5268 0.0000 0.0000
# 5 0.0000 0.0000 0.0000 0.0000 38.9024 0.0000
# 6 0.0000 0.0000 0.0000 0.0000 0.0000 20.6822
#
#
#
# Elastic Compliance Matrix: (Units=1/GPa)
#
#
# Indices 1 2 3 4 5 6 
#
# 1 0.014798 -0.003036 -0.002762 0.000000 0.000000 0.000000
# 2 -0.003036 0.016023 -0.005841 0.000000 0.000000 0.000000
# 3 -0.002762 -0.005841 0.009447 0.000000 0.000000 0.000000
# 4 0.000000 0.000000 0.000000 0.042505 0.000000 0.000000
# 5 0.000000 0.000000 0.000000 0.000000 0.025705 0.000000
# 6 0.000000 0.000000 0.000000 0.000000 0.000000 0.048351
#
#
# Mechanical properties :
#
#
# Convention : Reuss Voigt Hill
#
# Bulk Modulus (GPa) = 58.85722 68.52238 63.68980
# Shear Modulus (GPa) = 26.91482 29.49419 28.20450
#
# Velocity S-wave (km/s) = 4.18532 4.38129 4.28443
# Velocity P-wave (km/s) = 7.85251 8.37798 8.11950
#
# Compressibility (1/GPa) = 0.01699027
#
# Stress axis : x y z
#
# Youngs Moduli (GPa) = 67.57442 62.40875 105.85721
#
# Poissons Ratio (x) = 0.18950 0.29240
# Poissons Ratio (y) = 0.20519 0.61826
# Poissons Ratio (z) = 0.18665 0.36450
#
# Static dielectric constant tensor:
#      x y z
#    x 1.515340 0.000000 0.000000 
#    y 0.000000 1.480660 0.000000 
#    z 0.000000 0.000000 1.538850 
# 
# From -- ./inp_files/26410.got.cif
#   From: 2010.05.17/outbox.cif.g08.bks.cpg/sg40_14_cif.got.tgz:26410.got - 2010.06.03 18:35:42.
