data_PCOD9363620
_publ_section_title
;
Structure prediction by ZEFSAII (Michael W. Deem and Ramdas Pophale) SiO2 
 PCOD9363620
Probable space group: A M A 2
;
_chemical_formula_sum "Si O2"
_cell_formula_units_Z 56
_cell_length_a 8.230270
_cell_length_b 20.883696
_cell_length_c 15.840733
_cell_angle_alpha 90.000000
_cell_angle_beta 90.000000
_cell_angle_gamma 90.000000
_cell_volume 2722.680741
_symmetry_space_group_name_H-M "A M A 2"
_symmetry_group_IT_number 40
_symmetry_cell_setting 'orthorhombic'
loop_
_space_group_symop_operation_xyz
x,y,z
-x,-y,z
1/2-x,y,z
1/2+x,-y,z
x,1/2+y,1/2+z
-x,1/2-y,1/2+z
1/2-x,1/2+y,1/2+z
1/2+x,1/2-y,1/2+z
loop_
_atom_site_type_symbol
_atom_site_label
_atom_site_fract_x
_atom_site_fract_y
_atom_site_fract_z
Si Si1 0.943591 0.213804 0.819600
Si Si2 0.945886 0.571310 0.366848
Si Si3 0.938142 0.196475 0.476069
Si Si4 0.063110 0.879583 0.044943
Si Si5 0.944354 0.426425 0.888683
Si Si6 0.559874 0.244137 0.136024
Si Si7 0.940726 0.432102 0.707430
O O1 0.750000 0.215276 0.829649
O O2 0.995771 0.138301 0.822023
O O3 0.010883 0.254288 0.900051
O O4 0.986446 0.241115 0.727139
O O5 0.750000 0.569065 0.365066
O O6 0.004795 0.585339 0.463218
O O7 0.000000 0.500000 0.339649
O O8 0.750000 0.208168 0.494402
O O9 0.965700 0.123996 0.446796
O O10 0.038247 0.203962 0.562856
O O11 0.250000 0.863467 0.023227
O O12 0.983395 0.816505 0.085490
O O13 0.051324 0.923152 0.126575
O O14 0.750000 0.425305 0.900013
O O15 0.970304 0.394878 0.794188
O O16 0.000000 0.500000 0.902929
O O17 0.750000 0.230724 0.151009
O O18 0.750000 0.429084 0.686127
O O19 0.000000 0.500000 0.739560
#
# Coordination Sequence:
#
# PCOD9363620 Si02
#       7
#     8   8   8   8   8   8   8
#     4  11  23  43  65  92 130 170 215 270 328 386
#     4  10  22  40  61  87 124 168 211 265 324 383
#     4  12  24  40  64  94 125 165 212 259 317 386
#     4  10  20  36  56  83 118 156 196 251 317 376
#     4  10  21  38  59  85 121 162 204 256 316 376
#     4  11  23  41  64  92 124 160 209 266 324 385
#     4  10  20  32  50  79 114 153 193 237 293 360
#
# _framework density 20.567965999999998
#
# number of rings (size 3 to 8) (size 9 to 14) (size 15 to 20)
#    0.000    1.429    1.429    4.286    0.000    8.000 
#    0.000    0.714    0.000    1.714    0.000    0.000 
#    0.000    0.000    0.000    0.000    0.000    0.000 
#
# Total GULP energy -155902.710670 kJ/mol
# GULP energy per Si atom -5567.953952 kJ/mol
# Density = 2.052115 g / cm^3
# Si number density = 20.567966 Si / 1000 Ang^3
#
#
#
# Elastic Constant Matrix: (Units=GPa)
#
#
# Indices 1 2 3 4 5 6 
#
# 1 37.1532 7.7404 6.6657 0.0000 0.0000 0.0000
# 2 7.7404 103.8935 20.3375 0.0000 0.0000 0.0000
# 3 6.6657 20.3375 72.5233 0.0000 0.0000 0.0000
# 4 0.0000 0.0000 0.0000 58.9115 0.0000 0.0000
# 5 0.0000 0.0000 0.0000 0.0000 91.2032 0.0000
# 6 0.0000 0.0000 0.0000 0.0000 0.0000 28.2791
#
#
#
# Elastic Compliance Matrix: (Units=1/GPa)
#
#
# Indices 1 2 3 4 5 6 
#
# 1 0.027632 -0.001652 -0.002076 0.000000 0.000000 0.000000
# 2 -0.001652 0.010283 -0.002732 0.000000 0.000000 0.000000
# 3 -0.002076 -0.002732 0.014746 0.000000 0.000000 0.000000
# 4 0.000000 0.000000 0.000000 0.016975 0.000000 0.000000
# 5 0.000000 0.000000 0.000000 0.000000 0.010965 0.000000
# 6 0.000000 0.000000 0.000000 0.000000 0.000000 0.035362
#
#
# Mechanical properties :
#
#
# Convention : Reuss Voigt Hill
#
# Bulk Modulus (GPa) = 25.16349 31.45081 28.30715
# Shear Modulus (GPa) = 35.17918 47.60052 41.38985
#
# Velocity S-wave (km/s) = 4.14017 4.81594 4.49078
# Velocity P-wave (km/s) = 5.92584 6.80064 6.37826
#
# Compressibility (1/GPa) = 0.03974011
#
# Stress axis : x y z
#
# Youngs Moduli (GPa) = 36.18953 97.24698 67.81693
#
# Poissons Ratio (x) = 0.16068 0.14082
# Poissons Ratio (y) = 0.05979 0.18526
# Poissons Ratio (z) = 0.07514 0.26566
#
# Static dielectric constant tensor:
#      x y z
#    x 1.720660 0.000000 0.000000 
#    y 0.000000 1.299260 0.000000 
#    z 0.000000 0.000000 1.849300 
# 
# From -- ./inp_files/15266.got.cif
#   From: 2010.05.17/outbox.cif.g08.bks.cpg/sg40_8_cif.got.tgz:15266.got - 2010.06.03 18:35:42.
