data_PCOD9363349
_publ_section_title
;
Structure prediction by ZEFSAII (Michael W. Deem and Ramdas Pophale) SiO2 
 PCOD9363349
Probable space group: A M A 2
;
_chemical_formula_sum "Si O2"
_cell_formula_units_Z 56
_cell_length_a 14.474941
_cell_length_b 7.129811
_cell_length_c 23.382505
_cell_angle_alpha 90.000000
_cell_angle_beta 90.000000
_cell_angle_gamma 90.000000
_cell_volume 2413.158543
_symmetry_space_group_name_H-M "A M A 2"
_symmetry_group_IT_number 40
_symmetry_cell_setting 'orthorhombic'
loop_
_space_group_symop_operation_xyz
x,y,z
-x,-y,z
1/2-x,y,z
1/2+x,-y,z
x,1/2+y,1/2+z
-x,1/2-y,1/2+z
1/2-x,1/2+y,1/2+z
1/2+x,1/2-y,1/2+z
loop_
_atom_site_type_symbol
_atom_site_label
_atom_site_fract_x
_atom_site_fract_y
_atom_site_fract_z
Si Si1 0.356895 0.709472 0.586220
Si Si2 0.144418 0.465746 0.817441
Si Si3 0.573037 0.366556 0.469505
Si Si4 0.500000 0.500000 0.907155
Si Si5 0.146263 0.031337 0.851669
Si Si6 0.500000 0.500000 0.136963
Si Si7 0.642308 0.029992 0.726601
Si Si8 0.855078 0.469611 0.693873
O O1 0.250000 0.764753 0.601875
O O2 0.354503 0.670871 0.519018
O O3 0.383583 0.533026 0.627575
O O4 0.436820 0.863183 0.598840
O O5 0.250000 0.539296 0.814411
O O6 0.080005 0.569421 0.863146
O O7 0.149387 0.255397 0.841176
O O8 0.104674 0.452657 0.753078
O O9 0.500000 0.500000 0.499942
O O10 0.534858 0.169926 0.445953
O O11 0.602360 0.485085 0.413614
O O12 0.250000 0.957301 0.855109
O O13 0.106179 0.961583 0.791648
O O14 0.576650 0.418663 0.182371
O O15 0.750000 0.966009 0.727797
O O16 0.641769 0.244891 0.705912
O O17 0.750000 0.539726 0.693933
#
# Coordination Sequence:
#
# PCOD9363349 Si02
#       8
#     8   8   8   4   8   4   8   8
#     4  10  21  40  61  84 123 170 211 264 323 374
#     4   9  18  34  55  85 117 151 190 237 308 374
#     4  11  24  40  60  85 119 161 214 253 301 372
#     4  10  23  40  60  88 121 150 196 258 306 360
#     4   9  19  35  56  83 119 156 191 247 311 365
#     4  10  19  34  64  88 115 158 208 252 314 382
#     4   9  18  31  52  89 123 150 193 250 315 373
#     4   8  16  32  56  81 111 152 194 239 300 369
#
# _framework density 23.206099999999999
#
# number of rings (size 3 to 8) (size 9 to 14) (size 15 to 20)
#    0.000    2.571    0.000    2.143    3.000    4.000 
#    3.857    0.714    0.000    2.571    0.000    0.000 
#    0.000    0.000    0.000    0.000    0.000    0.000 
#
# Total GULP energy -156000.389860 kJ/mol
# GULP energy per Si atom -5571.442495 kJ/mol
# Density = 2.315328 g / cm^3
# Si number density = 23.206100 Si / 1000 Ang^3
#
#
#
# Elastic Constant Matrix: (Units=GPa)
#
#
# Indices 1 2 3 4 5 6 
#
# 1 115.3173 0.8458 40.1888 0.0000 0.0000 0.0000
# 2 0.8458 33.4957 13.1659 0.0000 0.0000 0.0000
# 3 40.1888 13.1659 155.5714 0.0000 0.0000 0.0000
# 4 0.0000 0.0000 0.0000 17.0942 0.0000 0.0000
# 5 0.0000 0.0000 0.0000 0.0000 38.3005 0.0000
# 6 0.0000 0.0000 0.0000 0.0000 0.0000 15.9312
#
#
#
# Elastic Compliance Matrix: (Units=1/GPa)
#
#
# Indices 1 2 3 4 5 6 
#
# 1 0.009548 0.000753 -0.002530 0.000000 0.000000 0.000000
# 2 0.000753 0.030941 -0.002813 0.000000 0.000000 0.000000
# 3 -0.002530 -0.002813 0.007320 0.000000 0.000000 0.000000
# 4 0.000000 0.000000 0.000000 0.058499 0.000000 0.000000
# 5 0.000000 0.000000 0.000000 0.000000 0.026109 0.000000
# 6 0.000000 0.000000 0.000000 0.000000 0.000000 0.062770
#
#
# Mechanical properties :
#
#
# Convention : Reuss Voigt Hill
#
# Bulk Modulus (GPa) = 25.88730 45.86503 35.87616
# Shear Modulus (GPa) = 23.01561 30.94412 26.97986
#
# Velocity S-wave (km/s) = 3.15269 3.65560 3.41342
# Velocity P-wave (km/s) = 4.94289 6.13392 5.57033
#
# Compressibility (1/GPa) = 0.03862899
#
# Stress axis : x y z
#
# Youngs Moduli (GPa) = 104.73364 32.31921 136.61854
#
# Poissons Ratio (x) = -0.02435 0.34569
# Poissons Ratio (y) = -0.07891 0.38433
# Poissons Ratio (z) = 0.26501 0.09092
#
# Static dielectric constant tensor:
#      x y z
#    x 1.947150 0.000000 0.000000 
#    y 0.000000 1.913500 0.000000 
#    z 0.000000 0.000000 1.923240 
# 
# From -- ./inp_files/23159.got.cif
#   From: 2010.05.17/outbox.cif.g08.bks.cpg/sg40_12_cif.got.tgz:23159.got - 2010.06.03 18:35:42.
