data_PCOD9363023
_publ_section_title
;
Structure prediction by ZEFSAII (Michael W. Deem and Ramdas Pophale) SiO2 
 PCOD9363023
Probable space group: A M A 2
;
_chemical_formula_sum "Si O2"
_cell_formula_units_Z 48
_cell_length_a 15.749644
_cell_length_b 7.148770
_cell_length_c 19.269155
_cell_angle_alpha 90.000000
_cell_angle_beta 90.000000
_cell_angle_gamma 90.000000
_cell_volume 2169.525386
_symmetry_space_group_name_H-M "A M A 2"
_symmetry_group_IT_number 40
_symmetry_cell_setting 'orthorhombic'
loop_
_space_group_symop_operation_xyz
x,y,z
-x,-y,z
1/2-x,y,z
1/2+x,-y,z
x,1/2+y,1/2+z
-x,1/2-y,1/2+z
1/2-x,1/2+y,1/2+z
1/2+x,1/2-y,1/2+z
loop_
_atom_site_type_symbol
_atom_site_label
_atom_site_fract_x
_atom_site_fract_y
_atom_site_fract_z
Si Si1 0.602097 0.017881 0.015980
Si Si2 0.340669 0.929581 0.868281
Si Si3 0.114866 0.180507 0.615885
Si Si4 0.525999 0.221057 0.780070
Si Si5 0.158974 0.788707 0.268636
Si Si6 0.088339 0.763368 0.635381
O O1 0.634031 0.218913 0.043695
O O2 0.500000 0.000000 0.006543
O O3 0.622285 0.886235 0.081451
O O4 0.643289 0.975998 0.942481
O O5 0.250000 0.831539 0.868745
O O6 0.419156 0.796972 0.849285
O O7 0.337151 0.089851 0.809491
O O8 0.155285 0.263686 0.685506
O O9 0.013244 0.215876 0.623002
O O10 0.130348 0.961013 0.619241
O O11 0.439257 0.338708 0.786225
O O12 0.587843 0.282005 0.717091
O O13 0.500000 0.000000 0.762765
O O14 0.250000 0.883613 0.285654
#
# Coordination Sequence:
#
# PCOD9363023 Si02
#       6
#     8   8   8   8   8   8
#     4  10  20  30  53  81 106 139 180 223 272 320
#     4  10  19  32  50  76 107 145 183 221 274 327
#     4   9  16  31  51  78 107 138 176 220 267 322
#     4   9  14  30  55  74 104 141 180 222 266 322
#     4   9  16  28  53  77  99 140 181 214 268 326
#     4   9  15  31  53  77 104 138 179 224 262 319
#
# _framework density 22.124656000000002
#
# number of rings (size 3 to 8) (size 9 to 14) (size 15 to 20)
#    0.000    2.667    5.000    1.500    0.000    0.667 
#    0.000    1.667    3.667    0.000    0.000    0.000 
#    0.000    0.000    0.000    0.000    0.000    0.000 
#
# Total GULP energy -133663.942984 kJ/mol
# GULP energy per Si atom -5569.330958 kJ/mol
# Density = 2.207430 g / cm^3
# Si number density = 22.124656 Si / 1000 Ang^3
#
#
#
# Elastic Constant Matrix: (Units=GPa)
#
#
# Indices 1 2 3 4 5 6 
#
# 1 105.7942 25.1240 40.8266 0.0000 0.0000 0.0000
# 2 25.1240 42.6788 13.8109 0.0000 0.0000 0.0000
# 3 40.8266 13.8109 92.4641 0.0000 0.0000 0.0000
# 4 0.0000 0.0000 0.0000 22.0247 0.0000 0.0000
# 5 0.0000 0.0000 0.0000 0.0000 -169.8334 0.0000
# 6 0.0000 0.0000 0.0000 0.0000 0.0000 6.2075
#
#
#
# Elastic Compliance Matrix: (Units=1/GPa)
#
#
# Indices 1 2 3 4 5 6 
#
# 1 0.012681 -0.005940 -0.004712 0.000000 0.000000 0.000000
# 2 -0.005940 0.027404 -0.001470 0.000000 0.000000 0.000000
# 3 -0.004712 -0.001470 0.013115 0.000000 0.000000 0.000000
# 4 0.000000 0.000000 0.000000 0.045404 0.000000 0.000000
# 5 0.000000 0.000000 0.000000 0.000000 -0.005888 0.000000
# 6 0.000000 0.000000 0.000000 0.000000 0.000000 0.161096
#
#
# Mechanical properties :
#
#
# Convention : Reuss Voigt Hill
#
# Bulk Modulus (GPa) = 34.53657 44.49556 39.51607
# Shear Modulus (GPa) = 17.37866 -17.57521 -0.09827
#
# Velocity S-wave (km/s) = 2.80570 -2.82152 -0.21099
# Velocity P-wave (km/s) = 5.11271 3.08874 4.22375
#
# Compressibility (1/GPa) = 0.02895481
#
# Stress axis : x y z
#
# Youngs Moduli (GPa) = 78.85516 36.49155 76.24748
#
# Poissons Ratio (x) = 0.21678 0.35929
# Poissons Ratio (y) = 0.46844 0.11210
# Poissons Ratio (z) = 0.37157 0.05365
#
# Static dielectric constant tensor:
#      x y z
#    x 1.975190 0.000000 0.000000 
#    y 0.000000 1.858900 0.000000 
#    z 0.000000 0.000000 1.767520 
# 
# From -- ./inp_files/21009.got.cif
#   From: 2010.05.17/outbox.cif.g08.bks.cpg/sg40_11_cif.got.tgz:21009.got - 2010.06.03 18:35:42.
