data_PCOD9363198
_publ_section_title
;
Structure prediction by ZEFSAII (Michael W. Deem and Ramdas Pophale) SiO2 
 PCOD9363198
Probable space group: A M A 2
;
_chemical_formula_sum "Si O2"
_cell_formula_units_Z 64
_cell_length_a 8.748425
_cell_length_b 25.571096
_cell_length_c 15.432185
_cell_angle_alpha 90.000000
_cell_angle_beta 90.000000
_cell_angle_gamma 90.000000
_cell_volume 3452.284963
_symmetry_space_group_name_H-M "A M A 2"
_symmetry_group_IT_number 40
_symmetry_cell_setting 'orthorhombic'
loop_
_space_group_symop_operation_xyz
x,y,z
-x,-y,z
1/2-x,y,z
1/2+x,-y,z
x,1/2+y,1/2+z
-x,1/2-y,1/2+z
1/2-x,1/2+y,1/2+z
1/2+x,1/2-y,1/2+z
loop_
_atom_site_type_symbol
_atom_site_label
_atom_site_fract_x
_atom_site_fract_y
_atom_site_fract_z
Si Si1 0.564012 0.363582 0.465280
Si Si2 0.934335 0.332797 0.282885
Si Si3 0.432718 0.647719 0.086473
Si Si4 0.067293 0.890331 0.287321
Si Si5 0.070488 0.720488 0.764689
Si Si6 0.567120 0.557023 0.967976
Si Si7 0.066135 0.058049 0.114648
Si Si8 0.430455 0.241162 0.059864
O O1 0.750000 0.363411 0.468670
O O2 0.518812 0.367728 0.364962
O O3 0.513698 0.408478 0.531132
O O4 0.514975 0.306920 0.501418
O O5 0.750000 0.329405 0.281799
O O6 0.982484 0.352093 0.187769
O O7 0.999391 0.274696 0.296627
O O8 0.250000 0.643523 0.082928
O O9 0.483256 0.704177 0.049542
O O10 0.506595 0.600625 0.033965
O O11 0.250000 0.892162 0.277612
O O12 0.023178 0.924217 0.371147
O O13 0.014000 0.830636 0.299126
O O14 0.989645 0.913036 0.201325
O O15 0.250000 0.717614 0.784746
O O16 0.054025 0.722800 0.659887
O O17 0.500000 0.500000 0.985964
O O18 0.750000 0.555097 0.972160
O O19 0.250000 0.056320 0.115305
O O20 0.000000 0.000000 0.112498
O O21 0.750000 0.249935 0.543557
#
# Coordination Sequence:
#
# PCOD9363198 Si02
#       8
#     8   8   8   8   8   8   8   8
#     4   9  18  35  58  82 115 156 194 232 281 338
#     4   9  19  36  58  84 116 155 195 236 282 338
#     4  10  21  37  58  86 117 149 189 242 290 336
#     4  11  23  38  58  85 115 152 191 233 284 345
#     4  10  19  33  54  84 119 154 189 231 282 337
#     4  11  25  43  62  83 110 149 194 241 291 347
#     4  11  22  39  60  85 116 155 194 236 286 339
#     4   9  17  33  55  81 114 155 191 226 278 339
#
# _framework density 18.538444999999999
#
# number of rings (size 3 to 8) (size 9 to 14) (size 15 to 20)
#    0.000    2.000    1.250    2.250    1.750    4.000 
#    0.000    1.875    0.000    1.500    0.000    0.000 
#    0.000    0.000    0.000    0.000    0.000    0.000 
#
# Total GULP energy -178719.599099 kJ/mol
# GULP energy per Si atom -5584.987472 kJ/mol
# Density = 1.849625 g / cm^3
# Si number density = 18.538445 Si / 1000 Ang^3
#
#
#
# Elastic Constant Matrix: (Units=GPa)
#
#
# Indices 1 2 3 4 5 6 
#
# 1 32.8295 28.2416 22.6148 0.0000 0.0000 0.0000
# 2 28.2416 112.6089 50.3506 0.0000 0.0000 0.0000
# 3 22.6148 50.3506 80.7352 0.0000 0.0000 0.0000
# 4 0.0000 0.0000 0.0000 25.2988 0.0000 0.0000
# 5 0.0000 0.0000 0.0000 0.0000 20.0672 0.0000
# 6 0.0000 0.0000 0.0000 0.0000 0.0000 27.6838
#
#
#
# Elastic Compliance Matrix: (Units=1/GPa)
#
#
# Indices 1 2 3 4 5 6 
#
# 1 0.041609 -0.007244 -0.007137 0.000000 0.000000 0.000000
# 2 -0.007244 0.013575 -0.006437 0.000000 0.000000 0.000000
# 3 -0.007137 -0.006437 0.018400 0.000000 0.000000 0.000000
# 4 0.000000 0.000000 0.000000 0.039528 0.000000 0.000000
# 5 0.000000 0.000000 0.000000 0.000000 0.049832 0.000000
# 6 0.000000 0.000000 0.000000 0.000000 0.000000 0.036122
#
#
# Mechanical properties :
#
#
# Convention : Reuss Voigt Hill
#
# Bulk Modulus (GPa) = 31.30177 47.62084 39.46131
# Shear Modulus (GPa) = 19.89245 22.94107 21.41676
#
# Velocity S-wave (km/s) = 3.27928 3.52161 3.40260
# Velocity P-wave (km/s) = 5.59103 6.50223 6.06377
#
# Compressibility (1/GPa) = 0.03194707
#
# Stress axis : x y z
#
# Youngs Moduli (GPa) = 24.03351 73.66364 54.34804
#
# Poissons Ratio (x) = 0.53361 0.38790
# Poissons Ratio (y) = 0.17410 0.34984
# Poissons Ratio (z) = 0.17154 0.47418
#
# Static dielectric constant tensor:
#      x y z
#    x 1.626660 0.000000 0.000000 
#    y 0.000000 1.599620 0.000000 
#    z 0.000000 0.000000 1.666570 
# 
# From -- ./inp_files/15572.got.cif
#   From: 2010.05.17/outbox.cif.g08.bks.cpg/sg40_8_cif.got.tgz:15572.got - 2010.06.03 18:35:42.
