data_PCOD9363818
_publ_section_title
;
Structure prediction by ZEFSAII (Michael W. Deem and Ramdas Pophale) SiO2 
 PCOD9363818
Probable space group: A M A 2
;
_chemical_formula_sum "Si O2"
_cell_formula_units_Z 64
_cell_length_a 8.795596
_cell_length_b 24.106586
_cell_length_c 18.189558
_cell_angle_alpha 90.000000
_cell_angle_beta 90.000000
_cell_angle_gamma 90.000000
_cell_volume 3856.764567
_symmetry_space_group_name_H-M "A M A 2"
_symmetry_group_IT_number 40
_symmetry_cell_setting 'orthorhombic'
loop_
_space_group_symop_operation_xyz
x,y,z
-x,-y,z
1/2-x,y,z
1/2+x,-y,z
x,1/2+y,1/2+z
-x,1/2-y,1/2+z
1/2-x,1/2+y,1/2+z
1/2+x,1/2-y,1/2+z
loop_
_atom_site_type_symbol
_atom_site_label
_atom_site_fract_x
_atom_site_fract_y
_atom_site_fract_z
Si Si1 0.068146 0.439405 0.447990
Si Si2 0.432622 0.060113 0.108179
Si Si3 0.430259 0.632116 0.319356
Si Si4 0.432400 0.439562 0.866645
Si Si5 0.567138 0.559971 0.035639
Si Si6 0.567501 0.137962 0.668032
Si Si7 0.431727 0.139449 0.244098
Si Si8 0.069883 0.738917 0.236905
O O1 0.250000 0.442530 0.450385
O O2 0.000000 0.500000 0.428867
O O3 0.003085 0.425773 0.528843
O O4 0.012784 0.395340 0.387811
O O5 0.250000 0.055526 0.101604
O O6 0.469547 0.105618 0.169662
O O7 0.500000 0.000000 0.129649
O O8 0.250000 0.621788 0.323249
O O9 0.498145 0.610106 0.241821
O O10 0.453546 0.698614 0.308144
O O11 0.500000 0.500000 0.848266
O O12 0.250000 0.441745 0.861660
O O13 0.496881 0.394273 0.811480
O O14 0.475994 0.427120 0.951404
O O15 0.500000 0.500000 0.054433
O O16 0.750000 0.556413 0.037838
O O17 0.519968 0.605506 0.095201
O O18 0.750000 0.138657 0.673066
O O19 0.503690 0.200540 0.673340
O O20 0.250000 0.140231 0.251036
O O21 0.494654 0.201633 0.242249
O O22 0.250000 0.743996 0.225842
#
# Coordination Sequence:
#
# PCOD9363818 Si02
#       8
#     8   8   8   8   8   8   8   8
#     4  11  21  34  55  80 108 141 174 216 263 314
#     4  10  21  36  54  79 109 138 170 214 264 316
#     4   9  19  35  54  77 107 141 176 216 262 309
#     4  10  20  35  54  79 110 140 174 216 262 313
#     4   9  19  33  52  78 108 141 173 212 261 309
#     4   9  17  33  54  76 106 141 177 217 261 309
#     4  11  22  36  57  80 103 138 178 218 266 317
#     4   9  20  36  55  77 103 138 177 222 263 306
#
# _framework density 16.594221000000001
#
# number of rings (size 3 to 8) (size 9 to 14) (size 15 to 20)
#    0.750    1.500    0.000    4.125    0.000    5.000 
#    0.000    2.500    0.000    3.000    0.000    0.000 
#    0.000    0.000    0.000    0.000    0.000    0.000 
#
# Total GULP energy -178313.701056 kJ/mol
# GULP energy per Si atom -5572.303158 kJ/mol
# Density = 1.655645 g / cm^3
# Si number density = 16.594221 Si / 1000 Ang^3
#
#
#
# Elastic Constant Matrix: (Units=GPa)
#
#
# Indices 1 2 3 4 5 6 
#
# 1 85.9888 63.0722 55.4751 0.0000 0.0000 0.0000
# 2 63.0722 138.9114 98.5250 0.0000 0.0000 0.0000
# 3 55.4751 98.5250 103.6234 0.0000 0.0000 0.0000
# 4 0.0000 0.0000 0.0000 4.4354 0.0000 0.0000
# 5 0.0000 0.0000 0.0000 0.0000 28.3131 0.0000
# 6 0.0000 0.0000 0.0000 0.0000 0.0000 32.0581
#
#
#
# Elastic Compliance Matrix: (Units=1/GPa)
#
#
# Indices 1 2 3 4 5 6 
#
# 1 0.018542 -0.004233 -0.005902 0.000000 0.000000 0.000000
# 2 -0.004233 0.023074 -0.019672 0.000000 0.000000 0.000000
# 3 -0.005902 -0.019672 0.031514 0.000000 0.000000 0.000000
# 4 0.000000 0.000000 0.000000 0.225458 0.000000 0.000000
# 5 0.000000 0.000000 0.000000 0.000000 0.035319 0.000000
# 6 0.000000 0.000000 0.000000 0.000000 0.000000 0.031193
#
#
# Mechanical properties :
#
#
# Convention : Reuss Voigt Hill
#
# Bulk Modulus (GPa) = 73.98782 84.74091 79.36437
# Shear Modulus (GPa) = 11.64906 20.39141 16.02023
#
# Velocity S-wave (km/s) = 2.65239 3.50926 3.11048
# Velocity P-wave (km/s) = 7.35279 8.22176 7.79939
#
# Compressibility (1/GPa) = 0.01351574
#
# Stress axis : x y z
#
# Youngs Moduli (GPa) = 53.93260 43.33952 31.73177
#
# Poissons Ratio (x) = 0.18345 0.18727
# Poissons Ratio (y) = 0.22829 0.62424
# Poissons Ratio (z) = 0.31829 0.85259
#
# Static dielectric constant tensor:
#      x y z
#    x 1.552680 0.000000 0.000000 
#    y 0.000000 1.527450 0.000000 
#    z 0.000000 0.000000 1.554170 
# 
# From -- ./inp_files/19736.got.cif
#   From: 2010.05.17/outbox.cif.g08.bks.cpg/sg40_10_cif.got.tgz:19736.got - 2010.06.03 18:35:42.
