data_PCOD9363138
_publ_section_title
;
Structure prediction by ZEFSAII (Michael W. Deem and Ramdas Pophale) SiO2 
 PCOD9363138
Probable space group: A M A 2
;
_chemical_formula_sum "Si O2"
_cell_formula_units_Z 56
_cell_length_a 7.825127
_cell_length_b 18.592802
_cell_length_c 18.559419
_cell_angle_alpha 90.000000
_cell_angle_beta 90.000000
_cell_angle_gamma 90.000000
_cell_volume 2700.229115
_symmetry_space_group_name_H-M "A M A 2"
_symmetry_group_IT_number 40
_symmetry_cell_setting 'orthorhombic'
loop_
_space_group_symop_operation_xyz
x,y,z
-x,-y,z
1/2-x,y,z
1/2+x,-y,z
x,1/2+y,1/2+z
-x,1/2-y,1/2+z
1/2-x,1/2+y,1/2+z
1/2+x,1/2-y,1/2+z
loop_
_atom_site_type_symbol
_atom_site_label
_atom_site_fract_x
_atom_site_fract_y
_atom_site_fract_z
Si Si1 0.040131 0.674924 0.530430
Si Si2 0.451282 0.580949 0.827716
Si Si3 0.544540 0.915058 0.741228
Si Si4 0.044919 0.083482 0.895132
Si Si5 0.956378 0.417669 0.664692
Si Si6 0.443373 0.320470 0.958398
Si Si7 0.955097 0.916249 0.586268
O O1 0.250000 0.677414 0.534430
O O2 0.984912 0.621278 0.466981
O O3 0.982415 0.641322 0.606550
O O4 0.978184 0.751870 0.500195
O O5 0.500000 0.500000 0.852700
O O6 0.250000 0.579269 0.819567
O O7 0.523373 0.592585 0.746696
O O8 0.489756 0.642925 0.885506
O O9 0.750000 0.909526 0.740448
O O10 0.480861 0.885958 0.818020
O O11 0.486091 0.885321 0.664146
O O12 0.500000 0.000000 0.741698
O O13 0.250000 0.090379 0.894239
O O14 0.000000 0.000000 0.897626
O O15 0.750000 0.412998 0.665771
O O16 0.000000 0.500000 0.642922
O O17 0.250000 0.299248 0.941260
O O18 0.453706 0.381213 0.019095
O O19 0.750000 0.907580 0.579043
O O20 0.000000 0.000000 0.587372
#
# Coordination Sequence:
#
# PCOD9363138 Si02
#       7
#     8   8   8   8   8   8   8
#     4   9  19  35  53  75 107 143 174 208 261 321
#     4  10  20  36  59  83 108 137 178 228 273 318
#     4   8  15  27  46  71  98 124 157 198 242 289
#     4   9  16  30  52  76 101 132 169 209 250 300
#     4   9  18  35  59  84 108 138 178 224 271 318
#     4  11  22  36  52  74 106 143 179 213 261 321
#     4  10  19  33  52  75 101 133 172 216 259 303
#
# _framework density 20.738980999999999
#
# number of rings (size 3 to 8) (size 9 to 14) (size 15 to 20)
#    0.000    2.571    0.000    2.143    0.000    1.143 
#    2.571    2.857    0.000    0.000    0.000    0.000 
#    0.000    0.000    0.000    0.000    0.000    0.000 
#
# Total GULP energy -155960.581156 kJ/mol
# GULP energy per Si atom -5570.020756 kJ/mol
# Density = 2.069178 g / cm^3
# Si number density = 20.738981 Si / 1000 Ang^3
#
#
#
# Elastic Constant Matrix: (Units=GPa)
#
#
# Indices 1 2 3 4 5 6 
#
# 1 30.8442 0.7596 7.0520 0.0000 0.0000 0.0000
# 2 0.7596 87.5310 67.8889 0.0000 0.0000 0.0000
# 3 7.0520 67.8889 145.1758 0.0000 0.0000 0.0000
# 4 0.0000 0.0000 0.0000 8.4969 0.0000 0.0000
# 5 0.0000 0.0000 0.0000 0.0000 -20.6026 0.0000
# 6 0.0000 0.0000 0.0000 0.0000 0.0000 12.8213
#
#
#
# Elastic Compliance Matrix: (Units=1/GPa)
#
#
# Indices 1 2 3 4 5 6 
#
# 1 0.032910 0.001497 -0.002299 0.000000 0.000000 0.000000
# 2 0.001497 0.017994 -0.008488 0.000000 0.000000 0.000000
# 3 -0.002299 -0.008488 0.010969 0.000000 0.000000 0.000000
# 4 0.000000 0.000000 0.000000 0.117691 0.000000 0.000000
# 5 0.000000 0.000000 0.000000 0.000000 -0.048538 0.000000
# 6 0.000000 0.000000 0.000000 0.000000 0.000000 0.077995
#
#
# Mechanical properties :
#
#
# Convention : Reuss Voigt Hill
#
# Bulk Modulus (GPa) = 23.09730 46.10578 34.60154
# Shear Modulus (GPa) = 20.65850 12.66646 16.66248
#
# Velocity S-wave (km/s) = 3.15956 2.47403 2.83757
# Velocity P-wave (km/s) = 4.94689 5.51732 5.23987
#
# Compressibility (1/GPa) = 0.04329510
#
# Stress axis : x y z
#
# Youngs Moduli (GPa) = 30.38616 55.57272 91.16678
#
# Poissons Ratio (x) = -0.08321 0.20958
# Poissons Ratio (y) = -0.04550 0.77378
# Poissons Ratio (z) = 0.06985 0.47167
#
# Static dielectric constant tensor:
#      x y z
#    x 1.771690 0.000000 0.000000 
#    y 0.000000 1.746640 0.000000 
#    z 0.000000 0.000000 1.803640 
# 
# From -- ./inp_files/22159.got.cif
#   From: 2010.05.17/outbox.cif.g08.bks.cpg/sg40_12_cif.got.tgz:22159.got - 2010.06.03 18:35:42.
