data_PCOD9363608
_publ_section_title
;
Structure prediction by ZEFSAII (Michael W. Deem and Ramdas Pophale) SiO2 
 PCOD9363608
Probable space group: A M A 2
;
_chemical_formula_sum "Si O2"
_cell_formula_units_Z 64
_cell_length_a 27.110509
_cell_length_b 23.614703
_cell_length_c 5.184057
_cell_angle_alpha 90.000000
_cell_angle_beta 90.000000
_cell_angle_gamma 90.000000
_cell_volume 3318.867601
_symmetry_space_group_name_H-M "A M A 2"
_symmetry_group_IT_number 40
_symmetry_cell_setting 'orthorhombic'
loop_
_space_group_symop_operation_xyz
x,y,z
-x,-y,z
1/2-x,y,z
1/2+x,-y,z
x,1/2+y,1/2+z
-x,1/2-y,1/2+z
1/2-x,1/2+y,1/2+z
1/2+x,1/2-y,1/2+z
loop_
_atom_site_type_symbol
_atom_site_label
_atom_site_fract_x
_atom_site_fract_y
_atom_site_fract_z
Si Si1 0.012621 0.714254 0.610970
Si Si2 0.616137 0.776125 0.874538
Si Si3 0.306075 0.675104 0.042591
Si Si4 0.308853 0.077031 0.162145
Si Si5 0.865965 0.109937 0.740572
Si Si6 0.803868 0.217526 0.730705
Si Si7 0.189951 0.507615 0.167342
Si Si8 0.420123 0.845036 0.227334
O O1 0.068835 0.702173 0.531929
O O2 0.989578 0.740991 0.347621
O O3 0.979066 0.662194 0.706496
O O4 0.646652 0.824193 0.726302
O O5 0.597067 0.721482 0.708984
O O6 0.655290 0.746513 0.058277
O O7 0.250000 0.656917 0.130464
O O8 0.318826 0.638315 0.788942
O O9 0.301497 0.741401 0.975434
O O10 0.250000 0.076533 0.143723
O O11 0.322085 0.032760 0.387077
O O12 0.324907 0.053633 0.885578
O O13 0.821396 0.154542 0.780427
O O14 0.840838 0.049220 0.711282
O O15 0.897663 0.129489 0.490443
O O16 0.899578 0.118851 0.991072
O O17 0.750000 0.218718 0.606270
O O18 0.250000 0.498413 0.180690
#
# Coordination Sequence:
#
# PCOD9363608 Si02
#       8
#     8   8   8   8   8   8   8   8
#     4  10  20  34  54  75 111 151 184 226 276 336
#     4  10  20  32  52  76 114 148 189 217 277 340
#     4  10  20  34  52  78 115 155 186 226 274 332
#     4   9  20  35  53  74 106 147 193 231 264 307
#     4  11  20  35  54  78 111 144 185 224 279 332
#     4  10  20  32  48  78 114 150 178 216 273 338
#     4  10  20  36  54  77 105 148 194 233 266 316
#     4  10  20  34  51  80 109 144 178 228 281 335
#
# _framework density 19.283684999999998
#
# number of rings (size 3 to 8) (size 9 to 14) (size 15 to 20)
#    0.000    2.000    1.250    3.750    3.500    0.000 
#    0.000    1.250    0.000    0.000    0.000    0.875 
#    0.000    0.000    0.000    0.000    0.000    0.000 
#
# Total GULP energy -178366.340359 kJ/mol
# GULP energy per Si atom -5573.948136 kJ/mol
# Density = 1.923979 g / cm^3
# Si number density = 19.283685 Si / 1000 Ang^3
#
#
#
# Elastic Constant Matrix: (Units=GPa)
#
#
# Indices 1 2 3 4 5 6 
#
# 1 78.7809 -3.1399 3.3874 0.0000 0.0000 0.0000
# 2 -3.1399 68.2924 -1.5227 0.0000 0.0000 0.0000
# 3 3.3874 -1.5227 69.4254 0.0000 0.0000 0.0000
# 4 0.0000 0.0000 0.0000 22.6561 0.0000 0.0000
# 5 0.0000 0.0000 0.0000 0.0000 28.1106 0.0000
# 6 0.0000 0.0000 0.0000 0.0000 0.0000 2.8123
#
#
#
# Elastic Compliance Matrix: (Units=1/GPa)
#
#
# Indices 1 2 3 4 5 6 
#
# 1 0.012742 0.000572 -0.000609 0.000000 0.000000 0.000000
# 2 0.000572 0.014676 0.000294 0.000000 0.000000 0.000000
# 3 -0.000609 0.000294 0.014440 0.000000 0.000000 0.000000
# 4 0.000000 0.000000 0.000000 0.044138 0.000000 0.000000
# 5 0.000000 0.000000 0.000000 0.000000 0.035574 0.000000
# 6 0.000000 0.000000 0.000000 0.000000 0.000000 0.355581
#
#
# Mechanical properties :
#
#
# Convention : Reuss Voigt Hill
#
# Bulk Modulus (GPa) = 23.60024 23.77204 23.68614
# Shear Modulus (GPa) = 10.18825 25.23406 17.71115
#
# Velocity S-wave (km/s) = 2.30105 3.62134 3.03389
# Velocity P-wave (km/s) = 4.39600 5.46258 4.95805
#
# Compressibility (1/GPa) = 0.04237245
#
# Stress axis : x y z
#
# Youngs Moduli (GPa) = 78.47798 68.13942 69.25147
#
# Poissons Ratio (x) = -0.03899 0.04219
# Poissons Ratio (y) = -0.04491 -0.02036
# Poissons Ratio (z) = 0.04781 -0.02003
#
# Static dielectric constant tensor:
#      x y z
#    x 1.731580 0.000000 0.000000 
#    y 0.000000 1.695880 0.000000 
#    z 0.000000 0.000000 1.741440 
# 
# From -- ./inp_files/3242.got.cif
#   From: 2010.05.17/outbox.cif.g08.bks.cpg/sg40_2_cif.got.tgz:3242.got - 2010.06.03 18:35:42.
