data_PCOD9363232
_publ_section_title
;
Structure prediction by ZEFSAII (Michael W. Deem and Ramdas Pophale) SiO2 
 PCOD9363232
Probable space group: A M A 2
;
_chemical_formula_sum "Si O2"
_cell_formula_units_Z 64
_cell_length_a 8.560753
_cell_length_b 34.003054
_cell_length_c 11.844699
_cell_angle_alpha 90.000000
_cell_angle_beta 90.000000
_cell_angle_gamma 90.000000
_cell_volume 3447.894119
_symmetry_space_group_name_H-M "A M A 2"
_symmetry_group_IT_number 40
_symmetry_cell_setting 'orthorhombic'
loop_
_space_group_symop_operation_xyz
x,y,z
-x,-y,z
1/2-x,y,z
1/2+x,-y,z
x,1/2+y,1/2+z
-x,1/2-y,1/2+z
1/2-x,1/2+y,1/2+z
1/2+x,1/2-y,1/2+z
loop_
_atom_site_type_symbol
_atom_site_label
_atom_site_fract_x
_atom_site_fract_y
_atom_site_fract_z
Si Si1 0.437388 0.543935 0.550150
Si Si2 0.436628 0.623866 0.926533
Si Si3 0.562302 0.455645 0.808372
Si Si4 0.564343 0.149154 0.667360
Si Si5 0.564672 0.223472 0.819059
Si Si6 0.068553 0.807903 0.266869
Si Si7 0.566371 0.109820 0.899231
Si Si8 0.429714 0.681533 0.528578
O O1 0.500000 0.500000 0.542602
O O2 0.250000 0.545914 0.537835
O O3 0.477017 0.556838 0.679015
O O4 0.521404 0.568778 0.453659
O O5 0.250000 0.624794 0.913015
O O6 0.489822 0.579697 0.890942
O O7 0.509169 0.656236 0.843085
O O8 0.480419 0.636503 0.053290
O O9 0.500000 0.500000 0.829081
O O10 0.750000 0.458320 0.814484
O O11 0.750000 0.151545 0.644499
O O12 0.517077 0.191223 0.723530
O O13 0.538794 0.117249 0.766829
O O14 0.750000 0.218003 0.835494
O O15 0.525766 0.267787 0.787620
O O16 0.477833 0.213466 0.935442
O O17 0.250000 0.800735 0.290178
O O18 0.039400 0.817694 0.136556
O O19 0.750000 0.118638 0.918451
O O20 0.459295 0.140719 0.965207
O O21 0.250000 0.685973 0.563059
#
# Coordination Sequence:
#
# PCOD9363232 Si02
#       8
#     8   8   8   8   8   8   8   8
#     4  10  19  33  56  86 119 151 189 240 299 358
#     4  11  23  39  60  88 120 155 200 249 299 357
#     4   9  20  37  58  86 118 153 191 240 297 354
#     4   9  21  40  60  82 114 154 197 243 294 353
#     4  10  22  41  61  83 114 151 195 245 297 351
#     4  12  25  39  59  86 117 154 196 241 295 351
#     4  10  20  37  59  83 113 150 193 238 288 349
#     4  11  22  38  59  84 113 146 188 236 290 347
#
# _framework density 18.562055000000001
#
# number of rings (size 3 to 8) (size 9 to 14) (size 15 to 20)
#    0.000    1.750    0.000    5.250    1.750    5.500 
#    0.000    0.625    0.000    1.500    0.000    0.000 
#    0.000    0.000    0.000    0.000    0.000    0.000 
#
# Total GULP energy -178649.671321 kJ/mol
# GULP energy per Si atom -5582.802229 kJ/mol
# Density = 1.851981 g / cm^3
# Si number density = 18.562055 Si / 1000 Ang^3
#
#
#
# Elastic Constant Matrix: (Units=GPa)
#
#
# Indices 1 2 3 4 5 6 
#
# 1 46.3877 18.4271 9.8446 0.0000 0.0000 0.0000
# 2 18.4271 83.7759 51.8227 0.0000 0.0000 0.0000
# 3 9.8446 51.8227 83.7106 0.0000 0.0000 0.0000
# 4 0.0000 0.0000 0.0000 7.2177 0.0000 0.0000
# 5 0.0000 0.0000 0.0000 0.0000 29.6824 0.0000
# 6 0.0000 0.0000 0.0000 0.0000 0.0000 30.8236
#
#
#
# Elastic Compliance Matrix: (Units=1/GPa)
#
#
# Indices 1 2 3 4 5 6 
#
# 1 0.023648 -0.005642 0.000712 0.000000 0.000000 0.000000
# 2 -0.005642 0.020691 -0.012145 0.000000 0.000000 0.000000
# 3 0.000712 -0.012145 0.019381 0.000000 0.000000 0.000000
# 4 0.000000 0.000000 0.000000 0.138549 0.000000 0.000000
# 5 0.000000 0.000000 0.000000 0.000000 0.033690 0.000000
# 6 0.000000 0.000000 0.000000 0.000000 0.000000 0.032443
#
#
# Mechanical properties :
#
#
# Convention : Reuss Voigt Hill
#
# Bulk Modulus (GPa) = 33.82012 41.56254 37.69133
# Shear Modulus (GPa) = 16.00474 22.46338 19.23406
#
# Velocity S-wave (km/s) = 2.93956 3.48253 3.22250
# Velocity P-wave (km/s) = 5.45719 6.21373 5.84771
#
# Compressibility (1/GPa) = 0.02956820
#
# Stress axis : x y z
#
# Youngs Moduli (GPa) = 42.28774 48.33128 51.59660
#
# Poissons Ratio (x) = 0.27266 -0.03671
# Poissons Ratio (y) = 0.23857 0.62666
# Poissons Ratio (z) = -0.03009 0.58700
#
# Static dielectric constant tensor:
#      x y z
#    x 1.636950 0.000000 0.000000 
#    y 0.000000 1.851860 0.000000 
#    z 0.000000 0.000000 1.640020 
# 
# From -- ./inp_files/10598.got.cif
#   From: 2010.05.17/outbox.cif.g08.bks.cpg/sg40_6_cif.got.tgz:10598.got - 2010.06.03 18:35:42.
