data_PCOD9363648
_publ_section_title
;
Structure prediction by ZEFSAII (Michael W. Deem and Ramdas Pophale) SiO2 
 PCOD9363648
Probable space group: A M A 2
;
_chemical_formula_sum "Si O2"
_cell_formula_units_Z 64
_cell_length_a 8.744200
_cell_length_b 15.085182
_cell_length_c 27.898895
_cell_angle_alpha 90.000000
_cell_angle_beta 90.000000
_cell_angle_gamma 90.000000
_cell_volume 3680.083213
_symmetry_space_group_name_H-M "A M A 2"
_symmetry_group_IT_number 40
_symmetry_cell_setting 'orthorhombic'
loop_
_space_group_symop_operation_xyz
x,y,z
-x,-y,z
1/2-x,y,z
1/2+x,-y,z
x,1/2+y,1/2+z
-x,1/2-y,1/2+z
1/2-x,1/2+y,1/2+z
1/2+x,1/2-y,1/2+z
loop_
_atom_site_type_symbol
_atom_site_label
_atom_site_fract_x
_atom_site_fract_y
_atom_site_fract_z
Si Si1 0.933454 0.904140 0.548770
Si Si2 0.066300 0.227932 0.742896
Si Si3 0.066365 0.594833 0.159820
Si Si4 0.066579 0.403410 0.321248
Si Si5 0.067256 0.773924 0.470718
Si Si6 0.567506 0.595783 0.433897
Si Si7 0.066500 0.905031 0.384065
Si Si8 0.932551 0.904408 0.278322
O O1 0.750000 0.907008 0.545690
O O2 0.978396 0.889882 0.604476
O O3 0.997684 0.827692 0.515001
O O4 0.000000 0.000000 0.534124
O O5 0.250000 0.234965 0.744466
O O6 0.019991 0.172548 0.695785
O O7 0.008423 0.170829 0.788150
O O8 0.992818 0.324608 0.745894
O O9 0.250000 0.588735 0.161362
O O10 0.000000 0.500000 0.175250
O O11 0.250000 0.403048 0.315476
O O12 0.030413 0.388807 0.377449
O O13 0.000000 0.500000 0.308171
O O14 0.250000 0.771039 0.474952
O O15 0.029190 0.830399 0.422848
O O16 0.001446 0.675964 0.464134
O O17 0.500000 0.500000 0.446927
O O18 0.750000 0.594101 0.438374
O O19 0.250000 0.911384 0.379094
O O20 0.993610 0.886375 0.332288
O O21 0.000000 0.000000 0.400116
O O22 0.750000 0.907838 0.278944
O O23 0.000000 0.000000 0.264324
#
# Coordination Sequence:
#
# PCOD9363648 Si02
#       8
#     8   8   8   8   8   8   8   8
#     4  10  20  36  56  79 107 137 169 208 257 308
#     4  11  21  34  53  77 105 137 174 214 257 305
#     4   9  20  36  55  79 107 137 168 207 254 306
#     4  10  20  33  50  76 108 141 176 212 254 303
#     4  11  22  34  52  78 105 136 174 213 256 307
#     4  10  21  36  53  73 102 139 176 216 257 300
#     4  10  20  33  50  74 106 140 173 211 254 302
#     4  11  22  36  53  74 102 137 176 215 257 303
#
# _framework density 17.390912
#
# number of rings (size 3 to 8) (size 9 to 14) (size 15 to 20)
#    0.000    1.750    0.000    5.625    0.000    9.000 
#    0.000    0.000    0.000    0.750    0.000    3.500 
#    0.000    0.000    0.000    0.000    0.000    0.000 
#
# Total GULP energy -178821.415625 kJ/mol
# GULP energy per Si atom -5588.169238 kJ/mol
# Density = 1.735133 g / cm^3
# Si number density = 17.390912 Si / 1000 Ang^3
#
#
#
# Elastic Constant Matrix: (Units=GPa)
#
#
# Indices 1 2 3 4 5 6 
#
# 1 66.3935 58.1416 39.7280 0.0000 0.0000 0.0000
# 2 58.1416 164.6836 84.7081 0.0000 0.0000 0.0000
# 3 39.7280 84.7081 72.7970 0.0000 0.0000 0.0000
# 4 0.0000 0.0000 0.0000 29.0026 0.0000 0.0000
# 5 0.0000 0.0000 0.0000 0.0000 24.6518 0.0000
# 6 0.0000 0.0000 0.0000 0.0000 0.0000 34.0328
#
#
#
# Elastic Compliance Matrix: (Units=1/GPa)
#
#
# Indices 1 2 3 4 5 6 
#
# 1 0.023493 -0.004233 -0.007895 0.000000 0.000000 0.000000
# 2 -0.004233 0.015888 -0.016177 0.000000 0.000000 0.000000
# 3 -0.007895 -0.016177 0.036870 0.000000 0.000000 0.000000
# 4 0.000000 0.000000 0.000000 0.034480 0.000000 0.000000
# 5 0.000000 0.000000 0.000000 0.000000 0.040565 0.000000
# 6 0.000000 0.000000 0.000000 0.000000 0.000000 0.029383
#
#
# Mechanical properties :
#
#
# Convention : Reuss Voigt Hill
#
# Bulk Modulus (GPa) = 50.91812 74.33660 62.62736
# Shear Modulus (GPa) = 20.50557 25.62387 23.06472
#
# Velocity S-wave (km/s) = 3.43752 3.84266 3.64572
# Velocity P-wave (km/s) = 6.71547 7.90730 7.33563
#
# Compressibility (1/GPa) = 0.01963937
#
# Stress axis : x y z
#
# Youngs Moduli (GPa) = 42.56582 62.94119 27.12257
#
# Poissons Ratio (x) = 0.26644 0.21414
# Poissons Ratio (y) = 0.18019 0.43877
# Poissons Ratio (z) = 0.33606 1.01821
#
# Static dielectric constant tensor:
#      x y z
#    x 1.579360 0.000000 0.000000 
#    y 0.000000 1.577510 0.000000 
#    z 0.000000 0.000000 1.586240 
# 
# From -- ./inp_files/24340.got.cif
#   From: 2010.05.17/outbox.cif.g08.bks.cpg/sg40_13_cif.got.tgz:24340.got - 2010.06.03 18:35:42.
