data_PCOD9363523
_publ_section_title
;
Structure prediction by ZEFSAII (Michael W. Deem and Ramdas Pophale) SiO2 
 PCOD9363523
Probable space group: A M A 2
;
_chemical_formula_sum "Si O2"
_cell_formula_units_Z 48
_cell_length_a 15.529005
_cell_length_b 8.947713
_cell_length_c 17.330452
_cell_angle_alpha 90.000000
_cell_angle_beta 90.000000
_cell_angle_gamma 90.000000
_cell_volume 2408.050360
_symmetry_space_group_name_H-M "A M A 2"
_symmetry_group_IT_number 40
_symmetry_cell_setting 'orthorhombic'
loop_
_space_group_symop_operation_xyz
x,y,z
-x,-y,z
1/2-x,y,z
1/2+x,-y,z
x,1/2+y,1/2+z
-x,1/2-y,1/2+z
1/2-x,1/2+y,1/2+z
1/2+x,1/2-y,1/2+z
loop_
_atom_site_type_symbol
_atom_site_label
_atom_site_fract_x
_atom_site_fract_y
_atom_site_fract_z
Si Si1 0.500398 0.332484 0.888170
Si Si2 0.349065 0.601765 0.417022
Si Si3 0.016157 0.167190 0.561838
Si Si4 0.846968 0.270902 0.632893
Si Si5 0.913836 0.094236 0.779507
Si Si6 0.150257 0.915874 0.074314
O O1 0.500000 0.500000 0.856883
O O2 0.411151 0.243867 0.903857
O O3 0.553493 0.229819 0.831678
O O4 0.542472 0.344715 0.972696
O O5 0.250000 0.644522 0.429345
O O6 0.358685 0.507525 0.337782
O O7 0.373158 0.494019 0.490787
O O8 0.086274 0.281198 0.595885
O O9 0.921934 0.235185 0.572936
O O10 0.000000 0.000000 0.591193
O O11 0.750000 0.238833 0.606020
O O12 0.866571 0.169796 0.707322
O O13 0.853183 0.451233 0.637726
O O14 0.000000 0.000000 0.758688
O O15 0.250000 0.866538 0.067984
#
# Coordination Sequence:
#
# PCOD9363523 Si02
#       6
#     8   8   8   8   8   8
#     4  10  21  36  59  90 123 164 216 263 317 384
#     4  10  19  37  63  89 123 166 217 267 321 387
#     4  11  22  38  61  90 125 166 213 271 321 382
#     4  11  23  38  61  92 128 168 213 266 324 384
#     4  10  21  39  63  90 129 172 213 260 327 385
#     4  10  21  38  63  93 123 166 217 268 324 389
#
# _framework density 19.933139000000001
#
# number of rings (size 3 to 8) (size 9 to 14) (size 15 to 20)
#    0.000    1.667    3.333    1.500    0.000    2.000 
#    0.000    4.167    0.000    5.000    0.000    0.000 
#    0.000    0.000    0.000    0.000    0.000    0.000 
#
# Total GULP energy -133706.425471 kJ/mol
# GULP energy per Si atom -5571.101061 kJ/mol
# Density = 1.988777 g / cm^3
# Si number density = 19.933139 Si / 1000 Ang^3
#
#
#
# Elastic Constant Matrix: (Units=GPa)
#
#
# Indices 1 2 3 4 5 6 
#
# 1 100.7153 53.2556 9.8262 0.0000 0.0000 0.0000
# 2 53.2556 128.7733 19.6880 0.0000 0.0000 0.0000
# 3 9.8262 19.6880 74.8164 0.0000 0.0000 0.0000
# 4 0.0000 0.0000 0.0000 27.2676 0.0000 0.0000
# 5 0.0000 0.0000 0.0000 0.0000 13.6604 0.0000
# 6 0.0000 0.0000 0.0000 0.0000 0.0000 30.5342
#
#
#
# Elastic Compliance Matrix: (Units=1/GPa)
#
#
# Indices 1 2 3 4 5 6 
#
# 1 0.012714 -0.005213 -0.000298 0.000000 0.000000 0.000000
# 2 -0.005213 0.010228 -0.002007 0.000000 0.000000 0.000000
# 3 -0.000298 -0.002007 0.013933 0.000000 0.000000 0.000000
# 4 0.000000 0.000000 0.000000 0.036674 0.000000 0.000000
# 5 0.000000 0.000000 0.000000 0.000000 0.073204 0.000000
# 6 0.000000 0.000000 0.000000 0.000000 0.000000 0.032750
#
#
# Mechanical properties :
#
#
# Convention : Reuss Voigt Hill
#
# Bulk Modulus (GPa) = 45.78660 52.20496 48.99578
# Shear Modulus (GPa) = 24.77464 29.06146 26.91805
#
# Velocity S-wave (km/s) = 3.52928 3.82245 3.67879
# Velocity P-wave (km/s) = 6.29506 6.76228 6.53285
#
# Compressibility (1/GPa) = 0.02184045
#
# Stress axis : x y z
#
# Youngs Moduli (GPa) = 78.65146 97.76963 71.77027
#
# Poissons Ratio (x) = 0.50963 0.02140
# Poissons Ratio (y) = 0.40997 0.14404
# Poissons Ratio (z) = 0.02345 0.19622
#
# Static dielectric constant tensor:
#      x y z
#    x 1.701820 0.000000 0.000000 
#    y 0.000000 1.766720 0.000000 
#    z 0.000000 0.000000 1.734270 
# 
# From -- ./inp_files/20535.got.cif
#   From: 2010.05.17/outbox.cif.g08.bks.cpg/sg40_11_cif.got.tgz:20535.got - 2010.06.03 18:35:42.
