data_PCOD9363533
_publ_section_title
;
Structure prediction by ZEFSAII (Michael W. Deem and Ramdas Pophale) SiO2 
 PCOD9363533
Probable space group: A M A 2
;
_chemical_formula_sum "Si O2"
_cell_formula_units_Z 48
_cell_length_a 29.087939
_cell_length_b 4.840210
_cell_length_c 12.712305
_cell_angle_alpha 90.000000
_cell_angle_beta 90.000000
_cell_angle_gamma 90.000000
_cell_volume 1789.787454
_symmetry_space_group_name_H-M "A M A 2"
_symmetry_group_IT_number 40
_symmetry_cell_setting 'orthorhombic'
loop_
_space_group_symop_operation_xyz
x,y,z
-x,-y,z
1/2-x,y,z
1/2+x,-y,z
x,1/2+y,1/2+z
-x,1/2-y,1/2+z
1/2-x,1/2+y,1/2+z
1/2+x,1/2-y,1/2+z
loop_
_atom_site_type_symbol
_atom_site_label
_atom_site_fract_x
_atom_site_fract_y
_atom_site_fract_z
Si Si1 0.398061 0.546452 0.163480
Si Si2 0.945836 0.404654 0.584052
Si Si3 0.051027 0.379462 0.328425
Si Si4 0.597475 0.696134 0.909783
Si Si5 0.800130 0.755236 0.616542
Si Si6 0.800571 0.745812 0.971910
O O1 0.440945 0.298382 0.193817
O O2 0.342765 0.595144 0.170865
O O3 0.416950 0.831870 0.118037
O O4 0.409172 0.610983 0.294889
O O5 0.942367 0.435787 0.449777
O O6 0.000000 0.500000 0.594647
O O7 0.903835 0.142304 0.547173
O O8 0.070437 0.085706 0.373148
O O9 0.000000 0.500000 0.313603
O O10 0.652841 0.740679 0.906914
O O11 0.750000 0.769435 0.669784
O O12 0.807704 0.445442 0.574035
O O13 0.796845 0.932177 0.510062
O O14 0.750000 0.824049 0.928211
#
# Coordination Sequence:
#
# PCOD9363533 Si02
#       6
#     8   8   8   8   8   8
#     4  12  23  44  64  96 130 173 226 277 344 410
#     4  12  24  40  68  94 125 168 237 292 321 395
#     4  12  27  42  62  91 139 184 215 272 350 417
#     4  12  23  43  64  95 129 173 225 276 342 403
#     4  10  19  37  66  98 127 164 215 284 350 405
#     4  10  20  38  66  97 127 165 217 282 348 402
#
# _framework density 26.818826000000001
#
# number of rings (size 3 to 8) (size 9 to 14) (size 15 to 20)
#    0.000    0.667    3.333    5.500    0.000    1.333 
#    0.000    1.667    0.000    0.000    0.000    0.000 
#    0.000    0.000    0.000    0.000    0.000    0.000 
#
# Total GULP energy -133815.758825 kJ/mol
# GULP energy per Si atom -5575.656618 kJ/mol
# Density = 2.675778 g / cm^3
# Si number density = 26.818826 Si / 1000 Ang^3
#
#
#
# Elastic Constant Matrix: (Units=GPa)
#
#
# Indices 1 2 3 4 5 6 
#
# 1 289.3992 122.9903 125.2138 0.0000 0.0000 0.0000
# 2 122.9903 203.0002 57.2730 0.0000 0.0000 0.0000
# 3 125.2138 57.2730 206.2219 0.0000 0.0000 0.0000
# 4 0.0000 0.0000 0.0000 67.9726 0.0000 0.0000
# 5 0.0000 0.0000 0.0000 0.0000 28.6958 0.0000
# 6 0.0000 0.0000 0.0000 0.0000 0.0000 38.0791
#
#
#
# Elastic Compliance Matrix: (Units=1/GPa)
#
#
# Indices 1 2 3 4 5 6 
#
# 1 0.005821 -0.002745 -0.002772 0.000000 0.000000 0.000000
# 2 -0.002745 0.006639 -0.000177 0.000000 0.000000 0.000000
# 3 -0.002772 -0.000177 0.006582 0.000000 0.000000 0.000000
# 4 0.000000 0.000000 0.000000 0.014712 0.000000 0.000000
# 5 0.000000 0.000000 0.000000 0.000000 0.034848 0.000000
# 6 0.000000 0.000000 0.000000 0.000000 0.000000 0.026261
#
#
# Mechanical properties :
#
#
# Convention : Reuss Voigt Hill
#
# Bulk Modulus (GPa) = 130.66118 145.50840 138.08479
# Shear Modulus (GPa) = 45.95441 53.15911 49.55676
#
# Velocity S-wave (km/s) = 4.14395 4.45697 4.30331
# Velocity P-wave (km/s) = 8.46889 8.99222 8.73448
#
# Compressibility (1/GPa) = 0.00765338
#
# Stress axis : x y z
#
# Youngs Moduli (GPa) = 171.77828 150.62286 151.93656
#
# Poissons Ratio (x) = 0.41343 0.42122
# Poissons Ratio (y) = 0.47150 0.02693
# Poissons Ratio (z) = 0.47623 0.02670
#
# Static dielectric constant tensor:
#      x y z
#    x 2.694570 0.000000 0.000000 
#    y 0.000000 2.084420 0.000000 
#    z 0.000000 0.000000 2.337820 
# 
# From -- ./inp_files/18645.got.cif
#   From: 2010.05.17/outbox.cif.g08.bks.cpg/sg40_10_cif.got.tgz:18645.got - 2010.06.03 18:35:42.
