data_PCOD9363963
_publ_section_title
;
Structure prediction by ZEFSAII (Michael W. Deem and Ramdas Pophale) SiO2 
 PCOD9363963
Probable space group: A M A 2
;
_chemical_formula_sum "Si O2"
_cell_formula_units_Z 64
_cell_length_a 27.336274
_cell_length_b 13.157681
_cell_length_c 8.218409
_cell_angle_alpha 90.000000
_cell_angle_beta 90.000000
_cell_angle_gamma 90.000000
_cell_volume 2956.013564
_symmetry_space_group_name_H-M "A M A 2"
_symmetry_group_IT_number 40
_symmetry_cell_setting 'orthorhombic'
loop_
_space_group_symop_operation_xyz
x,y,z
-x,-y,z
1/2-x,y,z
1/2+x,-y,z
x,1/2+y,1/2+z
-x,1/2-y,1/2+z
1/2-x,1/2+y,1/2+z
1/2+x,1/2-y,1/2+z
loop_
_atom_site_type_symbol
_atom_site_label
_atom_site_fract_x
_atom_site_fract_y
_atom_site_fract_z
Si Si1 0.303890 0.287319 0.681360
Si Si2 0.805494 0.926484 0.867321
Si Si3 0.195813 0.714105 0.816570
Si Si4 0.354300 0.891583 0.680914
Si Si5 0.102898 0.900235 0.326630
Si Si6 0.496153 0.375155 0.976864
Si Si7 0.056059 0.770519 0.756220
Si Si8 0.618482 0.402268 0.657781
O O1 0.250000 0.333606 0.720689
O O2 0.305021 0.176923 0.764600
O O3 0.305766 0.272170 0.487361
O O4 0.351937 0.344404 0.741147
O O5 0.750000 0.945943 0.924900
O O6 0.824196 0.017525 0.755814
O O7 0.844575 0.918116 0.010884
O O8 0.250000 0.672593 0.793892
O O9 0.181981 0.794601 0.675396
O O10 0.154058 0.630481 0.806470
O O11 0.377130 0.921565 0.508794
O O12 0.399720 0.849693 0.790800
O O13 0.050815 0.849798 0.362770
O O14 0.091955 0.997410 0.215657
O O15 0.500000 0.500000 0.976818
O O16 0.538439 0.303691 0.900395
O O17 0.484231 0.334336 0.157934
O O18 0.081292 0.689936 0.631600
#
# Coordination Sequence:
#
# PCOD9363963 Si02
#       8
#     8   8   8   8   8   8   8   8
#     4  10  22  38  60  92 129 173 219 268 329 395
#     4  11  22  38  60  93 133 177 226 272 327 404
#     4  10  20  36  57  85 122 165 211 264 320 389
#     4  10  22  39  60  89 124 164 218 264 331 391
#     4  11  23  41  64  91 127 170 213 277 331 399
#     4  11  23  47  70  97 133 171 223 279 344 407
#     4  10  24  45  66  97 126 168 219 277 341 410
#     4  11  22  39  62  90 128 166 219 264 336 391
#
# _framework density 21.650782
#
# number of rings (size 3 to 8) (size 9 to 14) (size 15 to 20)
#    0.000    1.500    1.250    4.500    0.000    7.000 
#    9.000    0.000    0.000    0.000    0.000    0.000 
#    0.000    0.000    0.000    0.000    0.000    0.000 
#
# Total GULP energy -178559.937534 kJ/mol
# GULP energy per Si atom -5579.998048 kJ/mol
# Density = 2.160150 g / cm^3
# Si number density = 21.650782 Si / 1000 Ang^3
#
#
#
# Elastic Constant Matrix: (Units=GPa)
#
#
# Indices 1 2 3 4 5 6 
#
# 1 23.3295 0.3053 -3.7539 0.0000 0.0000 0.0000
# 2 0.3053 61.7199 2.9008 0.0000 0.0000 0.0000
# 3 -3.7539 2.9008 33.5146 0.0000 0.0000 0.0000
# 4 0.0000 0.0000 0.0000 25.1567 0.0000 0.0000
# 5 0.0000 0.0000 0.0000 0.0000 32.5689 0.0000
# 6 0.0000 0.0000 0.0000 0.0000 0.0000 31.6869
#
#
#
# Elastic Compliance Matrix: (Units=1/GPa)
#
#
# Indices 1 2 3 4 5 6 
#
# 1 0.043663 -0.000448 0.004929 0.000000 0.000000 0.000000
# 2 -0.000448 0.016273 -0.001459 0.000000 0.000000 0.000000
# 3 0.004929 -0.001459 0.030516 0.000000 0.000000 0.000000
# 4 0.000000 0.000000 0.000000 0.039751 0.000000 0.000000
# 5 0.000000 0.000000 0.000000 0.000000 0.030704 0.000000
# 6 0.000000 0.000000 0.000000 0.000000 0.000000 0.031559
#
#
# Mechanical properties :
#
#
# Convention : Reuss Voigt Hill
#
# Bulk Modulus (GPa) = 10.36285 13.05206 11.70745
# Shear Modulus (GPa) = 22.87427 25.82328 24.34878
#
# Velocity S-wave (km/s) = 3.25393 3.45732 3.35716
# Velocity P-wave (km/s) = 4.34904 4.68817 4.52179
#
# Compressibility (1/GPa) = 0.09649853
#
# Stress axis : x y z
#
# Youngs Moduli (GPa) = 22.90253 61.45152 32.76959
#
# Poissons Ratio (x) = 0.02751 -0.16153
# Poissons Ratio (y) = 0.01025 0.04780
# Poissons Ratio (z) = -0.11290 0.08964
#
# Static dielectric constant tensor:
#      x y z
#    x 1.819750 0.000000 0.000000 
#    y 0.000000 1.841630 0.000000 
#    z 0.000000 0.000000 1.776970 
# 
# From -- ./inp_files/8944.got.cif
#   From: 2010.05.17/outbox.cif.g08.bks.cpg/sg40_5_cif.got.tgz:8944.got - 2010.06.03 18:35:42.
