data_PCOD9363866
_publ_section_title
;
Structure prediction by ZEFSAII (Michael W. Deem and Ramdas Pophale) SiO2 
 PCOD9363866
Probable space group: A M A 2
;
_chemical_formula_sum "Si O2"
_cell_formula_units_Z 64
_cell_length_a 8.747197
_cell_length_b 21.073419
_cell_length_c 19.917572
_cell_angle_alpha 90.000000
_cell_angle_beta 90.000000
_cell_angle_gamma 90.000000
_cell_volume 3671.472720
_symmetry_space_group_name_H-M "A M A 2"
_symmetry_group_IT_number 40
_symmetry_cell_setting 'orthorhombic'
loop_
_space_group_symop_operation_xyz
x,y,z
-x,-y,z
1/2-x,y,z
1/2+x,-y,z
x,1/2+y,1/2+z
-x,1/2-y,1/2+z
1/2-x,1/2+y,1/2+z
1/2+x,1/2-y,1/2+z
loop_
_atom_site_type_symbol
_atom_site_label
_atom_site_fract_x
_atom_site_fract_y
_atom_site_fract_z
Si Si1 0.066180 0.616959 0.437850
Si Si2 0.567384 0.734800 0.085160
Si Si3 0.432025 0.933586 0.225383
Si Si4 0.934147 0.689291 0.810451
Si Si5 0.933301 0.814000 0.721949
Si Si6 0.567826 0.385741 0.589291
Si Si7 0.567742 0.066943 0.801939
Si Si8 0.068050 0.741450 0.942712
O O1 0.250000 0.614661 0.431213
O O2 0.024487 0.595292 0.513313
O O3 0.988614 0.578770 0.378156
O O4 0.012532 0.690093 0.432051
O O5 0.750000 0.727260 0.080515
O O6 0.500440 0.697345 0.148120
O O7 0.536259 0.810201 0.095380
O O8 0.489544 0.717134 0.014786
O O9 0.250000 0.936381 0.227409
O O10 0.481698 0.873544 0.270180
O O11 0.484103 0.921150 0.149018
O O12 0.500000 0.000000 0.249162
O O13 0.750000 0.688031 0.819540
O O14 0.970607 0.751384 0.765904
O O15 0.015037 0.697400 0.881696
O O16 0.750000 0.819616 0.719366
O O17 0.003636 0.875054 0.758038
O O18 0.750000 0.394720 0.596384
O O19 0.750000 0.066127 0.799776
O O20 0.500000 0.000000 0.778542
O O21 0.250000 0.749845 0.942808
#
# Coordination Sequence:
#
# PCOD9363866 Si02
#       8
#     8   8   8   8   8   8   8   8
#     4  10  20  36  55  80 114 152 192 236 283 335
#     4  10  20  35  57  85 118 150 187 235 286 338
#     4  11  23  38  56  80 112 151 190 233 282 336
#     4  10  21  37  58  83 114 150 188 234 288 338
#     4  11  21  37  61  87 116 148 190 239 286 342
#     4   9  19  34  54  79 111 150 190 230 274 330
#     4  12  25  40  58  83 114 154 195 236 288 342
#     4  11  21  33  56  87 116 148 189 235 286 342
#
# _framework density 17.431697
#
# number of rings (size 3 to 8) (size 9 to 14) (size 15 to 20)
#    0.000    1.500    2.500    4.500    0.000    4.500 
#    0.000    0.000    0.000    0.750    0.000    3.500 
#    0.000    0.000    0.000    0.000    0.000    0.000 
#
# Total GULP energy -178824.577793 kJ/mol
# GULP energy per Si atom -5588.268056 kJ/mol
# Density = 1.739202 g / cm^3
# Si number density = 17.431697 Si / 1000 Ang^3
#
#
#
# Elastic Constant Matrix: (Units=GPa)
#
#
# Indices 1 2 3 4 5 6 
#
# 1 65.6105 45.8095 42.8196 0.0000 0.0000 0.0000
# 2 45.8095 110.8922 57.2946 0.0000 0.0000 0.0000
# 3 42.8196 57.2946 111.1632 0.0000 0.0000 0.0000
# 4 0.0000 0.0000 0.0000 18.1211 0.0000 0.0000
# 5 0.0000 0.0000 0.0000 0.0000 33.6908 0.0000
# 6 0.0000 0.0000 0.0000 0.0000 0.0000 44.7321
#
#
#
# Elastic Compliance Matrix: (Units=1/GPa)
#
#
# Indices 1 2 3 4 5 6 
#
# 1 0.023702 -0.006916 -0.005566 0.000000 0.000000 0.000000
# 2 -0.006916 0.014309 -0.004711 0.000000 0.000000 0.000000
# 3 -0.005566 -0.004711 0.013568 0.000000 0.000000 0.000000
# 4 0.000000 0.000000 0.000000 0.055184 0.000000 0.000000
# 5 0.000000 0.000000 0.000000 0.000000 0.029682 0.000000
# 6 0.000000 0.000000 0.000000 0.000000 0.000000 0.022355
#
#
# Mechanical properties :
#
#
# Convention : Reuss Voigt Hill
#
# Bulk Modulus (GPa) = 58.15942 64.39038 61.27490
# Shear Modulus (GPa) = 25.13623 28.75829 26.94726
#
# Velocity S-wave (km/s) = 3.80147 4.06614 3.93603
# Velocity P-wave (km/s) = 7.25981 7.68528 7.47557
#
# Compressibility (1/GPa) = 0.01719412
#
# Stress axis : x y z
#
# Youngs Moduli (GPa) = 42.18969 69.88758 73.70490
#
# Poissons Ratio (x) = 0.48334 0.41021
# Poissons Ratio (y) = 0.29178 0.34721
# Poissons Ratio (z) = 0.23481 0.32923
#
# Static dielectric constant tensor:
#      x y z
#    x 1.576910 0.000000 0.000000 
#    y 0.000000 1.586790 0.000000 
#    z 0.000000 0.000000 1.587260 
# 
# From -- ./inp_files/19581.got.cif
#   From: 2010.05.17/outbox.cif.g08.bks.cpg/sg40_10_cif.got.tgz:19581.got - 2010.06.03 18:35:42.
