data_PCOD9363727
_publ_section_title
;
Structure prediction by ZEFSAII (Michael W. Deem and Ramdas Pophale) SiO2 
 PCOD9363727
Probable space group: A M A 2
;
_chemical_formula_sum "Si O2"
_cell_formula_units_Z 64
_cell_length_a 7.651111
_cell_length_b 26.065950
_cell_length_c 15.498706
_cell_angle_alpha 90.000000
_cell_angle_beta 90.000000
_cell_angle_gamma 90.000000
_cell_volume 3090.960823
_symmetry_space_group_name_H-M "A M A 2"
_symmetry_group_IT_number 40
_symmetry_cell_setting 'orthorhombic'
loop_
_space_group_symop_operation_xyz
x,y,z
-x,-y,z
1/2-x,y,z
1/2+x,-y,z
x,1/2+y,1/2+z
-x,1/2-y,1/2+z
1/2-x,1/2+y,1/2+z
1/2+x,1/2-y,1/2+z
loop_
_atom_site_type_symbol
_atom_site_label
_atom_site_fract_x
_atom_site_fract_y
_atom_site_fract_z
Si Si1 0.045684 0.281391 0.164130
Si Si2 0.963393 0.363895 0.469387
Si Si3 0.458982 0.893209 0.636630
Si Si4 0.462425 0.234304 0.861852
Si Si5 0.039934 0.942034 0.462478
Si Si6 0.542670 0.440171 0.322546
Si Si7 0.461945 0.666867 0.650856
Si Si8 0.957306 0.151344 0.348008
O O1 0.250000 0.280411 0.139042
O O2 0.969980 0.334986 0.130624
O O3 0.973267 0.225695 0.139017
O O4 0.029924 0.282614 0.267982
O O5 0.750000 0.365639 0.469607
O O6 0.012821 0.308381 0.430845
O O7 0.027722 0.407147 0.403178
O O8 0.019311 0.366244 0.568803
O O9 0.250000 0.889204 0.626848
O O10 0.524776 0.928742 0.559051
O O11 0.488216 0.916731 0.730768
O O12 0.250000 0.234738 0.857346
O O13 0.524099 0.292549 0.877395
O O14 0.250000 0.938709 0.463292
O O15 0.972111 0.897668 0.398784
O O16 0.000000 0.000000 0.437154
O O17 0.500000 0.500000 0.327983
O O18 0.750000 0.434923 0.325269
O O19 0.250000 0.668578 0.651673
O O20 0.516431 0.648243 0.745212
O O21 0.750000 0.152711 0.364347
#
# Coordination Sequence:
#
# PCOD9363727 Si02
#       8
#     8   8   8   8   8   8   8   8
#     4   9  17  29  49  78 110 138 170 209 253 306
#     4   9  18  32  53  79 105 138 178 213 256 314
#     4  10  20  34  53  80 110 141 174 213 262 314
#     4   9  16  30  52  76 104 137 170 209 257 313
#     4  10  22  38  55  77 104 139 181 222 263 313
#     4  11  22  37  55  77 106 142 181 219 261 312
#     4   9  18  33  54  79 109 142 175 214 261 315
#     4   9  19  35  55  78 105 136 176 221 269 314
#
# _framework density 20.705535999999999
#
# number of rings (size 3 to 8) (size 9 to 14) (size 15 to 20)
#    0.000    2.500    1.250    0.750    1.750    2.000 
#    0.000    2.500    0.000    3.000    0.000    0.000 
#    0.000    0.000    0.000    0.000    0.000    0.000 
#
# Total GULP energy -178564.975657 kJ/mol
# GULP energy per Si atom -5580.155489 kJ/mol
# Density = 2.065841 g / cm^3
# Si number density = 20.705536 Si / 1000 Ang^3
#
#
#
# Elastic Constant Matrix: (Units=GPa)
#
#
# Indices 1 2 3 4 5 6 
#
# 1 39.3705 3.4924 -5.9014 0.0000 0.0000 0.0000
# 2 3.4924 143.0752 69.1881 0.0000 0.0000 0.0000
# 3 -5.9014 69.1881 83.8413 0.0000 0.0000 0.0000
# 4 0.0000 0.0000 0.0000 31.4233 0.0000 0.0000
# 5 0.0000 0.0000 0.0000 0.0000 18.1513 0.0000
# 6 0.0000 0.0000 0.0000 0.0000 0.0000 8.5294
#
#
#
# Elastic Compliance Matrix: (Units=1/GPa)
#
#
# Indices 1 2 3 4 5 6 
#
# 1 0.026218 -0.002550 0.003950 0.000000 0.000000 0.000000
# 2 -0.002550 0.011879 -0.009982 0.000000 0.000000 0.000000
# 3 0.003950 -0.009982 0.020443 0.000000 0.000000 0.000000
# 4 0.000000 0.000000 0.000000 0.031823 0.000000 0.000000
# 5 0.000000 0.000000 0.000000 0.000000 0.055093 0.000000
# 6 0.000000 0.000000 0.000000 0.000000 0.000000 0.117242
#
#
# Mechanical properties :
#
#
# Convention : Reuss Voigt Hill
#
# Bulk Modulus (GPa) = 24.16932 44.42724 34.29828
# Shear Modulus (GPa) = 17.02686 24.92133 20.97409
#
# Velocity S-wave (km/s) = 2.87075 3.47307 3.18617
# Velocity P-wave (km/s) = 4.76303 6.13076 5.48966
#
# Compressibility (1/GPa) = 0.04137476
#
# Stress axis : x y z
#
# Youngs Moduli (GPa) = 38.14180 84.18412 48.91689
#
# Poissons Ratio (x) = 0.21467 -0.19321
# Poissons Ratio (y) = 0.09726 0.48829
# Poissons Ratio (z) = -0.15065 0.84034
#
# Static dielectric constant tensor:
#      x y z
#    x 1.798360 0.000000 0.000000 
#    y 0.000000 1.741640 0.000000 
#    z 0.000000 0.000000 1.735450 
# 
# From -- ./inp_files/15664.got.cif
#   From: 2010.05.17/outbox.cif.g08.bks.cpg/sg40_8_cif.got.tgz:15664.got - 2010.06.03 18:35:42.
