data_PCOD9363470
_publ_section_title
;
Structure prediction by ZEFSAII (Michael W. Deem and Ramdas Pophale) SiO2 
 PCOD9363470
Probable space group: A M A 2
;
_chemical_formula_sum "Si O2"
_cell_formula_units_Z 48
_cell_length_a 10.298512
_cell_length_b 8.751975
_cell_length_c 28.735567
_cell_angle_alpha 90.000000
_cell_angle_beta 90.000000
_cell_angle_gamma 90.000000
_cell_volume 2590.003308
_symmetry_space_group_name_H-M "A M A 2"
_symmetry_group_IT_number 40
_symmetry_cell_setting 'orthorhombic'
loop_
_space_group_symop_operation_xyz
x,y,z
-x,-y,z
1/2-x,y,z
1/2+x,-y,z
x,1/2+y,1/2+z
-x,1/2-y,1/2+z
1/2-x,1/2+y,1/2+z
1/2+x,1/2-y,1/2+z
loop_
_atom_site_type_symbol
_atom_site_label
_atom_site_fract_x
_atom_site_fract_y
_atom_site_fract_z
Si Si1 0.491510 0.318207 0.001540
Si Si2 0.511739 0.183479 0.215681
Si Si3 0.098057 0.141939 0.805508
Si Si4 0.250000 0.328311 0.544222
Si Si5 0.597340 0.856228 0.912259
Si Si6 0.750000 0.679697 0.652658
Si Si7 0.750000 0.804933 0.058784
Si Si8 0.750000 0.309131 0.666640
O O1 0.500000 0.500000 0.003742
O O2 0.623673 0.235954 0.018023
O O3 0.377906 0.261718 0.035357
O O4 0.449742 0.264874 0.950087
O O5 0.552969 0.240514 0.266269
O O6 0.622265 0.233349 0.179375
O O7 0.375324 0.240172 0.195631
O O8 0.500000 0.000000 0.216415
O O9 0.250000 0.100622 0.798015
O O10 0.088198 0.199010 0.858813
O O11 0.000000 0.000000 0.801694
O O12 0.250000 0.279017 0.598538
O O13 0.250000 0.512711 0.548408
O O14 0.750000 0.896294 0.920764
O O15 0.500000 0.000000 0.916902
O O16 0.750000 0.494802 0.660139
O O17 0.750000 0.760932 0.113047
#
# Coordination Sequence:
#
# PCOD9363470 Si02
#       8
#     8   8   8   4   8   4   4   4
#     4  12  25  40  60  93 129 155 193 258 316 356
#     4  10  19  36  61  88 118 155 199 249 297 345
#     4  10  22  40  61  88 121 156 197 247 297 358
#     4  11  23  39  68  89 116 167 212 245 292 363
#     4  10  22  42  66  88 115 158 208 249 295 369
#     4   9  18  37  58  87 116 155 208 249 282 345
#     4  11  21  43  64  87 118 165 216 245 288 365
#     4   9  20  33  60  89 116 151 206 253 282 343
#
# _framework density 18.532795
#
# number of rings (size 3 to 8) (size 9 to 14) (size 15 to 20)
#    0.000    1.667    1.667    3.000    2.333    3.333 
#    0.000    5.000    0.000    0.000    0.000    0.000 
#    0.000    0.000    0.000    0.000    0.000    0.000 
#
# Total GULP energy -133963.555704 kJ/mol
# GULP energy per Si atom -5581.814821 kJ/mol
# Density = 1.849061 g / cm^3
# Si number density = 18.532795 Si / 1000 Ang^3
#
#
#
# Elastic Constant Matrix: (Units=GPa)
#
#
# Indices 1 2 3 4 5 6 
#
# 1 199.7085 52.5329 92.5329 0.0000 0.0000 0.0000
# 2 52.5329 66.7570 53.6421 0.0000 0.0000 0.0000
# 3 92.5329 53.6421 141.2845 0.0000 0.0000 0.0000
# 4 0.0000 0.0000 0.0000 26.4938 0.0000 0.0000
# 5 0.0000 0.0000 0.0000 0.0000 42.0252 0.0000
# 6 0.0000 0.0000 0.0000 0.0000 0.0000 18.0314
#
#
#
# Elastic Compliance Matrix: (Units=1/GPa)
#
#
# Indices 1 2 3 4 5 6 
#
# 1 0.007543 -0.002829 -0.003866 0.000000 0.000000 0.000000
# 2 -0.002829 0.022617 -0.006734 0.000000 0.000000 0.000000
# 3 -0.003866 -0.006734 0.012167 0.000000 0.000000 0.000000
# 4 0.000000 0.000000 0.000000 0.037745 0.000000 0.000000
# 5 0.000000 0.000000 0.000000 0.000000 0.023795 0.000000
# 6 0.000000 0.000000 0.000000 0.000000 0.000000 0.055459
#
#
# Mechanical properties :
#
#
# Convention : Reuss Voigt Hill
#
# Bulk Modulus (GPa) = 64.64932 89.46288 77.05610
# Shear Modulus (GPa) = 26.13149 31.24623 28.68886
#
# Velocity S-wave (km/s) = 3.75909 4.11054 3.93874
# Velocity P-wave (km/s) = 7.33488 8.42059 7.89642
#
# Compressibility (1/GPa) = 0.01546807
#
# Stress axis : x y z
#
# Youngs Moduli (GPa) = 132.57822 44.21384 82.19183
#
# Poissons Ratio (x) = 0.12509 0.31774
# Poissons Ratio (y) = 0.37509 0.55350
# Poissons Ratio (z) = 0.51253 0.29775
#
# Static dielectric constant tensor:
#      x y z
#    x 1.631870 0.000000 0.000000 
#    y 0.000000 1.619530 0.000000 
#    z 0.000000 0.000000 1.629750 
# 
# From -- ./inp_files/26222.got.cif
#   From: 2010.05.17/outbox.cif.g08.bks.cpg/sg40_14_cif.got.tgz:26222.got - 2010.06.03 18:35:42.
