data_PCOD9363104
_publ_section_title
;
Structure prediction by ZEFSAII (Michael W. Deem and Ramdas Pophale) SiO2 
 PCOD9363104
Probable space group: A M A 2
;
_chemical_formula_sum "Si O2"
_cell_formula_units_Z 64
_cell_length_a 13.920762
_cell_length_b 12.047806
_cell_length_c 17.708361
_cell_angle_alpha 90.000000
_cell_angle_beta 90.000000
_cell_angle_gamma 90.000000
_cell_volume 2969.951389
_symmetry_space_group_name_H-M "A M A 2"
_symmetry_group_IT_number 40
_symmetry_cell_setting 'orthorhombic'
loop_
_space_group_symop_operation_xyz
x,y,z
-x,-y,z
1/2-x,y,z
1/2+x,-y,z
x,1/2+y,1/2+z
-x,1/2-y,1/2+z
1/2-x,1/2+y,1/2+z
1/2+x,1/2-y,1/2+z
loop_
_atom_site_type_symbol
_atom_site_label
_atom_site_fract_x
_atom_site_fract_y
_atom_site_fract_z
Si Si1 0.364401 0.205121 0.623750
Si Si2 0.638970 0.873430 0.095421
Si Si3 0.856079 0.488801 0.309579
Si Si4 0.001462 0.267705 0.002997
Si Si5 0.506635 0.666212 0.261889
Si Si6 0.031423 0.373569 0.844130
Si Si7 0.645502 0.575751 0.477929
Si Si8 0.862139 0.561219 0.696828
O O1 0.250000 0.180010 0.629950
O O2 0.415295 0.167434 0.546242
O O3 0.437452 0.165138 0.689038
O O4 0.375156 0.339154 0.636625
O O5 0.750000 0.842059 0.109102
O O6 0.595628 0.944074 0.166203
O O7 0.579524 0.769243 0.065372
O O8 0.637887 0.966367 0.029305
O O9 0.750000 0.454363 0.284239
O O10 0.930137 0.388565 0.319310
O O11 0.848776 0.541518 0.391384
O O12 0.904895 0.581978 0.256540
O O13 0.044143 0.324003 0.928142
O O14 0.944990 0.155406 0.982201
O O15 0.534733 0.783729 0.298818
O O16 0.111555 0.391137 0.778826
O O17 0.000000 0.500000 0.855255
O O18 0.750000 0.629710 0.497033
O O19 0.750000 0.538058 0.697694
#
# Coordination Sequence:
#
# PCOD9363104 Si02
#       8
#     8   8   8   8   8   8   8   8
#     4  10  21  38  63  92 126 174 228 277 333 411
#     4  10  21  35  61 100 130 162 218 287 353 401
#     4  10  20  37  65  98 131 161 211 286 355 407
#     4  12  22  37  63  91 126 172 220 283 337 402
#     4  10  21  39  64  95 128 174 225 274 345 412
#     4  11  25  41  61  90 140 185 227 263 340 431
#     4  10  19  32  56  93 129 157 200 268 341 401
#     4   9  20  39  63  93 126 172 229 284 343 408
#
# _framework density 21.549173
#
# number of rings (size 3 to 8) (size 9 to 14) (size 15 to 20)
#    0.000    1.750    2.500    1.875    5.250    1.000 
#    2.250    2.500    0.000    0.000    0.000    0.000 
#    0.000    0.000    0.000    0.000    0.000    0.000 
#
# Total GULP energy -178211.475115 kJ/mol
# GULP energy per Si atom -5569.108597 kJ/mol
# Density = 2.150013 g / cm^3
# Si number density = 21.549173 Si / 1000 Ang^3
#
#
#
# Elastic Constant Matrix: (Units=GPa)
#
#
# Indices 1 2 3 4 5 6 
#
# 1 85.3872 19.8454 31.3472 0.0000 0.0000 0.0000
# 2 19.8454 56.1671 15.2498 0.0000 0.0000 0.0000
# 3 31.3472 15.2498 109.2474 0.0000 0.0000 0.0000
# 4 0.0000 0.0000 0.0000 42.2645 0.0000 0.0000
# 5 0.0000 0.0000 0.0000 0.0000 26.8990 0.0000
# 6 0.0000 0.0000 0.0000 0.0000 0.0000 16.0970
#
#
#
# Elastic Compliance Matrix: (Units=1/GPa)
#
#
# Indices 1 2 3 4 5 6 
#
# 1 0.013896 -0.003978 -0.003432 0.000000 0.000000 0.000000
# 2 -0.003978 0.019644 -0.001601 0.000000 0.000000 0.000000
# 3 -0.003432 -0.001601 0.010362 0.000000 0.000000 0.000000
# 4 0.000000 0.000000 0.000000 0.023661 0.000000 0.000000
# 5 0.000000 0.000000 0.000000 0.000000 0.037176 0.000000
# 6 0.000000 0.000000 0.000000 0.000000 0.000000 0.062123
#
#
# Mechanical properties :
#
#
# Convention : Reuss Voigt Hill
#
# Bulk Modulus (GPa) = 38.63916 42.63182 40.63549
# Shear Modulus (GPa) = 25.83849 29.34272 27.59060
#
# Velocity S-wave (km/s) = 3.46648 3.69408 3.58209
# Velocity P-wave (km/s) = 5.83023 6.16615 6.00054
#
# Compressibility (1/GPa) = 0.02588048
#
# Stress axis : x y z
#
# Youngs Moduli (GPa) = 71.96396 50.90574 96.50898
#
# Poissons Ratio (x) = 0.20250 0.33121
# Poissons Ratio (y) = 0.28627 0.15448
# Poissons Ratio (z) = 0.24698 0.08148
#
# Static dielectric constant tensor:
#      x y z
#    x 1.823700 0.000000 0.000000 
#    y 0.000000 1.843470 0.000000 
#    z 0.000000 0.000000 1.863940 
# 
# From -- ./inp_files/20776.got.cif
#   From: 2010.05.17/outbox.cif.g08.bks.cpg/sg40_11_cif.got.tgz:20776.got - 2010.06.03 18:35:42.
