data_PCOD9363168
_publ_section_title
;
Structure prediction by ZEFSAII (Michael W. Deem and Ramdas Pophale) SiO2 
 PCOD9363168
Probable space group: A M A 2
;
_chemical_formula_sum "Si O2"
_cell_formula_units_Z 64
_cell_length_a 15.849826
_cell_length_b 24.065460
_cell_length_c 9.212017
_cell_angle_alpha 90.000000
_cell_angle_beta 90.000000
_cell_angle_gamma 90.000000
_cell_volume 3513.770538
_symmetry_space_group_name_H-M "A M A 2"
_symmetry_group_IT_number 40
_symmetry_cell_setting 'orthorhombic'
loop_
_space_group_symop_operation_xyz
x,y,z
-x,-y,z
1/2-x,y,z
1/2+x,-y,z
x,1/2+y,1/2+z
-x,1/2-y,1/2+z
1/2-x,1/2+y,1/2+z
1/2+x,1/2-y,1/2+z
loop_
_atom_site_type_symbol
_atom_site_label
_atom_site_fract_x
_atom_site_fract_y
_atom_site_fract_z
Si Si1 0.149622 0.271331 0.251210
Si Si2 0.932569 0.748294 0.802394
Si Si3 0.971819 0.676618 0.066499
Si Si4 0.349711 0.937542 0.914008
Si Si5 0.649617 0.323118 0.547912
Si Si6 0.149548 0.324078 0.554948
Si Si7 0.498904 0.562548 0.180868
Si Si8 0.850110 0.935751 0.913599
O O1 0.250000 0.268540 0.261971
O O2 0.123458 0.315184 0.126611
O O3 0.118644 0.212039 0.186832
O O4 0.119813 0.292746 0.407821
O O5 0.886839 0.705566 0.695038
O O6 0.979654 0.790734 0.694971
O O7 0.980769 0.709492 0.917994
O O8 0.876727 0.787785 0.906521
O O9 0.997352 0.612807 0.068108
O O10 0.250000 0.929942 0.870141
O O11 0.369733 0.888976 0.028577
O O12 0.418707 0.931992 0.785824
O O13 0.357630 0.000925 0.969139
O O14 0.750000 0.323569 0.557848
O O15 0.623527 0.386786 0.523882
O O16 0.250000 0.318984 0.562027
O O17 0.500000 0.500000 0.120729
O O18 0.414382 0.568631 0.278590
O O19 0.750000 0.927664 0.875988
#
# Coordination Sequence:
#
# PCOD9363168 Si02
#       8
#     8   8   8   8   8   8   8   8
#     4   9  18  31  50  75 105 137 170 214 265 319
#     4  11  22  33  51  75 108 136 177 221 277 320
#     4  11  21  34  52  77 104 139 178 222 272 327
#     4   9  18  31  53  81 109 142 184 225 265 313
#     4   9  17  31  51  77 107 138 175 216 265 320
#     4  10  19  34  53  78 109 141 179 222 271 326
#     4  10  19  33  54  78 108 144 183 223 270 319
#     4   9  17  31  51  81 112 143 183 225 260 316
#
# _framework density 18.214051000000001
#
# number of rings (size 3 to 8) (size 9 to 14) (size 15 to 20)
#    0.000    2.250    2.500    1.125    0.000    0.500 
#    0.000    0.000    0.000    6.750    0.000    0.000 
#    0.000    0.000    0.000    0.000    0.000    0.000 
#
# Total GULP energy -178142.907193 kJ/mol
# GULP energy per Si atom -5566.965850 kJ/mol
# Density = 1.817260 g / cm^3
# Si number density = 18.214051 Si / 1000 Ang^3
#
#
#
# Elastic Constant Matrix: (Units=GPa)
#
#
# Indices 1 2 3 4 5 6 
#
# 1 30.4465 21.5061 8.2309 0.0000 0.0000 0.0000
# 2 21.5061 154.9836 42.7335 0.0000 0.0000 0.0000
# 3 8.2309 42.7335 73.2486 0.0000 0.0000 0.0000
# 4 0.0000 0.0000 0.0000 26.3092 0.0000 0.0000
# 5 0.0000 0.0000 0.0000 0.0000 22.8549 0.0000
# 6 0.0000 0.0000 0.0000 0.0000 0.0000 24.2020
#
#
#
# Elastic Compliance Matrix: (Units=1/GPa)
#
#
# Indices 1 2 3 4 5 6 
#
# 1 0.036528 -0.004692 -0.001367 0.000000 0.000000 0.000000
# 2 -0.004692 0.008292 -0.004310 0.000000 0.000000 0.000000
# 3 -0.001367 -0.004310 0.016320 0.000000 0.000000 0.000000
# 4 0.000000 0.000000 0.000000 0.038009 0.000000 0.000000
# 5 0.000000 0.000000 0.000000 0.000000 0.043754 0.000000
# 6 0.000000 0.000000 0.000000 0.000000 0.000000 0.041319
#
#
# Mechanical properties :
#
#
# Convention : Reuss Voigt Hill
#
# Bulk Modulus (GPa) = 24.75154 44.84662 34.79908
# Shear Modulus (GPa) = 22.89070 27.08711 24.98891
#
# Velocity S-wave (km/s) = 3.54893 3.86055 3.70801
# Velocity P-wave (km/s) = 5.51470 6.67437 6.12206
#
# Compressibility (1/GPa) = 0.04040152
#
# Stress axis : x y z
#
# Youngs Moduli (GPa) = 27.37605 120.60108 61.27299
#
# Poissons Ratio (x) = 0.56583 0.08379
# Poissons Ratio (y) = 0.12844 0.26410
# Poissons Ratio (z) = 0.03744 0.51982
#
# Static dielectric constant tensor:
#      x y z
#    x 1.713790 0.000000 0.000000 
#    y 0.000000 1.657070 0.000000 
#    z 0.000000 0.000000 1.587390 
# 
# From -- ./inp_files/7796.got.cif
#   From: 2010.05.17/outbox.cif.g08.bks.cpg/sg40_4_cif.got.tgz:7796.got - 2010.06.03 18:35:42.
