data_PCOD9363901
_publ_section_title
;
Structure prediction by ZEFSAII (Michael W. Deem and Ramdas Pophale) SiO2 
 PCOD9363901
Probable space group: A M A 2
;
_chemical_formula_sum "Si O2"
_cell_formula_units_Z 64
_cell_length_a 8.971516
_cell_length_b 24.260292
_cell_length_c 15.741020
_cell_angle_alpha 90.000000
_cell_angle_beta 90.000000
_cell_angle_gamma 90.000000
_cell_volume 3426.058155
_symmetry_space_group_name_H-M "A M A 2"
_symmetry_group_IT_number 40
_symmetry_cell_setting 'orthorhombic'
loop_
_space_group_symop_operation_xyz
x,y,z
-x,-y,z
1/2-x,y,z
1/2+x,-y,z
x,1/2+y,1/2+z
-x,1/2-y,1/2+z
1/2-x,1/2+y,1/2+z
1/2+x,1/2-y,1/2+z
loop_
_atom_site_type_symbol
_atom_site_label
_atom_site_fract_x
_atom_site_fract_y
_atom_site_fract_z
Si Si1 0.573824 0.752647 0.472180
Si Si2 0.571373 0.628051 0.421900
Si Si3 0.429286 0.865246 0.729881
Si Si4 0.428226 0.637239 0.733345
Si Si5 0.429464 0.439920 0.070073
Si Si6 0.928305 0.940019 0.073588
Si Si7 0.428098 0.863936 0.409927
Si Si8 0.926398 0.251043 0.175634
O O1 0.750000 0.761610 0.455327
O O2 0.533492 0.692389 0.437190
O O3 0.482357 0.802195 0.431249
O O4 0.551294 0.752404 0.573728
O O5 0.750000 0.622769 0.434733
O O6 0.536004 0.613878 0.324456
O O7 0.488426 0.590883 0.490207
O O8 0.250000 0.857269 0.725112
O O9 0.473598 0.907284 0.655559
O O10 0.506656 0.806797 0.713766
O O11 0.250000 0.640155 0.739764
O O12 0.467991 0.596938 0.655648
O O13 0.497114 0.617974 0.822187
O O14 0.492892 0.697531 0.712683
O O15 0.500000 0.500000 0.066496
O O16 0.250000 0.444636 0.070344
O O17 0.471923 0.403014 0.988634
O O18 0.750000 0.944447 0.069708
O O19 0.000000 0.000000 0.080082
O O20 0.250000 0.864773 0.401981
O O21 0.750000 0.247371 0.192169
#
# Coordination Sequence:
#
# PCOD9363901 Si02
#       8
#     8   8   8   8   8   8   8   8
#     4  10  20  35  59  92 126 160 196 241 300 358
#     4  10  21  39  63  89 122 158 196 244 297 356
#     4  10  21  39  62  90 124 162 199 244 302 356
#     4  11  24  41  62  89 121 159 199 246 305 362
#     4  10  23  41  60  85 117 157 204 249 300 353
#     4  11  25  43  64  87 117 157 201 250 302 356
#     4  11  23  39  62  90 121 158 201 251 301 359
#     4  11  21  35  61  94 124 159 200 245 296 354
#
# _framework density 18.68036
#
# number of rings (size 3 to 8) (size 9 to 14) (size 15 to 20)
#    0.000    1.500    2.500    2.250    0.000    6.500 
#    0.000    3.750    0.000    0.000    0.000    0.000 
#    0.000    0.000    0.000    0.000    0.000    0.000 
#
# Total GULP energy -178906.843172 kJ/mol
# GULP energy per Si atom -5590.838849 kJ/mol
# Density = 1.863784 g / cm^3
# Si number density = 18.680360 Si / 1000 Ang^3
#
#
#
# Elastic Constant Matrix: (Units=GPa)
#
#
# Indices 1 2 3 4 5 6 
#
# 1 44.8887 47.8740 63.0508 0.0000 0.0000 0.0000
# 2 47.8740 133.1763 78.6758 0.0000 0.0000 0.0000
# 3 63.0508 78.6758 163.8320 0.0000 0.0000 0.0000
# 4 0.0000 0.0000 0.0000 -1.5042 0.0000 0.0000
# 5 0.0000 0.0000 0.0000 0.0000 34.3590 0.0000
# 6 0.0000 0.0000 0.0000 0.0000 0.0000 20.9009
#
#
#
# Elastic Compliance Matrix: (Units=1/GPa)
#
#
# Indices 1 2 3 4 5 6 
#
# 1 0.057544 -0.010614 -0.017049 0.000000 0.000000 0.000000
# 2 -0.010614 0.012441 -0.001889 0.000000 0.000000 0.000000
# 3 -0.017049 -0.001889 0.013572 0.000000 0.000000 0.000000
# 4 0.000000 0.000000 0.000000 -0.664793 0.000000 0.000000
# 5 0.000000 0.000000 0.000000 0.000000 0.029104 0.000000
# 6 0.000000 0.000000 0.000000 0.000000 0.000000 0.047845
#
#
# Mechanical properties :
#
#
# Convention : Reuss Voigt Hill
#
# Bulk Modulus (GPa) = 40.89561 80.12201 60.50881
# Shear Modulus (GPa) = -11.44082 20.90424 4.73171
#
# Velocity S-wave (km/s) = -2.47746 3.34885 1.59326
# Velocity P-wave (km/s) = 3.70892 7.61165 5.98721
#
# Compressibility (1/GPa) = 0.02445250
#
# Stress axis : x y z
#
# Youngs Moduli (GPa) = 17.37805 80.38223 73.67927
#
# Poissons Ratio (x) = 0.85318 1.25613
# Poissons Ratio (y) = 0.18445 0.13921
# Poissons Ratio (z) = 0.29627 0.15188
#
# Static dielectric constant tensor:
#      x y z
#    x 1.622850 0.000000 0.000000 
#    y 0.000000 1.600300 0.000000 
#    z 0.000000 0.000000 1.650850 
# 
# From -- ./inp_files/15604.got.cif
#   From: 2010.05.17/outbox.cif.g08.bks.cpg/sg40_8_cif.got.tgz:15604.got - 2010.06.03 18:35:42.
