data_PCOD9363477
_publ_section_title
;
Structure prediction by ZEFSAII (Michael W. Deem and Ramdas Pophale) SiO2 
 PCOD9363477
Probable space group: A M A 2
;
_chemical_formula_sum "Si O2"
_cell_formula_units_Z 64
_cell_length_a 18.590884
_cell_length_b 16.966018
_cell_length_c 9.603277
_cell_angle_alpha 90.000000
_cell_angle_beta 90.000000
_cell_angle_gamma 90.000000
_cell_volume 3029.001026
_symmetry_space_group_name_H-M "A M A 2"
_symmetry_group_IT_number 40
_symmetry_cell_setting 'orthorhombic'
loop_
_space_group_symop_operation_xyz
x,y,z
-x,-y,z
1/2-x,y,z
1/2+x,-y,z
x,1/2+y,1/2+z
-x,1/2-y,1/2+z
1/2-x,1/2+y,1/2+z
1/2+x,1/2-y,1/2+z
loop_
_atom_site_type_symbol
_atom_site_label
_atom_site_fract_x
_atom_site_fract_y
_atom_site_fract_z
Si Si1 0.331268 0.641441 0.449360
Si Si2 0.665844 0.100032 0.539209
Si Si3 0.456307 0.248576 0.439442
Si Si4 0.054009 0.426928 0.497704
Si Si5 0.164370 0.396968 0.727625
Si Si6 0.836469 0.757107 0.208343
Si Si7 0.081337 0.740971 0.234896
Si Si8 0.171182 0.472684 0.310554
O O1 0.250000 0.673376 0.431022
O O2 0.350577 0.667817 0.606249
O O3 0.382711 0.678869 0.336155
O O4 0.329116 0.550986 0.402484
O O5 0.750000 0.116554 0.515598
O O6 0.639376 0.084703 0.384782
O O7 0.640864 0.180212 0.615799
O O8 0.661876 0.026264 0.644267
O O9 0.475501 0.337804 0.494698
O O10 0.382897 0.243108 0.349203
O O11 0.517253 0.223315 0.329656
O O12 0.447089 0.206536 0.588700
O O13 0.111288 0.439619 0.621221
O O14 0.103291 0.425466 0.361555
O O15 0.000000 0.500000 0.493824
O O16 0.250000 0.411405 0.706992
O O17 0.142964 0.305594 0.704000
O O18 0.750000 0.753756 0.235187
O O19 0.250000 0.434344 0.332623
#
# Coordination Sequence:
#
# PCOD9363477 Si02
#       8
#     8   8   8   8   8   8   8   8
#     4  10  20  36  59  87 121 157 196 255 324 377
#     4   9  17  34  61  90 114 149 208 263 301 362
#     4  11  24  37  59  85 118 162 205 260 315 389
#     4  11  23  39  57  86 124 162 205 255 319 386
#     4  10  21  39  66  91 116 159 212 263 309 377
#     4  10  19  36  62  90 118 157 211 263 313 376
#     4  11  22  37  56  87 121 154 203 258 322 379
#     4  10  20  36  60  86 117 159 204 252 306 376
#
# _framework density 21.129078
#
# number of rings (size 3 to 8) (size 9 to 14) (size 15 to 20)
#    0.000    1.750    2.500    2.250    0.000    3.500 
#    0.000    4.375    0.000    4.500    0.000    0.000 
#    0.000    0.000    0.000    0.000    0.000    0.000 
#
# Total GULP energy -178251.999436 kJ/mol
# GULP energy per Si atom -5570.374982 kJ/mol
# Density = 2.108099 g / cm^3
# Si number density = 21.129078 Si / 1000 Ang^3
#
#
#
# Elastic Constant Matrix: (Units=GPa)
#
#
# Indices 1 2 3 4 5 6 
#
# 1 84.9062 4.3678 41.1731 0.0000 0.0000 0.0000
# 2 4.3678 33.5004 2.4116 0.0000 0.0000 0.0000
# 3 41.1731 2.4116 141.7202 0.0000 0.0000 0.0000
# 4 0.0000 0.0000 0.0000 29.5286 0.0000 0.0000
# 5 0.0000 0.0000 0.0000 0.0000 29.9000 0.0000
# 6 0.0000 0.0000 0.0000 0.0000 0.0000 -309.5221
#
#
#
# Elastic Compliance Matrix: (Units=1/GPa)
#
#
# Indices 1 2 3 4 5 6 
#
# 1 0.013785 -0.001511 -0.003979 0.000000 0.000000 0.000000
# 2 -0.001511 0.030053 -0.000072 0.000000 0.000000 0.000000
# 3 -0.003979 -0.000072 0.008213 0.000000 0.000000 0.000000
# 4 0.000000 0.000000 0.000000 0.033866 0.000000 0.000000
# 5 0.000000 0.000000 0.000000 0.000000 0.033445 0.000000
# 6 0.000000 0.000000 0.000000 0.000000 0.000000 -0.003231
#
#
# Mechanical properties :
#
#
# Convention : Reuss Voigt Hill
#
# Bulk Modulus (GPa) = 24.43428 39.55907 31.99668
# Shear Modulus (GPa) = 35.48677 -35.87376 -0.19350
#
# Velocity S-wave (km/s) = 4.10264 -4.12495 -0.30295
# Velocity P-wave (km/s) = 5.83366 1.98085 3.87994
#
# Compressibility (1/GPa) = 0.04092610
#
# Stress axis : x y z
#
# Youngs Moduli (GPa) = 72.54251 33.27501 121.75175
#
# Poissons Ratio (x) = 0.05027 0.48447
# Poissons Ratio (y) = 0.10960 0.00882
# Poissons Ratio (z) = 0.28866 0.00241
#
# Static dielectric constant tensor:
#      x y z
#    x 1.815440 0.000000 0.000000 
#    y 0.000000 1.802760 0.000000 
#    z 0.000000 0.000000 1.775270 
# 
# From -- ./inp_files/8514.got.cif
#   From: 2010.05.17/outbox.cif.g08.bks.cpg/sg40_5_cif.got.tgz:8514.got - 2010.06.03 18:35:42.
