data_PCOD9363328
_publ_section_title
;
Structure prediction by ZEFSAII (Michael W. Deem and Ramdas Pophale) SiO2 
 PCOD9363328
Probable space group: A M A 2
;
_chemical_formula_sum "Si O2"
_cell_formula_units_Z 64
_cell_length_a 9.369939
_cell_length_b 27.893576
_cell_length_c 12.419221
_cell_angle_alpha 90.000000
_cell_angle_beta 90.000000
_cell_angle_gamma 90.000000
_cell_volume 3245.901331
_symmetry_space_group_name_H-M "A M A 2"
_symmetry_group_IT_number 40
_symmetry_cell_setting 'orthorhombic'
loop_
_space_group_symop_operation_xyz
x,y,z
-x,-y,z
1/2-x,y,z
1/2+x,-y,z
x,1/2+y,1/2+z
-x,1/2-y,1/2+z
1/2-x,1/2+y,1/2+z
1/2+x,1/2-y,1/2+z
loop_
_atom_site_type_symbol
_atom_site_label
_atom_site_fract_x
_atom_site_fract_y
_atom_site_fract_z
Si Si1 0.086242 0.455320 0.452150
Si Si2 0.410255 0.194984 0.361710
Si Si3 0.078269 0.450974 0.116496
Si Si4 0.419390 0.581388 0.901093
Si Si5 0.586228 0.573678 0.692230
Si Si6 0.079966 0.371919 0.299925
Si Si7 0.910284 0.836181 0.127265
Si Si8 0.084168 0.212966 0.896499
O O1 0.250000 0.460129 0.418238
O O2 0.080173 0.455372 0.581261
O O3 0.035708 0.405491 0.401282
O O4 0.000000 0.500000 0.409686
O O5 0.250000 0.206578 0.399665
O O6 0.438146 0.139373 0.391785
O O7 0.411157 0.197502 0.231735
O O8 0.520337 0.233989 0.401625
O O9 0.250000 0.457843 0.109695
O O10 0.052004 0.406075 0.197154
O O11 0.000000 0.500000 0.152695
O O12 0.008353 0.437985 0.001613
O O13 0.250000 0.571747 0.911033
O O14 0.482522 0.560201 0.789952
O O15 0.750000 0.574895 0.729945
O O16 0.531697 0.625414 0.651805
O O17 0.250000 0.362861 0.304875
O O18 0.998463 0.322012 0.313867
O O19 0.750000 0.859262 0.126721
O O20 0.930196 0.809629 0.015504
O O21 0.250000 0.214182 0.867752
#
# Coordination Sequence:
#
# PCOD9363328 Si02
#       8
#     8   8   8   8   8   8   8   8
#     4  10  21  35  55  84 115 148 186 233 289 349
#     4   9  20  38  58  82 116 159 200 248 310 367
#     4  11  24  42  66  91 122 165 211 260 313 372
#     4  10  22  41  63  87 121 159 202 253 307 363
#     4  10  19  34  58  85 113 148 192 238 292 357
#     4  10  22  41  60  84 119 158 200 248 305 364
#     4   9  19  36  55  78 111 151 191 239 299 354
#     4  11  22  35  58  89 118 154 204 255 306 368
#
# _framework density 19.717175000000001
#
# number of rings (size 3 to 8) (size 9 to 14) (size 15 to 20)
#    0.000    2.000    1.250    2.625    0.000    7.000 
#    0.000    5.000    0.000    0.000    0.000    0.000 
#    0.000    0.000    0.000    0.000    0.000    0.000 
#
# Total GULP energy -178548.328779 kJ/mol
# GULP energy per Si atom -5579.635274 kJ/mol
# Density = 1.967230 g / cm^3
# Si number density = 19.717175 Si / 1000 Ang^3
#
#
#
# Elastic Constant Matrix: (Units=GPa)
#
#
# Indices 1 2 3 4 5 6 
#
# 1 88.1043 38.0980 31.5673 0.0000 0.0000 0.0000
# 2 38.0980 49.9734 1.0263 0.0000 0.0000 0.0000
# 3 31.5673 1.0263 74.6976 0.0000 0.0000 0.0000
# 4 0.0000 0.0000 0.0000 11.3658 0.0000 0.0000
# 5 0.0000 0.0000 0.0000 0.0000 24.7943 0.0000
# 6 0.0000 0.0000 0.0000 0.0000 0.0000 34.4356
#
#
#
# Elastic Compliance Matrix: (Units=1/GPa)
#
#
# Indices 1 2 3 4 5 6 
#
# 1 0.021566 -0.016259 -0.008891 0.000000 0.000000 0.000000
# 2 -0.016259 0.032274 0.006428 0.000000 0.000000 0.000000
# 3 -0.008891 0.006428 0.017056 0.000000 0.000000 0.000000
# 4 0.000000 0.000000 0.000000 0.087983 0.000000 0.000000
# 5 0.000000 0.000000 0.000000 0.000000 0.040332 0.000000
# 6 0.000000 0.000000 0.000000 0.000000 0.000000 0.029040
#
#
# Mechanical properties :
#
#
# Convention : Reuss Voigt Hill
#
# Bulk Modulus (GPa) = 29.89297 39.35092 34.62195
# Shear Modulus (GPa) = 18.06062 23.59139 20.82600
#
# Velocity S-wave (km/s) = 3.02981 3.46278 3.25351
# Velocity P-wave (km/s) = 5.23769 5.99907 5.63126
#
# Compressibility (1/GPa) = 0.03345268
#
# Stress axis : x y z
#
# Youngs Moduli (GPa) = 46.36884 30.98496 58.62981
#
# Poissons Ratio (x) = 0.50378 0.52125
# Poissons Ratio (y) = 0.75390 -0.37685
# Poissons Ratio (z) = 0.41224 -0.19916
#
# Static dielectric constant tensor:
#      x y z
#    x 1.687300 0.000000 0.000000 
#    y 0.000000 1.701610 0.000000 
#    z 0.000000 0.000000 1.711270 
# 
# From -- ./inp_files/10640.got.cif
#   From: 2010.05.17/outbox.cif.g08.bks.cpg/sg40_6_cif.got.tgz:10640.got - 2010.06.03 18:35:42.
