data_PCOD9363212
_publ_section_title
;
Structure prediction by ZEFSAII (Michael W. Deem and Ramdas Pophale) SiO2 
 PCOD9363212
Probable space group: A M A 2
;
_chemical_formula_sum "Si O2"
_cell_formula_units_Z 48
_cell_length_a 9.211179
_cell_length_b 23.125247
_cell_length_c 11.799550
_cell_angle_alpha 90.000000
_cell_angle_beta 90.000000
_cell_angle_gamma 90.000000
_cell_volume 2513.431462
_symmetry_space_group_name_H-M "A M A 2"
_symmetry_group_IT_number 40
_symmetry_cell_setting 'orthorhombic'
loop_
_space_group_symop_operation_xyz
x,y,z
-x,-y,z
1/2-x,y,z
1/2+x,-y,z
x,1/2+y,1/2+z
-x,1/2-y,1/2+z
1/2-x,1/2+y,1/2+z
1/2+x,1/2-y,1/2+z
loop_
_atom_site_type_symbol
_atom_site_label
_atom_site_fract_x
_atom_site_fract_y
_atom_site_fract_z
Si Si1 0.414853 0.148533 0.504110
Si Si2 0.915263 0.443640 0.800406
Si Si3 0.922493 0.729396 0.839004
Si Si4 0.423997 0.858296 0.141404
Si Si5 0.925310 0.938187 0.699424
Si Si6 0.422844 0.643307 0.401488
O O1 0.250000 0.167709 0.531222
O O2 0.410002 0.102103 0.402176
O O3 0.503284 0.201184 0.449773
O O4 0.472175 0.111433 0.609861
O O5 0.750000 0.456946 0.766681
O O6 0.000000 0.500000 0.839729
O O7 0.005084 0.414335 0.699719
O O8 0.750000 0.721377 0.850979
O O9 0.965987 0.694837 0.725346
O O10 0.952489 0.797336 0.833419
O O11 0.250000 0.862129 0.138950
O O12 0.488605 0.853203 0.016907
O O13 0.750000 0.944071 0.686818
O O14 0.956856 0.911701 0.823179
O O15 0.000000 0.000000 0.681047
O O16 0.250000 0.642122 0.426023
#
# Coordination Sequence:
#
# PCOD9363212 Si02
#       6
#     8   8   8   8   8   8
#     4   9  19  35  58  86 114 148 186 234 288 337
#     4  10  19  33  55  83 113 146 185 231 281 333
#     4   9  20  37  58  84 113 146 187 237 290 343
#     4  10  21  37  57  82 110 145 189 233 281 342
#     4  10  22  39  59  83 117 156 194 236 285 341
#     4  10  22  39  57  80 114 153 188 234 291 341
#
# _framework density 19.097397999999998
#
# number of rings (size 3 to 8) (size 9 to 14) (size 15 to 20)
#    0.000    2.333    0.000    1.500    2.333    4.000 
#    0.000    1.667    0.000    0.000    0.000    0.000 
#    0.000    0.000    0.000    0.000    0.000    0.000 
#
# Total GULP energy -133906.214299 kJ/mol
# GULP energy per Si atom -5579.425596 kJ/mol
# Density = 1.905393 g / cm^3
# Si number density = 19.097398 Si / 1000 Ang^3
#
#
#
# Elastic Constant Matrix: (Units=GPa)
#
#
# Indices 1 2 3 4 5 6 
#
# 1 39.0715 17.7988 27.8478 0.0000 0.0000 0.0000
# 2 17.7988 49.4701 4.9828 0.0000 0.0000 0.0000
# 3 27.8478 4.9828 83.0884 0.0000 0.0000 0.0000
# 4 0.0000 0.0000 0.0000 19.5753 0.0000 0.0000
# 5 0.0000 0.0000 0.0000 0.0000 21.7639 0.0000
# 6 0.0000 0.0000 0.0000 0.0000 0.0000 26.2551
#
#
#
# Elastic Compliance Matrix: (Units=1/GPa)
#
#
# Indices 1 2 3 4 5 6 
#
# 1 0.040904 -0.013417 -0.012905 0.000000 0.000000 0.000000
# 2 -0.013417 0.024738 0.003013 0.000000 0.000000 0.000000
# 3 -0.012905 0.003013 0.016180 0.000000 0.000000 0.000000
# 4 0.000000 0.000000 0.000000 0.051085 0.000000 0.000000
# 5 0.000000 0.000000 0.000000 0.000000 0.045948 0.000000
# 6 0.000000 0.000000 0.000000 0.000000 0.000000 0.038088
#
#
# Mechanical properties :
#
#
# Convention : Reuss Voigt Hill
#
# Bulk Modulus (GPa) = 28.40513 30.32099 29.36306
# Shear Modulus (GPa) = 18.16245 21.58556 19.87401
#
# Velocity S-wave (km/s) = 3.08724 3.36562 3.22943
# Velocity P-wave (km/s) = 5.25492 5.56909 5.41428
#
# Compressibility (1/GPa) = 0.03520491
#
# Stress axis : x y z
#
# Youngs Moduli (GPa) = 24.44764 40.42369 61.80554
#
# Poissons Ratio (x) = 0.54236 0.79758
# Poissons Ratio (y) = 0.32801 -0.18624
# Poissons Ratio (z) = 0.31549 -0.12181
#
# Static dielectric constant tensor:
#      x y z
#    x 1.652830 0.000000 0.000000 
#    y 0.000000 1.661410 0.000000 
#    z 0.000000 0.000000 1.664100 
# 
# From -- ./inp_files/10228.got.cif
#   From: 2010.05.17/outbox.cif.g08.bks.cpg/sg40_6_cif.got.tgz:10228.got - 2010.06.03 18:35:42.
