data_PCOD9363668
_publ_section_title
;
Structure prediction by ZEFSAII (Michael W. Deem and Ramdas Pophale) SiO2 
 PCOD9363668
Probable space group: A M A 2
;
_chemical_formula_sum "Si O2"
_cell_formula_units_Z 64
_cell_length_a 10.689062
_cell_length_b 17.503104
_cell_length_c 16.284444
_cell_angle_alpha 90.000000
_cell_angle_beta 90.000000
_cell_angle_gamma 90.000000
_cell_volume 3046.685351
_symmetry_space_group_name_H-M "A M A 2"
_symmetry_group_IT_number 40
_symmetry_cell_setting 'orthorhombic'
loop_
_space_group_symop_operation_xyz
x,y,z
-x,-y,z
1/2-x,y,z
1/2+x,-y,z
x,1/2+y,1/2+z
-x,1/2-y,1/2+z
1/2-x,1/2+y,1/2+z
1/2+x,1/2-y,1/2+z
loop_
_atom_site_type_symbol
_atom_site_label
_atom_site_fract_x
_atom_site_fract_y
_atom_site_fract_z
Si Si1 0.112070 0.816242 0.924360
Si Si2 0.893813 0.165362 0.612241
Si Si3 0.391307 0.437737 0.275026
Si Si4 0.388401 0.952765 0.203450
Si Si5 0.894724 0.226399 0.178039
Si Si6 0.605441 0.564756 0.947018
Si Si7 0.881538 0.538389 0.514721
Si Si8 0.891087 0.719527 0.867409
O O1 0.250000 0.779816 0.919746
O O2 0.101918 0.875963 0.848662
O O3 0.998623 0.758905 0.919473
O O4 0.107935 0.870914 0.003445
O O5 0.750000 0.196165 0.611781
O O6 0.903601 0.108488 0.689904
O O7 0.910410 0.115496 0.529959
O O8 0.000825 0.228860 0.626753
O O9 0.500000 0.500000 0.280627
O O10 0.250000 0.471167 0.276519
O O11 0.250000 0.960546 0.240990
O O12 0.417083 0.864193 0.187391
O O13 0.500000 0.000000 0.243863
O O14 0.377456 0.984104 0.109725
O O15 0.750000 0.238424 0.150487
O O16 0.901481 0.249875 0.274470
O O17 0.500000 0.500000 0.943949
O O18 0.750000 0.536006 0.947215
O O19 0.593263 0.627998 0.874741
O O20 0.750000 0.515102 0.476022
O O21 0.000000 0.500000 0.474801
O O22 0.750000 0.735689 0.897111
#
# Coordination Sequence:
#
# PCOD9363668 Si02
#       8
#     8   8   8   8   8   8   8   8
#     4  10  20  34  52  78 111 147 186 228 274 332
#     4  10  21  38  58  84 117 149 189 241 292 347
#     4  10  20  33  52  79 110 144 184 228 278 338
#     4   9  19  35  53  78 108 140 180 226 275 330
#     4  10  21  37  58  84 114 149 191 238 289 347
#     4  10  23  42  62  87 119 155 198 247 296 350
#     4   9  18  32  50  74 106 139 174 217 263 318
#     4  10  22  39  57  82 115 149 188 235 285 338
#
# _framework density 21.006436000000001
#
# number of rings (size 3 to 8) (size 9 to 14) (size 15 to 20)
#    0.000    2.250    1.250    0.750    1.750    3.500 
#    0.000    0.000    0.000    0.000    0.000    0.000 
#    0.000    0.000    0.000    0.000    0.000    0.000 
#
# Total GULP energy -178552.694152 kJ/mol
# GULP energy per Si atom -5579.771692 kJ/mol
# Density = 2.095862 g / cm^3
# Si number density = 21.006436 Si / 1000 Ang^3
#
#
#
# Elastic Constant Matrix: (Units=GPa)
#
#
# Indices 1 2 3 4 5 6 
#
# 1 242.0792 113.7621 19.1706 0.0000 0.0000 0.0000
# 2 113.7621 67.8788 5.1914 0.0000 0.0000 0.0000
# 3 19.1706 5.1914 78.8238 0.0000 0.0000 0.0000
# 4 0.0000 0.0000 0.0000 25.4641 0.0000 0.0000
# 5 0.0000 0.0000 0.0000 0.0000 14.8840 0.0000
# 6 0.0000 0.0000 0.0000 0.0000 0.0000 49.7423
#
#
#
# Elastic Compliance Matrix: (Units=1/GPa)
#
#
# Indices 1 2 3 4 5 6 
#
# 1 0.019992 -0.033301 -0.002669 0.000000 0.000000 0.000000
# 2 -0.033301 0.070278 0.003471 0.000000 0.000000 0.000000
# 3 -0.002669 0.003471 0.013107 0.000000 0.000000 0.000000
# 4 0.000000 0.000000 0.000000 0.039271 0.000000 0.000000
# 5 0.000000 0.000000 0.000000 0.000000 0.067186 0.000000
# 6 0.000000 0.000000 0.000000 0.000000 0.000000 0.020104
#
#
# Mechanical properties :
#
#
# Convention : Reuss Voigt Hill
#
# Bulk Modulus (GPa) = 26.05680 73.89220 49.97450
# Shear Modulus (GPa) = 16.24809 34.72858 25.48834
#
# Velocity S-wave (km/s) = 2.78417 4.07041 3.48711
# Velocity P-wave (km/s) = 4.77144 7.57254 6.32890
#
# Compressibility (1/GPa) = 0.03837770
#
# Stress axis : x y z
#
# Youngs Moduli (GPa) = 50.02101 14.22927 76.29486
#
# Poissons Ratio (x) = 0.47385 0.20362
# Poissons Ratio (y) = 1.66575 -0.26478
# Poissons Ratio (z) = 0.13350 -0.04938
#
# Static dielectric constant tensor:
#      x y z
#    x 1.777230 0.000000 0.000000 
#    y 0.000000 1.719930 0.000000 
#    z 0.000000 0.000000 1.839120 
# 
# From -- ./inp_files/20148.got.cif
#   From: 2010.05.17/outbox.cif.g08.bks.cpg/sg40_11_cif.got.tgz:20148.got - 2010.06.03 18:35:42.
