data_PCOD9363980
_publ_section_title
;
Structure prediction by ZEFSAII (Michael W. Deem and Ramdas Pophale) SiO2 
 PCOD9363980
Probable space group: A M A 2
;
_chemical_formula_sum "Si O2"
_cell_formula_units_Z 40
_cell_length_a 11.034098
_cell_length_b 13.343644
_cell_length_c 11.442248
_cell_angle_alpha 90.000000
_cell_angle_beta 90.000000
_cell_angle_gamma 90.000000
_cell_volume 1684.700249
_symmetry_space_group_name_H-M "A M A 2"
_symmetry_group_IT_number 40
_symmetry_cell_setting 'orthorhombic'
loop_
_space_group_symop_operation_xyz
x,y,z
-x,-y,z
1/2-x,y,z
1/2+x,-y,z
x,1/2+y,1/2+z
-x,1/2-y,1/2+z
1/2-x,1/2+y,1/2+z
1/2+x,1/2-y,1/2+z
loop_
_atom_site_type_symbol
_atom_site_label
_atom_site_fract_x
_atom_site_fract_y
_atom_site_fract_z
Si Si1 0.884782 0.116926 0.959440
Si Si2 0.381300 0.537980 0.239847
Si Si3 0.384782 0.616926 0.625137
Si Si4 0.491450 0.250000 0.792289
Si Si5 0.381300 0.962020 0.344729
O O1 0.750000 0.118907 0.014520
O O2 0.918885 0.221705 0.897999
O O3 0.879181 0.033934 0.855821
O O4 0.000000 0.100314 0.042288
O O5 0.500000 0.500000 0.173670
O O6 0.250000 0.528735 0.184359
O O7 0.408999 0.652928 0.271940
O O8 0.250000 0.618907 0.570057
O O9 0.418885 0.721705 0.686578
O O10 0.379181 0.533934 0.728755
O O11 0.408999 0.347072 0.812637
O O12 0.250000 0.971266 0.400218
O O13 0.500000 0.000000 0.410906
#
# Coordination Sequence:
#
# PCOD9363980 Si02
#       5
#     8   8   8   8   8
#     4  10  22  40  62  91 124 158 199 248 301 358
#     4   9  19  34  54  81 115 153 193 238 289 345
#     4  10  22  40  62  91 124 158 199 248 301 358
#     4  10  20  36  58  86 120 160 200 246 296 354
#     4   9  19  34  54  81 115 153 193 238 289 345
#
# _framework density 23.743096999999999
#
# number of rings (size 3 to 8) (size 9 to 14) (size 15 to 20)
#    0.000    2.400    0.000    1.200    0.000   16.800 
#    0.000   26.000    0.000   10.800    0.000   39.200 
#    0.000    0.000    0.000    0.000    0.000    0.000 
#
# Total GULP energy -111553.156492 kJ/mol
# GULP energy per Si atom -5577.657825 kJ/mol
# Density = 2.368906 g / cm^3
# Si number density = 23.743097 Si / 1000 Ang^3
#
#
#
# Elastic Constant Matrix: (Units=GPa)
#
#
# Indices 1 2 3 4 5 6 
#
# 1 290.0287 44.5390 45.1702 0.0000 0.0000 0.0000
# 2 44.5390 101.5368 24.1744 0.0000 0.0000 0.0000
# 3 45.1702 24.1744 70.4088 0.0000 0.0000 0.0000
# 4 0.0000 0.0000 0.0000 28.2668 0.0000 0.0000
# 5 0.0000 0.0000 0.0000 0.0000 4.4266 0.0000
# 6 0.0000 0.0000 0.0000 0.0000 0.0000 -1.2273
#
#
#
# Elastic Compliance Matrix: (Units=1/GPa)
#
#
# Indices 1 2 3 4 5 6 
#
# 1 0.003968 -0.001235 -0.002121 0.000000 0.000000 0.000000
# 2 -0.001235 0.011110 -0.003022 0.000000 0.000000 0.000000
# 3 -0.002121 -0.003022 0.016601 0.000000 0.000000 0.000000
# 4 0.000000 0.000000 0.000000 0.035377 0.000000 0.000000
# 5 0.000000 0.000000 0.000000 0.000000 0.225906 0.000000
# 6 0.000000 0.000000 0.000000 0.000000 0.000000 -0.814780
#
#
# Mechanical properties :
#
#
# Convention : Reuss Voigt Hill
#
# Bulk Modulus (GPa) = 52.84953 76.63795 64.74374
# Shear Modulus (GPa) = -9.94526 29.49927 9.77700
#
# Velocity S-wave (km/s) = -2.04885 3.52864 2.03145
# Velocity P-wave (km/s) = 4.08781 6.99642 5.72975
#
# Compressibility (1/GPa) = 0.01892164
#
# Stress axis : x y z
#
# Youngs Moduli (GPa) = 252.01131 90.00841 60.23597
#
# Poissons Ratio (x) = 0.11120 0.12779
# Poissons Ratio (y) = 0.31136 0.18203
# Poissons Ratio (z) = 0.53464 0.27200
#
# Static dielectric constant tensor:
#      x y z
#    x 1.974990 0.000000 0.000000 
#    y 0.000000 1.962040 0.000000 
#    z 0.000000 0.000000 1.945720 
# 
# From -- ./inp_files/11065.got.cif
#   From: 2010.05.17/outbox.cif.g08.bks.cpg/sg40_6_cif.got.tgz:11065.got - 2010.06.03 18:35:42.
