data_PCOD9363418
_publ_section_title
;
Structure prediction by ZEFSAII (Michael W. Deem and Ramdas Pophale) SiO2 
 PCOD9363418
Probable space group: A M A 2
;
_chemical_formula_sum "Si O2"
_cell_formula_units_Z 36
_cell_length_a 16.594603
_cell_length_b 7.014282
_cell_length_c 13.533293
_cell_angle_alpha 90.000000
_cell_angle_beta 90.000000
_cell_angle_gamma 90.000000
_cell_volume 1575.264819
_symmetry_space_group_name_H-M "A M A 2"
_symmetry_group_IT_number 40
_symmetry_cell_setting 'orthorhombic'
loop_
_space_group_symop_operation_xyz
x,y,z
-x,-y,z
1/2-x,y,z
1/2+x,-y,z
x,1/2+y,1/2+z
-x,1/2-y,1/2+z
1/2-x,1/2+y,1/2+z
1/2+x,1/2-y,1/2+z
loop_
_atom_site_type_symbol
_atom_site_label
_atom_site_fract_x
_atom_site_fract_y
_atom_site_fract_z
Si Si1 0.250000 0.307133 0.810441
Si Si2 0.584695 0.615046 0.586664
Si Si3 0.081421 0.239081 0.806963
Si Si4 0.088384 0.295987 0.371542
Si Si5 0.250000 0.351840 0.268385
Si Si6 0.750000 0.427484 0.617327
O O1 0.160886 0.332812 0.856839
O O2 0.250000 0.436577 0.713664
O O3 0.250000 0.079270 0.783347
O O4 0.500000 0.500000 0.588926
O O5 0.592304 0.732186 0.688790
O O6 0.585905 0.739622 0.487832
O O7 0.664031 0.481184 0.570531
O O8 0.990146 0.301138 0.826736
O O9 0.081745 0.022833 0.847080
O O10 0.172304 0.257074 0.318775
O O11 0.250000 0.288863 0.154760
#
# Coordination Sequence:
#
# PCOD9363418 Si02
#       6
#     4   8   8   8   4   4
#     4   8  18  34  58  82 115 160 191 247 310 341
#     4  11  20  35  60  88 117 160 205 246 308 370
#     4   9  18  34  57  79 118 150 197 249 292 359
#     4  10  19  36  58  84 114 163 199 242 312 365
#     4  10  19  35  61  82 120 164 195 251 316 356
#     4  10  21  35  59  94 117 156 210 252 300 371
#
# _framework density 22.853300999999998
#
# number of rings (size 3 to 8) (size 9 to 14) (size 15 to 20)
#    0.000    2.222    2.222    2.000    0.000    0.000 
#    0.000    0.000   24.444   32.000    0.000    0.000 
#    0.000    0.000    0.000    0.000    0.000    0.000 
#
# Total GULP energy -100261.672540 kJ/mol
# GULP energy per Si atom -5570.092919 kJ/mol
# Density = 2.280129 g / cm^3
# Si number density = 22.853301 Si / 1000 Ang^3
#
#
#
# Elastic Constant Matrix: (Units=GPa)
#
#
# Indices 1 2 3 4 5 6 
#
# 1 223.5160 -6.8069 12.2408 0.0000 0.0000 0.0000
# 2 -6.8069 73.4692 -4.4841 0.0000 0.0000 0.0000
# 3 12.2408 -4.4841 97.9280 0.0000 0.0000 0.0000
# 4 0.0000 0.0000 0.0000 22.9282 0.0000 0.0000
# 5 0.0000 0.0000 0.0000 0.0000 -145.5581 0.0000
# 6 0.0000 0.0000 0.0000 0.0000 0.0000 1.3059
#
#
#
# Elastic Compliance Matrix: (Units=1/GPa)
#
#
# Indices 1 2 3 4 5 6 
#
# 1 0.004516 0.000385 -0.000547 0.000000 0.000000 0.000000
# 2 0.000385 0.013682 0.000578 0.000000 0.000000 0.000000
# 3 -0.000547 0.000578 0.010306 0.000000 0.000000 0.000000
# 4 0.000000 0.000000 0.000000 0.043614 0.000000 0.000000
# 5 0.000000 0.000000 0.000000 0.000000 -0.006870 0.000000
# 6 0.000000 0.000000 0.000000 0.000000 0.000000 0.765757
#
#
# Mechanical properties :
#
#
# Convention : Reuss Voigt Hill
#
# Bulk Modulus (GPa) = 34.08632 44.09030 39.08831
# Shear Modulus (GPa) = 5.95273 1.99942 3.97607
#
# Velocity S-wave (km/s) = 1.61568 0.93637 1.32045
# Velocity P-wave (km/s) = 4.29281 4.52810 4.41202
#
# Compressibility (1/GPa) = 0.02933728
#
# Stress axis : x y z
#
# Youngs Moduli (GPa) = 221.45342 73.08811 97.02691
#
# Poissons Ratio (x) = -0.02814 0.05306
# Poissons Ratio (y) = -0.08526 -0.05612
# Poissons Ratio (z) = 0.12109 -0.04227
#
# Static dielectric constant tensor:
#      x y z
#    x 2.007920 0.000000 0.000000 
#    y 0.000000 1.938340 0.000000 
#    z 0.000000 0.000000 1.815710 
# 
# From -- ./inp_files/12735.got.cif
#   From: 2010.05.17/outbox.cif.g08.bks.cpg/sg40_7_cif.got.tgz:12735.got - 2010.06.03 18:35:42.
