data_PCOD9363090
_publ_section_title
;
Structure prediction by ZEFSAII (Michael W. Deem and Ramdas Pophale) SiO2 
 PCOD9363090
Probable space group: A M A 2
;
_chemical_formula_sum "Si O2"
_cell_formula_units_Z 48
_cell_length_a 15.917566
_cell_length_b 7.707824
_cell_length_c 16.828058
_cell_angle_alpha 90.000000
_cell_angle_beta 90.000000
_cell_angle_gamma 90.000000
_cell_volume 2064.631024
_symmetry_space_group_name_H-M "A M A 2"
_symmetry_group_IT_number 40
_symmetry_cell_setting 'orthorhombic'
loop_
_space_group_symop_operation_xyz
x,y,z
-x,-y,z
1/2-x,y,z
1/2+x,-y,z
x,1/2+y,1/2+z
-x,1/2-y,1/2+z
1/2-x,1/2+y,1/2+z
1/2+x,1/2-y,1/2+z
loop_
_atom_site_type_symbol
_atom_site_label
_atom_site_fract_x
_atom_site_fract_y
_atom_site_fract_z
Si Si1 0.900842 0.018778 0.651390
Si Si2 0.152051 0.385421 0.652426
Si Si3 0.149912 0.021165 0.490632
Si Si4 0.849185 0.535059 0.317586
Si Si5 0.352178 0.357702 0.821069
Si Si6 0.919999 0.616838 0.485135
O O1 0.858176 0.825989 0.656014
O O2 0.863992 0.094922 0.569402
O O3 0.883039 0.112722 0.735134
O O4 0.000000 0.000000 0.645538
O O5 0.250000 0.425898 0.647905
O O6 0.118222 0.444430 0.738724
O O7 0.112811 0.450752 0.570549
O O8 0.250000 0.073838 0.490538
O O9 0.082949 0.177100 0.499966
O O10 0.129858 0.938735 0.405983
O O11 0.750000 0.529365 0.307084
O O12 0.884126 0.339130 0.322341
O O13 0.866269 0.611291 0.404043
O O14 0.250000 0.353512 0.815992
O O15 0.000000 0.500000 0.467731
#
# Coordination Sequence:
#
# PCOD9363090 Si02
#       6
#     8   8   8   8   8   8
#     4  10  19  32  54  83 113 146 185 233 282 331
#     4   9  18  38  61  81 110 155 195 229 282 353
#     4  10  20  39  61  82 110 153 195 231 282 352
#     4  10  19  36  58  81 109 148 189 231 282 345
#     4   8  17  34  60  84 104 136 188 234 270 327
#     4  11  22  35  54  83 115 146 186 236 287 336
#
# _framework density 23.248705999999999
#
# number of rings (size 3 to 8) (size 9 to 14) (size 15 to 20)
#    0.000    2.333    0.000    5.500    0.000    2.667 
#    0.000   10.833    0.000    4.000    0.000    0.000 
#    0.000    0.000    0.000    0.000    0.000    0.000 
#
# Total GULP energy -133737.916451 kJ/mol
# GULP energy per Si atom -5572.413185 kJ/mol
# Density = 2.319579 g / cm^3
# Si number density = 23.248706 Si / 1000 Ang^3
#
#
#
# Elastic Constant Matrix: (Units=GPa)
#
#
# Indices 1 2 3 4 5 6 
#
# 1 41.3446 -9.7601 32.2668 0.0000 0.0000 0.0000
# 2 -9.7601 29.6860 19.2007 0.0000 0.0000 0.0000
# 3 32.2668 19.2007 259.8948 0.0000 0.0000 0.0000
# 4 0.0000 0.0000 0.0000 14.4119 0.0000 0.0000
# 5 0.0000 0.0000 0.0000 0.0000 -135.9866 0.0000
# 6 0.0000 0.0000 0.0000 0.0000 0.0000 -20.7240
#
#
#
# Elastic Compliance Matrix: (Units=1/GPa)
#
#
# Indices 1 2 3 4 5 6 
#
# 1 0.031132 0.013375 -0.004853 0.000000 0.000000 0.000000
# 2 0.013375 0.041122 -0.004699 0.000000 0.000000 0.000000
# 3 -0.004853 -0.004699 0.004797 0.000000 0.000000 0.000000
# 4 0.000000 0.000000 0.000000 0.069387 0.000000 0.000000
# 5 0.000000 0.000000 0.000000 0.000000 -0.007354 0.000000
# 6 0.000000 0.000000 0.000000 0.000000 0.000000 -0.048253
#
#
# Mechanical properties :
#
#
# Convention : Reuss Voigt Hill
#
# Bulk Modulus (GPa) = 11.80679 46.03780 28.92230
# Shear Modulus (GPa) = 44.87583 -9.17854 17.84864
#
# Velocity S-wave (km/s) = 4.39823 -1.98911 2.77379
# Velocity P-wave (km/s) = 5.55716 3.81705 4.76718
#
# Compressibility (1/GPa) = 0.08469700
#
# Stress axis : x y z
#
# Youngs Moduli (GPa) = 32.12139 24.31779 208.44719
#
# Poissons Ratio (x) = -0.32524 1.01164
# Poissons Ratio (y) = -0.42961 0.97940
# Poissons Ratio (z) = 0.15589 0.11426
#
# Static dielectric constant tensor:
#      x y z
#    x 1.867020 0.000000 0.000000 
#    y 0.000000 1.930990 0.000000 
#    z 0.000000 0.000000 2.016030 
# 
# From -- ./inp_files/20544.got.cif
#   From: 2010.05.17/outbox.cif.g08.bks.cpg/sg40_11_cif.got.tgz:20544.got - 2010.06.03 18:35:42.
