data_PCOD9363038
_publ_section_title
;
Structure prediction by ZEFSAII (Michael W. Deem and Ramdas Pophale) SiO2 
 PCOD9363038
Probable space group: A M A 2
;
_chemical_formula_sum "Si O2"
_cell_formula_units_Z 64
_cell_length_a 8.635618
_cell_length_b 20.195066
_cell_length_c 21.232337
_cell_angle_alpha 90.000000
_cell_angle_beta 90.000000
_cell_angle_gamma 90.000000
_cell_volume 3702.853232
_symmetry_space_group_name_H-M "A M A 2"
_symmetry_group_IT_number 40
_symmetry_cell_setting 'orthorhombic'
loop_
_space_group_symop_operation_xyz
x,y,z
-x,-y,z
1/2-x,y,z
1/2+x,-y,z
x,1/2+y,1/2+z
-x,1/2-y,1/2+z
1/2-x,1/2+y,1/2+z
1/2+x,1/2-y,1/2+z
loop_
_atom_site_type_symbol
_atom_site_label
_atom_site_fract_x
_atom_site_fract_y
_atom_site_fract_z
Si Si1 0.936202 0.705321 0.727270
Si Si2 0.065000 0.070661 0.274161
Si Si3 0.934756 0.070399 0.416093
Si Si4 0.563569 0.292695 0.108464
Si Si5 0.937736 0.712777 0.346188
Si Si6 0.064745 0.929686 0.656188
Si Si7 0.563142 0.295453 0.968431
Si Si8 0.564148 0.569871 0.303529
O O1 0.750000 0.701133 0.728032
O O2 0.987491 0.743937 0.664338
O O3 0.006678 0.632335 0.733615
O O4 0.992465 0.746862 0.787795
O O5 0.250000 0.069049 0.276859
O O6 0.000605 0.079989 0.345275
O O7 0.000000 0.000000 0.251847
O O8 0.750000 0.067568 0.413392
O O9 0.990871 0.132622 0.456203
O O10 0.000000 0.000000 0.439280
O O11 0.750000 0.296023 0.111657
O O12 0.498947 0.365926 0.120746
O O13 0.520186 0.270941 0.038022
O O14 0.750000 0.715920 0.341165
O O15 0.983709 0.747080 0.411593
O O16 0.984837 0.636055 0.339794
O O17 0.250000 0.930592 0.653180
O O18 0.017029 0.923025 0.729980
O O19 0.000000 0.000000 0.633061
O O20 0.750000 0.301859 0.965751
O O21 0.500000 0.500000 0.327198
O O22 0.750000 0.566796 0.304802
#
# Coordination Sequence:
#
# PCOD9363038 Si02
#       8
#     8   8   8   8   8   8   8   8
#     4  11  21  34  55  82 110 140 180 225 271 319
#     4  11  21  35  56  82 111 141 177 223 272 324
#     4  11  21  34  53  79 109 144 183 222 267 320
#     4  10  22  37  53  77 109 146 184 223 267 321
#     4  10  19  34  56  79 104 138 181 223 270 321
#     4  10  19  32  51  75 106 142 180 220 264 317
#     4  10  21  37  55  76 107 146 183 221 269 320
#     4   9  18  31  50  78 105 133 171 215 267 318
#
# _framework density 17.283968000000002
#
# number of rings (size 3 to 8) (size 9 to 14) (size 15 to 20)
#    0.000    1.750    2.500    3.750    0.000    2.500 
#    0.000    0.000    0.000    0.750    0.000    1.750 
#    0.000    0.000    0.000    0.000    0.000    0.000 
#
# Total GULP energy -178683.132912 kJ/mol
# GULP energy per Si atom -5583.847903 kJ/mol
# Density = 1.724463 g / cm^3
# Si number density = 17.283968 Si / 1000 Ang^3
#
#
#
# Elastic Constant Matrix: (Units=GPa)
#
#
# Indices 1 2 3 4 5 6 
#
# 1 42.2492 34.2214 36.0854 0.0000 0.0000 0.0000
# 2 34.2214 139.6016 74.0973 0.0000 0.0000 0.0000
# 3 36.0854 74.0973 116.3098 0.0000 0.0000 0.0000
# 4 0.0000 0.0000 0.0000 22.3134 0.0000 0.0000
# 5 0.0000 0.0000 0.0000 0.0000 14.7187 0.0000
# 6 0.0000 0.0000 0.0000 0.0000 0.0000 28.6570
#
#
#
# Elastic Compliance Matrix: (Units=1/GPa)
#
#
# Indices 1 2 3 4 5 6 
#
# 1 0.033683 -0.004095 -0.007842 0.000000 0.000000 0.000000
# 2 -0.004095 0.011321 -0.005942 0.000000 0.000000 0.000000
# 3 -0.007842 -0.005942 0.014816 0.000000 0.000000 0.000000
# 4 0.000000 0.000000 0.000000 0.044816 0.000000 0.000000
# 5 0.000000 0.000000 0.000000 0.000000 0.067941 0.000000
# 6 0.000000 0.000000 0.000000 0.000000 0.000000 0.034895
#
#
# Mechanical properties :
#
#
# Convention : Reuss Voigt Hill
#
# Bulk Modulus (GPa) = 41.55632 65.21876 53.38754
# Shear Modulus (GPa) = 19.90050 23.38826 21.64438
#
# Velocity S-wave (km/s) = 3.39689 3.68255 3.54260
# Velocity P-wave (km/s) = 6.28336 7.47644 6.90571
#
# Compressibility (1/GPa) = 0.02406373
#
# Stress axis : x y z
#
# Youngs Moduli (GPa) = 29.68813 88.33362 67.49524
#
# Poissons Ratio (x) = 0.36171 0.52928
# Poissons Ratio (y) = 0.12157 0.40103
# Poissons Ratio (z) = 0.23281 0.52485
#
# Static dielectric constant tensor:
#      x y z
#    x 1.582710 0.000000 0.000000 
#    y 0.000000 1.581360 0.000000 
#    z 0.000000 0.000000 1.589820 
# 
# From -- ./inp_files/19649.got.cif
#   From: 2010.05.17/outbox.cif.g08.bks.cpg/sg40_10_cif.got.tgz:19649.got - 2010.06.03 18:35:42.
