data_PCOD9363406
_publ_section_title
;
Structure prediction by ZEFSAII (Michael W. Deem and Ramdas Pophale) SiO2 
 PCOD9363406
Probable space group: A M A 2
;
_chemical_formula_sum "Si O2"
_cell_formula_units_Z 28
_cell_length_a 5.643308
_cell_length_b 24.190014
_cell_length_c 7.848015
_cell_angle_alpha 90.000000
_cell_angle_beta 90.000000
_cell_angle_gamma 90.000000
_cell_volume 1071.345866
_symmetry_space_group_name_H-M "A M A 2"
_symmetry_group_IT_number 40
_symmetry_cell_setting 'orthorhombic'
loop_
_space_group_symop_operation_xyz
x,y,z
-x,-y,z
1/2-x,y,z
1/2+x,-y,z
x,1/2+y,1/2+z
-x,1/2-y,1/2+z
1/2-x,1/2+y,1/2+z
1/2+x,1/2-y,1/2+z
loop_
_atom_site_type_symbol
_atom_site_label
_atom_site_fract_x
_atom_site_fract_y
_atom_site_fract_z
Si Si1 0.750000 0.501699 0.610811
Si Si2 0.250000 0.717245 0.060451
Si Si3 0.750000 0.595501 0.059906
Si Si4 0.250000 0.291055 0.886451
Si Si5 0.250000 0.118917 0.081901
Si Si6 0.750000 0.622559 0.447216
Si Si7 0.250000 0.593111 0.988771
O O1 0.500000 0.500000 0.707215
O O2 0.750000 0.444166 0.507960
O O3 0.750000 0.557693 0.503614
O O4 0.498812 0.725741 0.966444
O O5 0.250000 0.759541 0.211787
O O6 0.250000 0.651149 0.094413
O O7 0.750000 0.642243 0.909991
O O8 0.750000 0.625341 0.243703
O O9 0.498699 0.565918 0.038524
O O10 0.499112 0.144438 0.021543
O O11 0.250000 0.110203 0.287315
#
# Coordination Sequence:
#
# PCOD9363406 Si02
#       7
#     4   4   4   4   4   4   4
#     4   8  16  30  54  80 108 142 186 226 270 330
#     4  10  21  40  60  83 115 150 191 236 287 340
#     4  10  21  38  57  85 118 149 189 236 287 337
#     4  10  21  40  60  83 115 150 191 236 287 340
#     4  10  19  35  60  85 113 150 193 234 280 340
#     4  10  19  35  60  85 113 150 193 234 280 340
#     4  10  21  38  57  85 118 149 189 236 287 337
#
# _framework density 26.135349999999999
#
# number of rings (size 3 to 8) (size 9 to 14) (size 15 to 20)
#    0.000    2.286    0.000    2.571    0.000    0.000 
#    0.000   34.286    0.000   46.286    0.000    0.000 
#    0.000    0.000    0.000    0.000    0.000    0.000 
#
# Total GULP energy -78184.548203 kJ/mol
# GULP energy per Si atom -5584.610586 kJ/mol
# Density = 2.607587 g / cm^3
# Si number density = 26.135350 Si / 1000 Ang^3
#
#
#
# Elastic Constant Matrix: (Units=GPa)
#
#
# Indices 1 2 3 4 5 6 
#
# 1 381.4214 3.1085 57.1792 0.0000 0.0000 0.0000
# 2 3.1085 119.4403 -6.3538 0.0000 0.0000 0.0000
# 3 57.1792 -6.3538 41.4139 0.0000 0.0000 0.0000
# 4 0.0000 0.0000 0.0000 28.8610 0.0000 0.0000
# 5 0.0000 0.0000 0.0000 0.0000 48.4727 0.0000
# 6 0.0000 0.0000 0.0000 0.0000 0.0000 -0.2796
#
#
#
# Elastic Compliance Matrix: (Units=1/GPa)
#
#
# Indices 1 2 3 4 5 6 
#
# 1 0.003319 -0.000333 -0.004634 0.000000 0.000000 0.000000
# 2 -0.000333 0.008475 0.001760 0.000000 0.000000 0.000000
# 3 -0.004634 0.001760 0.030814 0.000000 0.000000 0.000000
# 4 0.000000 0.000000 0.000000 0.034649 0.000000 0.000000
# 5 0.000000 0.000000 0.000000 0.000000 0.020630 0.000000
# 6 0.000000 0.000000 0.000000 0.000000 0.000000 -3.577172
#
#
# Mechanical properties :
#
#
# Convention : Reuss Voigt Hill
#
# Bulk Modulus (GPa) = 27.62862 72.23815 49.93338
# Shear Modulus (GPa) = -1.44475 47.96694 23.26110
#
# Velocity S-wave (km/s) = -0.74431 4.28872 2.98656
# Velocity P-wave (km/s) = 3.13937 7.22663 5.57135
#
# Compressibility (1/GPa) = 0.03619436
#
# Stress axis : x y z
#
# Youngs Moduli (GPa) = 301.28391 117.99876 32.45264
#
# Poissons Ratio (x) = 0.03928 0.15038
# Poissons Ratio (y) = 0.10029 -0.05711
# Poissons Ratio (z) = 1.39606 -0.20766
#
# Static dielectric constant tensor:
#      x y z
#    x 2.083470 0.000000 0.000000 
#    y 0.000000 2.039340 0.000000 
#    z 0.000000 0.000000 2.034860 
# 
# From -- ./inp_files/3657.got.cif
#   From: 2010.05.17/outbox.cif.g08.bks.cpg/sg40_2_cif.got.tgz:3657.got - 2010.06.03 18:35:42.
