data_PCOD9363216
_publ_section_title
;
Structure prediction by ZEFSAII (Michael W. Deem and Ramdas Pophale) SiO2 
 PCOD9363216
Probable space group: A M A 2
;
_chemical_formula_sum "Si O2"
_cell_formula_units_Z 64
_cell_length_a 8.636718
_cell_length_b 19.961403
_cell_length_c 20.993697
_cell_angle_alpha 90.000000
_cell_angle_beta 90.000000
_cell_angle_gamma 90.000000
_cell_volume 3619.334537
_symmetry_space_group_name_H-M "A M A 2"
_symmetry_group_IT_number 40
_symmetry_cell_setting 'orthorhombic'
loop_
_space_group_symop_operation_xyz
x,y,z
-x,-y,z
1/2-x,y,z
1/2+x,-y,z
x,1/2+y,1/2+z
-x,1/2-y,1/2+z
1/2-x,1/2+y,1/2+z
1/2+x,1/2-y,1/2+z
loop_
_atom_site_type_symbol
_atom_site_label
_atom_site_fract_x
_atom_site_fract_y
_atom_site_fract_z
Si Si1 0.433716 0.795220 0.188410
Si Si2 0.435558 0.208607 0.436816
Si Si3 0.935310 0.214365 0.807779
Si Si4 0.434766 0.571015 0.740017
Si Si5 0.434792 0.571608 0.116285
Si Si6 0.564673 0.572113 0.883461
Si Si7 0.565074 0.069562 0.759498
Si Si8 0.434202 0.789237 0.571077
O O1 0.250000 0.803321 0.185394
O O2 0.478912 0.752586 0.250978
O O3 0.514361 0.867057 0.196881
O O4 0.493828 0.755373 0.127116
O O5 0.250000 0.207038 0.442917
O O6 0.476124 0.253973 0.375657
O O7 0.497279 0.134028 0.422605
O O8 0.510496 0.234117 0.501829
O O9 0.750000 0.224259 0.798307
O O10 0.966644 0.135390 0.800940
O O11 0.500000 0.500000 0.716434
O O12 0.750000 0.431784 0.746549
O O13 0.507837 0.581253 0.810382
O O14 0.500000 0.500000 0.093783
O O15 0.250000 0.572183 0.112077
O O16 0.486856 0.578514 0.190215
O O17 0.505203 0.634927 0.080304
O O18 0.500000 0.500000 0.904853
O O19 0.750000 0.571924 0.885443
O O20 0.750000 0.064087 0.750038
O O21 0.500000 0.000000 0.786485
O O22 0.250000 0.788511 0.576408
#
# Coordination Sequence:
#
# PCOD9363216 Si02
#       8
#     8   8   8   8   8   8   8   8
#     4  12  23  37  61  89 116 151 197 241 291 348
#     4  11  23  40  59  83 115 153 196 242 294 347
#     4  10  21  37  60  85 116 152 191 239 291 342
#     4  11  21  36  58  87 120 153 191 240 292 342
#     4  11  21  35  55  82 114 153 194 236 283 342
#     4  11  21  35  55  83 116 155 197 237 284 342
#     4  10  19  33  55  85 117 150 187 233 287 338
#     4  12  25  41  58  82 117 155 196 243 295 349
#
# _framework density 17.682808000000001
#
# number of rings (size 3 to 8) (size 9 to 14) (size 15 to 20)
#    0.000    1.000    2.500    7.875    0.000    1.500 
#    0.000    2.500    0.000    0.750    0.000    3.500 
#    0.000    0.000    0.000    0.000    0.000    0.000 
#
# Total GULP energy -178946.813291 kJ/mol
# GULP energy per Si atom -5592.087915 kJ/mol
# Density = 1.764256 g / cm^3
# Si number density = 17.682808 Si / 1000 Ang^3
#
#
#
# Elastic Constant Matrix: (Units=GPa)
#
#
# Indices 1 2 3 4 5 6 
#
# 1 93.0716 27.6139 19.3344 0.0000 0.0000 0.0000
# 2 27.6139 95.9912 35.7942 0.0000 0.0000 0.0000
# 3 19.3344 35.7942 76.8870 0.0000 0.0000 0.0000
# 4 0.0000 0.0000 0.0000 19.8737 0.0000 0.0000
# 5 0.0000 0.0000 0.0000 0.0000 25.3731 0.0000
# 6 0.0000 0.0000 0.0000 0.0000 0.0000 41.5376
#
#
#
# Elastic Compliance Matrix: (Units=1/GPa)
#
#
# Indices 1 2 3 4 5 6 
#
# 1 0.011927 -0.002798 -0.001696 0.000000 0.000000 0.000000
# 2 -0.002798 0.013263 -0.005471 0.000000 0.000000 0.000000
# 3 -0.001696 -0.005471 0.015979 0.000000 0.000000 0.000000
# 4 0.000000 0.000000 0.000000 0.050318 0.000000 0.000000
# 5 0.000000 0.000000 0.000000 0.000000 0.039412 0.000000
# 6 0.000000 0.000000 0.000000 0.000000 0.000000 0.024075
#
#
# Mechanical properties :
#
#
# Convention : Reuss Voigt Hill
#
# Bulk Modulus (GPa) = 47.08504 47.93721 47.51113
# Shear Modulus (GPa) = 27.47500 29.57071 28.52285
#
# Velocity S-wave (km/s) = 3.94606 4.09380 4.02061
# Velocity P-wave (km/s) = 6.88820 7.03661 6.96280
#
# Compressibility (1/GPa) = 0.02123817
#
# Stress axis : x y z
#
# Youngs Moduli (GPa) = 83.84250 75.40003 62.58020
#
# Poissons Ratio (x) = 0.21101 0.10616
# Poissons Ratio (y) = 0.23463 0.34235
# Poissons Ratio (z) = 0.14223 0.41248
#
# Static dielectric constant tensor:
#      x y z
#    x 1.587220 0.000000 0.000000 
#    y 0.000000 1.613430 0.000000 
#    z 0.000000 0.000000 1.591740 
# 
# From -- ./inp_files/22390.got.cif
#   From: 2010.05.17/outbox.cif.g08.bks.cpg/sg40_12_cif.got.tgz:22390.got - 2010.06.03 18:35:42.
