data_PCOD9363716
_publ_section_title
;
Structure prediction by ZEFSAII (Michael W. Deem and Ramdas Pophale) SiO2 
 PCOD9363716
Probable space group: A M A 2
;
_chemical_formula_sum "Si O2"
_cell_formula_units_Z 48
_cell_length_a 14.672679
_cell_length_b 16.647648
_cell_length_c 9.550354
_cell_angle_alpha 90.000000
_cell_angle_beta 90.000000
_cell_angle_gamma 90.000000
_cell_volume 2332.822904
_symmetry_space_group_name_H-M "A M A 2"
_symmetry_group_IT_number 40
_symmetry_cell_setting 'orthorhombic'
loop_
_space_group_symop_operation_xyz
x,y,z
-x,-y,z
1/2-x,y,z
1/2+x,-y,z
x,1/2+y,1/2+z
-x,1/2-y,1/2+z
1/2-x,1/2+y,1/2+z
1/2+x,1/2-y,1/2+z
loop_
_atom_site_type_symbol
_atom_site_label
_atom_site_fract_x
_atom_site_fract_y
_atom_site_fract_z
Si Si1 0.112055 0.662335 0.740860
Si Si2 0.099683 0.235003 0.517465
Si Si3 0.888579 0.160956 0.261210
Si Si4 0.602536 0.179338 0.577754
Si Si5 0.855032 0.109919 0.856439
Si Si6 0.609377 0.502199 0.599395
O O1 0.138518 0.738718 0.647537
O O2 0.141151 0.581173 0.664882
O O3 0.000347 0.662503 0.751967
O O4 0.144041 0.678441 0.899875
O O5 0.143419 0.266396 0.661193
O O6 0.085368 0.320051 0.432516
O O7 0.005412 0.193384 0.559925
O O8 0.861591 0.166238 0.422158
O O9 0.858942 0.077224 0.193065
O O10 0.621676 0.111128 0.692811
O O11 0.750000 0.135392 0.872943
O O12 0.866478 0.027419 0.941044
O O13 0.500000 0.500000 0.605355
#
# Coordination Sequence:
#
# PCOD9363716 Si02
#       6
#     8   8   8   8   8   8
#     4   8  14  26  47  72  99 130 177 225 257 304
#     4   8  15  29  51  74 100 139 186 225 266 331
#     4   8  14  26  46  71  99 130 172 221 265 316
#     4   9  16  30  51  77 105 139 181 223 269 334
#     4  10  20  34  52  80 115 148 181 229 288 337
#     4   9  17  31  49  74 105 142 183 221 267 332
#
# _framework density 20.57593
#
# number of rings (size 3 to 8) (size 9 to 14) (size 15 to 20)
#    0.000    3.333    0.000    2.000    0.000    0.000 
#    0.000   12.500    0.000    0.000    0.000   15.167 
#    0.000    0.000    0.000    0.000    0.000    0.000 
#
# Total GULP energy -133691.988985 kJ/mol
# GULP energy per Si atom -5570.499541 kJ/mol
# Density = 2.052910 g / cm^3
# Si number density = 20.575930 Si / 1000 Ang^3
#
#
#
# Elastic Constant Matrix: (Units=GPa)
#
#
# Indices 1 2 3 4 5 6 
#
# 1 78.1541 9.6480 14.1041 0.0000 0.0000 0.0000
# 2 9.6480 102.1903 81.1798 0.0000 0.0000 0.0000
# 3 14.1041 81.1798 224.5148 0.0000 0.0000 0.0000
# 4 0.0000 0.0000 0.0000 41.7838 0.0000 0.0000
# 5 0.0000 0.0000 0.0000 0.0000 -13.5210 0.0000
# 6 0.0000 0.0000 0.0000 0.0000 0.0000 -7.8057
#
#
#
# Elastic Compliance Matrix: (Units=1/GPa)
#
#
# Indices 1 2 3 4 5 6 
#
# 1 0.012990 -0.000811 -0.000523 0.000000 0.000000 0.000000
# 2 -0.000811 0.013780 -0.004932 0.000000 0.000000 0.000000
# 3 -0.000523 -0.004932 0.006270 0.000000 0.000000 0.000000
# 4 0.000000 0.000000 0.000000 0.023933 0.000000 0.000000
# 5 0.000000 0.000000 0.000000 0.000000 -0.073959 0.000000
# 6 0.000000 0.000000 0.000000 0.000000 0.000000 -0.128112
#
#
# Mechanical properties :
#
#
# Convention : Reuss Voigt Hill
#
# Bulk Modulus (GPa) = 48.75963 68.30257 58.53110
# Shear Modulus (GPa) = -39.76731 24.08658 -7.84037
#
# Velocity S-wave (km/s) = -4.40103 3.42514 -1.95416
# Velocity P-wave (km/s) = 1.44103 6.99354 4.83906
#
# Compressibility (1/GPa) = 0.02050877
#
# Stress axis : x y z
#
# Youngs Moduli (GPa) = 76.98406 72.56969 159.48880
#
# Poissons Ratio (x) = 0.05886 0.08337
# Poissons Ratio (y) = 0.06244 0.78653
# Poissons Ratio (z) = 0.04024 0.35788
#
# Static dielectric constant tensor:
#      x y z
#    x 1.765190 0.000000 0.000000 
#    y 0.000000 1.719860 0.000000 
#    z 0.000000 0.000000 1.764000 
# 
# From -- ./inp_files/7581.got.cif
#   From: 2010.05.17/outbox.cif.g08.bks.cpg/sg40_4_cif.got.tgz:7581.got - 2010.06.03 18:35:42.
