data_PCOD9363086
_publ_section_title
;
Structure prediction by ZEFSAII (Michael W. Deem and Ramdas Pophale) SiO2 
 PCOD9363086
Probable space group: A M A 2
;
_chemical_formula_sum "Si O2"
_cell_formula_units_Z 64
_cell_length_a 7.623089
_cell_length_b 17.849509
_cell_length_c 21.508061
_cell_angle_alpha 90.000000
_cell_angle_beta 90.000000
_cell_angle_gamma 90.000000
_cell_volume 2926.567355
_symmetry_space_group_name_H-M "A M A 2"
_symmetry_group_IT_number 40
_symmetry_cell_setting 'orthorhombic'
loop_
_space_group_symop_operation_xyz
x,y,z
-x,-y,z
1/2-x,y,z
1/2+x,-y,z
x,1/2+y,1/2+z
-x,1/2-y,1/2+z
1/2-x,1/2+y,1/2+z
1/2+x,1/2-y,1/2+z
loop_
_atom_site_type_symbol
_atom_site_label
_atom_site_fract_x
_atom_site_fract_y
_atom_site_fract_z
Si Si1 0.455936 0.131605 0.868060
Si Si2 0.040222 0.218638 0.235145
Si Si3 0.539845 0.418659 0.969177
Si Si4 0.958332 0.082249 0.002905
Si Si5 0.955597 0.304492 0.868605
Si Si6 0.034529 0.622962 0.103306
Si Si7 0.550457 0.891810 0.736231
Si Si8 0.539742 0.703535 0.600392
O O1 0.250000 0.141074 0.855933
O O2 0.477128 0.088457 0.932200
O O3 0.529395 0.215263 0.878059
O O4 0.530337 0.094354 0.804575
O O5 0.250000 0.231206 0.239862
O O6 0.977093 0.180560 0.298839
O O7 0.951429 0.300590 0.232993
O O8 0.003093 0.178044 0.170454
O O9 0.500000 0.500000 0.942194
O O10 0.750000 0.409434 0.974305
O O11 0.468971 0.353110 0.924749
O O12 0.472955 0.414869 0.039916
O O13 0.750000 0.090757 0.999904
O O14 0.028835 0.148237 0.047218
O O15 0.000000 0.000000 0.028136
O O16 0.750000 0.323122 0.867235
O O17 0.250000 0.621729 0.106617
O O18 0.969831 0.589219 0.168982
O O19 0.979653 0.710250 0.096551
O O20 0.750000 0.920864 0.736526
O O21 0.750000 0.705735 0.594209
#
# Coordination Sequence:
#
# PCOD9363086 Si02
#       8
#     8   8   8   8   8   8   8   8
#     4  10  19  32  54  81 105 131 167 211 254 301
#     4   9  16  27  48  77 104 127 159 208 254 294
#     4  10  20  34  50  69  98 135 172 209 248 292
#     4  11  23  38  54  73 102 138 174 213 258 309
#     4   9  18  33  52  75 104 137 170 206 253 304
#     4   8  14  29  53  74  94 126 165 201 242 295
#     4   8  15  29  49  74 103 132 164 202 248 303
#     4   9  18  34  55  75  96 128 166 204 253 310
#
# _framework density 21.868624000000001
#
# number of rings (size 3 to 8) (size 9 to 14) (size 15 to 20)
#    0.000    2.750    0.000    2.625    0.000    4.500 
#    0.000    3.750    0.000    4.500    0.000    0.000 
#    0.000    0.000    0.000    0.000    0.000    0.000 
#
# Total GULP energy -178450.975404 kJ/mol
# GULP energy per Si atom -5576.592981 kJ/mol
# Density = 2.181885 g / cm^3
# Si number density = 21.868624 Si / 1000 Ang^3
#
#
#
# Elastic Constant Matrix: (Units=GPa)
#
#
# Indices 1 2 3 4 5 6 
#
# 1 47.7953 -8.4181 2.0080 0.0000 0.0000 0.0000
# 2 -8.4181 72.8740 49.2171 0.0000 0.0000 0.0000
# 3 2.0080 49.2171 132.5724 0.0000 0.0000 0.0000
# 4 0.0000 0.0000 0.0000 -23.7588 0.0000 0.0000
# 5 0.0000 0.0000 0.0000 0.0000 11.8021 0.0000
# 6 0.0000 0.0000 0.0000 0.0000 0.0000 12.6773
#
#
#
# Elastic Compliance Matrix: (Units=1/GPa)
#
#
# Indices 1 2 3 4 5 6 
#
# 1 0.021632 0.003630 -0.001675 0.000000 0.000000 0.000000
# 2 0.003630 0.018924 -0.007080 0.000000 0.000000 0.000000
# 3 -0.001675 -0.007080 0.010197 0.000000 0.000000 0.000000
# 4 0.000000 0.000000 0.000000 -0.042090 0.000000 0.000000
# 5 0.000000 0.000000 0.000000 0.000000 0.084730 0.000000
# 6 0.000000 0.000000 0.000000 0.000000 0.000000 0.078881
#
#
# Mechanical properties :
#
#
# Convention : Reuss Voigt Hill
#
# Bulk Modulus (GPa) = 24.69000 37.65064 31.17032
# Shear Modulus (GPa) = 25.50685 14.17312 19.83998
#
# Velocity S-wave (km/s) = 3.41892 2.54855 3.01530
# Velocity P-wave (km/s) = 5.18652 5.09060 5.13879
#
# Compressibility (1/GPa) = 0.04050222
#
# Stress axis : x y z
#
# Youngs Moduli (GPa) = 46.22704 52.84429 98.06840
#
# Poissons Ratio (x) = -0.19185 0.16431
# Poissons Ratio (y) = -0.16782 0.69435
# Poissons Ratio (z) = 0.07745 0.37415
#
# Static dielectric constant tensor:
#      x y z
#    x 1.819300 0.000000 0.000000 
#    y 0.000000 1.749590 0.000000 
#    z 0.000000 0.000000 1.870680 
# 
# From -- ./inp_files/22375.got.cif
#   From: 2010.05.17/outbox.cif.g08.bks.cpg/sg40_12_cif.got.tgz:22375.got - 2010.06.03 18:35:42.
