data_PCOD9363769
_publ_section_title
;
Structure prediction by ZEFSAII (Michael W. Deem and Ramdas Pophale) SiO2 
 PCOD9363769
Probable space group: A M A 2
;
_chemical_formula_sum "Si O2"
_cell_formula_units_Z 56
_cell_length_a 20.827181
_cell_length_b 12.040824
_cell_length_c 9.649028
_cell_angle_alpha 90.000000
_cell_angle_beta 90.000000
_cell_angle_gamma 90.000000
_cell_volume 2419.748706
_symmetry_space_group_name_H-M "A M A 2"
_symmetry_group_IT_number 40
_symmetry_cell_setting 'orthorhombic'
loop_
_space_group_symop_operation_xyz
x,y,z
-x,-y,z
1/2-x,y,z
1/2+x,-y,z
x,1/2+y,1/2+z
-x,1/2-y,1/2+z
1/2-x,1/2+y,1/2+z
1/2+x,1/2-y,1/2+z
loop_
_atom_site_type_symbol
_atom_site_label
_atom_site_fract_x
_atom_site_fract_y
_atom_site_fract_z
Si Si1 0.111979 0.751955 0.494160
Si Si2 0.674841 0.531485 0.895197
Si Si3 0.176865 0.885041 0.080246
Si Si4 0.507181 0.621619 0.104189
Si Si5 0.863211 0.342013 0.196730
Si Si6 0.324661 0.681271 0.763948
Si Si7 0.872223 0.576285 0.300429
O O1 0.037333 0.781660 0.510202
O O2 0.136714 0.700752 0.354057
O O3 0.135765 0.678403 0.621675
O O4 0.140749 0.877797 0.490145
O O5 0.750000 0.534167 0.929899
O O6 0.666254 0.568288 0.734851
O O7 0.651736 0.403945 0.882856
O O8 0.250000 0.913002 0.039525
O O9 0.171639 0.751641 0.105853
O O10 0.128622 0.937289 0.967279
O O11 0.500000 0.500000 0.034931
O O12 0.437595 0.655772 0.154148
O O13 0.558036 0.602217 0.231611
O O14 0.843161 0.470651 0.217904
O O15 0.250000 0.654203 0.739882
O O16 0.331148 0.810939 0.796475
#
# Coordination Sequence:
#
# PCOD9363769 Si02
#       7
#     8   8   8   8   8   8   8
#     4  10  20  37  60  83 113 155 197 243 306 346
#     4   9  19  36  56  84 119 152 194 242 296 359
#     4  10  21  36  59  88 118 154 195 245 299 358
#     4   9  21  39  56  80 112 156 193 243 290 351
#     4  10  22  39  60  85 118 154 199 245 301 358
#     4  10  20  34  56  86 118 154 195 239 293 356
#     4  10  21  37  57  83 120 153 198 243 297 353
#
# _framework density 23.142897999999999
#
# number of rings (size 3 to 8) (size 9 to 14) (size 15 to 20)
#    0.000    2.286    0.000    1.714    2.000    5.143 
#    2.571    0.000    0.000    0.000    0.000    0.000 
#    0.000    0.000    0.000    0.000    0.000    0.000 
#
# Total GULP energy -156203.790434 kJ/mol
# GULP energy per Si atom -5578.706801 kJ/mol
# Density = 2.309022 g / cm^3
# Si number density = 23.142898 Si / 1000 Ang^3
#
#
#
# Elastic Constant Matrix: (Units=GPa)
#
#
# Indices 1 2 3 4 5 6 
#
# 1 46.5120 4.1836 -4.5461 0.0000 0.0000 0.0000
# 2 4.1836 125.5435 4.1676 0.0000 0.0000 0.0000
# 3 -4.5461 4.1676 35.0015 0.0000 0.0000 0.0000
# 4 0.0000 0.0000 0.0000 41.4487 0.0000 0.0000
# 5 0.0000 0.0000 0.0000 0.0000 15.2999 0.0000
# 6 0.0000 0.0000 0.0000 0.0000 0.0000 27.2050
#
#
#
# Elastic Compliance Matrix: (Units=1/GPa)
#
#
# Indices 1 2 3 4 5 6 
#
# 1 0.021861 -0.000826 0.002938 0.000000 0.000000 0.000000
# 2 -0.000826 0.008028 -0.001063 0.000000 0.000000 0.000000
# 3 0.002938 -0.001063 0.029078 0.000000 0.000000 0.000000
# 4 0.000000 0.000000 0.000000 0.024126 0.000000 0.000000
# 5 0.000000 0.000000 0.000000 0.000000 0.065360 0.000000
# 6 0.000000 0.000000 0.000000 0.000000 0.000000 0.036758
#
#
# Mechanical properties :
#
#
# Convention : Reuss Voigt Hill
#
# Bulk Modulus (GPa) = 16.37602 23.85191 20.11397
# Shear Modulus (GPa) = 24.57367 30.34084 27.45725
#
# Velocity S-wave (km/s) = 3.26210 3.62473 3.44819
# Velocity P-wave (km/s) = 4.61300 5.27702 4.95615
#
# Compressibility (1/GPa) = 0.06106489
#
# Stress axis : x y z
#
# Youngs Moduli (GPa) = 45.74299 124.56107 34.38979
#
# Poissons Ratio (x) = 0.10289 -0.10103
# Poissons Ratio (y) = 0.03778 0.03656
# Poissons Ratio (z) = -0.13438 0.13243
#
# Static dielectric constant tensor:
#      x y z
#    x 1.804460 0.000000 0.000000 
#    y 0.000000 1.994920 0.000000 
#    z 0.000000 0.000000 1.968170 
# 
# From -- ./inp_files/13543.got.cif
#   From: 2010.05.17/outbox.cif.g08.bks.cpg/sg40_7_cif.got.tgz:13543.got - 2010.06.03 18:35:42.
