data_PCOD9363564
_publ_section_title
;
Structure prediction by ZEFSAII (Michael W. Deem and Ramdas Pophale) SiO2 
 PCOD9363564
Probable space group: A M A 2
;
_chemical_formula_sum "Si O2"
_cell_formula_units_Z 56
_cell_length_a 15.732839
_cell_length_b 21.082833
_cell_length_c 8.929443
_cell_angle_alpha 90.000000
_cell_angle_beta 90.000000
_cell_angle_gamma 90.000000
_cell_volume 2961.832105
_symmetry_space_group_name_H-M "A M A 2"
_symmetry_group_IT_number 40
_symmetry_cell_setting 'orthorhombic'
loop_
_space_group_symop_operation_xyz
x,y,z
-x,-y,z
1/2-x,y,z
1/2+x,-y,z
x,1/2+y,1/2+z
-x,1/2-y,1/2+z
1/2-x,1/2+y,1/2+z
1/2+x,1/2-y,1/2+z
loop_
_atom_site_type_symbol
_atom_site_label
_atom_site_fract_x
_atom_site_fract_y
_atom_site_fract_z
Si Si1 0.847132 0.533008 0.334300
Si Si2 0.846680 0.272235 0.857122
Si Si3 0.974540 0.570424 0.596971
Si Si4 0.970043 0.672176 0.841575
Si Si5 0.916035 0.394243 0.331775
Si Si6 0.341653 0.729400 0.217440
Si Si7 0.090171 0.851724 0.676944
O O1 0.750000 0.521970 0.376083
O O2 0.899995 0.560811 0.474810
O O3 0.888881 0.465730 0.291817
O O4 0.853534 0.585776 0.205146
O O5 0.750000 0.292085 0.813140
O O6 0.869859 0.207304 0.768632
O O7 0.928162 0.317678 0.834516
O O8 0.844771 0.265283 0.037590
O O9 0.948567 0.614073 0.733340
O O10 0.000000 0.500000 0.646446
O O11 0.053320 0.601792 0.504734
O O12 0.922752 0.733591 0.777627
O O13 0.931607 0.663830 0.006367
O O14 0.848478 0.341808 0.282315
O O15 0.999840 0.372137 0.245401
O O16 0.250000 0.756560 0.265944
#
# Coordination Sequence:
#
# PCOD9363564 Si02
#       7
#     8   8   8   8   8   8   8
#     4  10  21  39  62  89 122 164 212 257 302 368
#     4  11  23  41  62  89 124 165 206 257 317 370
#     4   9  22  40  64  85 118 165 211 250 317 366
#     4  12  23  40  62  90 127 162 204 261 312 373
#     4  10  19  39  62  88 117 162 204 252 304 369
#     4  11  23  38  62  93 122 160 205 253 313 375
#     4  11  22  37  62  89 122 161 210 248 311 371
#
# _framework density 18.907215000000001
#
# number of rings (size 3 to 8) (size 9 to 14) (size 15 to 20)
#    0.000    1.429    2.857    3.857    2.000    4.000 
#    0.000    2.857    0.000    0.000    0.000    0.000 
#    0.000    0.000    0.000    0.000    0.000    0.000 
#
# Total GULP energy -156117.605634 kJ/mol
# GULP energy per Si atom -5575.628773 kJ/mol
# Density = 1.886418 g / cm^3
# Si number density = 18.907215 Si / 1000 Ang^3
#
#
#
# Elastic Constant Matrix: (Units=GPa)
#
#
# Indices 1 2 3 4 5 6 
#
# 1 109.9280 24.6320 19.2099 0.0000 0.0000 0.0000
# 2 24.6320 87.1492 66.6523 0.0000 0.0000 0.0000
# 3 19.2099 66.6523 83.0175 0.0000 0.0000 0.0000
# 4 0.0000 0.0000 0.0000 21.4550 0.0000 0.0000
# 5 0.0000 0.0000 0.0000 0.0000 12.8759 0.0000
# 6 0.0000 0.0000 0.0000 0.0000 0.0000 25.3547
#
#
#
# Elastic Compliance Matrix: (Units=1/GPa)
#
#
# Indices 1 2 3 4 5 6 
#
# 1 0.009712 -0.002659 -0.000113 0.000000 0.000000 0.000000
# 2 -0.002659 0.030458 -0.023839 0.000000 0.000000 0.000000
# 3 -0.000113 -0.023839 0.031211 0.000000 0.000000 0.000000
# 4 0.000000 0.000000 0.000000 0.046609 0.000000 0.000000
# 5 0.000000 0.000000 0.000000 0.000000 0.077665 0.000000
# 6 0.000000 0.000000 0.000000 0.000000 0.000000 0.039440
#
#
# Mechanical properties :
#
#
# Convention : Reuss Voigt Hill
#
# Bulk Modulus (GPa) = 55.06284 55.67592 55.36938
# Shear Modulus (GPa) = 16.98545 23.24382 20.11464
#
# Velocity S-wave (km/s) = 3.00051 3.51003 3.26523
# Velocity P-wave (km/s) = 6.41794 6.77775 6.60030
#
# Compressibility (1/GPa) = 0.01816107
#
# Stress axis : x y z
#
# Youngs Moduli (GPa) = 102.96173 32.83202 32.03998
#
# Poissons Ratio (x) = 0.08730 0.00360
# Poissons Ratio (y) = 0.27378 0.76379
# Poissons Ratio (z) = 0.01158 0.78267
#
# Static dielectric constant tensor:
#      x y z
#    x 1.687990 0.000000 0.000000 
#    y 0.000000 1.679220 0.000000 
#    z 0.000000 0.000000 1.643370 
# 
# From -- ./inp_files/6750.got.cif
#   From: 2010.05.17/outbox.cif.g08.bks.cpg/sg40_4_cif.got.tgz:6750.got - 2010.06.03 18:35:42.
