data_PCOD9363188
_publ_section_title
;
Structure prediction by ZEFSAII (Michael W. Deem and Ramdas Pophale) SiO2 
 PCOD9363188
Probable space group: A M A 2
;
_chemical_formula_sum "Si O2"
_cell_formula_units_Z 56
_cell_length_a 9.146068
_cell_length_b 15.604268
_cell_length_c 20.197521
_cell_angle_alpha 90.000000
_cell_angle_beta 90.000000
_cell_angle_gamma 90.000000
_cell_volume 2882.543666
_symmetry_space_group_name_H-M "A M A 2"
_symmetry_group_IT_number 40
_symmetry_cell_setting 'orthorhombic'
loop_
_space_group_symop_operation_xyz
x,y,z
-x,-y,z
1/2-x,y,z
1/2+x,-y,z
x,1/2+y,1/2+z
-x,1/2-y,1/2+z
1/2-x,1/2+y,1/2+z
1/2+x,1/2-y,1/2+z
loop_
_atom_site_type_symbol
_atom_site_label
_atom_site_fract_x
_atom_site_fract_y
_atom_site_fract_z
Si Si1 0.586161 0.081711 0.784380
Si Si2 0.924873 0.182060 0.408875
Si Si3 0.425194 0.090785 0.532873
Si Si4 0.082363 0.763386 0.115477
Si Si5 0.581585 0.636739 0.431149
Si Si6 0.922385 0.420601 0.558865
Si Si7 0.583958 0.243534 0.270663
O O1 0.750000 0.078283 0.759276
O O2 0.585648 0.082174 0.864231
O O3 0.516549 0.173202 0.770779
O O4 0.500000 0.000000 0.758739
O O5 0.750000 0.174996 0.419423
O O6 0.955061 0.175857 0.329008
O O7 0.007019 0.122340 0.462205
O O8 0.985620 0.277639 0.422307
O O9 0.250000 0.080035 0.526646
O O10 0.448923 0.167546 0.587076
O O11 0.500000 0.000000 0.550756
O O12 0.250000 0.782595 0.092793
O O13 0.083465 0.780410 0.194020
O O14 0.962290 0.828822 0.089133
O O15 0.750000 0.660707 0.445427
O O16 0.506615 0.586406 0.489605
O O17 0.750000 0.433772 0.552712
O O18 0.000000 0.500000 0.595907
O O19 0.750000 0.271001 0.287824
#
# Coordination Sequence:
#
# PCOD9363188 Si02
#       7
#     8   8   8   8   8   8   8
#     4  10  20  32  50  78 113 150 191 237 286 349
#     4  10  19  35  60  89 119 153 199 247 300 360
#     4  11  23  39  63  91 125 165 211 262 313 369
#     4  10  22  42  63  87 122 161 201 251 310 370
#     4  10  19  33  54  82 116 151 187 232 289 347
#     4  12  24  37  58  86 117 153 193 241 296 358
#     4   9  20  38  60  83 114 157 197 245 307 366
#
# _framework density 19.427285999999999
#
# number of rings (size 3 to 8) (size 9 to 14) (size 15 to 20)
#    0.000    1.714    1.429    3.429    0.000    5.143 
#    0.000    2.143    0.000    0.000    0.000    0.000 
#    0.000    0.000    0.000    0.000    0.000    0.000 
#
# Total GULP energy -156008.882046 kJ/mol
# GULP energy per Si atom -5571.745787 kJ/mol
# Density = 1.938307 g / cm^3
# Si number density = 19.427286 Si / 1000 Ang^3
#
#
#
# Elastic Constant Matrix: (Units=GPa)
#
#
# Indices 1 2 3 4 5 6 
#
# 1 76.9113 9.4812 5.0622 0.0000 0.0000 0.0000
# 2 9.4812 55.2312 1.3225 0.0000 0.0000 0.0000
# 3 5.0622 1.3225 65.9415 0.0000 0.0000 0.0000
# 4 0.0000 0.0000 0.0000 1.6185 0.0000 0.0000
# 5 0.0000 0.0000 0.0000 0.0000 16.8477 0.0000
# 6 0.0000 0.0000 0.0000 0.0000 0.0000 24.1696
#
#
#
# Elastic Compliance Matrix: (Units=1/GPa)
#
#
# Indices 1 2 3 4 5 6 
#
# 1 0.013346 -0.002268 -0.000979 0.000000 0.000000 0.000000
# 2 -0.002268 0.018500 -0.000197 0.000000 0.000000 0.000000
# 3 -0.000979 -0.000197 0.015244 0.000000 0.000000 0.000000
# 4 0.000000 0.000000 0.000000 0.617847 0.000000 0.000000
# 5 0.000000 0.000000 0.000000 0.000000 0.059355 0.000000
# 6 0.000000 0.000000 0.000000 0.000000 0.000000 0.041374
#
#
# Mechanical properties :
#
#
# Convention : Reuss Voigt Hill
#
# Bulk Modulus (GPa) = 24.87404 25.53508 25.20456
# Shear Modulus (GPa) = 6.36169 20.67504 13.51837
#
# Velocity S-wave (km/s) = 1.81155 3.26579 2.64075
# Velocity P-wave (km/s) = 4.14814 5.23383 4.72229
#
# Compressibility (1/GPa) = 0.04020255
#
# Stress axis : x y z
#
# Youngs Moduli (GPa) = 74.92900 54.05493 65.59929
#
# Poissons Ratio (x) = 0.12257 0.06423
# Poissons Ratio (y) = 0.16991 0.01292
# Poissons Ratio (z) = 0.07336 0.01065
#
# Static dielectric constant tensor:
#      x y z
#    x 1.666210 0.000000 0.000000 
#    y 0.000000 1.707380 0.000000 
#    z 0.000000 0.000000 1.771190 
# 
# From -- ./inp_files/22153.got.cif
#   From: 2010.05.17/outbox.cif.g08.bks.cpg/sg40_12_cif.got.tgz:22153.got - 2010.06.03 18:35:42.
