data_PCOD9363840
_publ_section_title
;
Structure prediction by ZEFSAII (Michael W. Deem and Ramdas Pophale) SiO2 
 PCOD9363840
Probable space group: A M A 2
;
_chemical_formula_sum "Si O2"
_cell_formula_units_Z 48
_cell_length_a 17.573074
_cell_length_b 15.074939
_cell_length_c 9.110905
_cell_angle_alpha 90.000000
_cell_angle_beta 90.000000
_cell_angle_gamma 90.000000
_cell_volume 2413.597346
_symmetry_space_group_name_H-M "A M A 2"
_symmetry_group_IT_number 40
_symmetry_cell_setting 'orthorhombic'
loop_
_space_group_symop_operation_xyz
x,y,z
-x,-y,z
1/2-x,y,z
1/2+x,-y,z
x,1/2+y,1/2+z
-x,1/2-y,1/2+z
1/2-x,1/2+y,1/2+z
1/2+x,1/2-y,1/2+z
loop_
_atom_site_type_symbol
_atom_site_label
_atom_site_fract_x
_atom_site_fract_y
_atom_site_fract_z
Si Si1 0.838265 0.167590 0.752260
Si Si2 0.659690 0.079466 0.466750
Si Si3 0.338870 0.248118 0.771364
Si Si4 0.390540 0.674409 0.553483
Si Si5 0.942291 0.251369 0.987862
Si Si6 0.570921 0.434207 0.812954
O O1 0.750000 0.151600 0.794117
O O2 0.868513 0.097292 0.632237
O O3 0.842772 0.258127 0.655917
O O4 0.894118 0.182856 0.887827
O O5 0.750000 0.084665 0.478423
O O6 0.639037 0.159780 0.355345
O O7 0.633853 0.986457 0.404419
O O8 0.250000 0.252637 0.729510
O O9 0.393432 0.233415 0.634348
O O10 0.351576 0.173282 0.895387
O O11 0.475069 0.714406 0.528959
O O12 0.400361 0.586985 0.649558
O O13 0.948751 0.341881 0.893750
O O14 0.500000 0.500000 0.809232
#
# Coordination Sequence:
#
# PCOD9363840 Si02
#       6
#     8   8   8   8   8   8
#     4   9  18  35  58  83 111 149 189 228 277 341
#     4   9  19  36  58  82 112 144 182 232 289 344
#     4  10  20  37  58  83 114 150 189 233 282 343
#     4  10  20  35  56  79 111 152 193 231 273 339
#     4  11  21  35  59  85 113 150 194 237 279 344
#     4  11  22  36  57  82 111 145 188 241 293 341
#
# _framework density 19.887328
#
# number of rings (size 3 to 8) (size 9 to 14) (size 15 to 20)
#    0.000    2.000    0.000    7.000    0.000    4.000 
#    0.000    4.167    0.000    0.000    0.000    0.000 
#    0.000    0.000    0.000    0.000    0.000    0.000 
#
# Total GULP energy -133960.526780 kJ/mol
# GULP energy per Si atom -5581.688616 kJ/mol
# Density = 1.984206 g / cm^3
# Si number density = 19.887328 Si / 1000 Ang^3
#
#
#
# Elastic Constant Matrix: (Units=GPa)
#
#
# Indices 1 2 3 4 5 6 
#
# 1 63.4146 9.5447 10.4333 0.0000 0.0000 0.0000
# 2 9.5447 54.2915 19.7494 0.0000 0.0000 0.0000
# 3 10.4333 19.7494 76.2804 0.0000 0.0000 0.0000
# 4 0.0000 0.0000 0.0000 35.7963 0.0000 0.0000
# 5 0.0000 0.0000 0.0000 0.0000 26.4489 0.0000
# 6 0.0000 0.0000 0.0000 0.0000 0.0000 24.1171
#
#
#
# Elastic Compliance Matrix: (Units=1/GPa)
#
#
# Indices 1 2 3 4 5 6 
#
# 1 0.016384 -0.002280 -0.001651 0.000000 0.000000 0.000000
# 2 -0.002280 0.020651 -0.005035 0.000000 0.000000 0.000000
# 3 -0.001651 -0.005035 0.014639 0.000000 0.000000 0.000000
# 4 0.000000 0.000000 0.000000 0.027936 0.000000 0.000000
# 5 0.000000 0.000000 0.000000 0.000000 0.037809 0.000000
# 6 0.000000 0.000000 0.000000 0.000000 0.000000 0.041464
#
#
# Mechanical properties :
#
#
# Convention : Reuss Voigt Hill
#
# Bulk Modulus (GPa) = 29.63552 30.38235 30.00893
# Shear Modulus (GPa) = 26.58696 27.55639 27.07167
#
# Velocity S-wave (km/s) = 3.66030 3.72644 3.69352
# Velocity P-wave (km/s) = 5.72694 5.81597 5.77163
#
# Compressibility (1/GPa) = 0.03374329
#
# Stress axis : x y z
#
# Youngs Moduli (GPa) = 61.03525 48.42270 68.31124
#
# Poissons Ratio (x) = 0.11040 0.11276
# Poissons Ratio (y) = 0.13916 0.34394
# Poissons Ratio (z) = 0.10075 0.24381
#
# Static dielectric constant tensor:
#      x y z
#    x 1.717790 0.000000 0.000000 
#    y 0.000000 1.722640 0.000000 
#    z 0.000000 0.000000 1.710210 
# 
# From -- ./inp_files/7437.got.cif
#   From: 2010.05.17/outbox.cif.g08.bks.cpg/sg40_4_cif.got.tgz:7437.got - 2010.06.03 18:35:42.
