data_PCOD9364397
_publ_section_title
;
Structure prediction by ZEFSAII (Michael W. Deem and Ramdas Pophale) SiO2 
 PCOD9364397
Probable space group: A M A 2
;
_chemical_formula_sum "Si O2"
_cell_formula_units_Z 40
_cell_length_a 12.910209
_cell_length_b 17.736270
_cell_length_c 8.195578
_cell_angle_alpha 90.000000
_cell_angle_beta 90.000000
_cell_angle_gamma 90.000000
_cell_volume 1876.614866
_symmetry_space_group_name_H-M "A M A 2"
_symmetry_group_IT_number 40
_symmetry_cell_setting 'orthorhombic'
loop_
_space_group_symop_operation_xyz
x,y,z
-x,-y,z
1/2-x,y,z
1/2+x,-y,z
x,1/2+y,1/2+z
-x,1/2-y,1/2+z
1/2-x,1/2+y,1/2+z
1/2+x,1/2-y,1/2+z
loop_
_atom_site_type_symbol
_atom_site_label
_atom_site_fract_x
_atom_site_fract_y
_atom_site_fract_z
Si Si1 0.250000 0.688902 0.116540
Si Si2 0.039403 0.687114 0.321155
Si Si3 0.250000 0.015890 0.646876
Si Si4 0.750000 0.147266 0.074827
Si Si5 0.367476 0.734415 0.643672
Si Si6 0.250000 0.860676 0.464201
Si Si7 0.083169 0.449136 0.386533
O O1 0.143995 0.698141 0.219637
O O2 0.250000 0.599864 0.071044
O O3 0.250000 0.766269 0.012162
O O4 0.075976 0.684493 0.508137
O O5 0.983448 0.609182 0.280791
O O6 0.951131 0.749493 0.283916
O O7 0.250000 0.947092 0.518968
O O8 0.154137 0.999631 0.769039
O O9 0.750000 0.146925 0.270189
O O10 0.846721 0.102117 0.002019
O O11 0.250000 0.706736 0.682231
O O12 0.343976 0.813242 0.546328
O O13 0.000000 0.500000 0.479004
#
# Coordination Sequence:
#
# PCOD9364397 Si02
#       7
#     4   8   4   4   8   4   8
#     4  12  22  40  68 104 124 178 222 286 332 410
#     4  12  21  39  67  98 137 176 229 280 343 401
#     4  11  22  42  70  93 138 172 236 281 344 404
#     4  11  24  44  68  97 146 174 220 281 356 406
#     4  10  22  39  64  98 135 178 223 284 342 405
#     4  10  20  44  62  90 132 184 208 284 344 394
#     4  11  23  40  69 100 127 184 229 278 337 416
#
# _framework density 21.314975
#
# number of rings (size 3 to 8) (size 9 to 14) (size 15 to 20)
#    0.600    0.400    7.000    1.200    1.400    0.000 
#    1.800    3.000    4.400    2.400    0.000    0.000 
#    0.000    0.000    0.000    0.000    0.000    0.000 
#
# Total GULP energy -111466.385813 kJ/mol
# GULP energy per Si atom -5573.319291 kJ/mol
# Density = 2.126646 g / cm^3
# Si number density = 21.314975 Si / 1000 Ang^3
#
#
#
# Elastic Constant Matrix: (Units=GPa)
#
#
# Indices 1 2 3 4 5 6 
#
# 1 158.3309 29.8821 25.0829 0.0000 0.0000 0.0000
# 2 29.8821 120.1422 9.1421 0.0000 0.0000 0.0000
# 3 25.0829 9.1421 51.3811 0.0000 0.0000 0.0000
# 4 0.0000 0.0000 0.0000 27.9041 0.0000 0.0000
# 5 0.0000 0.0000 0.0000 0.0000 16.5301 0.0000
# 6 0.0000 0.0000 0.0000 0.0000 0.0000 13.7415
#
#
#
# Elastic Compliance Matrix: (Units=1/GPa)
#
#
# Indices 1 2 3 4 5 6 
#
# 1 0.007111 -0.001525 -0.003200 0.000000 0.000000 0.000000
# 2 -0.001525 0.008765 -0.000815 0.000000 0.000000 0.000000
# 3 -0.003200 -0.000815 0.021170 0.000000 0.000000 0.000000
# 4 0.000000 0.000000 0.000000 0.035837 0.000000 0.000000
# 5 0.000000 0.000000 0.000000 0.000000 0.060496 0.000000
# 6 0.000000 0.000000 0.000000 0.000000 0.000000 0.072772
#
#
# Mechanical properties :
#
#
# Convention : Reuss Voigt Hill
#
# Bulk Modulus (GPa) = 38.51327 50.89647 44.70487
# Shear Modulus (GPa) = 22.13516 29.35162 25.74339
#
# Velocity S-wave (km/s) = 3.22604 3.71488 3.47906
# Velocity P-wave (km/s) = 5.65547 6.50619 6.09569
#
# Compressibility (1/GPa) = 0.02596508
#
# Stress axis : x y z
#
# Youngs Moduli (GPa) = 140.63426 114.09259 47.23772
#
# Poissons Ratio (x) = 0.17400 0.15115
# Poissons Ratio (y) = 0.21448 0.03850
# Poissons Ratio (z) = 0.45001 0.09298
#
# Static dielectric constant tensor:
#      x y z
#    x 1.808440 0.000000 0.000000 
#    y 0.000000 1.833090 0.000000 
#    z 0.000000 0.000000 1.769630 
# 
# From -- ./inp_files/5176.got.cif
#   From: 2010.05.17/outbox.cif.g08.bks.cpg/sg40_3_cif.got.tgz:5176.got - 2010.06.03 18:35:42.
