data_PCOD9364679
_publ_section_title
;
Structure prediction by ZEFSAII (Michael W. Deem and Ramdas Pophale) SiO2 
 PCOD9364679
Probable space group: A M A 2
;
_chemical_formula_sum "Si O2"
_cell_formula_units_Z 40
_cell_length_a 12.733267
_cell_length_b 22.947158
_cell_length_c 6.288398
_cell_angle_alpha 90.000000
_cell_angle_beta 90.000000
_cell_angle_gamma 90.000000
_cell_volume 1837.421410
_symmetry_space_group_name_H-M "A M A 2"
_symmetry_group_IT_number 40
_symmetry_cell_setting 'orthorhombic'
loop_
_space_group_symop_operation_xyz
x,y,z
-x,-y,z
1/2-x,y,z
1/2+x,-y,z
x,1/2+y,1/2+z
-x,1/2-y,1/2+z
1/2-x,1/2+y,1/2+z
1/2+x,1/2-y,1/2+z
loop_
_atom_site_type_symbol
_atom_site_label
_atom_site_fract_x
_atom_site_fract_y
_atom_site_fract_z
Si Si1 0.941841 0.684236 0.421740
Si Si2 0.922770 0.575536 0.640947
Si Si3 0.629652 0.804694 0.243418
Si Si4 0.632278 0.458862 0.415465
Si Si5 0.019890 0.101896 0.547137
O O1 0.051145 0.698695 0.542131
O O2 0.964308 0.645239 0.213907
O O3 0.883551 0.639437 0.579860
O O4 0.884238 0.743315 0.364950
O O5 0.869449 0.525018 0.503210
O O6 0.044377 0.570618 0.562690
O O7 0.934642 0.571026 0.893599
O O8 0.750000 0.813073 0.181496
O O9 0.591393 0.855556 0.403161
O O10 0.750000 0.436332 0.434604
O O11 0.588288 0.444489 0.180968
#
# Coordination Sequence:
#
# PCOD9364679 Si02
#       5
#     8   8   8   8   8
#     4  10  21  40  59  90 129 163 215 265 312 386
#     4   9  22  38  59  91 128 165 206 263 321 371
#     4  11  22  38  64  95 127 170 217 267 327 385
#     4  10  21  39  63  93 124 162 214 261 314 385
#     4  10  21  40  64  88 131 169 206 265 323 376
#
# _framework density 21.769639000000002
#
# number of rings (size 3 to 8) (size 9 to 14) (size 15 to 20)
#    0.000    2.000    2.000    0.600    0.000   16.000 
#    0.000    1.000    0.000    0.000    0.000    0.000 
#    0.000    0.000    0.000    0.000    0.000    0.000 
#
# Total GULP energy -111563.176170 kJ/mol
# GULP energy per Si atom -5578.158808 kJ/mol
# Density = 2.172009 g / cm^3
# Si number density = 21.769639 Si / 1000 Ang^3
#
#
#
# Elastic Constant Matrix: (Units=GPa)
#
#
# Indices 1 2 3 4 5 6 
#
# 1 70.1394 14.6202 26.5186 0.0000 0.0000 0.0000
# 2 14.6202 130.3495 44.4737 0.0000 0.0000 0.0000
# 3 26.5186 44.4737 115.6097 0.0000 0.0000 0.0000
# 4 0.0000 0.0000 0.0000 40.2281 0.0000 0.0000
# 5 0.0000 0.0000 0.0000 0.0000 11.8664 0.0000
# 6 0.0000 0.0000 0.0000 0.0000 0.0000 -22.7085
#
#
#
# Elastic Compliance Matrix: (Units=1/GPa)
#
#
# Indices 1 2 3 4 5 6 
#
# 1 0.015653 -0.000611 -0.003356 0.000000 0.000000 0.000000
# 2 -0.000611 0.008855 -0.003266 0.000000 0.000000 0.000000
# 3 -0.003356 -0.003266 0.010676 0.000000 0.000000 0.000000
# 4 0.000000 0.000000 0.000000 0.024858 0.000000 0.000000
# 5 0.000000 0.000000 0.000000 0.000000 0.084271 0.000000
# 6 0.000000 0.000000 0.000000 0.000000 0.000000 -0.044036
#
#
# Mechanical properties :
#
#
# Convention : Reuss Voigt Hill
#
# Bulk Modulus (GPa) = 48.26544 54.14705 51.20624
# Shear Modulus (GPa) = 41.10201 21.24295 31.17248
#
# Velocity S-wave (km/s) = 4.34988 3.12718 3.78818
# Velocity P-wave (km/s) = 6.88823 6.16163 6.53504
#
# Compressibility (1/GPa) = 0.02071876
#
# Stress axis : x y z
#
# Youngs Moduli (GPa) = 63.88415 112.93619 93.66855
#
# Poissons Ratio (x) = 0.06898 0.31431
# Poissons Ratio (y) = 0.03902 0.30593
# Poissons Ratio (z) = 0.21437 0.36886
#
# Static dielectric constant tensor:
#      x y z
#    x 1.778070 0.000000 0.000000 
#    y 0.000000 1.866550 0.000000 
#    z 0.000000 0.000000 1.839400 
# 
# From -- ./inp_files/1228.got.cif
#   From: 2010.05.17/outbox.cif.g08.bks.cpg/sg40_1_cif.got.tgz:1228.got - 2010.06.03 18:35:42.
