data_PCOD9364118
_publ_section_title
;
Structure prediction by ZEFSAII (Michael W. Deem and Ramdas Pophale) SiO2 
 PCOD9364118
Probable space group: A M A 2
;
_chemical_formula_sum "Si O2"
_cell_formula_units_Z 64
_cell_length_a 17.376074
_cell_length_b 12.197056
_cell_length_c 14.105345
_cell_angle_alpha 90.000000
_cell_angle_beta 90.000000
_cell_angle_gamma 90.000000
_cell_volume 2989.443765
_symmetry_space_group_name_H-M "A M A 2"
_symmetry_group_IT_number 40
_symmetry_cell_setting 'orthorhombic'
loop_
_space_group_symop_operation_xyz
x,y,z
-x,-y,z
1/2-x,y,z
1/2+x,-y,z
x,1/2+y,1/2+z
-x,1/2-y,1/2+z
1/2-x,1/2+y,1/2+z
1/2+x,1/2-y,1/2+z
loop_
_atom_site_type_symbol
_atom_site_label
_atom_site_fract_x
_atom_site_fract_y
_atom_site_fract_z
Si Si1 0.598578 0.432677 0.994190
Si Si2 0.394479 0.203008 0.058422
Si Si3 0.563341 0.132802 0.402390
Si Si4 0.338610 0.960857 0.013613
Si Si5 0.929357 0.083356 0.826428
Si Si6 0.335156 0.238956 0.617027
Si Si7 0.017169 0.771000 0.218512
Si Si8 0.336412 0.422030 0.148092
O O1 0.618884 0.528538 0.919803
O O2 0.516244 0.389250 0.959853
O O3 0.651891 0.330605 0.020412
O O4 0.602066 0.507211 0.088895
O O5 0.471291 0.196198 0.123734
O O6 0.345754 0.296214 0.114057
O O7 0.406630 0.257055 0.953908
O O8 0.359557 0.082789 0.048063
O O9 0.545006 0.138136 0.292116
O O10 0.250000 0.960621 0.979426
O O11 0.397493 0.923377 0.932071
O O12 0.342778 0.867401 0.093782
O O13 0.858284 0.060922 0.756419
O O14 0.963267 0.196506 0.785338
O O15 0.000000 0.000000 0.816979
O O16 0.250000 0.217237 0.654797
O O17 0.405752 0.209581 0.684820
O O18 0.250000 0.458293 0.126110
#
# Coordination Sequence:
#
# PCOD9364118 Si02
#       8
#     8   8   8   8   8   8   8   8
#     4  10  20  37  61  88 128 160 212 268 324 384
#     4  10  22  40  67  93 131 170 222 271 324 395
#     4  10  21  38  64  96 127 161 216 279 324 382
#     4  11  25  43  63  93 136 178 214 269 339 398
#     4  11  23  36  65  96 130 168 225 277 321 388
#     4  11  24  42  64  91 132 177 217 270 336 393
#     4  11  23  41  66 100 128 173 225 272 325 388
#     4  10  21  38  63  93 129 174 218 272 336 389
#
# _framework density 21.408664000000002
#
# number of rings (size 3 to 8) (size 9 to 14) (size 15 to 20)
#    0.000    1.500    1.250    3.375    7.000    2.000 
#    0.000    6.875    0.000    8.250    0.000    0.000 
#    0.000    0.000    0.000    0.000    0.000    0.000 
#
# Total GULP energy -178453.225677 kJ/mol
# GULP energy per Si atom -5576.663302 kJ/mol
# Density = 2.135994 g / cm^3
# Si number density = 21.408664 Si / 1000 Ang^3
#
#
#
# Elastic Constant Matrix: (Units=GPa)
#
#
# Indices 1 2 3 4 5 6 
#
# 1 95.1689 12.7737 26.3048 0.0000 0.0000 0.0000
# 2 12.7737 112.3189 11.7329 0.0000 0.0000 0.0000
# 3 26.3048 11.7329 61.9836 0.0000 0.0000 0.0000
# 4 0.0000 0.0000 0.0000 14.1093 0.0000 0.0000
# 5 0.0000 0.0000 0.0000 0.0000 9.3619 0.0000
# 6 0.0000 0.0000 0.0000 0.0000 0.0000 15.9820
#
#
#
# Elastic Compliance Matrix: (Units=1/GPa)
#
#
# Indices 1 2 3 4 5 6 
#
# 1 0.011983 -0.000848 -0.004925 0.000000 0.000000 0.000000
# 2 -0.000848 0.009143 -0.001371 0.000000 0.000000 0.000000
# 3 -0.004925 -0.001371 0.018483 0.000000 0.000000 0.000000
# 4 0.000000 0.000000 0.000000 0.070875 0.000000 0.000000
# 5 0.000000 0.000000 0.000000 0.000000 0.106816 0.000000
# 6 0.000000 0.000000 0.000000 0.000000 0.000000 0.062571
#
#
# Mechanical properties :
#
#
# Convention : Reuss Voigt Hill
#
# Bulk Modulus (GPa) = 39.49294 41.23268 40.36281
# Shear Modulus (GPa) = 16.52362 22.46798 19.49580
#
# Velocity S-wave (km/s) = 2.78118 3.24308 3.02097
# Velocity P-wave (km/s) = 5.36661 5.77279 5.57340
#
# Compressibility (1/GPa) = 0.02532098
#
# Stress axis : x y z
#
# Youngs Moduli (GPa) = 83.45379 109.37475 54.10468
#
# Poissons Ratio (x) = 0.09278 0.26645
# Poissons Ratio (y) = 0.07080 0.07416
# Poissons Ratio (z) = 0.41098 0.14991
#
# Static dielectric constant tensor:
#      x y z
#    x 1.791510 0.000000 0.000000 
#    y 0.000000 1.845980 0.000000 
#    z 0.000000 0.000000 1.797780 
# 
# From -- ./inp_files/17893.got.cif
#   From: 2010.05.17/outbox.cif.g08.bks.cpg/sg40_9_cif.got.tgz:17893.got - 2010.06.03 18:35:42.
