data_PCOD9364420
_publ_section_title
;
Structure prediction by ZEFSAII (Michael W. Deem and Ramdas Pophale) SiO2 
 PCOD9364420
Probable space group: A M A 2
;
_chemical_formula_sum "Si O2"
_cell_formula_units_Z 48
_cell_length_a 23.340696
_cell_length_b 10.798453
_cell_length_c 9.065434
_cell_angle_alpha 90.000000
_cell_angle_beta 90.000000
_cell_angle_gamma 90.000000
_cell_volume 2284.882887
_symmetry_space_group_name_H-M "A M A 2"
_symmetry_group_IT_number 40
_symmetry_cell_setting 'orthorhombic'
loop_
_space_group_symop_operation_xyz
x,y,z
-x,-y,z
1/2-x,y,z
1/2+x,-y,z
x,1/2+y,1/2+z
-x,1/2-y,1/2+z
1/2-x,1/2+y,1/2+z
1/2+x,1/2-y,1/2+z
loop_
_atom_site_type_symbol
_atom_site_label
_atom_site_fract_x
_atom_site_fract_y
_atom_site_fract_z
Si Si1 0.057493 0.446394 0.133950
Si Si2 0.614861 0.530915 0.575242
Si Si3 0.965482 0.716006 0.403555
Si Si4 0.122377 0.559411 0.909539
Si Si5 0.406752 0.169600 0.850697
Si Si6 0.815361 0.756529 0.605873
O O1 0.048336 0.329823 0.237614
O O2 0.071500 0.555517 0.249598
O O3 0.000000 0.500000 0.062457
O O4 0.107726 0.444904 0.016754
O O5 0.558083 0.610425 0.519744
O O6 0.620242 0.492204 0.745416
O O7 0.619006 0.402448 0.488628
O O8 0.665730 0.625814 0.535513
O O9 0.927452 0.836685 0.426569
O O10 0.034048 0.735171 0.402875
O O11 0.174286 0.634752 0.985250
O O12 0.359838 0.230741 0.743544
O O13 0.750000 0.756489 0.654650
#
# Coordination Sequence:
#
# PCOD9364420 Si02
#       6
#     8   8   8   8   8   8
#     4   8  16  31  49  75 113 147 177 219 274 338
#     4  10  21  36  58  87 116 148 190 245 299 347
#     4   9  19  35  53  83 122 150 182 232 290 358
#     4  10  21  34  57  86 112 150 191 235 293 348
#     4   9  19  36  57  81 114 154 190 232 292 352
#     4  10  23  42  58  78 113 157 205 249 287 337
#
# _framework density 21.007642000000001
#
# number of rings (size 3 to 8) (size 9 to 14) (size 15 to 20)
#    0.000    2.667    0.000    1.500    0.000   12.000 
#    0.000    0.000    0.000    0.000    0.000    0.000 
#    0.000    0.000    0.000    0.000    0.000    0.000 
#
# Total GULP energy -133703.951302 kJ/mol
# GULP energy per Si atom -5570.997971 kJ/mol
# Density = 2.095983 g / cm^3
# Si number density = 21.007642 Si / 1000 Ang^3
#
#
#
# Elastic Constant Matrix: (Units=GPa)
#
#
# Indices 1 2 3 4 5 6 
#
# 1 110.8361 26.1119 13.0153 0.0000 0.0000 0.0000
# 2 26.1119 58.8464 13.7595 0.0000 0.0000 0.0000
# 3 13.0153 13.7595 88.2220 0.0000 0.0000 0.0000
# 4 0.0000 0.0000 0.0000 27.1642 0.0000 0.0000
# 5 0.0000 0.0000 0.0000 0.0000 21.8046 0.0000
# 6 0.0000 0.0000 0.0000 0.0000 0.0000 13.9842
#
#
#
# Elastic Compliance Matrix: (Units=1/GPa)
#
#
# Indices 1 2 3 4 5 6 
#
# 1 0.010133 -0.004304 -0.000824 0.000000 0.000000 0.000000
# 2 -0.004304 0.019464 -0.002401 0.000000 0.000000 0.000000
# 3 -0.000824 -0.002401 0.011831 0.000000 0.000000 0.000000
# 4 0.000000 0.000000 0.000000 0.036813 0.000000 0.000000
# 5 0.000000 0.000000 0.000000 0.000000 0.045862 0.000000
# 6 0.000000 0.000000 0.000000 0.000000 0.000000 0.071509
#
#
# Mechanical properties :
#
#
# Convention : Reuss Voigt Hill
#
# Bulk Modulus (GPa) = 37.91906 40.40866 39.16386
# Shear Modulus (GPa) = 22.78319 26.25843 24.52081
#
# Velocity S-wave (km/s) = 3.29678 3.53929 3.42019
# Velocity P-wave (km/s) = 5.70797 5.99826 5.85492
#
# Compressibility (1/GPa) = 0.02637196
#
# Stress axis : x y z
#
# Youngs Moduli (GPa) = 98.68772 51.37569 84.52366
#
# Poissons Ratio (x) = 0.22111 0.06962
# Poissons Ratio (y) = 0.42472 0.20293
# Poissons Ratio (z) = 0.08129 0.12334
#
# Static dielectric constant tensor:
#      x y z
#    x 1.769030 0.000000 0.000000 
#    y 0.000000 1.809770 0.000000 
#    z 0.000000 0.000000 1.834890 
# 
# From -- ./inp_files/8737.got.cif
#   From: 2010.05.17/outbox.cif.g08.bks.cpg/sg40_5_cif.got.tgz:8737.got - 2010.06.03 18:35:42.
