data_PCOD9364290
_publ_section_title
;
Structure prediction by ZEFSAII (Michael W. Deem and Ramdas Pophale) SiO2 
 PCOD9364290
Probable space group: A M A 2
;
_chemical_formula_sum "Si O2"
_cell_formula_units_Z 40
_cell_length_a 17.727718
_cell_length_b 5.250868
_cell_length_c 18.119188
_cell_angle_alpha 90.000000
_cell_angle_beta 90.000000
_cell_angle_gamma 90.000000
_cell_volume 1686.641052
_symmetry_space_group_name_H-M "A M A 2"
_symmetry_group_IT_number 40
_symmetry_cell_setting 'orthorhombic'
loop_
_space_group_symop_operation_xyz
x,y,z
-x,-y,z
1/2-x,y,z
1/2+x,-y,z
x,1/2+y,1/2+z
-x,1/2-y,1/2+z
1/2-x,1/2+y,1/2+z
1/2+x,1/2-y,1/2+z
loop_
_atom_site_type_symbol
_atom_site_label
_atom_site_fract_x
_atom_site_fract_y
_atom_site_fract_z
Si Si1 0.516764 0.745648 0.340970
Si Si2 0.660145 0.395151 0.471949
Si Si3 0.337871 0.105135 0.383727
Si Si4 0.658669 0.847508 0.139125
Si Si5 0.425929 0.137818 0.689731
O O1 0.500000 0.500000 0.388309
O O2 0.604343 0.789288 0.322775
O O3 0.462348 0.713141 0.270280
O O4 0.500000 0.000000 0.383672
O O5 0.750000 0.379266 0.477605
O O6 0.646824 0.687303 0.448275
O O7 0.634195 0.320505 0.553083
O O8 0.644448 0.180653 0.410158
O O9 0.250000 0.119520 0.362588
O O10 0.750000 0.887379 0.144994
O O11 0.635730 0.584666 0.179419
O O12 0.612264 0.098824 0.164319
O O13 0.500000 0.000000 0.653340
#
# Coordination Sequence:
#
# PCOD9364290 Si02
#       5
#     8   8   8   8   8
#     4  11  23  42  62  84 126 170 206 263 322 370
#     4   9  19  36  63  96 126 155 204 266 317 373
#     4  10  20  39  65  92 121 162 210 258 315 383
#     4  11  22  41  68  96 127 171 219 267 325 394
#     4  11  23  42  63  90 133 174 212 270 331 382
#
# _framework density 23.715772999999999
#
# number of rings (size 3 to 8) (size 9 to 14) (size 15 to 20)
#    0.000    1.600    0.000    6.000    0.000    3.200 
#    0.000   24.000    0.000    0.000    0.000    0.000 
#    0.000    0.000    0.000    0.000    0.000    0.000 
#
# Total GULP energy -111335.923838 kJ/mol
# GULP energy per Si atom -5566.796192 kJ/mol
# Density = 2.366179 g / cm^3
# Si number density = 23.715773 Si / 1000 Ang^3
#
#
#
# Elastic Constant Matrix: (Units=GPa)
#
#
# Indices 1 2 3 4 5 6 
#
# 1 123.9504 49.0685 8.9783 0.0000 0.0000 0.0000
# 2 49.0685 194.3144 20.2668 0.0000 0.0000 0.0000
# 3 8.9783 20.2668 50.8706 0.0000 0.0000 0.0000
# 4 0.0000 0.0000 0.0000 18.4141 0.0000 0.0000
# 5 0.0000 0.0000 0.0000 0.0000 -0.8651 0.0000
# 6 0.0000 0.0000 0.0000 0.0000 0.0000 47.4609
#
#
#
# Elastic Compliance Matrix: (Units=1/GPa)
#
#
# Indices 1 2 3 4 5 6 
#
# 1 0.008988 -0.002196 -0.000712 0.000000 0.000000 0.000000
# 2 -0.002196 0.005906 -0.001965 0.000000 0.000000 0.000000
# 3 -0.000712 -0.001965 0.020566 0.000000 0.000000 0.000000
# 4 0.000000 0.000000 0.000000 0.054306 0.000000 0.000000
# 5 0.000000 0.000000 0.000000 0.000000 -1.155889 0.000000
# 6 0.000000 0.000000 0.000000 0.000000 0.000000 0.021070
#
#
# Mechanical properties :
#
#
# Convention : Reuss Voigt Hill
#
# Bulk Modulus (GPa) = 38.88730 58.41805 48.65268
# Shear Modulus (GPa) = -4.86980 32.39009 13.76014
#
# Velocity S-wave (km/s) = -1.43452 3.69963 2.41137
# Velocity P-wave (km/s) = 3.69987 6.55254 5.32094
#
# Compressibility (1/GPa) = 0.02571534
#
# Stress axis : x y z
#
# Youngs Moduli (GPa) = 111.25391 169.32782 48.62321
#
# Poissons Ratio (x) = 0.37177 0.03460
# Poissons Ratio (y) = 0.24426 0.09556
# Poissons Ratio (z) = 0.07918 0.33279
#
# Static dielectric constant tensor:
#      x y z
#    x 2.070110 0.000000 0.000000 
#    y 0.000000 2.022410 0.000000 
#    z 0.000000 0.000000 1.934550 
# 
# From -- ./inp_files/23252.got.cif
#   From: 2010.05.17/outbox.cif.g08.bks.cpg/sg40_12_cif.got.tgz:23252.got - 2010.06.03 18:35:42.
