data_PCOD9364438
_publ_section_title
;
Structure prediction by ZEFSAII (Michael W. Deem and Ramdas Pophale) SiO2 
 PCOD9364438
Probable space group: A M A 2
;
_chemical_formula_sum "Si O2"
_cell_formula_units_Z 40
_cell_length_a 8.370732
_cell_length_b 29.938269
_cell_length_c 7.526627
_cell_angle_alpha 90.000000
_cell_angle_beta 90.000000
_cell_angle_gamma 90.000000
_cell_volume 1886.212063
_symmetry_space_group_name_H-M "A M A 2"
_symmetry_group_IT_number 40
_symmetry_cell_setting 'orthorhombic'
loop_
_space_group_symop_operation_xyz
x,y,z
-x,-y,z
1/2-x,y,z
1/2+x,-y,z
x,1/2+y,1/2+z
-x,1/2-y,1/2+z
1/2-x,1/2+y,1/2+z
1/2+x,1/2-y,1/2+z
loop_
_atom_site_type_symbol
_atom_site_label
_atom_site_fract_x
_atom_site_fract_y
_atom_site_fract_z
Si Si1 0.939854 0.288357 0.928060
Si Si2 0.936973 0.899982 0.148446
Si Si3 0.062062 0.376871 0.038318
Si Si4 0.941768 0.450783 0.313613
Si Si5 0.432543 0.310118 0.554438
O O1 0.750000 0.290283 0.884311
O O2 0.051136 0.300568 0.763637
O O3 0.979571 0.237509 0.974812
O O4 0.975825 0.328651 0.064193
O O5 0.750000 0.905518 0.186490
O O6 0.022170 0.894410 0.338204
O O7 0.962202 0.854183 0.035616
O O8 0.994958 0.938211 0.014702
O O9 0.250000 0.369805 0.055212
O O10 0.005823 0.413922 0.177157
O O11 0.750000 0.449124 0.311478
O O12 0.000000 0.500000 0.265292
O O13 0.250000 0.320108 0.503808
#
# Coordination Sequence:
#
# PCOD9364438 Si02
#       5
#     8   8   8   8   8
#     4  10  21  36  55  84 120 159 203 249 299 362
#     4  10  22  41  64  89 124 163 204 257 310 367
#     4  11  23  40  64  91 125 165 205 255 308 369
#     4  11  25  44  67  95 123 160 207 258 313 370
#     4  10  21  35  55  85 118 157 203 247 300 363
#
# _framework density 21.206523000000001
#
# number of rings (size 3 to 8) (size 9 to 14) (size 15 to 20)
#    0.000    1.600    0.000    6.600    2.800    7.200 
#    0.000    2.000    0.000    0.000    0.000    0.000 
#    0.000    0.000    0.000    0.000    0.000    0.000 
#
# Total GULP energy -111664.032897 kJ/mol
# GULP energy per Si atom -5583.201645 kJ/mol
# Density = 2.115826 g / cm^3
# Si number density = 21.206523 Si / 1000 Ang^3
#
#
#
# Elastic Constant Matrix: (Units=GPa)
#
#
# Indices 1 2 3 4 5 6 
#
# 1 53.4577 -1.5856 7.5354 0.0000 0.0000 0.0000
# 2 -1.5856 59.4680 16.9770 0.0000 0.0000 0.0000
# 3 7.5354 16.9770 56.1240 0.0000 0.0000 0.0000
# 4 0.0000 0.0000 0.0000 39.3702 0.0000 0.0000
# 5 0.0000 0.0000 0.0000 0.0000 119.8870 0.0000
# 6 0.0000 0.0000 0.0000 0.0000 0.0000 41.4131
#
#
#
# Elastic Compliance Matrix: (Units=1/GPa)
#
#
# Indices 1 2 3 4 5 6 
#
# 1 0.019168 0.001364 -0.002986 0.000000 0.000000 0.000000
# 2 0.001364 0.018502 -0.005780 0.000000 0.000000 0.000000
# 3 -0.002986 -0.005780 0.019967 0.000000 0.000000 0.000000
# 4 0.000000 0.000000 0.000000 0.025400 0.000000 0.000000
# 5 0.000000 0.000000 0.000000 0.000000 0.008341 0.000000
# 6 0.000000 0.000000 0.000000 0.000000 0.000000 0.024147
#
#
# Mechanical properties :
#
#
# Convention : Reuss Voigt Hill
#
# Bulk Modulus (GPa) = 23.34688 23.87815 23.61251
# Shear Modulus (GPa) = 34.57651 49.87559 42.22605
#
# Velocity S-wave (km/s) = 4.04228 4.85490 4.46711
# Velocity P-wave (km/s) = 5.72887 6.53536 6.14536
#
# Compressibility (1/GPa) = 0.04283228
#
# Stress axis : x y z
#
# Youngs Moduli (GPa) = 52.17104 54.04773 50.08283
#
# Poissons Ratio (x) = -0.07369 0.14955
# Poissons Ratio (y) = -0.07114 0.28947
# Poissons Ratio (z) = 0.15578 0.31239
#
# Static dielectric constant tensor:
#      x y z
#    x 1.663360 0.000000 0.000000 
#    y 0.000000 1.805860 0.000000 
#    z 0.000000 0.000000 1.809290 
# 
# From -- ./inp_files/4363.got.cif
#   From: 2010.05.17/outbox.cif.g08.bks.cpg/sg40_3_cif.got.tgz:4363.got - 2010.06.03 18:35:42.
