data_PCOD9364445
_publ_section_title
;
Structure prediction by ZEFSAII (Michael W. Deem and Ramdas Pophale) SiO2 
 PCOD9364445
Probable space group: A M A 2
;
_chemical_formula_sum "Si O2"
_cell_formula_units_Z 60
_cell_length_a 9.140099
_cell_length_b 15.465730
_cell_length_c 22.213212
_cell_angle_alpha 90.000000
_cell_angle_beta 90.000000
_cell_angle_gamma 90.000000
_cell_volume 3140.021959
_symmetry_space_group_name_H-M "A M A 2"
_symmetry_group_IT_number 40
_symmetry_cell_setting 'orthorhombic'
loop_
_space_group_symop_operation_xyz
x,y,z
-x,-y,z
1/2-x,y,z
1/2+x,-y,z
x,1/2+y,1/2+z
-x,1/2-y,1/2+z
1/2-x,1/2+y,1/2+z
1/2+x,1/2-y,1/2+z
loop_
_atom_site_type_symbol
_atom_site_label
_atom_site_fract_x
_atom_site_fract_y
_atom_site_fract_z
Si Si1 0.921494 0.777019 0.667190
Si Si2 0.573037 0.911707 0.451176
Si Si3 0.750000 0.031597 0.803007
Si Si4 0.078867 0.412550 0.633591
Si Si5 0.076446 0.909863 0.988878
Si Si6 0.581715 0.758768 0.915520
Si Si7 0.573623 0.087324 0.583134
Si Si8 0.958972 0.864819 0.796228
O O1 0.750000 0.781788 0.646935
O O2 0.967764 0.676942 0.663977
O O3 0.931838 0.817964 0.732898
O O4 0.023922 0.832995 0.623663
O O5 0.750000 0.916704 0.453581
O O6 0.514053 0.827894 0.416929
O O7 0.503570 0.902689 0.518270
O O8 0.500000 0.000000 0.426897
O O9 0.624151 0.105952 0.803475
O O10 0.870414 0.953245 0.800191
O O11 0.250000 0.423559 0.645184
O O12 0.060806 0.403061 0.561122
O O13 0.000000 0.500000 0.652741
O O14 0.250000 0.911867 0.973810
O O15 0.995135 0.829746 0.958452
O O16 0.000000 0.000000 0.969436
O O17 0.750000 0.741838 0.935043
O O18 0.583532 0.801228 0.850083
O O19 0.750000 0.079099 0.578746
O O20 0.500000 0.000000 0.609927
#
# Coordination Sequence:
#
# PCOD9364445 Si02
#       8
#     8   8   4   8   8   8   8   8
#     4  11  22  39  61  88 123 162 205 252 302 362
#     4  11  23  43  65  89 120 160 202 253 307 361
#     4  10  24  44  62  84 126 166 202 250 294 358
#     4   9  20  39  60  83 115 154 196 247 300 350
#     4  10  21  35  57  88 121 160 202 248 308 368
#     4  12  24  39  61  90 123 160 204 252 303 364
#     4  11  23  37  60  92 125 161 201 247 303 364
#     4  11  25  41  63  89 125 161 207 244 304 357
#
# _framework density 19.108146999999999
#
# number of rings (size 3 to 8) (size 9 to 14) (size 15 to 20)
#    0.000    1.333    1.333    4.800    6.533    2.133 
#    0.000    0.667    0.000    1.600    0.000    0.000 
#    0.000    0.000    0.000    0.000    0.000    0.000 
#
# Total GULP energy -167030.743960 kJ/mol
# GULP energy per Si atom -5567.691465 kJ/mol
# Density = 1.906466 g / cm^3
# Si number density = 19.108147 Si / 1000 Ang^3
#
#
#
# Elastic Constant Matrix: (Units=GPa)
#
#
# Indices 1 2 3 4 5 6 
#
# 1 187.0582 64.6117 20.3724 0.0000 0.0000 0.0000
# 2 64.6117 155.1197 31.3448 0.0000 0.0000 0.0000
# 3 20.3724 31.3448 24.5700 0.0000 0.0000 0.0000
# 4 0.0000 0.0000 0.0000 -149.7827 0.0000 0.0000
# 5 0.0000 0.0000 0.0000 0.0000 28.0131 0.0000
# 6 0.0000 0.0000 0.0000 0.0000 0.0000 33.8807
#
#
#
# Elastic Compliance Matrix: (Units=1/GPa)
#
#
# Indices 1 2 3 4 5 6 
#
# 1 0.006361 -0.002134 -0.002552 0.000000 0.000000 0.000000
# 2 -0.002134 0.009401 -0.010225 0.000000 0.000000 0.000000
# 3 -0.002552 -0.010225 0.055860 0.000000 0.000000 0.000000
# 4 0.000000 0.000000 0.000000 -0.006676 0.000000 0.000000
# 5 0.000000 0.000000 0.000000 0.000000 0.035698 0.000000
# 6 0.000000 0.000000 0.000000 0.000000 0.000000 0.029515
#
#
# Mechanical properties :
#
#
# Convention : Reuss Voigt Hill
#
# Bulk Modulus (GPa) = 23.92252 66.60063 45.26158
# Shear Modulus (GPa) = 28.74989 -0.88319 13.93335
#
# Velocity S-wave (km/s) = 3.88311 -0.68060 2.70327
# Velocity P-wave (km/s) = 5.71414 5.85770 5.78637
#
# Compressibility (1/GPa) = 0.04180162
#
# Stress axis : x y z
#
# Youngs Moduli (GPa) = 157.21027 106.36615 17.90189
#
# Poissons Ratio (x) = 0.22697 0.04569
# Poissons Ratio (y) = 0.33546 0.18304
# Poissons Ratio (z) = 0.40120 1.08755
#
# Static dielectric constant tensor:
#      x y z
#    x 1.669630 0.000000 0.000000 
#    y 0.000000 1.656940 0.000000 
#    z 0.000000 0.000000 1.688120 
# 
# From -- ./inp_files/24162.got.cif
#   From: 2010.05.17/outbox.cif.g08.bks.cpg/sg40_13_cif.got.tgz:24162.got - 2010.06.03 18:35:42.
