data_PCOD9364400
_publ_section_title
;
Structure prediction by ZEFSAII (Michael W. Deem and Ramdas Pophale) SiO2 
 PCOD9364400
Probable space group: A M A 2
;
_chemical_formula_sum "Si O2"
_cell_formula_units_Z 56
_cell_length_a 14.712602
_cell_length_b 8.133433
_cell_length_c 18.023923
_cell_angle_alpha 90.000000
_cell_angle_beta 90.000000
_cell_angle_gamma 90.000000
_cell_volume 2156.814048
_symmetry_space_group_name_H-M "A M A 2"
_symmetry_group_IT_number 40
_symmetry_cell_setting 'orthorhombic'
loop_
_space_group_symop_operation_xyz
x,y,z
-x,-y,z
1/2-x,y,z
1/2+x,-y,z
x,1/2+y,1/2+z
-x,1/2-y,1/2+z
1/2-x,1/2+y,1/2+z
1/2+x,1/2-y,1/2+z
loop_
_atom_site_type_symbol
_atom_site_label
_atom_site_fract_x
_atom_site_fract_y
_atom_site_fract_z
Si Si1 0.643763 0.391523 0.546240
Si Si2 0.102596 0.959927 0.899484
Si Si3 0.150347 0.772890 0.317540
Si Si4 0.000000 0.500000 0.815620
Si Si5 0.141246 0.567082 0.175449
Si Si6 0.250000 0.186560 0.414829
Si Si7 0.139923 0.193855 0.212581
Si Si8 0.102281 0.988336 0.511347
O O1 0.750000 0.431472 0.541149
O O2 0.599541 0.517821 0.488861
O O3 0.620365 0.390155 0.632729
O O4 0.629205 0.202041 0.522561
O O5 0.166832 0.805575 0.881826
O O6 0.157194 0.111733 0.866036
O O7 0.000000 0.000000 0.872321
O O8 0.250000 0.857451 0.316718
O O9 0.067622 0.871432 0.352003
O O10 0.124480 0.711881 0.234414
O O11 0.074291 0.600839 0.768166
O O12 0.250000 0.561529 0.166433
O O13 0.115431 0.387657 0.207743
O O14 0.102935 0.576617 0.092858
O O15 0.172110 0.079069 0.458954
O O16 0.250000 0.181113 0.225491
O O17 0.000000 0.000000 0.485085
#
# Coordination Sequence:
#
# PCOD9364400 Si02
#       8
#     8   8   8   4   8   4   8   8
#     4  10  20  44  66  93 150 183 223 302 362 423
#     4  12  27  47  72 102 141 198 251 303 366 439
#     4  11  26  50  71 100 146 193 240 307 361 436
#     4  12  26  40  72 104 140 186 246 298 366 442
#     4   9  20  42  71  98 145 187 234 292 364 437
#     4  12  24  48  72 108 146 190 250 304 374 432
#     4   9  21  40  66 104 139 182 229 292 367 423
#     4  11  22  39  72 112 140 187 241 296 371 447
#
# _framework density 25.964223
#
# number of rings (size 3 to 8) (size 9 to 14) (size 15 to 20)
#    0.000    1.429    2.857    2.143    7.000    1.143 
#    3.857    0.000    0.000    0.000    0.000    0.000 
#    0.000    0.000    0.000    0.000    0.000    0.000 
#
# Total GULP energy -156334.430188 kJ/mol
# GULP energy per Si atom -5583.372507 kJ/mol
# Density = 2.590513 g / cm^3
# Si number density = 25.964223 Si / 1000 Ang^3
#
#
#
# Elastic Constant Matrix: (Units=GPa)
#
#
# Indices 1 2 3 4 5 6 
#
# 1 155.3847 32.0643 34.3580 0.0000 0.0000 0.0000
# 2 32.0643 45.3986 37.0299 0.0000 0.0000 0.0000
# 3 34.3580 37.0299 86.1247 0.0000 0.0000 0.0000
# 4 0.0000 0.0000 0.0000 -406.2278 0.0000 0.0000
# 5 0.0000 0.0000 0.0000 0.0000 31.8282 0.0000
# 6 0.0000 0.0000 0.0000 0.0000 0.0000 45.6895
#
#
#
# Elastic Compliance Matrix: (Units=1/GPa)
#
#
# Indices 1 2 3 4 5 6 
#
# 1 0.007603 -0.004460 -0.001115 0.000000 0.000000 0.000000
# 2 -0.004460 0.036541 -0.013932 0.000000 0.000000 0.000000
# 3 -0.001115 -0.013932 0.018046 0.000000 0.000000 0.000000
# 4 0.000000 0.000000 0.000000 -0.002462 0.000000 0.000000
# 5 0.000000 0.000000 0.000000 0.000000 0.031419 0.000000
# 6 0.000000 0.000000 0.000000 0.000000 0.000000 0.021887
#
#
# Mechanical properties :
#
#
# Convention : Reuss Voigt Hill
#
# Bulk Modulus (GPa) = 43.14922 54.86807 49.00865
# Shear Modulus (GPa) = 31.29460 -53.51164 -11.10852
#
# Velocity S-wave (km/s) = 3.47550 -4.54472 -2.07067
# Velocity P-wave (km/s) = 5.72366 2.52216 3.63311
#
# Compressibility (1/GPa) = 0.02317539
#
# Stress axis : x y z
#
# Youngs Moduli (GPa) = 131.53453 27.36687 55.41373
#
# Poissons Ratio (x) = 0.12205 0.06181
# Poissons Ratio (y) = 0.58662 0.77201
# Poissons Ratio (z) = 0.14671 0.38127
#
# Static dielectric constant tensor:
#      x y z
#    x 1.957300 0.000000 0.000000 
#    y 0.000000 2.090840 0.000000 
#    z 0.000000 0.000000 2.146940 
# 
# From -- ./inp_files/23139.got.cif
#   From: 2010.05.17/outbox.cif.g08.bks.cpg/sg40_12_cif.got.tgz:23139.got - 2010.06.03 18:35:42.
