data_PCOD9364725
_publ_section_title
;
Structure prediction by ZEFSAII (Michael W. Deem and Ramdas Pophale) SiO2 
 PCOD9364725
Probable space group: A M A 2
;
_chemical_formula_sum "Si O2"
_cell_formula_units_Z 40
_cell_length_a 11.398854
_cell_length_b 32.558243
_cell_length_c 5.111210
_cell_angle_alpha 90.000000
_cell_angle_beta 90.000000
_cell_angle_gamma 90.000000
_cell_volume 1896.906288
_symmetry_space_group_name_H-M "A M A 2"
_symmetry_group_IT_number 40
_symmetry_cell_setting 'orthorhombic'
loop_
_space_group_symop_operation_xyz
x,y,z
-x,-y,z
1/2-x,y,z
1/2+x,-y,z
x,1/2+y,1/2+z
-x,1/2-y,1/2+z
1/2-x,1/2+y,1/2+z
1/2+x,1/2-y,1/2+z
loop_
_atom_site_type_symbol
_atom_site_label
_atom_site_fract_x
_atom_site_fract_y
_atom_site_fract_z
Si Si1 0.617776 0.285385 0.885270
Si Si2 0.250000 0.454393 0.340901
Si Si3 0.025984 0.804637 0.885708
Si Si4 0.617423 0.911879 0.257019
Si Si5 0.250000 0.508817 0.842634
Si Si6 0.965997 0.106313 0.757027
O O1 0.750000 0.297336 0.831080
O O2 0.604890 0.235936 0.862502
O O3 0.529679 0.304459 0.673709
O O4 0.577508 0.297882 0.174288
O O5 0.250000 0.472428 0.633099
O O6 0.135868 0.426849 0.288711
O O7 0.250000 0.491641 0.134335
O O8 0.081936 0.848065 0.815266
O O9 0.750000 0.894699 0.288385
O O10 0.639894 0.960762 0.293994
O O11 0.528343 0.896444 0.476604
O O12 0.565495 0.902453 0.974200
#
# Coordination Sequence:
#
# PCOD9364725 Si02
#       6
#     8   4   8   8   4   8
#     4  10  21  40  62  87 120 167 198 245 300 354
#     4  12  26  40  66  96 121 174 203 246 332 364
#     4  10  23  38  59  93 121 157 208 241 301 363
#     4  10  24  43  64  92 122 166 205 268 311 350
#     4  10  24  46  62  96 121 164 217 250 314 382
#     4  12  24  41  64  96 130 160 208 262 310 372
#
# _framework density 21.086966
#
# number of rings (size 3 to 8) (size 9 to 14) (size 15 to 20)
#    0.600    0.800    0.000    4.800    1.400    9.600 
#    0.000    0.000    0.000    0.000    0.000    0.000 
#    0.000    0.000    0.000    0.000    0.000    0.000 
#
# Total GULP energy -111811.113469 kJ/mol
# GULP energy per Si atom -5590.555673 kJ/mol
# Density = 2.103897 g / cm^3
# Si number density = 21.086966 Si / 1000 Ang^3
#
#
#
# Elastic Constant Matrix: (Units=GPa)
#
#
# Indices 1 2 3 4 5 6 
#
# 1 50.2942 0.5562 -0.1264 0.0000 0.0000 0.0000
# 2 0.5562 88.3515 -15.1793 0.0000 0.0000 0.0000
# 3 -0.1264 -15.1793 73.0494 0.0000 0.0000 0.0000
# 4 0.0000 0.0000 0.0000 27.5734 0.0000 0.0000
# 5 0.0000 0.0000 0.0000 0.0000 17.7417 0.0000
# 6 0.0000 0.0000 0.0000 0.0000 0.0000 -47.3720
#
#
#
# Elastic Compliance Matrix: (Units=1/GPa)
#
#
# Indices 1 2 3 4 5 6 
#
# 1 0.019884 -0.000124 0.000009 0.000000 0.000000 0.000000
# 2 -0.000124 0.011738 0.002439 0.000000 0.000000 0.000000
# 3 0.000009 0.002439 0.014196 0.000000 0.000000 0.000000
# 4 0.000000 0.000000 0.000000 0.036267 0.000000 0.000000
# 5 0.000000 0.000000 0.000000 0.000000 0.056365 0.000000
# 6 0.000000 0.000000 0.000000 0.000000 0.000000 -0.021110
#
#
# Mechanical properties :
#
#
# Convention : Reuss Voigt Hill
#
# Bulk Modulus (GPa) = 19.81503 20.24400 20.02951
# Shear Modulus (GPa) = 38.60558 14.68492 26.64525
#
# Velocity S-wave (km/s) = 4.28340 2.64180 3.55856
# Velocity P-wave (km/s) = 5.82070 4.35047 5.13844
#
# Compressibility (1/GPa) = 0.05046674
#
# Stress axis : x y z
#
# Youngs Moduli (GPa) = 50.29064 85.19169 70.44153
#
# Poissons Ratio (x) = 0.01054 -0.00061
# Poissons Ratio (y) = 0.00622 -0.17180
# Poissons Ratio (z) = -0.00044 -0.20778
#
# Static dielectric constant tensor:
#      x y z
#    x 1.726090 0.000000 0.000000 
#    y 0.000000 1.803740 0.000000 
#    z 0.000000 0.000000 1.687820 
# 
# From -- ./inp_files/833.got.cif
#   From: 2010.05.17/outbox.cif.g08.bks.cpg/sg40_1_cif.got.tgz:833.got - 2010.06.03 18:35:42.
