data_PCOD9364543
_publ_section_title
;
Structure prediction by ZEFSAII (Michael W. Deem and Ramdas Pophale) SiO2 
 PCOD9364543
Probable space group: A M A 2
;
_chemical_formula_sum "Si O2"
_cell_formula_units_Z 56
_cell_length_a 30.477612
_cell_length_b 14.005123
_cell_length_c 5.108265
_cell_angle_alpha 90.000000
_cell_angle_beta 90.000000
_cell_angle_gamma 90.000000
_cell_volume 2180.425649
_symmetry_space_group_name_H-M "A M A 2"
_symmetry_group_IT_number 40
_symmetry_cell_setting 'orthorhombic'
loop_
_space_group_symop_operation_xyz
x,y,z
-x,-y,z
1/2-x,y,z
1/2+x,-y,z
x,1/2+y,1/2+z
-x,1/2-y,1/2+z
1/2-x,1/2+y,1/2+z
1/2+x,1/2-y,1/2+z
loop_
_atom_site_type_symbol
_atom_site_label
_atom_site_fract_x
_atom_site_fract_y
_atom_site_fract_z
Si Si1 0.876912 0.657486 0.776310
Si Si2 0.481853 0.130959 0.008060
Si Si3 0.163576 0.128121 0.326939
Si Si4 0.202333 0.308798 0.159179
Si Si5 0.967243 0.139135 0.515485
Si Si6 0.798726 0.546219 0.563591
Si Si7 0.891736 0.866059 0.803568
O O1 0.918303 0.613272 0.925262
O O2 0.849287 0.583479 0.607322
O O3 0.895998 0.758819 0.674545
O O4 0.836097 0.690336 0.953697
O O5 0.521432 0.111356 0.809668
O O6 0.471647 0.244842 0.016719
O O7 0.439035 0.090468 0.861842
O O8 0.497265 0.105388 0.299234
O O9 0.187126 0.230341 0.373502
O O10 0.141510 0.089099 0.592488
O O11 0.197741 0.057747 0.186247
O O12 0.127635 0.140445 0.096894
O O13 0.250000 0.277128 0.068199
O O14 0.204994 0.416045 0.268170
O O15 0.750000 0.582859 0.663397
#
# Coordination Sequence:
#
# PCOD9364543 Si02
#       7
#     8   8   8   8   8   8   8
#     4  10  21  37  63  91 128 169 215 265 325 385
#     4   9  17  32  54  91 122 161 203 258 310 376
#     4  11  23  41  64  93 126 171 213 268 326 390
#     4  10  22  41  62  91 127 171 221 273 327 393
#     4   9  18  29  57  89 125 157 208 255 310 379
#     4  11  24  41  63  92 127 168 215 270 327 387
#     4  10  21  39  65  91 130 167 214 264 323 388
#
# _framework density 25.683057999999999
#
# number of rings (size 3 to 8) (size 9 to 14) (size 15 to 20)
#    0.000    2.000    1.429    1.714    4.000    3.429 
#    0.000    1.429    0.000    5.143    0.000    0.000 
#    0.000    0.000    0.000    0.000    0.000    0.000 
#
# Total GULP energy -155955.662799 kJ/mol
# GULP energy per Si atom -5569.845100 kJ/mol
# Density = 2.562460 g / cm^3
# Si number density = 25.683058 Si / 1000 Ang^3
#
#
#
# Elastic Constant Matrix: (Units=GPa)
#
#
# Indices 1 2 3 4 5 6 
#
# 1 90.5879 -3.4295 -3.7838 0.0000 0.0000 0.0000
# 2 -3.4295 73.3637 -0.1490 0.0000 0.0000 0.0000
# 3 -3.7838 -0.1490 74.1121 0.0000 0.0000 0.0000
# 4 0.0000 0.0000 0.0000 11.7480 0.0000 0.0000
# 5 0.0000 0.0000 0.0000 0.0000 27.9226 0.0000
# 6 0.0000 0.0000 0.0000 0.0000 0.0000 20.1248
#
#
#
# Elastic Compliance Matrix: (Units=1/GPa)
#
#
# Indices 1 2 3 4 5 6 
#
# 1 0.011082 0.000519 0.000567 0.000000 0.000000 0.000000
# 2 0.000519 0.013655 0.000054 0.000000 0.000000 0.000000
# 3 0.000567 0.000054 0.013522 0.000000 0.000000 0.000000
# 4 0.000000 0.000000 0.000000 0.085121 0.000000 0.000000
# 5 0.000000 0.000000 0.000000 0.000000 0.035813 0.000000
# 6 0.000000 0.000000 0.000000 0.000000 0.000000 0.049690
#
#
# Mechanical properties :
#
#
# Convention : Reuss Voigt Hill
#
# Bulk Modulus (GPa) = 24.66721 24.81544 24.74133
# Shear Modulus (GPa) = 22.71521 28.32082 25.51801
#
# Velocity S-wave (km/s) = 2.97719 3.32430 3.15552
# Velocity P-wave (km/s) = 4.63071 4.94144 4.78860
#
# Compressibility (1/GPa) = 0.04053964
#
# Stress axis : x y z
#
# Youngs Moduli (GPa) = 90.23364 73.23268 73.95291
#
# Poissons Ratio (x) = -0.03802 -0.04192
# Poissons Ratio (y) = -0.04685 -0.00399
# Poissons Ratio (z) = -0.05115 -0.00395
#
# Static dielectric constant tensor:
#      x y z
#    x 2.041310 0.000000 0.000000 
#    y 0.000000 2.254370 0.000000 
#    z 0.000000 0.000000 2.047180 
# 
# From -- ./inp_files/3395.got.cif
#   From: 2010.05.17/outbox.cif.g08.bks.cpg/sg40_2_cif.got.tgz:3395.got - 2010.06.03 18:35:42.
