data_PCOD9364390
_publ_section_title
;
Structure prediction by ZEFSAII (Michael W. Deem and Ramdas Pophale) SiO2 
 PCOD9364390
Probable space group: A M A 2
;
_chemical_formula_sum "Si O2"
_cell_formula_units_Z 40
_cell_length_a 15.478496
_cell_length_b 10.578781
_cell_length_c 10.104393
_cell_angle_alpha 90.000000
_cell_angle_beta 90.000000
_cell_angle_gamma 90.000000
_cell_volume 1654.529882
_symmetry_space_group_name_H-M "A M A 2"
_symmetry_group_IT_number 40
_symmetry_cell_setting 'orthorhombic'
loop_
_space_group_symop_operation_xyz
x,y,z
-x,-y,z
1/2-x,y,z
1/2+x,-y,z
x,1/2+y,1/2+z
-x,1/2-y,1/2+z
1/2-x,1/2+y,1/2+z
1/2+x,1/2-y,1/2+z
loop_
_atom_site_type_symbol
_atom_site_label
_atom_site_fract_x
_atom_site_fract_y
_atom_site_fract_z
Si Si1 0.353134 0.013630 0.451850
Si Si2 0.077038 0.598485 0.583117
Si Si3 0.155228 0.869301 0.185229
Si Si4 0.943145 0.227886 0.951220
Si Si5 0.147321 0.851726 0.708553
O O1 0.250000 0.051684 0.446544
O O2 0.418278 0.128161 0.421494
O O3 0.363581 0.909990 0.335605
O O4 0.371702 0.954772 0.595664
O O5 0.154921 0.501787 0.603453
O O6 0.103192 0.721517 0.663824
O O7 0.000000 0.500000 0.625173
O O8 0.037952 0.665500 0.452398
O O9 0.250000 0.810052 0.181041
O O10 0.089870 0.782970 0.103605
O O11 0.888512 0.135638 0.856168
O O12 0.250000 0.837249 0.712116
#
# Coordination Sequence:
#
# PCOD9364390 Si02
#       5
#     8   8   8   8   8
#     4  10  22  42  70 100 130 179 232 278 342 407
#     4  10  23  40  63  99 132 181 223 271 344 403
#     4  10  20  42  71  96 134 181 228 282 341 413
#     4  11  23  43  66  98 144 176 223 285 352 400
#     4  11  23  45  74 102 136 182 232 285 343 411
#
# _framework density 24.176051000000001
#
# number of rings (size 3 to 8) (size 9 to 14) (size 15 to 20)
#    0.000    1.600    2.000    2.400    0.000    4.000 
#   18.000    0.000    0.000    0.000    0.000    0.000 
#    0.000    0.000    0.000    0.000    0.000    0.000 
#
# Total GULP energy -111417.929961 kJ/mol
# GULP energy per Si atom -5570.896498 kJ/mol
# Density = 2.412102 g / cm^3
# Si number density = 24.176051 Si / 1000 Ang^3
#
#
#
# Elastic Constant Matrix: (Units=GPa)
#
#
# Indices 1 2 3 4 5 6 
#
# 1 40.7933 -6.2113 18.3212 0.0000 0.0000 0.0000
# 2 -6.2113 48.2575 16.5002 0.0000 0.0000 0.0000
# 3 18.3212 16.5002 112.4478 0.0000 0.0000 0.0000
# 4 0.0000 0.0000 0.0000 30.5856 0.0000 0.0000
# 5 0.0000 0.0000 0.0000 0.0000 40.1830 0.0000
# 6 0.0000 0.0000 0.0000 0.0000 0.0000 33.5994
#
#
#
# Elastic Compliance Matrix: (Units=1/GPa)
#
#
# Indices 1 2 3 4 5 6 
#
# 1 0.027716 0.005381 -0.005305 0.000000 0.000000 0.000000
# 2 0.005381 0.022862 -0.004231 0.000000 0.000000 0.000000
# 3 -0.005305 -0.004231 0.010378 0.000000 0.000000 0.000000
# 4 0.000000 0.000000 0.000000 0.032695 0.000000 0.000000
# 5 0.000000 0.000000 0.000000 0.000000 0.024886 0.000000
# 6 0.000000 0.000000 0.000000 0.000000 0.000000 0.029762
#
#
# Mechanical properties :
#
#
# Convention : Reuss Voigt Hill
#
# Bulk Modulus (GPa) = 18.99515 28.74656 23.87085
# Shear Modulus (GPa) = 28.70940 32.39950 30.55445
#
# Velocity S-wave (km/s) = 3.44977 3.66478 3.55890
# Velocity P-wave (km/s) = 4.87257 5.46111 5.17522
#
# Compressibility (1/GPa) = 0.05264501
#
# Stress axis : x y z
#
# Youngs Moduli (GPa) = 36.08020 43.74144 96.35454
#
# Poissons Ratio (x) = -0.23539 0.51120
# Poissons Ratio (y) = -0.19416 0.40772
# Poissons Ratio (z) = 0.19142 0.18509
#
# Static dielectric constant tensor:
#      x y z
#    x 1.877890 0.000000 0.000000 
#    y 0.000000 1.928240 0.000000 
#    z 0.000000 0.000000 2.009020 
# 
# From -- ./inp_files/7144.got.cif
#   From: 2010.05.17/outbox.cif.g08.bks.cpg/sg40_4_cif.got.tgz:7144.got - 2010.06.03 18:35:42.
