data_PCOD9364269
_publ_section_title
;
Structure prediction by ZEFSAII (Michael W. Deem and Ramdas Pophale) SiO2 
 PCOD9364269
Probable space group: A M A 2
;
_chemical_formula_sum "Si O2"
_cell_formula_units_Z 48
_cell_length_a 8.504130
_cell_length_b 21.027950
_cell_length_c 14.904749
_cell_angle_alpha 90.000000
_cell_angle_beta 90.000000
_cell_angle_gamma 90.000000
_cell_volume 2665.333102
_symmetry_space_group_name_H-M "A M A 2"
_symmetry_group_IT_number 40
_symmetry_cell_setting 'orthorhombic'
loop_
_space_group_symop_operation_xyz
x,y,z
-x,-y,z
1/2-x,y,z
1/2+x,-y,z
x,1/2+y,1/2+z
-x,1/2-y,1/2+z
1/2-x,1/2+y,1/2+z
1/2+x,1/2-y,1/2+z
loop_
_atom_site_type_symbol
_atom_site_label
_atom_site_fract_x
_atom_site_fract_y
_atom_site_fract_z
Si Si1 0.059725 0.313178 0.092290
Si Si2 0.939889 0.930564 0.088709
Si Si3 0.561664 0.570023 0.968194
Si Si4 0.438637 0.123548 0.280490
Si Si5 0.558506 0.309529 0.475339
Si Si6 0.561306 0.767828 0.779154
O O1 0.250000 0.312539 0.096295
O O2 0.994118 0.305742 0.191875
O O3 0.009736 0.376500 0.039600
O O4 0.010067 0.251418 0.034411
O O5 0.750000 0.930841 0.087830
O O6 0.990521 0.912230 0.189827
O O7 0.994134 0.874522 0.022224
O O8 0.000000 0.000000 0.064154
O O9 0.500000 0.500000 0.989364
O O10 0.750000 0.569404 0.967537
O O11 0.504505 0.591253 0.869839
O O12 0.250000 0.122187 0.283618
O O13 0.493931 0.196460 0.275331
O O14 0.750000 0.309858 0.476249
O O15 0.509029 0.299572 0.372773
O O16 0.750000 0.763688 0.779955
#
# Coordination Sequence:
#
# PCOD9364269 Si02
#       6
#     8   8   8   8   8   8
#     4  10  20  39  60  80 114 154 190 233 287 341
#     4  10  21  37  56  79 112 150 183 224 280 335
#     4  11  23  39  59  84 118 155 192 239 294 349
#     4  11  21  35  58  86 118 153 187 232 291 349
#     4   9  18  37  58  78 111 151 184 227 284 333
#     4  11  21  35  59  89 115 145 192 241 284 337
#
# _framework density 18.009005999999999
#
# number of rings (size 3 to 8) (size 9 to 14) (size 15 to 20)
#    0.000    1.667    3.333    2.000    0.000    4.000 
#    0.000    2.500    0.000    4.000    0.000    0.000 
#    0.000    0.000    0.000    0.000    0.000    0.000 
#
# Total GULP energy -134061.838825 kJ/mol
# GULP energy per Si atom -5585.909951 kJ/mol
# Density = 1.796802 g / cm^3
# Si number density = 18.009006 Si / 1000 Ang^3
#
#
#
# Elastic Constant Matrix: (Units=GPa)
#
#
# Indices 1 2 3 4 5 6 
#
# 1 23.0080 24.5489 20.9455 0.0000 0.0000 0.0000
# 2 24.5489 167.8676 81.3489 0.0000 0.0000 0.0000
# 3 20.9455 81.3489 145.5494 0.0000 0.0000 0.0000
# 4 0.0000 0.0000 0.0000 9.1937 0.0000 0.0000
# 5 0.0000 0.0000 0.0000 0.0000 15.3746 0.0000
# 6 0.0000 0.0000 0.0000 0.0000 0.0000 758.3401
#
#
#
# Elastic Compliance Matrix: (Units=1/GPa)
#
#
# Indices 1 2 3 4 5 6 
#
# 1 0.053630 -0.005627 -0.004573 0.000000 0.000000 0.000000
# 2 -0.005627 0.008760 -0.004086 0.000000 0.000000 0.000000
# 3 -0.004573 -0.004086 0.009813 0.000000 0.000000 0.000000
# 4 0.000000 0.000000 0.000000 0.108770 0.000000 0.000000
# 5 0.000000 0.000000 0.000000 0.000000 0.065042 0.000000
# 6 0.000000 0.000000 0.000000 0.000000 0.000000 0.001319
#
#
# Mechanical properties :
#
#
# Convention : Reuss Voigt Hill
#
# Bulk Modulus (GPa) = 22.91977 65.56795 44.24386
# Shear Modulus (GPa) = 17.21471 170.55379 93.88425
#
# Velocity S-wave (km/s) = 3.09511 9.74219 7.22807
# Velocity P-wave (km/s) = 5.05246 12.76850 9.70984
#
# Compressibility (1/GPa) = 0.04363045
#
# Stress axis : x y z
#
# Youngs Moduli (GPa) = 18.64635 114.15205 101.91063
#
# Poissons Ratio (x) = 0.64232 0.46601
# Poissons Ratio (y) = 0.10492 0.41645
# Poissons Ratio (z) = 0.08527 0.46648
#
# Static dielectric constant tensor:
#      x y z
#    x 1.619780 0.000000 0.000000 
#    y 0.000000 1.595430 0.000000 
#    z 0.000000 0.000000 1.603210 
# 
# From -- ./inp_files/15028.got.cif
#   From: 2010.05.17/outbox.cif.g08.bks.cpg/sg40_8_cif.got.tgz:15028.got - 2010.06.03 18:35:42.
