data_PCOD9364172
_publ_section_title
;
Structure prediction by ZEFSAII (Michael W. Deem and Ramdas Pophale) SiO2 
 PCOD9364172
Probable space group: A M A 2
;
_chemical_formula_sum "Si O2"
_cell_formula_units_Z 64
_cell_length_a 17.815667
_cell_length_b 20.561999
_cell_length_c 9.317155
_cell_angle_alpha 90.000000
_cell_angle_beta 90.000000
_cell_angle_gamma 90.000000
_cell_volume 3413.113579
_symmetry_space_group_name_H-M "A M A 2"
_symmetry_group_IT_number 40
_symmetry_cell_setting 'orthorhombic'
loop_
_space_group_symop_operation_xyz
x,y,z
-x,-y,z
1/2-x,y,z
1/2+x,-y,z
x,1/2+y,1/2+z
-x,1/2-y,1/2+z
1/2-x,1/2+y,1/2+z
1/2+x,1/2-y,1/2+z
loop_
_atom_site_type_symbol
_atom_site_label
_atom_site_fract_x
_atom_site_fract_y
_atom_site_fract_z
Si Si1 0.420847 0.466287 0.340600
Si Si2 0.609803 0.796586 0.035864
Si Si3 0.340759 0.942926 0.541901
Si Si4 0.839566 0.926941 0.369963
Si Si5 0.585280 0.172594 0.359832
Si Si6 0.092006 0.707865 0.867078
Si Si7 0.163943 0.064608 0.045868
Si Si8 0.065503 0.836233 0.029212
O O1 0.500000 0.500000 0.299458
O O2 0.373037 0.446586 0.201861
O O3 0.379578 0.520098 0.436102
O O4 0.428095 0.402092 0.438859
O O5 0.618872 0.778680 0.203759
O O6 0.658474 0.859917 0.003117
O O7 0.523038 0.819232 0.029266
O O8 0.622268 0.737517 0.927120
O O9 0.250000 0.933503 0.538981
O O10 0.383554 0.887099 0.452832
O O11 0.358676 0.012408 0.468816
O O12 0.750000 0.456804 0.550658
O O13 0.866826 0.856761 0.421812
O O14 0.869188 0.938183 0.207619
O O15 0.495973 0.187455 0.372269
O O16 0.596081 0.158693 0.191234
O O17 0.103112 0.773505 0.955450
O O18 0.250000 0.075958 0.358536
#
# Coordination Sequence:
#
# PCOD9364172 Si02
#       8
#     8   8   8   8   8   8   8   8
#     4  12  24  38  60  86 118 154 202 243 293 348
#     4   9  18  36  56  89 122 155 191 240 291 347
#     4  11  25  42  57  85 122 155 197 247 297 353
#     4   9  20  39  61  86 119 156 195 239 293 351
#     4  10  21  36  62  86 119 157 195 244 294 342
#     4   9  19  35  60  87 123 151 197 241 289 347
#     4  10  20  38  62  87 117 154 192 240 294 350
#     4  10  20  38  58  90 118 152 199 249 284 344
#
# _framework density 18.751207000000001
#
# number of rings (size 3 to 8) (size 9 to 14) (size 15 to 20)
#    0.000    2.000    1.250    1.875    1.750    2.500 
#    0.000    5.000    0.000    0.000    0.000    0.000 
#    0.000    0.000    0.000    0.000    0.000    0.000 
#
# Total GULP energy -178524.350940 kJ/mol
# GULP energy per Si atom -5578.885967 kJ/mol
# Density = 1.870853 g / cm^3
# Si number density = 18.751207 Si / 1000 Ang^3
#
#
#
# Elastic Constant Matrix: (Units=GPa)
#
#
# Indices 1 2 3 4 5 6 
#
# 1 23.7559 23.8190 21.0485 0.0000 0.0000 0.0000
# 2 23.8190 116.3038 76.1527 0.0000 0.0000 0.0000
# 3 21.0485 76.1527 104.9036 0.0000 0.0000 0.0000
# 4 0.0000 0.0000 0.0000 39.0695 0.0000 0.0000
# 5 0.0000 0.0000 0.0000 0.0000 17.6513 0.0000
# 6 0.0000 0.0000 0.0000 0.0000 0.0000 24.1000
#
#
#
# Elastic Compliance Matrix: (Units=1/GPa)
#
#
# Indices 1 2 3 4 5 6 
#
# 1 0.054533 -0.007631 -0.005402 0.000000 0.000000 0.000000
# 2 -0.007631 0.017455 -0.011140 0.000000 0.000000 0.000000
# 3 -0.005402 -0.011140 0.018703 0.000000 0.000000 0.000000
# 4 0.000000 0.000000 0.000000 0.025595 0.000000 0.000000
# 5 0.000000 0.000000 0.000000 0.000000 0.056653 0.000000
# 6 0.000000 0.000000 0.000000 0.000000 0.000000 0.041494
#
#
# Mechanical properties :
#
#
# Convention : Reuss Voigt Hill
#
# Bulk Modulus (GPa) = 23.61580 54.11154 38.86367
# Shear Modulus (GPa) = 18.05738 24.42706 21.24222
#
# Velocity S-wave (km/s) = 3.10659 3.61320 3.36943
# Velocity P-wave (km/s) = 5.04871 6.80641 5.99236
#
# Compressibility (1/GPa) = 0.04234453
#
# Stress axis : x y z
#
# Youngs Moduli (GPa) = 18.33768 57.28911 53.46594
#
# Poissons Ratio (x) = 0.43718 0.28883
# Poissons Ratio (y) = 0.13994 0.59562
# Poissons Ratio (z) = 0.09906 0.63821
#
# Static dielectric constant tensor:
#      x y z
#    x 1.648930 0.000000 0.000000 
#    y 0.000000 1.629330 0.000000 
#    z 0.000000 0.000000 1.652340 
# 
# From -- ./inp_files/7775.got.cif
#   From: 2010.05.17/outbox.cif.g08.bks.cpg/sg40_4_cif.got.tgz:7775.got - 2010.06.03 18:35:42.
