data_PCOD9364998
_publ_section_title
;
Structure prediction by ZEFSAII (Michael W. Deem and Ramdas Pophale) SiO2 
 PCOD9364998
Probable space group: A M A 2
;
_chemical_formula_sum "Si O2"
_cell_formula_units_Z 40
_cell_length_a 10.085033
_cell_length_b 15.997674
_cell_length_c 12.749844
_cell_angle_alpha 90.000000
_cell_angle_beta 90.000000
_cell_angle_gamma 90.000000
_cell_volume 2057.022477
_symmetry_space_group_name_H-M "A M A 2"
_symmetry_group_IT_number 40
_symmetry_cell_setting 'orthorhombic'
loop_
_space_group_symop_operation_xyz
x,y,z
-x,-y,z
1/2-x,y,z
1/2+x,-y,z
x,1/2+y,1/2+z
-x,1/2-y,1/2+z
1/2-x,1/2+y,1/2+z
1/2+x,1/2-y,1/2+z
loop_
_atom_site_type_symbol
_atom_site_label
_atom_site_fract_x
_atom_site_fract_y
_atom_site_fract_z
Si Si1 0.750000 0.588576 0.528321
Si Si2 0.094628 0.650395 0.030822
Si Si3 0.250000 0.095602 0.085625
Si Si4 0.518713 0.823264 0.966682
Si Si5 0.750000 0.036003 0.255322
Si Si6 0.500000 0.500000 0.889593
Si Si7 0.905558 0.919072 0.760303
O O1 0.750000 0.488474 0.513839
O O2 0.619092 0.628461 0.482413
O O3 0.750000 0.597072 0.655093
O O4 0.250000 0.673830 0.027873
O O5 0.010065 0.726063 0.983273
O O6 0.069783 0.568725 0.961575
O O7 0.060454 0.626432 0.150498
O O8 0.250000 0.056597 0.201338
O O9 0.379536 0.146495 0.055948
O O10 0.575354 0.854070 0.855621
O O11 0.615373 0.042051 0.320208
O O12 0.750000 0.944048 0.754674
O O13 0.000000 0.000000 0.774434
#
# Coordination Sequence:
#
# PCOD9364998 Si02
#       7
#     4   8   4   8   4   4   8
#     4  10  22  41  68  99 138 181 218 282 352 403
#     4  11  26  48  69 101 138 180 239 286 337 415
#     4  10  22  41  62 109 134 171 230 274 340 421
#     4  12  23  43  71 102 140 179 227 293 334 406
#     4  10  24  38  70  98 134 182 222 282 334 414
#     4  12  22  48  68  92 138 188 228 280 348 410
#     4  11  25  46  73 102 137 187 229 281 354 416
#
# _framework density 19.445582999999999
#
# number of rings (size 3 to 8) (size 9 to 14) (size 15 to 20)
#    0.600    0.400    4.000    3.000    1.400    4.000 
#    1.800    0.000    0.000    0.000    0.000    0.000 
#    0.000    0.000    0.000    0.000    0.000    0.000 
#
# Total GULP energy -111715.052897 kJ/mol
# GULP energy per Si atom -5585.752645 kJ/mol
# Density = 1.940132 g / cm^3
# Si number density = 19.445583 Si / 1000 Ang^3
#
#
#
# Elastic Constant Matrix: (Units=GPa)
#
#
# Indices 1 2 3 4 5 6 
#
# 1 89.8994 6.1655 10.8346 0.0000 0.0000 0.0000
# 2 6.1655 81.8316 7.3089 0.0000 0.0000 0.0000
# 3 10.8346 7.3089 95.4678 0.0000 0.0000 0.0000
# 4 0.0000 0.0000 0.0000 22.2472 0.0000 0.0000
# 5 0.0000 0.0000 0.0000 0.0000 32.3926 0.0000
# 6 0.0000 0.0000 0.0000 0.0000 0.0000 30.9886
#
#
#
# Elastic Compliance Matrix: (Units=1/GPa)
#
#
# Indices 1 2 3 4 5 6 
#
# 1 0.011323 -0.000743 -0.001228 0.000000 0.000000 0.000000
# 2 -0.000743 0.012353 -0.000861 0.000000 0.000000 0.000000
# 3 -0.001228 -0.000861 0.010680 0.000000 0.000000 0.000000
# 4 0.000000 0.000000 0.000000 0.044949 0.000000 0.000000
# 5 0.000000 0.000000 0.000000 0.000000 0.030871 0.000000
# 6 0.000000 0.000000 0.000000 0.000000 0.000000 0.032270
#
#
# Mechanical properties :
#
#
# Convention : Reuss Voigt Hill
#
# Bulk Modulus (GPa) = 34.85528 35.09076 34.97302
# Shear Modulus (GPa) = 31.71072 33.31835 32.51453
#
# Velocity S-wave (km/s) = 4.04263 4.14383 4.09354
# Velocity P-wave (km/s) = 6.30507 6.40156 6.35349
#
# Compressibility (1/GPa) = 0.02869005
#
# Stress axis : x y z
#
# Youngs Moduli (GPa) = 88.31946 80.95096 93.63244
#
# Poissons Ratio (x) = 0.06018 0.11499
# Poissons Ratio (y) = 0.06566 0.08065
# Poissons Ratio (z) = 0.10846 0.06973
#
# Static dielectric constant tensor:
#      x y z
#    x 1.643980 0.000000 0.000000 
#    y 0.000000 1.661950 0.000000 
#    z 0.000000 0.000000 1.678350 
# 
# From -- ./inp_files/10049.got.cif
#   From: 2010.05.17/outbox.cif.g08.bks.cpg/sg40_6_cif.got.tgz:10049.got - 2010.06.03 18:35:42.
