data_PCOD9364510
_publ_section_title
;
Structure prediction by ZEFSAII (Michael W. Deem and Ramdas Pophale) SiO2 
 PCOD9364510
Probable space group: A M A 2
;
_chemical_formula_sum "Si O2"
_cell_formula_units_Z 56
_cell_length_a 8.815621
_cell_length_b 21.326583
_cell_length_c 14.390360
_cell_angle_alpha 90.000000
_cell_angle_beta 90.000000
_cell_angle_gamma 90.000000
_cell_volume 2705.489462
_symmetry_space_group_name_H-M "A M A 2"
_symmetry_group_IT_number 40
_symmetry_cell_setting 'orthorhombic'
loop_
_space_group_symop_operation_xyz
x,y,z
-x,-y,z
1/2-x,y,z
1/2+x,-y,z
x,1/2+y,1/2+z
-x,1/2-y,1/2+z
1/2-x,1/2+y,1/2+z
1/2+x,1/2-y,1/2+z
loop_
_atom_site_type_symbol
_atom_site_label
_atom_site_fract_x
_atom_site_fract_y
_atom_site_fract_z
Si Si1 0.431861 0.605806 0.479210
Si Si2 0.079217 0.165488 0.302278
Si Si3 0.417607 0.559954 0.959156
Si Si4 0.064924 0.256034 0.464345
Si Si5 0.435122 0.650553 0.111338
Si Si6 0.070108 0.934026 0.171154
Si Si7 0.067457 0.566106 0.273108
O O1 0.250000 0.602288 0.491162
O O2 0.487168 0.677466 0.474881
O O3 0.513605 0.573796 0.565832
O O4 0.473909 0.575496 0.380552
O O5 0.250000 0.179394 0.267205
O O6 0.092116 0.112591 0.381689
O O7 0.021782 0.223702 0.364978
O O8 0.983469 0.129464 0.224362
O O9 0.500000 0.500000 0.923027
O O10 0.250000 0.540197 0.987439
O O11 0.490803 0.592953 0.047486
O O12 0.250000 0.260285 0.464001
O O13 0.020408 0.212491 0.553492
O O14 0.250000 0.652099 0.108545
O O15 0.479837 0.627995 0.213874
O O16 0.250000 0.938609 0.177231
O O17 0.000000 0.000000 0.206685
O O18 0.250000 0.562386 0.266604
O O19 0.000000 0.500000 0.239223
#
# Coordination Sequence:
#
# PCOD9364510 Si02
#       7
#     8   8   8   8   8   8   8
#     4  11  24  40  58  83 117 155 198 247 290 338
#     4   9  19  36  57  84 118 152 188 234 287 346
#     4   9  16  27  47  75 109 146 180 220 273 333
#     4   9  19  38  62  87 119 157 192 229 283 348
#     4   8  16  33  55  80 111 146 182 223 276 335
#     4  12  25  41  62  86 114 152 198 248 304 358
#     4  10  21  37  58  83 112 146 185 231 281 334
#
# _framework density 20.698656
#
# number of rings (size 3 to 8) (size 9 to 14) (size 15 to 20)
#    0.000    2.286    0.000    4.714    0.000    5.714 
#    0.000    4.286    0.000    0.000    0.000    0.000 
#    0.000    0.000    0.000    0.000    0.000    0.000 
#
# Total GULP energy -156080.542647 kJ/mol
# GULP energy per Si atom -5574.305095 kJ/mol
# Density = 2.065155 g / cm^3
# Si number density = 20.698656 Si / 1000 Ang^3
#
#
#
# Elastic Constant Matrix: (Units=GPa)
#
#
# Indices 1 2 3 4 5 6 
#
# 1 42.5948 16.1327 20.8368 0.0000 0.0000 0.0000
# 2 16.1327 90.7480 13.1015 0.0000 0.0000 0.0000
# 3 20.8368 13.1015 86.8444 0.0000 0.0000 0.0000
# 4 0.0000 0.0000 0.0000 25.3981 0.0000 0.0000
# 5 0.0000 0.0000 0.0000 0.0000 4.2182 0.0000
# 6 0.0000 0.0000 0.0000 0.0000 0.0000 24.7068
#
#
#
# Elastic Compliance Matrix: (Units=1/GPa)
#
#
# Indices 1 2 3 4 5 6 
#
# 1 0.028015 -0.004099 -0.006103 0.000000 0.000000 0.000000
# 2 -0.004099 0.011865 -0.000806 0.000000 0.000000 0.000000
# 3 -0.006103 -0.000806 0.013101 0.000000 0.000000 0.000000
# 4 0.000000 0.000000 0.000000 0.039373 0.000000 0.000000
# 5 0.000000 0.000000 0.000000 0.000000 0.237066 0.000000
# 6 0.000000 0.000000 0.000000 0.000000 0.000000 0.040475
#
#
# Mechanical properties :
#
#
# Convention : Reuss Voigt Hill
#
# Bulk Modulus (GPa) = 32.29673 35.59213 33.94443
# Shear Modulus (GPa) = 12.43058 22.20572 17.31815
#
# Velocity S-wave (km/s) = 2.45327 3.27893 2.89568
# Velocity P-wave (km/s) = 4.86435 5.61853 5.25499
#
# Compressibility (1/GPa) = 0.03096289
#
# Stress axis : x y z
#
# Youngs Moduli (GPa) = 35.69476 84.28369 76.33067
#
# Poissons Ratio (x) = 0.34550 0.46587
# Poissons Ratio (y) = 0.14632 0.06155
# Poissons Ratio (z) = 0.21786 0.06796
#
# Static dielectric constant tensor:
#      x y z
#    x 1.717840 0.000000 0.000000 
#    y 0.000000 1.781430 0.000000 
#    z 0.000000 0.000000 1.787640 
# 
# From -- ./inp_files/15317.got.cif
#   From: 2010.05.17/outbox.cif.g08.bks.cpg/sg40_8_cif.got.tgz:15317.got - 2010.06.03 18:35:42.
