data_PCOD9364345
_publ_section_title
;
Structure prediction by ZEFSAII (Michael W. Deem and Ramdas Pophale) SiO2 
 PCOD9364345
Probable space group: A M A 2
;
_chemical_formula_sum "Si O2"
_cell_formula_units_Z 60
_cell_length_a 30.729000
_cell_length_b 9.594283
_cell_length_c 10.237035
_cell_angle_alpha 90.000000
_cell_angle_beta 90.000000
_cell_angle_gamma 90.000000
_cell_volume 3018.110527
_symmetry_space_group_name_H-M "A M A 2"
_symmetry_group_IT_number 40
_symmetry_cell_setting 'orthorhombic'
loop_
_space_group_symop_operation_xyz
x,y,z
-x,-y,z
1/2-x,y,z
1/2+x,-y,z
x,1/2+y,1/2+z
-x,1/2-y,1/2+z
1/2-x,1/2+y,1/2+z
1/2+x,1/2-y,1/2+z
loop_
_atom_site_type_symbol
_atom_site_label
_atom_site_fract_x
_atom_site_fract_y
_atom_site_fract_z
Si Si1 0.542045 0.901030 0.681220
Si Si2 0.891204 0.603273 0.068107
Si Si3 0.831555 0.223459 0.784679
Si Si4 0.250000 0.662910 0.618776
Si Si5 0.920488 0.892648 0.972553
Si Si6 0.671992 0.534644 0.531061
Si Si7 0.633896 0.534551 0.799718
Si Si8 0.039421 0.418947 0.686048
O O1 0.563752 0.894522 0.824722
O O2 0.530301 0.741065 0.652353
O O3 0.500000 0.000000 0.682238
O O4 0.577936 0.969626 0.585854
O O5 0.863480 0.628031 0.198206
O O6 0.919964 0.739922 0.037292
O O7 0.858803 0.590938 0.944558
O O8 0.788340 0.256659 0.703426
O O9 0.856360 0.370483 0.802116
O O10 0.821738 0.152999 0.923276
O O11 0.288107 0.570037 0.544496
O O12 0.871530 0.950598 0.990361
O O13 0.950612 0.994939 0.055446
O O14 0.661971 0.592092 0.678045
O O15 0.583851 0.568183 0.767749
O O16 0.000000 0.500000 0.754830
#
# Coordination Sequence:
#
# PCOD9364345 Si02
#       8
#     8   8   8   4   8   8   8   8
#     4  12  27  40  65  98 133 178 230 282 331 400
#     4  12  23  42  67  99 132 173 231 271 341 401
#     4  11  22  42  70  96 138 175 224 279 340 413
#     4  10  20  40  68 106 130 176 226 280 340 410
#     4  11  22  44  64  92 132 176 218 280 329 406
#     4  10  21  41  70  94 133 177 219 272 341 405
#     4  10  24  39  66  94 131 174 222 276 337 394
#     4  11  23  43  61  88 133 173 222 279 332 386
#
# _framework density 19.879988000000001
#
# number of rings (size 3 to 8) (size 9 to 14) (size 15 to 20)
#    0.000    1.067    6.667    1.600    3.733    0.533 
#    2.400    2.667    0.000    3.200    0.000    0.000 
#    0.000    0.000    0.000    0.000    0.000    0.000 
#
# Total GULP energy -167006.136073 kJ/mol
# GULP energy per Si atom -5566.871202 kJ/mol
# Density = 1.983474 g / cm^3
# Si number density = 19.879988 Si / 1000 Ang^3
#
#
#
# Elastic Constant Matrix: (Units=GPa)
#
#
# Indices 1 2 3 4 5 6 
#
# 1 89.8266 25.4752 -0.4547 0.0000 0.0000 0.0000
# 2 25.4752 111.3909 27.3914 0.0000 0.0000 0.0000
# 3 -0.4547 27.3914 110.2579 0.0000 0.0000 0.0000
# 4 0.0000 0.0000 0.0000 38.6766 0.0000 0.0000
# 5 0.0000 0.0000 0.0000 0.0000 -7.1766 0.0000
# 6 0.0000 0.0000 0.0000 0.0000 0.0000 -6.5143
#
#
#
# Elastic Compliance Matrix: (Units=1/GPa)
#
#
# Indices 1 2 3 4 5 6 
#
# 1 0.011967 -0.002928 0.000777 0.000000 0.000000 0.000000
# 2 -0.002928 0.010278 -0.002565 0.000000 0.000000 0.000000
# 3 0.000777 -0.002565 0.009710 0.000000 0.000000 0.000000
# 4 0.000000 0.000000 0.000000 0.025855 0.000000 0.000000
# 5 0.000000 0.000000 0.000000 0.000000 -0.139341 0.000000
# 6 0.000000 0.000000 0.000000 0.000000 0.000000 -0.153507
#
#
# Mechanical properties :
#
#
# Convention : Reuss Voigt Hill
#
# Bulk Modulus (GPa) = 44.40138 46.25545 45.32842
# Shear Modulus (GPa) = -22.92544 22.26804 -0.32870
#
# Velocity S-wave (km/s) = -3.39955 3.35046 -0.40706
# Velocity P-wave (km/s) = 2.64082 6.18751 4.75706
#
# Compressibility (1/GPa) = 0.02252182
#
# Stress axis : x y z
#
# Youngs Moduli (GPa) = 83.56428 97.29684 102.98487
#
# Poissons Ratio (x) = 0.28487 -0.07999
# Poissons Ratio (y) = 0.24466 0.26420
# Poissons Ratio (z) = -0.06491 0.24960
#
# Static dielectric constant tensor:
#      x y z
#    x 1.689420 0.000000 0.000000 
#    y 0.000000 1.706200 0.000000 
#    z 0.000000 0.000000 1.741290 
# 
# From -- ./inp_files/14377.got.cif
#   From: 2010.05.17/outbox.cif.g08.bks.cpg/sg40_8_cif.got.tgz:14377.got - 2010.06.03 18:35:42.
