data_PCOD9364194
_publ_section_title
;
Structure prediction by ZEFSAII (Michael W. Deem and Ramdas Pophale) SiO2 
 PCOD9364194
Probable space group: A M A 2
;
_chemical_formula_sum "Si O2"
_cell_formula_units_Z 56
_cell_length_a 15.204656
_cell_length_b 5.000998
_cell_length_c 31.948949
_cell_angle_alpha 90.000000
_cell_angle_beta 90.000000
_cell_angle_gamma 90.000000
_cell_volume 2429.348697
_symmetry_space_group_name_H-M "A M A 2"
_symmetry_group_IT_number 40
_symmetry_cell_setting 'orthorhombic'
loop_
_space_group_symop_operation_xyz
x,y,z
-x,-y,z
1/2-x,y,z
1/2+x,-y,z
x,1/2+y,1/2+z
-x,1/2-y,1/2+z
1/2-x,1/2+y,1/2+z
1/2+x,1/2-y,1/2+z
loop_
_atom_site_type_symbol
_atom_site_label
_atom_site_fract_x
_atom_site_fract_y
_atom_site_fract_z
Si Si1 0.650307 0.367044 0.927560
Si Si2 0.565790 0.250645 0.287920
Si Si3 0.402736 0.124100 0.877923
Si Si4 0.849693 0.867043 0.148280
Si Si5 0.642555 0.113004 0.562459
Si Si6 0.402736 0.624100 0.197916
Si Si7 0.857445 0.113004 0.013381
O O1 0.750000 0.458245 0.937031
O O2 0.602603 0.623549 0.908683
O O3 0.652997 0.124800 0.894426
O O4 0.611854 0.234768 0.969571
O O5 0.500000 0.500000 0.287920
O O6 0.618572 0.270968 0.331274
O O7 0.618572 0.270967 0.244566
O O8 0.500000 0.000000 0.287920
O O9 0.500000 0.000000 0.877386
O O10 0.750000 0.958245 0.138809
O O11 0.888146 0.734767 0.106269
O O12 0.897397 0.123548 0.167157
O O13 0.847003 0.624800 0.181414
O O14 0.750000 0.109224 0.564403
O O15 0.615672 0.815316 0.550353
O O16 0.615672 0.315316 0.525487
O O17 0.500000 0.500000 0.198454
O O18 0.750000 0.109223 0.011437
#
# Coordination Sequence:
#
# PCOD9364194 Si02
#       7
#     8   8   8   8   8   8   8
#     4  11  22  37  59  89 119 147 190 246 297 340
#     4  10  20  38  61  84 109 150 201 232 263 340
#     4  11  22  39  61  84 114 154 196 237 286 349
#     4  11  22  37  59  89 119 147 190 246 297 340
#     4   9  17  31  53  79 108 147 192 232 274 338
#     4  11  22  39  61  84 114 154 196 237 286 349
#     4   9  17  31  53  79 108 147 192 232 274 338
#
# _framework density 23.051445999999999
#
# number of rings (size 3 to 8) (size 9 to 14) (size 15 to 20)
#    0.000    1.714    0.000    6.857    0.000    4.571 
#    0.000    4.286    0.000   17.143    0.000    0.000 
#    0.000    0.000    0.000    0.000    0.000    0.000 
#
# Total GULP energy -156518.728838 kJ/mol
# GULP energy per Si atom -5589.954601 kJ/mol
# Density = 2.299898 g / cm^3
# Si number density = 23.051446 Si / 1000 Ang^3
#
#
#
# Elastic Constant Matrix: (Units=GPa)
#
#
# Indices 1 2 3 4 5 6 
#
# 1 34.3274 1.2544 9.5080 0.0000 0.0000 0.0000
# 2 1.2544 123.0025 4.5769 0.0000 0.0000 0.0000
# 3 9.5080 4.5769 83.4194 0.0000 0.0000 0.0000
# 4 0.0000 0.0000 0.0000 37.0896 0.0000 0.0000
# 5 0.0000 0.0000 0.0000 0.0000 24.8415 0.0000
# 6 0.0000 0.0000 0.0000 0.0000 0.0000 29.5988
#
#
#
# Elastic Compliance Matrix: (Units=1/GPa)
#
#
# Indices 1 2 3 4 5 6 
#
# 1 0.030085 -0.000180 -0.003419 0.000000 0.000000 0.000000
# 2 -0.000180 0.008148 -0.000427 0.000000 0.000000 0.000000
# 3 -0.003419 -0.000427 0.012401 0.000000 0.000000 0.000000
# 4 0.000000 0.000000 0.000000 0.026962 0.000000 0.000000
# 5 0.000000 0.000000 0.000000 0.000000 0.040255 0.000000
# 6 0.000000 0.000000 0.000000 0.000000 0.000000 0.033785
#
#
# Mechanical properties :
#
#
# Convention : Reuss Voigt Hill
#
# Bulk Modulus (GPa) = 23.48377 30.15866 26.82122
# Shear Modulus (GPa) = 28.75547 33.33333 31.04440
#
# Velocity S-wave (km/s) = 3.53575 3.80681 3.67378
# Velocity P-wave (km/s) = 5.18444 5.69509 5.44575
#
# Compressibility (1/GPa) = 0.04258259
#
# Stress axis : x y z
#
# Youngs Moduli (GPa) = 33.23934 122.73526 80.64043
#
# Poissons Ratio (x) = 0.02204 0.27572
# Poissons Ratio (y) = 0.00597 0.03440
# Poissons Ratio (z) = 0.11365 0.05235
#
# Static dielectric constant tensor:
#      x y z
#    x 1.925010 0.000000 0.000000 
#    y 0.000000 1.792170 0.000000 
#    z 0.000000 0.000000 1.932620 
# 
# From -- ./inp_files/26609.got.cif
#   From: 2010.05.17/outbox.cif.g08.bks.cpg/sg40_14_cif.got.tgz:26609.got - 2010.06.03 18:35:42.
