data_PCOD9364638
_publ_section_title
;
Structure prediction by ZEFSAII (Michael W. Deem and Ramdas Pophale) SiO2 
 PCOD9364638
Probable space group: A M A 2
;
_chemical_formula_sum "Si O2"
_cell_formula_units_Z 48
_cell_length_a 14.583412
_cell_length_b 15.009324
_cell_length_c 9.558575
_cell_angle_alpha 90.000000
_cell_angle_beta 90.000000
_cell_angle_gamma 90.000000
_cell_volume 2092.249295
_symmetry_space_group_name_H-M "A M A 2"
_symmetry_group_IT_number 40
_symmetry_cell_setting 'orthorhombic'
loop_
_space_group_symop_operation_xyz
x,y,z
-x,-y,z
1/2-x,y,z
1/2+x,-y,z
x,1/2+y,1/2+z
-x,1/2-y,1/2+z
1/2-x,1/2+y,1/2+z
1/2+x,1/2-y,1/2+z
loop_
_atom_site_type_symbol
_atom_site_label
_atom_site_fract_x
_atom_site_fract_y
_atom_site_fract_z
Si Si1 0.589457 0.438461 0.927900
Si Si2 0.444295 0.744914 0.079383
Si Si3 0.750000 0.671840 0.565060
Si Si4 0.109008 0.010516 0.736674
Si Si5 0.920446 0.314440 0.375661
Si Si6 0.250000 0.485883 0.763073
Si Si7 0.750000 0.191928 0.451524
Si Si8 0.750000 0.139113 0.767095
O O1 0.500000 0.500000 0.904652
O O2 0.561189 0.337833 0.969934
O O3 0.660809 0.455640 0.803006
O O4 0.634684 0.469897 0.075469
O O5 0.510074 0.815728 0.005541
O O6 0.344478 0.784338 0.112873
O O7 0.474609 0.709902 0.231623
O O8 0.750000 0.568382 0.615904
O O9 0.750000 0.698467 0.402222
O O10 0.128632 0.093343 0.836659
O O11 0.161749 0.923662 0.781536
O O12 0.000000 0.000000 0.738926
O O13 0.842274 0.243643 0.411866
O O14 0.250000 0.402243 0.871685
O O15 0.750000 0.182095 0.617392
#
# Coordination Sequence:
#
# PCOD9364638 Si02
#       8
#     8   8   4   8   8   4   4   4
#     4  10  21  38  69  97 125 171 230 274 320 402
#     4  11  24  43  67 100 138 178 224 283 341 399
#     4  12  27  43  63  97 144 173 215 290 350 397
#     4  10  21  40  66  96 130 172 223 273 330 399
#     4  11  24  42  69 100 135 177 229 283 337 402
#     4  12  21  43  63  97 128 170 219 274 337 393
#     4  12  23  41  71  95 128 176 233 274 329 415
#     4  12  25  43  69  93 132 179 225 276 346 411
#
# _framework density 22.941818999999999
#
# number of rings (size 3 to 8) (size 9 to 14) (size 15 to 20)
#    0.000    1.000    3.333    3.000    7.000    2.667 
#    3.000    2.500    0.000    0.000    0.000    0.000 
#    0.000    0.000    0.000    0.000    0.000    0.000 
#
# Total GULP energy -134164.139046 kJ/mol
# GULP energy per Si atom -5590.172460 kJ/mol
# Density = 2.288960 g / cm^3
# Si number density = 22.941819 Si / 1000 Ang^3
#
#
#
# Elastic Constant Matrix: (Units=GPa)
#
#
# Indices 1 2 3 4 5 6 
#
# 1 104.4811 14.4396 24.9408 0.0000 0.0000 0.0000
# 2 14.4396 45.4746 22.5775 0.0000 0.0000 0.0000
# 3 24.9408 22.5775 99.3702 0.0000 0.0000 0.0000
# 4 0.0000 0.0000 0.0000 28.7640 0.0000 0.0000
# 5 0.0000 0.0000 0.0000 0.0000 14.9507 0.0000
# 6 0.0000 0.0000 0.0000 0.0000 0.0000 51.3960
#
#
#
# Elastic Compliance Matrix: (Units=1/GPa)
#
#
# Indices 1 2 3 4 5 6 
#
# 1 0.010383 -0.002258 -0.002093 0.000000 0.000000 0.000000
# 2 -0.002258 0.025277 -0.005176 0.000000 0.000000 0.000000
# 3 -0.002093 -0.005176 0.011765 0.000000 0.000000 0.000000
# 4 0.000000 0.000000 0.000000 0.034766 0.000000 0.000000
# 5 0.000000 0.000000 0.000000 0.000000 0.066886 0.000000
# 6 0.000000 0.000000 0.000000 0.000000 0.000000 0.019457
#
#
# Mechanical properties :
#
#
# Convention : Reuss Voigt Hill
#
# Bulk Modulus (GPa) = 35.24791 41.47129 38.35960
# Shear Modulus (GPa) = 25.37493 31.51335 28.44414
#
# Velocity S-wave (km/s) = 3.32935 3.71026 3.52495
# Velocity P-wave (km/s) = 5.49334 6.03909 5.77267
#
# Compressibility (1/GPa) = 0.02837048
#
# Stress axis : x y z
#
# Youngs Moduli (GPa) = 96.31359 39.56125 84.99911
#
# Poissons Ratio (x) = 0.08932 0.17790
# Poissons Ratio (y) = 0.21745 0.44000
# Poissons Ratio (z) = 0.20158 0.20479
#
# Static dielectric constant tensor:
#      x y z
#    x 1.837280 0.000000 0.000000 
#    y 0.000000 1.865620 0.000000 
#    z 0.000000 0.000000 1.846830 
# 
# From -- ./inp_files/6544.got.cif
#   From: 2010.05.17/outbox.cif.g08.bks.cpg/sg40_4_cif.got.tgz:6544.got - 2010.06.03 18:35:42.
