data_PCOD9364064
_publ_section_title
;
Structure prediction by ZEFSAII (Michael W. Deem and Ramdas Pophale) SiO2 
 PCOD9364064
Probable space group: A M A 2
;
_chemical_formula_sum "Si O2"
_cell_formula_units_Z 60
_cell_length_a 27.100737
_cell_length_b 18.768172
_cell_length_c 5.158802
_cell_angle_alpha 90.000000
_cell_angle_beta 90.000000
_cell_angle_gamma 90.000000
_cell_volume 2623.928133
_symmetry_space_group_name_H-M "A M A 2"
_symmetry_group_IT_number 40
_symmetry_cell_setting 'orthorhombic'
loop_
_space_group_symop_operation_xyz
x,y,z
-x,-y,z
1/2-x,y,z
1/2+x,-y,z
x,1/2+y,1/2+z
-x,1/2-y,1/2+z
1/2-x,1/2+y,1/2+z
1/2+x,1/2-y,1/2+z
loop_
_atom_site_type_symbol
_atom_site_label
_atom_site_fract_x
_atom_site_fract_y
_atom_site_fract_z
Si Si1 0.634985 0.740897 0.291460
Si Si2 0.903757 0.391713 0.943925
Si Si3 0.180616 0.100308 0.790340
Si Si4 0.014772 0.919758 0.466327
Si Si5 0.158056 0.985834 0.185603
Si Si6 0.750000 0.988736 0.436015
Si Si7 0.076617 0.386244 0.467992
Si Si8 0.695561 0.236848 0.307865
O O1 0.619418 0.823790 0.296548
O O2 0.589432 0.693018 0.378804
O O3 0.676066 0.731520 0.515478
O O4 0.655711 0.712962 0.019077
O O5 0.885175 0.465594 0.813931
O O6 0.961602 0.382389 0.978340
O O7 0.876945 0.394070 0.222360
O O8 0.207890 0.070017 0.537976
O O9 0.198290 0.177872 0.862676
O O10 0.189063 0.039771 0.001514
O O11 0.044355 0.920036 0.736733
O O12 0.047526 0.887928 0.237217
O O13 0.000000 0.000000 0.395581
O O14 0.203304 0.957919 0.360679
O O15 0.128091 0.928079 0.019511
O O16 0.750000 0.207193 0.340344
#
# Coordination Sequence:
#
# PCOD9364064 Si02
#       8
#     8   8   8   8   8   4   8   8
#     4  11  25  45  63 101 137 182 222 287 347 419
#     4  10  23  40  69  96 135 171 232 278 348 413
#     4  10  20  36  66 100 130 168 223 287 328 402
#     4  12  25  45  72 102 127 182 232 285 352 419
#     4  11  22  42  63  97 137 176 219 291 338 411
#     4  10  22  36  62 100 134 174 222 276 354 398
#     4  12  28  45  69  95 144 175 229 289 348 415
#     4  11  22  40  70  95 136 180 234 273 336 412
#
# _framework density 22.866481
#
# number of rings (size 3 to 8) (size 9 to 14) (size 15 to 20)
#    0.000    1.067    3.333    2.800    3.733    1.067 
#    2.400    0.000    0.000    0.000    0.000    0.000 
#    0.000    0.000    0.000    0.000    0.000    0.000 
#
# Total GULP energy -167126.667991 kJ/mol
# GULP energy per Si atom -5570.888933 kJ/mol
# Density = 2.281444 g / cm^3
# Si number density = 22.866481 Si / 1000 Ang^3
#
#
#
# Elastic Constant Matrix: (Units=GPa)
#
#
# Indices 1 2 3 4 5 6 
#
# 1 141.0338 12.6809 31.3314 0.0000 0.0000 0.0000
# 2 12.6809 44.3359 9.0600 0.0000 0.0000 0.0000
# 3 31.3314 9.0600 64.1457 0.0000 0.0000 0.0000
# 4 0.0000 0.0000 0.0000 20.4794 0.0000 0.0000
# 5 0.0000 0.0000 0.0000 0.0000 9.8925 0.0000
# 6 0.0000 0.0000 0.0000 0.0000 0.0000 2.9064
#
#
#
# Elastic Compliance Matrix: (Units=1/GPa)
#
#
# Indices 1 2 3 4 5 6 
#
# 1 0.008055 -0.001544 -0.003716 0.000000 0.000000 0.000000
# 2 -0.001544 0.023522 -0.002568 0.000000 0.000000 0.000000
# 3 -0.003716 -0.002568 0.017767 0.000000 0.000000 0.000000
# 4 0.000000 0.000000 0.000000 0.048830 0.000000 0.000000
# 5 0.000000 0.000000 0.000000 0.000000 0.101087 0.000000
# 6 0.000000 0.000000 0.000000 0.000000 0.000000 0.344062
#
#
# Mechanical properties :
#
#
# Convention : Reuss Voigt Hill
#
# Bulk Modulus (GPa) = 29.68522 39.51779 34.60151
# Shear Modulus (GPa) = 8.76872 19.75186 14.26029
#
# Velocity S-wave (km/s) = 1.96038 2.94222 2.49997
# Velocity P-wave (km/s) = 4.25843 5.37231 4.84747
#
# Compressibility (1/GPa) = 0.03368680
#
# Stress axis : x y z
#
# Youngs Moduli (GPa) = 124.14731 42.51420 56.28298
#
# Poissons Ratio (x) = 0.06566 0.20916
# Poissons Ratio (y) = 0.19174 0.14453
# Poissons Ratio (z) = 0.46136 0.10917
#
# Static dielectric constant tensor:
#      x y z
#    x 1.833520 0.000000 0.000000 
#    y 0.000000 1.867240 0.000000 
#    z 0.000000 0.000000 1.951240 
# 
# From -- ./inp_files/2816.got.cif
#   From: 2010.05.17/outbox.cif.g08.bks.cpg/sg40_2_cif.got.tgz:2816.got - 2010.06.03 18:35:42.
