data_PCOD9364739
_publ_section_title
;
Structure prediction by ZEFSAII (Michael W. Deem and Ramdas Pophale) SiO2 
 PCOD9364739
Probable space group: A M A 2
;
_chemical_formula_sum "Si O2"
_cell_formula_units_Z 64
_cell_length_a 22.410431
_cell_length_b 16.522168
_cell_length_c 8.899532
_cell_angle_alpha 90.000000
_cell_angle_beta 90.000000
_cell_angle_gamma 90.000000
_cell_volume 3295.219977
_symmetry_space_group_name_H-M "A M A 2"
_symmetry_group_IT_number 40
_symmetry_cell_setting 'orthorhombic'
loop_
_space_group_symop_operation_xyz
x,y,z
-x,-y,z
1/2-x,y,z
1/2+x,-y,z
x,1/2+y,1/2+z
-x,1/2-y,1/2+z
1/2-x,1/2+y,1/2+z
1/2+x,1/2-y,1/2+z
loop_
_atom_site_type_symbol
_atom_site_label
_atom_site_fract_x
_atom_site_fract_y
_atom_site_fract_z
Si Si1 0.400914 0.792343 0.865510
Si Si2 0.570300 0.505104 0.941882
Si Si3 0.318894 0.767520 0.277363
Si Si4 0.097678 0.149984 0.599539
Si Si5 0.070057 0.025661 0.086592
Si Si6 0.405145 0.309779 0.015752
Si Si7 0.820931 0.594859 0.533280
Si Si8 0.028125 0.666987 0.390617
O O1 0.408311 0.786612 0.688595
O O2 0.458345 0.843016 0.922908
O O3 0.405816 0.708206 0.954617
O O4 0.341123 0.841269 0.905260
O O5 0.500000 0.500000 0.976941
O O6 0.576699 0.479328 0.767331
O O7 0.605366 0.440569 0.042958
O O8 0.588900 0.595791 0.981177
O O9 0.250000 0.752586 0.273679
O O10 0.351945 0.692940 0.198698
O O11 0.343921 0.779888 0.442431
O O12 0.330893 0.850040 0.182867
O O13 0.042067 0.150506 0.715650
O O14 0.128522 0.975247 0.030838
O O15 0.068308 0.111269 0.998841
O O16 0.000000 0.000000 0.059261
O O17 0.455046 0.259857 0.924075
O O18 0.750000 0.573052 0.525193
#
# Coordination Sequence:
#
# PCOD9364739 Si02
#       8
#     8   8   8   8   8   8   8   8
#     4  11  21  37  62  91 126 165 211 258 318 382
#     4  11  22  36  58  93 130 157 206 264 319 377
#     4   9  20  43  66  85 122 170 215 261 322 388
#     4  10  23  38  59  93 127 163 206 264 316 375
#     4  11  22  38  63  92 127 168 213 266 321 380
#     4  11  23  38  62  93 127 169 208 263 318 383
#     4  10  21  40  63  90 123 165 212 264 319 379
#     4  11  22  37  61  90 130 169 208 254 327 377
#
# _framework density 19.422072
#
# number of rings (size 3 to 8) (size 9 to 14) (size 15 to 20)
#    0.000    1.500    2.500    3.000    1.750    2.000 
#    0.000    3.750    0.000    1.500    0.000    0.000 
#    0.000    0.000    0.000    0.000    0.000    0.000 
#
# Total GULP energy -178372.527091 kJ/mol
# GULP energy per Si atom -5574.141472 kJ/mol
# Density = 1.937787 g / cm^3
# Si number density = 19.422072 Si / 1000 Ang^3
#
#
#
# Elastic Constant Matrix: (Units=GPa)
#
#
# Indices 1 2 3 4 5 6 
#
# 1 80.7750 42.1059 -5.3542 0.0000 0.0000 0.0000
# 2 42.1059 132.9444 49.2280 0.0000 0.0000 0.0000
# 3 -5.3542 49.2280 75.8765 0.0000 0.0000 0.0000
# 4 0.0000 0.0000 0.0000 12.4648 0.0000 0.0000
# 5 0.0000 0.0000 0.0000 0.0000 17.3520 0.0000
# 6 0.0000 0.0000 0.0000 0.0000 0.0000 14.7952
#
#
#
# Elastic Compliance Matrix: (Units=1/GPa)
#
#
# Indices 1 2 3 4 5 6 
#
# 1 0.016714 -0.007542 0.006073 0.000000 0.000000 0.000000
# 2 -0.007542 0.013304 -0.009164 0.000000 0.000000 0.000000
# 3 0.006073 -0.009164 0.019553 0.000000 0.000000 0.000000
# 4 0.000000 0.000000 0.000000 0.080226 0.000000 0.000000
# 5 0.000000 0.000000 0.000000 0.000000 0.057630 0.000000
# 6 0.000000 0.000000 0.000000 0.000000 0.000000 0.067589
#
#
# Mechanical properties :
#
#
# Convention : Reuss Voigt Hill
#
# Bulk Modulus (GPa) = 35.32954 51.28393 43.30673
# Shear Modulus (GPa) = 17.49971 22.49682 19.99826
#
# Velocity S-wave (km/s) = 3.00496 3.40709 3.21232
# Velocity P-wave (km/s) = 5.50178 6.47611 6.00873
#
# Compressibility (1/GPa) = 0.02830493
#
# Stress axis : x y z
#
# Youngs Moduli (GPa) = 59.82899 75.16521 51.14252
#
# Poissons Ratio (x) = 0.56693 -0.31059
# Poissons Ratio (y) = 0.45126 0.46866
# Poissons Ratio (z) = -0.36334 0.68880
#
# Static dielectric constant tensor:
#      x y z
#    x 1.683660 0.000000 0.000000 
#    y 0.000000 1.706570 0.000000 
#    z 0.000000 0.000000 1.689320 
# 
# From -- ./inp_files/8900.got.cif
#   From: 2010.05.17/outbox.cif.g08.bks.cpg/sg40_5_cif.got.tgz:8900.got - 2010.06.03 18:35:42.
