data_PCOD9364248
_publ_section_title
;
Structure prediction by ZEFSAII (Michael W. Deem and Ramdas Pophale) SiO2 
 PCOD9364248
Probable space group: A M A 2
;
_chemical_formula_sum "Si O2"
_cell_formula_units_Z 56
_cell_length_a 21.708230
_cell_length_b 10.485924
_cell_length_c 11.547808
_cell_angle_alpha 90.000000
_cell_angle_beta 90.000000
_cell_angle_gamma 90.000000
_cell_volume 2628.637350
_symmetry_space_group_name_H-M "A M A 2"
_symmetry_group_IT_number 40
_symmetry_cell_setting 'orthorhombic'
loop_
_space_group_symop_operation_xyz
x,y,z
-x,-y,z
1/2-x,y,z
1/2+x,-y,z
x,1/2+y,1/2+z
-x,1/2-y,1/2+z
1/2-x,1/2+y,1/2+z
1/2+x,1/2-y,1/2+z
loop_
_atom_site_type_symbol
_atom_site_label
_atom_site_fract_x
_atom_site_fract_y
_atom_site_fract_z
Si Si1 0.989776 0.349352 0.831490
Si Si2 0.614011 0.850282 0.511026
Si Si3 0.321457 0.667752 0.482672
Si Si4 0.380528 0.257015 0.759055
Si Si5 0.176445 0.396383 0.403194
Si Si6 0.374430 0.257505 0.202562
Si Si7 0.178320 0.008991 0.315740
O O1 0.942037 0.288449 0.739686
O O2 0.000000 0.500000 0.808952
O O3 0.053406 0.275070 0.819996
O O4 0.953760 0.338665 0.953754
O O5 0.613535 0.833578 0.648101
O O6 0.653794 0.728460 0.469944
O O7 0.645442 0.967499 0.440824
O O8 0.250000 0.678482 0.515203
O O9 0.331347 0.706658 0.350529
O O10 0.341029 0.519993 0.477481
O O11 0.361851 0.754527 0.567273
O O12 0.356011 0.401288 0.741176
O O13 0.250000 0.398048 0.389248
O O14 0.144749 0.380870 0.276934
O O15 0.330596 0.142828 0.249761
O O16 0.250000 0.980498 0.330523
#
# Coordination Sequence:
#
# PCOD9364248 Si02
#       7
#     8   8   8   8   8   8   8
#     4  10  21  44  63  88 121 164 214 275 327 389
#     4  10  22  39  63  92 121 163 216 267 322 383
#     4  11  24  38  58  94 134 165 203 264 331 394
#     4  12  24  39  61  95 124 168 216 262 328 393
#     4   9  19  38  60  86 121 159 206 257 313 383
#     4  10  20  39  64  88 117 168 212 257 320 382
#     4  10  20  38  65  92 120 159 210 265 324 384
#
# _framework density 21.303812000000001
#
# number of rings (size 3 to 8) (size 9 to 14) (size 15 to 20)
#    0.000    2.000    2.857    3.857    2.000    4.571 
#    0.000    4.286    0.000    0.000    0.000    0.000 
#    0.000    0.000    0.000    0.000    0.000    0.000 
#
# Total GULP energy -156199.483356 kJ/mol
# GULP energy per Si atom -5578.552977 kJ/mol
# Density = 2.125532 g / cm^3
# Si number density = 21.303812 Si / 1000 Ang^3
#
#
#
# Elastic Constant Matrix: (Units=GPa)
#
#
# Indices 1 2 3 4 5 6 
#
# 1 85.3914 6.6061 20.3089 0.0000 0.0000 0.0000
# 2 6.6061 31.8109 8.4068 0.0000 0.0000 0.0000
# 3 20.3089 8.4068 107.1010 0.0000 0.0000 0.0000
# 4 0.0000 0.0000 0.0000 18.3609 0.0000 0.0000
# 5 0.0000 0.0000 0.0000 0.0000 17.7026 0.0000
# 6 0.0000 0.0000 0.0000 0.0000 0.0000 21.6460
#
#
#
# Elastic Compliance Matrix: (Units=1/GPa)
#
#
# Indices 1 2 3 4 5 6 
#
# 1 0.012386 -0.001993 -0.002192 0.000000 0.000000 0.000000
# 2 -0.001993 0.032422 -0.002167 0.000000 0.000000 0.000000
# 3 -0.002192 -0.002167 0.009923 0.000000 0.000000 0.000000
# 4 0.000000 0.000000 0.000000 0.054463 0.000000 0.000000
# 5 0.000000 0.000000 0.000000 0.000000 0.056489 0.000000
# 6 0.000000 0.000000 0.000000 0.000000 0.000000 0.046198
#
#
# Mechanical properties :
#
#
# Convention : Reuss Voigt Hill
#
# Bulk Modulus (GPa) = 23.79427 32.77189 28.28308
# Shear Modulus (GPa) = 20.95599 24.14068 22.54833
#
# Velocity S-wave (km/s) = 3.13976 3.36990 3.25686
# Velocity P-wave (km/s) = 4.93329 5.52794 5.23906
#
# Compressibility (1/GPa) = 0.04202692
#
# Stress axis : x y z
#
# Youngs Moduli (GPa) = 80.73396 30.84296 100.77807
#
# Poissons Ratio (x) = 0.06147 0.22094
# Poissons Ratio (y) = 0.16089 0.21839
# Poissons Ratio (z) = 0.17699 0.06684
#
# Static dielectric constant tensor:
#      x y z
#    x 1.724540 0.000000 0.000000 
#    y 0.000000 1.852910 0.000000 
#    z 0.000000 0.000000 1.853610 
# 
# From -- ./inp_files/13586.got.cif
#   From: 2010.05.17/outbox.cif.g08.bks.cpg/sg40_7_cif.got.tgz:13586.got - 2010.06.03 18:35:42.
