data_PCOD9364825
_publ_section_title
;
Structure prediction by ZEFSAII (Michael W. Deem and Ramdas Pophale) SiO2 
 PCOD9364825
Probable space group: A M A 2
;
_chemical_formula_sum "Si O2"
_cell_formula_units_Z 40
_cell_length_a 26.804520
_cell_length_b 12.660370
_cell_length_c 5.037319
_cell_angle_alpha 90.000000
_cell_angle_beta 90.000000
_cell_angle_gamma 90.000000
_cell_volume 1709.440099
_symmetry_space_group_name_H-M "A M A 2"
_symmetry_group_IT_number 40
_symmetry_cell_setting 'orthorhombic'
loop_
_space_group_symop_operation_xyz
x,y,z
-x,-y,z
1/2-x,y,z
1/2+x,-y,z
x,1/2+y,1/2+z
-x,1/2-y,1/2+z
1/2-x,1/2+y,1/2+z
1/2+x,1/2-y,1/2+z
loop_
_atom_site_type_symbol
_atom_site_label
_atom_site_fract_x
_atom_site_fract_y
_atom_site_fract_z
Si Si1 0.608511 0.142582 0.365070
Si Si2 0.143631 0.123084 0.982090
Si Si3 0.692094 0.974251 0.453349
Si Si4 0.943693 0.983084 0.761229
Si Si5 0.034372 0.739561 0.020451
O O1 0.624504 0.257884 0.469389
O O2 0.576278 0.174714 0.103833
O O3 0.659319 0.074763 0.359825
O O4 0.574277 0.076010 0.567880
O O5 0.170983 0.077469 0.721684
O O6 0.094727 0.047732 0.993039
O O7 0.180723 0.109890 0.224717
O O8 0.750000 0.999714 0.478909
O O9 0.944371 0.876191 0.582781
O O10 0.000000 0.000000 0.856954
O O11 0.989487 0.756585 0.231453
#
# Coordination Sequence:
#
# PCOD9364825 Si02
#       5
#     8   8   8   8   8
#     4  10  24  45  69  99 141 180 228 281 340 404
#     4  10  25  45  67 101 139 171 230 286 337 413
#     4  11  25  46  72 100 131 177 233 293 353 408
#     4  10  21  42  65 100 135 187 223 269 327 413
#     4  11  24  41  64  97 138 184 226 270 332 398
#
# _framework density 23.399474999999999
#
# number of rings (size 3 to 8) (size 9 to 14) (size 15 to 20)
#    0.000    1.600    2.000    0.600    2.800   14.400 
#    0.000    0.000    0.000    0.000    0.000    0.000 
#    0.000    0.000    0.000    0.000    0.000    0.000 
#
# Total GULP energy -112006.338661 kJ/mol
# GULP energy per Si atom -5600.316933 kJ/mol
# Density = 2.334622 g / cm^3
# Si number density = 23.399475 Si / 1000 Ang^3
#
#
#
# Elastic Constant Matrix: (Units=GPa)
#
#
# Indices 1 2 3 4 5 6 
#
# 1 179.0322 54.2568 34.2382 0.0000 0.0000 0.0000
# 2 54.2568 140.9516 6.4206 0.0000 0.0000 0.0000
# 3 34.2382 6.4206 79.4923 0.0000 0.0000 0.0000
# 4 0.0000 0.0000 0.0000 19.8368 0.0000 0.0000
# 5 0.0000 0.0000 0.0000 0.0000 -11.3378 0.0000
# 6 0.0000 0.0000 0.0000 0.0000 0.0000 7.8141
#
#
#
# Elastic Compliance Matrix: (Units=1/GPa)
#
#
# Indices 1 2 3 4 5 6 
#
# 1 0.006877 -0.002522 -0.002758 0.000000 0.000000 0.000000
# 2 -0.002522 0.008045 0.000436 0.000000 0.000000 0.000000
# 3 -0.002758 0.000436 0.013733 0.000000 0.000000 0.000000
# 4 0.000000 0.000000 0.000000 0.050411 0.000000 0.000000
# 5 0.000000 0.000000 0.000000 0.000000 -0.088201 0.000000
# 6 0.000000 0.000000 0.000000 0.000000 0.000000 0.127974
#
#
# Mechanical properties :
#
#
# Convention : Reuss Voigt Hill
#
# Bulk Modulus (GPa) = 52.72103 65.47858 59.09980
# Shear Modulus (GPa) = 37.07824 23.56666 30.32245
#
# Velocity S-wave (km/s) = 3.98499 3.17700 3.60371
# Velocity P-wave (km/s) = 6.61463 6.44216 6.52896
#
# Compressibility (1/GPa) = 0.01896776
#
# Stress axis : x y z
#
# Youngs Moduli (GPa) = 145.40551 124.29427 72.81891
#
# Poissons Ratio (x) = 0.31343 0.20087
# Poissons Ratio (y) = 0.36666 -0.03177
# Poissons Ratio (z) = 0.40110 -0.05423
#
# Static dielectric constant tensor:
#      x y z
#    x 1.917140 0.000000 0.000000 
#    y 0.000000 1.940740 0.000000 
#    z 0.000000 0.000000 1.892550 
# 
# From -- ./inp_files/2951.got.cif
#   From: 2010.05.17/outbox.cif.g08.bks.cpg/sg40_2_cif.got.tgz:2951.got - 2010.06.03 18:35:42.
