data_PCOD9364957
_publ_section_title
;
Structure prediction by ZEFSAII (Michael W. Deem and Ramdas Pophale) SiO2 
 PCOD9364957
Probable space group: A M A 2
;
_chemical_formula_sum "Si O2"
_cell_formula_units_Z 48
_cell_length_a 18.906209
_cell_length_b 22.689254
_cell_length_c 5.538218
_cell_angle_alpha 90.000000
_cell_angle_beta 90.000000
_cell_angle_gamma 90.000000
_cell_volume 2375.717071
_symmetry_space_group_name_H-M "A M A 2"
_symmetry_group_IT_number 40
_symmetry_cell_setting 'orthorhombic'
loop_
_space_group_symop_operation_xyz
x,y,z
-x,-y,z
1/2-x,y,z
1/2+x,-y,z
x,1/2+y,1/2+z
-x,1/2-y,1/2+z
1/2-x,1/2+y,1/2+z
1/2+x,1/2-y,1/2+z
loop_
_atom_site_type_symbol
_atom_site_label
_atom_site_fract_x
_atom_site_fract_y
_atom_site_fract_z
Si Si1 0.168264 0.994558 0.731570
Si Si2 0.424424 0.588387 0.002715
Si Si3 0.167124 0.200441 0.406681
Si Si4 0.332939 0.772396 0.405180
Si Si5 0.079264 0.890370 0.477434
Si Si6 0.569716 0.516506 0.613747
O O1 0.250000 0.995887 0.674078
O O2 0.129459 0.056511 0.683211
O O3 0.128970 0.939370 0.604225
O O4 0.148057 0.985842 0.008817
O O5 0.384067 0.644496 0.899015
O O6 0.501280 0.609006 0.095569
O O7 0.435067 0.534441 0.814850
O O8 0.250000 0.183098 0.428891
O O9 0.151025 0.238502 0.651616
O O10 0.159960 0.234152 0.150855
O O11 0.250000 0.790249 0.388548
O O12 0.382434 0.828744 0.447839
O O13 0.064179 0.917919 0.214547
O O14 0.500000 0.500000 0.453912
#
# Coordination Sequence:
#
# PCOD9364957 Si02
#       6
#     8   8   8   8   8   8
#     4  11  22  36  61  91 121 159 201 254 315 376
#     4  10  22  40  61  88 122 159 206 258 310 372
#     4  10  23  42  63  91 127 167 211 258 310 371
#     4  10  23  42  63  91 127 167 211 258 310 371
#     4  10  22  40  61  88 122 159 206 258 310 372
#     4   9  20  38  59  87 121 157 199 258 313 368
#
# _framework density 20.204426999999999
#
# number of rings (size 3 to 8) (size 9 to 14) (size 15 to 20)
#    0.000    2.000    0.000    3.500    4.667    5.333 
#    0.000    0.000    0.000    0.000    0.000    0.000 
#    0.000    0.000    0.000    0.000    0.000    0.000 
#
# Total GULP energy -133613.783611 kJ/mol
# GULP energy per Si atom -5567.240984 kJ/mol
# Density = 2.015844 g / cm^3
# Si number density = 20.204427 Si / 1000 Ang^3
#
#
#
# Elastic Constant Matrix: (Units=GPa)
#
#
# Indices 1 2 3 4 5 6 
#
# 1 133.5395 60.8197 15.8774 0.0000 0.0000 0.0000
# 2 60.8197 99.8789 13.9391 0.0000 0.0000 0.0000
# 3 15.8774 13.9391 53.3808 0.0000 0.0000 0.0000
# 4 0.0000 0.0000 0.0000 11.4928 0.0000 0.0000
# 5 0.0000 0.0000 0.0000 0.0000 21.9967 0.0000
# 6 0.0000 0.0000 0.0000 0.0000 0.0000 39.0122
#
#
#
# Elastic Compliance Matrix: (Units=1/GPa)
#
#
# Indices 1 2 3 4 5 6 
#
# 1 0.010477 -0.006170 -0.001505 0.000000 0.000000 0.000000
# 2 -0.006170 0.014024 -0.001827 0.000000 0.000000 0.000000
# 3 -0.001505 -0.001827 0.019658 0.000000 0.000000 0.000000
# 4 0.000000 0.000000 0.000000 0.087011 0.000000 0.000000
# 5 0.000000 0.000000 0.000000 0.000000 0.045461 0.000000
# 6 0.000000 0.000000 0.000000 0.000000 0.000000 0.025633
#
#
# Mechanical properties :
#
#
# Convention : Reuss Voigt Hill
#
# Bulk Modulus (GPa) = 39.75275 52.00796 45.88036
# Shear Modulus (GPa) = 21.77178 27.57785 24.67481
#
# Velocity S-wave (km/s) = 3.28620 3.69852 3.49844
# Velocity P-wave (km/s) = 5.84096 6.63592 6.25109
#
# Compressibility (1/GPa) = 0.02515549
#
# Stress axis : x y z
#
# Youngs Moduli (GPa) = 95.44272 71.30512 50.86963
#
# Poissons Ratio (x) = 0.43996 0.07657
# Poissons Ratio (y) = 0.58888 0.09293
# Poissons Ratio (z) = 0.14366 0.13027
#
# Static dielectric constant tensor:
#      x y z
#    x 1.785200 0.000000 0.000000 
#    y 0.000000 1.670700 0.000000 
#    z 0.000000 0.000000 1.880980 
# 
# From -- ./inp_files/1873.got.cif
#   From: 2010.05.17/outbox.cif.g08.bks.cpg/sg40_1_cif.got.tgz:1873.got - 2010.06.03 18:35:42.
