data_PCOD9364817
_publ_section_title
;
Structure prediction by ZEFSAII (Michael W. Deem and Ramdas Pophale) SiO2 
 PCOD9364817
Probable space group: A M A 2
;
_chemical_formula_sum "Si O2"
_cell_formula_units_Z 64
_cell_length_a 13.555474
_cell_length_b 17.641097
_cell_length_c 12.311259
_cell_angle_alpha 90.000000
_cell_angle_beta 90.000000
_cell_angle_gamma 90.000000
_cell_volume 2944.033613
_symmetry_space_group_name_H-M "A M A 2"
_symmetry_group_IT_number 40
_symmetry_cell_setting 'orthorhombic'
loop_
_space_group_symop_operation_xyz
x,y,z
-x,-y,z
1/2-x,y,z
1/2+x,-y,z
x,1/2+y,1/2+z
-x,1/2-y,1/2+z
1/2-x,1/2+y,1/2+z
1/2+x,1/2-y,1/2+z
loop_
_atom_site_type_symbol
_atom_site_label
_atom_site_fract_x
_atom_site_fract_y
_atom_site_fract_z
Si Si1 0.368411 0.974360 0.418140
Si Si2 0.518066 0.879915 0.525582
Si Si3 0.363849 0.151338 0.929656
Si Si4 0.366416 0.718671 0.872523
Si Si5 0.138078 0.964383 0.170571
Si Si6 0.136947 0.644711 0.661751
Si Si7 0.968035 0.141865 0.777099
Si Si8 0.134315 0.467972 0.434694
O O1 0.250000 0.982717 0.418036
O O2 0.410298 0.901342 0.479894
O O3 0.401096 0.959252 0.292729
O O4 0.414800 0.048882 0.478767
O O5 0.570784 0.805552 0.477105
O O6 0.499560 0.873736 0.654140
O O7 0.250000 0.174172 0.917444
O O8 0.435553 0.176075 0.835638
O O9 0.366009 0.059131 0.927622
O O10 0.402381 0.175659 0.048544
O O11 0.250000 0.707104 0.895252
O O12 0.407219 0.663849 0.776992
O O13 0.383979 0.798527 0.813177
O O14 0.250000 0.934021 0.173403
O O15 0.142050 0.054727 0.154474
O O16 0.094689 0.939478 0.053672
O O17 0.250000 0.672529 0.667546
O O18 0.928716 0.067370 0.838505
O O19 0.250000 0.446008 0.428172
#
# Coordination Sequence:
#
# PCOD9364817 Si02
#       8
#     8   8   8   8   8   8   8   8
#     4  10  21  41  69  97 133 169 212 283 351 398
#     4  11  26  42  63 100 131 173 232 275 331 416
#     4   9  20  37  61  89 123 163 207 273 333 379
#     4  11  24  45  69  89 126 178 226 277 337 410
#     4   8  14  32  62  95 122 153 201 262 323 381
#     4   8  15  33  61  87 113 155 210 257 314 382
#     4  12  26  40  61  94 134 173 224 267 327 411
#     4   9  19  37  62  96 130 161 210 270 333 391
#
# _framework density 21.738882
#
# number of rings (size 3 to 8) (size 9 to 14) (size 15 to 20)
#    0.000    2.250    1.250    2.625    5.250    3.000 
#    2.250    0.625    0.000    0.000    0.000    0.000 
#    0.000    0.000    0.000    0.000    0.000    0.000 
#
# Total GULP energy -178189.000101 kJ/mol
# GULP energy per Si atom -5568.406253 kJ/mol
# Density = 2.168940 g / cm^3
# Si number density = 21.738882 Si / 1000 Ang^3
#
#
#
# Elastic Constant Matrix: (Units=GPa)
#
#
# Indices 1 2 3 4 5 6 
#
# 1 97.9982 11.7390 45.2314 0.0000 0.0000 0.0000
# 2 11.7390 30.5092 14.1560 0.0000 0.0000 0.0000
# 3 45.2314 14.1560 196.2311 0.0000 0.0000 0.0000
# 4 0.0000 0.0000 0.0000 -1.6625 0.0000 0.0000
# 5 0.0000 0.0000 0.0000 0.0000 26.1213 0.0000
# 6 0.0000 0.0000 0.0000 0.0000 0.0000 27.5502
#
#
#
# Elastic Compliance Matrix: (Units=1/GPa)
#
#
# Indices 1 2 3 4 5 6 
#
# 1 0.011746 -0.003376 -0.002464 0.000000 0.000000 0.000000
# 2 -0.003376 0.034883 -0.001738 0.000000 0.000000 0.000000
# 3 -0.002464 -0.001738 0.005789 0.000000 0.000000 0.000000
# 4 0.000000 0.000000 0.000000 -0.601493 0.000000 0.000000
# 5 0.000000 0.000000 0.000000 0.000000 0.038283 0.000000
# 6 0.000000 0.000000 0.000000 0.000000 0.000000 0.036297
#
#
# Mechanical properties :
#
#
# Convention : Reuss Voigt Hill
#
# Bulk Modulus (GPa) = 26.83753 51.88790 39.36271
# Shear Modulus (GPa) = -11.18774 27.30927 8.06077
#
# Velocity S-wave (km/s) = -2.27103 3.54819 1.92770
# Velocity P-wave (km/s) = 2.34423 6.38019 4.80636
#
# Compressibility (1/GPa) = 0.03726126
#
# Stress axis : x y z
#
# Youngs Moduli (GPa) = 85.13597 28.66759 172.73098
#
# Poissons Ratio (x) = 0.09679 0.42559
# Poissons Ratio (y) = 0.28744 0.30024
# Poissons Ratio (z) = 0.20976 0.04983
#
# Static dielectric constant tensor:
#      x y z
#    x 1.880780 0.000000 0.000000 
#    y 0.000000 2.892630 0.000000 
#    z 0.000000 0.000000 1.842950 
# 
# From -- ./inp_files/12496.got.cif
#   From: 2010.05.17/outbox.cif.g08.bks.cpg/sg40_7_cif.got.tgz:12496.got - 2010.06.03 18:35:42.
