data_PCOD9364876
_publ_section_title
;
Structure prediction by ZEFSAII (Michael W. Deem and Ramdas Pophale) SiO2 
 PCOD9364876
Probable space group: A M A 2
;
_chemical_formula_sum "Si O2"
_cell_formula_units_Z 40
_cell_length_a 5.783472
_cell_length_b 21.458727
_cell_length_c 12.177728
_cell_angle_alpha 90.000000
_cell_angle_beta 90.000000
_cell_angle_gamma 90.000000
_cell_volume 1511.328463
_symmetry_space_group_name_H-M "A M A 2"
_symmetry_group_IT_number 40
_symmetry_cell_setting 'orthorhombic'
loop_
_space_group_symop_operation_xyz
x,y,z
-x,-y,z
1/2-x,y,z
1/2+x,-y,z
x,1/2+y,1/2+z
-x,1/2-y,1/2+z
1/2-x,1/2+y,1/2+z
1/2+x,1/2-y,1/2+z
loop_
_atom_site_type_symbol
_atom_site_label
_atom_site_fract_x
_atom_site_fract_y
_atom_site_fract_z
Si Si1 0.250000 0.902014 0.670861
Si Si2 0.750000 0.885045 0.662188
Si Si3 0.499660 0.074501 0.363331
Si Si4 0.750000 0.486596 0.344411
Si Si5 0.250000 0.242277 0.778056
Si Si6 0.499384 0.587765 0.598129
Si Si7 0.250000 0.764968 0.730893
Si Si8 0.250000 0.201442 0.024113
O O1 0.500451 0.902308 0.612282
O O2 0.250000 0.963816 0.743427
O O3 0.250000 0.839761 0.749950
O O4 0.750000 0.811557 0.685524
O O5 0.750000 0.919556 0.782577
O O6 0.750000 0.101288 0.397066
O O7 0.499074 0.079486 0.229545
O O8 0.250000 0.100522 0.399339
O O9 0.500000 0.000000 0.388002
O O10 0.500000 0.500000 0.395643
O O11 0.512873 0.268334 0.769556
O O12 0.250000 0.213388 0.898052
O O13 0.250000 0.561891 0.559868
O O14 0.466432 0.659207 0.561065
O O15 0.750000 0.568154 0.559668
O O16 0.250000 0.761772 0.598821
#
# Coordination Sequence:
#
# PCOD9364876 Si02
#       8
#     4   4   8   4   4   8   4   4
#     4   8  14  26  41  64  90 120 162 194 231 288
#     4   8  14  26  41  64  90 121 158 192 235 293
#     4   8  12  20  34  54  80 112 148 191 231 268
#     4   8  12  20  40  60  84 122 153 184 233 282
#     4  10  22  35  52  75  99 130 174 211 254 309
#     4   8  16  26  42  64  84 120 159 194 246 284
#     4  10  22  35  52  75  98 134 175 211 255 305
#     4  10  22  34  56  68 103 133 172 218 258 291
#
# _framework density 26.466783
#
# number of rings (size 3 to 8) (size 9 to 14) (size 15 to 20)
#    0.600    2.800    0.000    0.000    2.800    0.000 
#    0.000    0.000    0.000    6.000    0.000    0.000 
#    0.000    0.000    0.000   27.000    0.800   15.000 
#
# Total GULP energy -111484.549518 kJ/mol
# GULP energy per Si atom -5574.227476 kJ/mol
# Density = 2.640654 g / cm^3
# Si number density = 26.466783 Si / 1000 Ang^3
#
#
#
# Elastic Constant Matrix: (Units=GPa)
#
#
# Indices 1 2 3 4 5 6 
#
# 1 384.9988 18.0832 52.4070 0.0000 0.0000 0.0000
# 2 18.0832 50.3085 13.5278 0.0000 0.0000 0.0000
# 3 52.4070 13.5278 56.2559 0.0000 0.0000 0.0000
# 4 0.0000 0.0000 0.0000 23.5639 0.0000 0.0000
# 5 0.0000 0.0000 0.0000 0.0000 50.4170 0.0000
# 6 0.0000 0.0000 0.0000 0.0000 0.0000 14.8282
#
#
#
# Elastic Compliance Matrix: (Units=1/GPa)
#
#
# Indices 1 2 3 4 5 6 
#
# 1 0.002980 -0.000347 -0.002693 0.000000 0.000000 0.000000
# 2 -0.000347 0.021292 -0.004797 0.000000 0.000000 0.000000
# 3 -0.002693 -0.004797 0.021438 0.000000 0.000000 0.000000
# 4 0.000000 0.000000 0.000000 0.042438 0.000000 0.000000
# 5 0.000000 0.000000 0.000000 0.000000 0.019835 0.000000
# 6 0.000000 0.000000 0.000000 0.000000 0.000000 0.067439
#
#
# Mechanical properties :
#
#
# Convention : Reuss Voigt Hill
#
# Bulk Modulus (GPa) = 33.29247 73.28881 53.29064
# Shear Modulus (GPa) = 24.86234 44.93151 34.89692
#
# Velocity S-wave (km/s) = 3.06825 4.12473 3.63508
# Velocity P-wave (km/s) = 5.01583 7.10180 6.14793
#
# Compressibility (1/GPa) = 0.03003682
#
# Stress axis : x y z
#
# Youngs Moduli (GPa) = 335.53902 46.96615 46.64613
#
# Poissons Ratio (x) = 0.01630 0.12561
# Poissons Ratio (y) = 0.11648 0.22375
# Poissons Ratio (z) = 0.90357 0.22528
#
# Static dielectric constant tensor:
#      x y z
#    x 2.148900 0.000000 0.000000 
#    y 0.000000 1.962480 0.000000 
#    z 0.000000 0.000000 1.996420 
# 
# From -- ./inp_files/9662.got.cif
#   From: 2010.05.17/outbox.cif.g08.bks.cpg/sg40_5_cif.got.tgz:9662.got - 2010.06.03 18:35:42.
