data_PCOD9364844
_publ_section_title
;
Structure prediction by ZEFSAII (Michael W. Deem and Ramdas Pophale) SiO2 
 PCOD9364844
Probable space group: A M A 2
;
_chemical_formula_sum "Si O2"
_cell_formula_units_Z 64
_cell_length_a 28.236593
_cell_length_b 11.843379
_cell_length_c 8.246403
_cell_angle_alpha 90.000000
_cell_angle_beta 90.000000
_cell_angle_gamma 90.000000
_cell_volume 2757.734652
_symmetry_space_group_name_H-M "A M A 2"
_symmetry_group_IT_number 40
_symmetry_cell_setting 'orthorhombic'
loop_
_space_group_symop_operation_xyz
x,y,z
-x,-y,z
1/2-x,y,z
1/2+x,-y,z
x,1/2+y,1/2+z
-x,1/2-y,1/2+z
1/2-x,1/2+y,1/2+z
1/2+x,1/2-y,1/2+z
loop_
_atom_site_type_symbol
_atom_site_label
_atom_site_fract_x
_atom_site_fract_y
_atom_site_fract_z
Si Si1 0.194261 0.041277 0.923530
Si Si2 0.102704 0.611964 0.904809
Si Si3 0.445903 0.762122 0.417878
Si Si4 0.124069 0.349706 0.436890
Si Si5 0.157370 0.778481 0.288468
Si Si6 0.802885 0.984092 0.312729
Si Si7 0.054555 0.523502 0.595316
Si Si8 0.982945 0.381996 0.145301
O O1 0.250000 0.024309 0.893849
O O2 0.176660 0.157547 0.844271
O O3 0.162580 0.935400 0.864425
O O4 0.187645 0.044318 0.121097
O O5 0.105320 0.741658 0.841092
O O6 0.156427 0.570878 0.920770
O O7 0.080012 0.535183 0.766667
O O8 0.068115 0.605659 0.058635
O O9 0.393378 0.799077 0.372222
O O10 0.439968 0.642772 0.507616
O O11 0.476788 0.850240 0.516889
O O12 0.476419 0.724530 0.261893
O O13 0.147102 0.292468 0.597127
O O14 0.080438 0.426376 0.493791
O O15 0.192161 0.881210 0.330201
O O16 0.750000 0.945956 0.352478
O O17 0.000000 0.500000 0.619852
O O18 0.000000 0.500000 0.223489
#
# Coordination Sequence:
#
# PCOD9364844 Si02
#       8
#     8   8   8   8   8   8   8   8
#     4  10  21  42  71  97 130 179 229 281 346 410
#     4  12  23  42  71 100 137 181 226 285 340 417
#     4  12  25  45  67 100 139 183 234 286 338 412
#     4  11  24  43  67 102 135 175 231 281 344 410
#     4  11  20  43  67  97 135 176 225 285 339 408
#     4  10  22  41  68 101 132 176 228 283 350 414
#     4  12  25  45  70  96 138 186 229 277 340 408
#     4  12  27  43  66 103 138 185 234 281 344 409
#
# _framework density 23.207453000000001
#
# number of rings (size 3 to 8) (size 9 to 14) (size 15 to 20)
#    0.000    0.750    5.000    3.375    1.750    2.000 
#    0.000    2.500    0.000    0.000    0.000    0.000 
#    0.000    0.000    0.000    0.000    0.000    0.000 
#
# Total GULP energy -179261.944886 kJ/mol
# GULP energy per Si atom -5601.935778 kJ/mol
# Density = 2.315463 g / cm^3
# Si number density = 23.207453 Si / 1000 Ang^3
#
#
#
# Elastic Constant Matrix: (Units=GPa)
#
#
# Indices 1 2 3 4 5 6 
#
# 1 127.4011 57.0669 19.0899 0.0000 0.0000 0.0000
# 2 57.0669 132.9872 18.5906 0.0000 0.0000 0.0000
# 3 19.0899 18.5906 28.7142 0.0000 0.0000 0.0000
# 4 0.0000 0.0000 0.0000 38.2481 0.0000 0.0000
# 5 0.0000 0.0000 0.0000 0.0000 16.3246 0.0000
# 6 0.0000 0.0000 0.0000 0.0000 0.0000 -30.0195
#
#
#
# Elastic Compliance Matrix: (Units=1/GPa)
#
#
# Indices 1 2 3 4 5 6 
#
# 1 0.010185 -0.003765 -0.004334 0.000000 0.000000 0.000000
# 2 -0.003765 0.009659 -0.003751 0.000000 0.000000 0.000000
# 3 -0.004334 -0.003751 0.040136 0.000000 0.000000 0.000000
# 4 0.000000 0.000000 0.000000 0.026145 0.000000 0.000000
# 5 0.000000 0.000000 0.000000 0.000000 0.061257 0.000000
# 6 0.000000 0.000000 0.000000 0.000000 0.000000 -0.033312
#
#
# Mechanical properties :
#
#
# Convention : Reuss Voigt Hill
#
# Bulk Modulus (GPa) = 27.56258 53.17745 40.37002
# Shear Modulus (GPa) = 33.36381 17.86766 25.61574
#
# Velocity S-wave (km/s) = 3.79573 2.77774 3.32591
# Velocity P-wave (km/s) = 5.57785 5.76641 5.67291
#
# Compressibility (1/GPa) = 0.03628107
#
# Stress axis : x y z
#
# Youngs Moduli (GPa) = 98.18437 103.52658 24.91553
#
# Poissons Ratio (x) = 0.38974 0.10798
# Poissons Ratio (y) = 0.36963 0.09346
# Poissons Ratio (z) = 0.42551 0.38832
#
# Static dielectric constant tensor:
#      x y z
#    x 1.836810 0.000000 0.000000 
#    y 0.000000 1.859460 0.000000 
#    z 0.000000 0.000000 1.925610 
# 
# From -- ./inp_files/9419.got.cif
#   From: 2010.05.17/outbox.cif.g08.bks.cpg/sg40_5_cif.got.tgz:9419.got - 2010.06.03 18:35:42.
