data_PCOD9364503
_publ_section_title
;
Structure prediction by ZEFSAII (Michael W. Deem and Ramdas Pophale) SiO2 
 PCOD9364503
Probable space group: A M A 2
;
_chemical_formula_sum "Si O2"
_cell_formula_units_Z 60
_cell_length_a 13.938119
_cell_length_b 22.700732
_cell_length_c 9.675489
_cell_angle_alpha 90.000000
_cell_angle_beta 90.000000
_cell_angle_gamma 90.000000
_cell_volume 3061.377974
_symmetry_space_group_name_H-M "A M A 2"
_symmetry_group_IT_number 40
_symmetry_cell_setting 'orthorhombic'
loop_
_space_group_symop_operation_xyz
x,y,z
-x,-y,z
1/2-x,y,z
1/2+x,-y,z
x,1/2+y,1/2+z
-x,1/2-y,1/2+z
1/2-x,1/2+y,1/2+z
1/2+x,1/2-y,1/2+z
loop_
_atom_site_type_symbol
_atom_site_label
_atom_site_fract_x
_atom_site_fract_y
_atom_site_fract_z
Si Si1 0.634899 0.567026 0.440300
Si Si2 0.508649 0.681192 0.403325
Si Si3 0.000000 0.500000 0.912496
Si Si4 0.862475 0.008665 0.645150
Si Si5 0.136798 0.029016 0.169542
Si Si6 0.362545 0.632196 0.174487
Si Si7 0.858584 0.792276 0.400094
Si Si8 0.143579 0.157516 0.103076
O O1 0.750000 0.574883 0.443062
O O2 0.580453 0.628537 0.442728
O O3 0.611673 0.535087 0.294667
O O4 0.610454 0.525887 0.571483
O O5 0.437299 0.657433 0.285006
O O6 0.569000 0.739206 0.373402
O O7 0.438644 0.693903 0.531205
O O8 0.071572 0.532335 0.805736
O O9 0.071725 0.467693 0.020123
O O10 0.750000 0.020867 0.619652
O O11 0.874681 0.937818 0.651719
O O12 0.250000 0.024558 0.207183
O O13 0.127555 0.088140 0.078768
O O14 0.250000 0.640402 0.215436
O O15 0.378766 0.668349 0.033783
O O16 0.750000 0.768280 0.415400
O O17 0.858942 0.833400 0.266211
O O18 0.250000 0.173794 0.054167
#
# Coordination Sequence:
#
# PCOD9364503 Si02
#       8
#     8   8   4   8   8   8   8   8
#     4  10  22  38  56  82 117 152 183 222 277 337
#     4  12  21  35  58  85 112 142 182 226 276 333
#     4  12  20  30  52  82 110 142 180 226 280 326
#     4  10  21  37  56  81 113 148 188 232 277 326
#     4  10  21  37  56  81 113 148 188 232 277 326
#     4  10  21  37  57  80 108 142 184 232 274 318
#     4  10  22  39  56  78 110 147 182 221 275 332
#     4  10  21  37  57  80 108 142 184 232 274 318
#
# _framework density 19.599018000000001
#
# number of rings (size 3 to 8) (size 9 to 14) (size 15 to 20)
#    0.000    1.600    0.000    5.200    0.000    5.867 
#    0.000    0.000    0.000    0.000    0.000   18.667 
#    0.000    0.000    0.000    0.000    0.000    0.000 
#
# Total GULP energy -167539.388304 kJ/mol
# GULP energy per Si atom -5584.646277 kJ/mol
# Density = 1.955441 g / cm^3
# Si number density = 19.599018 Si / 1000 Ang^3
#
#
#
# Elastic Constant Matrix: (Units=GPa)
#
#
# Indices 1 2 3 4 5 6 
#
# 1 79.4818 21.5287 32.5247 0.0000 0.0000 0.0000
# 2 21.5287 68.2250 2.9627 0.0000 0.0000 0.0000
# 3 32.5247 2.9627 82.7870 0.0000 0.0000 0.0000
# 4 0.0000 0.0000 0.0000 19.1750 0.0000 0.0000
# 5 0.0000 0.0000 0.0000 0.0000 43.0402 0.0000
# 6 0.0000 0.0000 0.0000 0.0000 0.0000 16.4790
#
#
#
# Elastic Compliance Matrix: (Units=1/GPa)
#
#
# Indices 1 2 3 4 5 6 
#
# 1 0.016497 -0.004932 -0.006305 0.000000 0.000000 0.000000
# 2 -0.004932 0.016155 0.001360 0.000000 0.000000 0.000000
# 3 -0.006305 0.001360 0.014508 0.000000 0.000000 0.000000
# 4 0.000000 0.000000 0.000000 0.052151 0.000000 0.000000
# 5 0.000000 0.000000 0.000000 0.000000 0.023234 0.000000
# 6 0.000000 0.000000 0.000000 0.000000 0.000000 0.060683
#
#
# Mechanical properties :
#
#
# Convention : Reuss Voigt Hill
#
# Bulk Modulus (GPa) = 36.48986 38.28066 37.38526
# Shear Modulus (GPa) = 23.57180 27.30403 25.43792
#
# Velocity S-wave (km/s) = 3.47176 3.73652 3.60657
# Velocity P-wave (km/s) = 5.89317 6.17979 6.03818
#
# Compressibility (1/GPa) = 0.02740487
#
# Stress axis : x y z
#
# Youngs Moduli (GPa) = 60.61557 61.90162 68.92969
#
# Poissons Ratio (x) = 0.30530 0.43459
# Poissons Ratio (y) = 0.29896 -0.09371
# Poissons Ratio (z) = 0.38217 -0.08416
#
# Static dielectric constant tensor:
#      x y z
#    x 1.716840 0.000000 0.000000 
#    y 0.000000 1.629470 0.000000 
#    z 0.000000 0.000000 1.686760 
# 
# From -- ./inp_files/6857.got.cif
#   From: 2010.05.17/outbox.cif.g08.bks.cpg/sg40_4_cif.got.tgz:6857.got - 2010.06.03 18:35:42.
