data_PCOD9364092
_publ_section_title
;
Structure prediction by ZEFSAII (Michael W. Deem and Ramdas Pophale) SiO2 
 PCOD9364092
Probable space group: A M A 2
;
_chemical_formula_sum "Si O2"
_cell_formula_units_Z 64
_cell_length_a 24.623251
_cell_length_b 9.305916
_cell_length_c 12.294173
_cell_angle_alpha 90.000000
_cell_angle_beta 90.000000
_cell_angle_gamma 90.000000
_cell_volume 2817.110227
_symmetry_space_group_name_H-M "A M A 2"
_symmetry_group_IT_number 40
_symmetry_cell_setting 'orthorhombic'
loop_
_space_group_symop_operation_xyz
x,y,z
-x,-y,z
1/2-x,y,z
1/2+x,-y,z
x,1/2+y,1/2+z
-x,1/2-y,1/2+z
1/2-x,1/2+y,1/2+z
1/2+x,1/2-y,1/2+z
loop_
_atom_site_type_symbol
_atom_site_label
_atom_site_fract_x
_atom_site_fract_y
_atom_site_fract_z
Si Si1 0.965707 0.123351 0.810380
Si Si2 0.144167 0.544871 0.240981
Si Si3 0.189749 0.620839 0.852486
Si Si4 0.932772 0.235510 0.294858
Si Si5 0.188817 0.931337 0.957095
Si Si6 0.688874 0.109966 0.537520
Si Si7 0.399288 0.143852 0.028628
Si Si8 0.923907 0.404035 0.761437
O O1 0.946412 0.282785 0.845067
O O2 0.016947 0.179886 0.738616
O O3 0.910634 0.052671 0.763367
O O4 0.000000 0.000000 0.874782
O O5 0.122272 0.706860 0.240681
O O6 0.183634 0.514313 0.341544
O O7 0.173141 0.498914 0.132660
O O8 0.250000 0.628263 0.803781
O O9 0.183875 0.763127 0.927278
O O10 0.141000 0.613724 0.768972
O O11 0.185043 0.479424 0.926438
O O12 0.927474 0.294064 0.419164
O O13 0.939501 0.065898 0.289826
O O14 0.250000 0.954725 0.002826
O O15 0.134682 0.994940 0.014006
O O16 0.750000 0.161832 0.550581
O O17 0.647303 0.238409 0.544694
O O18 0.436194 0.129881 0.135228
#
# Coordination Sequence:
#
# PCOD9364092 Si02
#       8
#     8   8   8   8   8   8   8   8
#     4  10  21  42  66  89 120 166 214 269 324 387
#     4  10  20  39  64  87 124 170 213 265 323 391
#     4  10  22  38  62  94 131 173 213 260 329 399
#     4  10  24  42  63  92 133 165 218 281 333 385
#     4  10  20  37  59  90 127 167 210 261 323 391
#     4  11  21  38  63  95 130 168 216 266 327 406
#     4  11  23  39  65  97 126 169 217 268 332 399
#     4  12  22  43  67  94 132 171 216 273 334 396
#
# _framework density 22.718315
#
# number of rings (size 3 to 8) (size 9 to 14) (size 15 to 20)
#    0.000    1.500    3.750    1.125    1.750    2.000 
#    0.000   10.625    0.000    0.000    0.000    0.000 
#    0.000    0.000    0.000    0.000    0.000    0.000 
#
# Total GULP energy -178231.481213 kJ/mol
# GULP energy per Si atom -5569.733788 kJ/mol
# Density = 2.266661 g / cm^3
# Si number density = 22.718315 Si / 1000 Ang^3
#
#
#
# Elastic Constant Matrix: (Units=GPa)
#
#
# Indices 1 2 3 4 5 6 
#
# 1 42.9646 8.1252 4.6902 0.0000 0.0000 0.0000
# 2 8.1252 110.7974 -5.1878 0.0000 0.0000 0.0000
# 3 4.6902 -5.1878 52.7956 0.0000 0.0000 0.0000
# 4 0.0000 0.0000 0.0000 9.2862 0.0000 0.0000
# 5 0.0000 0.0000 0.0000 0.0000 -133.7916 0.0000
# 6 0.0000 0.0000 0.0000 0.0000 0.0000 -17.5745
#
#
#
# Elastic Compliance Matrix: (Units=1/GPa)
#
#
# Indices 1 2 3 4 5 6 
#
# 1 0.023878 -0.001859 -0.002304 0.000000 0.000000 0.000000
# 2 -0.001859 0.009212 0.001070 0.000000 0.000000 0.000000
# 3 -0.002304 0.001070 0.019251 0.000000 0.000000 0.000000
# 4 0.000000 0.000000 0.000000 0.107686 0.000000 0.000000
# 5 0.000000 0.000000 0.000000 0.000000 -0.007474 0.000000
# 6 0.000000 0.000000 0.000000 0.000000 0.000000 -0.056901
#
#
# Mechanical properties :
#
#
# Convention : Reuss Voigt Hill
#
# Bulk Modulus (GPa) = 21.66578 24.64586 23.15582
# Shear Modulus (GPa) = 42.65395 -15.15397 13.74999
#
# Velocity S-wave (km/s) = 4.33773 -2.58551 2.46283
# Velocity P-wave (km/s) = 5.88602 1.39959 4.27809
#
# Compressibility (1/GPa) = 0.04615574
#
# Stress axis : x y z
#
# Youngs Moduli (GPa) = 41.87947 108.55503 51.94588
#
# Poissons Ratio (x) = 0.20180 0.11968
# Poissons Ratio (y) = 0.07785 -0.05560
# Poissons Ratio (z) = 0.09649 -0.11619
#
# Static dielectric constant tensor:
#      x y z
#    x 1.974760 0.000000 0.000000 
#    y 0.000000 1.921540 0.000000 
#    z 0.000000 0.000000 1.884620 
# 
# From -- ./inp_files/18518.got.cif
#   From: 2010.05.17/outbox.cif.g08.bks.cpg/sg40_10_cif.got.tgz:18518.got - 2010.06.03 18:35:42.
