data_PCOD9364507
_publ_section_title
;
Structure prediction by ZEFSAII (Michael W. Deem and Ramdas Pophale) SiO2 
 PCOD9364507
Probable space group: A M A 2
;
_chemical_formula_sum "Si O2"
_cell_formula_units_Z 48
_cell_length_a 27.351414
_cell_length_b 4.918071
_cell_length_c 16.559814
_cell_angle_alpha 90.000000
_cell_angle_beta 90.000000
_cell_angle_gamma 90.000000
_cell_volume 2227.563186
_symmetry_space_group_name_H-M "A M A 2"
_symmetry_group_IT_number 40
_symmetry_cell_setting 'orthorhombic'
loop_
_space_group_symop_operation_xyz
x,y,z
-x,-y,z
1/2-x,y,z
1/2+x,-y,z
x,1/2+y,1/2+z
-x,1/2-y,1/2+z
1/2-x,1/2+y,1/2+z
1/2+x,1/2-y,1/2+z
loop_
_atom_site_type_symbol
_atom_site_label
_atom_site_fract_x
_atom_site_fract_y
_atom_site_fract_z
Si Si1 0.131412 0.374451 0.148220
Si Si2 0.556758 0.039594 0.506257
Si Si3 0.693322 0.305658 0.502945
Si Si4 0.534432 0.765783 0.855196
Si Si5 0.851970 0.312255 0.916767
Si Si6 0.127375 0.385511 0.756378
O O1 0.089565 0.460584 0.085393
O O2 0.148414 0.634979 0.201994
O O3 0.109843 0.130244 0.200400
O O4 0.172459 0.221938 0.093723
O O5 0.551197 0.303170 0.448357
O O6 0.500000 0.000000 0.528308
O O7 0.591691 0.862556 0.445060
O O8 0.750000 0.375365 0.502249
O O9 0.664412 0.511245 0.443010
O O10 0.682435 0.005761 0.470036
O O11 0.500000 0.500000 0.855074
O O12 0.581771 0.747366 0.801215
O O13 0.500000 0.000000 0.825693
O O14 0.845168 0.439275 0.826948
#
# Coordination Sequence:
#
# PCOD9364507 Si02
#       6
#     8   8   8   8   8   8
#     4  11  23  39  62  92 127 161 197 254 321 372
#     4   9  21  38  61  89 123 165 209 247 293 362
#     4  11  23  44  68  91 118 159 208 257 309 373
#     4  10  21  37  57  82 117 168 217 251 291 354
#     4  10  22  42  67  90 120 163 211 253 299 367
#     4  11  23  40  59  88 128 160 197 258 316 368
#
# _framework density 21.548209
#
# number of rings (size 3 to 8) (size 9 to 14) (size 15 to 20)
#    0.000    1.667    0.000    4.500    0.000   15.333 
#    0.000    6.667    0.000    0.000    0.000    0.000 
#    0.000    0.000    0.000    0.000    0.000    0.000 
#
# Total GULP energy -133604.976181 kJ/mol
# GULP energy per Si atom -5566.874008 kJ/mol
# Density = 2.149916 g / cm^3
# Si number density = 21.548209 Si / 1000 Ang^3
#
#
#
# Elastic Constant Matrix: (Units=GPa)
#
#
# Indices 1 2 3 4 5 6 
#
# 1 116.7750 9.3609 18.6886 0.0000 0.0000 0.0000
# 2 9.3609 95.2466 16.5716 0.0000 0.0000 0.0000
# 3 18.6886 16.5716 92.1513 0.0000 0.0000 0.0000
# 4 0.0000 0.0000 0.0000 34.2797 0.0000 0.0000
# 5 0.0000 0.0000 0.0000 0.0000 9.4628 0.0000
# 6 0.0000 0.0000 0.0000 0.0000 0.0000 22.5134
#
#
#
# Elastic Compliance Matrix: (Units=1/GPa)
#
#
# Indices 1 2 3 4 5 6 
#
# 1 0.008881 -0.000578 -0.001697 0.000000 0.000000 0.000000
# 2 -0.000578 0.010876 -0.001839 0.000000 0.000000 0.000000
# 3 -0.001697 -0.001839 0.011527 0.000000 0.000000 0.000000
# 4 0.000000 0.000000 0.000000 0.029172 0.000000 0.000000
# 5 0.000000 0.000000 0.000000 0.000000 0.105677 0.000000
# 6 0.000000 0.000000 0.000000 0.000000 0.000000 0.044418
#
#
# Mechanical properties :
#
#
# Convention : Reuss Voigt Hill
#
# Bulk Modulus (GPa) = 43.37142 43.71279 43.54211
# Shear Modulus (GPa) = 22.07864 30.55463 26.31663
#
# Velocity S-wave (km/s) = 3.20443 3.76967 3.49849
# Velocity P-wave (km/s) = 5.81915 6.26716 6.04731
#
# Compressibility (1/GPa) = 0.02305666
#
# Stress axis : x y z
#
# Youngs Moduli (GPa) = 112.59472 91.94788 86.75595
#
# Poissons Ratio (x) = 0.05311 0.14725
# Poissons Ratio (y) = 0.06503 0.15951
# Poissons Ratio (z) = 0.19111 0.16906
#
# Static dielectric constant tensor:
#      x y z
#    x 1.694060 0.000000 0.000000 
#    y 0.000000 1.821400 0.000000 
#    z 0.000000 0.000000 1.892760 
# 
# From -- ./inp_files/18650.got.cif
#   From: 2010.05.17/outbox.cif.g08.bks.cpg/sg40_10_cif.got.tgz:18650.got - 2010.06.03 18:35:42.
