data_PCOD9364524
_publ_section_title
;
Structure prediction by ZEFSAII (Michael W. Deem and Ramdas Pophale) SiO2 
 PCOD9364524
Probable space group: A M A 2
;
_chemical_formula_sum "Si O2"
_cell_formula_units_Z 64
_cell_length_a 28.820174
_cell_length_b 7.793201
_cell_length_c 13.108649
_cell_angle_alpha 90.000000
_cell_angle_beta 90.000000
_cell_angle_gamma 90.000000
_cell_volume 2944.221033
_symmetry_space_group_name_H-M "A M A 2"
_symmetry_group_IT_number 40
_symmetry_cell_setting 'orthorhombic'
loop_
_space_group_symop_operation_xyz
x,y,z
-x,-y,z
1/2-x,y,z
1/2+x,-y,z
x,1/2+y,1/2+z
-x,1/2-y,1/2+z
1/2-x,1/2+y,1/2+z
1/2+x,1/2-y,1/2+z
loop_
_atom_site_type_symbol
_atom_site_label
_atom_site_fract_x
_atom_site_fract_y
_atom_site_fract_z
Si Si1 0.468212 0.836402 0.725850
Si Si2 0.802691 0.927984 0.577415
Si Si3 0.170665 0.937126 0.995528
Si Si4 0.302718 0.655858 0.304862
Si Si5 0.080076 0.232351 0.422540
Si Si6 0.465391 0.874192 0.098599
Si Si7 0.604940 0.833270 0.091576
Si Si8 0.627951 0.611247 0.918379
O O1 0.452797 0.819078 0.841143
O O2 0.503624 0.688320 0.690957
O O3 0.419763 0.808569 0.663064
O O4 0.500000 0.000000 0.706559
O O5 0.750000 0.989706 0.561886
O O6 0.805330 0.726789 0.546177
O O7 0.814357 0.934576 0.697506
O O8 0.838101 0.032158 0.506338
O O9 0.195917 0.026144 0.900679
O O10 0.123883 0.854263 0.946618
O O11 0.156665 0.086711 0.076863
O O12 0.250000 0.723593 0.294716
O O13 0.340317 0.800665 0.333183
O O14 0.052807 0.220035 0.529211
O O15 0.097696 0.049222 0.383480
O O16 0.500000 0.000000 0.036840
O O17 0.422428 0.995006 0.122867
O O18 0.598103 0.755006 0.977732
#
# Coordination Sequence:
#
# PCOD9364524 Si02
#       8
#     8   8   8   8   8   8   8   8
#     4  11  22  36  60  87 118 153 198 251 309 371
#     4  10  21  37  62  93 127 166 202 250 308 360
#     4   9  20  39  60  87 126 160 199 254 301 364
#     4  10  21  38  61  92 125 162 205 245 303 369
#     4  10  21  37  60  87 114 155 200 246 307 362
#     4   9  19  40  56  80 119 148 194 248 299 363
#     4   9  20  38  58  84 113 156 196 247 302 356
#     4  10  21  39  62  88 122 159 203 254 296 364
#
# _framework density 21.737497999999999
#
# number of rings (size 3 to 8) (size 9 to 14) (size 15 to 20)
#    0.000    2.250    0.000    1.875    3.500    0.000 
#    0.000   16.875    0.000    7.500    0.000    0.000 
#    0.000    0.000    0.000    0.000    0.000    0.000 
#
# Total GULP energy -178258.627897 kJ/mol
# GULP energy per Si atom -5570.582122 kJ/mol
# Density = 2.168802 g / cm^3
# Si number density = 21.737498 Si / 1000 Ang^3
#
#
#
# Elastic Constant Matrix: (Units=GPa)
#
#
# Indices 1 2 3 4 5 6 
#
# 1 56.6338 12.2852 30.8558 0.0000 0.0000 0.0000
# 2 12.2852 62.1438 -5.2234 0.0000 0.0000 0.0000
# 3 30.8558 -5.2234 61.2116 0.0000 0.0000 0.0000
# 4 0.0000 0.0000 0.0000 16.6153 0.0000 0.0000
# 5 0.0000 0.0000 0.0000 0.0000 33.3502 0.0000
# 6 0.0000 0.0000 0.0000 0.0000 0.0000 26.1757
#
#
#
# Elastic Compliance Matrix: (Units=1/GPa)
#
#
# Indices 1 2 3 4 5 6 
#
# 1 0.026686 -0.006453 -0.014003 0.000000 0.000000 0.000000
# 2 -0.006453 0.017768 0.004769 0.000000 0.000000 0.000000
# 3 -0.014003 0.004769 0.023802 0.000000 0.000000 0.000000
# 4 0.000000 0.000000 0.000000 0.060186 0.000000 0.000000
# 5 0.000000 0.000000 0.000000 0.000000 0.029985 0.000000
# 6 0.000000 0.000000 0.000000 0.000000 0.000000 0.038203
#
#
# Mechanical properties :
#
#
# Convention : Reuss Voigt Hill
#
# Bulk Modulus (GPa) = 27.11223 28.42496 27.76859
# Shear Modulus (GPa) = 20.80753 24.69967 22.75360
#
# Velocity S-wave (km/s) = 3.09725 3.37452 3.23885
# Velocity P-wave (km/s) = 5.02894 5.31865 5.17582
#
# Compressibility (1/GPa) = 0.03688373
#
# Stress axis : x y z
#
# Youngs Moduli (GPa) = 37.47267 56.28052 42.01282
#
# Poissons Ratio (x) = 0.36315 0.58829
# Poissons Ratio (y) = 0.24179 -0.20035
# Poissons Ratio (z) = 0.52472 -0.26839
#
# Static dielectric constant tensor:
#      x y z
#    x 1.819810 0.000000 0.000000 
#    y 0.000000 1.875290 0.000000 
#    z 0.000000 0.000000 1.785800 
# 
# From -- ./inp_files/18765.got.cif
#   From: 2010.05.17/outbox.cif.g08.bks.cpg/sg40_10_cif.got.tgz:18765.got - 2010.06.03 18:35:42.
