data_PCOD9364814
_publ_section_title
;
Structure prediction by ZEFSAII (Michael W. Deem and Ramdas Pophale) SiO2 
 PCOD9364814
Probable space group: A M A 2
;
_chemical_formula_sum "Si O2"
_cell_formula_units_Z 64
_cell_length_a 29.147520
_cell_length_b 9.319954
_cell_length_c 11.305005
_cell_angle_alpha 90.000000
_cell_angle_beta 90.000000
_cell_angle_gamma 90.000000
_cell_volume 3071.044691
_symmetry_space_group_name_H-M "A M A 2"
_symmetry_group_IT_number 40
_symmetry_cell_setting 'orthorhombic'
loop_
_space_group_symop_operation_xyz
x,y,z
-x,-y,z
1/2-x,y,z
1/2+x,-y,z
x,1/2+y,1/2+z
-x,1/2-y,1/2+z
1/2-x,1/2+y,1/2+z
1/2+x,1/2-y,1/2+z
loop_
_atom_site_type_symbol
_atom_site_label
_atom_site_fract_x
_atom_site_fract_y
_atom_site_fract_z
Si Si1 0.418896 0.080922 0.319460
Si Si2 0.198782 0.156149 0.539391
Si Si3 0.122474 0.574023 0.214406
Si Si4 0.333034 0.775467 0.788852
Si Si5 0.100806 0.268771 0.927659
Si Si6 0.539918 0.886420 0.553294
Si Si7 0.700490 0.689671 0.034137
Si Si8 0.477308 0.137360 0.093503
O O1 0.372862 0.157611 0.277191
O O2 0.440389 0.169050 0.428787
O O3 0.453809 0.078653 0.211907
O O4 0.408534 0.927045 0.376734
O O5 0.250000 0.195425 0.580687
O O6 0.159939 0.166651 0.640258
O O7 0.188080 0.241610 0.418062
O O8 0.198976 0.983534 0.517411
O O9 0.144923 0.433089 0.271640
O O10 0.100433 0.664994 0.316781
O O11 0.081566 0.540480 0.123556
O O12 0.300920 0.769900 0.673331
O O13 0.152342 0.258814 0.980775
O O14 0.061977 0.215945 0.017802
O O15 0.516617 0.753799 0.619716
O O16 0.500000 0.000000 0.529531
O O17 0.750000 0.739713 0.984719
O O18 0.500000 0.000000 0.030490
#
# Coordination Sequence:
#
# PCOD9364814 Si02
#       8
#     8   8   8   8   8   8   8   8
#     4  12  23  45  71  94 134 178 226 279 337 403
#     4  10  21  42  70  98 130 174 222 273 336 409
#     4  11  26  40  65  97 137 173 220 280 336 404
#     4  11  20  41  71  97 127 174 224 277 336 399
#     4  12  25  45  65  98 139 181 218 276 346 401
#     4  12  24  44  68  96 130 178 229 277 342 401
#     4  10  21  41  69 101 131 171 223 274 334 411
#     4  12  28  43  67 100 137 179 230 287 339 405
#
# _framework density 20.839814000000001
#
# number of rings (size 3 to 8) (size 9 to 14) (size 15 to 20)
#    0.000    0.750    5.000    3.000    3.500    2.500 
#    0.000    0.000    0.000    0.000    0.000    0.000 
#    0.000    0.000    0.000    0.000    0.000    0.000 
#
# Total GULP energy -178715.788696 kJ/mol
# GULP energy per Si atom -5584.868397 kJ/mol
# Density = 2.079238 g / cm^3
# Si number density = 20.839814 Si / 1000 Ang^3
#
#
#
# Elastic Constant Matrix: (Units=GPa)
#
#
# Indices 1 2 3 4 5 6 
#
# 1 122.2311 32.4013 40.7231 0.0000 0.0000 0.0000
# 2 32.4013 65.5248 37.8586 0.0000 0.0000 0.0000
# 3 40.7231 37.8586 105.6405 0.0000 0.0000 0.0000
# 4 0.0000 0.0000 0.0000 37.2947 0.0000 0.0000
# 5 0.0000 0.0000 0.0000 0.0000 16.4859 0.0000
# 6 0.0000 0.0000 0.0000 0.0000 0.0000 -2.9090
#
#
#
# Elastic Compliance Matrix: (Units=1/GPa)
#
#
# Indices 1 2 3 4 5 6 
#
# 1 0.009957 -0.003413 -0.002615 0.000000 0.000000 0.000000
# 2 -0.003413 0.020416 -0.006001 0.000000 0.000000 0.000000
# 3 -0.002615 -0.006001 0.012625 0.000000 0.000000 0.000000
# 4 0.000000 0.000000 0.000000 0.026813 0.000000 0.000000
# 5 0.000000 0.000000 0.000000 0.000000 0.060658 0.000000
# 6 0.000000 0.000000 0.000000 0.000000 0.000000 -0.343760
#
#
# Mechanical properties :
#
#
# Convention : Reuss Voigt Hill
#
# Bulk Modulus (GPa) = 52.79802 57.26249 55.03025
# Shear Modulus (GPa) = -27.33448 22.33523 -2.49962
#
# Velocity S-wave (km/s) = -3.62560 3.27732 -1.09638
# Velocity P-wave (km/s) = 2.80421 6.46979 4.98607
#
# Compressibility (1/GPa) = 0.01894010
#
# Stress axis : x y z
#
# Youngs Moduli (GPa) = 100.42985 48.98079 79.20862
#
# Poissons Ratio (x) = 0.16715 0.20716
# Poissons Ratio (y) = 0.34273 0.47534
# Poissons Ratio (z) = 0.26266 0.29394
#
# Static dielectric constant tensor:
#      x y z
#    x 1.770630 0.000000 0.000000 
#    y 0.000000 1.749330 0.000000 
#    z 0.000000 0.000000 1.756470 
# 
# From -- ./inp_files/14397.got.cif
#   From: 2010.05.17/outbox.cif.g08.bks.cpg/sg40_8_cif.got.tgz:14397.got - 2010.06.03 18:35:42.
