data_PCOD9364027
_publ_section_title
;
Structure prediction by ZEFSAII (Michael W. Deem and Ramdas Pophale) SiO2 
 PCOD9364027
Probable space group: A M A 2
;
_chemical_formula_sum "Si O2"
_cell_formula_units_Z 40
_cell_length_a 17.795600
_cell_length_b 13.084149
_cell_length_c 7.014653
_cell_angle_alpha 90.000000
_cell_angle_beta 90.000000
_cell_angle_gamma 90.000000
_cell_volume 1633.293782
_symmetry_space_group_name_H-M "A M A 2"
_symmetry_group_IT_number 40
_symmetry_cell_setting 'orthorhombic'
loop_
_space_group_symop_operation_xyz
x,y,z
-x,-y,z
1/2-x,y,z
1/2+x,-y,z
x,1/2+y,1/2+z
-x,1/2-y,1/2+z
1/2-x,1/2+y,1/2+z
1/2+x,1/2-y,1/2+z
loop_
_atom_site_type_symbol
_atom_site_label
_atom_site_fract_x
_atom_site_fract_y
_atom_site_fract_z
Si Si1 0.163728 0.861267 0.399130
Si Si2 0.109895 0.824167 0.990214
Si Si3 0.662570 0.987327 0.724112
Si Si4 0.045255 0.605352 0.454270
Si Si5 0.166624 0.675677 0.707131
O O1 0.250000 0.868400 0.333662
O O2 0.146047 0.962526 0.520113
O O3 0.161168 0.768953 0.552514
O O4 0.115272 0.843252 0.213631
O O5 0.146734 0.920955 0.877190
O O6 0.154524 0.726941 0.911086
O O7 0.021650 0.813719 0.937752
O O8 0.750000 0.958156 0.734011
O O9 0.605020 0.899582 0.783157
O O10 0.096539 0.609170 0.641912
O O11 0.000000 0.500000 0.450627
O O12 0.250000 0.629679 0.691780
#
# Coordination Sequence:
#
# PCOD9364027 Si02
#       5
#     8   8   8   8   8
#     4   9  18  35  63  90 116 162 217 267 319 379
#     4  10  20  36  60  89 126 161 214 261 321 379
#     4   9  18  37  61  85 122 164 209 265 324 384
#     4  10  22  38  57  91 127 167 207 261 329 374
#     4  10  21  38  61  87 120 166 217 268 315 381
#
# _framework density 24.490390000000001
#
# number of rings (size 3 to 8) (size 9 to 14) (size 15 to 20)
#    0.000    2.400    0.000    3.600    2.800    0.000 
#    0.000   19.000    0.000    7.200    0.000    0.000 
#    0.000    0.000    0.000    0.000    0.000    0.000 
#
# Total GULP energy -111888.329588 kJ/mol
# GULP energy per Si atom -5594.416479 kJ/mol
# Density = 2.443465 g / cm^3
# Si number density = 24.490390 Si / 1000 Ang^3
#
#
#
# Elastic Constant Matrix: (Units=GPa)
#
#
# Indices 1 2 3 4 5 6 
#
# 1 149.5473 23.4761 60.8814 0.0000 0.0000 0.0000
# 2 23.4761 31.3327 17.4867 0.0000 0.0000 0.0000
# 3 60.8814 17.4867 119.9223 0.0000 0.0000 0.0000
# 4 0.0000 0.0000 0.0000 28.1087 0.0000 0.0000
# 5 0.0000 0.0000 0.0000 0.0000 -19.6928 0.0000
# 6 0.0000 0.0000 0.0000 0.0000 0.0000 9.4303
#
#
#
# Elastic Compliance Matrix: (Units=1/GPa)
#
#
# Indices 1 2 3 4 5 6 
#
# 1 0.008990 -0.004560 -0.003899 0.000000 0.000000 0.000000
# 2 -0.004560 0.037056 -0.003089 0.000000 0.000000 0.000000
# 3 -0.003899 -0.003089 0.010769 0.000000 0.000000 0.000000
# 4 0.000000 0.000000 0.000000 0.035576 0.000000 0.000000
# 5 0.000000 0.000000 0.000000 0.000000 -0.050780 0.000000
# 6 0.000000 0.000000 0.000000 0.000000 0.000000 0.106041
#
#
# Mechanical properties :
#
#
# Convention : Reuss Voigt Hill
#
# Bulk Modulus (GPa) = 29.65641 56.05453 42.85547
# Shear Modulus (GPa) = 27.47475 16.83313 22.15394
#
# Velocity S-wave (km/s) = 3.35305 2.62455 3.01092
# Velocity P-wave (km/s) = 5.20829 5.66767 5.44283
#
# Compressibility (1/GPa) = 0.03371952
#
# Stress axis : x y z
#
# Youngs Moduli (GPa) = 111.23517 26.98652 92.86295
#
# Poissons Ratio (x) = 0.12305 0.36208
# Poissons Ratio (y) = 0.50719 0.28681
# Poissons Ratio (z) = 0.43372 0.08335
#
# Static dielectric constant tensor:
#      x y z
#    x 1.933810 0.000000 0.000000 
#    y 0.000000 2.064350 0.000000 
#    z 0.000000 0.000000 1.926630 
# 
# From -- ./inp_files/1739.got.cif
#   From: 2010.05.17/outbox.cif.g08.bks.cpg/sg40_1_cif.got.tgz:1739.got - 2010.06.03 18:35:42.
