data_PCOD9364105
_publ_section_title
;
Structure prediction by ZEFSAII (Michael W. Deem and Ramdas Pophale) SiO2 
 PCOD9364105
Probable space group: A M A 2
;
_chemical_formula_sum "Si O2"
_cell_formula_units_Z 64
_cell_length_a 23.141693
_cell_length_b 15.521838
_cell_length_c 9.394915
_cell_angle_alpha 90.000000
_cell_angle_beta 90.000000
_cell_angle_gamma 90.000000
_cell_volume 3374.668592
_symmetry_space_group_name_H-M "A M A 2"
_symmetry_group_IT_number 40
_symmetry_cell_setting 'orthorhombic'
loop_
_space_group_symop_operation_xyz
x,y,z
-x,-y,z
1/2-x,y,z
1/2+x,-y,z
x,1/2+y,1/2+z
-x,1/2-y,1/2+z
1/2-x,1/2+y,1/2+z
1/2+x,1/2-y,1/2+z
loop_
_atom_site_type_symbol
_atom_site_label
_atom_site_fract_x
_atom_site_fract_y
_atom_site_fract_z
Si Si1 0.183977 0.750401 0.366430
Si Si2 0.815690 0.573131 0.027459
Si Si3 0.444119 0.045172 0.750603
Si Si4 0.381188 0.373238 0.313402
Si Si5 0.115073 0.597353 0.966690
Si Si6 0.534618 0.291946 0.776763
Si Si7 0.182863 0.262862 0.530186
Si Si8 0.442398 0.199940 0.949562
O O1 0.250000 0.714717 0.391983
O O2 0.185491 0.848320 0.418756
O O3 0.172968 0.751919 0.198008
O O4 0.127620 0.708561 0.441927
O O5 0.750000 0.541976 0.053006
O O6 0.841076 0.614472 0.173251
O O7 0.854652 0.495917 0.964819
O O8 0.412746 0.095819 0.624331
O O9 0.458982 0.112286 0.871373
O O10 0.500000 0.000000 0.684406
O O11 0.408597 0.967567 0.820313
O O12 0.427295 0.296057 0.291958
O O13 0.348520 0.342367 0.454327
O O14 0.161477 0.673959 0.960250
O O15 0.067542 0.628095 0.852111
O O16 0.474412 0.274450 0.858217
O O17 0.532123 0.302288 0.607701
O O18 0.250000 0.274121 0.506151
#
# Coordination Sequence:
#
# PCOD9364105 Si02
#       8
#     8   8   8   8   8   8   8   8
#     4  10  22  39  62  88 121 165 203 255 312 370
#     4  10  20  38  62  89 125 165 207 254 308 371
#     4  11  22  38  61  85 124 159 202 254 309 371
#     4  10  21  37  59  90 121 160 208 253 309 366
#     4  10  22  38  59  92 120 160 205 256 308 370
#     4  11  24  38  65  90 123 164 206 260 319 375
#     4  10  20  37  60  88 121 160 206 253 307 365
#     4  12  23  42  62  93 125 163 211 258 317 379
#
# _framework density 18.964827
#
# number of rings (size 3 to 8) (size 9 to 14) (size 15 to 20)
#    0.000    1.500    3.750    1.500    1.750    1.000 
#    0.000    1.875    0.000    0.000    0.000    0.000 
#    0.000    0.000    0.000    0.000    0.000    0.000 
#
# Total GULP energy -178361.398583 kJ/mol
# GULP energy per Si atom -5573.793706 kJ/mol
# Density = 1.892166 g / cm^3
# Si number density = 18.964827 Si / 1000 Ang^3
#
#
#
# Elastic Constant Matrix: (Units=GPa)
#
#
# Indices 1 2 3 4 5 6 
#
# 1 73.4731 14.3996 17.3499 0.0000 0.0000 0.0000
# 2 14.3996 40.7802 15.8492 0.0000 0.0000 0.0000
# 3 17.3499 15.8492 49.6492 0.0000 0.0000 0.0000
# 4 0.0000 0.0000 0.0000 26.2749 0.0000 0.0000
# 5 0.0000 0.0000 0.0000 0.0000 21.5635 0.0000
# 6 0.0000 0.0000 0.0000 0.0000 0.0000 28.5084
#
#
#
# Elastic Compliance Matrix: (Units=1/GPa)
#
#
# Indices 1 2 3 4 5 6 
#
# 1 0.015335 -0.003804 -0.004144 0.000000 0.000000 0.000000
# 2 -0.003804 0.028939 -0.007909 0.000000 0.000000 0.000000
# 3 -0.004144 -0.007909 0.024114 0.000000 0.000000 0.000000
# 4 0.000000 0.000000 0.000000 0.038059 0.000000 0.000000
# 5 0.000000 0.000000 0.000000 0.000000 0.046375 0.000000
# 6 0.000000 0.000000 0.000000 0.000000 0.000000 0.035077
#
#
# Mechanical properties :
#
#
# Convention : Reuss Voigt Hill
#
# Bulk Modulus (GPa) = 27.26765 28.78888 28.02827
# Shear Modulus (GPa) = 21.56693 23.02298 22.29495
#
# Velocity S-wave (km/s) = 3.37591 3.48801 3.43241
# Velocity P-wave (km/s) = 5.44104 5.60666 5.52447
#
# Compressibility (1/GPa) = 0.03667349
#
# Stress axis : x y z
#
# Youngs Moduli (GPa) = 65.21207 34.55602 41.46945
#
# Poissons Ratio (x) = 0.13145 0.17186
# Poissons Ratio (y) = 0.24807 0.32796
# Poissons Ratio (z) = 0.27026 0.27329
#
# Static dielectric constant tensor:
#      x y z
#    x 1.738360 0.000000 0.000000 
#    y 0.000000 1.617630 0.000000 
#    z 0.000000 0.000000 1.640620 
# 
# From -- ./inp_files/8908.got.cif
#   From: 2010.05.17/outbox.cif.g08.bks.cpg/sg40_5_cif.got.tgz:8908.got - 2010.06.03 18:35:42.
