data_PCOD9364698
_publ_section_title
;
Structure prediction by ZEFSAII (Michael W. Deem and Ramdas Pophale) SiO2 
 PCOD9364698
Probable space group: A M A 2
;
_chemical_formula_sum "Si O2"
_cell_formula_units_Z 44
_cell_length_a 14.697302
_cell_length_b 15.970692
_cell_length_c 8.986991
_cell_angle_alpha 90.000000
_cell_angle_beta 90.000000
_cell_angle_gamma 90.000000
_cell_volume 2109.481200
_symmetry_space_group_name_H-M "A M A 2"
_symmetry_group_IT_number 40
_symmetry_cell_setting 'orthorhombic'
loop_
_space_group_symop_operation_xyz
x,y,z
-x,-y,z
1/2-x,y,z
1/2+x,-y,z
x,1/2+y,1/2+z
-x,1/2-y,1/2+z
1/2-x,1/2+y,1/2+z
1/2+x,1/2-y,1/2+z
loop_
_atom_site_type_symbol
_atom_site_label
_atom_site_fract_x
_atom_site_fract_y
_atom_site_fract_z
Si Si1 0.854269 0.557192 0.668970
Si Si2 0.522235 0.088607 0.445294
Si Si3 0.500000 0.500000 0.445228
Si Si4 0.351707 0.682846 0.865514
Si Si5 0.470981 0.330174 0.256467
Si Si6 0.348510 0.751542 0.186211
O O1 0.750000 0.530456 0.672726
O O2 0.896593 0.567924 0.832958
O O3 0.913730 0.501892 0.557133
O O4 0.858009 0.655104 0.620721
O O5 0.435623 0.119030 0.347045
O O6 0.541046 0.150799 0.580792
O O7 0.500000 0.000000 0.519370
O O8 0.487129 0.416304 0.346287
O O9 0.250000 0.662386 0.810471
O O10 0.387592 0.771879 0.805925
O O11 0.345613 0.690820 0.044412
O O12 0.563153 0.275161 0.277085
O O13 0.250000 0.747850 0.264360
#
# Coordination Sequence:
#
# PCOD9364698 Si02
#       6
#     8   8   4   8   8   8
#     4  11  23  41  64  90 127 171 211 261 323 386
#     4  11  23  42  64  96 132 165 207 265 332 381
#     4  12  24  40  66  96 128 166 220 270 322 380
#     4  10  21  39  65  92 124 169 214 259 316 386
#     4  11  22  39  67  96 125 167 215 272 315 380
#     4   9  19  38  62  87 120 164 209 254 316 377
#
# _framework density 20.858208000000001
#
# number of rings (size 3 to 8) (size 9 to 14) (size 15 to 20)
#    0.000    1.455    5.455    0.000    0.000    2.182 
#    0.000    0.000    0.000    0.000    0.000    0.000 
#    0.000    0.000    0.000    0.000    0.000    0.000 
#
# Total GULP energy -122626.834509 kJ/mol
# GULP energy per Si atom -5573.947023 kJ/mol
# Density = 2.081073 g / cm^3
# Si number density = 20.858208 Si / 1000 Ang^3
#
#
#
# Elastic Constant Matrix: (Units=GPa)
#
#
# Indices 1 2 3 4 5 6 
#
# 1 146.1975 30.2231 50.1414 0.0000 0.0000 0.0000
# 2 30.2231 76.6846 18.0472 0.0000 0.0000 0.0000
# 3 50.1414 18.0472 81.1330 0.0000 0.0000 0.0000
# 4 0.0000 0.0000 0.0000 25.9437 0.0000 0.0000
# 5 0.0000 0.0000 0.0000 0.0000 15.7311 0.0000
# 6 0.0000 0.0000 0.0000 0.0000 0.0000 -5.4739
#
#
#
# Elastic Compliance Matrix: (Units=1/GPa)
#
#
# Indices 1 2 3 4 5 6 
#
# 1 0.009074 -0.002381 -0.005078 0.000000 0.000000 0.000000
# 2 -0.002381 0.014386 -0.001728 0.000000 0.000000 0.000000
# 3 -0.005078 -0.001728 0.015848 0.000000 0.000000 0.000000
# 4 0.000000 0.000000 0.000000 0.038545 0.000000 0.000000
# 5 0.000000 0.000000 0.000000 0.000000 0.063568 0.000000
# 6 0.000000 0.000000 0.000000 0.000000 0.000000 -0.182685
#
#
# Mechanical properties :
#
#
# Convention : Reuss Voigt Hill
#
# Bulk Modulus (GPa) = 47.77252 55.64873 51.71063
# Shear Modulus (GPa) = -314.24139 20.94709 -146.64715
#
# Velocity S-wave (km/s) = -12.28752 3.17245 -8.39400
# Velocity P-wave (km/s) = 13.35506 6.33693 8.31267
#
# Compressibility (1/GPa) = 0.02093253
#
# Stress axis : x y z
#
# Youngs Moduli (GPa) = 110.20514 69.51378 63.09824
#
# Poissons Ratio (x) = 0.16552 0.32043
# Poissons Ratio (y) = 0.26241 0.10906
# Poissons Ratio (z) = 0.55964 0.12014
#
# Static dielectric constant tensor:
#      x y z
#    x 1.796200 0.000000 0.000000 
#    y 0.000000 1.808520 0.000000 
#    z 0.000000 0.000000 1.755620 
# 
# From -- ./inp_files/6384.got.cif
#   From: 2010.05.17/outbox.cif.g08.bks.cpg/sg40_4_cif.got.tgz:6384.got - 2010.06.03 18:35:42.
