data_PCOD9364687
_publ_section_title
;
Structure prediction by ZEFSAII (Michael W. Deem and Ramdas Pophale) SiO2 
 PCOD9364687
Probable space group: A M A 2
;
_chemical_formula_sum "Si O2"
_cell_formula_units_Z 64
_cell_length_a 17.829982
_cell_length_b 6.627947
_cell_length_c 26.643627
_cell_angle_alpha 90.000000
_cell_angle_beta 90.000000
_cell_angle_gamma 90.000000
_cell_volume 3148.641946
_symmetry_space_group_name_H-M "A M A 2"
_symmetry_group_IT_number 40
_symmetry_cell_setting 'orthorhombic'
loop_
_space_group_symop_operation_xyz
x,y,z
-x,-y,z
1/2-x,y,z
1/2+x,-y,z
x,1/2+y,1/2+z
-x,1/2-y,1/2+z
1/2-x,1/2+y,1/2+z
1/2+x,1/2-y,1/2+z
loop_
_atom_site_type_symbol
_atom_site_label
_atom_site_fract_x
_atom_site_fract_y
_atom_site_fract_z
Si Si1 0.590467 0.029370 0.897390
Si Si2 0.660971 0.226638 0.692635
Si Si3 0.423207 0.913880 0.052983
Si Si4 0.925422 0.616738 0.717260
Si Si5 0.923207 0.913880 0.626762
Si Si6 0.574578 0.883262 0.462485
Si Si7 0.590467 0.970629 0.782355
Si Si8 0.339029 0.226638 0.987110
O O1 0.607574 0.254910 0.916834
O O2 0.612662 1.000000 0.839872
O O3 0.500000 0.000000 0.900753
O O4 0.630197 0.877630 0.936034
O O5 0.750000 0.221535 0.691386
O O6 0.629857 0.453494 0.693354
O O7 0.630197 0.122370 0.743710
O O8 0.627674 0.094806 0.646786
O O9 0.387189 0.750000 0.089872
O O10 0.500000 0.000000 0.076513
O O11 0.446385 0.784555 0.003933
O O12 0.372326 0.094806 0.032959
O O13 0.946385 0.784555 0.675812
O O14 0.000000 0.500000 0.733102
O O15 0.892426 0.745090 0.762911
O O16 0.000000 0.000000 0.603232
O O17 0.500000 0.000000 0.446643
O O18 0.629857 0.046506 0.486391
O O19 0.500000 0.000000 0.778991
O O20 0.250000 0.221535 0.988359
#
# Coordination Sequence:
#
# PCOD9364687 Si02
#       8
#     8   8   8   8   8   8   8   8
#     4  10  21  39  64  93 122 163 216 263 309 372
#     4  11  24  41  61  93 130 165 204 258 321 379
#     4  11  23  39  68  96 120 161 213 258 310 376
#     4  11  19  39  63  88 125 167 211 255 311 371
#     4  11  23  39  68  96 120 161 213 258 310 376
#     4  11  19  39  63  88 125 167 211 255 311 371
#     4  10  21  39  64  93 122 163 216 263 309 372
#     4  11  24  41  61  93 130 165 204 258 321 379
#
# _framework density 20.326222000000001
#
# number of rings (size 3 to 8) (size 9 to 14) (size 15 to 20)
#    0.000    1.250    5.000    2.250    0.000    6.000 
#    0.000    2.500    0.000    0.000    0.000    0.000 
#    0.000    0.000    0.000    0.000    0.000    0.000 
#
# Total GULP energy -178840.636840 kJ/mol
# GULP energy per Si atom -5588.769901 kJ/mol
# Density = 2.027996 g / cm^3
# Si number density = 20.326222 Si / 1000 Ang^3
#
#
#
# Elastic Constant Matrix: (Units=GPa)
#
#
# Indices 1 2 3 4 5 6 
#
# 1 94.2434 28.8696 -0.7953 0.0000 0.0000 0.0000
# 2 28.8696 124.7648 27.4961 0.0000 0.0000 0.0000
# 3 -0.7953 27.4961 74.1185 0.0000 0.0000 0.0000
# 4 0.0000 0.0000 0.0000 31.0571 0.0000 0.0000
# 5 0.0000 0.0000 0.0000 0.0000 7.0236 0.0000
# 6 0.0000 0.0000 0.0000 0.0000 0.0000 17.1541
#
#
#
# Elastic Compliance Matrix: (Units=1/GPa)
#
#
# Indices 1 2 3 4 5 6 
#
# 1 0.011519 -0.002932 0.001211 0.000000 0.000000 0.000000
# 2 -0.002932 0.009475 -0.003547 0.000000 0.000000 0.000000
# 3 0.001211 -0.003547 0.014821 0.000000 0.000000 0.000000
# 4 0.000000 0.000000 0.000000 0.032199 0.000000 0.000000
# 5 0.000000 0.000000 0.000000 0.000000 0.142378 0.000000
# 6 0.000000 0.000000 0.000000 0.000000 0.000000 0.058295
#
#
# Mechanical properties :
#
#
# Convention : Reuss Voigt Hill
#
# Bulk Modulus (GPa) = 39.55681 44.91861 42.23771
# Shear Modulus (GPa) = 17.38230 26.88403 22.13317
#
# Velocity S-wave (km/s) = 2.92750 3.64074 3.30342
# Velocity P-wave (km/s) = 5.56149 6.31032 5.94770
#
# Compressibility (1/GPa) = 0.02528010
#
# Stress axis : x y z
#
# Youngs Moduli (GPa) = 86.81039 105.53825 67.47374
#
# Poissons Ratio (x) = 0.30949 -0.08174
# Poissons Ratio (y) = 0.25457 0.23930
# Poissons Ratio (z) = -0.10517 0.37430
#
# Static dielectric constant tensor:
#      x y z
#    x 1.689270 0.000000 0.000000 
#    y 0.000000 1.752850 0.000000 
#    z 0.000000 0.000000 1.747600 
# 
# From -- ./inp_files/2473.got.cif
#   From: 2010.05.17/outbox.cif.g08.bks.cpg/sg40_2_cif.got.tgz:2473.got - 2010.06.03 18:35:42.
