data_PCOD9364921
_publ_section_title
;
Structure prediction by ZEFSAII (Michael W. Deem and Ramdas Pophale) SiO2 
 PCOD9364921
Probable space group: A M A 2
;
_chemical_formula_sum "Si O2"
_cell_formula_units_Z 28
_cell_length_a 14.831912
_cell_length_b 5.202609
_cell_length_c 16.644094
_cell_angle_alpha 90.000000
_cell_angle_beta 90.000000
_cell_angle_gamma 90.000000
_cell_volume 1284.335503
_symmetry_space_group_name_H-M "A M A 2"
_symmetry_group_IT_number 40
_symmetry_cell_setting 'orthorhombic'
loop_
_space_group_symop_operation_xyz
x,y,z
-x,-y,z
1/2-x,y,z
1/2+x,-y,z
x,1/2+y,1/2+z
-x,1/2-y,1/2+z
1/2-x,1/2+y,1/2+z
1/2+x,1/2-y,1/2+z
loop_
_atom_site_type_symbol
_atom_site_label
_atom_site_fract_x
_atom_site_fract_y
_atom_site_fract_z
Si Si1 0.347897 0.852164 0.537910
Si Si2 0.092981 0.618680 0.192226
Si Si3 0.250000 0.200204 0.816957
Si Si4 0.000000 0.000000 0.068816
Si Si5 0.250000 0.696068 0.927570
O O1 0.250000 0.718098 0.529522
O O2 0.435336 0.686407 0.517807
O O3 0.360740 0.918706 0.631188
O O4 0.334051 0.112324 0.485462
O O5 0.162175 0.688375 0.260838
O O6 0.000000 0.500000 0.224802
O O7 0.063084 0.840667 0.130255
O O8 0.250000 0.469535 0.862088
O O9 0.250000 0.961132 0.879502
#
# Coordination Sequence:
#
# PCOD9364921 Si02
#       5
#     8   8   4   4   4
#     4   9  21  42  67  97 133 178 240 282 334 413
#     4  10  23  41  69  97 130 177 238 283 341 406
#     4  12  25  45  68  98 148 177 218 287 351 423
#     4  10  22  38  74 102 126 182 248 294 338 396
#     4  10  27  41  70 100 136 187 220 277 355 405
#
# _framework density 21.801157
#
# number of rings (size 3 to 8) (size 9 to 14) (size 15 to 20)
#    0.857    1.143    1.429    0.000   14.000    0.000 
#    2.571    0.000    0.000    0.000    0.000    0.000 
#    0.000    0.000    0.000    0.000    0.000    0.000 
#
# Total GULP energy -78069.161589 kJ/mol
# GULP energy per Si atom -5576.368685 kJ/mol
# Density = 2.175154 g / cm^3
# Si number density = 21.801157 Si / 1000 Ang^3
#
#
#
# Elastic Constant Matrix: (Units=GPa)
#
#
# Indices 1 2 3 4 5 6 
#
# 1 132.3127 35.4507 57.0329 0.0000 0.0000 0.0000
# 2 35.4507 72.9243 13.7257 0.0000 0.0000 0.0000
# 3 57.0329 13.7257 79.2118 0.0000 0.0000 0.0000
# 4 0.0000 0.0000 0.0000 32.7403 0.0000 0.0000
# 5 0.0000 0.0000 0.0000 0.0000 1.1066 0.0000
# 6 0.0000 0.0000 0.0000 0.0000 0.0000 26.8450
#
#
#
# Elastic Compliance Matrix: (Units=1/GPa)
#
#
# Indices 1 2 3 4 5 6 
#
# 1 0.012198 -0.004421 -0.008016 0.000000 0.000000 0.000000
# 2 -0.004421 0.015777 0.000449 0.000000 0.000000 0.000000
# 3 -0.008016 0.000449 0.018318 0.000000 0.000000 0.000000
# 4 0.000000 0.000000 0.000000 0.030543 0.000000 0.000000
# 5 0.000000 0.000000 0.000000 0.000000 0.903675 0.000000
# 6 0.000000 0.000000 0.000000 0.000000 0.000000 0.037251
#
#
# Mechanical properties :
#
#
# Convention : Reuss Voigt Hill
#
# Bulk Modulus (GPa) = 44.80818 55.20752 50.00785
# Shear Modulus (GPa) = 4.76563 24.02101 14.39332
#
# Velocity S-wave (km/s) = 1.48010 3.32297 2.57224
# Velocity P-wave (km/s) = 4.84961 6.33254 5.64002
#
# Compressibility (1/GPa) = 0.02231735
#
# Stress axis : x y z
#
# Youngs Moduli (GPa) = 81.98196 63.38168 54.58981
#
# Poissons Ratio (x) = 0.28020 0.43762
# Poissons Ratio (y) = 0.36243 -0.02452
# Poissons Ratio (z) = 0.65720 -0.02847
#
# Static dielectric constant tensor:
#      x y z
#    x 1.847570 0.000000 0.000000 
#    y 0.000000 1.889630 0.000000 
#    z 0.000000 0.000000 1.744560 
# 
# From -- ./inp_files/17313.got.cif
#   From: 2010.05.17/outbox.cif.g08.bks.cpg/sg40_9_cif.got.tgz:17313.got - 2010.06.03 18:35:42.
