data_PCOD9364313
_publ_section_title
;
Structure prediction by ZEFSAII (Michael W. Deem and Ramdas Pophale) SiO2 
 PCOD9364313
Probable space group: A M A 2
;
_chemical_formula_sum "Si O2"
_cell_formula_units_Z 52
_cell_length_a 13.861549
_cell_length_b 13.358282
_cell_length_c 11.701411
_cell_angle_alpha 90.000000
_cell_angle_beta 90.000000
_cell_angle_gamma 90.000000
_cell_volume 2166.709092
_symmetry_space_group_name_H-M "A M A 2"
_symmetry_group_IT_number 40
_symmetry_cell_setting 'orthorhombic'
loop_
_space_group_symop_operation_xyz
x,y,z
-x,-y,z
1/2-x,y,z
1/2+x,-y,z
x,1/2+y,1/2+z
-x,1/2-y,1/2+z
1/2-x,1/2+y,1/2+z
1/2+x,1/2-y,1/2+z
loop_
_atom_site_type_symbol
_atom_site_label
_atom_site_fract_x
_atom_site_fract_y
_atom_site_fract_z
Si Si1 0.527524 0.636797 0.566360
Si Si2 0.857883 0.275217 0.759738
Si Si3 0.635360 0.562129 0.339409
Si Si4 0.000000 0.000000 0.481498
Si Si5 0.636362 0.345769 0.387247
Si Si6 0.140521 0.663701 0.030048
Si Si7 0.941080 0.142539 0.282442
O O1 0.580321 0.587690 0.455097
O O2 0.422324 0.648899 0.505448
O O3 0.576290 0.747078 0.576820
O O4 0.587684 0.580149 0.671288
O O5 0.750000 0.291986 0.713127
O O6 0.882460 0.156597 0.755748
O O7 0.854260 0.310499 0.893380
O O8 0.953826 0.333711 0.721663
O O9 0.750000 0.568686 0.359739
O O10 0.613550 0.446274 0.314345
O O11 0.917342 0.939137 0.545120
O O12 0.050691 0.922141 0.395107
O O13 0.750000 0.342899 0.407755
O O14 0.605978 0.245422 0.320971
O O15 0.250000 0.661093 0.073980
#
# Coordination Sequence:
#
# PCOD9364313 Si02
#       7
#     8   8   8   4   8   8   8
#     4  11  21  38  63  89 119 160 203 251 302 365
#     4   8  15  33  58  82 110 150 197 240 293 357
#     4   9  18  35  63  87 111 152 198 243 304 361
#     4  10  20  40  56  92 114 160 202 242 314 348
#     4  11  23  39  58  91 130 159 191 254 320 361
#     4   9  18  37  61  80 115 158 200 241 294 364
#     4  11  23  36  62  89 122 159 204 251 300 360
#
# _framework density 23.999531000000001
#
# number of rings (size 3 to 8) (size 9 to 14) (size 15 to 20)
#    0.000    2.154    4.615    1.846    2.154    2.462 
#    0.000    1.538    0.000    1.846    0.000    0.000 
#    0.000    0.000    0.000    0.000    0.000    0.000 
#
# Total GULP energy -144879.304673 kJ/mol
# GULP energy per Si atom -5572.280949 kJ/mol
# Density = 2.394491 g / cm^3
# Si number density = 23.999531 Si / 1000 Ang^3
#
#
#
# Elastic Constant Matrix: (Units=GPa)
#
#
# Indices 1 2 3 4 5 6 
#
# 1 86.5644 48.4966 7.8156 0.0000 0.0000 0.0000
# 2 48.4966 136.0395 -7.6743 0.0000 0.0000 0.0000
# 3 7.8156 -7.6743 62.2209 0.0000 0.0000 0.0000
# 4 0.0000 0.0000 0.0000 93.3838 0.0000 0.0000
# 5 0.0000 0.0000 0.0000 0.0000 -8.2155 0.0000
# 6 0.0000 0.0000 0.0000 0.0000 0.0000 32.9344
#
#
#
# Elastic Compliance Matrix: (Units=1/GPa)
#
#
# Indices 1 2 3 4 5 6 
#
# 1 0.014821 -0.005426 -0.002531 0.000000 0.000000 0.000000
# 2 -0.005426 0.009389 0.001840 0.000000 0.000000 0.000000
# 3 -0.002531 0.001840 0.016617 0.000000 0.000000 0.000000
# 4 0.000000 0.000000 0.000000 0.010708 0.000000 0.000000
# 5 0.000000 0.000000 0.000000 0.000000 -0.121721 0.000000
# 6 0.000000 0.000000 0.000000 0.000000 0.000000 0.030363
#
#
# Mechanical properties :
#
#
# Convention : Reuss Voigt Hill
#
# Bulk Modulus (GPa) = 34.97573 42.45562 38.71567
# Shear Modulus (GPa) = -276.89248 39.36633 -118.76307
#
# Velocity S-wave (km/s) = -10.75289 4.05445 -7.04223
# Velocity P-wave (km/s) = 11.81359 6.29656 7.06804
#
# Compressibility (1/GPa) = 0.02859126
#
# Stress axis : x y z
#
# Youngs Moduli (GPa) = 67.47403 106.50828 60.18087
#
# Poissons Ratio (x) = 0.57793 0.15231
# Poissons Ratio (y) = 0.36612 -0.11071
# Poissons Ratio (z) = 0.17077 -0.19593
#
# Static dielectric constant tensor:
#      x y z
#    x 2.116400 0.000000 0.000000 
#    y 0.000000 1.435700 0.000000 
#    z 0.000000 0.000000 2.534970 
# 
# From -- ./inp_files/20686.got.cif
#   From: 2010.05.17/outbox.cif.g08.bks.cpg/sg40_11_cif.got.tgz:20686.got - 2010.06.03 18:35:42.
