data_PCOD9364685
_publ_section_title
;
Structure prediction by ZEFSAII (Michael W. Deem and Ramdas Pophale) SiO2 
 PCOD9364685
Probable space group: A M A 2
;
_chemical_formula_sum "Si O2"
_cell_formula_units_Z 60
_cell_length_a 14.738097
_cell_length_b 22.572722
_cell_length_c 9.750918
_cell_angle_alpha 90.000000
_cell_angle_beta 90.000000
_cell_angle_gamma 90.000000
_cell_volume 3243.925322
_symmetry_space_group_name_H-M "A M A 2"
_symmetry_group_IT_number 40
_symmetry_cell_setting 'orthorhombic'
loop_
_space_group_symop_operation_xyz
x,y,z
-x,-y,z
1/2-x,y,z
1/2+x,-y,z
x,1/2+y,1/2+z
-x,1/2-y,1/2+z
1/2-x,1/2+y,1/2+z
1/2+x,1/2-y,1/2+z
loop_
_atom_site_type_symbol
_atom_site_label
_atom_site_fract_x
_atom_site_fract_y
_atom_site_fract_z
Si Si1 0.582673 0.542631 0.410770
Si Si2 0.644979 0.352901 0.232389
Si Si3 0.750000 0.026836 0.114462
Si Si4 0.358217 0.012907 0.640632
Si Si5 0.352269 0.232831 0.471256
Si Si6 0.505396 0.332437 0.469549
Si Si7 0.646103 0.854118 0.213629
Si Si8 0.602370 0.485823 0.820627
O O1 0.500000 0.500000 0.448953
O O2 0.670823 0.524555 0.495458
O O3 0.600355 0.532879 0.248848
O O4 0.553845 0.608851 0.446138
O O5 0.750000 0.352177 0.281923
O O6 0.621114 0.420803 0.195873
O O7 0.574716 0.327735 0.342252
O O8 0.641438 0.313702 0.095557
O O9 0.671012 0.025826 0.234716
O O10 0.250000 0.006947 0.641658
O O11 0.388750 0.006409 0.484090
O O12 0.250000 0.260127 0.477612
O O13 0.434126 0.279034 0.480769
O O14 0.357954 0.195387 0.331373
O O15 0.570513 0.340796 0.600565
O O16 0.750000 0.855806 0.157959
O O17 0.628352 0.918432 0.280223
O O18 0.500000 0.500000 0.781108
#
# Coordination Sequence:
#
# PCOD9364685 Si02
#       8
#     8   8   4   8   8   8   8   8
#     4  12  25  40  61  99 132 170 211 263 329 396
#     4  10  21  39  64  91 119 158 216 267 312 367
#     4  12  24  40  58  90 138 166 210 256 332 394
#     4  11  21  41  64  88 126 167 214 269 316 383
#     4  10  23  42  65  93 125 173 216 261 325 390
#     4  12  24  39  65  96 130 168 209 270 329 382
#     4  11  22  42  66  94 126 168 222 270 319 387
#     4  12  24  39  65  94 124 171 218 268 326 388
#
# _framework density 18.496110999999999
#
# number of rings (size 3 to 8) (size 9 to 14) (size 15 to 20)
#    0.000    0.800    4.667    3.600    0.933    0.000 
#    0.000    0.000    0.000    0.000    3.467    0.000 
#    0.000    0.000    0.000    0.000    0.000    0.000 
#
# Total GULP energy -167148.221780 kJ/mol
# GULP energy per Si atom -5571.607393 kJ/mol
# Density = 1.845401 g / cm^3
# Si number density = 18.496111 Si / 1000 Ang^3
#
#
#
# Elastic Constant Matrix: (Units=GPa)
#
#
# Indices 1 2 3 4 5 6 
#
# 1 159.7573 27.8524 59.1214 0.0000 0.0000 0.0000
# 2 27.8524 46.2526 10.7621 0.0000 0.0000 0.0000
# 3 59.1214 10.7621 127.5375 0.0000 0.0000 0.0000
# 4 0.0000 0.0000 0.0000 15.7516 0.0000 0.0000
# 5 0.0000 0.0000 0.0000 0.0000 42.3161 0.0000
# 6 0.0000 0.0000 0.0000 0.0000 0.0000 18.1860
#
#
#
# Elastic Compliance Matrix: (Units=1/GPa)
#
#
# Indices 1 2 3 4 5 6 
#
# 1 0.008277 -0.004173 -0.003485 0.000000 0.000000 0.000000
# 2 -0.004173 0.024158 -0.000104 0.000000 0.000000 0.000000
# 3 -0.003485 -0.000104 0.009465 0.000000 0.000000 0.000000
# 4 0.000000 0.000000 0.000000 0.063485 0.000000 0.000000
# 5 0.000000 0.000000 0.000000 0.000000 0.023632 0.000000
# 6 0.000000 0.000000 0.000000 0.000000 0.000000 0.054987
#
#
# Mechanical properties :
#
#
# Convention : Reuss Voigt Hill
#
# Bulk Modulus (GPa) = 37.91373 58.77990 48.34681
# Shear Modulus (GPa) = 24.00166 30.97152 27.48659
#
# Velocity S-wave (km/s) = 3.60621 4.09649 3.85915
# Velocity P-wave (km/s) = 6.15487 7.36367 6.78624
#
# Compressibility (1/GPa) = 0.02637567
#
# Stress axis : x y z
#
# Youngs Moduli (GPa) = 120.82275 41.39477 105.65343
#
# Poissons Ratio (x) = 0.17275 0.36815
# Poissons Ratio (y) = 0.50422 0.01098
# Poissons Ratio (z) = 0.42101 0.00430
#
# Static dielectric constant tensor:
#      x y z
#    x 1.638850 0.000000 0.000000 
#    y 0.000000 1.622910 0.000000 
#    z 0.000000 0.000000 1.638010 
# 
# From -- ./inp_files/6840.got.cif
#   From: 2010.05.17/outbox.cif.g08.bks.cpg/sg40_4_cif.got.tgz:6840.got - 2010.06.03 18:35:42.
