data_PCOD9364750
_publ_section_title
;
Structure prediction by ZEFSAII (Michael W. Deem and Ramdas Pophale) SiO2 
 PCOD9364750
Probable space group: A M A 2
;
_chemical_formula_sum "Si O2"
_cell_formula_units_Z 48
_cell_length_a 8.685439
_cell_length_b 23.362118
_cell_length_c 11.812118
_cell_angle_alpha 90.000000
_cell_angle_beta 90.000000
_cell_angle_gamma 90.000000
_cell_volume 2396.799826
_symmetry_space_group_name_H-M "A M A 2"
_symmetry_group_IT_number 40
_symmetry_cell_setting 'orthorhombic'
loop_
_space_group_symop_operation_xyz
x,y,z
-x,-y,z
1/2-x,y,z
1/2+x,-y,z
x,1/2+y,1/2+z
-x,1/2-y,1/2+z
1/2-x,1/2+y,1/2+z
1/2+x,1/2-y,1/2+z
loop_
_atom_site_type_symbol
_atom_site_label
_atom_site_fract_x
_atom_site_fract_y
_atom_site_fract_z
Si Si1 0.567434 0.358179 0.680490
Si Si2 0.930753 0.062427 0.988338
Si Si3 0.432169 0.436492 0.876396
Si Si4 0.566903 0.856071 0.820462
Si Si5 0.934670 0.262373 0.509900
Si Si6 0.568395 0.358076 0.054806
O O1 0.750000 0.354894 0.699850
O O2 0.526994 0.401864 0.579819
O O3 0.490070 0.387636 0.788647
O O4 0.516687 0.297661 0.623748
O O5 0.750000 0.063017 0.016100
O O6 0.964451 0.093214 0.870117
O O7 0.000000 0.000000 0.986643
O O8 0.500000 0.500000 0.854036
O O9 0.250000 0.440750 0.867837
O O10 0.483086 0.411532 0.997826
O O11 0.750000 0.868276 0.836410
O O12 0.538090 0.850154 0.688065
O O13 0.532276 0.801206 0.899526
O O14 0.750000 0.255070 0.516129
O O15 0.014485 0.201539 0.500456
O O16 0.750000 0.366190 0.037755
#
# Coordination Sequence:
#
# PCOD9364750 Si02
#       6
#     8   8   8   8   8   8
#     4  10  21  40  64  93 127 162 205 258 311 366
#     4  11  21  35  59  89 120 158 201 249 305 363
#     4  12  26  44  65  91 127 169 216 263 317 379
#     4   9  21  41  60  84 120 159 202 254 306 364
#     4   9  20  39  63  92 124 159 201 256 314 370
#     4  11  24  41  63  91 124 165 209 256 312 374
#
# _framework density 20.026703999999999
#
# number of rings (size 3 to 8) (size 9 to 14) (size 15 to 20)
#    0.000    1.667    0.000    5.500    2.333    5.333 
#    0.000    0.000    0.000    0.000    0.000    0.000 
#    0.000    0.000    0.000    0.000    0.000    0.000 
#
# Total GULP energy -134041.460230 kJ/mol
# GULP energy per Si atom -5585.060843 kJ/mol
# Density = 1.998112 g / cm^3
# Si number density = 20.026704 Si / 1000 Ang^3
#
#
#
# Elastic Constant Matrix: (Units=GPa)
#
#
# Indices 1 2 3 4 5 6 
#
# 1 31.7519 13.2920 22.6842 0.0000 0.0000 0.0000
# 2 13.2920 67.8169 10.8046 0.0000 0.0000 0.0000
# 3 22.6842 10.8046 73.0210 0.0000 0.0000 0.0000
# 4 0.0000 0.0000 0.0000 19.2407 0.0000 0.0000
# 5 0.0000 0.0000 0.0000 0.0000 41.1148 0.0000
# 6 0.0000 0.0000 0.0000 0.0000 0.0000 15.1221
#
#
#
# Elastic Compliance Matrix: (Units=1/GPa)
#
#
# Indices 1 2 3 4 5 6 
#
# 1 0.043077 -0.006463 -0.012426 0.000000 0.000000 0.000000
# 2 -0.006463 0.016071 -0.000370 0.000000 0.000000 0.000000
# 3 -0.012426 -0.000370 0.017610 0.000000 0.000000 0.000000
# 4 0.000000 0.000000 0.000000 0.051973 0.000000 0.000000
# 5 0.000000 0.000000 0.000000 0.000000 0.024322 0.000000
# 6 0.000000 0.000000 0.000000 0.000000 0.000000 0.066129
#
#
# Mechanical properties :
#
#
# Convention : Reuss Voigt Hill
#
# Bulk Modulus (GPa) = 26.15090 29.57237 27.86163
# Shear Modulus (GPa) = 18.48794 23.48278 20.98536
#
# Velocity S-wave (km/s) = 3.04166 3.42800 3.24059
# Velocity P-wave (km/s) = 5.04202 5.51967 5.28624
#
# Compressibility (1/GPa) = 0.03823960
#
# Stress axis : x y z
#
# Youngs Moduli (GPa) = 23.21424 62.22247 56.78751
#
# Poissons Ratio (x) = 0.40217 0.70562
# Poissons Ratio (y) = 0.15004 0.02102
# Poissons Ratio (z) = 0.28845 0.02303
#
# Static dielectric constant tensor:
#      x y z
#    x 1.667830 0.000000 0.000000 
#    y 0.000000 1.668310 0.000000 
#    z 0.000000 0.000000 1.746620 
# 
# From -- ./inp_files/10258.got.cif
#   From: 2010.05.17/outbox.cif.g08.bks.cpg/sg40_6_cif.got.tgz:10258.got - 2010.06.03 18:35:42.
