data_PCOD9364079
_publ_section_title
;
Structure prediction by ZEFSAII (Michael W. Deem and Ramdas Pophale) SiO2 
 PCOD9364079
Probable space group: A M A 2
;
_chemical_formula_sum "Si O2"
_cell_formula_units_Z 40
_cell_length_a 8.599210
_cell_length_b 9.793354
_cell_length_c 25.965005
_cell_angle_alpha 90.000000
_cell_angle_beta 90.000000
_cell_angle_gamma 90.000000
_cell_volume 2186.645691
_symmetry_space_group_name_H-M "A M A 2"
_symmetry_group_IT_number 40
_symmetry_cell_setting 'orthorhombic'
loop_
_space_group_symop_operation_xyz
x,y,z
-x,-y,z
1/2-x,y,z
1/2+x,-y,z
x,1/2+y,1/2+z
-x,1/2-y,1/2+z
1/2-x,1/2+y,1/2+z
1/2+x,1/2-y,1/2+z
loop_
_atom_site_type_symbol
_atom_site_label
_atom_site_fract_x
_atom_site_fract_y
_atom_site_fract_z
Si Si1 0.437259 0.153772 0.591150
Si Si2 0.064333 0.348743 0.389170
Si Si3 0.062948 0.348726 0.683906
Si Si4 0.936064 0.846856 0.001515
Si Si5 0.437071 0.848103 0.301674
O O1 0.250000 0.151019 0.589442
O O2 0.487160 0.236667 0.642430
O O3 0.500037 0.240805 0.543097
O O4 0.500000 0.000000 0.590931
O O5 0.250000 0.351940 0.393097
O O6 0.000000 0.500000 0.378870
O O7 0.993949 0.307050 0.444446
O O8 0.009749 0.251443 0.343518
O O9 0.250000 0.356352 0.682401
O O10 0.017909 0.313051 0.742617
O O11 0.000000 0.500000 0.671683
O O12 0.750000 0.850920 0.002683
O O13 0.000000 0.000000 0.011911
O O14 0.250000 0.845600 0.305367
O O15 0.500000 0.000000 0.311073
#
# Coordination Sequence:
#
# PCOD9364079 Si02
#       5
#     8   8   8   8   8
#     4  11  23  39  57  84 116 149 187 233 283 333
#     4  11  22  38  59  85 114 149 188 232 280 333
#     4   9  20  37  59  83 112 148 189 230 276 332
#     4  11  22  39  61  85 112 148 188 231 278 335
#     4  10  20  37  58  85 116 150 189 232 278 331
#
# _framework density 18.292859
#
# number of rings (size 3 to 8) (size 9 to 14) (size 15 to 20)
#    0.000    1.600    0.000    6.600    0.000    5.600 
#    0.000    6.000    0.000    0.000    0.000    0.000 
#    0.000    0.000    0.000    0.000    0.000    0.000 
#
# Total GULP energy -111772.565738 kJ/mol
# GULP energy per Si atom -5588.628287 kJ/mol
# Density = 1.825122 g / cm^3
# Si number density = 18.292859 Si / 1000 Ang^3
#
#
#
# Elastic Constant Matrix: (Units=GPa)
#
#
# Indices 1 2 3 4 5 6 
#
# 1 116.7467 57.4816 64.3970 0.0000 0.0000 0.0000
# 2 57.4816 139.3803 137.7357 0.0000 0.0000 0.0000
# 3 64.3970 137.7357 173.0197 0.0000 0.0000 0.0000
# 4 0.0000 0.0000 0.0000 43.6257 0.0000 0.0000
# 5 0.0000 0.0000 0.0000 0.0000 30.3361 0.0000
# 6 0.0000 0.0000 0.0000 0.0000 0.0000 36.6712
#
#
#
# Elastic Compliance Matrix: (Units=1/GPa)
#
#
# Indices 1 2 3 4 5 6 
#
# 1 0.010932 -0.002286 -0.002249 0.000000 0.000000 0.000000
# 2 -0.002286 0.034110 -0.026304 0.000000 0.000000 0.000000
# 3 -0.002249 -0.026304 0.027556 0.000000 0.000000 0.000000
# 4 0.000000 0.000000 0.000000 0.022922 0.000000 0.000000
# 5 0.000000 0.000000 0.000000 0.000000 0.032964 0.000000
# 6 0.000000 0.000000 0.000000 0.000000 0.000000 0.027269
#
#
# Mechanical properties :
#
#
# Convention : Reuss Voigt Hill
#
# Bulk Modulus (GPa) = 91.56230 105.37505 98.46868
# Shear Modulus (GPa) = 22.61716 33.42875 28.02296
#
# Velocity S-wave (km/s) = 3.52005 4.27947 3.91820
# Velocity P-wave (km/s) = 8.16598 9.06356 8.62645
#
# Compressibility (1/GPa) = 0.01092152
#
# Stress axis : x y z
#
# Youngs Moduli (GPa) = 91.47853 29.31655 36.28946
#
# Poissons Ratio (x) = 0.06701 0.08162
# Poissons Ratio (y) = 0.20910 0.95454
# Poissons Ratio (z) = 0.20574 0.77113
#
# Static dielectric constant tensor:
#      x y z
#    x 1.614830 0.000000 0.000000 
#    y 0.000000 1.573070 0.000000 
#    z 0.000000 0.000000 1.628130 
# 
# From -- ./inp_files/23803.got.cif
#   From: 2010.05.17/outbox.cif.g08.bks.cpg/sg40_12_cif.got.tgz:23803.got - 2010.06.03 18:35:42.
