data_PCOD9364205
_publ_section_title
;
Structure prediction by ZEFSAII (Michael W. Deem and Ramdas Pophale) SiO2 
 PCOD9364205
Probable space group: A M A 2
;
_chemical_formula_sum "Si O2"
_cell_formula_units_Z 64
_cell_length_a 15.066292
_cell_length_b 16.208394
_cell_length_c 12.561379
_cell_angle_alpha 90.000000
_cell_angle_beta 90.000000
_cell_angle_gamma 90.000000
_cell_volume 3067.493737
_symmetry_space_group_name_H-M "A M A 2"
_symmetry_group_IT_number 40
_symmetry_cell_setting 'orthorhombic'
loop_
_space_group_symop_operation_xyz
x,y,z
-x,-y,z
1/2-x,y,z
1/2+x,-y,z
x,1/2+y,1/2+z
-x,1/2-y,1/2+z
1/2-x,1/2+y,1/2+z
1/2+x,1/2-y,1/2+z
loop_
_atom_site_type_symbol
_atom_site_label
_atom_site_fract_x
_atom_site_fract_y
_atom_site_fract_z
Si Si1 0.146473 0.653963 0.962830
Si Si2 0.851703 0.097600 0.743691
Si Si3 0.643507 0.951542 0.154185
Si Si4 0.903350 0.720982 0.638051
Si Si5 0.358271 0.967265 0.523590
Si Si6 0.640995 0.074974 0.980455
Si Si7 0.588148 0.777232 0.243085
Si Si8 0.353646 0.405389 0.809367
O O1 0.250000 0.655200 0.926795
O O2 0.121092 0.559694 0.985693
O O3 0.090828 0.695746 0.867396
O O4 0.139439 0.704633 0.072564
O O5 0.750000 0.068185 0.750664
O O6 0.893509 0.056924 0.639267
O O7 0.890573 0.078257 0.859493
O O8 0.852092 0.196504 0.731567
O O9 0.750000 0.952636 0.160720
O O10 0.614554 0.860224 0.181303
O O11 0.608365 0.018646 0.239952
O O12 0.620696 0.989294 0.039543
O O13 0.902670 0.647319 0.550560
O O14 0.858893 0.676963 0.740015
O O15 0.996083 0.747521 0.688505
O O16 0.250000 0.961839 0.532070
O O17 0.389790 0.906755 0.428926
O O18 0.750000 0.088430 0.985281
O O19 0.250000 0.424398 0.820659
#
# Coordination Sequence:
#
# PCOD9364205 Si02
#       8
#     8   8   8   8   8   8   8   8
#     4  11  21  42  69  90 117 165 217 252 296 382
#     4  10  20  38  62  88 118 161 204 248 304 371
#     4   9  17  33  59  89 112 147 205 259 293 350
#     4  11  23  35  56  91 125 158 203 256 308 361
#     4   9  19  36  63  92 115 146 204 263 305 354
#     4   9  18  36  62  86 117 161 210 249 297 368
#     4  12  23  35  58  92 124 156 203 258 307 362
#     4   9  17  34  58  87 119 154 200 257 308 358
#
# _framework density 20.863938999999998
#
# number of rings (size 3 to 8) (size 9 to 14) (size 15 to 20)
#    0.000    2.000    2.500    3.000    0.000    3.000 
#    0.000    4.375    2.750    4.500    0.000    0.000 
#    0.000    0.000    0.000    0.000    0.000    0.000 
#
# Total GULP energy -178438.947667 kJ/mol
# GULP energy per Si atom -5576.217115 kJ/mol
# Density = 2.081645 g / cm^3
# Si number density = 20.863939 Si / 1000 Ang^3
#
#
#
# Elastic Constant Matrix: (Units=GPa)
#
#
# Indices 1 2 3 4 5 6 
#
# 1 29.8361 -2.5001 18.6585 0.0000 0.0000 0.0000
# 2 -2.5001 54.6712 39.1938 0.0000 0.0000 0.0000
# 3 18.6585 39.1938 150.0742 0.0000 0.0000 0.0000
# 4 0.0000 0.0000 0.0000 37.0557 0.0000 0.0000
# 5 0.0000 0.0000 0.0000 0.0000 -78.1972 0.0000
# 6 0.0000 0.0000 0.0000 0.0000 0.0000 -11.2146
#
#
#
# Elastic Compliance Matrix: (Units=1/GPa)
#
#
# Indices 1 2 3 4 5 6 
#
# 1 0.038033 0.006311 -0.006377 0.000000 0.000000 0.000000
# 2 0.006311 0.023552 -0.006935 0.000000 0.000000 0.000000
# 3 -0.006377 -0.006935 0.009267 0.000000 0.000000 0.000000
# 4 0.000000 0.000000 0.000000 0.026986 0.000000 0.000000
# 5 0.000000 0.000000 0.000000 0.000000 -0.012788 0.000000
# 6 0.000000 0.000000 0.000000 0.000000 0.000000 -0.089170
#
#
# Mechanical properties :
#
#
# Convention : Reuss Voigt Hill
#
# Bulk Modulus (GPa) = 17.59036 38.36509 27.97772
# Shear Modulus (GPa) = 173.40917 1.47741 87.44329
#
# Velocity S-wave (km/s) = 9.12660 0.84241 6.48091
# Velocity P-wave (km/s) = 10.93201 4.40163 8.33317
#
# Compressibility (1/GPa) = 0.05684933
#
# Stress axis : x y z
#
# Youngs Moduli (GPa) = 26.29298 42.45961 107.90443
#
# Poissons Ratio (x) = -0.26795 0.68807
# Poissons Ratio (y) = -0.16593 0.74837
# Poissons Ratio (z) = 0.16766 0.29448
#
# Static dielectric constant tensor:
#      x y z
#    x 2.208730 0.000000 0.000000 
#    y 0.000000 1.734420 0.000000 
#    z 0.000000 0.000000 1.774600 
# 
# From -- ./inp_files/12467.got.cif
#   From: 2010.05.17/outbox.cif.g08.bks.cpg/sg40_7_cif.got.tgz:12467.got - 2010.06.03 18:35:42.
