data_PCOD9364661
_publ_section_title
;
Structure prediction by ZEFSAII (Michael W. Deem and Ramdas Pophale) SiO2 
 PCOD9364661
Probable space group: A M A 2
;
_chemical_formula_sum "Si O2"
_cell_formula_units_Z 48
_cell_length_a 8.870875
_cell_length_b 18.289717
_cell_length_c 15.061956
_cell_angle_alpha 90.000000
_cell_angle_beta 90.000000
_cell_angle_gamma 90.000000
_cell_volume 2443.739000
_symmetry_space_group_name_H-M "A M A 2"
_symmetry_group_IT_number 40
_symmetry_cell_setting 'orthorhombic'
loop_
_space_group_symop_operation_xyz
x,y,z
-x,-y,z
1/2-x,y,z
1/2+x,-y,z
x,1/2+y,1/2+z
-x,1/2-y,1/2+z
1/2-x,1/2+y,1/2+z
1/2+x,1/2-y,1/2+z
loop_
_atom_site_type_symbol
_atom_site_label
_atom_site_fract_x
_atom_site_fract_y
_atom_site_fract_z
Si Si1 0.428332 0.708198 0.948810
Si Si2 0.930066 0.631997 0.643948
Si Si3 0.073205 0.695967 0.154680
Si Si4 0.928636 0.074773 0.776097
Si Si5 0.570888 0.865872 0.952732
Si Si6 0.070075 0.573951 0.820565
O O1 0.250000 0.727579 0.939295
O O2 0.524808 0.781171 0.935989
O O3 0.466118 0.644332 0.880597
O O4 0.448283 0.681207 0.049927
O O5 0.750000 0.622926 0.639063
O O6 0.960985 0.717878 0.664764
O O7 0.002560 0.614702 0.548785
O O8 0.000275 0.586481 0.723624
O O9 0.250000 0.684918 0.176554
O O10 0.975336 0.643327 0.215273
O O11 0.750000 0.068436 0.781443
O O12 0.997742 0.088680 0.873339
O O13 0.000000 0.000000 0.739536
O O14 0.750000 0.874174 0.953042
O O15 0.250000 0.567657 0.815124
O O16 0.000000 0.500000 0.859101
#
# Coordination Sequence:
#
# PCOD9364661 Si02
#       6
#     8   8   8   8   8   8
#     4   9  20  39  62  87 116 151 192 237 282 334
#     4  10  21  39  62  87 116 150 190 236 284 337
#     4   9  19  38  62  88 116 147 187 236 286 336
#     4  12  25  40  58  83 117 154 192 235 286 342
#     4  11  22  38  62  89 115 147 190 237 286 340
#     4  11  23  38  57  84 118 155 194 235 284 339
#
# _framework density 19.642030999999999
#
# number of rings (size 3 to 8) (size 9 to 14) (size 15 to 20)
#    0.000    1.667    0.000    6.000    0.000    8.667 
#    0.000    5.000    0.000    0.000    0.000    0.000 
#    0.000    0.000    0.000    0.000    0.000    0.000 
#
# Total GULP energy -134221.681005 kJ/mol
# GULP energy per Si atom -5592.570042 kJ/mol
# Density = 1.959732 g / cm^3
# Si number density = 19.642031 Si / 1000 Ang^3
#
#
#
# Elastic Constant Matrix: (Units=GPa)
#
#
# Indices 1 2 3 4 5 6 
#
# 1 90.2421 28.5094 25.5174 0.0000 0.0000 0.0000
# 2 28.5094 28.5538 24.7369 0.0000 0.0000 0.0000
# 3 25.5174 24.7369 45.7066 0.0000 0.0000 0.0000
# 4 0.0000 0.0000 0.0000 -10.4630 0.0000 0.0000
# 5 0.0000 0.0000 0.0000 0.0000 31.2605 0.0000
# 6 0.0000 0.0000 0.0000 0.0000 0.0000 24.5295
#
#
#
# Elastic Compliance Matrix: (Units=1/GPa)
#
#
# Indices 1 2 3 4 5 6 
#
# 1 0.016195 -0.015696 -0.000546 0.000000 0.000000 0.000000
# 2 -0.015696 0.081150 -0.035157 0.000000 0.000000 0.000000
# 3 -0.000546 -0.035157 0.041211 0.000000 0.000000 0.000000
# 4 0.000000 0.000000 0.000000 -0.095575 0.000000 0.000000
# 5 0.000000 0.000000 0.000000 0.000000 0.031989 0.000000
# 6 0.000000 0.000000 0.000000 0.000000 0.000000 0.040767
#
#
# Mechanical properties :
#
#
# Convention : Reuss Voigt Hill
#
# Bulk Modulus (GPa) = 27.96592 35.78111 31.87352
# Shear Modulus (GPa) = 21.69621 14.78130 18.23876
#
# Velocity S-wave (km/s) = 3.32713 2.74621 3.05053
# Velocity P-wave (km/s) = 5.38780 5.32088 5.35444
#
# Compressibility (1/GPa) = 0.03575780
#
# Stress axis : x y z
#
# Youngs Moduli (GPa) = 61.74927 12.32279 24.26548
#
# Poissons Ratio (x) = 0.19342 0.01326
# Poissons Ratio (y) = 0.96922 0.85309
# Poissons Ratio (z) = 0.03373 0.43323
#
# Static dielectric constant tensor:
#      x y z
#    x 1.650920 0.000000 0.000000 
#    y 0.000000 1.696710 0.000000 
#    z 0.000000 0.000000 1.673240 
# 
# From -- ./inp_files/15015.got.cif
#   From: 2010.05.17/outbox.cif.g08.bks.cpg/sg40_8_cif.got.tgz:15015.got - 2010.06.03 18:35:42.
