data_PCOD9364428
_publ_section_title
;
Structure prediction by ZEFSAII (Michael W. Deem and Ramdas Pophale) SiO2 
 PCOD9364428
Probable space group: A M A 2
;
_chemical_formula_sum "Si O2"
_cell_formula_units_Z 40
_cell_length_a 11.410959
_cell_length_b 7.414189
_cell_length_c 17.885133
_cell_angle_alpha 90.000000
_cell_angle_beta 90.000000
_cell_angle_gamma 90.000000
_cell_volume 1513.136027
_symmetry_space_group_name_H-M "A M A 2"
_symmetry_group_IT_number 40
_symmetry_cell_setting 'orthorhombic'
loop_
_space_group_symop_operation_xyz
x,y,z
-x,-y,z
1/2-x,y,z
1/2+x,-y,z
x,1/2+y,1/2+z
-x,1/2-y,1/2+z
1/2-x,1/2+y,1/2+z
1/2+x,1/2-y,1/2+z
loop_
_atom_site_type_symbol
_atom_site_label
_atom_site_fract_x
_atom_site_fract_y
_atom_site_fract_z
Si Si1 0.877064 0.932003 0.563950
Si Si2 0.124234 0.483260 0.611959
Si Si3 0.376351 0.402367 0.826624
Si Si4 0.625596 0.448903 0.238978
Si Si5 0.621173 0.397747 0.452446
O O1 0.750000 0.982100 0.530142
O O2 0.875482 0.714589 0.573447
O O3 0.876164 0.993653 0.651144
O O4 0.000000 0.000000 0.530441
O O5 0.250000 0.513616 0.649338
O O6 0.119594 0.623055 0.542322
O O7 0.000000 0.500000 0.652500
O O8 0.500000 0.500000 0.824675
O O9 0.250000 0.502604 0.828163
O O10 0.370647 0.263121 0.756831
O O11 0.378644 0.275584 0.900032
O O12 0.500000 0.500000 0.271042
O O13 0.750000 0.522811 0.268437
O O14 0.500000 0.500000 0.436079
O O15 0.750000 0.487048 0.438598
#
# Coordination Sequence:
#
# PCOD9364428 Si02
#       5
#     8   8   8   8   8
#     4   9  18  33  53  78 107 137 171 213 259 309
#     4   9  18  33  52  73  99 134 174 213 255 304
#     4  10  21  35  52  77 107 137 173 217 261 309
#     4   9  18  33  53  78 107 138 172 210 257 313
#     4   9  18  34  54  74  98 132 173 213 256 307
#
# _framework density 26.435162999999999
#
# number of rings (size 3 to 8) (size 9 to 14) (size 15 to 20)
#    0.000    2.800    0.000    0.600    0.000    3.200 
#    0.000    4.000    0.000   21.600    0.000    0.000 
#    0.000    0.000    0.000    0.000    0.000    0.000 
#
# Total GULP energy -111594.673761 kJ/mol
# GULP energy per Si atom -5579.733688 kJ/mol
# Density = 2.637500 g / cm^3
# Si number density = 26.435163 Si / 1000 Ang^3
#
#
#
# Elastic Constant Matrix: (Units=GPa)
#
#
# Indices 1 2 3 4 5 6 
#
# 1 423.6287 68.3052 21.5999 0.0000 0.0000 0.0000
# 2 68.3052 40.7628 1.3053 0.0000 0.0000 0.0000
# 3 21.5999 1.3053 94.0584 0.0000 0.0000 0.0000
# 4 0.0000 0.0000 0.0000 34.5609 0.0000 0.0000
# 5 0.0000 0.0000 0.0000 0.0000 -56.5302 0.0000
# 6 0.0000 0.0000 0.0000 0.0000 0.0000 51.3606
#
#
#
# Elastic Compliance Matrix: (Units=1/GPa)
#
#
# Indices 1 2 3 4 5 6 
#
# 1 0.003277 -0.005469 -0.000677 0.000000 0.000000 0.000000
# 2 -0.005469 0.033672 0.000789 0.000000 0.000000 0.000000
# 3 -0.000677 0.000789 0.010776 0.000000 0.000000 0.000000
# 4 0.000000 0.000000 0.000000 0.028934 0.000000 0.000000
# 5 0.000000 0.000000 0.000000 0.000000 -0.017690 0.000000
# 6 0.000000 0.000000 0.000000 0.000000 0.000000 0.019470
#
#
# Mechanical properties :
#
#
# Convention : Reuss Voigt Hill
#
# Bulk Modulus (GPa) = 27.01948 82.31898 54.66923
# Shear Modulus (GPa) = 49.26526 37.02755 43.14641
#
# Velocity S-wave (km/s) = 4.32166 3.74664 4.04438
# Velocity P-wave (km/s) = 5.92837 7.06569 6.52187
#
# Compressibility (1/GPa) = 0.03701034
#
# Stress axis : x y z
#
# Youngs Moduli (GPa) = 305.16293 29.69834 92.79765
#
# Poissons Ratio (x) = 0.16243 0.06279
# Poissons Ratio (y) = 1.66906 -0.07319
# Poissons Ratio (z) = 0.20648 -0.02342
#
# Static dielectric constant tensor:
#      x y z
#    x 2.109030 0.000000 0.000000 
#    y 0.000000 2.095630 0.000000 
#    z 0.000000 0.000000 2.035700 
# 
# From -- ./inp_files/22719.got.cif
#   From: 2010.05.17/outbox.cif.g08.bks.cpg/sg40_12_cif.got.tgz:22719.got - 2010.06.03 18:35:42.
