data_PCOD9364029
_publ_section_title
;
Structure prediction by ZEFSAII (Michael W. Deem and Ramdas Pophale) SiO2 
 PCOD9364029
Probable space group: A M A 2
;
_chemical_formula_sum "Si O2"
_cell_formula_units_Z 60
_cell_length_a 19.368615
_cell_length_b 5.170000
_cell_length_c 30.455141
_cell_angle_alpha 90.000000
_cell_angle_beta 90.000000
_cell_angle_gamma 90.000000
_cell_volume 3049.648067
_symmetry_space_group_name_H-M "A M A 2"
_symmetry_group_IT_number 40
_symmetry_cell_setting 'orthorhombic'
loop_
_space_group_symop_operation_xyz
x,y,z
-x,-y,z
1/2-x,y,z
1/2+x,-y,z
x,1/2+y,1/2+z
-x,1/2-y,1/2+z
1/2-x,1/2+y,1/2+z
1/2+x,1/2-y,1/2+z
loop_
_atom_site_type_symbol
_atom_site_label
_atom_site_fract_x
_atom_site_fract_y
_atom_site_fract_z
Si Si1 0.074121 0.874814 0.654570
Si Si2 0.916937 0.995745 0.933663
Si Si3 0.878587 0.081143 0.032872
Si Si4 0.827424 0.054931 0.579121
Si Si5 0.830083 0.681759 0.238357
Si Si6 0.583016 0.497894 0.879705
Si Si7 0.670204 0.687747 0.797051
Si Si8 0.000000 0.000000 0.090075
O O1 0.125501 0.020175 0.621080
O O2 0.117571 0.821728 0.697877
O O3 0.051476 0.637849 0.623714
O O4 0.000000 0.000000 0.665144
O O5 0.897775 0.214297 0.897760
O O6 0.899315 0.710807 0.916626
O O7 0.886269 0.057558 0.981003
O O8 0.000000 0.000000 0.938106
O O9 0.828826 0.310111 0.047159
O O10 0.855924 0.805076 0.052993
O O11 0.951934 0.156603 0.056112
O O12 0.750000 0.113781 0.594179
O O13 0.750000 0.631246 0.224991
O O14 0.848664 0.458475 0.273737
O O15 0.832455 0.961241 0.260904
O O16 0.500000 0.500000 0.872757
O O17 0.621579 0.593924 0.836278
O O18 0.750000 0.709896 0.812303
#
# Coordination Sequence:
#
# PCOD9364029 Si02
#       8
#     8   8   8   8   8   8   8   4
#     4  11  23  39  61  92 122 155 206 253 299 357
#     4  10  20  36  60  91 119 156 195 251 306 360
#     4  11  21  39  63  86 124 161 208 245 299 367
#     4  11  24  40  59  85 124 167 202 251 301 359
#     4  10  23  40  63  87 120 161 201 244 301 365
#     4  10  21  37  61  90 120 149 199 249 305 358
#     4  10  22  42  62  86 118 162 200 240 304 369
#     4  10  22  38  60  94 122 158 206 248 304 348
#
# _framework density 19.674401
#
# number of rings (size 3 to 8) (size 9 to 14) (size 15 to 20)
#    0.000    1.600    2.000    2.400    1.867    1.067 
#    0.000    6.667    0.000    0.000    0.000    0.000 
#    0.000    0.000    0.000    0.000    0.000    0.000 
#
# Total GULP energy -167337.226560 kJ/mol
# GULP energy per Si atom -5577.907552 kJ/mol
# Density = 1.962962 g / cm^3
# Si number density = 19.674401 Si / 1000 Ang^3
#
#
#
# Elastic Constant Matrix: (Units=GPa)
#
#
# Indices 1 2 3 4 5 6 
#
# 1 66.8278 -2.1853 43.8381 0.0000 0.0000 0.0000
# 2 -2.1853 52.6150 -16.7104 0.0000 0.0000 0.0000
# 3 43.8381 -16.7104 68.6830 0.0000 0.0000 0.0000
# 4 0.0000 0.0000 0.0000 24.2146 0.0000 0.0000
# 5 0.0000 0.0000 0.0000 0.0000 298.7836 0.0000
# 6 0.0000 0.0000 0.0000 0.0000 0.0000 28.2765
#
#
#
# Elastic Compliance Matrix: (Units=1/GPa)
#
#
# Indices 1 2 3 4 5 6 
#
# 1 0.026762 -0.004675 -0.018219 0.000000 0.000000 0.000000
# 2 -0.004675 0.021414 0.008194 0.000000 0.000000 0.000000
# 3 -0.018219 0.008194 0.028182 0.000000 0.000000 0.000000
# 4 0.000000 0.000000 0.000000 0.041297 0.000000 0.000000
# 5 0.000000 0.000000 0.000000 0.000000 0.003347 0.000000
# 6 0.000000 0.000000 0.000000 0.000000 0.000000 0.035365
#
#
# Mechanical properties :
#
#
# Convention : Reuss Voigt Hill
#
# Bulk Modulus (GPa) = 21.29547 26.44565 23.87056
# Shear Modulus (GPa) = 24.82374 81.13382 52.97878
#
# Velocity S-wave (km/s) = 3.55593 6.42867 5.19483
# Velocity P-wave (km/s) = 5.26374 8.28098 6.93836
#
# Compressibility (1/GPa) = 0.04695835
#
# Stress axis : x y z
#
# Youngs Moduli (GPa) = 37.36599 46.69813 35.48406
#
# Poissons Ratio (x) = 0.21830 0.64648
# Poissons Ratio (y) = 0.17468 -0.29075
# Poissons Ratio (z) = 0.68077 -0.38263
#
# Static dielectric constant tensor:
#      x y z
#    x 1.638140 0.000000 0.000000 
#    y 0.000000 1.715870 0.000000 
#    z 0.000000 0.000000 1.657280 
# 
# From -- ./inp_files/25806.got.cif
#   From: 2010.05.17/outbox.cif.g08.bks.cpg/sg40_13_cif.got.tgz:25806.got - 2010.06.03 18:35:42.
