data_PCOD9364333
_publ_section_title
;
Structure prediction by ZEFSAII (Michael W. Deem and Ramdas Pophale) SiO2 
 PCOD9364333
Probable space group: A M A 2
;
_chemical_formula_sum "Si O2"
_cell_formula_units_Z 48
_cell_length_a 15.480129
_cell_length_b 21.692222
_cell_length_c 7.734807
_cell_angle_alpha 90.000000
_cell_angle_beta 90.000000
_cell_angle_gamma 90.000000
_cell_volume 2597.335775
_symmetry_space_group_name_H-M "A M A 2"
_symmetry_group_IT_number 40
_symmetry_cell_setting 'orthorhombic'
loop_
_space_group_symop_operation_xyz
x,y,z
-x,-y,z
1/2-x,y,z
1/2+x,-y,z
x,1/2+y,1/2+z
-x,1/2-y,1/2+z
1/2-x,1/2+y,1/2+z
1/2+x,1/2-y,1/2+z
loop_
_atom_site_type_symbol
_atom_site_label
_atom_site_fract_x
_atom_site_fract_y
_atom_site_fract_z
Si Si1 0.847402 0.603376 0.925410
Si Si2 0.482417 0.670130 0.441601
Si Si3 0.103910 0.493668 0.218175
Si Si4 0.071324 0.949532 0.093481
Si Si5 0.848293 0.365734 0.179186
Si Si6 0.485504 0.307633 0.063484
O O1 0.750000 0.627192 0.927176
O O2 0.866036 0.566028 0.750197
O O3 0.862111 0.557099 0.085823
O O4 0.917508 0.657647 0.943803
O O5 0.519780 0.612631 0.543668
O O6 0.387212 0.655797 0.364728
O O7 0.536560 0.677009 0.263087
O O8 0.485673 0.734843 0.537334
O O9 0.116187 0.473893 0.417727
O O10 0.142986 0.560442 0.178134
O O11 0.000000 0.500000 0.197297
O O12 0.000000 0.000000 0.146539
O O13 0.750000 0.346990 0.151747
O O14 0.917898 0.336055 0.047014
#
# Coordination Sequence:
#
# PCOD9364333 Si02
#       6
#     8   8   8   8   8   8
#     4  12  25  38  63  96 127 167 211 257 312 385
#     4  10  20  40  65  87 124 170 202 259 319 369
#     4  11  18  44  67  89 126 170 204 266 326 372
#     4  11  21  40  65  90 121 167 208 258 320 372
#     4  10  21  38  67  93 122 169 215 261 318 376
#     4  10  21  41  61  87 130 165 206 259 319 367
#
# _framework density 18.480477
#
# number of rings (size 3 to 8) (size 9 to 14) (size 15 to 20)
#    1.000    0.333    6.667    2.000    0.000    2.000 
#    0.000    0.833    0.000    3.000    0.000    0.000 
#    0.000    0.000    0.000    0.000    0.000    0.000 
#
# Total GULP energy -133824.692972 kJ/mol
# GULP energy per Si atom -5576.028874 kJ/mol
# Density = 1.843841 g / cm^3
# Si number density = 18.480477 Si / 1000 Ang^3
#
#
#
# Elastic Constant Matrix: (Units=GPa)
#
#
# Indices 1 2 3 4 5 6 
#
# 1 102.1856 30.7015 29.3226 0.0000 0.0000 0.0000
# 2 30.7015 119.3173 5.9536 0.0000 0.0000 0.0000
# 3 29.3226 5.9536 39.0791 0.0000 0.0000 0.0000
# 4 0.0000 0.0000 0.0000 22.4783 0.0000 0.0000
# 5 0.0000 0.0000 0.0000 0.0000 -5.8635 0.0000
# 6 0.0000 0.0000 0.0000 0.0000 0.0000 5.0976
#
#
#
# Elastic Compliance Matrix: (Units=1/GPa)
#
#
# Indices 1 2 3 4 5 6 
#
# 1 0.013446 -0.002979 -0.009635 0.000000 0.000000 0.000000
# 2 -0.002979 0.009105 0.000848 0.000000 0.000000 0.000000
# 3 -0.009635 0.000848 0.032690 0.000000 0.000000 0.000000
# 4 0.000000 0.000000 0.000000 0.044487 0.000000 0.000000
# 5 0.000000 0.000000 0.000000 0.000000 -0.170547 0.000000
# 6 0.000000 0.000000 0.000000 0.000000 0.000000 0.196171
#
#
# Mechanical properties :
#
#
# Convention : Reuss Voigt Hill
#
# Bulk Modulus (GPa) = 31.53720 43.61527 37.57624
# Shear Modulus (GPa) = 31.35704 17.31611 24.33657
#
# Velocity S-wave (km/s) = 4.12365 3.06436 3.63282
# Velocity P-wave (km/s) = 6.30673 6.01435 6.16227
#
# Compressibility (1/GPa) = 0.03170858
#
# Stress axis : x y z
#
# Youngs Moduli (GPa) = 74.37139 109.82700 30.59075
#
# Poissons Ratio (x) = 0.32718 0.29475
# Poissons Ratio (y) = 0.22155 -0.02594
# Poissons Ratio (z) = 0.71659 -0.09315
#
# Static dielectric constant tensor:
#      x y z
#    x 1.635420 0.000000 0.000000 
#    y 0.000000 1.626170 0.000000 
#    z 0.000000 0.000000 1.658600 
# 
# From -- ./inp_files/6601.got.cif
#   From: 2010.05.17/outbox.cif.g08.bks.cpg/sg40_4_cif.got.tgz:6601.got - 2010.06.03 18:35:42.
