data_PCOD9364947
_publ_section_title
;
Structure prediction by ZEFSAII (Michael W. Deem and Ramdas Pophale) SiO2 
 PCOD9364947
Probable space group: A M A 2
;
_chemical_formula_sum "Si O2"
_cell_formula_units_Z 48
_cell_length_a 18.547512
_cell_length_b 11.665770
_cell_length_c 9.884045
_cell_angle_alpha 90.000000
_cell_angle_beta 90.000000
_cell_angle_gamma 90.000000
_cell_volume 2138.620790
_symmetry_space_group_name_H-M "A M A 2"
_symmetry_group_IT_number 40
_symmetry_cell_setting 'orthorhombic'
loop_
_space_group_symop_operation_xyz
x,y,z
-x,-y,z
1/2-x,y,z
1/2+x,-y,z
x,1/2+y,1/2+z
-x,1/2-y,1/2+z
1/2-x,1/2+y,1/2+z
1/2+x,1/2-y,1/2+z
loop_
_atom_site_type_symbol
_atom_site_label
_atom_site_fract_x
_atom_site_fract_y
_atom_site_fract_z
Si Si1 0.578908 0.735609 0.478990
Si Si2 0.910970 0.745455 0.006603
Si Si3 0.669270 0.551573 0.139651
Si Si4 0.665370 0.310491 0.242736
Si Si5 0.168462 0.574458 0.848015
Si Si6 0.417471 0.998820 0.109190
O O1 0.494871 0.767657 0.467830
O O2 0.612217 0.772458 0.623479
O O3 0.622744 0.809384 0.370090
O O4 0.587306 0.598299 0.493541
O O5 0.858463 0.745950 0.877605
O O6 0.887987 0.651500 0.116816
O O7 0.902598 0.874333 0.057874
O O8 0.750000 0.598362 0.162203
O O9 0.656583 0.449312 0.246460
O O10 0.669009 0.486358 0.994316
O O11 0.750000 0.289537 0.210895
O O12 0.250000 0.602773 0.809991
O O13 0.134661 0.489789 0.737392
O O14 0.500000 0.000000 0.158832
#
# Coordination Sequence:
#
# PCOD9364947 Si02
#       6
#     8   8   8   8   8   8
#     4  10  23  41  63  93 129 163 216 267 319 385
#     4  11  23  38  63  94 124 171 213 262 323 387
#     4   9  20  39  61  92 124 160 214 264 315 386
#     4  10  22  42  65  91 128 170 213 268 328 383
#     4  10  22  39  66  92 120 166 213 259 319 384
#     4  10  24  41  57  90 132 165 207 264 320 382
#
# _framework density 22.444371
#
# number of rings (size 3 to 8) (size 9 to 14) (size 15 to 20)
#    0.000    2.000    0.000    3.000    7.000    7.333 
#    6.000    1.667    0.000    0.000    0.000    0.000 
#    0.000    0.000    0.000    0.000    0.000    0.000 
#
# Total GULP energy -134040.535957 kJ/mol
# GULP energy per Si atom -5585.022332 kJ/mol
# Density = 2.239329 g / cm^3
# Si number density = 22.444371 Si / 1000 Ang^3
#
#
#
# Elastic Constant Matrix: (Units=GPa)
#
#
# Indices 1 2 3 4 5 6 
#
# 1 79.3811 60.9273 11.6025 0.0000 0.0000 0.0000
# 2 60.9273 108.0119 -0.5367 0.0000 0.0000 0.0000
# 3 11.6025 -0.5367 26.7001 0.0000 0.0000 0.0000
# 4 0.0000 0.0000 0.0000 55.8724 0.0000 0.0000
# 5 0.0000 0.0000 0.0000 0.0000 19.8547 0.0000
# 6 0.0000 0.0000 0.0000 0.0000 0.0000 37.5069
#
#
#
# Elastic Compliance Matrix: (Units=1/GPa)
#
#
# Indices 1 2 3 4 5 6 
#
# 1 0.025186 -0.014263 -0.011231 0.000000 0.000000 0.000000
# 2 -0.014263 0.017336 0.006546 0.000000 0.000000 0.000000
# 3 -0.011231 0.006546 0.042465 0.000000 0.000000 0.000000
# 4 0.000000 0.000000 0.000000 0.017898 0.000000 0.000000
# 5 0.000000 0.000000 0.000000 0.000000 0.050366 0.000000
# 6 0.000000 0.000000 0.000000 0.000000 0.000000 0.026662
#
#
# Mechanical properties :
#
#
# Convention : Reuss Voigt Hill
#
# Bulk Modulus (GPa) = 21.23508 39.78660 30.51084
# Shear Modulus (GPa) = 21.41275 32.12015 26.76645
#
# Velocity S-wave (km/s) = 3.09210 3.78709 3.45710
# Velocity P-wave (km/s) = 4.71485 6.07355 5.43681
#
# Compressibility (1/GPa) = 0.04709189
#
# Stress axis : x y z
#
# Youngs Moduli (GPa) = 39.70432 57.68301 23.54874
#
# Poissons Ratio (x) = 0.82272 0.26448
# Poissons Ratio (y) = 0.56630 -0.15416
# Poissons Ratio (z) = 0.44593 -0.37761
#
# Static dielectric constant tensor:
#      x y z
#    x 1.788420 0.000000 0.000000 
#    y 0.000000 1.876670 0.000000 
#    z 0.000000 0.000000 1.860550 
# 
# From -- ./inp_files/12915.got.cif
#   From: 2010.05.17/outbox.cif.g08.bks.cpg/sg40_7_cif.got.tgz:12915.got - 2010.06.03 18:35:42.
