data_PCOD9364005
_publ_section_title
;
Structure prediction by ZEFSAII (Michael W. Deem and Ramdas Pophale) SiO2 
 PCOD9364005
Probable space group: A M A 2
;
_chemical_formula_sum "Si O2"
_cell_formula_units_Z 48
_cell_length_a 8.734378
_cell_length_b 31.612439
_cell_length_c 9.285102
_cell_angle_alpha 90.000000
_cell_angle_beta 90.000000
_cell_angle_gamma 90.000000
_cell_volume 2563.755862
_symmetry_space_group_name_H-M "A M A 2"
_symmetry_group_IT_number 40
_symmetry_cell_setting 'orthorhombic'
loop_
_space_group_symop_operation_xyz
x,y,z
-x,-y,z
1/2-x,y,z
1/2+x,-y,z
x,1/2+y,1/2+z
-x,1/2-y,1/2+z
1/2-x,1/2+y,1/2+z
1/2+x,1/2-y,1/2+z
loop_
_atom_site_type_symbol
_atom_site_label
_atom_site_fract_x
_atom_site_fract_y
_atom_site_fract_z
Si Si1 0.065119 0.210865 0.879310
Si Si2 0.066327 0.708310 0.044495
Si Si3 0.433225 0.371661 0.875980
Si Si4 0.434601 0.127164 0.056528
Si Si5 0.566257 0.045013 0.553025
Si Si6 0.434062 0.545150 0.372896
O O1 0.250000 0.214377 0.884437
O O2 0.018881 0.209963 0.711995
O O3 0.021466 0.167443 0.959260
O O4 0.994081 0.250632 0.961142
O O5 0.250000 0.707445 0.039095
O O6 0.002379 0.666593 0.968024
O O7 0.250000 0.368147 0.877055
O O8 0.493025 0.369708 0.713473
O O9 0.475655 0.416285 0.949561
O O10 0.250000 0.127554 0.070211
O O11 0.478006 0.083783 0.976148
O O12 0.750000 0.042196 0.562678
O O13 0.498955 0.052665 0.712514
O O14 0.500000 0.000000 0.502700
O O15 0.500000 0.500000 0.422288
O O16 0.250000 0.542855 0.365215
#
# Coordination Sequence:
#
# PCOD9364005 Si02
#       6
#     8   8   8   8   8   8
#     4  10  22  40  60  85 115 147 188 233 278 332
#     4  11  23  39  61  86 114 149 186 229 281 335
#     4  11  24  39  57  84 116 149 189 235 281 334
#     4  10  22  39  59  83 114 152 191 232 280 335
#     4  10  21  37  58  84 113 148 190 235 283 335
#     4  10  20  36  59  86 115 149 190 234 282 337
#
# _framework density 18.722532000000001
#
# number of rings (size 3 to 8) (size 9 to 14) (size 15 to 20)
#    0.000    1.667    0.000    5.000    0.000   10.667 
#    0.000    3.333    0.000    0.000    0.000    0.000 
#    0.000    0.000    0.000    0.000    0.000    0.000 
#
# Total GULP energy -134168.412341 kJ/mol
# GULP energy per Si atom -5590.350514 kJ/mol
# Density = 1.867992 g / cm^3
# Si number density = 18.722532 Si / 1000 Ang^3
#
#
#
# Elastic Constant Matrix: (Units=GPa)
#
#
# Indices 1 2 3 4 5 6 
#
# 1 42.5409 61.3299 54.9605 0.0000 0.0000 0.0000
# 2 61.3299 202.4392 138.7620 0.0000 0.0000 0.0000
# 3 54.9605 138.7620 182.3760 0.0000 0.0000 0.0000
# 4 0.0000 0.0000 0.0000 41.0810 0.0000 0.0000
# 5 0.0000 0.0000 0.0000 0.0000 22.5197 0.0000
# 6 0.0000 0.0000 0.0000 0.0000 0.0000 15.8581
#
#
#
# Elastic Compliance Matrix: (Units=1/GPa)
#
#
# Indices 1 2 3 4 5 6 
#
# 1 0.045357 -0.009137 -0.006717 0.000000 0.000000 0.000000
# 2 -0.009137 0.012165 -0.006502 0.000000 0.000000 0.000000
# 3 -0.006717 -0.006502 0.012454 0.000000 0.000000 0.000000
# 4 0.000000 0.000000 0.000000 0.024342 0.000000 0.000000
# 5 0.000000 0.000000 0.000000 0.000000 0.044406 0.000000
# 6 0.000000 0.000000 0.000000 0.000000 0.000000 0.063059
#
#
# Mechanical properties :
#
#
# Convention : Reuss Voigt Hill
#
# Bulk Modulus (GPa) = 39.58127 104.16231 71.87179
# Shear Modulus (GPa) = 19.61427 27.37868 23.49647
#
# Velocity S-wave (km/s) = 3.24022 3.82820 3.54642
# Velocity P-wave (km/s) = 5.93174 8.67731 7.43240
#
# Compressibility (1/GPa) = 0.02526447
#
# Stress axis : x y z
#
# Youngs Moduli (GPa) = 22.04728 82.20461 80.29281
#
# Poissons Ratio (x) = 0.75112 0.53929
# Poissons Ratio (y) = 0.20145 0.52207
# Poissons Ratio (z) = 0.14808 0.53450
#
# Static dielectric constant tensor:
#      x y z
#    x 1.632980 0.000000 0.000000 
#    y 0.000000 1.627190 0.000000 
#    z 0.000000 0.000000 1.612480 
# 
# From -- ./inp_files/4565.got.cif
#   From: 2010.05.17/outbox.cif.g08.bks.cpg/sg40_3_cif.got.tgz:4565.got - 2010.06.03 18:35:42.
