data_PCOD9364673
_publ_section_title
;
Structure prediction by ZEFSAII (Michael W. Deem and Ramdas Pophale) SiO2 
 PCOD9364673
Probable space group: A M A 2
;
_chemical_formula_sum "Si O2"
_cell_formula_units_Z 40
_cell_length_a 10.384338
_cell_length_b 22.376884
_cell_length_c 7.654791
_cell_angle_alpha 90.000000
_cell_angle_beta 90.000000
_cell_angle_gamma 90.000000
_cell_volume 1778.737101
_symmetry_space_group_name_H-M "A M A 2"
_symmetry_group_IT_number 40
_symmetry_cell_setting 'orthorhombic'
loop_
_space_group_symop_operation_xyz
x,y,z
-x,-y,z
1/2-x,y,z
1/2+x,-y,z
x,1/2+y,1/2+z
-x,1/2-y,1/2+z
1/2-x,1/2+y,1/2+z
1/2+x,1/2-y,1/2+z
loop_
_atom_site_type_symbol
_atom_site_label
_atom_site_fract_x
_atom_site_fract_y
_atom_site_fract_z
Si Si1 0.468556 0.067462 0.834570
Si Si2 0.886787 0.954671 0.450126
Si Si3 0.102258 0.258473 0.571524
Si Si4 0.393595 0.645819 0.663585
Si Si5 0.390003 0.323740 0.201392
O O1 0.390577 0.060566 0.654908
O O2 0.587330 0.108983 0.770598
O O3 0.500000 0.000000 0.892796
O O4 0.404689 0.104592 0.990381
O O5 0.750000 0.983525 0.407076
O O6 0.899585 0.896864 0.330118
O O7 0.000000 0.000000 0.413098
O O8 0.250000 0.250877 0.635471
O O9 0.110868 0.281926 0.373545
O O10 0.014492 0.309784 0.660274
O O11 0.013515 0.199959 0.595083
O O12 0.250000 0.674462 0.660571
O O13 0.250000 0.319542 0.113100
#
# Coordination Sequence:
#
# PCOD9364673 Si02
#       5
#     8   8   8   8   8
#     4  10  22  40  64  94 127 164 208 259 316 375
#     4  10  22  38  59  90 124 163 210 257 311 377
#     4  10  23  41  62  91 124 163 209 260 317 377
#     4  10  21  39  63  90 124 166 208 259 316 373
#     4  10  23  42  64  93 127 164 209 261 316 378
#
# _framework density 22.487863999999998
#
# number of rings (size 3 to 8) (size 9 to 14) (size 15 to 20)
#    0.000    2.000    0.000    1.800    2.800    9.600 
#    0.000    4.000    0.000    0.000    0.000    0.000 
#    0.000    0.000    0.000    0.000    0.000    0.000 
#
# Total GULP energy -111678.417960 kJ/mol
# GULP energy per Si atom -5583.920898 kJ/mol
# Density = 2.243668 g / cm^3
# Si number density = 22.487864 Si / 1000 Ang^3
#
#
#
# Elastic Constant Matrix: (Units=GPa)
#
#
# Indices 1 2 3 4 5 6 
#
# 1 223.5407 76.6541 30.4204 0.0000 0.0000 0.0000
# 2 76.6541 112.0255 15.0151 0.0000 0.0000 0.0000
# 3 30.4204 15.0151 48.4490 0.0000 0.0000 0.0000
# 4 0.0000 0.0000 0.0000 32.4754 0.0000 0.0000
# 5 0.0000 0.0000 0.0000 0.0000 9.0060 0.0000
# 6 0.0000 0.0000 0.0000 0.0000 0.0000 12.5583
#
#
#
# Elastic Compliance Matrix: (Units=1/GPa)
#
#
# Indices 1 2 3 4 5 6 
#
# 1 0.006160 -0.003857 -0.002672 0.000000 0.000000 0.000000
# 2 -0.003857 0.011728 -0.001213 0.000000 0.000000 0.000000
# 3 -0.002672 -0.001213 0.022694 0.000000 0.000000 0.000000
# 4 0.000000 0.000000 0.000000 0.030793 0.000000 0.000000
# 5 0.000000 0.000000 0.000000 0.000000 0.111037 0.000000
# 6 0.000000 0.000000 0.000000 0.000000 0.000000 0.079629
#
#
# Mechanical properties :
#
#
# Convention : Reuss Voigt Hill
#
# Bulk Modulus (GPa) = 39.84442 69.79939 54.82190
# Shear Modulus (GPa) = 17.48926 28.26964 22.87945
#
# Velocity S-wave (km/s) = 2.79179 3.54942 3.19315
# Velocity P-wave (km/s) = 5.30554 6.92126 6.16655
#
# Compressibility (1/GPa) = 0.02509762
#
# Stress axis : x y z
#
# Youngs Moduli (GPa) = 162.34919 85.26591 44.06417
#
# Poissons Ratio (x) = 0.32883 0.11775
# Poissons Ratio (y) = 0.62611 0.05346
# Poissons Ratio (z) = 0.43385 0.10345
#
# Static dielectric constant tensor:
#      x y z
#    x 1.823380 0.000000 0.000000 
#    y 0.000000 1.855550 0.000000 
#    z 0.000000 0.000000 1.820440 
# 
# From -- ./inp_files/4248.got.cif
#   From: 2010.05.17/outbox.cif.g08.bks.cpg/sg40_3_cif.got.tgz:4248.got - 2010.06.03 18:35:42.
