data_PCOD9364320
_publ_section_title
;
Structure prediction by ZEFSAII (Michael W. Deem and Ramdas Pophale) SiO2 
 PCOD9364320
Probable space group: A M A 2
;
_chemical_formula_sum "Si O2"
_cell_formula_units_Z 36
_cell_length_a 16.236362
_cell_length_b 13.979798
_cell_length_c 7.787177
_cell_angle_alpha 90.000000
_cell_angle_beta 90.000000
_cell_angle_gamma 90.000000
_cell_volume 1767.541698
_symmetry_space_group_name_H-M "A M A 2"
_symmetry_group_IT_number 40
_symmetry_cell_setting 'orthorhombic'
loop_
_space_group_symop_operation_xyz
x,y,z
-x,-y,z
1/2-x,y,z
1/2+x,-y,z
x,1/2+y,1/2+z
-x,1/2-y,1/2+z
1/2-x,1/2+y,1/2+z
1/2+x,1/2-y,1/2+z
loop_
_atom_site_type_symbol
_atom_site_label
_atom_site_fract_x
_atom_site_fract_y
_atom_site_fract_z
Si Si1 0.500000 0.500000 0.348270
Si Si2 0.396475 0.677774 0.800857
Si Si3 0.157105 0.005400 0.086280
Si Si4 0.160429 0.280360 0.627183
Si Si5 0.998558 0.178948 0.618212
O O1 0.420320 0.523691 0.462453
O O2 0.524872 0.588043 0.228464
O O3 0.352710 0.582228 0.738769
O O4 0.430604 0.739533 0.642384
O O5 0.344365 0.747238 0.926240
O O6 0.473856 0.653294 0.925966
O O7 0.250000 0.015758 0.012910
O O8 0.149484 0.894129 0.141110
O O9 0.250000 0.254130 0.697301
O O10 0.083060 0.222690 0.698441
#
# Coordination Sequence:
#
# PCOD9364320 Si02
#       5
#     4   8   8   8   8
#     4  12  22  42  60  98 136 172 226 274 332 410
#     4  10  20  40  62  93 129 170 218 265 333 388
#     4  11  22  39  68  94 128 179 223 276 338 399
#     4   9  20  38  61  89 127 165 215 269 326 395
#     4  10  22  37  64  90 132 172 218 269 334 393
#
# _framework density 20.367270999999999
#
# number of rings (size 3 to 8) (size 9 to 14) (size 15 to 20)
#    1.333    0.444    2.222    3.333    0.000    3.556 
#    0.000    0.000    0.000    1.333    0.000    0.000 
#    0.000    0.000    0.000    0.000    0.000    0.000 
#
# Total GULP energy -100227.453053 kJ/mol
# GULP energy per Si atom -5568.191836 kJ/mol
# Density = 2.032091 g / cm^3
# Si number density = 20.367271 Si / 1000 Ang^3
#
#
#
# Elastic Constant Matrix: (Units=GPa)
#
#
# Indices 1 2 3 4 5 6 
#
# 1 65.0253 15.3920 15.8944 0.0000 0.0000 0.0000
# 2 15.3920 121.4863 25.2139 0.0000 0.0000 0.0000
# 3 15.8944 25.2139 43.7512 0.0000 0.0000 0.0000
# 4 0.0000 0.0000 0.0000 35.2982 0.0000 0.0000
# 5 0.0000 0.0000 0.0000 0.0000 3.2546 0.0000
# 6 0.0000 0.0000 0.0000 0.0000 0.0000 15.3641
#
#
#
# Elastic Compliance Matrix: (Units=1/GPa)
#
#
# Indices 1 2 3 4 5 6 
#
# 1 0.016981 -0.000989 -0.005599 0.000000 0.000000 0.000000
# 2 -0.000989 0.009407 -0.005062 0.000000 0.000000 0.000000
# 3 -0.005599 -0.005062 0.027808 0.000000 0.000000 0.000000
# 4 0.000000 0.000000 0.000000 0.028330 0.000000 0.000000
# 5 0.000000 0.000000 0.000000 0.000000 0.307253 0.000000
# 6 0.000000 0.000000 0.000000 0.000000 0.000000 0.065087
#
#
# Mechanical properties :
#
#
# Convention : Reuss Voigt Hill
#
# Bulk Modulus (GPa) = 32.36695 38.14038 35.25367
# Shear Modulus (GPa) = 10.23613 22.36756 16.30185
#
# Velocity S-wave (km/s) = 2.24426 3.31752 2.83219
# Velocity P-wave (km/s) = 4.75833 5.78287 5.29544
#
# Compressibility (1/GPa) = 0.03089571
#
# Stress axis : x y z
#
# Youngs Moduli (GPa) = 58.88792 106.30000 35.96107
#
# Poissons Ratio (x) = 0.10518 0.20134
# Poissons Ratio (y) = 0.05827 0.18204
# Poissons Ratio (z) = 0.32971 0.53809
#
# Static dielectric constant tensor:
#      x y z
#    x 1.751560 0.000000 0.000000 
#    y 0.000000 1.709220 0.000000 
#    z 0.000000 0.000000 1.730570 
# 
# From -- ./inp_files/7260.got.cif
#   From: 2010.05.17/outbox.cif.g08.bks.cpg/sg40_4_cif.got.tgz:7260.got - 2010.06.03 18:35:42.
