data_PCOD9364344
_publ_section_title
;
Structure prediction by ZEFSAII (Michael W. Deem and Ramdas Pophale) SiO2 
 PCOD9364344
Probable space group: A M A 2
;
_chemical_formula_sum "Si O2"
_cell_formula_units_Z 56
_cell_length_a 14.459402
_cell_length_b 12.143637
_cell_length_c 12.761841
_cell_angle_alpha 90.000000
_cell_angle_beta 90.000000
_cell_angle_gamma 90.000000
_cell_volume 2240.848204
_symmetry_space_group_name_H-M "A M A 2"
_symmetry_group_IT_number 40
_symmetry_cell_setting 'orthorhombic'
loop_
_space_group_symop_operation_xyz
x,y,z
-x,-y,z
1/2-x,y,z
1/2+x,-y,z
x,1/2+y,1/2+z
-x,1/2-y,1/2+z
1/2-x,1/2+y,1/2+z
1/2+x,1/2-y,1/2+z
loop_
_atom_site_type_symbol
_atom_site_label
_atom_site_fract_x
_atom_site_fract_y
_atom_site_fract_z
Si Si1 0.919866 0.265306 0.388520
Si Si2 0.900167 0.086152 0.905979
Si Si3 0.642206 0.035574 0.458187
Si Si4 0.509252 0.736387 0.663648
Si Si5 0.355433 0.922480 0.689146
Si Si6 0.852130 0.805059 0.479230
Si Si7 0.853105 0.404922 0.568147
O O1 0.920875 0.138347 0.429616
O O2 0.848601 0.316848 0.471923
O O3 0.997204 0.362991 0.401909
O O4 0.923982 0.240740 0.264570
O O5 0.872831 0.020606 0.800770
O O6 0.846131 0.200978 0.902979
O O7 0.874073 0.020538 0.010111
O O8 0.750000 0.064577 0.436722
O O9 0.631332 0.010425 0.582633
O O10 0.623869 0.914557 0.413597
O O11 0.432026 0.829153 0.682172
O O12 0.572838 0.768062 0.564841
O O13 0.441600 0.632551 0.637729
O O14 0.250000 0.882177 0.684898
O O15 0.750000 0.821682 0.525857
O O16 0.750000 0.408766 0.617589
#
# Coordination Sequence:
#
# PCOD9364344 Si02
#       7
#     8   8   8   8   8   8   8
#     4  11  24  44  71 103 141 186 245 297 360 432
#     4  11  24  43  70 105 141 185 236 296 367 432
#     4  10  22  43  71 101 140 189 241 297 362 433
#     4  11  25  42  69 106 141 184 241 299 361 434
#     4  10  20  40  68 103 138 178 234 296 358 426
#     4  11  24  44  66  97 144 189 237 304 370 427
#     4  12  24  46  77 107 146 191 241 302 366 441
#
# _framework density 24.990537
#
# number of rings (size 3 to 8) (size 9 to 14) (size 15 to 20)
#    0.000    1.143    2.857    2.571    2.000    3.429 
#    0.000    7.143    0.000    3.429    0.000    1.000 
#    0.000    0.000    0.000    0.000    0.000    0.000 
#
# Total GULP energy -156083.227504 kJ/mol
# GULP energy per Si atom -5574.400982 kJ/mol
# Density = 2.493366 g / cm^3
# Si number density = 24.990537 Si / 1000 Ang^3
#
#
#
# Elastic Constant Matrix: (Units=GPa)
#
#
# Indices 1 2 3 4 5 6 
#
# 1 120.4843 4.0328 -0.4661 0.0000 0.0000 0.0000
# 2 4.0328 98.0547 -11.9263 0.0000 0.0000 0.0000
# 3 -0.4661 -11.9263 66.0722 0.0000 0.0000 0.0000
# 4 0.0000 0.0000 0.0000 21.6780 0.0000 0.0000
# 5 0.0000 0.0000 0.0000 0.0000 18.2695 0.0000
# 6 0.0000 0.0000 0.0000 0.0000 0.0000 56.4292
#
#
#
# Elastic Compliance Matrix: (Units=1/GPa)
#
#
# Indices 1 2 3 4 5 6 
#
# 1 0.008311 -0.000342 -0.000003 0.000000 0.000000 0.000000
# 2 -0.000342 0.010441 0.001882 0.000000 0.000000 0.000000
# 3 -0.000003 0.001882 0.015475 0.000000 0.000000 0.000000
# 4 0.000000 0.000000 0.000000 0.046130 0.000000 0.000000
# 5 0.000000 0.000000 0.000000 0.000000 0.054736 0.000000
# 6 0.000000 0.000000 0.000000 0.000000 0.000000 0.017721
#
#
# Mechanical properties :
#
#
# Convention : Reuss Voigt Hill
#
# Bulk Modulus (GPa) = 26.80872 29.76577 28.28725
# Shear Modulus (GPa) = 30.83100 38.80672 34.81886
#
# Velocity S-wave (km/s) = 3.51623 3.94490 3.73672
# Velocity P-wave (km/s) = 5.21881 5.71720 5.47368
#
# Compressibility (1/GPa) = 0.03730130
#
# Stress axis : x y z
#
# Youngs Moduli (GPa) = 120.31842 95.77256 64.62158
#
# Poissons Ratio (x) = 0.03277 0.00020
# Poissons Ratio (y) = 0.04117 -0.12164
# Poissons Ratio (z) = 0.00038 -0.18027
#
# Static dielectric constant tensor:
#      x y z
#    x 2.091630 0.000000 0.000000 
#    y 0.000000 2.021370 0.000000 
#    z 0.000000 0.000000 2.032060 
# 
# From -- ./inp_files/17066.got.cif
#   From: 2010.05.17/outbox.cif.g08.bks.cpg/sg40_9_cif.got.tgz:17066.got - 2010.06.03 18:35:42.
