data_PCOD9364017
_publ_section_title
;
Structure prediction by ZEFSAII (Michael W. Deem and Ramdas Pophale) SiO2 
 PCOD9364017
Probable space group: A M A 2
;
_chemical_formula_sum "Si O2"
_cell_formula_units_Z 48
_cell_length_a 9.741716
_cell_length_b 13.097743
_cell_length_c 17.036981
_cell_angle_alpha 90.000000
_cell_angle_beta 90.000000
_cell_angle_gamma 90.000000
_cell_volume 2173.824945
_symmetry_space_group_name_H-M "A M A 2"
_symmetry_group_IT_number 40
_symmetry_cell_setting 'orthorhombic'
loop_
_space_group_symop_operation_xyz
x,y,z
-x,-y,z
1/2-x,y,z
1/2+x,-y,z
x,1/2+y,1/2+z
-x,1/2-y,1/2+z
1/2-x,1/2+y,1/2+z
1/2+x,1/2-y,1/2+z
loop_
_atom_site_type_symbol
_atom_site_label
_atom_site_fract_x
_atom_site_fract_y
_atom_site_fract_z
Si Si1 0.031894 0.617286 0.576680
Si Si2 0.898656 0.812817 0.247504
Si Si3 0.410231 0.327033 0.879975
Si Si4 0.910795 0.591896 0.182520
Si Si5 0.394172 0.590121 0.401449
Si Si6 0.410834 0.173421 0.535979
O O1 0.919144 0.704481 0.555702
O O2 0.000000 0.500000 0.592257
O O3 0.098875 0.653895 0.656993
O O4 0.111965 0.611440 0.495070
O O5 0.750000 0.836660 0.283364
O O6 0.910836 0.690464 0.238260
O O7 0.017909 0.862500 0.299605
O O8 0.250000 0.356822 0.890344
O O9 0.414375 0.203886 0.870660
O O10 0.507714 0.348846 0.954836
O O11 0.750000 0.567460 0.165980
O O12 0.000000 0.500000 0.217307
O O13 0.997322 0.621789 0.104192
O O14 0.500000 0.500000 0.391224
O O15 0.250000 0.550797 0.370233
O O16 0.250000 0.143336 0.534326
#
# Coordination Sequence:
#
# PCOD9364017 Si02
#       6
#     8   8   8   8   8   8
#     4   9  19  34  56  84 112 140 176 224 275 328
#     4  10  21  36  55  80 112 148 184 224 272 328
#     4  10  21  36  52  74 109 147 183 227 276 326
#     4  10  21  38  60  85 113 146 186 233 282 335
#     4   9  18  32  52  77 104 135 173 220 272 324
#     4  10  20  36  60  86 110 142 186 232 280 335
#
# _framework density 22.080895000000002
#
# number of rings (size 3 to 8) (size 9 to 14) (size 15 to 20)
#    0.000    2.333    0.000    2.000    0.000   15.333 
#    0.000    4.167    0.000    0.000    0.000    0.000 
#    0.000    0.000    0.000    0.000    0.000    0.000 
#
# Total GULP energy -133733.356040 kJ/mol
# GULP energy per Si atom -5572.223168 kJ/mol
# Density = 2.203064 g / cm^3
# Si number density = 22.080895 Si / 1000 Ang^3
#
#
#
# Elastic Constant Matrix: (Units=GPa)
#
#
# Indices 1 2 3 4 5 6 
#
# 1 181.6472 6.0613 65.9867 0.0000 0.0000 0.0000
# 2 6.0613 43.4271 -1.0612 0.0000 0.0000 0.0000
# 3 65.9867 -1.0612 97.9550 0.0000 0.0000 0.0000
# 4 0.0000 0.0000 0.0000 -19.8991 0.0000 0.0000
# 5 0.0000 0.0000 0.0000 0.0000 5.4475 0.0000
# 6 0.0000 0.0000 0.0000 0.0000 0.0000 5.9383
#
#
#
# Elastic Compliance Matrix: (Units=1/GPa)
#
#
# Indices 1 2 3 4 5 6 
#
# 1 0.007345 -0.001146 -0.004961 0.000000 0.000000 0.000000
# 2 -0.001146 0.023212 0.001024 0.000000 0.000000 0.000000
# 3 -0.004961 0.001024 0.013562 0.000000 0.000000 0.000000
# 4 0.000000 0.000000 0.000000 -0.050254 0.000000 0.000000
# 5 0.000000 0.000000 0.000000 0.000000 0.183572 0.000000
# 6 0.000000 0.000000 0.000000 0.000000 0.000000 0.168398
#
#
# Mechanical properties :
#
#
# Convention : Reuss Voigt Hill
#
# Bulk Modulus (GPa) = 29.45294 51.66700 40.55997
# Shear Modulus (GPa) = 13.61213 15.10018 14.35615
#
# Velocity S-wave (km/s) = 2.48557 2.61790 2.55259
# Velocity P-wave (km/s) = 4.64812 5.70856 5.20541
#
# Compressibility (1/GPa) = 0.03395247
#
# Stress axis : x y z
#
# Youngs Moduli (GPa) = 136.13816 43.08097 73.73775
#
# Poissons Ratio (x) = 0.04939 0.36579
# Poissons Ratio (y) = 0.15608 -0.07549
# Poissons Ratio (z) = 0.67533 -0.04410
#
# Static dielectric constant tensor:
#      x y z
#    x 1.802110 0.000000 0.000000 
#    y 0.000000 1.900900 0.000000 
#    z 0.000000 0.000000 1.833700 
# 
# From -- ./inp_files/19209.got.cif
#   From: 2010.05.17/outbox.cif.g08.bks.cpg/sg40_10_cif.got.tgz:19209.got - 2010.06.03 18:35:42.
