data_PCOD9364528
_publ_section_title
;
Structure prediction by ZEFSAII (Michael W. Deem and Ramdas Pophale) SiO2 
 PCOD9364528
Probable space group: A M A 2
;
_chemical_formula_sum "Si O2"
_cell_formula_units_Z 40
_cell_length_a 8.822890
_cell_length_b 26.910210
_cell_length_c 8.797070
_cell_angle_alpha 90.000000
_cell_angle_beta 90.000000
_cell_angle_gamma 90.000000
_cell_volume 2088.651582
_symmetry_space_group_name_H-M "A M A 2"
_symmetry_group_IT_number 40
_symmetry_cell_setting 'orthorhombic'
loop_
_space_group_symop_operation_xyz
x,y,z
-x,-y,z
1/2-x,y,z
1/2+x,-y,z
x,1/2+y,1/2+z
-x,1/2-y,1/2+z
1/2-x,1/2+y,1/2+z
1/2+x,1/2-y,1/2+z
loop_
_atom_site_type_symbol
_atom_site_label
_atom_site_fract_x
_atom_site_fract_y
_atom_site_fract_z
Si Si1 0.250000 0.324107 0.455190
Si Si2 0.250000 0.753647 0.229247
Si Si3 0.750000 0.163289 0.468374
Si Si4 0.000000 0.000000 0.513004
Si Si5 0.500190 0.827953 0.723374
Si Si6 0.580972 0.939049 0.801133
Si Si7 0.250000 0.443020 0.461157
Si Si8 0.750000 0.556596 0.819355
O O1 0.250000 0.298942 0.614715
O O2 0.394412 0.309084 0.358744
O O3 0.250000 0.383276 0.460143
O O4 0.250000 0.782566 0.389529
O O5 0.388107 0.717024 0.196475
O O6 0.604684 0.159626 0.578947
O O7 0.750000 0.115688 0.355883
O O8 0.078807 0.037194 0.633052
O O9 0.891380 0.031787 0.405722
O O10 0.573083 0.879562 0.779795
O O11 0.750000 0.951020 0.871237
O O12 0.416139 0.954103 0.879951
O O13 0.250000 0.456396 0.639973
#
# Coordination Sequence:
#
# PCOD9364528 Si02
#       8
#     4   4   4   4   8   8   4   4
#     4   9  20  37  57  84 121 166 204 249 321 398
#     4  12  20  35  61  91 123 166 216 266 329 394
#     4  11  22  39  64  87 133 177 209 275 351 392
#     4  12  24  42  74  94 126 174 234 270 340 414
#     4  10  21  37  60  91 122 164 218 267 317 397
#     4  11  22  43  70  97 126 176 228 276 325 415
#     4  10  24  44  67  92 137 173 213 273 355 395
#     4  12  24  45  65 100 136 174 218 291 352 403
#
# _framework density 19.151109999999999
#
# number of rings (size 3 to 8) (size 9 to 14) (size 15 to 20)
#    0.000    1.200    5.000    2.400    0.000    0.800 
#    1.800    0.000    0.000    0.000    0.000    0.000 
#    0.000    0.000    0.000    0.000    0.000    0.000 
#
# Total GULP energy -111431.038812 kJ/mol
# GULP energy per Si atom -5571.551941 kJ/mol
# Density = 1.910752 g / cm^3
# Si number density = 19.151110 Si / 1000 Ang^3
#
#
#
# Elastic Constant Matrix: (Units=GPa)
#
#
# Indices 1 2 3 4 5 6 
#
# 1 151.3515 55.4607 56.6284 0.0000 0.0000 0.0000
# 2 55.4607 73.7563 13.4847 0.0000 0.0000 0.0000
# 3 56.6284 13.4847 104.8898 0.0000 0.0000 0.0000
# 4 0.0000 0.0000 0.0000 36.8471 0.0000 0.0000
# 5 0.0000 0.0000 0.0000 0.0000 24.1508 0.0000
# 6 0.0000 0.0000 0.0000 0.0000 0.0000 50.2523
#
#
#
# Elastic Compliance Matrix: (Units=1/GPa)
#
#
# Indices 1 2 3 4 5 6 
#
# 1 0.011293 -0.007555 -0.005126 0.000000 0.000000 0.000000
# 2 -0.007555 0.018938 0.001644 0.000000 0.000000 0.000000
# 3 -0.005126 0.001644 0.012090 0.000000 0.000000 0.000000
# 4 0.000000 0.000000 0.000000 0.027139 0.000000 0.000000
# 5 0.000000 0.000000 0.000000 0.000000 0.041407 0.000000
# 6 0.000000 0.000000 0.000000 0.000000 0.000000 0.019900
#
#
# Mechanical properties :
#
#
# Convention : Reuss Voigt Hill
#
# Bulk Modulus (GPa) = 49.38702 64.57170 56.97936
# Shear Modulus (GPa) = 31.33034 35.87829 33.60432
#
# Velocity S-wave (km/s) = 4.04908 4.33301 4.19345
# Velocity P-wave (km/s) = 6.90682 7.66965 7.29820
#
# Compressibility (1/GPa) = 0.02024823
#
# Stress axis : x y z
#
# Youngs Moduli (GPa) = 88.54762 52.80272 82.71410
#
# Poissons Ratio (x) = 0.39892 0.42398
# Poissons Ratio (y) = 0.66896 -0.13598
# Poissons Ratio (z) = 0.45388 -0.08681
#
# Static dielectric constant tensor:
#      x y z
#    x 1.690110 0.000000 0.000000 
#    y 0.000000 1.660130 0.000000 
#    z 0.000000 0.000000 1.635990 
# 
# From -- ./inp_files/4315.got.cif
#   From: 2010.05.17/outbox.cif.g08.bks.cpg/sg40_3_cif.got.tgz:4315.got - 2010.06.03 18:35:42.
