data_PCOD9364267
_publ_section_title
;
Structure prediction by ZEFSAII (Michael W. Deem and Ramdas Pophale) SiO2 
 PCOD9364267
Probable space group: A M A 2
;
_chemical_formula_sum "Si O2"
_cell_formula_units_Z 32
_cell_length_a 8.288631
_cell_length_b 28.987747
_cell_length_c 5.053166
_cell_angle_alpha 90.000000
_cell_angle_beta 90.000000
_cell_angle_gamma 90.000000
_cell_volume 1214.117820
_symmetry_space_group_name_H-M "A M A 2"
_symmetry_group_IT_number 40
_symmetry_cell_setting 'orthorhombic'
loop_
_space_group_symop_operation_xyz
x,y,z
-x,-y,z
1/2-x,y,z
1/2+x,-y,z
x,1/2+y,1/2+z
-x,1/2-y,1/2+z
1/2-x,1/2+y,1/2+z
1/2+x,1/2-y,1/2+z
loop_
_atom_site_type_symbol
_atom_site_label
_atom_site_fract_x
_atom_site_fract_y
_atom_site_fract_z
Si Si1 0.750000 0.634564 0.406730
Si Si2 0.074006 0.651263 0.528903
Si Si3 0.750000 0.072243 0.421433
Si Si4 0.065502 0.544228 0.653898
Si Si5 0.555811 0.720096 0.908296
O O1 0.587300 0.662724 0.368363
O O2 0.750000 0.613628 0.702830
O O3 0.750000 0.592126 0.211088
O O4 0.250000 0.666800 0.439715
O O5 0.072327 0.595347 0.528851
O O6 0.038280 0.673405 0.816362
O O7 0.578938 0.047891 0.367228
O O8 0.250000 0.536356 0.741603
O O9 0.000000 0.500000 0.488840
O O10 0.750000 0.713990 0.926268
O O11 0.480840 0.747093 0.154232
#
# Coordination Sequence:
#
# PCOD9364267 Si02
#       5
#     4   8   4   8   8
#     4  10  22  42  66  96 130 176 222 282 342 404
#     4  10  22  43  70 106 141 187 236 293 354 426
#     4  10  22  40  64  94 132 172 230 276 334 410
#     4  10  20  38  70 100 141 185 235 289 351 417
#     4  12  26  47  74 108 148 193 244 304 368 438
#
# _framework density 26.356583000000001
#
# number of rings (size 3 to 8) (size 9 to 14) (size 15 to 20)
#    0.000    1.500    2.500    2.250    0.000    5.000 
#    0.000   10.000    0.000    0.000    0.000    0.000 
#    0.000    0.000    0.000    0.000    0.000    0.000 
#
# Total GULP energy -89406.149261 kJ/mol
# GULP energy per Si atom -5587.884329 kJ/mol
# Density = 2.629659 g / cm^3
# Si number density = 26.356583 Si / 1000 Ang^3
#
#
#
# Elastic Constant Matrix: (Units=GPa)
#
#
# Indices 1 2 3 4 5 6 
#
# 1 318.9295 33.2952 35.8718 0.0000 0.0000 0.0000
# 2 33.2952 139.9300 19.9394 0.0000 0.0000 0.0000
# 3 35.8718 19.9394 64.6911 0.0000 0.0000 0.0000
# 4 0.0000 0.0000 0.0000 27.6886 0.0000 0.0000
# 5 0.0000 0.0000 0.0000 0.0000 29.9187 0.0000
# 6 0.0000 0.0000 0.0000 0.0000 0.0000 43.9931
#
#
#
# Elastic Compliance Matrix: (Units=1/GPa)
#
#
# Indices 1 2 3 4 5 6 
#
# 1 0.003386 -0.000563 -0.001704 0.000000 0.000000 0.000000
# 2 -0.000563 0.007568 -0.002021 0.000000 0.000000 0.000000
# 3 -0.001704 -0.002021 0.017026 0.000000 0.000000 0.000000
# 4 0.000000 0.000000 0.000000 0.036116 0.000000 0.000000
# 5 0.000000 0.000000 0.000000 0.000000 0.033424 0.000000
# 6 0.000000 0.000000 0.000000 0.000000 0.000000 0.022731
#
#
# Mechanical properties :
#
#
# Convention : Reuss Voigt Hill
#
# Bulk Modulus (GPa) = 51.53319 77.97373 64.75346
# Shear Modulus (GPa) = 36.95653 49.28302 43.11978
#
# Velocity S-wave (km/s) = 3.74862 4.32887 4.04916
# Velocity P-wave (km/s) = 6.19120 7.39148 6.81780
#
# Compressibility (1/GPa) = 0.01940497
#
# Stress axis : x y z
#
# Youngs Moduli (GPa) = 295.34155 132.13039 58.73438
#
# Poissons Ratio (x) = 0.07437 0.10009
# Poissons Ratio (y) = 0.16623 0.11868
# Poissons Ratio (z) = 0.50327 0.26699
#
# Static dielectric constant tensor:
#      x y z
#    x 2.083320 0.000000 0.000000 
#    y 0.000000 2.179780 0.000000 
#    z 0.000000 0.000000 2.049580 
# 
# From -- ./inp_files/349.got.cif
#   From: 2010.05.17/outbox.cif.g08.bks.cpg/sg40_1_cif.got.tgz:349.got - 2010.06.03 18:35:42.
