data_PCOD9364136
_publ_section_title
;
Structure prediction by ZEFSAII (Michael W. Deem and Ramdas Pophale) SiO2 
 PCOD9364136
Probable space group: A M A 2
;
_chemical_formula_sum "Si O2"
_cell_formula_units_Z 64
_cell_length_a 8.658183
_cell_length_b 31.616486
_cell_length_c 12.210363
_cell_angle_alpha 90.000000
_cell_angle_beta 90.000000
_cell_angle_gamma 90.000000
_cell_volume 3342.480905
_symmetry_space_group_name_H-M "A M A 2"
_symmetry_group_IT_number 40
_symmetry_cell_setting 'orthorhombic'
loop_
_space_group_symop_operation_xyz
x,y,z
-x,-y,z
1/2-x,y,z
1/2+x,-y,z
x,1/2+y,1/2+z
-x,1/2-y,1/2+z
1/2-x,1/2+y,1/2+z
1/2+x,1/2-y,1/2+z
loop_
_atom_site_type_symbol
_atom_site_label
_atom_site_fract_x
_atom_site_fract_y
_atom_site_fract_z
Si Si1 0.563018 0.375201 0.992780
Si Si2 0.567915 0.066482 0.877942
Si Si3 0.564879 0.955786 0.641366
Si Si4 0.438512 0.796952 0.102752
Si Si5 0.067420 0.332418 0.368992
Si Si6 0.566536 0.455406 0.611945
Si Si7 0.064452 0.701763 0.144558
Si Si8 0.564391 0.123574 0.248151
O O1 0.750000 0.374754 0.985952
O O2 0.494839 0.378161 0.871954
O O3 0.519228 0.415606 0.067256
O O4 0.510950 0.332378 0.054495
O O5 0.750000 0.056348 0.884976
O O6 0.500414 0.050131 0.763768
O O7 0.549598 0.117216 0.878010
O O8 0.483576 0.049313 0.985218
O O9 0.750000 0.957309 0.646047
O O10 0.500000 0.000000 0.596748
O O11 0.250000 0.796823 0.103553
O O12 0.492675 0.749543 0.127351
O O13 0.486539 0.832668 0.189641
O O14 0.487033 0.811374 0.981726
O O15 0.250000 0.323636 0.356680
O O16 0.982035 0.315044 0.263255
O O17 0.500000 0.500000 0.653316
O O18 0.750000 0.455327 0.620618
O O19 0.498151 0.415931 0.678614
O O20 0.250000 0.702778 0.137385
O O21 0.750000 0.122225 0.245929
#
# Coordination Sequence:
#
# PCOD9364136 Si02
#       8
#     8   8   8   8   8   8   8   8
#     4  10  23  41  60  86 121 160 204 254 305 360
#     4  11  21  38  63  91 125 161 199 246 301 360
#     4  11  23  40  61  88 121 157 201 251 303 363
#     4   9  20  39  61  88 123 161 198 249 306 357
#     4  10  20  37  62  89 122 158 199 247 303 360
#     4  12  25  42  65  92 123 159 201 248 302 362
#     4  10  21  39  62  88 123 161 202 251 303 357
#     4  11  23  42  64  88 122 162 204 250 302 361
#
# _framework density 19.147454
#
# number of rings (size 3 to 8) (size 9 to 14) (size 15 to 20)
#    0.000    1.500    2.500    2.625    1.750    2.500 
#    0.000    2.500    0.000    0.000    0.000    0.000 
#    0.000    0.000    0.000    0.000    0.000    0.000 
#
# Total GULP energy -178864.732624 kJ/mol
# GULP energy per Si atom -5589.522895 kJ/mol
# Density = 1.910387 g / cm^3
# Si number density = 19.147454 Si / 1000 Ang^3
#
#
#
# Elastic Constant Matrix: (Units=GPa)
#
#
# Indices 1 2 3 4 5 6 
#
# 1 42.9013 48.4611 31.2865 0.0000 0.0000 0.0000
# 2 48.4611 159.8655 76.8568 0.0000 0.0000 0.0000
# 3 31.2865 76.8568 138.9591 0.0000 0.0000 0.0000
# 4 0.0000 0.0000 0.0000 98.6180 0.0000 0.0000
# 5 0.0000 0.0000 0.0000 0.0000 35.8101 0.0000
# 6 0.0000 0.0000 0.0000 0.0000 0.0000 22.5304
#
#
#
# Elastic Compliance Matrix: (Units=1/GPa)
#
#
# Indices 1 2 3 4 5 6 
#
# 1 0.036251 -0.009624 -0.002839 0.000000 0.000000 0.000000
# 2 -0.009624 0.011076 -0.003959 0.000000 0.000000 0.000000
# 3 -0.002839 -0.003959 0.010025 0.000000 0.000000 0.000000
# 4 0.000000 0.000000 0.000000 0.010140 0.000000 0.000000
# 5 0.000000 0.000000 0.000000 0.000000 0.027925 0.000000
# 6 0.000000 0.000000 0.000000 0.000000 0.000000 0.044384
#
#
# Mechanical properties :
#
#
# Convention : Reuss Voigt Hill
#
# Bulk Modulus (GPa) = 40.80308 72.77053 56.78681
# Shear Modulus (GPa) = 27.65243 43.73315 35.69279
#
# Velocity S-wave (km/s) = 3.80436 4.78433 4.32221
# Velocity P-wave (km/s) = 6.37603 8.28297 7.39125
#
# Compressibility (1/GPa) = 0.02450796
#
# Stress axis : x y z
#
# Youngs Moduli (GPa) = 27.58545 90.28419 99.74743
#
# Poissons Ratio (x) = 0.86891 0.28317
# Poissons Ratio (y) = 0.26549 0.39492
# Poissons Ratio (z) = 0.07831 0.35745
#
# Static dielectric constant tensor:
#      x y z
#    x 1.652390 0.000000 0.000000 
#    y 0.000000 1.673350 0.000000 
#    z 0.000000 0.000000 1.622170 
# 
# From -- ./inp_files/10700.got.cif
#   From: 2010.05.17/outbox.cif.g08.bks.cpg/sg40_6_cif.got.tgz:10700.got - 2010.06.03 18:35:42.
