data_PCOD9364649
_publ_section_title
;
Structure prediction by ZEFSAII (Michael W. Deem and Ramdas Pophale) SiO2 
 PCOD9364649
Probable space group: A M A 2
;
_chemical_formula_sum "Si O2"
_cell_formula_units_Z 60
_cell_length_a 9.977283
_cell_length_b 19.021652
_cell_length_c 15.053411
_cell_angle_alpha 90.000000
_cell_angle_beta 90.000000
_cell_angle_gamma 90.000000
_cell_volume 2856.902652
_symmetry_space_group_name_H-M "A M A 2"
_symmetry_group_IT_number 40
_symmetry_cell_setting 'orthorhombic'
loop_
_space_group_symop_operation_xyz
x,y,z
-x,-y,z
1/2-x,y,z
1/2+x,-y,z
x,1/2+y,1/2+z
-x,1/2-y,1/2+z
1/2-x,1/2+y,1/2+z
1/2+x,1/2-y,1/2+z
loop_
_atom_site_type_symbol
_atom_site_label
_atom_site_fract_x
_atom_site_fract_y
_atom_site_fract_z
Si Si1 0.486232 0.399731 0.474670
Si Si2 0.595003 0.621072 0.992368
Si Si3 0.594820 0.724625 0.223429
Si Si4 0.405071 0.836382 0.150957
Si Si5 0.593996 0.257196 0.926157
Si Si6 0.407330 0.434542 0.190514
Si Si7 0.750000 0.490110 0.438625
Si Si8 0.897492 0.055788 0.303404
O O1 0.462976 0.392737 0.581161
O O2 0.463144 0.319579 0.446411
O O3 0.629971 0.430662 0.450340
O O4 0.368032 0.448200 0.436275
O O5 0.750000 0.646236 0.991956
O O6 0.492875 0.684091 0.975140
O O7 0.579305 0.571845 0.906528
O O8 0.575334 0.580573 0.084974
O O9 0.750000 0.726549 0.192021
O O10 0.496058 0.767217 0.159235
O O11 0.588973 0.761399 0.319217
O O12 0.559817 0.641789 0.232149
O O13 0.250000 0.821190 0.127683
O O14 0.403792 0.873650 0.246622
O O15 0.750000 0.262494 0.951465
O O16 0.500000 0.500000 0.217928
O O17 0.250000 0.450579 0.208754
O O18 0.750000 0.025302 0.293204
O O19 0.000000 0.000000 0.267892
#
# Coordination Sequence:
#
# PCOD9364649 Si02
#       8
#     8   8   8   8   8   8   4   8
#     4  11  23  41  61  90 117 164 198 248 303 363
#     4  10  21  39  61  85 119 155 202 250 299 361
#     4  10  23  41  60  90 124 158 203 252 299 360
#     4  11  22  38  61  89 125 158 200 245 293 362
#     4  11  22  40  61  89 122 157 204 254 300 359
#     4  10  22  41  63  88 119 156 201 251 303 359
#     4  10  24  42  60  86 126 152 204 250 298 362
#     4  10  22  35  54  86 120 157 196 242 293 353
#
# _framework density 21.001766
#
# number of rings (size 3 to 8) (size 9 to 14) (size 15 to 20)
#    0.000    1.600    2.667    1.200    3.733    2.133 
#    2.400    0.000    0.000    0.000    0.000    0.000 
#    0.000    0.000    0.000    0.000    0.000    0.000 
#
# Total GULP energy -167076.768288 kJ/mol
# GULP energy per Si atom -5569.225610 kJ/mol
# Density = 2.095397 g / cm^3
# Si number density = 21.001766 Si / 1000 Ang^3
#
#
#
# Elastic Constant Matrix: (Units=GPa)
#
#
# Indices 1 2 3 4 5 6 
#
# 1 163.9100 91.1867 -4.4309 0.0000 0.0000 0.0000
# 2 91.1867 94.9665 -20.6746 0.0000 0.0000 0.0000
# 3 -4.4309 -20.6746 37.7701 0.0000 0.0000 0.0000
# 4 0.0000 0.0000 0.0000 -5.9722 0.0000 0.0000
# 5 0.0000 0.0000 0.0000 0.0000 12.3784 0.0000
# 6 0.0000 0.0000 0.0000 0.0000 0.0000 50.8104
#
#
#
# Elastic Compliance Matrix: (Units=1/GPa)
#
#
# Indices 1 2 3 4 5 6 
#
# 1 0.014450 -0.015333 -0.006698 0.000000 0.000000 0.000000
# 2 -0.015333 0.028224 0.013651 0.000000 0.000000 0.000000
# 3 -0.006698 0.013651 0.033162 0.000000 0.000000 0.000000
# 4 0.000000 0.000000 0.000000 -0.167441 0.000000 0.000000
# 5 0.000000 0.000000 0.000000 0.000000 0.080786 0.000000
# 6 0.000000 0.000000 0.000000 0.000000 0.000000 0.019681
#
#
# Mechanical properties :
#
#
# Convention : Reuss Voigt Hill
#
# Bulk Modulus (GPa) = 16.92707 47.64545 32.28626
# Shear Modulus (GPa) = 110.34029 26.81434 68.57731
#
# Velocity S-wave (km/s) = 7.25621 3.57706 5.72049
# Velocity P-wave (km/s) = 8.84765 6.30842 7.68365
#
# Compressibility (1/GPa) = 0.05907695
#
# Stress axis : x y z
#
# Youngs Moduli (GPa) = 69.20486 35.43029 30.15465
#
# Poissons Ratio (x) = 0.54325 0.20197
# Poissons Ratio (y) = 1.06111 -0.41163
# Poissons Ratio (z) = 0.46352 -0.48365
#
# Static dielectric constant tensor:
#      x y z
#    x 1.718680 0.000000 0.000000 
#    y 0.000000 1.728070 0.000000 
#    z 0.000000 0.000000 1.861700 
# 
# From -- ./inp_files/19424.got.cif
#   From: 2010.05.17/outbox.cif.g08.bks.cpg/sg40_10_cif.got.tgz:19424.got - 2010.06.03 18:35:42.
