data_PCOD9364561
_publ_section_title
;
Structure prediction by ZEFSAII (Michael W. Deem and Ramdas Pophale) SiO2 
 PCOD9364561
Probable space group: A M A 2
;
_chemical_formula_sum "Si O2"
_cell_formula_units_Z 52
_cell_length_a 14.707900
_cell_length_b 6.837324
_cell_length_c 18.246170
_cell_angle_alpha 90.000000
_cell_angle_beta 90.000000
_cell_angle_gamma 90.000000
_cell_volume 1834.883712
_symmetry_space_group_name_H-M "A M A 2"
_symmetry_group_IT_number 40
_symmetry_cell_setting 'orthorhombic'
loop_
_space_group_symop_operation_xyz
x,y,z
-x,-y,z
1/2-x,y,z
1/2+x,-y,z
x,1/2+y,1/2+z
-x,1/2-y,1/2+z
1/2-x,1/2+y,1/2+z
1/2+x,1/2-y,1/2+z
loop_
_atom_site_type_symbol
_atom_site_label
_atom_site_fract_x
_atom_site_fract_y
_atom_site_fract_z
Si Si1 0.644730 0.492020 0.653710
Si Si2 0.643959 0.856686 0.467915
Si Si3 0.500000 0.000000 0.040172
Si Si4 0.894873 0.531191 0.126586
Si Si5 0.137849 0.594148 0.810990
Si Si6 0.858033 0.887222 0.939665
Si Si7 0.644599 0.467605 0.283461
O O1 0.750000 0.545634 0.641078
O O2 0.574509 0.583343 0.596972
O O3 0.638028 0.256523 0.636696
O O4 0.614812 0.523098 0.737670
O O5 0.750000 0.892833 0.462254
O O6 0.605990 0.949802 0.392947
O O7 0.636634 0.622672 0.455360
O O8 0.622424 0.952642 0.545395
O O9 0.443934 0.160655 0.992633
O O10 0.855138 0.419509 0.197813
O O11 0.000000 0.500000 0.139963
O O12 0.250000 0.589446 0.809445
O O13 0.104541 0.814632 0.792569
O O14 0.750000 0.833883 0.954165
O O15 0.885500 0.849546 0.855302
O O16 0.750000 0.489686 0.303065
#
# Coordination Sequence:
#
# PCOD9364561 Si02
#       7
#     8   8   4   8   8   8   8
#     4  10  21  38  56  79 113 154 193 235 291 351
#     4   9  16  31  54  77 102 137 179 225 277 338
#     4  12  22  34  56  76 102 142 198 238 272 336
#     4  11  20  30  52  86 117 139 181 234 286 339
#     4   7  13  29  52  72  97 138 182 217 267 338
#     4   9  19  34  53  77 108 144 185 232 287 341
#     4   8  15  30  50  72 102 145 183 217 274 341
#
# _framework density 28.339670000000002
#
# number of rings (size 3 to 8) (size 9 to 14) (size 15 to 20)
#    0.000    2.769    0.000    5.538    1.077    0.000 
#    1.385    0.000    0.000    0.000    0.000    6.462 
#    0.000    0.000    0.000    0.000    0.000    0.000 
#
# Total GULP energy -145256.919178 kJ/mol
# GULP energy per Si atom -5586.804584 kJ/mol
# Density = 2.827517 g / cm^3
# Si number density = 28.339670 Si / 1000 Ang^3
#
#
#
# Elastic Constant Matrix: (Units=GPa)
#
#
# Indices 1 2 3 4 5 6 
#
# 1 133.3432 -7.0336 32.0350 0.0000 0.0000 0.0000
# 2 -7.0336 130.7038 30.7520 0.0000 0.0000 0.0000
# 3 32.0350 30.7520 275.0449 0.0000 0.0000 0.0000
# 4 0.0000 0.0000 0.0000 38.1657 0.0000 0.0000
# 5 0.0000 0.0000 0.0000 0.0000 -70.1660 0.0000
# 6 0.0000 0.0000 0.0000 0.0000 0.0000 4.3314
#
#
#
# Elastic Compliance Matrix: (Units=1/GPa)
#
#
# Indices 1 2 3 4 5 6 
#
# 1 0.007768 0.000648 -0.000977 0.000000 0.000000 0.000000
# 2 0.000648 0.007912 -0.000960 0.000000 0.000000 0.000000
# 3 -0.000977 -0.000960 0.003857 0.000000 0.000000 0.000000
# 4 0.000000 0.000000 0.000000 0.026202 0.000000 0.000000
# 5 0.000000 0.000000 0.000000 0.000000 -0.014252 0.000000
# 6 0.000000 0.000000 0.000000 0.000000 0.000000 0.230870
#
#
# Mechanical properties :
#
#
# Convention : Reuss Voigt Hill
#
# Bulk Modulus (GPa) = 58.96811 72.28875 65.62843
# Shear Modulus (GPa) = 18.47826 26.68881 22.58353
#
# Velocity S-wave (km/s) = 2.55625 3.07212 2.82598
# Velocity P-wave (km/s) = 5.43740 6.17634 5.81862
#
# Compressibility (1/GPa) = 0.01695832
#
# Stress axis : x y z
#
# Youngs Moduli (GPa) = 128.72660 126.39612 259.27343
#
# Poissons Ratio (x) = -0.08190 0.25337
# Poissons Ratio (y) = -0.08341 0.24891
# Poissons Ratio (z) = 0.12580 0.12135
#
# Static dielectric constant tensor:
#      x y z
#    x 2.189800 0.000000 0.000000 
#    y 0.000000 2.395100 0.000000 
#    z 0.000000 0.000000 2.328960 
# 
# From -- ./inp_files/20691.got.cif
#   From: 2010.05.17/outbox.cif.g08.bks.cpg/sg40_11_cif.got.tgz:20691.got - 2010.06.03 18:35:42.
