data_PCOD9364621
_publ_section_title
;
Structure prediction by ZEFSAII (Michael W. Deem and Ramdas Pophale) SiO2 
 PCOD9364621
Probable space group: A M A 2
;
_chemical_formula_sum "Si O2"
_cell_formula_units_Z 64
_cell_length_a 30.716985
_cell_length_b 11.452547
_cell_length_c 8.760166
_cell_angle_alpha 90.000000
_cell_angle_beta 90.000000
_cell_angle_gamma 90.000000
_cell_volume 3081.718775
_symmetry_space_group_name_H-M "A M A 2"
_symmetry_group_IT_number 40
_symmetry_cell_setting 'orthorhombic'
loop_
_space_group_symop_operation_xyz
x,y,z
-x,-y,z
1/2-x,y,z
1/2+x,-y,z
x,1/2+y,1/2+z
-x,1/2-y,1/2+z
1/2-x,1/2+y,1/2+z
1/2+x,1/2-y,1/2+z
loop_
_atom_site_type_symbol
_atom_site_label
_atom_site_fract_x
_atom_site_fract_y
_atom_site_fract_z
Si Si1 0.455767 0.928892 0.370550
Si Si2 0.414806 0.230436 0.021650
Si Si3 0.162477 0.685957 0.284377
Si Si4 0.123408 0.093432 0.462669
Si Si5 0.202449 0.443114 0.267168
Si Si6 0.049427 0.983929 0.032800
Si Si7 0.699901 0.569422 0.896374
Si Si8 0.112387 0.339710 0.324793
O O1 0.453670 0.801094 0.442348
O O2 0.500000 0.000000 0.393888
O O3 0.415896 0.002245 0.442960
O O4 0.449307 0.911649 0.189257
O O5 0.432906 0.109791 0.083752
O O6 0.396202 0.317364 0.147967
O O7 0.376450 0.196564 0.905866
O O8 0.140084 0.637538 0.128469
O O9 0.196660 0.580420 0.307214
O O10 0.185216 0.813276 0.305226
O O11 0.106745 0.212639 0.392578
O O12 0.164422 0.033544 0.374923
O O13 0.250000 0.402397 0.317275
O O14 0.161815 0.380893 0.345386
O O15 0.199314 0.418425 0.083374
O O16 0.000000 0.000000 0.979581
O O17 0.079634 0.928823 0.903920
O O18 0.750000 0.540444 0.856360
#
# Coordination Sequence:
#
# PCOD9364621 Si02
#       8
#     8   8   8   8   8   8   8   8
#     4  11  25  47  67  98 135 174 225 278 332 398
#     4  12  23  43  69  95 133 178 219 267 339 394
#     4  11  20  41  67  91 126 174 218 272 336 390
#     4  11  24  40  65  96 132 171 216 283 331 391
#     4  10  21  38  63  95 128 171 224 272 326 397
#     4  11  27  45  67 100 134 173 224 280 334 399
#     4  10  21  40  65  94 127 172 225 270 328 403
#     4  12  24  42  66  97 137 171 220 276 333 398
#
# _framework density 20.767631999999999
#
# number of rings (size 3 to 8) (size 9 to 14) (size 15 to 20)
#    0.000    1.000    5.000    1.875    1.750    1.500 
#    0.000    0.000    0.000    0.000    0.000    0.000 
#    0.000    0.000    0.000    0.000    0.000    0.000 
#
# Total GULP energy -178512.225299 kJ/mol
# GULP energy per Si atom -5578.507041 kJ/mol
# Density = 2.072036 g / cm^3
# Si number density = 20.767632 Si / 1000 Ang^3
#
#
#
# Elastic Constant Matrix: (Units=GPa)
#
#
# Indices 1 2 3 4 5 6 
#
# 1 113.7106 14.6998 23.6521 0.0000 0.0000 0.0000
# 2 14.6998 69.6097 19.7929 0.0000 0.0000 0.0000
# 3 23.6521 19.7929 40.0844 0.0000 0.0000 0.0000
# 4 0.0000 0.0000 0.0000 35.3862 0.0000 0.0000
# 5 0.0000 0.0000 0.0000 0.0000 26.3491 0.0000
# 6 0.0000 0.0000 0.0000 0.0000 0.0000 17.8171
#
#
#
# Elastic Compliance Matrix: (Units=1/GPa)
#
#
# Indices 1 2 3 4 5 6 
#
# 1 0.010040 -0.000507 -0.005674 0.000000 0.000000 0.000000
# 2 -0.000507 0.016738 -0.007966 0.000000 0.000000 0.000000
# 3 -0.005674 -0.007966 0.032229 0.000000 0.000000 0.000000
# 4 0.000000 0.000000 0.000000 0.028260 0.000000 0.000000
# 5 0.000000 0.000000 0.000000 0.000000 0.037952 0.000000
# 6 0.000000 0.000000 0.000000 0.000000 0.000000 0.056126
#
#
# Mechanical properties :
#
#
# Convention : Reuss Voigt Hill
#
# Bulk Modulus (GPa) = 32.55904 37.74381 35.15143
# Shear Modulus (GPa) = 22.74024 26.92781 24.83402
#
# Velocity S-wave (km/s) = 3.31265 3.60477 3.46179
# Velocity P-wave (km/s) = 5.50848 5.96151 5.73947
#
# Compressibility (1/GPa) = 0.03071344
#
# Stress axis : x y z
#
# Youngs Moduli (GPa) = 99.60205 59.74486 31.02837
#
# Poissons Ratio (x) = 0.03028 0.17605
# Poissons Ratio (y) = 0.05049 0.24716
# Poissons Ratio (z) = 0.56513 0.47591
#
# Static dielectric constant tensor:
#      x y z
#    x 1.770290 0.000000 0.000000 
#    y 0.000000 1.736120 0.000000 
#    z 0.000000 0.000000 1.783440 
# 
# From -- ./inp_files/9432.got.cif
#   From: 2010.05.17/outbox.cif.g08.bks.cpg/sg40_5_cif.got.tgz:9432.got - 2010.06.03 18:35:42.
