data_PCOD9364364
_publ_section_title
;
Structure prediction by ZEFSAII (Michael W. Deem and Ramdas Pophale) SiO2 
 PCOD9364364
Probable space group: A M A 2
;
_chemical_formula_sum "Si O2"
_cell_formula_units_Z 60
_cell_length_a 9.393931
_cell_length_b 17.475589
_cell_length_c 17.159292
_cell_angle_alpha 90.000000
_cell_angle_beta 90.000000
_cell_angle_gamma 90.000000
_cell_volume 2816.946201
_symmetry_space_group_name_H-M "A M A 2"
_symmetry_group_IT_number 40
_symmetry_cell_setting 'orthorhombic'
loop_
_space_group_symop_operation_xyz
x,y,z
-x,-y,z
1/2-x,y,z
1/2+x,-y,z
x,1/2+y,1/2+z
-x,1/2-y,1/2+z
1/2-x,1/2+y,1/2+z
1/2+x,1/2-y,1/2+z
loop_
_atom_site_type_symbol
_atom_site_label
_atom_site_fract_x
_atom_site_fract_y
_atom_site_fract_z
Si Si1 0.922183 0.422397 0.364020
Si Si2 0.582884 0.922945 0.603920
Si Si3 0.905659 0.284061 0.983056
Si Si4 0.080521 0.141216 0.029653
Si Si5 0.750000 0.527025 0.902156
Si Si6 0.579216 0.670099 0.238224
Si Si7 0.478967 0.605312 0.865727
Si Si8 0.920482 0.349583 0.702061
O O1 0.750000 0.424249 0.352660
O O2 0.953983 0.411500 0.455908
O O3 0.000000 0.500000 0.336840
O O4 0.996121 0.353318 0.316853
O O5 0.750000 0.939668 0.622778
O O6 0.585902 0.860383 0.535508
O O7 0.495673 0.884642 0.674234
O O8 0.500000 0.000000 0.580492
O O9 0.750000 0.248591 0.995591
O O10 0.918245 0.313995 0.895260
O O11 0.022670 0.224482 0.007971
O O12 0.250000 0.144129 0.035181
O O13 0.029544 0.122945 0.117010
O O14 0.625928 0.591493 0.908303
O O15 0.629434 0.461045 0.887099
O O16 0.750000 0.656728 0.244150
O O17 0.557916 0.758066 0.211504
O O18 0.497997 0.608560 0.772969
O O19 0.750000 0.363581 0.710822
#
# Coordination Sequence:
#
# PCOD9364364 Si02
#       8
#     8   8   8   8   4   8   8   8
#     4  11  24  43  66  93 127 164 212 266 317 376
#     4  11  24  38  58  92 129 166 206 255 309 372
#     4  11  23  39  63  93 129 165 206 254 308 373
#     4  10  23  43  65  95 127 163 210 260 311 376
#     4  10  24  40  62  90 130 158 212 256 306 368
#     4  11  22  41  68  90 122 165 211 260 315 375
#     4  11  22  42  62  93 122 170 206 256 307 373
#     4  10  20  41  66  92 126 165 207 257 314 374
#
# _framework density 21.299661
#
# number of rings (size 3 to 8) (size 9 to 14) (size 15 to 20)
#    0.000    1.333    2.667    2.400    2.800    2.667 
#    6.000    0.000    0.000    0.000    0.000    0.000 
#    0.000    0.000    0.000    0.000    0.000    0.000 
#
# Total GULP energy -167079.804883 kJ/mol
# GULP energy per Si atom -5569.326829 kJ/mol
# Density = 2.125118 g / cm^3
# Si number density = 21.299661 Si / 1000 Ang^3
#
#
#
# Elastic Constant Matrix: (Units=GPa)
#
#
# Indices 1 2 3 4 5 6 
#
# 1 105.1507 18.3461 17.4050 0.0000 0.0000 0.0000
# 2 18.3461 37.2220 -10.5056 0.0000 0.0000 0.0000
# 3 17.4050 -10.5056 91.9874 0.0000 0.0000 0.0000
# 4 0.0000 0.0000 0.0000 20.9595 0.0000 0.0000
# 5 0.0000 0.0000 0.0000 0.0000 2.0151 0.0000
# 6 0.0000 0.0000 0.0000 0.0000 0.0000 19.3266
#
#
#
# Elastic Compliance Matrix: (Units=1/GPa)
#
#
# Indices 1 2 3 4 5 6 
#
# 1 0.011064 -0.006246 -0.002807 0.000000 0.000000 0.000000
# 2 -0.006246 0.031286 0.004755 0.000000 0.000000 0.000000
# 3 -0.002807 0.004755 0.011945 0.000000 0.000000 0.000000
# 4 0.000000 0.000000 0.000000 0.047711 0.000000 0.000000
# 5 0.000000 0.000000 0.000000 0.000000 0.496250 0.000000
# 6 0.000000 0.000000 0.000000 0.000000 0.000000 0.051742
#
#
# Mechanical properties :
#
#
# Convention : Reuss Voigt Hill
#
# Bulk Modulus (GPa) = 21.88158 31.65012 26.76585
# Shear Modulus (GPa) = 7.42029 22.40122 14.91076
#
# Velocity S-wave (km/s) = 1.86851 3.24654 2.64871
# Velocity P-wave (km/s) = 3.86660 5.38006 4.68485
#
# Compressibility (1/GPa) = 0.04570053
#
# Stress axis : x y z
#
# Youngs Moduli (GPa) = 90.37945 31.96299 83.71587
#
# Poissons Ratio (x) = 0.19963 0.23497
# Poissons Ratio (y) = 0.56448 -0.39806
# Poissons Ratio (z) = 0.25368 -0.15198
#
# Static dielectric constant tensor:
#      x y z
#    x 1.722110 0.000000 0.000000 
#    y 0.000000 1.745940 0.000000 
#    z 0.000000 0.000000 1.864170 
# 
# From -- ./inp_files/19430.got.cif
#   From: 2010.05.17/outbox.cif.g08.bks.cpg/sg40_10_cif.got.tgz:19430.got - 2010.06.03 18:35:42.
