data_PCOD9364757
_publ_section_title
;
Structure prediction by ZEFSAII (Michael W. Deem and Ramdas Pophale) SiO2 
 PCOD9364757
Probable space group: A M A 2
;
_chemical_formula_sum "Si O2"
_cell_formula_units_Z 64
_cell_length_a 14.222989
_cell_length_b 11.764476
_cell_length_c 19.746882
_cell_angle_alpha 90.000000
_cell_angle_beta 90.000000
_cell_angle_gamma 90.000000
_cell_volume 3304.167029
_symmetry_space_group_name_H-M "A M A 2"
_symmetry_group_IT_number 40
_symmetry_cell_setting 'orthorhombic'
loop_
_space_group_symop_operation_xyz
x,y,z
-x,-y,z
1/2-x,y,z
1/2+x,-y,z
x,1/2+y,1/2+z
-x,1/2-y,1/2+z
1/2-x,1/2+y,1/2+z
1/2+x,1/2-y,1/2+z
loop_
_atom_site_type_symbol
_atom_site_label
_atom_site_fract_x
_atom_site_fract_y
_atom_site_fract_z
Si Si1 0.361051 0.215357 0.495990
Si Si2 0.397305 0.970507 0.328837
Si Si3 0.016977 0.374257 0.592102
Si Si4 0.856938 0.196352 0.211913
Si Si5 0.016442 0.871679 0.738247
Si Si6 0.146820 0.730966 0.837108
Si Si7 0.862394 0.195280 0.612584
Si Si8 0.137591 0.955959 0.480768
O O1 0.250000 0.224108 0.514301
O O2 0.426362 0.294484 0.540625
O O3 0.369028 0.247079 0.416983
O O4 0.390820 0.083276 0.502414
O O5 0.350423 0.094521 0.327722
O O6 0.500000 0.000000 0.302399
O O7 0.355077 0.874405 0.281569
O O8 0.404122 0.929659 0.406905
O O9 0.083615 0.377005 0.658107
O O10 0.000000 0.500000 0.565592
O O11 0.917975 0.314430 0.609758
O O12 0.750000 0.217704 0.189835
O O13 0.918125 0.310697 0.219935
O O14 0.067937 0.791882 0.793077
O O15 0.084724 0.871661 0.672653
O O16 0.000000 0.000000 0.761684
O O17 0.250000 0.776622 0.818332
O O18 0.750000 0.204983 0.623518
O O19 0.878589 0.131399 0.541204
O O20 0.250000 0.961168 0.469014
#
# Coordination Sequence:
#
# PCOD9364757 Si02
#       8
#     8   8   8   8   8   8   8   8
#     4   9  20  39  64  92 121 157 202 252 302 354
#     4  11  20  36  64  95 123 152 201 257 309 349
#     4  11  25  40  59  89 122 165 206 243 296 360
#     4  11  24  41  61  88 123 160 201 251 303 358
#     4  11  25  41  61  89 122 162 203 244 296 363
#     4  10  21  40  65  92 123 160 201 249 303 356
#     4  10  24  41  61  89 124 161 200 249 304 358
#     4   9  20  37  62  94 119 152 200 254 311 353
#
# _framework density 19.369481
#
# number of rings (size 3 to 8) (size 9 to 14) (size 15 to 20)
#    0.000    1.750    1.250    3.000    8.750    2.500 
#    0.000    0.000    0.000    1.500    0.000    0.000 
#    0.000    0.000    0.000    0.000    0.000    0.000 
#
# Total GULP energy -178720.216213 kJ/mol
# GULP energy per Si atom -5585.006757 kJ/mol
# Density = 1.932540 g / cm^3
# Si number density = 19.369481 Si / 1000 Ang^3
#
#
#
# Elastic Constant Matrix: (Units=GPa)
#
#
# Indices 1 2 3 4 5 6 
#
# 1 124.4004 26.6747 32.9331 0.0000 0.0000 0.0000
# 2 26.6747 67.0239 30.9075 0.0000 0.0000 0.0000
# 3 32.9331 30.9075 75.2078 0.0000 0.0000 0.0000
# 4 0.0000 0.0000 0.0000 19.7481 0.0000 0.0000
# 5 0.0000 0.0000 0.0000 0.0000 28.7086 0.0000
# 6 0.0000 0.0000 0.0000 0.0000 0.0000 11.5723
#
#
#
# Elastic Compliance Matrix: (Units=1/GPa)
#
#
# Indices 1 2 3 4 5 6 
#
# 1 0.009363 -0.002265 -0.003169 0.000000 0.000000 0.000000
# 2 -0.002265 0.018957 -0.006799 0.000000 0.000000 0.000000
# 3 -0.003169 -0.006799 0.017478 0.000000 0.000000 0.000000
# 4 0.000000 0.000000 0.000000 0.050638 0.000000 0.000000
# 5 0.000000 0.000000 0.000000 0.000000 0.034833 0.000000
# 6 0.000000 0.000000 0.000000 0.000000 0.000000 0.086413
#
#
# Mechanical properties :
#
#
# Convention : Reuss Voigt Hill
#
# Bulk Modulus (GPa) = 46.87712 49.74031 48.30871
# Shear Modulus (GPa) = 20.05952 23.74693 21.90322
#
# Velocity S-wave (km/s) = 3.22160 3.50522 3.36640
# Velocity P-wave (km/s) = 6.17190 6.48981 6.33285
#
# Compressibility (1/GPa) = 0.02133237
#
# Stress axis : x y z
#
# Youngs Moduli (GPa) = 106.80049 52.75202 57.21388
#
# Poissons Ratio (x) = 0.11948 0.18133
# Poissons Ratio (y) = 0.24190 0.38898
# Poissons Ratio (z) = 0.33848 0.35864
#
# Static dielectric constant tensor:
#      x y z
#    x 1.701980 0.000000 0.000000 
#    y 0.000000 1.646610 0.000000 
#    z 0.000000 0.000000 1.672510 
# 
# From -- ./inp_files/20765.got.cif
#   From: 2010.05.17/outbox.cif.g08.bks.cpg/sg40_11_cif.got.tgz:20765.got - 2010.06.03 18:35:42.
