data_PCOD9364196
_publ_section_title
;
Structure prediction by ZEFSAII (Michael W. Deem and Ramdas Pophale) SiO2 
 PCOD9364196
Probable space group: A M A 2
;
_chemical_formula_sum "Si O2"
_cell_formula_units_Z 64
_cell_length_a 17.101582
_cell_length_b 20.851004
_cell_length_c 9.390722
_cell_angle_alpha 90.000000
_cell_angle_beta 90.000000
_cell_angle_gamma 90.000000
_cell_volume 3348.592057
_symmetry_space_group_name_H-M "A M A 2"
_symmetry_group_IT_number 40
_symmetry_cell_setting 'orthorhombic'
loop_
_space_group_symop_operation_xyz
x,y,z
-x,-y,z
1/2-x,y,z
1/2+x,-y,z
x,1/2+y,1/2+z
-x,1/2-y,1/2+z
1/2-x,1/2+y,1/2+z
1/2+x,1/2-y,1/2+z
loop_
_atom_site_type_symbol
_atom_site_label
_atom_site_fract_x
_atom_site_fract_y
_atom_site_fract_z
Si Si1 0.996699 0.927190 0.422620
Si Si2 0.885152 0.124536 0.791382
Si Si3 0.433610 0.115250 0.697563
Si Si4 0.160169 0.017194 0.874555
Si Si5 0.910392 0.250992 0.317821
Si Si6 0.536615 0.693493 0.518296
Si Si7 0.663429 0.638611 0.971435
Si Si8 0.049917 0.562657 0.598682
O O1 0.086063 0.900681 0.419827
O O2 0.942866 0.885952 0.528027
O O3 0.957777 0.931251 0.267846
O O4 0.000000 0.000000 0.479962
O O5 0.843705 0.142470 0.643306
O O6 0.975979 0.116127 0.746540
O O7 0.853388 0.058652 0.856813
O O8 0.890149 0.177171 0.916215
O O9 0.392307 0.052544 0.757122
O O10 0.391654 0.177055 0.765535
O O11 0.250000 0.031373 0.849853
O O12 0.131938 0.046592 0.025216
O O13 0.940052 0.217465 0.173486
O O14 0.846558 0.207367 0.395011
O O15 0.980287 0.258361 0.432973
O O16 0.488267 0.627415 0.539348
O O17 0.750000 0.611890 0.937236
O O18 0.000000 0.500000 0.555811
#
# Coordination Sequence:
#
# PCOD9364196 Si02
#       8
#     8   8   8   8   8   8   8   8
#     4  10  21  38  65  93 122 160 211 260 311 372
#     4  10  20  38  63  89 118 156 208 262 306 379
#     4  10  20  38  61  86 123 159 210 244 294 367
#     4  12  22  37  62  92 121 159 203 260 331 371
#     4  11  22  36  60  91 118 165 205 254 294 372
#     4  11  20  37  63  87 120 153 219 254 297 360
#     4  11  23  41  61  94 131 162 204 259 326 372
#     4  11  20  39  61  88 120 160 204 263 309 369
#
# _framework density 19.112511000000001
#
# number of rings (size 3 to 8) (size 9 to 14) (size 15 to 20)
#    0.000    1.250    5.000    4.500    0.000    0.500 
#    0.000    6.875    0.000    0.000    0.000    0.000 
#    0.000    0.000    0.000    0.000    0.000    0.000 
#
# Total GULP energy -178463.898868 kJ/mol
# GULP energy per Si atom -5576.996840 kJ/mol
# Density = 1.906901 g / cm^3
# Si number density = 19.112511 Si / 1000 Ang^3
#
#
#
# Elastic Constant Matrix: (Units=GPa)
#
#
# Indices 1 2 3 4 5 6 
#
# 1 65.5821 12.3432 27.9537 0.0000 0.0000 0.0000
# 2 12.3432 51.8043 25.9723 0.0000 0.0000 0.0000
# 3 27.9537 25.9723 122.5631 0.0000 0.0000 0.0000
# 4 0.0000 0.0000 0.0000 37.6227 0.0000 0.0000
# 5 0.0000 0.0000 0.0000 0.0000 9.3234 0.0000
# 6 0.0000 0.0000 0.0000 0.0000 0.0000 16.0693
#
#
#
# Elastic Compliance Matrix: (Units=1/GPa)
#
#
# Indices 1 2 3 4 5 6 
#
# 1 0.017148 -0.002378 -0.003407 0.000000 0.000000 0.000000
# 2 -0.002378 0.021928 -0.004104 0.000000 0.000000 0.000000
# 3 -0.003407 -0.004104 0.009806 0.000000 0.000000 0.000000
# 4 0.000000 0.000000 0.000000 0.026580 0.000000 0.000000
# 5 0.000000 0.000000 0.000000 0.000000 0.107257 0.000000
# 6 0.000000 0.000000 0.000000 0.000000 0.000000 0.062231
#
#
# Mechanical properties :
#
#
# Convention : Reuss Voigt Hill
#
# Bulk Modulus (GPa) = 34.36059 41.38756 37.87407
# Shear Modulus (GPa) = 18.21970 24.18175 21.20073
#
# Velocity S-wave (km/s) = 3.09088 3.56087 3.33417
# Velocity P-wave (km/s) = 5.54573 6.21354 5.88911
#
# Compressibility (1/GPa) = 0.02910311
#
# Stress axis : x y z
#
# Youngs Moduli (GPa) = 58.31649 45.60446 101.97913
#
# Poissons Ratio (x) = 0.10843 0.34746
# Poissons Ratio (y) = 0.13865 0.41857
# Poissons Ratio (z) = 0.19869 0.18718
#
# Static dielectric constant tensor:
#      x y z
#    x 1.643950 0.000000 0.000000 
#    y 0.000000 1.699960 0.000000 
#    z 0.000000 0.000000 1.718120 
# 
# From -- ./inp_files/7801.got.cif
#   From: 2010.05.17/outbox.cif.g08.bks.cpg/sg40_4_cif.got.tgz:7801.got - 2010.06.03 18:35:42.
