data_PCOD9364697
_publ_section_title
;
Structure prediction by ZEFSAII (Michael W. Deem and Ramdas Pophale) SiO2 
 PCOD9364697
Probable space group: A M A 2
;
_chemical_formula_sum "Si O2"
_cell_formula_units_Z 56
_cell_length_a 7.691564
_cell_length_b 27.041433
_cell_length_c 11.401308
_cell_angle_alpha 90.000000
_cell_angle_beta 90.000000
_cell_angle_gamma 90.000000
_cell_volume 2371.368455
_symmetry_space_group_name_H-M "A M A 2"
_symmetry_group_IT_number 40
_symmetry_cell_setting 'orthorhombic'
loop_
_space_group_symop_operation_xyz
x,y,z
-x,-y,z
1/2-x,y,z
1/2+x,-y,z
x,1/2+y,1/2+z
-x,1/2-y,1/2+z
1/2-x,1/2+y,1/2+z
1/2+x,1/2-y,1/2+z
loop_
_atom_site_type_symbol
_atom_site_label
_atom_site_fract_x
_atom_site_fract_y
_atom_site_fract_z
Si Si1 0.042487 0.344239 0.701470
Si Si2 0.492770 0.751882 0.590308
Si Si3 0.961586 0.592989 0.340256
Si Si4 0.452958 0.291569 0.329930
Si Si5 0.042163 0.945372 0.087350
Si Si6 0.547759 0.344330 0.970676
Si Si7 0.957115 0.055839 0.588720
O O1 0.250000 0.337684 0.671432
O O2 0.937286 0.302980 0.630609
O O3 0.986003 0.399180 0.665525
O O4 0.013291 0.338364 0.838504
O O5 0.750000 0.829588 0.485221
O O6 0.558824 0.766702 0.723258
O O7 0.439795 0.807727 0.554369
O O8 0.750000 0.591469 0.341181
O O9 0.006028 0.651173 0.344243
O O10 0.024912 0.564662 0.455692
O O11 0.021639 0.567572 0.220576
O O12 0.250000 0.289120 0.291169
O O13 0.455479 0.264564 0.456170
O O14 0.250000 0.942369 0.082791
O O15 0.000000 0.000000 0.129883
O O16 0.530038 0.401075 0.007350
O O17 0.750000 0.061319 0.587807
O O18 0.000000 0.000000 0.554585
#
# Coordination Sequence:
#
# PCOD9364697 Si02
#       7
#     8   8   8   8   8   8   8
#     4  11  24  42  66  93 126 174 223 269 332 404
#     4  12  23  41  69  98 134 179 225 279 340 406
#     4   9  18  36  64  93 124 165 208 258 321 391
#     4  11  22  41  66  98 137 177 224 276 337 408
#     4  10  21  39  65  92 124 163 210 262 323 389
#     4  12  26  43  65  96 133 171 219 278 336 400
#     4  11  23  42  68  96 129 170 218 269 330 399
#
# _framework density 23.615054000000001
#
# number of rings (size 3 to 8) (size 9 to 14) (size 15 to 20)
#    0.000    1.143    4.286    2.571    0.000    1.714 
#    0.000    2.143    0.000    0.000    0.000    0.000 
#    0.000    0.000    0.000    0.000    0.000    0.000 
#
# Total GULP energy -156031.575055 kJ/mol
# GULP energy per Si atom -5572.556252 kJ/mol
# Density = 2.356130 g / cm^3
# Si number density = 23.615054 Si / 1000 Ang^3
#
#
#
# Elastic Constant Matrix: (Units=GPa)
#
#
# Indices 1 2 3 4 5 6 
#
# 1 81.3560 16.6406 15.8643 0.0000 0.0000 0.0000
# 2 16.6406 219.1512 60.9572 0.0000 0.0000 0.0000
# 3 15.8643 60.9572 152.2508 0.0000 0.0000 0.0000
# 4 0.0000 0.0000 0.0000 42.2987 0.0000 0.0000
# 5 0.0000 0.0000 0.0000 0.0000 -3.2816 0.0000
# 6 0.0000 0.0000 0.0000 0.0000 0.0000 1.2697
#
#
#
# Elastic Compliance Matrix: (Units=1/GPa)
#
#
# Indices 1 2 3 4 5 6 
#
# 1 0.012633 -0.000667 -0.001049 0.000000 0.000000 0.000000
# 2 -0.000667 0.005170 -0.002000 0.000000 0.000000 0.000000
# 3 -0.001049 -0.002000 0.007478 0.000000 0.000000 0.000000
# 4 0.000000 0.000000 0.000000 0.023641 0.000000 0.000000
# 5 0.000000 0.000000 0.000000 0.000000 -0.304732 0.000000
# 6 0.000000 0.000000 0.000000 0.000000 0.000000 0.787580
#
#
# Mechanical properties :
#
#
# Convention : Reuss Voigt Hill
#
# Bulk Modulus (GPa) = 56.03081 71.07580 63.55331
# Shear Modulus (GPa) = 9.17174 32.01043 20.59108
#
# Velocity S-wave (km/s) = 1.97289 3.68572 2.95608
# Velocity P-wave (km/s) = 5.38219 6.94807 6.21465
#
# Compressibility (1/GPa) = 0.01784732
#
# Stress axis : x y z
#
# Youngs Moduli (GPa) = 79.15938 193.41734 133.71928
#
# Poissons Ratio (x) = 0.12909 0.14028
# Poissons Ratio (y) = 0.05283 0.26750
# Poissons Ratio (z) = 0.08305 0.38692
#
# Static dielectric constant tensor:
#      x y z
#    x 2.094090 0.000000 0.000000 
#    y 0.000000 1.873710 0.000000 
#    z 0.000000 0.000000 1.848370 
# 
# From -- ./inp_files/11331.got.cif
#   From: 2010.05.17/outbox.cif.g08.bks.cpg/sg40_6_cif.got.tgz:11331.got - 2010.06.03 18:35:42.
