data_PCOD9364236
_publ_section_title
;
Structure prediction by ZEFSAII (Michael W. Deem and Ramdas Pophale) SiO2 
 PCOD9364236
Probable space group: A M A 2
;
_chemical_formula_sum "Si O2"
_cell_formula_units_Z 40
_cell_length_a 18.578920
_cell_length_b 7.696928
_cell_length_c 12.889057
_cell_angle_alpha 90.000000
_cell_angle_beta 90.000000
_cell_angle_gamma 90.000000
_cell_volume 1843.143008
_symmetry_space_group_name_H-M "A M A 2"
_symmetry_group_IT_number 40
_symmetry_cell_setting 'orthorhombic'
loop_
_space_group_symop_operation_xyz
x,y,z
-x,-y,z
1/2-x,y,z
1/2+x,-y,z
x,1/2+y,1/2+z
-x,1/2-y,1/2+z
1/2-x,1/2+y,1/2+z
1/2+x,1/2-y,1/2+z
loop_
_atom_site_type_symbol
_atom_site_label
_atom_site_fract_x
_atom_site_fract_y
_atom_site_fract_z
Si Si1 0.834518 0.323941 0.397700
Si Si2 0.037006 0.812335 0.765091
Si Si3 0.102396 0.350389 0.690658
Si Si4 0.067788 0.870933 0.975788
Si Si5 0.834790 0.267669 0.634000
O O1 0.750000 0.353351 0.387308
O O2 0.861356 0.229873 0.293316
O O3 0.875612 0.503207 0.418737
O O4 0.845818 0.233699 0.511002
O O5 0.044804 0.746316 0.882924
O O6 0.110409 0.841278 0.702783
O O7 0.982082 0.681435 0.711550
O O8 0.000000 0.000000 0.770765
O O9 0.104332 0.276608 0.572745
O O10 0.137802 0.538468 0.667381
O O11 0.000000 0.000000 0.003916
O O12 0.750000 0.249260 0.656297
#
# Coordination Sequence:
#
# PCOD9364236 Si02
#       5
#     8   8   8   8   8
#     4  10  20  38  64  91 125 168 215 265 321 389
#     4  11  22  40  62  95 130 167 217 275 329 387
#     4  11  20  39  67  90 124 169 217 262 327 393
#     4  10  20  39  60  92 127 164 216 264 321 379
#     4  10  23  42  64  93 131 170 218 276 328 389
#
# _framework density 21.702058000000001
#
# number of rings (size 3 to 8) (size 9 to 14) (size 15 to 20)
#    0.000    1.600    4.000    3.600    0.000    1.600 
#    3.600    1.000    0.000    0.000    0.000    0.000 
#    0.000    0.000    0.000    0.000    0.000    0.000 
#
# Total GULP energy -111357.500237 kJ/mol
# GULP energy per Si atom -5567.875012 kJ/mol
# Density = 2.165266 g / cm^3
# Si number density = 21.702058 Si / 1000 Ang^3
#
#
#
# Elastic Constant Matrix: (Units=GPa)
#
#
# Indices 1 2 3 4 5 6 
#
# 1 131.2963 13.5871 88.9421 0.0000 0.0000 0.0000
# 2 13.5871 31.3802 47.4196 0.0000 0.0000 0.0000
# 3 88.9421 47.4196 205.3807 0.0000 0.0000 0.0000
# 4 0.0000 0.0000 0.0000 36.9099 0.0000 0.0000
# 5 0.0000 0.0000 0.0000 0.0000 39.5804 0.0000
# 6 0.0000 0.0000 0.0000 0.0000 0.0000 28.7254
#
#
#
# Elastic Compliance Matrix: (Units=1/GPa)
#
#
# Indices 1 2 3 4 5 6 
#
# 1 0.011060 0.003761 -0.005658 0.000000 0.000000 0.000000
# 2 0.003761 0.050223 -0.013225 0.000000 0.000000 0.000000
# 3 -0.005658 -0.013225 0.010373 0.000000 0.000000 0.000000
# 4 0.000000 0.000000 0.000000 0.027093 0.000000 0.000000
# 5 0.000000 0.000000 0.000000 0.000000 0.025265 0.000000
# 6 0.000000 0.000000 0.000000 0.000000 0.000000 0.034812
#
#
# Mechanical properties :
#
#
# Convention : Reuss Voigt Hill
#
# Bulk Modulus (GPa) = 24.14721 74.21722 49.18222
# Shear Modulus (GPa) = 24.64597 35.58371 30.11484
#
# Velocity S-wave (km/s) = 3.37360 4.05365 3.72916
# Velocity P-wave (km/s) = 5.13086 7.49546 6.42291
#
# Compressibility (1/GPa) = 0.04141265
#
# Stress axis : x y z
#
# Youngs Moduli (GPa) = 90.41605 19.91127 96.40713
#
# Poissons Ratio (x) = -0.07489 0.54548
# Poissons Ratio (y) = -0.34008 1.27495
# Poissons Ratio (z) = 0.51158 0.26332
#
# Static dielectric constant tensor:
#      x y z
#    x 1.810970 0.000000 0.000000 
#    y 0.000000 1.860760 0.000000 
#    z 0.000000 0.000000 1.922080 
# 
# From -- ./inp_files/12697.got.cif
#   From: 2010.05.17/outbox.cif.g08.bks.cpg/sg40_7_cif.got.tgz:12697.got - 2010.06.03 18:35:42.
