data_PCOD9364115
_publ_section_title
;
Structure prediction by ZEFSAII (Michael W. Deem and Ramdas Pophale) SiO2 
 PCOD9364115
Probable space group: A M A 2
;
_chemical_formula_sum "Si O2"
_cell_formula_units_Z 48
_cell_length_a 8.661764
_cell_length_b 19.323701
_cell_length_c 15.425888
_cell_angle_alpha 90.000000
_cell_angle_beta 90.000000
_cell_angle_gamma 90.000000
_cell_volume 2581.944065
_symmetry_space_group_name_H-M "A M A 2"
_symmetry_group_IT_number 40
_symmetry_cell_setting 'orthorhombic'
loop_
_space_group_symop_operation_xyz
x,y,z
-x,-y,z
1/2-x,y,z
1/2+x,-y,z
x,1/2+y,1/2+z
-x,1/2-y,1/2+z
1/2-x,1/2+y,1/2+z
1/2+x,1/2-y,1/2+z
loop_
_atom_site_type_symbol
_atom_site_label
_atom_site_fract_x
_atom_site_fract_y
_atom_site_fract_z
Si Si1 0.434625 0.923781 0.383870
Si Si2 0.935357 0.424607 0.693243
Si Si3 0.064483 0.677575 0.536444
Si Si4 0.933601 0.330793 0.036444
Si Si5 0.065375 0.923781 0.689017
Si Si6 0.564643 0.424607 0.379645
O O1 0.250000 0.925950 0.385248
O O2 0.493680 0.907672 0.286976
O O3 0.496794 0.868915 0.452547
O O4 0.500000 0.000000 0.405976
O O5 0.750000 0.429177 0.700923
O O6 0.973957 0.367990 0.620990
O O7 0.000000 0.500000 0.667710
O O8 0.250000 0.688742 0.536444
O O9 0.026042 0.632010 0.451898
O O10 0.981091 0.750771 0.536444
O O11 0.750000 0.338408 0.036444
O O12 0.003206 0.368915 0.120340
O O13 0.250000 0.925950 0.687639
O O14 0.006320 0.907672 0.785912
O O15 0.000000 0.000000 0.666911
O O16 0.500000 0.500000 0.405178
O O17 0.750000 0.429177 0.371965
#
# Coordination Sequence:
#
# PCOD9364115 Si02
#       6
#     8   8   8   8   8   8
#     4  11  22  39  62  87 116 149 190 237 285 338
#     4  10  20  37  61  88 117 150 192 237 283 335
#     4  10  23  40  58  84 119 156 192 234 283 338
#     4  12  25  40  59  84 115 152 193 236 287 344
#     4  11  22  39  62  87 116 149 190 237 285 338
#     4  10  20  37  61  88 117 150 192 237 283 335
#
# _framework density 18.590643
#
# number of rings (size 3 to 8) (size 9 to 14) (size 15 to 20)
#    0.000    1.333    0.000    8.500    0.000    4.000 
#    0.000    0.000    0.000    0.000    0.000    0.000 
#    0.000    0.000    0.000    0.000    0.000    0.000 
#
# Total GULP energy -134234.336431 kJ/mol
# GULP energy per Si atom -5593.097351 kJ/mol
# Density = 1.854833 g / cm^3
# Si number density = 18.590643 Si / 1000 Ang^3
#
#
#
# Elastic Constant Matrix: (Units=GPa)
#
#
# Indices 1 2 3 4 5 6 
#
# 1 152.9044 96.1311 83.0970 0.0000 0.0000 0.0000
# 2 96.1311 155.4799 120.1381 0.0000 0.0000 0.0000
# 3 83.0970 120.1381 121.9283 0.0000 0.0000 0.0000
# 4 0.0000 0.0000 0.0000 -31.6492 0.0000 0.0000
# 5 0.0000 0.0000 0.0000 0.0000 599.5202 0.0000
# 6 0.0000 0.0000 0.0000 0.0000 0.0000 37.4741
#
#
#
# Elastic Compliance Matrix: (Units=1/GPa)
#
#
# Indices 1 2 3 4 5 6 
#
# 1 0.011014 -0.004231 -0.003337 0.000000 0.000000 0.000000
# 2 -0.004231 0.028575 -0.025272 0.000000 0.000000 0.000000
# 3 -0.003337 -0.025272 0.035377 0.000000 0.000000 0.000000
# 4 0.000000 0.000000 0.000000 -0.031596 0.000000 0.000000
# 5 0.000000 0.000000 0.000000 0.000000 0.001668 0.000000
# 6 0.000000 0.000000 0.000000 0.000000 0.000000 0.026685
#
#
# Mechanical properties :
#
#
# Convention : Reuss Voigt Hill
#
# Bulk Modulus (GPa) = 107.69797 114.33833 111.01815
# Shear Modulus (GPa) = 35.58737 129.79876 82.69307
#
# Velocity S-wave (km/s) = 4.37998 8.36487 6.67664
# Velocity P-wave (km/s) = 9.14527 12.44714 10.92170
#
# Compressibility (1/GPa) = 0.00928523
#
# Stress axis : x y z
#
# Youngs Moduli (GPa) = 90.79610 34.99517 28.26673
#
# Poissons Ratio (x) = 0.14806 0.09433
# Poissons Ratio (y) = 0.38415 0.71437
# Poissons Ratio (z) = 0.30301 0.88441
#
# Static dielectric constant tensor:
#      x y z
#    x 1.621730 0.000000 0.000000 
#    y 0.000000 1.605830 0.000000 
#    z 0.000000 0.000000 1.626300 
# 
# From -- ./inp_files/15045.got.cif
#   From: 2010.05.17/outbox.cif.g08.bks.cpg/sg40_8_cif.got.tgz:15045.got - 2010.06.03 18:35:42.
