data_PCOD9364113
_publ_section_title
;
Structure prediction by ZEFSAII (Michael W. Deem and Ramdas Pophale) SiO2 
 PCOD9364113
Probable space group: A M A 2
;
_chemical_formula_sum "Si O2"
_cell_formula_units_Z 64
_cell_length_a 19.496054
_cell_length_b 15.567271
_cell_length_c 11.703974
_cell_angle_alpha 90.000000
_cell_angle_beta 90.000000
_cell_angle_gamma 90.000000
_cell_volume 3552.160276
_symmetry_space_group_name_H-M "A M A 2"
_symmetry_group_IT_number 40
_symmetry_cell_setting 'orthorhombic'
loop_
_space_group_symop_operation_xyz
x,y,z
-x,-y,z
1/2-x,y,z
1/2+x,-y,z
x,1/2+y,1/2+z
-x,1/2-y,1/2+z
1/2-x,1/2+y,1/2+z
1/2+x,1/2-y,1/2+z
loop_
_atom_site_type_symbol
_atom_site_label
_atom_site_fract_x
_atom_site_fract_y
_atom_site_fract_z
Si Si1 0.576022 0.178543 0.102180
Si Si2 0.070627 0.614858 0.335442
Si Si3 0.329269 0.359475 0.157884
Si Si4 0.055384 0.924289 0.336090
Si Si5 0.328582 0.511564 0.975880
Si Si6 0.582999 0.583386 0.363007
Si Si7 0.668569 0.832517 0.628456
Si Si8 0.944193 0.730715 0.012304
O O1 0.565381 0.122719 0.215473
O O2 0.644089 0.235931 0.108359
O O3 0.510561 0.241260 0.084544
O O4 0.579738 0.122232 0.988567
O O5 0.088524 0.518897 0.375049
O O6 0.121863 0.636736 0.233504
O O7 0.075139 0.688788 0.431084
O O8 0.989896 0.607499 0.303177
O O9 0.250000 0.331544 0.157655
O O10 0.357680 0.378611 0.283699
O O11 0.380592 0.295395 0.092372
O O12 0.333233 0.448455 0.085866
O O13 0.039015 0.850462 0.430154
O O14 0.123844 0.971017 0.380298
O O15 0.000000 0.000000 0.329908
O O16 0.250000 0.512898 0.938013
O O17 0.347859 0.605826 0.020995
O O18 0.750000 0.840146 0.650560
#
# Coordination Sequence:
#
# PCOD9364113 Si02
#       8
#     8   8   8   8   8   8   8   8
#     4  11  24  39  59  90 122 157 198 244 303 358
#     4  10  20  38  59  93 112 155 196 244 300 342
#     4  10  20  37  61  87 116 153 196 245 296 351
#     4  11  23  38  60  90 118 158 196 246 301 360
#     4   9  20  39  61  86 116 154 198 244 294 353
#     4  10  22  37  62  85 122 154 191 244 296 365
#     4  11  21  38  62  88 119 153 200 249 290 350
#     4  10  22  39  61  87 119 153 201 252 292 358
#
# _framework density 18.017206000000002
#
# number of rings (size 3 to 8) (size 9 to 14) (size 15 to 20)
#    0.000    1.750    2.500    1.500    5.250    2.500 
#    0.000    0.000    0.000    0.000    0.000    0.000 
#    0.000    0.000    0.000    0.000    0.000    0.000 
#
# Total GULP energy -178597.011186 kJ/mol
# GULP energy per Si atom -5581.156600 kJ/mol
# Density = 1.797620 g / cm^3
# Si number density = 18.017206 Si / 1000 Ang^3
#
#
#
# Elastic Constant Matrix: (Units=GPa)
#
#
# Indices 1 2 3 4 5 6 
#
# 1 88.1846 47.6335 60.6740 0.0000 0.0000 0.0000
# 2 47.6335 102.6746 53.9547 0.0000 0.0000 0.0000
# 3 60.6740 53.9547 100.5016 0.0000 0.0000 0.0000
# 4 0.0000 0.0000 0.0000 30.1652 0.0000 0.0000
# 5 0.0000 0.0000 0.0000 0.0000 7.1203 0.0000
# 6 0.0000 0.0000 0.0000 0.0000 0.0000 21.0587
#
#
#
# Elastic Compliance Matrix: (Units=1/GPa)
#
#
# Indices 1 2 3 4 5 6 
#
# 1 0.020628 -0.004215 -0.010191 0.000000 0.000000 0.000000
# 2 -0.004215 0.014428 -0.005201 0.000000 0.000000 0.000000
# 3 -0.010191 -0.005201 0.018895 0.000000 0.000000 0.000000
# 4 0.000000 0.000000 0.000000 0.033151 0.000000 0.000000
# 5 0.000000 0.000000 0.000000 0.000000 0.140444 0.000000
# 6 0.000000 0.000000 0.000000 0.000000 0.000000 0.047486
#
#
# Mechanical properties :
#
#
# Convention : Reuss Voigt Hill
#
# Bulk Modulus (GPa) = 67.85490 68.43169 68.14329
# Shear Modulus (GPa) = 15.66624 20.27542 17.97083
#
# Velocity S-wave (km/s) = 2.95195 3.35824 3.16163
# Velocity P-wave (km/s) = 7.02578 7.28703 7.15760
#
# Compressibility (1/GPa) = 0.01473733
#
# Stress axis : x y z
#
# Youngs Moduli (GPa) = 48.47782 69.30929 52.92520
#
# Poissons Ratio (x) = 0.29212 0.53934
# Poissons Ratio (y) = 0.20432 0.27528
# Poissons Ratio (z) = 0.49402 0.36050
#
# Static dielectric constant tensor:
#      x y z
#    x 1.611320 0.000000 0.000000 
#    y 0.000000 1.383240 0.000000 
#    z 0.000000 0.000000 1.597170 
# 
# From -- ./inp_files/13097.got.cif
#   From: 2010.05.17/outbox.cif.g08.bks.cpg/sg40_7_cif.got.tgz:13097.got - 2010.06.03 18:35:42.
