data_PCOD9364587
_publ_section_title
;
Structure prediction by ZEFSAII (Michael W. Deem and Ramdas Pophale) SiO2 
 PCOD9364587
Probable space group: A M A 2
;
_chemical_formula_sum "Si O2"
_cell_formula_units_Z 64
_cell_length_a 8.907267
_cell_length_b 25.303819
_cell_length_c 15.231605
_cell_angle_alpha 90.000000
_cell_angle_beta 90.000000
_cell_angle_gamma 90.000000
_cell_volume 3433.019037
_symmetry_space_group_name_H-M "A M A 2"
_symmetry_group_IT_number 40
_symmetry_cell_setting 'orthorhombic'
loop_
_space_group_symop_operation_xyz
x,y,z
-x,-y,z
1/2-x,y,z
1/2+x,-y,z
x,1/2+y,1/2+z
-x,1/2-y,1/2+z
1/2-x,1/2+y,1/2+z
1/2+x,1/2-y,1/2+z
loop_
_atom_site_type_symbol
_atom_site_label
_atom_site_fract_x
_atom_site_fract_y
_atom_site_fract_z
Si Si1 0.925620 0.282749 0.117390
Si Si2 0.930596 0.364213 0.427222
Si Si3 0.427689 0.890990 0.596796
Si Si4 0.426928 0.241043 0.823601
Si Si5 0.070174 0.942955 0.411378
Si Si6 0.570168 0.442050 0.269014
Si Si7 0.570444 0.662202 0.602840
Si Si8 0.071128 0.148614 0.293376
O O1 0.750000 0.292687 0.098393
O O2 0.942588 0.279378 0.223216
O O3 0.966279 0.224164 0.085432
O O4 0.023185 0.330515 0.081327
O O5 0.750000 0.365153 0.438700
O O6 0.970676 0.307083 0.386109
O O7 0.970968 0.408029 0.354994
O O8 0.011453 0.370254 0.520043
O O9 0.250000 0.893617 0.612137
O O10 0.464210 0.925641 0.511449
O O11 0.512558 0.912448 0.682146
O O12 0.250000 0.253115 0.836255
O O13 0.519634 0.294712 0.832370
O O14 0.250000 0.944360 0.401352
O O15 0.001102 0.898539 0.348588
O O16 0.000000 0.000000 0.393299
O O17 0.500000 0.500000 0.272371
O O18 0.750000 0.445296 0.265215
O O19 0.750000 0.658584 0.613192
O O20 0.492156 0.647228 0.694047
O O21 0.250000 0.144997 0.293425
#
# Coordination Sequence:
#
# PCOD9364587 Si02
#       8
#     8   8   8   8   8   8   8   8
#     4   9  18  35  56  83 121 161 196 239 297 352
#     4  10  21  38  60  87 122 161 202 249 303 359
#     4  11  23  37  59  90 122 160 201 244 296 359
#     4   9  18  36  58  85 121 160 196 244 300 354
#     4  11  25  44  63  88 119 157 203 256 307 360
#     4  11  23  41  62  87 122 163 203 250 301 354
#     4  10  22  39  60  88 124 161 200 252 306 359
#     4  11  23  40  63  90 119 158 203 251 304 364
#
# _framework density 18.642482999999999
#
# number of rings (size 3 to 8) (size 9 to 14) (size 15 to 20)
#    0.000    1.750    1.250    3.750    1.750    7.000 
#    0.000    0.625    0.000    1.500    0.000    0.000 
#    0.000    0.000    0.000    0.000    0.000    0.000 
#
# Total GULP energy -178849.257821 kJ/mol
# GULP energy per Si atom -5589.039307 kJ/mol
# Density = 1.860005 g / cm^3
# Si number density = 18.642483 Si / 1000 Ang^3
#
#
#
# Elastic Constant Matrix: (Units=GPa)
#
#
# Indices 1 2 3 4 5 6 
#
# 1 60.8077 52.5934 41.1952 0.0000 0.0000 0.0000
# 2 52.5934 105.5993 44.0397 0.0000 0.0000 0.0000
# 3 41.1952 44.0397 70.8967 0.0000 0.0000 0.0000
# 4 0.0000 0.0000 0.0000 23.0938 0.0000 0.0000
# 5 0.0000 0.0000 0.0000 0.0000 158.3701 0.0000
# 6 0.0000 0.0000 0.0000 0.0000 0.0000 29.3204
#
#
#
# Elastic Compliance Matrix: (Units=1/GPa)
#
#
# Indices 1 2 3 4 5 6 
#
# 1 0.036296 -0.012527 -0.013309 0.000000 0.000000 0.000000
# 2 -0.012527 0.017104 -0.003346 0.000000 0.000000 0.000000
# 3 -0.013309 -0.003346 0.023917 0.000000 0.000000 0.000000
# 4 0.000000 0.000000 0.000000 0.043302 0.000000 0.000000
# 5 0.000000 0.000000 0.000000 0.000000 0.006314 0.000000
# 6 0.000000 0.000000 0.000000 0.000000 0.000000 0.034106
#
#
# Mechanical properties :
#
#
# Convention : Reuss Voigt Hill
#
# Bulk Modulus (GPa) = 52.75977 56.99558 54.87768
# Shear Modulus (GPa) = 22.15133 48.78854 35.46993
#
# Velocity S-wave (km/s) = 3.45079 5.12127 4.36666
# Velocity P-wave (km/s) = 6.65128 8.09995 7.41110
#
# Compressibility (1/GPa) = 0.01895384
#
# Stress axis : x y z
#
# Youngs Moduli (GPa) = 27.55108 58.46556 41.81177
#
# Poissons Ratio (x) = 0.73239 0.55647
# Poissons Ratio (y) = 0.34513 0.13990
# Poissons Ratio (z) = 0.36667 0.19562
#
# Static dielectric constant tensor:
#      x y z
#    x 1.614980 0.000000 0.000000 
#    y 0.000000 1.622930 0.000000 
#    z 0.000000 0.000000 1.642700 
# 
# From -- ./inp_files/15551.got.cif
#   From: 2010.05.17/outbox.cif.g08.bks.cpg/sg40_8_cif.got.tgz:15551.got - 2010.06.03 18:35:42.
