data_PCOD9364605
_publ_section_title
;
Structure prediction by ZEFSAII (Michael W. Deem and Ramdas Pophale) SiO2 
 PCOD9364605
Probable space group: A M A 2
;
_chemical_formula_sum "Si O2"
_cell_formula_units_Z 56
_cell_length_a 22.294656
_cell_length_b 21.742764
_cell_length_c 6.231289
_cell_angle_alpha 90.000000
_cell_angle_beta 90.000000
_cell_angle_gamma 90.000000
_cell_volume 3020.601415
_symmetry_space_group_name_H-M "A M A 2"
_symmetry_group_IT_number 40
_symmetry_cell_setting 'orthorhombic'
loop_
_space_group_symop_operation_xyz
x,y,z
-x,-y,z
1/2-x,y,z
1/2+x,-y,z
x,1/2+y,1/2+z
-x,1/2-y,1/2+z
1/2-x,1/2+y,1/2+z
1/2+x,1/2-y,1/2+z
loop_
_atom_site_type_symbol
_atom_site_label
_atom_site_fract_x
_atom_site_fract_y
_atom_site_fract_z
Si Si1 0.924371 0.691724 0.468760
Si Si2 0.991344 0.097488 0.275808
Si Si3 0.583197 0.428022 0.421189
Si Si4 0.320811 0.392750 0.372218
Si Si5 0.319516 0.010578 0.175196
Si Si6 0.601724 0.523898 0.060205
Si Si7 0.965134 0.318340 0.154426
O O1 0.857175 0.669962 0.415690
O O2 0.932423 0.755280 0.595114
O O3 0.949929 0.637710 0.619421
O O4 0.969708 0.694118 0.264188
O O5 0.025555 0.143175 0.437115
O O6 0.950037 0.055290 0.422678
O O7 0.037540 0.063859 0.118356
O O8 0.648711 0.441884 0.514495
O O9 0.574190 0.478581 0.236810
O O10 0.570953 0.361466 0.319926
O O11 0.250000 0.384767 0.327823
O O12 0.325640 0.442501 0.567315
O O13 0.357491 0.425628 0.180770
O O14 0.250000 0.023354 0.202969
O O15 0.354523 0.011456 0.398386
#
# Coordination Sequence:
#
# PCOD9364605 Si02
#       7
#     8   8   8   8   8   8   8
#     4  11  21  39  61  89 120 160 208 251 311 367
#     4  11  22  38  58  92 124 159 201 256 313 366
#     4  10  25  38  56  93 124 158 202 255 307 372
#     4  10  21  38  61  93 124 154 206 259 305 368
#     4  10  21  39  61  86 123 165 202 250 310 374
#     4  11  21  39  62  89 123 162 198 254 317 374
#     4  11  22  38  61  88 123 164 203 253 308 375
#
# _framework density 18.539353999999999
#
# number of rings (size 3 to 8) (size 9 to 14) (size 15 to 20)
#    0.000    1.429    4.286    1.286    0.000    4.000 
#    0.000    0.714    0.000    0.857    0.000    0.000 
#    0.000    0.000    0.000    0.000    0.000    0.000 
#
# Total GULP energy -156456.115839 kJ/mol
# GULP energy per Si atom -5587.718423 kJ/mol
# Density = 1.849716 g / cm^3
# Si number density = 18.539354 Si / 1000 Ang^3
#
#
#
# Elastic Constant Matrix: (Units=GPa)
#
#
# Indices 1 2 3 4 5 6 
#
# 1 126.2402 72.4421 48.3238 0.0000 0.0000 0.0000
# 2 72.4421 83.2118 33.8985 0.0000 0.0000 0.0000
# 3 48.3238 33.8985 94.8906 0.0000 0.0000 0.0000
# 4 0.0000 0.0000 0.0000 36.1297 0.0000 0.0000
# 5 0.0000 0.0000 0.0000 0.0000 21.4195 0.0000
# 6 0.0000 0.0000 0.0000 0.0000 0.0000 25.4664
#
#
#
# Elastic Compliance Matrix: (Units=1/GPa)
#
#
# Indices 1 2 3 4 5 6 
#
# 1 0.017004 -0.013196 -0.003945 0.000000 0.000000 0.000000
# 2 -0.013196 0.024305 -0.001963 0.000000 0.000000 0.000000
# 3 -0.003945 -0.001963 0.013249 0.000000 0.000000 0.000000
# 4 0.000000 0.000000 0.000000 0.027678 0.000000 0.000000
# 5 0.000000 0.000000 0.000000 0.000000 0.046686 0.000000
# 6 0.000000 0.000000 0.000000 0.000000 0.000000 0.039267
#
#
# Mechanical properties :
#
#
# Convention : Reuss Voigt Hill
#
# Bulk Modulus (GPa) = 61.16158 68.18571 64.67364
# Shear Modulus (GPa) = 23.60179 26.58166 25.09172
#
# Velocity S-wave (km/s) = 3.57187 3.79066 3.68289
# Velocity P-wave (km/s) = 7.07621 7.48449 7.28321
#
# Compressibility (1/GPa) = 0.01635013
#
# Stress axis : x y z
#
# Youngs Moduli (GPa) = 58.80893 41.14327 75.47890
#
# Poissons Ratio (x) = 0.54294 0.29779
# Poissons Ratio (y) = 0.77606 0.14813
# Poissons Ratio (z) = 0.23202 0.08074
#
# Static dielectric constant tensor:
#      x y z
#    x 1.627910 0.000000 0.000000 
#    y 0.000000 1.644960 0.000000 
#    z 0.000000 0.000000 1.664070 
# 
# From -- ./inp_files/2392.got.cif
#   From: 2010.05.17/outbox.cif.g08.bks.cpg/sg40_2_cif.got.tgz:2392.got - 2010.06.03 18:35:42.
