data_PCOD9364924
_publ_section_title
;
Structure prediction by ZEFSAII (Michael W. Deem and Ramdas Pophale) SiO2 
 PCOD9364924
Probable space group: A M A 2
;
_chemical_formula_sum "Si O2"
_cell_formula_units_Z 48
_cell_length_a 9.027188
_cell_length_b 22.102625
_cell_length_c 12.914415
_cell_angle_alpha 90.000000
_cell_angle_beta 90.000000
_cell_angle_gamma 90.000000
_cell_volume 2576.742856
_symmetry_space_group_name_H-M "A M A 2"
_symmetry_group_IT_number 40
_symmetry_cell_setting 'orthorhombic'
loop_
_space_group_symop_operation_xyz
x,y,z
-x,-y,z
1/2-x,y,z
1/2+x,-y,z
x,1/2+y,1/2+z
-x,1/2-y,1/2+z
1/2-x,1/2+y,1/2+z
1/2+x,1/2-y,1/2+z
loop_
_atom_site_type_symbol
_atom_site_label
_atom_site_fract_x
_atom_site_fract_y
_atom_site_fract_z
Si Si1 0.574302 0.392710 0.673880
Si Si2 0.072972 0.063156 0.945396
Si Si3 0.423838 0.402996 0.878003
Si Si4 0.427419 0.845193 0.787885
Si Si5 0.423370 0.284077 0.767411
Si Si6 0.572168 0.562275 0.107195
O O1 0.750000 0.384912 0.682590
O O2 0.541133 0.425648 0.566887
O O3 0.513066 0.425091 0.777419
O O4 0.494811 0.327058 0.679250
O O5 0.250000 0.061266 0.931016
O O6 0.002815 0.117432 0.880129
O O7 0.000000 0.000000 0.912971
O O8 0.250000 0.418094 0.866143
O O9 0.435343 0.329752 0.866075
O O10 0.477031 0.424777 0.989204
O O11 0.250000 0.844265 0.800212
O O12 0.490983 0.777845 0.781550
O O13 0.463493 0.882599 0.683328
O O14 0.250000 0.273399 0.747994
O O15 0.500000 0.500000 0.143850
O O16 0.750000 0.555901 0.106241
#
# Coordination Sequence:
#
# PCOD9364924 Si02
#       6
#     8   8   8   8   8   8
#     4   9  19  37  59  86 114 147 189 234 286 340
#     4  11  24  40  59  83 116 154 194 240 288 340
#     4   8  18  37  58  82 114 148 183 231 287 336
#     4  11  23  38  59  85 116 152 193 236 282 340
#     4   9  19  37  60  86 116 149 186 232 287 341
#     4  10  22  39  57  82 114 150 187 231 281 333
#
# _framework density 18.628167999999999
#
# number of rings (size 3 to 8) (size 9 to 14) (size 15 to 20)
#    1.000    1.333    0.000    2.000    0.000    8.000 
#    0.000    6.667    0.000    0.000    0.000    0.000 
#    0.000    0.000    0.000    0.000    0.000    0.000 
#
# Total GULP energy -133775.662420 kJ/mol
# GULP energy per Si atom -5573.985934 kJ/mol
# Density = 1.858577 g / cm^3
# Si number density = 18.628168 Si / 1000 Ang^3
#
#
#
# Elastic Constant Matrix: (Units=GPa)
#
#
# Indices 1 2 3 4 5 6 
#
# 1 55.6264 35.2586 37.9177 0.0000 0.0000 0.0000
# 2 35.2586 93.9282 13.4403 0.0000 0.0000 0.0000
# 3 37.9177 13.4403 80.3783 0.0000 0.0000 0.0000
# 4 0.0000 0.0000 0.0000 26.3020 0.0000 0.0000
# 5 0.0000 0.0000 0.0000 0.0000 16.2207 0.0000
# 6 0.0000 0.0000 0.0000 0.0000 0.0000 -9.2440
#
#
#
# Elastic Compliance Matrix: (Units=1/GPa)
#
#
# Indices 1 2 3 4 5 6 
#
# 1 0.034944 -0.011022 -0.014641 0.000000 0.000000 0.000000
# 2 -0.011022 0.014384 0.002794 0.000000 0.000000 0.000000
# 3 -0.014641 0.002794 0.018881 0.000000 0.000000 0.000000
# 4 0.000000 0.000000 0.000000 0.038020 0.000000 0.000000
# 5 0.000000 0.000000 0.000000 0.000000 0.061650 0.000000
# 6 0.000000 0.000000 0.000000 0.000000 0.000000 -0.108178
#
#
# Mechanical properties :
#
#
# Convention : Reuss Voigt Hill
#
# Bulk Modulus (GPa) = 44.50285 44.79624 44.64954
# Shear Modulus (GPa) = 44.27611 16.21016 30.24314
#
# Velocity S-wave (km/s) = 4.88057 2.95311 4.03366
# Velocity P-wave (km/s) = 7.46337 5.97726 6.76127
#
# Compressibility (1/GPa) = 0.02247047
#
# Stress axis : x y z
#
# Youngs Moduli (GPa) = 28.61755 69.52158 52.96378
#
# Poissons Ratio (x) = 0.76627 0.77546
# Poissons Ratio (y) = 0.31542 -0.14800
# Poissons Ratio (z) = 0.41900 -0.19427
#
# Static dielectric constant tensor:
#      x y z
#    x 1.622880 0.000000 0.000000 
#    y 0.000000 1.623090 0.000000 
#    z 0.000000 0.000000 1.645300 
# 
# From -- ./inp_files/10256.got.cif
#   From: 2010.05.17/outbox.cif.g08.bks.cpg/sg40_6_cif.got.tgz:10256.got - 2010.06.03 18:35:42.
