data_PCOD9364719
_publ_section_title
;
Structure prediction by ZEFSAII (Michael W. Deem and Ramdas Pophale) SiO2 
 PCOD9364719
Probable space group: A M A 2
;
_chemical_formula_sum "Si O2"
_cell_formula_units_Z 48
_cell_length_a 7.947440
_cell_length_b 23.502614
_cell_length_c 11.815511
_cell_angle_alpha 90.000000
_cell_angle_beta 90.000000
_cell_angle_gamma 90.000000
_cell_volume 2206.967484
_symmetry_space_group_name_H-M "A M A 2"
_symmetry_group_IT_number 40
_symmetry_cell_setting 'orthorhombic'
loop_
_space_group_symop_operation_xyz
x,y,z
-x,-y,z
1/2-x,y,z
1/2+x,-y,z
x,1/2+y,1/2+z
-x,1/2-y,1/2+z
1/2-x,1/2+y,1/2+z
1/2+x,1/2-y,1/2+z
loop_
_atom_site_type_symbol
_atom_site_label
_atom_site_fract_x
_atom_site_fract_y
_atom_site_fract_z
Si Si1 0.054815 0.935156 0.190260
Si Si2 0.547808 0.144881 0.741819
Si Si3 0.449338 0.140844 0.001718
Si Si4 0.441793 0.849848 0.371109
Si Si5 0.543945 0.735200 0.053403
Si Si6 0.445788 0.064620 0.554460
O O1 0.250000 0.934765 0.220066
O O2 0.974890 0.885182 0.268804
O O3 0.029330 0.913384 0.062903
O O4 0.000000 0.000000 0.208135
O O5 0.750000 0.143379 0.740726
O O6 0.492968 0.197860 0.661942
O O7 0.477445 0.089265 0.678965
O O8 0.486363 0.146734 0.869445
O O9 0.250000 0.136526 0.018126
O O10 0.511520 0.199805 0.057829
O O11 0.250000 0.834179 0.339901
O O12 0.516671 0.795241 0.436691
O O13 0.444460 0.896440 0.471518
O O14 0.750000 0.734298 0.049648
O O15 0.250000 0.071271 0.524350
O O16 0.500000 0.000000 0.544611
#
# Coordination Sequence:
#
# PCOD9364719 Si02
#       6
#     8   8   8   8   8   8
#     4  11  24  41  62  88 123 166 210 253 303 362
#     4  10  21  40  60  84 118 155 197 244 297 355
#     4  11  23  39  61  89 122 159 201 248 301 362
#     4   9  19  38  62  89 122 158 197 247 301 355
#     4   8  18  37  61  88 121 155 191 243 303 361
#     4  11  21  35  58  88 118 153 195 243 297 353
#
# _framework density 21.749302
#
# number of rings (size 3 to 8) (size 9 to 14) (size 15 to 20)
#    0.000    2.000    0.000    4.500    2.333    3.333 
#    0.000   10.833    0.000    0.000    0.000    0.000 
#    0.000    0.000    0.000    0.000    0.000    0.000 
#
# Total GULP energy -133993.119329 kJ/mol
# GULP energy per Si atom -5583.046639 kJ/mol
# Density = 2.169980 g / cm^3
# Si number density = 21.749302 Si / 1000 Ang^3
#
#
#
# Elastic Constant Matrix: (Units=GPa)
#
#
# Indices 1 2 3 4 5 6 
#
# 1 50.2396 1.7198 -8.8660 0.0000 0.0000 0.0000
# 2 1.7198 66.4545 10.3486 0.0000 0.0000 0.0000
# 3 -8.8660 10.3486 84.0833 0.0000 0.0000 0.0000
# 4 0.0000 0.0000 0.0000 18.1894 0.0000 0.0000
# 5 0.0000 0.0000 0.0000 0.0000 20.8060 0.0000
# 6 0.0000 0.0000 0.0000 0.0000 0.0000 11.9515
#
#
#
# Elastic Compliance Matrix: (Units=1/GPa)
#
#
# Indices 1 2 3 4 5 6 
#
# 1 0.020332 -0.000877 0.002252 0.000000 0.000000 0.000000
# 2 -0.000877 0.015380 -0.001985 0.000000 0.000000 0.000000
# 3 0.002252 -0.001985 0.012375 0.000000 0.000000 0.000000
# 4 0.000000 0.000000 0.000000 0.054977 0.000000 0.000000
# 5 0.000000 0.000000 0.000000 0.000000 0.048063 0.000000
# 6 0.000000 0.000000 0.000000 0.000000 0.000000 0.083671
#
#
# Mechanical properties :
#
#
# Convention : Reuss Voigt Hill
#
# Bulk Modulus (GPa) = 21.33754 23.02024 22.17889
# Shear Modulus (GPa) = 19.86963 23.36107 21.61535
#
# Velocity S-wave (km/s) = 3.02582 3.28091 3.15594
# Velocity P-wave (km/s) = 4.69462 4.99598 4.84764
#
# Compressibility (1/GPa) = 0.04686575
#
# Stress axis : x y z
#
# Youngs Moduli (GPa) = 49.18351 65.02055 80.80973
#
# Poissons Ratio (x) = 0.05701 -0.18197
# Poissons Ratio (y) = 0.04313 0.16043
# Poissons Ratio (z) = -0.11075 0.12909
#
# Static dielectric constant tensor:
#      x y z
#    x 1.787780 0.000000 0.000000 
#    y 0.000000 1.789480 0.000000 
#    z 0.000000 0.000000 1.813720 
# 
# From -- ./inp_files/10264.got.cif
#   From: 2010.05.17/outbox.cif.g08.bks.cpg/sg40_6_cif.got.tgz:10264.got - 2010.06.03 18:35:42.
