data_PCOD9364042
_publ_section_title
;
Structure prediction by ZEFSAII (Michael W. Deem and Ramdas Pophale) SiO2 
 PCOD9364042
Probable space group: A M A 2
;
_chemical_formula_sum "Si O2"
_cell_formula_units_Z 64
_cell_length_a 8.714056
_cell_length_b 27.852251
_cell_length_c 12.674578
_cell_angle_alpha 90.000000
_cell_angle_beta 90.000000
_cell_angle_gamma 90.000000
_cell_volume 3076.197078
_symmetry_space_group_name_H-M "A M A 2"
_symmetry_group_IT_number 40
_symmetry_cell_setting 'orthorhombic'
loop_
_space_group_symop_operation_xyz
x,y,z
-x,-y,z
1/2-x,y,z
1/2+x,-y,z
x,1/2+y,1/2+z
-x,1/2-y,1/2+z
1/2-x,1/2+y,1/2+z
1/2+x,1/2-y,1/2+z
loop_
_atom_site_type_symbol
_atom_site_label
_atom_site_fract_x
_atom_site_fract_y
_atom_site_fract_z
Si Si1 0.066893 0.416499 0.001720
Si Si2 0.434267 0.947736 0.265156
Si Si3 0.430124 0.791929 0.974396
Si Si4 0.577271 0.819011 0.753470
Si Si5 0.067463 0.624248 0.593100
Si Si6 0.571309 0.195553 0.539494
Si Si7 0.429856 0.950409 0.934631
Si Si8 0.577862 0.433309 0.218615
O O1 0.250000 0.421914 0.017944
O O2 0.034872 0.359069 0.005175
O O3 0.979998 0.440606 0.099827
O O4 0.026204 0.437159 0.887504
O O5 0.250000 0.948033 0.254598
O O6 0.501387 0.905667 0.191610
O O7 0.500000 0.000000 0.236080
O O8 0.250000 0.801011 0.964557
O O9 0.495147 0.823547 0.071515
O O10 0.466833 0.735949 0.987736
O O11 0.517142 0.808498 0.869285
O O12 0.750000 0.799526 0.738433
O O13 0.462323 0.800601 0.664134
O O14 0.584891 0.875987 0.735117
O O15 0.250000 0.627781 0.600000
O O16 0.018405 0.592607 0.491470
O O17 0.750000 0.204710 0.516559
O O18 0.250000 0.946841 0.956572
O O19 0.462883 0.949559 0.809812
O O20 0.500000 0.000000 0.976197
O O21 0.750000 0.452758 0.235256
#
# Coordination Sequence:
#
# PCOD9364042 Si02
#       8
#     8   8   8   8   8   8   8   8
#     4   9  21  41  65  90 125 168 214 264 320 380
#     4  11  24  44  67  94 128 173 221 273 332 394
#     4  12  24  39  62  92 126 168 214 264 325 390
#     4  10  20  37  60  86 121 160 201 255 315 378
#     4  12  25  43  64  90 124 164 213 267 323 386
#     4  10  21  39  62  91 125 166 215 269 325 384
#     4  12  24  39  61  89 123 159 201 252 311 375
#     4  10  20  36  61  90 122 158 200 251 311 372
#
# _framework density 20.804908000000001
#
# number of rings (size 3 to 8) (size 9 to 14) (size 15 to 20)
#    0.000    1.250    1.250    5.250    0.000    4.000 
#    0.000    5.000    0.000    0.000    0.000    0.000 
#    0.000    0.000    0.000    0.000    0.000    0.000 
#
# Total GULP energy -178946.438152 kJ/mol
# GULP energy per Si atom -5592.076192 kJ/mol
# Density = 2.075756 g / cm^3
# Si number density = 20.804908 Si / 1000 Ang^3
#
#
#
# Elastic Constant Matrix: (Units=GPa)
#
#
# Indices 1 2 3 4 5 6 
#
# 1 78.7093 9.7181 7.9521 0.0000 0.0000 0.0000
# 2 9.7181 42.8619 2.4782 0.0000 0.0000 0.0000
# 3 7.9521 2.4782 88.2470 0.0000 0.0000 0.0000
# 4 0.0000 0.0000 0.0000 -86.0460 0.0000 0.0000
# 5 0.0000 0.0000 0.0000 0.0000 30.6175 0.0000
# 6 0.0000 0.0000 0.0000 0.0000 0.0000 29.8655
#
#
#
# Elastic Compliance Matrix: (Units=1/GPa)
#
#
# Indices 1 2 3 4 5 6 
#
# 1 0.013178 -0.002924 -0.001105 0.000000 0.000000 0.000000
# 2 -0.002924 0.024017 -0.000411 0.000000 0.000000 0.000000
# 3 -0.001105 -0.000411 0.011443 0.000000 0.000000 0.000000
# 4 0.000000 0.000000 0.000000 -0.011622 0.000000 0.000000
# 5 0.000000 0.000000 0.000000 0.000000 0.032661 0.000000
# 6 0.000000 0.000000 0.000000 0.000000 0.000000 0.033483
#
#
# Mechanical properties :
#
#
# Convention : Reuss Voigt Hill
#
# Bulk Modulus (GPa) = 25.15242 27.79057 26.47149
# Shear Modulus (GPa) = 39.90620 7.53206 23.71913
#
# Velocity S-wave (km/s) = 4.38438 1.90478 3.38016
# Velocity P-wave (km/s) = 6.14380 4.26899 5.29011
#
# Compressibility (1/GPa) = 0.03975761
#
# Stress axis : x y z
#
# Youngs Moduli (GPa) = 75.88601 41.63646 87.38980
#
# Poissons Ratio (x) = 0.12174 0.09660
# Poissons Ratio (y) = 0.22188 0.03592
# Poissons Ratio (z) = 0.08388 0.01711
#
# Static dielectric constant tensor:
#      x y z
#    x 1.701790 0.000000 0.000000 
#    y 0.000000 1.840940 0.000000 
#    z 0.000000 0.000000 1.730540 
# 
# From -- ./inp_files/10577.got.cif
#   From: 2010.05.17/outbox.cif.g08.bks.cpg/sg40_6_cif.got.tgz:10577.got - 2010.06.03 18:35:42.
