data_PCOD9364522
_publ_section_title
;
Structure prediction by ZEFSAII (Michael W. Deem and Ramdas Pophale) SiO2 
 PCOD9364522
Probable space group: A M A 2
;
_chemical_formula_sum "Si O2"
_cell_formula_units_Z 64
_cell_length_a 24.675062
_cell_length_b 11.019345
_cell_length_c 9.575602
_cell_angle_alpha 90.000000
_cell_angle_beta 90.000000
_cell_angle_gamma 90.000000
_cell_volume 2603.635112
_symmetry_space_group_name_H-M "A M A 2"
_symmetry_group_IT_number 40
_symmetry_cell_setting 'orthorhombic'
loop_
_space_group_symop_operation_xyz
x,y,z
-x,-y,z
1/2-x,y,z
1/2+x,-y,z
x,1/2+y,1/2+z
-x,1/2-y,1/2+z
1/2-x,1/2+y,1/2+z
1/2+x,1/2-y,1/2+z
loop_
_atom_site_type_symbol
_atom_site_label
_atom_site_fract_x
_atom_site_fract_y
_atom_site_fract_z
Si Si1 0.489686 0.699190 0.478150
Si Si2 0.022887 0.367203 0.747573
Si Si3 0.143721 0.827459 0.692618
Si Si4 0.313668 0.772489 0.395345
Si Si5 0.310524 0.060314 0.689100
Si Si6 0.355175 0.885165 0.143502
Si Si7 0.585314 0.015173 0.904924
Si Si8 0.813976 0.819943 0.429173
O O1 0.486673 0.714728 0.643562
O O2 0.489037 0.825377 0.402178
O O3 0.544222 0.621146 0.456928
O O4 0.445721 0.610914 0.408891
O O5 0.086327 0.354711 0.713577
O O6 0.000000 0.500000 0.720591
O O7 0.149446 0.792642 0.531728
O O8 0.193230 0.919711 0.725729
O O9 0.101590 0.928090 0.754891
O O10 0.150550 0.711773 0.793174
O O11 0.250000 0.759174 0.436627
O O12 0.332355 0.651931 0.307175
O O13 0.318101 0.881986 0.281434
O O14 0.250000 0.109118 0.672108
O O15 0.333168 0.071122 0.531171
O O16 0.327543 0.789035 0.037999
O O17 0.370032 0.988022 0.030104
O O18 0.750000 0.828265 0.392626
#
# Coordination Sequence:
#
# PCOD9364522 Si02
#       8
#     8   8   8   8   8   8   8   8
#     4  10  21  43  65  87 132 161 201 269 313 365
#     4  11  22  43  67  91 126 165 208 258 318 374
#     4  11  21  37  63  88 121 162 208 252 304 366
#     4  10  21  37  59  92 126 156 206 260 299 362
#     4   9  19  36  57  82 117 163 201 246 309 357
#     4   9  18  37  61  84 122 161 203 243 307 366
#     4   9  20  41  61  91 126 167 206 253 316 375
#     4   9  18  34  57  86 120 159 202 245 298 361
#
# _framework density 24.581016999999999
#
# number of rings (size 3 to 8) (size 9 to 14) (size 15 to 20)
#    0.000    2.250    2.500    2.250    3.500    1.000 
#    4.500    3.750    0.000    7.500    0.000    0.000 
#    0.000    0.000    0.000    0.000    0.000    0.000 
#
# Total GULP energy -178178.284335 kJ/mol
# GULP energy per Si atom -5568.071385 kJ/mol
# Density = 2.452507 g / cm^3
# Si number density = 24.581017 Si / 1000 Ang^3
#
#
#
# Elastic Constant Matrix: (Units=GPa)
#
#
# Indices 1 2 3 4 5 6 
#
# 1 29.9906 5.8100 -1.2847 0.0000 0.0000 0.0000
# 2 5.8100 35.1829 24.9827 0.0000 0.0000 0.0000
# 3 -1.2847 24.9827 153.3912 0.0000 0.0000 0.0000
# 4 0.0000 0.0000 0.0000 44.8792 0.0000 0.0000
# 5 0.0000 0.0000 0.0000 0.0000 23.6427 0.0000
# 6 0.0000 0.0000 0.0000 0.0000 0.0000 13.0656
#
#
#
# Elastic Compliance Matrix: (Units=1/GPa)
#
#
# Indices 1 2 3 4 5 6 
#
# 1 0.034704 -0.006714 0.001384 0.000000 0.000000 0.000000
# 2 -0.006714 0.033439 -0.005502 0.000000 0.000000 0.000000
# 3 0.001384 -0.005502 0.007427 0.000000 0.000000 0.000000
# 4 0.000000 0.000000 0.000000 0.022282 0.000000 0.000000
# 5 0.000000 0.000000 0.000000 0.000000 0.042296 0.000000
# 6 0.000000 0.000000 0.000000 0.000000 0.000000 0.076537
#
#
# Mechanical properties :
#
#
# Convention : Reuss Voigt Hill
#
# Bulk Modulus (GPa) = 18.55098 30.84230 24.69664
# Shear Modulus (GPa) = 19.50709 28.92129 24.21419
#
# Velocity S-wave (km/s) = 2.82012 3.43384 3.14200
# Velocity P-wave (km/s) = 4.26232 5.31941 4.81993
#
# Compressibility (1/GPa) = 0.05390551
#
# Stress axis : x y z
#
# Youngs Moduli (GPa) = 28.81540 29.90544 134.64318
#
# Poissons Ratio (x) = 0.20078 -0.18636
# Poissons Ratio (y) = 0.19346 0.74086
# Poissons Ratio (z) = -0.03988 0.16455
#
# Static dielectric constant tensor:
#      x y z
#    x 2.238000 0.000000 0.000000 
#    y 0.000000 1.970930 0.000000 
#    z 0.000000 0.000000 2.045960 
# 
# From -- ./inp_files/9435.got.cif
#   From: 2010.05.17/outbox.cif.g08.bks.cpg/sg40_5_cif.got.tgz:9435.got - 2010.06.03 18:35:42.
