data_PCOD9364283
_publ_section_title
;
Structure prediction by ZEFSAII (Michael W. Deem and Ramdas Pophale) SiO2 
 PCOD9364283
Probable space group: A M A 2
;
_chemical_formula_sum "Si O2"
_cell_formula_units_Z 56
_cell_length_a 19.881758
_cell_length_b 15.353941
_cell_length_c 9.653258
_cell_angle_alpha 90.000000
_cell_angle_beta 90.000000
_cell_angle_gamma 90.000000
_cell_volume 2946.785772
_symmetry_space_group_name_H-M "A M A 2"
_symmetry_group_IT_number 40
_symmetry_cell_setting 'orthorhombic'
loop_
_space_group_symop_operation_xyz
x,y,z
-x,-y,z
1/2-x,y,z
1/2+x,-y,z
x,1/2+y,1/2+z
-x,1/2-y,1/2+z
1/2-x,1/2+y,1/2+z
1/2+x,1/2-y,1/2+z
loop_
_atom_site_type_symbol
_atom_site_label
_atom_site_fract_x
_atom_site_fract_y
_atom_site_fract_z
Si Si1 0.324088 0.728834 0.185680
Si Si2 0.055752 0.139281 0.338028
Si Si3 0.326068 0.865351 0.633769
Si Si4 0.076808 0.769580 0.427834
Si Si5 0.827772 0.440802 0.015742
Si Si6 0.626803 0.685350 0.419563
Si Si7 0.994546 0.399859 0.531015
O O1 0.250000 0.735912 0.249433
O O2 0.380068 0.766849 0.287163
O O3 0.337173 0.628969 0.140120
O O4 0.325334 0.778103 0.038516
O O5 0.110520 0.076717 0.410543
O O6 0.094522 0.231606 0.340459
O O7 0.031927 0.105771 0.188841
O O8 0.987059 0.165177 0.418477
O O9 0.250000 0.833056 0.616154
O O10 0.376561 0.803173 0.551322
O O11 0.341475 0.869976 0.797059
O O12 0.331341 0.961263 0.569278
O O13 0.051640 0.670630 0.451426
O O14 0.750000 0.426274 0.963121
O O15 0.568605 0.637208 0.503810
O O16 0.000000 0.500000 0.485630
#
# Coordination Sequence:
#
# PCOD9364283 Si02
#       7
#     8   8   8   8   8   8   8
#     4  10  20  39  64  88 124 165 204 252 314 380
#     4  10  21  41  62  87 127 160 209 258 310 374
#     4  11  23  41  64  95 127 161 211 258 307 378
#     4  11  23  40  61  93 121 165 207 257 315 365
#     4   9  22  39  63  92 124 165 207 256 317 378
#     4  10  21  40  62  89 123 165 202 253 315 373
#     4  11  24  39  59  89 123 161 208 262 307 367
#
# _framework density 19.003757
#
# number of rings (size 3 to 8) (size 9 to 14) (size 15 to 20)
#    0.000    1.714    2.857    0.857    4.000    0.571 
#    0.000    0.000    0.000    0.857    0.000    0.000 
#    0.000    0.000    0.000    0.000    0.000    0.000 
#
# Total GULP energy -156059.917456 kJ/mol
# GULP energy per Si atom -5573.568481 kJ/mol
# Density = 1.896050 g / cm^3
# Si number density = 19.003757 Si / 1000 Ang^3
#
#
#
# Elastic Constant Matrix: (Units=GPa)
#
#
# Indices 1 2 3 4 5 6 
#
# 1 121.4897 32.6618 52.4206 0.0000 0.0000 0.0000
# 2 32.6618 63.6282 20.5740 0.0000 0.0000 0.0000
# 3 52.4206 20.5740 86.6199 0.0000 0.0000 0.0000
# 4 0.0000 0.0000 0.0000 19.4893 0.0000 0.0000
# 5 0.0000 0.0000 0.0000 0.0000 25.5490 0.0000
# 6 0.0000 0.0000 0.0000 0.0000 0.0000 65.9082
#
#
#
# Elastic Compliance Matrix: (Units=1/GPa)
#
#
# Indices 1 2 3 4 5 6 
#
# 1 0.012076 -0.004155 -0.006321 0.000000 0.000000 0.000000
# 2 -0.004155 0.018453 -0.001869 0.000000 0.000000 0.000000
# 3 -0.006321 -0.001869 0.015814 0.000000 0.000000 0.000000
# 4 0.000000 0.000000 0.000000 0.051310 0.000000 0.000000
# 5 0.000000 0.000000 0.000000 0.000000 0.039141 0.000000
# 6 0.000000 0.000000 0.000000 0.000000 0.000000 0.015173
#
#
# Mechanical properties :
#
#
# Convention : Reuss Voigt Hill
#
# Bulk Modulus (GPa) = 46.18125 53.67229 49.92677
# Shear Modulus (GPa) = 27.19271 33.26139 30.22705
#
# Velocity S-wave (km/s) = 3.78684 4.18814 3.99254
# Velocity P-wave (km/s) = 6.59349 7.18969 6.89804
#
# Compressibility (1/GPa) = 0.02165381
#
# Stress axis : x y z
#
# Youngs Moduli (GPa) = 82.81207 54.19095 63.23556
#
# Poissons Ratio (x) = 0.22515 0.39971
# Poissons Ratio (y) = 0.34406 0.11817
# Poissons Ratio (z) = 0.52346 0.10126
#
# Static dielectric constant tensor:
#      x y z
#    x 1.697110 0.000000 0.000000 
#    y 0.000000 1.660810 0.000000 
#    z 0.000000 0.000000 1.653010 
# 
# From -- ./inp_files/8330.got.cif
#   From: 2010.05.17/outbox.cif.g08.bks.cpg/sg40_5_cif.got.tgz:8330.got - 2010.06.03 18:35:42.
