data_PCOD9364942
_publ_section_title
;
Structure prediction by ZEFSAII (Michael W. Deem and Ramdas Pophale) SiO2 
 PCOD9364942
Probable space group: A M A 2
;
_chemical_formula_sum "Si O2"
_cell_formula_units_Z 60
_cell_length_a 9.051357
_cell_length_b 26.593822
_cell_length_c 12.433110
_cell_angle_alpha 90.000000
_cell_angle_beta 90.000000
_cell_angle_gamma 90.000000
_cell_volume 2992.776108
_symmetry_space_group_name_H-M "A M A 2"
_symmetry_group_IT_number 40
_symmetry_cell_setting 'orthorhombic'
loop_
_space_group_symop_operation_xyz
x,y,z
-x,-y,z
1/2-x,y,z
1/2+x,-y,z
x,1/2+y,1/2+z
-x,1/2-y,1/2+z
1/2-x,1/2+y,1/2+z
1/2+x,1/2-y,1/2+z
loop_
_atom_site_type_symbol
_atom_site_label
_atom_site_fract_x
_atom_site_fract_y
_atom_site_fract_z
Si Si1 0.924535 0.382531 0.239390
Si Si2 0.000000 0.000000 0.341814
Si Si3 0.576279 0.776005 0.636793
Si Si4 0.076766 0.183965 0.225388
Si Si5 0.084198 0.584474 0.999587
Si Si6 0.424514 0.947319 0.919126
Si Si7 0.420497 0.821848 0.440111
Si Si8 0.081243 0.916842 0.166618
O O1 0.750000 0.385487 0.261702
O O2 0.959665 0.323883 0.214105
O O3 0.011727 0.405076 0.339561
O O4 0.949158 0.414428 0.127993
O O5 0.929899 0.039828 0.257297
O O6 0.087797 0.034412 0.427866
O O7 0.750000 0.764088 0.647605
O O8 0.470600 0.728057 0.645866
O O9 0.536446 0.798025 0.521247
O O10 0.250000 0.185851 0.251432
O O11 0.967999 0.195909 0.323942
O O12 0.032277 0.128201 0.188503
O O13 0.250000 0.607002 0.991045
O O14 0.958112 0.619078 0.947652
O O15 0.250000 0.951078 0.902936
O O16 0.500000 0.000000 0.891100
O O17 0.449161 0.936761 0.046055
O O18 0.250000 0.812148 0.465301
O O19 0.250000 0.897062 0.168743
#
# Coordination Sequence:
#
# PCOD9364942 Si02
#       8
#     8   4   8   8   8   8   8   8
#     4   9  21  42  65  94 128 165 210 263 322 381
#     4  12  22  38  68  94 132 166 218 258 332 384
#     4  10  22  43  68  93 127 165 211 271 326 382
#     4  12  25  41  65  95 129 169 214 263 322 389
#     4  10  22  39  62  94 128 164 212 266 321 379
#     4  11  24  42  64  92 128 171 217 265 315 377
#     4  11  22  39  63  92 127 165 209 259 319 384
#     4  11  25  43  63  93 130 170 218 270 322 383
#
# _framework density 20.048276000000001
#
# number of rings (size 3 to 8) (size 9 to 14) (size 15 to 20)
#    0.000    1.333    2.000    4.400    0.933    5.867 
#    0.000    2.667    0.000    0.000    0.000    0.000 
#    0.000    0.000    0.000    0.000    0.000    0.000 
#
# Total GULP energy -167277.365080 kJ/mol
# GULP energy per Si atom -5575.912169 kJ/mol
# Density = 2.000265 g / cm^3
# Si number density = 20.048276 Si / 1000 Ang^3
#
#
#
# Elastic Constant Matrix: (Units=GPa)
#
#
# Indices 1 2 3 4 5 6 
#
# 1 67.2409 21.0681 17.1293 0.0000 0.0000 0.0000
# 2 21.0681 69.5917 16.7661 0.0000 0.0000 0.0000
# 3 17.1293 16.7661 42.3496 0.0000 0.0000 0.0000
# 4 0.0000 0.0000 0.0000 17.0305 0.0000 0.0000
# 5 0.0000 0.0000 0.0000 0.0000 16.8504 0.0000
# 6 0.0000 0.0000 0.0000 0.0000 0.0000 31.6722
#
#
#
# Elastic Compliance Matrix: (Units=1/GPa)
#
#
# Indices 1 2 3 4 5 6 
#
# 1 0.017522 -0.003976 -0.005513 0.000000 0.000000 0.000000
# 2 -0.003976 0.016787 -0.005038 0.000000 0.000000 0.000000
# 3 -0.005513 -0.005038 0.027837 0.000000 0.000000 0.000000
# 4 0.000000 0.000000 0.000000 0.058718 0.000000 0.000000
# 5 0.000000 0.000000 0.000000 0.000000 0.059346 0.000000
# 6 0.000000 0.000000 0.000000 0.000000 0.000000 0.031573
#
#
# Mechanical properties :
#
#
# Convention : Reuss Voigt Hill
#
# Bulk Modulus (GPa) = 30.21844 32.12325 31.17085
# Shear Modulus (GPa) = 19.85159 21.39185 20.62172
#
# Velocity S-wave (km/s) = 3.15014 3.27007 3.21066
# Velocity P-wave (km/s) = 5.32323 5.50595 5.41536
#
# Compressibility (1/GPa) = 0.03309238
#
# Stress axis : x y z
#
# Youngs Moduli (GPa) = 57.07034 59.56984 35.92309
#
# Poissons Ratio (x) = 0.23688 0.19804
# Poissons Ratio (y) = 0.22694 0.18097
# Poissons Ratio (z) = 0.31463 0.30009
#
# Static dielectric constant tensor:
#      x y z
#    x 1.677050 0.000000 0.000000 
#    y 0.000000 1.768450 0.000000 
#    z 0.000000 0.000000 1.725840 
# 
# From -- ./inp_files/10445.got.cif
#   From: 2010.05.17/outbox.cif.g08.bks.cpg/sg40_6_cif.got.tgz:10445.got - 2010.06.03 18:35:42.
