data_PCOD9364961
_publ_section_title
;
Structure prediction by ZEFSAII (Michael W. Deem and Ramdas Pophale) SiO2 
 PCOD9364961
Probable space group: A M A 2
;
_chemical_formula_sum "Si O2"
_cell_formula_units_Z 48
_cell_length_a 8.813467
_cell_length_b 20.719614
_cell_length_c 14.673602
_cell_angle_alpha 90.000000
_cell_angle_beta 90.000000
_cell_angle_gamma 90.000000
_cell_volume 2679.570441
_symmetry_space_group_name_H-M "A M A 2"
_symmetry_group_IT_number 40
_symmetry_cell_setting 'orthorhombic'
loop_
_space_group_symop_operation_xyz
x,y,z
-x,-y,z
1/2-x,y,z
1/2+x,-y,z
x,1/2+y,1/2+z
-x,1/2-y,1/2+z
1/2-x,1/2+y,1/2+z
1/2+x,1/2-y,1/2+z
loop_
_atom_site_type_symbol
_atom_site_label
_atom_site_fract_x
_atom_site_fract_y
_atom_site_fract_z
Si Si1 0.568427 0.624168 0.956540
Si Si2 0.068430 0.429712 0.755629
Si Si3 0.931842 0.816693 0.133140
Si Si4 0.569548 0.431655 0.139976
Si Si5 0.068214 0.767790 0.950419
Si Si6 0.568594 0.686977 0.246873
O O1 0.750000 0.625582 0.968867
O O2 0.533209 0.591688 0.859488
O O3 0.505403 0.696903 0.955969
O O4 0.494149 0.586139 0.039996
O O5 0.250000 0.430823 0.745755
O O6 0.000000 0.500000 0.738461
O O7 0.998203 0.376763 0.688386
O O8 0.750000 0.821523 0.127665
O O9 0.968846 0.750952 0.188505
O O10 0.003294 0.809307 0.033493
O O11 0.500000 0.500000 0.168664
O O12 0.750000 0.435686 0.136719
O O13 0.517062 0.374136 0.206102
O O14 0.250000 0.761591 0.958149
O O15 0.033261 0.798436 0.852094
O O16 0.750000 0.676435 0.238361
#
# Coordination Sequence:
#
# PCOD9364961 Si02
#       6
#     8   8   8   8   8   8
#     4  11  22  37  60  91 126 160 199 248 302 361
#     4  11  24  40  61  89 124 163 205 250 303 363
#     4  11  22  39  63  90 124 160 200 250 302 357
#     4  12  25  40  62  89 124 163 203 249 304 364
#     4  11  22  38  62  92 123 158 203 251 299 353
#     4  10  22  40  62  89 123 160 201 249 299 357
#
# _framework density 17.913319000000001
#
# number of rings (size 3 to 8) (size 9 to 14) (size 15 to 20)
#    0.000    1.000    3.333    4.000    0.000    5.333 
#    0.000    0.833    0.000    4.000    0.000    0.000 
#    0.000    0.000    0.000    0.000    0.000    0.000 
#
# Total GULP energy -134251.942104 kJ/mol
# GULP energy per Si atom -5593.830921 kJ/mol
# Density = 1.787255 g / cm^3
# Si number density = 17.913319 Si / 1000 Ang^3
#
#
#
# Elastic Constant Matrix: (Units=GPa)
#
#
# Indices 1 2 3 4 5 6 
#
# 1 79.2073 62.8750 57.8225 0.0000 0.0000 0.0000
# 2 62.8750 142.6186 55.3736 0.0000 0.0000 0.0000
# 3 57.8225 55.3736 117.5571 0.0000 0.0000 0.0000
# 4 0.0000 0.0000 0.0000 13.1752 0.0000 0.0000
# 5 0.0000 0.0000 0.0000 0.0000 43.6968 0.0000
# 6 0.0000 0.0000 0.0000 0.0000 0.0000 28.8565
#
#
#
# Elastic Compliance Matrix: (Units=1/GPa)
#
#
# Indices 1 2 3 4 5 6 
#
# 1 0.025083 -0.007671 -0.008724 0.000000 0.000000 0.000000
# 2 -0.007671 0.010927 -0.001374 0.000000 0.000000 0.000000
# 3 -0.008724 -0.001374 0.013445 0.000000 0.000000 0.000000
# 4 0.000000 0.000000 0.000000 0.075900 0.000000 0.000000
# 5 0.000000 0.000000 0.000000 0.000000 0.022885 0.000000
# 6 0.000000 0.000000 0.000000 0.000000 0.000000 0.034654
#
#
# Mechanical properties :
#
#
# Convention : Reuss Voigt Hill
#
# Bulk Modulus (GPa) = 71.85595 76.83614 74.34605
# Shear Modulus (GPa) = 22.41432 28.03315 25.22373
#
# Velocity S-wave (km/s) = 3.54116 3.96022 3.75654
# Velocity P-wave (km/s) = 7.54453 7.99359 7.77231
#
# Compressibility (1/GPa) = 0.01391673
#
# Stress axis : x y z
#
# Youngs Moduli (GPa) = 39.86744 91.51706 74.37761
#
# Poissons Ratio (x) = 0.70201 0.64890
# Poissons Ratio (y) = 0.30582 0.10219
# Poissons Ratio (z) = 0.34782 0.12574
#
# Static dielectric constant tensor:
#      x y z
#    x 1.595210 0.000000 0.000000 
#    y 0.000000 1.581160 0.000000 
#    z 0.000000 0.000000 1.594920 
# 
# From -- ./inp_files/10270.got.cif
#   From: 2010.05.17/outbox.cif.g08.bks.cpg/sg40_6_cif.got.tgz:10270.got - 2010.06.03 18:35:42.
