data_PCOD9364791
_publ_section_title
;
Structure prediction by ZEFSAII (Michael W. Deem and Ramdas Pophale) SiO2 
 PCOD9364791
Probable space group: A M A 2
;
_chemical_formula_sum "Si O2"
_cell_formula_units_Z 60
_cell_length_a 16.917148
_cell_length_b 25.345465
_cell_length_c 6.429934
_cell_angle_alpha 90.000000
_cell_angle_beta 90.000000
_cell_angle_gamma 90.000000
_cell_volume 2756.981979
_symmetry_space_group_name_H-M "A M A 2"
_symmetry_group_IT_number 40
_symmetry_cell_setting 'orthorhombic'
loop_
_space_group_symop_operation_xyz
x,y,z
-x,-y,z
1/2-x,y,z
1/2+x,-y,z
x,1/2+y,1/2+z
-x,1/2-y,1/2+z
1/2-x,1/2+y,1/2+z
1/2+x,1/2-y,1/2+z
loop_
_atom_site_type_symbol
_atom_site_label
_atom_site_fract_x
_atom_site_fract_y
_atom_site_fract_z
Si Si1 0.394202 0.263981 0.319790
Si Si2 0.339213 0.499494 0.815569
Si Si3 0.940393 0.045327 0.969065
Si Si4 0.953195 0.820647 0.648154
Si Si5 0.250000 0.326096 0.216465
Si Si6 0.340711 0.902055 0.625402
Si Si7 0.445620 0.593457 0.813491
Si Si8 0.156040 0.168580 0.031264
O O1 0.415788 0.225492 0.509128
O O2 0.471772 0.297114 0.265268
O O3 0.320404 0.301184 0.362496
O O4 0.368600 0.224559 0.132181
O O5 0.250000 0.520317 0.816971
O O6 0.368206 0.484017 0.585543
O O7 0.403458 0.540911 0.898235
O O8 0.339950 0.447232 0.956738
O O9 0.987457 0.076390 0.149471
O O10 0.904564 0.082645 0.794107
O O11 0.000000 0.000000 0.888871
O O12 0.975831 0.868435 0.493590
O O13 0.888624 0.839393 0.814318
O O14 0.324542 0.343786 0.045133
O O15 0.250000 0.897734 0.741484
O O16 0.378177 0.624649 0.687541
O O17 0.250000 0.165762 0.012429
#
# Coordination Sequence:
#
# PCOD9364791 Si02
#       8
#     8   8   8   8   4   8   8   8
#     4  11  23  45  63  96 132 165 216 276 334 397
#     4  10  21  41  64  89 130 166 209 267 324 382
#     4  10  22  39  60  91 125 167 207 262 321 382
#     4  11  25  41  68  94 127 176 220 275 336 402
#     4  10  24  40  68  94 128 164 212 276 320 402
#     4   9  22  40  61  94 123 162 209 263 319 387
#     4  10  25  40  64  95 130 172 223 271 325 404
#     4  11  24  43  65  93 129 171 219 272 334 394
#
# _framework density 21.762927999999999
#
# number of rings (size 3 to 8) (size 9 to 14) (size 15 to 20)
#    0.400    1.333    2.000    0.800    4.667    4.800 
#    0.000    4.000    0.000    0.000    0.000    0.000 
#    0.000    0.000    0.000    0.000    0.000    0.000 
#
# Total GULP energy -167090.436105 kJ/mol
# GULP energy per Si atom -5569.681203 kJ/mol
# Density = 2.171339 g / cm^3
# Si number density = 21.762928 Si / 1000 Ang^3
#
#
#
# Elastic Constant Matrix: (Units=GPa)
#
#
# Indices 1 2 3 4 5 6 
#
# 1 102.8844 13.1487 24.5927 0.0000 0.0000 0.0000
# 2 13.1487 64.7917 8.6752 0.0000 0.0000 0.0000
# 3 24.5927 8.6752 47.4286 0.0000 0.0000 0.0000
# 4 0.0000 0.0000 0.0000 29.7971 0.0000 0.0000
# 5 0.0000 0.0000 0.0000 0.0000 22.4501 0.0000
# 6 0.0000 0.0000 0.0000 0.0000 0.0000 43.6994
#
#
#
# Elastic Compliance Matrix: (Units=1/GPa)
#
#
# Indices 1 2 3 4 5 6 
#
# 1 0.011242 -0.001539 -0.005548 0.000000 0.000000 0.000000
# 2 -0.001539 0.016032 -0.002135 0.000000 0.000000 0.000000
# 3 -0.005548 -0.002135 0.024352 0.000000 0.000000 0.000000
# 4 0.000000 0.000000 0.000000 0.033560 0.000000 0.000000
# 5 0.000000 0.000000 0.000000 0.000000 0.044543 0.000000
# 6 0.000000 0.000000 0.000000 0.000000 0.000000 0.022884
#
#
# Mechanical properties :
#
#
# Convention : Reuss Voigt Hill
#
# Bulk Modulus (GPa) = 30.13544 34.21532 32.17538
# Shear Modulus (GPa) = 27.45487 30.43519 28.94503
#
# Velocity S-wave (km/s) = 3.55567 3.74369 3.65089
# Velocity P-wave (km/s) = 5.54385 5.86881 5.70864
#
# Compressibility (1/GPa) = 0.03318353
#
# Stress axis : x y z
#
# Youngs Moduli (GPa) = 88.94863 62.37470 41.06522
#
# Poissons Ratio (x) = 0.09597 0.22783
# Poissons Ratio (y) = 0.13686 0.08766
# Poissons Ratio (z) = 0.49349 0.13315
#
# Static dielectric constant tensor:
#      x y z
#    x 1.834220 0.000000 0.000000 
#    y 0.000000 1.855650 0.000000 
#    z 0.000000 0.000000 1.780350 
# 
# From -- ./inp_files/1956.got.cif
#   From: 2010.05.17/outbox.cif.g08.bks.cpg/sg40_1_cif.got.tgz:1956.got - 2010.06.03 18:35:42.
