data_PCOD9364573
_publ_section_title
;
Structure prediction by ZEFSAII (Michael W. Deem and Ramdas Pophale) SiO2 
 PCOD9364573
Probable space group: A M A 2
;
_chemical_formula_sum "Si O2"
_cell_formula_units_Z 28
_cell_length_a 5.424600
_cell_length_b 7.843183
_cell_length_c 27.352259
_cell_angle_alpha 90.000000
_cell_angle_beta 90.000000
_cell_angle_gamma 90.000000
_cell_volume 1163.732781
_symmetry_space_group_name_H-M "A M A 2"
_symmetry_group_IT_number 40
_symmetry_cell_setting 'orthorhombic'
loop_
_space_group_symop_operation_xyz
x,y,z
-x,-y,z
1/2-x,y,z
1/2+x,-y,z
x,1/2+y,1/2+z
-x,1/2-y,1/2+z
1/2-x,1/2+y,1/2+z
1/2+x,1/2-y,1/2+z
loop_
_atom_site_type_symbol
_atom_site_label
_atom_site_fract_x
_atom_site_fract_y
_atom_site_fract_z
Si Si1 0.250000 0.426010 0.990710
Si Si2 0.750000 0.961194 0.901008
Si Si3 0.250000 0.428490 0.876000
Si Si4 0.250000 0.402158 0.295024
Si Si5 0.750000 0.890044 0.047021
Si Si6 0.250000 0.885622 0.634629
Si Si7 0.750000 0.888765 0.221946
O O1 0.500000 0.500000 0.012672
O O2 0.250000 0.479083 0.933744
O O3 0.250000 0.224868 0.998002
O O4 0.750000 0.774538 0.877840
O O5 0.500000 0.000000 0.928310
O O6 0.750000 0.089081 0.854126
O O7 0.500000 0.500000 0.854221
O O8 0.500000 0.500000 0.279440
O O9 0.250000 0.216515 0.272297
O O10 0.750000 0.744664 0.088900
O O11 0.500000 0.000000 0.050925
O O12 0.250000 0.760169 0.681282
O O13 0.500000 0.000000 0.634717
O O14 0.500000 0.000000 0.217352
#
# Coordination Sequence:
#
# PCOD9364573 Si02
#       7
#     4   4   4   4   4   4   4
#     4  10  21  39  60  85 121 162 202 243 299 359
#     4  10  21  38  59  83 117 153 193 243 298 362
#     4  10  21  38  61  88 117 155 203 252 297 350
#     4  10  21  41  60  84 117 155 194 238 297 363
#     4  12  24  39  60  93 127 157 202 250 292 344
#     4  12  24  42  66  89 122 165 200 239 299 359
#     4  12  24  41  64  92 121 153 200 253 298 349
#
# _framework density 24.060506
#
# number of rings (size 3 to 8) (size 9 to 14) (size 15 to 20)
#    0.000    1.143    0.000    6.857    0.000    1.143 
#    0.000   17.143    0.000    0.000    0.000    0.000 
#    0.000    0.000    0.000    0.000    0.000    0.000 
#
# Total GULP energy -78387.675207 kJ/mol
# GULP energy per Si atom -5599.119658 kJ/mol
# Density = 2.400574 g / cm^3
# Si number density = 24.060506 Si / 1000 Ang^3
#
#
#
# Elastic Constant Matrix: (Units=GPa)
#
#
# Indices 1 2 3 4 5 6 
#
# 1 334.7717 146.0924 38.9395 0.0000 0.0000 0.0000
# 2 146.0924 137.9190 12.5015 0.0000 0.0000 0.0000
# 3 38.9395 12.5015 34.0923 0.0000 0.0000 0.0000
# 4 0.0000 0.0000 0.0000 61.8388 0.0000 0.0000
# 5 0.0000 0.0000 0.0000 0.0000 31.2118 0.0000
# 6 0.0000 0.0000 0.0000 0.0000 0.0000 75.5681
#
#
#
# Elastic Compliance Matrix: (Units=1/GPa)
#
#
# Indices 1 2 3 4 5 6 
#
# 1 0.006251 -0.006179 -0.004873 0.000000 0.000000 0.000000
# 2 -0.006179 0.013609 0.002068 0.000000 0.000000 0.000000
# 3 -0.004873 0.002068 0.034140 0.000000 0.000000 0.000000
# 4 0.000000 0.000000 0.000000 0.016171 0.000000 0.000000
# 5 0.000000 0.000000 0.000000 0.000000 0.032039 0.000000
# 6 0.000000 0.000000 0.000000 0.000000 0.000000 0.013233
#
#
# Mechanical properties :
#
#
# Convention : Reuss Voigt Hill
#
# Bulk Modulus (GPa) = 27.75513 100.20552 63.98032
# Shear Modulus (GPa) = 34.38256 54.34038 44.36147
#
# Velocity S-wave (km/s) = 3.78432 4.75751 4.29855
# Velocity P-wave (km/s) = 5.53673 8.48035 7.16141
#
# Compressibility (1/GPa) = 0.03602937
#
# Stress axis : x y z
#
# Youngs Moduli (GPa) = 159.98629 73.48271 29.29096
#
# Poissons Ratio (x) = 0.45407 0.14274
# Poissons Ratio (y) = 0.98859 -0.06056
# Poissons Ratio (z) = 0.77967 -0.15193
#
# Static dielectric constant tensor:
#      x y z
#    x 1.915310 0.000000 0.000000 
#    y 0.000000 1.872490 0.000000 
#    z 0.000000 0.000000 1.991220 
# 
# From -- ./inp_files/25888.got.cif
#   From: 2010.05.17/outbox.cif.g08.bks.cpg/sg40_13_cif.got.tgz:25888.got - 2010.06.03 18:35:42.
