data_PCOD9364404
_publ_section_title
;
Structure prediction by ZEFSAII (Michael W. Deem and Ramdas Pophale) SiO2 
 PCOD9364404
Probable space group: A M A 2
;
_chemical_formula_sum "Si O2"
_cell_formula_units_Z 48
_cell_length_a 18.904884
_cell_length_b 23.560079
_cell_length_c 5.437485
_cell_angle_alpha 90.000000
_cell_angle_beta 90.000000
_cell_angle_gamma 90.000000
_cell_volume 2421.858867
_symmetry_space_group_name_H-M "A M A 2"
_symmetry_group_IT_number 40
_symmetry_cell_setting 'orthorhombic'
loop_
_space_group_symop_operation_xyz
x,y,z
-x,-y,z
1/2-x,y,z
1/2+x,-y,z
x,1/2+y,1/2+z
-x,1/2-y,1/2+z
1/2-x,1/2+y,1/2+z
1/2+x,1/2-y,1/2+z
loop_
_atom_site_type_symbol
_atom_site_label
_atom_site_fract_x
_atom_site_fract_y
_atom_site_fract_z
Si Si1 0.462772 0.820794 0.724550
Si Si2 0.088652 0.772290 0.224434
Si Si3 0.667500 0.333772 0.189353
Si Si4 0.163876 0.106150 0.190609
Si Si5 0.554544 0.552754 0.154854
Si Si6 0.584684 0.512737 0.654502
O O1 0.417254 0.803746 0.484328
O O2 0.528206 0.777191 0.721694
O O3 0.482081 0.886718 0.694792
O O4 0.424936 0.810849 0.986350
O O5 0.157343 0.733581 0.196117
O O6 0.750000 0.347659 0.187044
O O7 0.640308 0.361118 0.443371
O O8 0.639449 0.360023 0.934325
O O9 0.250000 0.101965 0.191407
O O10 0.127748 0.044936 0.189245
O O11 0.500000 0.500000 0.141262
O O12 0.602222 0.540877 0.393562
O O13 0.594326 0.551196 0.894909
O O14 0.500000 0.500000 0.640443
#
# Coordination Sequence:
#
# PCOD9364404 Si02
#       6
#     8   8   8   8   8   8
#     4  10  21  36  53  83 113 145 184 224 291 327
#     4  10  21  35  57  79 113 149 174 238 278 340
#     4  10  21  36  59  84 110 149 189 234 288 333
#     4  10  21  36  55  83 118 147 187 242 287 340
#     4  10  21  35  53  82 111 147 188 231 269 337
#     4  10  21  32  53  83 106 151 184 229 285 327
#
# _framework density 19.819488
#
# number of rings (size 3 to 8) (size 9 to 14) (size 15 to 20)
#    0.000    2.000    0.000    3.000    9.333    0.000 
#    0.000    0.000    0.000    6.000    0.000    0.000 
#    0.000    0.000    0.000    0.000    0.000    0.000 
#
# Total GULP energy -133847.880566 kJ/mol
# GULP energy per Si atom -5576.995024 kJ/mol
# Density = 1.977438 g / cm^3
# Si number density = 19.819488 Si / 1000 Ang^3
#
#
#
# Elastic Constant Matrix: (Units=GPa)
#
#
# Indices 1 2 3 4 5 6 
#
# 1 19.8582 4.6340 15.7946 0.0000 0.0000 0.0000
# 2 4.6340 58.5576 -12.8334 0.0000 0.0000 0.0000
# 3 15.7946 -12.8334 134.9889 0.0000 0.0000 0.0000
# 4 0.0000 0.0000 0.0000 37.9228 0.0000 0.0000
# 5 0.0000 0.0000 0.0000 0.0000 6.6039 0.0000
# 6 0.0000 0.0000 0.0000 0.0000 0.0000 29.2123
#
#
#
# Elastic Compliance Matrix: (Units=1/GPa)
#
#
# Indices 1 2 3 4 5 6 
#
# 1 0.057625 -0.006166 -0.007329 0.000000 0.000000 0.000000
# 2 -0.006166 0.018100 0.002442 0.000000 0.000000 0.000000
# 3 -0.007329 0.002442 0.008498 0.000000 0.000000 0.000000
# 4 0.000000 0.000000 0.000000 0.026369 0.000000 0.000000
# 5 0.000000 0.000000 0.000000 0.000000 0.151426 0.000000
# 6 0.000000 0.000000 0.000000 0.000000 0.000000 0.034232
#
#
# Mechanical properties :
#
#
# Convention : Reuss Voigt Hill
#
# Bulk Modulus (GPa) = 16.09848 25.39944 20.74896
# Shear Modulus (GPa) = 14.74657 28.46844 21.60751
#
# Velocity S-wave (km/s) = 2.73068 3.79408 3.30542
# Velocity P-wave (km/s) = 4.25233 5.66009 5.00594
#
# Compressibility (1/GPa) = 0.06211768
#
# Stress axis : x y z
#
# Youngs Moduli (GPa) = 17.35355 55.24727 117.67867
#
# Poissons Ratio (x) = 0.34067 0.86244
# Poissons Ratio (y) = 0.10701 -0.28741
# Poissons Ratio (z) = 0.12718 -0.13493
#
# Static dielectric constant tensor:
#      x y z
#    x 1.699610 0.000000 0.000000 
#    y 0.000000 1.681800 0.000000 
#    z 0.000000 0.000000 1.784170 
# 
# From -- ./inp_files/2727.got.cif
#   From: 2010.05.17/outbox.cif.g08.bks.cpg/sg40_2_cif.got.tgz:2727.got - 2010.06.03 18:35:42.
