data_PCOD9364370
_publ_section_title
;
Structure prediction by ZEFSAII (Michael W. Deem and Ramdas Pophale) SiO2 
 PCOD9364370
Probable space group: A M A 2
;
_chemical_formula_sum "Si O2"
_cell_formula_units_Z 44
_cell_length_a 18.468894
_cell_length_b 6.849676
_cell_length_c 11.992950
_cell_angle_alpha 90.000000
_cell_angle_beta 90.000000
_cell_angle_gamma 90.000000
_cell_volume 1517.179413
_symmetry_space_group_name_H-M "A M A 2"
_symmetry_group_IT_number 40
_symmetry_cell_setting 'orthorhombic'
loop_
_space_group_symop_operation_xyz
x,y,z
-x,-y,z
1/2-x,y,z
1/2+x,-y,z
x,1/2+y,1/2+z
-x,1/2-y,1/2+z
1/2-x,1/2+y,1/2+z
1/2+x,1/2-y,1/2+z
loop_
_atom_site_type_symbol
_atom_site_label
_atom_site_fract_x
_atom_site_fract_y
_atom_site_fract_z
Si Si1 0.626657 0.658308 0.403420
Si Si2 0.666210 0.727090 0.918734
Si Si3 0.458540 0.196581 0.751075
Si Si4 0.333798 0.179771 0.173867
Si Si5 0.827876 0.785874 0.617512
Si Si6 0.500000 0.000000 0.068077
O O1 0.670608 0.459538 0.393943
O O2 0.623274 0.763132 0.285349
O O3 0.666819 0.806286 0.485837
O O4 0.558841 0.592962 0.482618
O O5 0.750000 0.655453 0.894256
O O6 0.588558 0.691683 0.849980
O O7 0.652237 0.724037 0.052236
O O8 0.393045 0.113914 0.677219
O O9 0.500000 0.000000 0.785581
O O10 0.250000 0.219245 0.200064
O O11 0.497054 0.173708 0.161281
O O12 0.337153 0.945278 0.149407
O O13 0.750000 0.847486 0.656868
#
# Coordination Sequence:
#
# PCOD9364370 Si02
#       6
#     8   8   8   8   8   4
#     4  10  20  41  73 112 162 210 268 349 420 486
#     4  10  22  41  72 111 151 210 285 348 413 497
#     4  11  25  47  78 111 165 223 277 344 429 503
#     4   9  18  38  75 116 153 204 275 356 429 489
#     4   9  19  40  73 113 154 208 280 352 418 492
#     4  10  26  50  74 116 170 222 288 340 414 522
#
# _framework density 29.001186000000001
#
# number of rings (size 3 to 8) (size 9 to 14) (size 15 to 20)
#    0.000    2.182    0.000    3.273    1.273    4.364 
#    0.000    8.182    0.000   18.545    0.000    0.000 
#    0.000    0.000    0.000    0.000    0.000    0.000 
#
# Total GULP energy -122731.391338 kJ/mol
# GULP energy per Si atom -5578.699606 kJ/mol
# Density = 2.893518 g / cm^3
# Si number density = 29.001186 Si / 1000 Ang^3
#
#
#
# Elastic Constant Matrix: (Units=GPa)
#
#
# Indices 1 2 3 4 5 6 
#
# 1 155.2974 51.4449 114.7600 0.0000 0.0000 0.0000
# 2 51.4449 119.1827 65.3784 0.0000 0.0000 0.0000
# 3 114.7600 65.3784 270.7230 0.0000 0.0000 0.0000
# 4 0.0000 0.0000 0.0000 48.8693 0.0000 0.0000
# 5 0.0000 0.0000 0.0000 0.0000 40.6726 0.0000
# 6 0.0000 0.0000 0.0000 0.0000 0.0000 35.9872
#
#
#
# Elastic Compliance Matrix: (Units=1/GPa)
#
#
# Indices 1 2 3 4 5 6 
#
# 1 0.009881 -0.002268 -0.003641 0.000000 0.000000 0.000000
# 2 -0.002268 0.010192 -0.001500 0.000000 0.000000 0.000000
# 3 -0.003641 -0.001500 0.005599 0.000000 0.000000 0.000000
# 4 0.000000 0.000000 0.000000 0.020463 0.000000 0.000000
# 5 0.000000 0.000000 0.000000 0.000000 0.024587 0.000000
# 6 0.000000 0.000000 0.000000 0.000000 0.000000 0.027788
#
#
# Mechanical properties :
#
#
# Convention : Reuss Voigt Hill
#
# Bulk Modulus (GPa) = 92.12247 112.04109 102.08178
# Shear Modulus (GPa) = 42.75488 46.01382 44.38435
#
# Velocity S-wave (km/s) = 3.84376 3.98756 3.91632
# Velocity P-wave (km/s) = 7.17867 7.74067 7.46496
#
# Compressibility (1/GPa) = 0.01085511
#
# Stress axis : x y z
#
# Youngs Moduli (GPa) = 101.20381 98.11377 178.58896
#
# Poissons Ratio (x) = 0.22251 0.65023
# Poissons Ratio (y) = 0.22952 0.26789
# Poissons Ratio (z) = 0.36847 0.14717
#
# Static dielectric constant tensor:
#      x y z
#    x 2.435200 0.000000 0.000000 
#    y 0.000000 2.306580 0.000000 
#    z 0.000000 0.000000 2.234890 
# 
# From -- ./inp_files/17551.got.cif
#   From: 2010.05.17/outbox.cif.g08.bks.cpg/sg40_9_cif.got.tgz:17551.got - 2010.06.03 18:35:42.
