data_PCOD9364772
_publ_section_title
;
Structure prediction by ZEFSAII (Michael W. Deem and Ramdas Pophale) SiO2 
 PCOD9364772
Probable space group: A M A 2
;
_chemical_formula_sum "Si O2"
_cell_formula_units_Z 56
_cell_length_a 14.545788
_cell_length_b 5.789414
_cell_length_c 29.785398
_cell_angle_alpha 90.000000
_cell_angle_beta 90.000000
_cell_angle_gamma 90.000000
_cell_volume 2508.275685
_symmetry_space_group_name_H-M "A M A 2"
_symmetry_group_IT_number 40
_symmetry_cell_setting 'orthorhombic'
loop_
_space_group_symop_operation_xyz
x,y,z
-x,-y,z
1/2-x,y,z
1/2+x,-y,z
x,1/2+y,1/2+z
-x,1/2-y,1/2+z
1/2-x,1/2+y,1/2+z
1/2+x,1/2-y,1/2+z
loop_
_atom_site_type_symbol
_atom_site_label
_atom_site_fract_x
_atom_site_fract_y
_atom_site_fract_z
Si Si1 0.354506 0.426358 0.924530
Si Si2 0.000000 0.000000 0.248580
Si Si3 0.900932 0.621176 0.025215
Si Si4 0.647995 0.829048 0.709280
Si Si5 0.851336 0.331613 0.109422
Si Si6 0.147499 0.314547 0.291280
Si Si7 0.140510 0.430094 0.392746
Si Si8 0.000000 0.500000 0.570649
O O1 0.250000 0.425479 0.905901
O O2 0.394275 0.677224 0.909804
O O3 0.396729 0.176988 0.910425
O O4 0.352137 0.417525 0.978424
O O5 0.931077 0.864734 0.280706
O O6 0.064585 0.842376 0.217826
O O7 0.854369 0.512393 0.068915
O O8 0.000000 0.500000 0.020439
O O9 0.925446 0.881294 0.038220
O O10 0.750000 0.716408 0.711312
O O11 0.640326 0.934786 0.659435
O O12 0.645014 0.010509 0.749573
O O13 0.750000 0.214792 0.107641
O O14 0.939619 0.171484 0.100698
O O15 0.250000 0.209530 0.293290
O O16 0.131628 0.433537 0.338995
O O17 0.250000 0.429561 0.404755
#
# Coordination Sequence:
#
# PCOD9364772 Si02
#       8
#     8   4   8   8   8   8   8   4
#     4  10  21  40  67  95 126 172 225 277 335 399
#     4  12  23  38  64  98 128 170 218 270 327 402
#     4  10  23  40  58  89 130 171 212 274 329 395
#     4  10  23  42  64  93 131 170 214 271 332 398
#     4  10  22  41  66  94 127 171 218 267 332 400
#     4  10  23  43  65  92 131 172 216 273 333 398
#     4   9  21  40  66  95 128 172 224 278 335 396
#     4  10  23  40  62  94 134 168 214 274 333 388
#
# _framework density 22.326094000000001
#
# number of rings (size 3 to 8) (size 9 to 14) (size 15 to 20)
#    0.000    2.000    0.000    1.714    6.000    5.714 
#    1.286    2.857    0.000    0.000    0.000    0.000 
#    0.000    0.000    0.000    0.000    0.000    0.000 
#
# Total GULP energy -156252.863590 kJ/mol
# GULP energy per Si atom -5580.459414 kJ/mol
# Density = 2.227528 g / cm^3
# Si number density = 22.326094 Si / 1000 Ang^3
#
#
#
# Elastic Constant Matrix: (Units=GPa)
#
#
# Indices 1 2 3 4 5 6 
#
# 1 107.3408 43.8139 40.3952 0.0000 0.0000 0.0000
# 2 43.8139 110.8715 53.5786 0.0000 0.0000 0.0000
# 3 40.3952 53.5786 135.6917 0.0000 0.0000 0.0000
# 4 0.0000 0.0000 0.0000 27.5297 0.0000 0.0000
# 5 0.0000 0.0000 0.0000 0.0000 33.2676 0.0000
# 6 0.0000 0.0000 0.0000 0.0000 0.0000 28.9257
#
#
#
# Elastic Compliance Matrix: (Units=1/GPa)
#
#
# Indices 1 2 3 4 5 6 
#
# 1 0.011539 -0.003584 -0.002020 0.000000 0.000000 0.000000
# 2 -0.003584 0.012259 -0.003774 0.000000 0.000000 0.000000
# 3 -0.002020 -0.003774 0.009461 0.000000 0.000000 0.000000
# 4 0.000000 0.000000 0.000000 0.036324 0.000000 0.000000
# 5 0.000000 0.000000 0.000000 0.000000 0.030059 0.000000
# 6 0.000000 0.000000 0.000000 0.000000 0.000000 0.034571
#
#
# Mechanical properties :
#
#
# Convention : Reuss Voigt Hill
#
# Bulk Modulus (GPa) = 68.94518 69.94214 69.44366
# Shear Modulus (GPa) = 31.68472 32.35237 32.01854
#
# Velocity S-wave (km/s) = 3.77129 3.81081 3.79110
# Velocity P-wave (km/s) = 7.06481 7.12451 7.09472
#
# Compressibility (1/GPa) = 0.01450428
#
# Stress axis : x y z
#
# Youngs Moduli (GPa) = 86.66136 81.57027 105.69570
#
# Poissons Ratio (x) = 0.29233 0.21352
# Poissons Ratio (y) = 0.31058 0.39887
# Poissons Ratio (z) = 0.17506 0.30783
#
# Static dielectric constant tensor:
#      x y z
#    x 1.861060 0.000000 0.000000 
#    y 0.000000 1.879410 0.000000 
#    z 0.000000 0.000000 1.787400 
# 
# From -- ./inp_files/26627.got.cif
#   From: 2010.05.17/outbox.cif.g08.bks.cpg/sg40_14_cif.got.tgz:26627.got - 2010.06.03 18:35:42.
