data_PCOD9364447
_publ_section_title
;
Structure prediction by ZEFSAII (Michael W. Deem and Ramdas Pophale) SiO2 
 PCOD9364447
Probable space group: A M A 2
;
_chemical_formula_sum "Si O2"
_cell_formula_units_Z 64
_cell_length_a 20.990595
_cell_length_b 15.249489
_cell_length_c 10.161698
_cell_angle_alpha 90.000000
_cell_angle_beta 90.000000
_cell_angle_gamma 90.000000
_cell_volume 3252.717334
_symmetry_space_group_name_H-M "A M A 2"
_symmetry_group_IT_number 40
_symmetry_cell_setting 'orthorhombic'
loop_
_space_group_symop_operation_xyz
x,y,z
-x,-y,z
1/2-x,y,z
1/2+x,-y,z
x,1/2+y,1/2+z
-x,1/2-y,1/2+z
1/2-x,1/2+y,1/2+z
1/2+x,1/2-y,1/2+z
loop_
_atom_site_type_symbol
_atom_site_label
_atom_site_fract_x
_atom_site_fract_y
_atom_site_fract_z
Si Si1 0.319187 0.246955 0.342530
Si Si2 0.925392 0.522305 0.044746
Si Si3 0.174181 0.608795 0.361917
Si Si4 0.112636 0.918118 0.822344
Si Si5 0.621977 0.328825 0.092605
Si Si6 0.965900 0.172034 0.045899
Si Si7 0.572785 0.036170 0.252573
Si Si8 0.611150 0.858445 0.126751
O O1 0.250000 0.222656 0.291855
O O2 0.330146 0.350546 0.343708
O O3 0.328391 0.211587 0.489675
O O4 0.371449 0.205068 0.246605
O O5 0.906950 0.579668 0.169907
O O6 0.890048 0.429321 0.055209
O O7 0.000000 0.500000 0.053344
O O8 0.909711 0.559633 0.901335
O O9 0.250000 0.595557 0.343150
O O10 0.135260 0.516127 0.358470
O O11 0.146017 0.667561 0.242597
O O12 0.158810 0.648661 0.504467
O O13 0.056059 0.877378 0.912244
O O14 0.558855 0.271193 0.061237
O O15 0.928090 0.119077 0.158549
O O16 0.040453 0.161252 0.072052
O O17 0.500000 0.000000 0.256917
O O18 0.611714 0.956481 0.188267
#
# Coordination Sequence:
#
# PCOD9364447 Si02
#       8
#     8   8   8   8   8   8   8   8
#     4  11  23  42  61  84 120 165 209 246 297 365
#     4  10  21  35  59  89 125 148 192 245 309 362
#     4  11  23  41  62  87 120 165 211 248 297 364
#     4  10  23  38  63  91 119 157 201 256 306 358
#     4  10  23  39  60  91 116 159 199 258 302 359
#     4  10  22  38  61  91 123 154 199 249 325 362
#     4   9  18  37  56  84 120 154 185 240 300 367
#     4  11  22  37  62  89 124 159 197 253 308 372
#
# _framework density 19.675857000000001
#
# number of rings (size 3 to 8) (size 9 to 14) (size 15 to 20)
#    0.000    1.750    2.500    1.125    5.250    2.000 
#    0.000    0.000    0.000    0.000    0.000    0.000 
#    0.000    0.000    0.000    0.000    0.000    0.000 
#
# Total GULP energy -178603.869329 kJ/mol
# GULP energy per Si atom -5581.370917 kJ/mol
# Density = 1.963107 g / cm^3
# Si number density = 19.675857 Si / 1000 Ang^3
#
#
#
# Elastic Constant Matrix: (Units=GPa)
#
#
# Indices 1 2 3 4 5 6 
#
# 1 62.7388 0.1170 13.8501 0.0000 0.0000 0.0000
# 2 0.1170 54.0043 31.7265 0.0000 0.0000 0.0000
# 3 13.8501 31.7265 148.0075 0.0000 0.0000 0.0000
# 4 0.0000 0.0000 0.0000 14.9023 0.0000 0.0000
# 5 0.0000 0.0000 0.0000 0.0000 31.9203 0.0000
# 6 0.0000 0.0000 0.0000 0.0000 0.0000 1.9048
#
#
#
# Elastic Compliance Matrix: (Units=1/GPa)
#
#
# Indices 1 2 3 4 5 6 
#
# 1 0.016321 0.000986 -0.001739 0.000000 0.000000 0.000000
# 2 0.000986 0.021244 -0.004646 0.000000 0.000000 0.000000
# 3 -0.001739 -0.004646 0.007915 0.000000 0.000000 0.000000
# 4 0.000000 0.000000 0.000000 0.067104 0.000000 0.000000
# 5 0.000000 0.000000 0.000000 0.000000 0.031328 0.000000
# 6 0.000000 0.000000 0.000000 0.000000 0.000000 0.524983
#
#
# Mechanical properties :
#
#
# Convention : Reuss Voigt Hill
#
# Bulk Modulus (GPa) = 28.83252 39.57086 34.20169
# Shear Modulus (GPa) = 7.23323 24.34930 15.79126
#
# Velocity S-wave (km/s) = 1.91942 3.52166 2.83604
# Velocity P-wave (km/s) = 4.42694 6.05732 5.30514
#
# Compressibility (1/GPa) = 0.03468306
#
# Stress axis : x y z
#
# Youngs Moduli (GPa) = 61.27048 47.07112 126.34153
#
# Poissons Ratio (x) = -0.04642 0.21966
# Poissons Ratio (y) = -0.06042 0.58700
# Poissons Ratio (z) = 0.10653 0.21870
#
# Static dielectric constant tensor:
#      x y z
#    x 1.688360 0.000000 0.000000 
#    y 0.000000 1.683570 0.000000 
#    z 0.000000 0.000000 1.689780 
# 
# From -- ./inp_files/8912.got.cif
#   From: 2010.05.17/outbox.cif.g08.bks.cpg/sg40_5_cif.got.tgz:8912.got - 2010.06.03 18:35:42.
