data_PCOD9364448
_publ_section_title
;
Structure prediction by ZEFSAII (Michael W. Deem and Ramdas Pophale) SiO2 
 PCOD9364448
Probable space group: A M A 2
;
_chemical_formula_sum "Si O2"
_cell_formula_units_Z 56
_cell_length_a 19.426399
_cell_length_b 5.320727
_cell_length_c 23.957920
_cell_angle_alpha 90.000000
_cell_angle_beta 90.000000
_cell_angle_gamma 90.000000
_cell_volume 2476.352079
_symmetry_space_group_name_H-M "A M A 2"
_symmetry_group_IT_number 40
_symmetry_cell_setting 'orthorhombic'
loop_
_space_group_symop_operation_xyz
x,y,z
-x,-y,z
1/2-x,y,z
1/2+x,-y,z
x,1/2+y,1/2+z
-x,1/2-y,1/2+z
1/2-x,1/2+y,1/2+z
1/2+x,1/2-y,1/2+z
loop_
_atom_site_type_symbol
_atom_site_label
_atom_site_fract_x
_atom_site_fract_y
_atom_site_fract_z
Si Si1 0.667529 0.689721 0.821150
Si Si2 0.067554 0.136261 0.176142
Si Si3 0.669130 0.528520 0.505651
Si Si4 0.833818 0.191362 0.883364
Si Si5 0.675686 0.729737 0.621929
Si Si6 0.673700 0.538004 0.223007
Si Si7 0.042844 0.259017 0.052282
O O1 0.750000 0.675763 0.828468
O O2 0.641015 0.433745 0.848837
O O3 0.642542 0.934016 0.854605
O O4 0.659568 0.782018 0.757156
O O5 0.109313 0.279431 0.224095
O O6 0.049840 0.292280 0.119690
O O7 0.116242 0.928119 0.149121
O O8 0.000000 0.000000 0.198004
O O9 0.750000 0.445499 0.501037
O O10 0.648522 0.663349 0.448340
O O11 0.665932 0.729046 0.556245
O O12 0.616478 0.307173 0.523696
O O13 0.750000 0.195055 0.881234
O O14 0.750000 0.603191 0.632307
O O15 0.678692 0.982578 0.657054
O O16 0.750000 0.630962 0.241916
O O17 0.000000 0.500000 0.031203
O O18 0.000000 0.000000 0.044681
#
# Coordination Sequence:
#
# PCOD9364448 Si02
#       7
#     8   8   8   8   8   8   8
#     4   9  19  34  56  86 126 168 210 256 315 380
#     4  10  22  35  57  82 126 172 220 267 324 402
#     4   9  19  38  64  96 134 172 219 277 332 387
#     4   9  18  35  57  89 126 166 211 262 312 372
#     4   9  19  36  56  89 127 164 208 266 335 395
#     4  10  21  35  59  90 128 172 215 270 330 394
#     4  10  23  40  60  88 131 179 222 267 332 415
#
# _framework density 22.613909
#
# number of rings (size 3 to 8) (size 9 to 14) (size 15 to 20)
#    0.000    2.571    0.000    0.429    8.000    1.714 
#    2.571    2.143    0.000    0.000    3.714    0.000 
#    0.000    0.000    0.000    0.000    0.000    2.286 
#
# Total GULP energy -156158.357443 kJ/mol
# GULP energy per Si atom -5577.084194 kJ/mol
# Density = 2.256244 g / cm^3
# Si number density = 22.613909 Si / 1000 Ang^3
#
#
#
# Elastic Constant Matrix: (Units=GPa)
#
#
# Indices 1 2 3 4 5 6 
#
# 1 110.5301 56.8553 37.5896 0.0000 0.0000 0.0000
# 2 56.8553 122.3585 60.1724 0.0000 0.0000 0.0000
# 3 37.5896 60.1724 122.5946 0.0000 0.0000 0.0000
# 4 0.0000 0.0000 0.0000 17.2404 0.0000 0.0000
# 5 0.0000 0.0000 0.0000 0.0000 -19.4411 0.0000
# 6 0.0000 0.0000 0.0000 0.0000 0.0000 -0.3071
#
#
#
# Elastic Compliance Matrix: (Units=1/GPa)
#
#
# Indices 1 2 3 4 5 6 
#
# 1 0.012032 -0.004978 -0.001246 0.000000 0.000000 0.000000
# 2 -0.004978 0.012833 -0.004772 0.000000 0.000000 0.000000
# 3 -0.001246 -0.004772 0.010881 0.000000 0.000000 0.000000
# 4 0.000000 0.000000 0.000000 0.058003 0.000000 0.000000
# 5 0.000000 0.000000 0.000000 0.000000 -0.051437 0.000000
# 6 0.000000 0.000000 0.000000 0.000000 0.000000 -3.256182
#
#
# Mechanical properties :
#
#
# Convention : Reuss Voigt Hill
#
# Bulk Modulus (GPa) = 72.70873 73.85755 73.28314
# Shear Modulus (GPa) = -1.56873 12.88949 5.66038
#
# Velocity S-wave (km/s) = -0.83379 2.39002 1.58382
# Velocity P-wave (km/s) = 5.59420 6.35196 5.98508
#
# Compressibility (1/GPa) = 0.01375351
#
# Stress axis : x y z
#
# Youngs Moduli (GPa) = 83.11447 77.92632 91.90103
#
# Poissons Ratio (x) = 0.38792 0.11449
# Poissons Ratio (y) = 0.41374 0.43857
# Poissons Ratio (z) = 0.10354 0.37188
#
# Static dielectric constant tensor:
#      x y z
#    x 1.885780 0.000000 0.000000 
#    y 0.000000 1.882550 0.000000 
#    z 0.000000 0.000000 1.894360 
# 
# From -- ./inp_files/24971.got.cif
#   From: 2010.05.17/outbox.cif.g08.bks.cpg/sg40_13_cif.got.tgz:24971.got - 2010.06.03 18:35:42.
