data_PCOD9364699
_publ_section_title
;
Structure prediction by ZEFSAII (Michael W. Deem and Ramdas Pophale) SiO2 
 PCOD9364699
Probable space group: A M A 2
;
_chemical_formula_sum "Si O2"
_cell_formula_units_Z 48
_cell_length_a 21.870942
_cell_length_b 15.204950
_cell_length_c 5.912852
_cell_angle_alpha 90.000000
_cell_angle_beta 90.000000
_cell_angle_gamma 90.000000
_cell_volume 1966.298708
_symmetry_space_group_name_H-M "A M A 2"
_symmetry_group_IT_number 40
_symmetry_cell_setting 'orthorhombic'
loop_
_space_group_symop_operation_xyz
x,y,z
-x,-y,z
1/2-x,y,z
1/2+x,-y,z
x,1/2+y,1/2+z
-x,1/2-y,1/2+z
1/2-x,1/2+y,1/2+z
1/2+x,1/2-y,1/2+z
loop_
_atom_site_type_symbol
_atom_site_label
_atom_site_fract_x
_atom_site_fract_y
_atom_site_fract_z
Si Si1 0.679220 0.929729 0.098130
Si Si2 0.852306 0.932671 0.613644
Si Si3 0.980787 0.387784 0.950221
Si Si4 0.179639 0.862957 0.538904
Si Si5 0.429861 0.278238 0.264096
Si Si6 0.593800 0.592550 0.659791
O O1 0.750000 0.961602 0.091146
O O2 0.626457 0.004341 0.077898
O O3 0.671826 0.899664 0.364522
O O4 0.669738 0.885564 0.846639
O O5 0.926482 0.929728 0.598280
O O6 0.830676 0.035254 0.617009
O O7 0.019883 0.321620 0.104959
O O8 0.944637 0.323466 0.781880
O O9 0.037127 0.432936 0.819527
O O10 0.250000 0.841667 0.543310
O O11 0.138405 0.797067 0.680658
O O12 0.148374 0.860885 0.294976
O O13 0.432084 0.337081 0.487938
#
# Coordination Sequence:
#
# PCOD9364699 Si02
#       6
#     8   8   8   8   8   8
#     4  11  23  44  69  98 133 178 228 282 347 410
#     4  11  24  41  68  99 135 173 219 292 342 406
#     4  11  25  41  63 101 137 177 225 284 355 411
#     4  10  22  42  65  95 127 172 228 279 337 408
#     4  11  22  41  68  89 133 177 219 278 336 412
#     4  10  21  39  65  92 125 176 218 279 333 406
#
# _framework density 24.411346000000002
#
# number of rings (size 3 to 8) (size 9 to 14) (size 15 to 20)
#    0.000    1.333    3.333    3.000    2.333    6.667 
#    0.000    2.500    0.000    0.000    0.000    0.000 
#    0.000    0.000    0.000    0.000    0.000    0.000 
#
# Total GULP energy -133825.429576 kJ/mol
# GULP energy per Si atom -5576.059566 kJ/mol
# Density = 2.435579 g / cm^3
# Si number density = 24.411346 Si / 1000 Ang^3
#
#
#
# Elastic Constant Matrix: (Units=GPa)
#
#
# Indices 1 2 3 4 5 6 
#
# 1 220.2915 32.6652 35.5966 0.0000 0.0000 0.0000
# 2 32.6652 17.4856 4.5585 0.0000 0.0000 0.0000
# 3 35.5966 4.5585 127.0001 0.0000 0.0000 0.0000
# 4 0.0000 0.0000 0.0000 34.3205 0.0000 0.0000
# 5 0.0000 0.0000 0.0000 0.0000 -20.8209 0.0000
# 6 0.0000 0.0000 0.0000 0.0000 0.0000 6.5183
#
#
#
# Elastic Compliance Matrix: (Units=1/GPa)
#
#
# Indices 1 2 3 4 5 6 
#
# 1 0.006517 -0.011809 -0.001403 0.000000 0.000000 0.000000
# 2 -0.011809 0.079129 0.000470 0.000000 0.000000 0.000000
# 3 -0.001403 0.000470 0.008250 0.000000 0.000000 0.000000
# 4 0.000000 0.000000 0.000000 0.029137 0.000000 0.000000
# 5 0.000000 0.000000 0.000000 0.000000 -0.048029 0.000000
# 6 0.000000 0.000000 0.000000 0.000000 0.000000 0.153414
#
#
# Mechanical properties :
#
#
# Convention : Reuss Voigt Hill
#
# Bulk Modulus (GPa) = 14.61737 56.71311 35.66524
# Shear Modulus (GPa) = 18.06959 23.46736 20.76848
#
# Velocity S-wave (km/s) = 2.72364 3.10390 2.91996
# Velocity P-wave (km/s) = 3.98646 6.01068 5.10001
#
# Compressibility (1/GPa) = 0.06841175
#
# Stress axis : x y z
#
# Youngs Moduli (GPa) = 153.43959 12.63762 121.20714
#
# Poissons Ratio (x) = 0.14924 0.17003
# Poissons Ratio (y) = 1.81201 -0.05694
# Poissons Ratio (z) = 0.21525 -0.00594
#
# Static dielectric constant tensor:
#      x y z
#    x 1.901160 0.000000 0.000000 
#    y 0.000000 2.070430 0.000000 
#    z 0.000000 0.000000 2.103920 
# 
# From -- ./inp_files/2316.got.cif
#   From: 2010.05.17/outbox.cif.g08.bks.cpg/sg40_2_cif.got.tgz:2316.got - 2010.06.03 18:35:42.
