data_PCOD9364465
_publ_section_title
;
Structure prediction by ZEFSAII (Michael W. Deem and Ramdas Pophale) SiO2 
 PCOD9364465
Probable space group: A M A 2
;
_chemical_formula_sum "Si O2"
_cell_formula_units_Z 64
_cell_length_a 8.982014
_cell_length_b 14.426214
_cell_length_c 28.828485
_cell_angle_alpha 90.000000
_cell_angle_beta 90.000000
_cell_angle_gamma 90.000000
_cell_volume 3735.492921
_symmetry_space_group_name_H-M "A M A 2"
_symmetry_group_IT_number 40
_symmetry_cell_setting 'orthorhombic'
loop_
_space_group_symop_operation_xyz
x,y,z
-x,-y,z
1/2-x,y,z
1/2+x,-y,z
x,1/2+y,1/2+z
-x,1/2-y,1/2+z
1/2-x,1/2+y,1/2+z
1/2+x,1/2-y,1/2+z
loop_
_atom_site_type_symbol
_atom_site_label
_atom_site_fract_x
_atom_site_fract_y
_atom_site_fract_z
Si Si1 0.427807 0.600681 0.049360
Si Si2 0.927587 0.240416 0.620477
Si Si3 0.070472 0.250083 0.721116
Si Si4 0.570472 0.249917 0.374445
Si Si5 0.072413 0.259584 0.475085
Si Si6 0.927807 0.899319 0.046202
Si Si7 0.928799 0.100347 0.297781
Si Si8 0.928684 0.399695 0.297781
O O1 0.500000 0.500000 0.044471
O O2 0.250000 0.592746 0.054446
O O3 0.495975 0.655777 0.093046
O O4 0.458994 0.666751 0.005071
O O5 0.750000 0.226944 0.621178
O O6 0.958994 0.333249 0.590491
O O7 0.991680 0.249054 0.671871
O O8 0.250000 0.250207 0.715243
O O9 0.030129 0.339059 0.752567
O O10 0.030497 0.161010 0.752599
O O11 0.750000 0.249794 0.380319
O O12 0.491680 0.250946 0.423690
O O13 0.530129 0.160941 0.342994
O O14 0.530497 0.338990 0.342963
O O15 0.250000 0.273056 0.474384
O O16 0.995975 0.344223 0.502516
O O17 0.750000 0.907254 0.041116
O O18 0.000000 0.000000 0.051091
O O19 0.750000 0.092813 0.297781
O O20 0.000000 0.000000 0.297781
O O21 0.750000 0.407480 0.297781
O O22 0.000000 0.500000 0.297781
#
# Coordination Sequence:
#
# PCOD9364465 Si02
#       8
#     8   8   8   8   8   8   8   8
#     4  10  21  37  56  78 106 139 175 216 261 311
#     4  10  21  36  55  80 107 137 175 217 262 311
#     4   9  19  36  54  74 105 141 173 210 260 313
#     4   9  19  36  54  74 105 141 173 210 260 313
#     4  10  21  36  55  80 107 137 175 217 262 311
#     4  10  21  37  56  78 106 139 175 216 261 311
#     4   9  19  35  54  76 104 139 177 217 261 310
#     4   9  19  35  54  76 102 135 173 211 254 304
#
# _framework density 17.132947000000001
#
# number of rings (size 3 to 8) (size 9 to 14) (size 15 to 20)
#    0.000    2.500    0.000    3.000    0.000    7.000 
#    0.000   10.000    0.000    0.000    0.000    0.000 
#    0.000    0.000    0.000    0.000    0.000    0.000 
#
# Total GULP energy -178572.123604 kJ/mol
# GULP energy per Si atom -5580.378863 kJ/mol
# Density = 1.709395 g / cm^3
# Si number density = 17.132947 Si / 1000 Ang^3
#
#
#
# Elastic Constant Matrix: (Units=GPa)
#
#
# Indices 1 2 3 4 5 6 
#
# 1 59.7193 69.9810 69.0506 0.0000 0.0000 0.0000
# 2 69.9810 175.4500 86.9288 0.0000 0.0000 0.0000
# 3 69.0506 86.9288 173.9860 0.0000 0.0000 0.0000
# 4 0.0000 0.0000 0.0000 5.2232 0.0000 0.0000
# 5 0.0000 0.0000 0.0000 0.0000 35.9603 0.0000
# 6 0.0000 0.0000 0.0000 0.0000 0.0000 37.2827
#
#
#
# Elastic Compliance Matrix: (Units=1/GPa)
#
#
# Indices 1 2 3 4 5 6 
#
# 1 0.043900 -0.011799 -0.011528 0.000000 0.000000 0.000000
# 2 -0.011799 0.010746 -0.000686 0.000000 0.000000 0.000000
# 3 -0.011528 -0.000686 0.010666 0.000000 0.000000 0.000000
# 4 0.000000 0.000000 0.000000 0.191453 0.000000 0.000000
# 5 0.000000 0.000000 0.000000 0.000000 0.027808 0.000000
# 6 0.000000 0.000000 0.000000 0.000000 0.000000 0.026822
#
#
# Mechanical properties :
#
#
# Convention : Reuss Voigt Hill
#
# Bulk Modulus (GPa) = 57.85080 95.67514 76.76297
# Shear Modulus (GPa) = 13.69175 27.90623 20.79899
#
# Velocity S-wave (km/s) = 2.82999 4.04022 3.48800
# Velocity P-wave (km/s) = 6.67215 8.81638 7.81812
#
# Compressibility (1/GPa) = 0.01728585
#
# Stress axis : x y z
#
# Youngs Moduli (GPa) = 22.77889 93.05994 93.75904
#
# Poissons Ratio (x) = 1.09798 1.08085
# Poissons Ratio (y) = 0.26876 0.06435
# Poissons Ratio (z) = 0.26259 0.06387
#
# Static dielectric constant tensor:
#      x y z
#    x 1.570140 0.000000 0.000000 
#    y 0.000000 1.558320 0.000000 
#    z 0.000000 0.000000 1.555250 
# 
# From -- ./inp_files/24295.got.cif
#   From: 2010.05.17/outbox.cif.g08.bks.cpg/sg40_13_cif.got.tgz:24295.got - 2010.06.03 18:35:42.
