data_PCOD9364098
_publ_section_title
;
Structure prediction by ZEFSAII (Michael W. Deem and Ramdas Pophale) SiO2 
 PCOD9364098
Probable space group: A M A 2
;
_chemical_formula_sum "Si O2"
_cell_formula_units_Z 48
_cell_length_a 8.723698
_cell_length_b 31.413521
_cell_length_c 9.247928
_cell_angle_alpha 90.000000
_cell_angle_beta 90.000000
_cell_angle_gamma 90.000000
_cell_volume 2534.321335
_symmetry_space_group_name_H-M "A M A 2"
_symmetry_group_IT_number 40
_symmetry_cell_setting 'orthorhombic'
loop_
_space_group_symop_operation_xyz
x,y,z
-x,-y,z
1/2-x,y,z
1/2+x,-y,z
x,1/2+y,1/2+z
-x,1/2-y,1/2+z
1/2-x,1/2+y,1/2+z
1/2+x,1/2-y,1/2+z
loop_
_atom_site_type_symbol
_atom_site_label
_atom_site_fract_x
_atom_site_fract_y
_atom_site_fract_z
Si Si1 0.433029 0.211480 0.660640
Si Si2 0.566669 0.793132 0.322061
Si Si3 0.066237 0.954747 0.648405
Si Si4 0.434107 0.369760 0.322296
Si Si5 0.566565 0.625295 0.659931
Si Si6 0.932964 0.954404 0.327299
O O1 0.250000 0.216858 0.671288
O O2 0.474574 0.210149 0.491245
O O3 0.513830 0.250801 0.739636
O O4 0.483447 0.167872 0.736721
O O5 0.750000 0.797727 0.311924
O O6 0.488130 0.833821 0.249371
O O7 0.250000 0.957976 0.635973
O O8 0.028402 0.915418 0.752201
O O9 0.996828 0.946756 0.489340
O O10 0.000000 0.000000 0.699733
O O11 0.250000 0.363710 0.309468
O O12 0.473705 0.368934 0.491455
O O13 0.750000 0.621042 0.670731
O O14 0.489113 0.583437 0.725592
O O15 0.750000 0.956397 0.332104
O O16 0.000000 0.000000 0.279966
#
# Coordination Sequence:
#
# PCOD9364098 Si02
#       6
#     8   8   8   8   8   8
#     4  11  24  40  61  88 117 151 192 239 288 341
#     4  11  24  41  61  88 119 152 193 238 287 344
#     4  10  20  37  60  86 116 152 193 240 292 344
#     4  10  23  40  59  85 118 154 193 238 288 345
#     4  11  23  40  60  86 119 154 194 239 288 342
#     4  11  22  38  60  87 117 153 196 240 289 344
#
# _framework density 18.939983000000002
#
# number of rings (size 3 to 8) (size 9 to 14) (size 15 to 20)
#    0.000    1.333    0.000    6.500    0.000   12.667 
#    0.000    1.667    0.000    0.000    0.000    0.000 
#    0.000    0.000    0.000    0.000    0.000    0.000 
#
# Total GULP energy -134252.879523 kJ/mol
# GULP energy per Si atom -5593.869980 kJ/mol
# Density = 1.889687 g / cm^3
# Si number density = 18.939983 Si / 1000 Ang^3
#
#
#
# Elastic Constant Matrix: (Units=GPa)
#
#
# Indices 1 2 3 4 5 6 
#
# 1 83.7062 60.0165 62.6178 0.0000 0.0000 0.0000
# 2 60.0165 138.2883 87.4708 0.0000 0.0000 0.0000
# 3 62.6178 87.4708 131.9613 0.0000 0.0000 0.0000
# 4 0.0000 0.0000 0.0000 39.4963 0.0000 0.0000
# 5 0.0000 0.0000 0.0000 0.0000 34.4241 0.0000
# 6 0.0000 0.0000 0.0000 0.0000 0.0000 38.2597
#
#
#
# Elastic Compliance Matrix: (Units=1/GPa)
#
#
# Indices 1 2 3 4 5 6 
#
# 1 0.020110 -0.004635 -0.006470 0.000000 0.000000 0.000000
# 2 -0.004635 0.013520 -0.006763 0.000000 0.000000 0.000000
# 3 -0.006470 -0.006763 0.015131 0.000000 0.000000 0.000000
# 4 0.000000 0.000000 0.000000 0.025319 0.000000 0.000000
# 5 0.000000 0.000000 0.000000 0.000000 0.029049 0.000000
# 6 0.000000 0.000000 0.000000 0.000000 0.000000 0.026137
#
#
# Mechanical properties :
#
#
# Convention : Reuss Voigt Hill
#
# Bulk Modulus (GPa) = 76.77264 86.01843 81.39554
# Shear Modulus (GPa) = 29.52572 32.02607 30.77590
#
# Velocity S-wave (km/s) = 3.95259 4.11655 4.03540
# Velocity P-wave (km/s) = 7.83921 8.25285 8.04869
#
# Compressibility (1/GPa) = 0.01302547
#
# Stress axis : x y z
#
# Youngs Moduli (GPa) = 49.72665 73.96235 66.09071
#
# Poissons Ratio (x) = 0.34283 0.42761
# Poissons Ratio (y) = 0.23049 0.44694
# Poissons Ratio (z) = 0.32174 0.50018
#
# Static dielectric constant tensor:
#      x y z
#    x 1.635910 0.000000 0.000000 
#    y 0.000000 1.624230 0.000000 
#    z 0.000000 0.000000 1.630940 
# 
# From -- ./inp_files/4594.got.cif
#   From: 2010.05.17/outbox.cif.g08.bks.cpg/sg40_3_cif.got.tgz:4594.got - 2010.06.03 18:35:42.
