data_PCOD9364984
_publ_section_title
;
Structure prediction by ZEFSAII (Michael W. Deem and Ramdas Pophale) SiO2 
 PCOD9364984
Probable space group: A M A 2
;
_chemical_formula_sum "Si O2"
_cell_formula_units_Z 56
_cell_length_a 17.808574
_cell_length_b 11.392181
_cell_length_c 10.005470
_cell_angle_alpha 90.000000
_cell_angle_beta 90.000000
_cell_angle_gamma 90.000000
_cell_volume 2029.894729
_symmetry_space_group_name_H-M "A M A 2"
_symmetry_group_IT_number 40
_symmetry_cell_setting 'orthorhombic'
loop_
_space_group_symop_operation_xyz
x,y,z
-x,-y,z
1/2-x,y,z
1/2+x,-y,z
x,1/2+y,1/2+z
-x,1/2-y,1/2+z
1/2-x,1/2+y,1/2+z
1/2+x,1/2-y,1/2+z
loop_
_atom_site_type_symbol
_atom_site_label
_atom_site_fract_x
_atom_site_fract_y
_atom_site_fract_z
Si Si1 0.161440 0.003339 0.479830
Si Si2 0.333651 0.856057 0.841364
Si Si3 0.166118 0.249061 0.045299
Si Si4 0.507424 0.756157 0.408568
Si Si5 0.420755 0.067781 0.738101
Si Si6 0.836258 0.991301 0.174120
Si Si7 0.475697 0.373421 0.657137
O O1 0.250000 0.002729 0.518933
O O2 0.132974 0.866864 0.476004
O O3 0.158554 0.047734 0.328906
O O4 0.113712 0.075179 0.588582
O O5 0.250000 0.843155 0.901563
O O6 0.327781 0.800210 0.694912
O O7 0.409245 0.799095 0.898798
O O8 0.250000 0.236932 0.984690
O O9 0.005258 0.234811 0.066950
O O10 0.141364 0.116475 0.078620
O O11 0.444857 0.677936 0.328223
O O12 0.641243 0.509791 0.315241
O O13 0.506212 0.865479 0.308303
O O14 0.500000 0.000000 0.724459
O O15 0.750000 0.017244 0.150192
O O16 0.886662 0.106264 0.158659
O O17 0.500000 0.500000 0.598419
#
# Coordination Sequence:
#
# PCOD9364984 Si02
#       7
#     8   8   8   8   8   8   8
#     4   9  18  35  63 102 145 189 238 295 363 436
#     4   9  17  35  66  99 132 178 235 290 348 417
#     4   8  15  31  58  93 133 174 217 274 344 412
#     4  11  26  46  69 102 145 190 243 301 363 439
#     4   9  18  35  61  95 138 180 229 286 344 418
#     4  10  22  40  66 103 141 180 239 307 367 434
#     4  12  28  50  74 104 146 195 242 297 367 442
#
# _framework density 27.587637000000001
#
# number of rings (size 3 to 8) (size 9 to 14) (size 15 to 20)
#    0.000    2.286    0.000    3.429    0.000    8.000 
#    0.000    2.143    0.000    1.714    0.000    0.000 
#    0.000    0.000    0.000    0.000    0.000    0.000 
#
# Total GULP energy -156488.182499 kJ/mol
# GULP energy per Si atom -5588.863661 kJ/mol
# Density = 2.752485 g / cm^3
# Si number density = 27.587637 Si / 1000 Ang^3
#
#
#
# Elastic Constant Matrix: (Units=GPa)
#
#
# Indices 1 2 3 4 5 6 
#
# 1 159.2787 42.0774 28.5686 0.0000 0.0000 0.0000
# 2 42.0774 98.1169 45.7044 0.0000 0.0000 0.0000
# 3 28.5686 45.7044 137.1482 0.0000 0.0000 0.0000
# 4 0.0000 0.0000 0.0000 46.5946 0.0000 0.0000
# 5 0.0000 0.0000 0.0000 0.0000 27.2129 0.0000
# 6 0.0000 0.0000 0.0000 0.0000 0.0000 41.9283
#
#
#
# Elastic Compliance Matrix: (Units=1/GPa)
#
#
# Indices 1 2 3 4 5 6 
#
# 1 0.007115 -0.002795 -0.000551 0.000000 0.000000 0.000000
# 2 -0.002795 0.013163 -0.003804 0.000000 0.000000 0.000000
# 3 -0.000551 -0.003804 0.008674 0.000000 0.000000 0.000000
# 4 0.000000 0.000000 0.000000 0.021462 0.000000 0.000000
# 5 0.000000 0.000000 0.000000 0.000000 0.036747 0.000000
# 6 0.000000 0.000000 0.000000 0.000000 0.000000 0.023850
#
#
# Mechanical properties :
#
#
# Convention : Reuss Voigt Hill
#
# Bulk Modulus (GPa) = 68.24966 69.69386 68.97176
# Shear Modulus (GPa) = 38.40396 41.69338 40.04867
#
# Velocity S-wave (km/s) = 3.73509 3.89177 3.81424
# Velocity P-wave (km/s) = 6.58743 6.74626 6.66732
#
# Compressibility (1/GPa) = 0.01465209
#
# Stress axis : x y z
#
# Youngs Moduli (GPa) = 140.53963 75.97297 115.28891
#
# Poissons Ratio (x) = 0.21234 0.06350
# Poissons Ratio (y) = 0.39279 0.43858
# Poissons Ratio (z) = 0.07741 0.28902
#
# Static dielectric constant tensor:
#      x y z
#    x 2.234130 0.000000 0.000000 
#    y 0.000000 2.189510 0.000000 
#    z 0.000000 0.000000 2.165900 
# 
# From -- ./inp_files/17903.got.cif
#   From: 2010.05.17/outbox.cif.g08.bks.cpg/sg40_9_cif.got.tgz:17903.got - 2010.06.03 18:35:42.
