data_PCOD9364627
_publ_section_title
;
Structure prediction by ZEFSAII (Michael W. Deem and Ramdas Pophale) SiO2 
 PCOD9364627
Probable space group: A M A 2
;
_chemical_formula_sum "Si O2"
_cell_formula_units_Z 52
_cell_length_a 20.158114
_cell_length_b 8.532002
_cell_length_c 12.434612
_cell_angle_alpha 90.000000
_cell_angle_beta 90.000000
_cell_angle_gamma 90.000000
_cell_volume 2138.617341
_symmetry_space_group_name_H-M "A M A 2"
_symmetry_group_IT_number 40
_symmetry_cell_setting 'orthorhombic'
loop_
_space_group_symop_operation_xyz
x,y,z
-x,-y,z
1/2-x,y,z
1/2+x,-y,z
x,1/2+y,1/2+z
-x,1/2-y,1/2+z
1/2-x,1/2+y,1/2+z
1/2+x,1/2-y,1/2+z
loop_
_atom_site_type_symbol
_atom_site_label
_atom_site_fract_x
_atom_site_fract_y
_atom_site_fract_z
Si Si1 0.994133 0.749011 0.935680
Si Si2 0.385487 0.969411 0.932827
Si Si3 0.362634 0.101531 0.721877
Si Si4 0.677562 0.061191 0.518982
Si Si5 0.098270 0.431437 0.805470
Si Si6 0.500000 0.000000 0.623444
Si Si7 0.673729 0.896601 0.135320
O O1 0.973373 0.644812 0.832490
O O2 0.067297 0.819631 0.927195
O O3 0.939195 0.886700 0.939976
O O4 0.990384 0.647264 0.043980
O O5 0.342691 0.001111 0.826288
O O6 0.341532 0.982856 0.038570
O O7 0.325509 0.067332 0.611987
O O8 0.362856 0.281699 0.755697
O O9 0.436971 0.039689 0.695631
O O10 0.750000 0.067547 0.468161
O O11 0.625912 0.034711 0.424355
O O12 0.666943 0.225227 0.581402
O O13 0.118299 0.569607 0.725482
O O14 0.750000 0.911326 0.174144
#
# Coordination Sequence:
#
# PCOD9364627 Si02
#       7
#     8   8   8   8   8   4   8
#     4  10  21  38  65  95 133 169 210 279 328 390
#     4  10  21  42  64  94 131 176 222 262 339 405
#     4  11  22  40  68  92 133 171 216 271 329 391
#     4  11  24  44  66  95 132 173 222 271 331 395
#     4  11  22  45  65  97 130 173 221 271 338 385
#     4  12  20  36  62 100 130 162 218 272 326 394
#     4  11  23  42  69  96 132 179 226 280 334 402
#
# _framework density 24.314775000000001
#
# number of rings (size 3 to 8) (size 9 to 14) (size 15 to 20)
#    0.000    1.231    4.615    3.231    0.000    3.077 
#    2.769    4.615    0.000    0.000    0.000    0.000 
#    0.000    0.000    0.000    0.000    0.000    0.000 
#
# Total GULP energy -145478.517001 kJ/mol
# GULP energy per Si atom -5595.327577 kJ/mol
# Density = 2.425943 g / cm^3
# Si number density = 24.314775 Si / 1000 Ang^3
#
#
#
# Elastic Constant Matrix: (Units=GPa)
#
#
# Indices 1 2 3 4 5 6 
#
# 1 32.4040 13.4009 -12.6736 0.0000 0.0000 0.0000
# 2 13.4009 72.0087 27.9681 0.0000 0.0000 0.0000
# 3 -12.6736 27.9681 119.6750 0.0000 0.0000 0.0000
# 4 0.0000 0.0000 0.0000 37.8176 0.0000 0.0000
# 5 0.0000 0.0000 0.0000 0.0000 22.2736 0.0000
# 6 0.0000 0.0000 0.0000 0.0000 0.0000 17.2757
#
#
#
# Elastic Compliance Matrix: (Units=1/GPa)
#
#
# Indices 1 2 3 4 5 6 
#
# 1 0.037075 -0.009266 0.006092 0.000000 0.000000 0.000000
# 2 -0.009266 0.017589 -0.005092 0.000000 0.000000 0.000000
# 3 0.006092 -0.005092 0.010191 0.000000 0.000000 0.000000
# 4 0.000000 0.000000 0.000000 0.026443 0.000000 0.000000
# 5 0.000000 0.000000 0.000000 0.000000 0.044896 0.000000
# 6 0.000000 0.000000 0.000000 0.000000 0.000000 0.057885
#
#
# Mechanical properties :
#
#
# Convention : Reuss Voigt Hill
#
# Bulk Modulus (GPa) = 20.69398 31.27540 25.98469
# Shear Modulus (GPa) = 22.05383 28.49954 25.27669
#
# Velocity S-wave (km/s) = 3.01493 3.42732 3.22772
# Velocity P-wave (km/s) = 4.54413 5.34347 4.95993
#
# Compressibility (1/GPa) = 0.04832323
#
# Stress axis : x y z
#
# Youngs Moduli (GPa) = 26.97260 56.85310 98.12555
#
# Poissons Ratio (x) = 0.52678 -0.59774
# Poissons Ratio (y) = 0.24992 0.49964
# Poissons Ratio (z) = -0.16431 0.28949
#
# Static dielectric constant tensor:
#      x y z
#    x 1.988100 0.000000 0.000000 
#    y 0.000000 1.997290 0.000000 
#    z 0.000000 0.000000 1.900050 
# 
# From -- ./inp_files/14185.got.cif
#   From: 2010.05.17/outbox.cif.g08.bks.cpg/sg40_8_cif.got.tgz:14185.got - 2010.06.03 18:35:42.
