data_PCOD9364116
_publ_section_title
;
Structure prediction by ZEFSAII (Michael W. Deem and Ramdas Pophale) SiO2 
 PCOD9364116
Probable space group: A M A 2
;
_chemical_formula_sum "Si O2"
_cell_formula_units_Z 64
_cell_length_a 8.409761
_cell_length_b 24.473476
_cell_length_c 15.921767
_cell_angle_alpha 90.000000
_cell_angle_beta 90.000000
_cell_angle_gamma 90.000000
_cell_volume 3276.955734
_symmetry_space_group_name_H-M "A M A 2"
_symmetry_group_IT_number 40
_symmetry_cell_setting 'orthorhombic'
loop_
_space_group_symop_operation_xyz
x,y,z
-x,-y,z
1/2-x,y,z
1/2+x,-y,z
x,1/2+y,1/2+z
-x,1/2-y,1/2+z
1/2-x,1/2+y,1/2+z
1/2+x,1/2-y,1/2+z
loop_
_atom_site_type_symbol
_atom_site_label
_atom_site_fract_x
_atom_site_fract_y
_atom_site_fract_z
Si Si1 0.943687 0.750041 0.804020
Si Si2 0.556313 0.250041 0.499804
Si Si3 0.942203 0.367749 0.562723
Si Si4 0.440411 0.868522 0.559178
Si Si5 0.942203 0.367749 0.241100
Si Si6 0.442168 0.561865 0.401912
Si Si7 0.559589 0.631478 0.744645
Si Si8 0.938957 0.938195 0.401912
O O1 0.750000 0.750209 0.802680
O O2 0.990843 0.750830 0.901912
O O3 0.997052 0.805551 0.759229
O O4 0.997638 0.693729 0.761883
O O5 0.750000 0.250209 0.501143
O O6 0.502948 0.305551 0.544595
O O7 0.502362 0.193729 0.541940
O O8 0.750000 0.367612 0.563398
O O9 0.994568 0.405693 0.485359
O O10 0.002491 0.386400 0.653066
O O11 0.250000 0.868293 0.556804
O O12 0.497509 0.886400 0.650758
O O13 0.500709 0.906451 0.484240
O O14 0.750000 0.367612 0.240426
O O15 0.994568 0.405693 0.318464
O O16 0.500000 0.500000 0.401912
O O17 0.250000 0.562483 0.401912
O O18 0.750000 0.631707 0.747020
O O19 0.499292 0.593550 0.819584
O O20 0.750000 0.938130 0.401912
O O21 0.000000 0.000000 0.401911
#
# Coordination Sequence:
#
# PCOD9364116 Si02
#       8
#     8   8   8   8   8   8   8   8
#     4   9  16  32  60  88 119 157 196 243 299 354
#     4   9  16  32  60  88 119 157 196 243 299 354
#     4  10  20  37  61  88 118 159 205 245 295 356
#     4  11  22  38  62  92 125 157 191 242 304 360
#     4  10  20  37  61  88 118 159 205 245 295 356
#     4  10  22  39  60  82 112 155 201 250 295 342
#     4  11  22  38  62  92 125 157 191 242 304 360
#     4  12  26  45  66  88 116 155 203 250 295 354
#
# _framework density 19.530322000000002
#
# number of rings (size 3 to 8) (size 9 to 14) (size 15 to 20)
#    0.000    1.750    2.500    2.625    0.000    2.000 
#    0.000    3.750    0.000    0.000    0.000    0.000 
#    0.000    0.000    0.000    0.000    0.000    0.000 
#
# Total GULP energy -178815.565702 kJ/mol
# GULP energy per Si atom -5587.986428 kJ/mol
# Density = 1.948587 g / cm^3
# Si number density = 19.530322 Si / 1000 Ang^3
#
#
#
# Elastic Constant Matrix: (Units=GPa)
#
#
# Indices 1 2 3 4 5 6 
#
# 1 33.4177 30.7138 34.9976 0.0000 0.0000 0.0000
# 2 30.7138 162.2696 96.9448 0.0000 0.0000 0.0000
# 3 34.9976 96.9448 208.3221 0.0000 0.0000 0.0000
# 4 0.0000 0.0000 0.0000 -0.5077 0.0000 0.0000
# 5 0.0000 0.0000 0.0000 0.0000 22.1447 0.0000
# 6 0.0000 0.0000 0.0000 0.0000 0.0000 25.1727
#
#
#
# Elastic Compliance Matrix: (Units=1/GPa)
#
#
# Indices 1 2 3 4 5 6 
#
# 1 0.038818 -0.004780 -0.004297 0.000000 0.000000 0.000000
# 2 -0.004780 0.009124 -0.003443 0.000000 0.000000 0.000000
# 3 -0.004297 -0.003443 0.007124 0.000000 0.000000 0.000000
# 4 0.000000 0.000000 0.000000 -1.969727 0.000000 0.000000
# 5 0.000000 0.000000 0.000000 0.000000 0.045158 0.000000
# 6 0.000000 0.000000 0.000000 0.000000 0.000000 0.039726
#
#
# Mechanical properties :
#
#
# Convention : Reuss Voigt Hill
#
# Bulk Modulus (GPa) = 33.30422 81.03574 57.16998
# Shear Modulus (GPa) = -2.78594 25.45215 11.33311
#
# Velocity S-wave (km/s) = -1.19564 3.61392 2.41152
# Velocity P-wave (km/s) = 3.89660 7.68090 6.09015
#
# Compressibility (1/GPa) = 0.03002622
#
# Stress axis : x y z
#
# Youngs Moduli (GPa) = 25.76156 109.59682 140.36382
#
# Poissons Ratio (x) = 0.52390 0.60310
# Poissons Ratio (y) = 0.12315 0.48328
# Poissons Ratio (z) = 0.11069 0.37735
#
# Static dielectric constant tensor:
#      x y z
#    x 1.671440 0.000000 0.000000 
#    y 0.000000 1.666310 0.000000 
#    z 0.000000 0.000000 1.663430 
# 
# From -- ./inp_files/15698.got.cif
#   From: 2010.05.17/outbox.cif.g08.bks.cpg/sg40_8_cif.got.tgz:15698.got - 2010.06.03 18:35:42.
