data_PCOD9364425
_publ_section_title
;
Structure prediction by ZEFSAII (Michael W. Deem and Ramdas Pophale) SiO2 
 PCOD9364425
Probable space group: A M A 2
;
_chemical_formula_sum "Si O2"
_cell_formula_units_Z 64
_cell_length_a 8.847183
_cell_length_b 23.920798
_cell_length_c 19.401425
_cell_angle_alpha 90.000000
_cell_angle_beta 90.000000
_cell_angle_gamma 90.000000
_cell_volume 4105.956117
_symmetry_space_group_name_H-M "A M A 2"
_symmetry_group_IT_number 40
_symmetry_cell_setting 'orthorhombic'
loop_
_space_group_symop_operation_xyz
x,y,z
-x,-y,z
1/2-x,y,z
1/2+x,-y,z
x,1/2+y,1/2+z
-x,1/2-y,1/2+z
1/2-x,1/2+y,1/2+z
1/2+x,1/2-y,1/2+z
loop_
_atom_site_type_symbol
_atom_site_label
_atom_site_fract_x
_atom_site_fract_y
_atom_site_fract_z
Si Si1 0.070558 0.228420 0.797450
Si Si2 0.930723 0.939622 0.293222
Si Si3 0.431964 0.938935 0.013157
Si Si4 0.430609 0.337072 0.419589
Si Si5 0.431933 0.381574 0.658431
Si Si6 0.569284 0.831836 0.379089
Si Si7 0.429386 0.742851 0.656765
Si Si8 0.570880 0.270971 0.015465
O O1 0.250000 0.228232 0.790805
O O2 0.014987 0.181137 0.850537
O O3 0.016203 0.286907 0.831720
O O4 0.993386 0.225080 0.723118
O O5 0.750000 0.943909 0.285395
O O6 0.962878 0.893782 0.352396
O O7 0.001047 0.915042 0.222972
O O8 0.000000 0.000000 0.307820
O O9 0.250000 0.942190 0.011634
O O10 0.473382 0.912665 0.087341
O O11 0.500000 0.000000 0.004862
O O12 0.478517 0.895135 0.954007
O O13 0.250000 0.338065 0.406757
O O14 0.455817 0.287857 0.475833
O O15 0.250000 0.379057 0.663221
O O16 0.496790 0.318963 0.657556
O O17 0.750000 0.821390 0.370754
O O18 0.533257 0.817869 0.458431
O O19 0.250000 0.737449 0.661775
O O20 0.478008 0.771539 0.585414
O O21 0.750000 0.273757 0.031214
#
# Coordination Sequence:
#
# PCOD9364425 Si02
#       8
#     8   8   8   8   8   8   8   8
#     4  11  21  32  51  75  99 129 168 210 252 300
#     4  11  22  35  51  73 101 139 176 211 250 294
#     4  10  21  35  51  71 100 137 174 210 250 293
#     4   9  18  35  52  70 100 134 165 206 257 299
#     4  11  21  35  50  70 100 138 178 214 247 290
#     4   9  19  35  52  71  99 133 167 206 255 299
#     4  12  22  32  49  75 104 135 167 205 255 309
#     4   9  17  33  53  71  97 130 166 207 252 303
#
# _framework density 15.587113
#
# number of rings (size 3 to 8) (size 9 to 14) (size 15 to 20)
#    0.000    1.750    2.500    4.125    0.000    5.000 
#    0.000    0.000    0.000    0.000    0.000    0.875 
#    0.000    4.000    0.000    0.000    0.000    0.000 
#
# Total GULP energy -178663.580990 kJ/mol
# GULP energy per Si atom -5583.236906 kJ/mol
# Density = 1.555164 g / cm^3
# Si number density = 15.587113 Si / 1000 Ang^3
#
#
#
# Elastic Constant Matrix: (Units=GPa)
#
#
# Indices 1 2 3 4 5 6 
#
# 1 68.7508 43.3824 59.8298 0.0000 0.0000 0.0000
# 2 43.3824 102.9239 70.1264 0.0000 0.0000 0.0000
# 3 59.8298 70.1264 121.2463 0.0000 0.0000 0.0000
# 4 0.0000 0.0000 0.0000 18.0907 0.0000 0.0000
# 5 0.0000 0.0000 0.0000 0.0000 21.0244 0.0000
# 6 0.0000 0.0000 0.0000 0.0000 0.0000 6.2548
#
#
#
# Elastic Compliance Matrix: (Units=1/GPa)
#
#
# Indices 1 2 3 4 5 6 
#
# 1 0.026321 -0.003705 -0.010846 0.000000 0.000000 0.000000
# 2 -0.003705 0.016556 -0.007748 0.000000 0.000000 0.000000
# 3 -0.010846 -0.007748 0.018081 0.000000 0.000000 0.000000
# 4 0.000000 0.000000 0.000000 0.055277 0.000000 0.000000
# 5 0.000000 0.000000 0.000000 0.000000 0.047564 0.000000
# 6 0.000000 0.000000 0.000000 0.000000 0.000000 0.159877
#
#
# Mechanical properties :
#
#
# Convention : Reuss Voigt Hill
#
# Bulk Modulus (GPa) = 61.11714 71.06644 66.09179
# Shear Modulus (GPa) = 13.37878 17.04614 15.21246
#
# Velocity S-wave (km/s) = 2.93289 3.31056 3.12743
# Velocity P-wave (km/s) = 7.12491 7.76564 7.45216
#
# Compressibility (1/GPa) = 0.01636202
#
# Stress axis : x y z
#
# Youngs Moduli (GPa) = 37.99179 60.39996 55.30783
#
# Poissons Ratio (x) = 0.22377 0.59985
# Poissons Ratio (y) = 0.14075 0.42850
# Poissons Ratio (z) = 0.41205 0.46796
#
# Static dielectric constant tensor:
#      x y z
#    x 1.520470 0.000000 0.000000 
#    y 0.000000 1.500400 0.000000 
#    z 0.000000 0.000000 1.518170 
# 
# From -- ./inp_files/19699.got.cif
#   From: 2010.05.17/outbox.cif.g08.bks.cpg/sg40_10_cif.got.tgz:19699.got - 2010.06.03 18:35:42.
