data_PCOD9364871
_publ_section_title
;
Structure prediction by ZEFSAII (Michael W. Deem and Ramdas Pophale) SiO2 
 PCOD9364871
Probable space group: A M A 2
;
_chemical_formula_sum "Si O2"
_cell_formula_units_Z 60
_cell_length_a 25.589073
_cell_length_b 7.717035
_cell_length_c 13.132929
_cell_angle_alpha 90.000000
_cell_angle_beta 90.000000
_cell_angle_gamma 90.000000
_cell_volume 2593.382761
_symmetry_space_group_name_H-M "A M A 2"
_symmetry_group_IT_number 40
_symmetry_cell_setting 'orthorhombic'
loop_
_space_group_symop_operation_xyz
x,y,z
-x,-y,z
1/2-x,y,z
1/2+x,-y,z
x,1/2+y,1/2+z
-x,1/2-y,1/2+z
1/2-x,1/2+y,1/2+z
1/2+x,1/2-y,1/2+z
loop_
_atom_site_type_symbol
_atom_site_label
_atom_site_fract_x
_atom_site_fract_y
_atom_site_fract_z
Si Si1 0.250000 0.187714 0.119970
Si Si2 0.587119 0.498827 0.811873
Si Si3 0.116597 0.222888 0.493753
Si Si4 0.158280 0.084183 0.000327
Si Si5 0.079117 0.286703 0.137442
Si Si6 0.971642 0.678816 0.651202
Si Si7 0.805875 0.700164 0.811757
Si Si8 0.171745 0.515034 0.144746
O O1 0.202007 0.053887 0.087278
O O2 0.205303 0.341145 0.140723
O O3 0.584014 0.403261 0.919960
O O4 0.583968 0.347478 0.729567
O O5 0.546257 0.641527 0.768357
O O6 0.644475 0.578960 0.804643
O O7 0.138771 0.404355 0.451274
O O8 0.079517 0.286158 0.585563
O O9 0.165273 0.112498 0.537084
O O10 0.108829 0.194323 0.042650
O O11 0.188967 0.201469 0.919325
O O12 0.112423 0.453862 0.165630
O O13 0.017519 0.313806 0.129209
O O14 0.000000 0.500000 0.616437
O O15 0.750000 0.606590 0.805363
O O16 0.809240 0.848394 0.726770
#
# Coordination Sequence:
#
# PCOD9364871 Si02
#       8
#     4   8   8   8   8   8   8   8
#     4  10  22  40  64 100 134 196 230 300 358 434
#     4  11  23  46  71 103 143 181 245 294 362 439
#     4  12  24  44  73 106 137 190 236 301 363 435
#     4  11  22  43  69  99 144 185 240 296 363 426
#     4  10  22  46  70 100 148 181 233 308 354 441
#     4  10  21  47  70 102 147 184 234 305 362 433
#     4  12  24  45  68 105 144 189 241 309 354 438
#     4  11  23  44  68 101 146 182 241 293 369 427
#
# _framework density 23.135805999999999
#
# number of rings (size 3 to 8) (size 9 to 14) (size 15 to 20)
#    0.000    1.067    5.333    2.400    0.000    1.067 
#   25.200    0.000    0.000    0.000    0.000    0.000 
#    0.000    0.000    0.000    0.000    0.000    0.000 
#
# Total GULP energy -167060.087174 kJ/mol
# GULP energy per Si atom -5568.669572 kJ/mol
# Density = 2.308315 g / cm^3
# Si number density = 23.135806 Si / 1000 Ang^3
#
#
#
# Elastic Constant Matrix: (Units=GPa)
#
#
# Indices 1 2 3 4 5 6 
#
# 1 87.0309 22.2425 -5.6762 0.0000 0.0000 0.0000
# 2 22.2425 60.9515 -3.6771 0.0000 0.0000 0.0000
# 3 -5.6762 -3.6771 63.0745 0.0000 0.0000 0.0000
# 4 0.0000 0.0000 0.0000 25.7077 0.0000 0.0000
# 5 0.0000 0.0000 0.0000 0.0000 7.8397 0.0000
# 6 0.0000 0.0000 0.0000 0.0000 0.0000 49.5127
#
#
#
# Elastic Compliance Matrix: (Units=1/GPa)
#
#
# Indices 1 2 3 4 5 6 
#
# 1 0.012720 -0.004589 0.000877 0.000000 0.000000 0.000000
# 2 -0.004589 0.018120 0.000643 0.000000 0.000000 0.000000
# 3 0.000877 0.000643 0.015971 0.000000 0.000000 0.000000
# 4 0.000000 0.000000 0.000000 0.038899 0.000000 0.000000
# 5 0.000000 0.000000 0.000000 0.000000 0.127557 0.000000
# 6 0.000000 0.000000 0.000000 0.000000 0.000000 0.020197
#
#
# Mechanical properties :
#
#
# Convention : Reuss Voigt Hill
#
# Bulk Modulus (GPa) = 24.58570 26.31503 25.45036
# Shear Modulus (GPa) = 19.75052 29.82319 24.78685
#
# Velocity S-wave (km/s) = 2.92495 3.59423 3.27672
# Velocity P-wave (km/s) = 4.69647 5.35009 5.03390
#
# Compressibility (1/GPa) = 0.04067406
#
# Stress axis : x y z
#
# Youngs Moduli (GPa) = 78.61524 55.18795 62.61462
#
# Poissons Ratio (x) = 0.25325 -0.05493
# Poissons Ratio (y) = 0.36076 -0.04029
# Poissons Ratio (z) = -0.06896 -0.03551
#
# Static dielectric constant tensor:
#      x y z
#    x 1.893460 0.000000 0.000000 
#    y 0.000000 1.943790 0.000000 
#    z 0.000000 0.000000 1.934290 
# 
# From -- ./inp_files/14229.got.cif
#   From: 2010.05.17/outbox.cif.g08.bks.cpg/sg40_8_cif.got.tgz:14229.got - 2010.06.03 18:35:42.
