data_PCOD9364742
_publ_section_title
;
Structure prediction by ZEFSAII (Michael W. Deem and Ramdas Pophale) SiO2 
 PCOD9364742
Probable space group: A M A 2
;
_chemical_formula_sum "Si O2"
_cell_formula_units_Z 40
_cell_length_a 16.561834
_cell_length_b 9.093540
_cell_length_c 13.493707
_cell_angle_alpha 90.000000
_cell_angle_beta 90.000000
_cell_angle_gamma 90.000000
_cell_volume 2032.229188
_symmetry_space_group_name_H-M "A M A 2"
_symmetry_group_IT_number 40
_symmetry_cell_setting 'orthorhombic'
loop_
_space_group_symop_operation_xyz
x,y,z
-x,-y,z
1/2-x,y,z
1/2+x,-y,z
x,1/2+y,1/2+z
-x,1/2-y,1/2+z
1/2-x,1/2+y,1/2+z
1/2+x,1/2-y,1/2+z
loop_
_atom_site_type_symbol
_atom_site_label
_atom_site_fract_x
_atom_site_fract_y
_atom_site_fract_z
Si Si1 0.623212 0.259385 0.553460
Si Si2 0.250000 0.017354 0.964454
Si Si3 0.082653 0.825685 0.339777
Si Si4 0.913059 0.834342 0.272976
Si Si5 0.750000 0.786679 0.392243
Si Si6 0.250000 0.676278 0.268179
Si Si7 0.250000 0.495403 0.070685
O O1 0.675709 0.395225 0.511413
O O2 0.576383 0.202209 0.457363
O O3 0.587643 0.318958 0.654843
O O4 0.675649 0.116162 0.581327
O O5 0.250000 0.043462 0.846638
O O6 0.250000 0.844040 0.972965
O O7 0.167077 0.762071 0.296267
O O8 0.998035 0.760285 0.301756
O O9 0.084353 0.996543 0.309227
O O10 0.830615 0.777382 0.324678
O O11 0.750000 0.933780 0.460457
O O12 0.250000 0.615715 0.157180
#
# Coordination Sequence:
#
# PCOD9364742 Si02
#       7
#     8   4   8   8   4   4   4
#     4  10  21  44  64  90 132 174 212 273 327 387
#     4   9  21  38  63  94 125 166 220 266 321 388
#     4  10  23  43  63 100 127 172 216 275 319 400
#     4  11  23  41  68  92 134 174 214 266 337 388
#     4  12  22  39  64 101 128 169 221 270 316 406
#     4  10  21  40  63  92 132 161 224 271 317 388
#     4  11  22  37  70  97 125 180 215 263 342 378
#
# _framework density 19.682818000000001
#
# number of rings (size 3 to 8) (size 9 to 14) (size 15 to 20)
#    0.000    1.600    2.000    3.600    2.800    1.600 
#    3.600    7.000    0.000    0.000    0.000    0.000 
#    0.000    0.000    0.000    0.000    0.000    0.000 
#
# Total GULP energy -111403.737935 kJ/mol
# GULP energy per Si atom -5570.186897 kJ/mol
# Density = 1.963802 g / cm^3
# Si number density = 19.682818 Si / 1000 Ang^3
#
#
#
# Elastic Constant Matrix: (Units=GPa)
#
#
# Indices 1 2 3 4 5 6 
#
# 1 129.0279 19.7614 55.9328 0.0000 0.0000 0.0000
# 2 19.7614 68.1657 23.5221 0.0000 0.0000 0.0000
# 3 55.9328 23.5221 172.0294 0.0000 0.0000 0.0000
# 4 0.0000 0.0000 0.0000 23.6634 0.0000 0.0000
# 5 0.0000 0.0000 0.0000 0.0000 59.1024 0.0000
# 6 0.0000 0.0000 0.0000 0.0000 0.0000 -32.4396
#
#
#
# Elastic Compliance Matrix: (Units=1/GPa)
#
#
# Indices 1 2 3 4 5 6 
#
# 1 0.009210 -0.001718 -0.002759 0.000000 0.000000 0.000000
# 2 -0.001718 0.015717 -0.001591 0.000000 0.000000 0.000000
# 3 -0.002759 -0.001591 0.006928 0.000000 0.000000 0.000000
# 4 0.000000 0.000000 0.000000 0.042259 0.000000 0.000000
# 5 0.000000 0.000000 0.000000 0.000000 0.016920 0.000000
# 6 0.000000 0.000000 0.000000 0.000000 0.000000 -0.030827
#
#
# Mechanical properties :
#
#
# Convention : Reuss Voigt Hill
#
# Bulk Modulus (GPa) = 50.71317 63.07287 56.89302
# Shear Modulus (GPa) = 63.35932 28.06569 45.71251
#
# Velocity S-wave (km/s) = 5.67979 3.78020 4.82442
# Velocity P-wave (km/s) = 8.29666 7.15314 7.74603
#
# Compressibility (1/GPa) = 0.01971874
#
# Stress axis : x y z
#
# Youngs Moduli (GPa) = 108.58291 63.62562 144.34911
#
# Poissons Ratio (x) = 0.10929 0.39833
# Poissons Ratio (y) = 0.18651 0.22960
# Poissons Ratio (z) = 0.29963 0.10120
#
# Static dielectric constant tensor:
#      x y z
#    x 1.703380 0.000000 0.000000 
#    y 0.000000 1.690400 0.000000 
#    z 0.000000 0.000000 1.687390 
# 
# From -- ./inp_files/12747.got.cif
#   From: 2010.05.17/outbox.cif.g08.bks.cpg/sg40_7_cif.got.tgz:12747.got - 2010.06.03 18:35:42.
