data_PCOD9364429
_publ_section_title
;
Structure prediction by ZEFSAII (Michael W. Deem and Ramdas Pophale) SiO2 
 PCOD9364429
Probable space group: A M A 2
;
_chemical_formula_sum "Si O2"
_cell_formula_units_Z 48
_cell_length_a 15.131302
_cell_length_b 9.578232
_cell_length_c 16.299390
_cell_angle_alpha 90.000000
_cell_angle_beta 90.000000
_cell_angle_gamma 90.000000
_cell_volume 2362.288865
_symmetry_space_group_name_H-M "A M A 2"
_symmetry_group_IT_number 40
_symmetry_cell_setting 'orthorhombic'
loop_
_space_group_symop_operation_xyz
x,y,z
-x,-y,z
1/2-x,y,z
1/2+x,-y,z
x,1/2+y,1/2+z
-x,1/2-y,1/2+z
1/2-x,1/2+y,1/2+z
1/2+x,1/2-y,1/2+z
loop_
_atom_site_type_symbol
_atom_site_label
_atom_site_fract_x
_atom_site_fract_y
_atom_site_fract_z
Si Si1 0.602976 0.395536 0.656400
Si Si2 0.144872 0.946343 0.991656
Si Si3 0.600803 0.334951 0.061996
Si Si4 0.352403 0.186512 0.883130
Si Si5 0.407330 0.329544 0.721323
Si Si6 0.386900 0.848389 0.551224
O O1 0.598343 0.481000 0.569944
O O2 0.509114 0.355273 0.695584
O O3 0.639212 0.517981 0.715413
O O4 0.645764 0.250719 0.625942
O O5 0.250000 0.970050 0.002001
O O6 0.116928 0.032439 0.911534
O O7 0.127428 0.782141 0.995731
O O8 0.628761 0.270889 0.149762
O O9 0.494034 0.343244 0.057590
O O10 0.638084 0.489795 0.052851
O O11 0.250000 0.178068 0.858447
O O12 0.402356 0.258151 0.808817
O O13 0.359757 0.278644 0.965622
#
# Coordination Sequence:
#
# PCOD9364429 Si02
#       6
#     8   8   8   8   8   8
#     4   8  16  31  53  77 103 143 186 221 267 331
#     4   9  18  34  55  79 109 147 190 231 277 342
#     4   9  18  33  56  81 105 142 187 229 277 332
#     4  10  21  35  52  78 111 146 183 230 286 335
#     4   9  17  32  53  78 110 142 181 229 276 333
#     4   9  18  35  55  79 110 142 185 231 273 338
#
# _framework density 20.319275999999999
#
# number of rings (size 3 to 8) (size 9 to 14) (size 15 to 20)
#    0.000    3.000    0.000    1.000    0.000    8.000 
#    0.000    8.333    0.000    0.000    0.000    0.000 
#    0.000    0.000    0.000    0.000    0.000    0.000 
#
# Total GULP energy -133653.510280 kJ/mol
# GULP energy per Si atom -5568.896262 kJ/mol
# Density = 2.027303 g / cm^3
# Si number density = 20.319276 Si / 1000 Ang^3
#
#
#
# Elastic Constant Matrix: (Units=GPa)
#
#
# Indices 1 2 3 4 5 6 
#
# 1 65.0262 16.8221 18.4927 0.0000 0.0000 0.0000
# 2 16.8221 205.2783 67.6899 0.0000 0.0000 0.0000
# 3 18.4927 67.6899 96.8974 0.0000 0.0000 0.0000
# 4 0.0000 0.0000 0.0000 33.2151 0.0000 0.0000
# 5 0.0000 0.0000 0.0000 0.0000 1.9721 0.0000
# 6 0.0000 0.0000 0.0000 0.0000 0.0000 10.3102
#
#
#
# Elastic Compliance Matrix: (Units=1/GPa)
#
#
# Indices 1 2 3 4 5 6 
#
# 1 0.016287 -0.000402 -0.002827 0.000000 0.000000 0.000000
# 2 -0.000402 0.006339 -0.004352 0.000000 0.000000 0.000000
# 3 -0.002827 -0.004352 0.013900 0.000000 0.000000 0.000000
# 4 0.000000 0.000000 0.000000 0.030107 0.000000 0.000000
# 5 0.000000 0.000000 0.000000 0.000000 0.507063 0.000000
# 6 0.000000 0.000000 0.000000 0.000000 0.000000 0.096991
#
#
# Mechanical properties :
#
#
# Convention : Reuss Voigt Hill
#
# Bulk Modulus (GPa) = 46.80966 63.69015 55.24990
# Shear Modulus (GPa) = 7.21532 26.71264 16.96398
#
# Velocity S-wave (km/s) = 1.88645 3.62974 2.89255
# Velocity P-wave (km/s) = 5.27560 6.99853 6.19723
#
# Compressibility (1/GPa) = 0.02136311
#
# Stress axis : x y z
#
# Youngs Moduli (GPa) = 61.40047 157.74416 71.94375
#
# Poissons Ratio (x) = 0.06348 0.20340
# Poissons Ratio (y) = 0.02471 0.31308
# Poissons Ratio (z) = 0.17359 0.68646
#
# Static dielectric constant tensor:
#      x y z
#    x 1.757580 0.000000 0.000000 
#    y 0.000000 1.789100 0.000000 
#    z 0.000000 0.000000 1.688570 
# 
# From -- ./inp_files/17606.got.cif
#   From: 2010.05.17/outbox.cif.g08.bks.cpg/sg40_9_cif.got.tgz:17606.got - 2010.06.03 18:35:42.
