data_PCOD9364491
_publ_section_title
;
Structure prediction by ZEFSAII (Michael W. Deem and Ramdas Pophale) SiO2 
 PCOD9364491
Probable space group: A M A 2
;
_chemical_formula_sum "Si O2"
_cell_formula_units_Z 40
_cell_length_a 30.814647
_cell_length_b 9.363104
_cell_length_c 5.429176
_cell_angle_alpha 90.000000
_cell_angle_beta 90.000000
_cell_angle_gamma 90.000000
_cell_volume 1566.429902
_symmetry_space_group_name_H-M "A M A 2"
_symmetry_group_IT_number 40
_symmetry_cell_setting 'orthorhombic'
loop_
_space_group_symop_operation_xyz
x,y,z
-x,-y,z
1/2-x,y,z
1/2+x,-y,z
x,1/2+y,1/2+z
-x,1/2-y,1/2+z
1/2-x,1/2+y,1/2+z
1/2+x,1/2-y,1/2+z
loop_
_atom_site_type_symbol
_atom_site_label
_atom_site_fract_x
_atom_site_fract_y
_atom_site_fract_z
Si Si1 0.699758 0.756438 0.277450
Si Si2 0.469407 0.626931 0.278851
Si Si3 0.658341 0.035980 0.445040
Si Si4 0.124649 0.919581 0.950715
Si Si5 0.553264 0.305746 0.775634
O O1 0.750000 0.719900 0.296880
O O2 0.668144 0.678900 0.469911
O O3 0.692090 0.922902 0.330483
O O4 0.680215 0.686750 0.026015
O O5 0.500000 0.500000 0.363292
O O6 0.450093 0.593202 0.012247
O O7 0.502869 0.757044 0.239257
O O8 0.435237 0.650937 0.496592
O O9 0.638720 0.987738 0.711557
O O10 0.621482 0.035411 0.234456
O O11 0.084725 0.821459 0.863101
#
# Coordination Sequence:
#
# PCOD9364491 Si02
#       5
#     8   8   8   8   8
#     4  10  24  43  65  94 127 170 218 272 335 399
#     4  10  21  36  62  90 124 166 202 255 313 379
#     4  10  24  41  64  92 125 169 213 270 327 394
#     4  10  24  41  64  94 128 171 218 272 327 395
#     4  10  21  39  59  90 125 158 212 252 313 381
#
# _framework density 25.535775999999998
#
# number of rings (size 3 to 8) (size 9 to 14) (size 15 to 20)
#    1.200    0.800    0.000    2.400    2.800    4.800 
#    0.000    0.000    0.000    0.000    0.000    0.000 
#    0.000    0.000    0.000    0.000    0.000    0.000 
#
# Total GULP energy -111484.485393 kJ/mol
# GULP energy per Si atom -5574.224270 kJ/mol
# Density = 2.547766 g / cm^3
# Si number density = 25.535776 Si / 1000 Ang^3
#
#
#
# Elastic Constant Matrix: (Units=GPa)
#
#
# Indices 1 2 3 4 5 6 
#
# 1 124.8537 16.6205 59.6894 0.0000 0.0000 0.0000
# 2 16.6205 46.3704 38.3463 0.0000 0.0000 0.0000
# 3 59.6894 38.3463 194.6576 0.0000 0.0000 0.0000
# 4 0.0000 0.0000 0.0000 47.8087 0.0000 0.0000
# 5 0.0000 0.0000 0.0000 0.0000 19.5099 0.0000
# 6 0.0000 0.0000 0.0000 0.0000 0.0000 34.8176
#
#
#
# Elastic Compliance Matrix: (Units=1/GPa)
#
#
# Indices 1 2 3 4 5 6 
#
# 1 0.009439 -0.001182 -0.002661 0.000000 0.000000 0.000000
# 2 -0.001182 0.025910 -0.004742 0.000000 0.000000 0.000000
# 3 -0.002661 -0.004742 0.006887 0.000000 0.000000 0.000000
# 4 0.000000 0.000000 0.000000 0.020917 0.000000 0.000000
# 5 0.000000 0.000000 0.000000 0.000000 0.051256 0.000000
# 6 0.000000 0.000000 0.000000 0.000000 0.000000 0.028721
#
#
# Mechanical properties :
#
#
# Convention : Reuss Voigt Hill
#
# Bulk Modulus (GPa) = 39.89460 66.13269 53.01364
# Shear Modulus (GPa) = 29.64593 37.17560 33.41077
#
# Velocity S-wave (km/s) = 3.41098 3.81967 3.62109
# Velocity P-wave (km/s) = 5.58301 6.73850 6.18779
#
# Compressibility (1/GPa) = 0.02506605
#
# Stress axis : x y z
#
# Youngs Moduli (GPa) = 105.94168 38.59451 145.19243
#
# Poissons Ratio (x) = 0.04563 0.38643
# Poissons Ratio (y) = 0.12526 0.68845
# Poissons Ratio (z) = 0.28196 0.18300
#
# Static dielectric constant tensor:
#      x y z
#    x 2.004590 0.000000 0.000000 
#    y 0.000000 2.161190 0.000000 
#    z 0.000000 0.000000 2.130590 
# 
# From -- ./inp_files/2955.got.cif
#   From: 2010.05.17/outbox.cif.g08.bks.cpg/sg40_2_cif.got.tgz:2955.got - 2010.06.03 18:35:42.
