data_PCOD9364913
_publ_section_title
;
Structure prediction by ZEFSAII (Michael W. Deem and Ramdas Pophale) SiO2 
 PCOD9364913
Probable space group: A M A 2
;
_chemical_formula_sum "Si O2"
_cell_formula_units_Z 48
_cell_length_a 18.686858
_cell_length_b 5.136650
_cell_length_c 23.031412
_cell_angle_alpha 90.000000
_cell_angle_beta 90.000000
_cell_angle_gamma 90.000000
_cell_volume 2210.735701
_symmetry_space_group_name_H-M "A M A 2"
_symmetry_group_IT_number 40
_symmetry_cell_setting 'orthorhombic'
loop_
_space_group_symop_operation_xyz
x,y,z
-x,-y,z
1/2-x,y,z
1/2+x,-y,z
x,1/2+y,1/2+z
-x,1/2-y,1/2+z
1/2-x,1/2+y,1/2+z
1/2+x,1/2-y,1/2+z
loop_
_atom_site_type_symbol
_atom_site_label
_atom_site_fract_x
_atom_site_fract_y
_atom_site_fract_z
Si Si1 0.623523 0.158311 0.344800
Si Si2 0.417941 0.076581 0.686839
Si Si3 0.548448 0.760971 0.555791
Si Si4 0.121386 0.220433 0.440395
Si Si5 0.500000 0.500000 0.368056
Si Si6 0.836492 0.416320 0.735704
Si Si7 0.750000 0.502681 0.374028
O O1 0.548846 0.298550 0.333014
O O2 0.641544 0.913083 0.303947
O O3 0.687957 0.354928 0.335752
O O4 0.626325 0.067238 0.412142
O O5 0.369292 0.826978 0.701462
O O6 0.500000 0.000000 0.704076
O O7 0.424212 0.152654 0.618895
O O8 0.378704 0.325044 0.715102
O O9 0.500000 0.500000 0.559669
O O10 0.610937 0.743308 0.508508
O O11 0.500000 0.000000 0.533609
O O12 0.188614 0.369311 0.415514
O O13 0.051638 0.337639 0.409484
O O14 0.750000 0.427306 0.730632
#
# Coordination Sequence:
#
# PCOD9364913 Si02
#       7
#     8   8   8   8   4   8   4
#     4  11  24  41  67 100 143 187 232 300 359 436
#     4  11  26  48  74 104 135 189 251 304 357 431
#     4  11  23  46  76 102 140 183 235 307 371 423
#     4  11  23  41  67 102 140 183 234 291 364 447
#     4  10  22  38  64 106 132 174 242 284 362 428
#     4  12  27  47  73 101 148 190 242 299 374 433
#     4  10  24  42  62  98 146 192 234 278 374 432
#
# _framework density 21.712226999999999
#
# number of rings (size 3 to 8) (size 9 to 14) (size 15 to 20)
#    0.000    1.000    1.667    5.000    8.167    1.333 
#    3.000    0.000    0.000    0.000    0.000    0.000 
#    0.000    0.000    0.000    0.000    0.000    0.000 
#
# Total GULP energy -133654.313077 kJ/mol
# GULP energy per Si atom -5568.929712 kJ/mol
# Density = 2.166281 g / cm^3
# Si number density = 21.712227 Si / 1000 Ang^3
#
#
#
# Elastic Constant Matrix: (Units=GPa)
#
#
# Indices 1 2 3 4 5 6 
#
# 1 163.2661 57.5389 49.8109 0.0000 0.0000 0.0000
# 2 57.5389 143.8979 42.1230 0.0000 0.0000 0.0000
# 3 49.8109 42.1230 119.0029 0.0000 0.0000 0.0000
# 4 0.0000 0.0000 0.0000 25.9137 0.0000 0.0000
# 5 0.0000 0.0000 0.0000 0.0000 -5.1039 0.0000
# 6 0.0000 0.0000 0.0000 0.0000 0.0000 -17.5990
#
#
#
# Elastic Compliance Matrix: (Units=1/GPa)
#
#
# Indices 1 2 3 4 5 6 
#
# 1 0.007688 -0.002379 -0.002376 0.000000 0.000000 0.000000
# 2 -0.002379 0.008489 -0.002009 0.000000 0.000000 0.000000
# 3 -0.002376 -0.002009 0.010109 0.000000 0.000000 0.000000
# 4 0.000000 0.000000 0.000000 0.038590 0.000000 0.000000
# 5 0.000000 0.000000 0.000000 0.000000 -0.195929 0.000000
# 6 0.000000 0.000000 0.000000 0.000000 0.000000 -0.056821
#
#
# Mechanical properties :
#
#
# Convention : Reuss Voigt Hill
#
# Bulk Modulus (GPa) = 78.38168 80.56807 79.47488
# Shear Modulus (GPa) = -29.39539 19.08843 -5.15348
#
# Velocity S-wave (km/s) = -3.68348 2.96827 -1.54230
# Velocity P-wave (km/s) = 4.25299 6.99538 5.78892
#
# Compressibility (1/GPa) = 0.01275808
#
# Stress axis : x y z
#
# Youngs Moduli (GPa) = 130.06983 117.80506 98.92331
#
# Poissons Ratio (x) = 0.28022 0.23505
# Poissons Ratio (y) = 0.30939 0.19874
# Poissons Ratio (z) = 0.30906 0.23668
#
# Static dielectric constant tensor:
#      x y z
#    x 1.788430 0.000000 0.000000 
#    y 0.000000 1.877780 0.000000 
#    z 0.000000 0.000000 1.832130 
# 
# From -- ./inp_files/24904.got.cif
#   From: 2010.05.17/outbox.cif.g08.bks.cpg/sg40_13_cif.got.tgz:24904.got - 2010.06.03 18:35:42.
