data_PCOD9364779
_publ_section_title
;
Structure prediction by ZEFSAII (Michael W. Deem and Ramdas Pophale) SiO2 
 PCOD9364779
Probable space group: A M A 2
;
_chemical_formula_sum "Si O2"
_cell_formula_units_Z 40
_cell_length_a 25.582946
_cell_length_b 13.933030
_cell_length_c 4.880051
_cell_angle_alpha 90.000000
_cell_angle_beta 90.000000
_cell_angle_gamma 90.000000
_cell_volume 1739.484195
_symmetry_space_group_name_H-M "A M A 2"
_symmetry_group_IT_number 40
_symmetry_cell_setting 'orthorhombic'
loop_
_space_group_symop_operation_xyz
x,y,z
-x,-y,z
1/2-x,y,z
1/2+x,-y,z
x,1/2+y,1/2+z
-x,1/2-y,1/2+z
1/2-x,1/2+y,1/2+z
1/2+x,1/2-y,1/2+z
loop_
_atom_site_type_symbol
_atom_site_label
_atom_site_fract_x
_atom_site_fract_y
_atom_site_fract_z
Si Si1 0.598668 0.052292 0.375000
Si Si2 0.809253 0.685101 0.706821
Si Si3 0.808850 0.820839 0.220065
Si Si4 0.399173 0.073995 0.913390
Si Si5 0.966024 0.740953 0.998230
O O1 0.650183 0.099747 0.238505
O O2 0.564534 0.141397 0.478559
O O3 0.609660 0.981839 0.630404
O O4 0.571298 0.995273 0.128158
O O5 0.750000 0.657026 0.623356
O O6 0.827336 0.768668 0.497095
O O7 0.806256 0.734850 0.001521
O O8 0.750000 0.858665 0.266174
O O9 0.846898 0.896796 0.080719
O O10 0.430801 0.172327 0.885405
O O11 0.016964 0.737966 0.807027
#
# Coordination Sequence:
#
# PCOD9364779 Si02
#       5
#     8   8   8   8   8
#     4  12  26  43  72 103 135 178 230 284 344 416
#     4  10  21  40  68  99 140 185 224 272 336 410
#     4  10  21  40  68  99 140 185 224 272 336 410
#     4  12  26  43  72 103 135 178 230 284 344 416
#     4  12  28  48  71  96 135 178 226 292 354 406
#
# _framework density 22.995325000000001
#
# number of rings (size 3 to 8) (size 9 to 14) (size 15 to 20)
#    0.000    0.800    2.000    4.800    2.800    6.400 
#    0.000    0.000    0.000    0.000    0.000    0.000 
#    0.000    0.000    0.000    0.000    0.000    0.000 
#
# Total GULP energy -111916.039137 kJ/mol
# GULP energy per Si atom -5595.801957 kJ/mol
# Density = 2.294299 g / cm^3
# Si number density = 22.995325 Si / 1000 Ang^3
#
#
#
# Elastic Constant Matrix: (Units=GPa)
#
#
# Indices 1 2 3 4 5 6 
#
# 1 61.3904 34.6247 9.3334 0.0000 0.0000 0.0000
# 2 34.6247 96.3410 13.0048 0.0000 0.0000 0.0000
# 3 9.3334 13.0048 108.2428 0.0000 0.0000 0.0000
# 4 0.0000 0.0000 0.0000 43.1378 0.0000 0.0000
# 5 0.0000 0.0000 0.0000 0.0000 25.3641 0.0000
# 6 0.0000 0.0000 0.0000 0.0000 0.0000 -24.3016
#
#
#
# Elastic Compliance Matrix: (Units=1/GPa)
#
#
# Indices 1 2 3 4 5 6 
#
# 1 0.020516 -0.007252 -0.000898 0.000000 0.000000 0.000000
# 2 -0.007252 0.013115 -0.000950 0.000000 0.000000 0.000000
# 3 -0.000898 -0.000950 0.009430 0.000000 0.000000 0.000000
# 4 0.000000 0.000000 0.000000 0.023181 0.000000 0.000000
# 5 0.000000 0.000000 0.000000 0.000000 0.039426 0.000000
# 6 0.000000 0.000000 0.000000 0.000000 0.000000 -0.041150
#
#
# Mechanical properties :
#
#
# Convention : Reuss Voigt Hill
#
# Bulk Modulus (GPa) = 40.22511 42.21113 41.21812
# Shear Modulus (GPa) = 54.94172 22.77415 38.85793
#
# Velocity S-wave (km/s) = 4.89330 3.15045 4.11520
# Velocity P-wave (km/s) = 7.03254 5.62406 6.36736
#
# Compressibility (1/GPa) = 0.02486009
#
# Stress axis : x y z
#
# Youngs Moduli (GPa) = 48.74247 76.25142 106.04379
#
# Poissons Ratio (x) = 0.55299 0.09520
# Poissons Ratio (y) = 0.35349 0.10077
# Poissons Ratio (z) = 0.04376 0.07246
#
# Static dielectric constant tensor:
#      x y z
#    x 1.973250 0.000000 0.000000 
#    y 0.000000 1.874420 0.000000 
#    z 0.000000 0.000000 1.842810 
# 
# From -- ./inp_files/2958.got.cif
#   From: 2010.05.17/outbox.cif.g08.bks.cpg/sg40_2_cif.got.tgz:2958.got - 2010.06.03 18:35:42.
