data_PCOD9364013
_publ_section_title
;
Structure prediction by ZEFSAII (Michael W. Deem and Ramdas Pophale) SiO2 
 PCOD9364013
Probable space group: A M A 2
;
_chemical_formula_sum "Si O2"
_cell_formula_units_Z 64
_cell_length_a 17.478563
_cell_length_b 11.952266
_cell_length_c 16.455983
_cell_angle_alpha 90.000000
_cell_angle_beta 90.000000
_cell_angle_gamma 90.000000
_cell_volume 3437.793643
_symmetry_space_group_name_H-M "A M A 2"
_symmetry_group_IT_number 40
_symmetry_cell_setting 'orthorhombic'
loop_
_space_group_symop_operation_xyz
x,y,z
-x,-y,z
1/2-x,y,z
1/2+x,-y,z
x,1/2+y,1/2+z
-x,1/2-y,1/2+z
1/2-x,1/2+y,1/2+z
1/2+x,1/2-y,1/2+z
loop_
_atom_site_type_symbol
_atom_site_label
_atom_site_fract_x
_atom_site_fract_y
_atom_site_fract_z
Si Si1 0.158358 0.236768 0.934520
Si Si2 0.591760 0.517089 0.898705
Si Si3 0.159328 0.581990 0.056361
Si Si4 0.338729 0.411133 0.195702
Si Si5 0.390296 0.193100 0.118697
Si Si6 0.429804 0.071560 0.813683
Si Si7 0.591934 0.517237 0.716449
Si Si8 0.560201 0.757832 0.665785
O O1 0.250000 0.244441 0.920591
O O2 0.117525 0.355075 0.914825
O O3 0.119439 0.141550 0.878292
O O4 0.142524 0.210885 0.029156
O O5 0.500000 0.500000 0.904721
O O6 0.617314 0.488856 0.807392
O O7 0.631129 0.440516 0.966043
O O8 0.250000 0.601353 0.059074
O O9 0.141683 0.470993 0.109842
O O10 0.112666 0.677979 0.101695
O O11 0.250000 0.428931 0.209999
O O12 0.355425 0.281705 0.182173
O O13 0.382265 0.477659 0.265291
O O14 0.480974 0.220879 0.123848
O O15 0.376145 0.068313 0.150703
O O16 0.455143 0.159955 0.742778
O O17 0.500000 0.000000 0.850019
O O18 0.500000 0.500000 0.716489
O O19 0.603051 0.647254 0.697368
#
# Coordination Sequence:
#
# PCOD9364013 Si02
#       8
#     8   8   8   8   8   8   8   8
#     4  12  25  42  64  96 136 174 215 266 330 396
#     4  11  21  38  64  94 123 165 216 268 318 382
#     4  10  21  35  57  90 124 157 204 264 320 375
#     4  10  20  36  59  89 123 157 204 263 317 375
#     4  11  21  39  66  89 124 168 215 256 320 391
#     4  11  22  38  66  95 123 164 219 270 321 380
#     4   9  21  39  62  89 122 157 203 260 314 377
#     4  10  20  40  62  92 122 163 215 268 320 382
#
# _framework density 18.616591
#
# number of rings (size 3 to 8) (size 9 to 14) (size 15 to 20)
#    0.000    1.500    3.750    1.875    0.000    2.000 
#    0.000    5.000    0.000    0.000    0.000    0.000 
#    0.000    0.000    0.000    0.000    0.000    0.000 
#
# Total GULP energy -178606.414041 kJ/mol
# GULP energy per Si atom -5581.450439 kJ/mol
# Density = 1.857422 g / cm^3
# Si number density = 18.616591 Si / 1000 Ang^3
#
#
#
# Elastic Constant Matrix: (Units=GPa)
#
#
# Indices 1 2 3 4 5 6 
#
# 1 78.0997 36.6138 39.0950 0.0000 0.0000 0.0000
# 2 36.6138 107.1687 40.7762 0.0000 0.0000 0.0000
# 3 39.0950 40.7762 81.5539 0.0000 0.0000 0.0000
# 4 0.0000 0.0000 0.0000 15.8329 0.0000 0.0000
# 5 0.0000 0.0000 0.0000 0.0000 -4.5783 0.0000
# 6 0.0000 0.0000 0.0000 0.0000 0.0000 8.3667
#
#
#
# Elastic Compliance Matrix: (Units=1/GPa)
#
#
# Indices 1 2 3 4 5 6 
#
# 1 0.017856 -0.003512 -0.006804 0.000000 0.000000 0.000000
# 2 -0.003512 0.012214 -0.004423 0.000000 0.000000 0.000000
# 3 -0.006804 -0.004423 0.017735 0.000000 0.000000 0.000000
# 4 0.000000 0.000000 0.000000 0.063160 0.000000 0.000000
# 5 0.000000 0.000000 0.000000 0.000000 -0.218420 0.000000
# 6 0.000000 0.000000 0.000000 0.000000 0.000000 0.119522
#
#
# Mechanical properties :
#
#
# Convention : Reuss Voigt Hill
#
# Bulk Modulus (GPa) = 54.56405 55.53246 55.04825
# Shear Modulus (GPa) = 104.92136 13.94673 59.43404
#
# Velocity S-wave (km/s) = 7.51541 2.74004 5.65638
# Velocity P-wave (km/s) = 10.23140 6.31702 8.50254
#
# Compressibility (1/GPa) = 0.01832709
#
# Stress axis : x y z
#
# Youngs Moduli (GPa) = 56.00205 81.87404 56.38492
#
# Poissons Ratio (x) = 0.28752 0.38365
# Poissons Ratio (y) = 0.19666 0.24941
# Poissons Ratio (z) = 0.38105 0.36216
#
# Static dielectric constant tensor:
#      x y z
#    x 1.647990 0.000000 0.000000 
#    y 0.000000 1.653540 0.000000 
#    z 0.000000 0.000000 1.626900 
# 
# From -- ./inp_files/17840.got.cif
#   From: 2010.05.17/outbox.cif.g08.bks.cpg/sg40_9_cif.got.tgz:17840.got - 2010.06.03 18:35:42.
