data_PCOD9364645
_publ_section_title
;
Structure prediction by ZEFSAII (Michael W. Deem and Ramdas Pophale) SiO2 
 PCOD9364645
Probable space group: A M A 2
;
_chemical_formula_sum "Si O2"
_cell_formula_units_Z 60
_cell_length_a 29.459893
_cell_length_b 10.345997
_cell_length_c 9.974095
_cell_angle_alpha 90.000000
_cell_angle_beta 90.000000
_cell_angle_gamma 90.000000
_cell_volume 3040.024010
_symmetry_space_group_name_H-M "A M A 2"
_symmetry_group_IT_number 40
_symmetry_cell_setting 'orthorhombic'
loop_
_space_group_symop_operation_xyz
x,y,z
-x,-y,z
1/2-x,y,z
1/2+x,-y,z
x,1/2+y,1/2+z
-x,1/2-y,1/2+z
1/2-x,1/2+y,1/2+z
1/2+x,1/2-y,1/2+z
loop_
_atom_site_type_symbol
_atom_site_label
_atom_site_fract_x
_atom_site_fract_y
_atom_site_fract_z
Si Si1 0.391331 0.699383 0.893030
Si Si2 0.360985 0.300458 0.137992
Si Si3 0.699082 0.729676 0.541670
Si Si4 0.070458 0.200467 0.679624
Si Si5 0.196453 0.061035 0.053022
Si Si6 0.500000 0.500000 0.097797
Si Si7 0.333384 0.067446 0.744497
Si Si8 0.579373 0.093259 0.405054
O O1 0.397727 0.777806 0.756369
O O2 0.400769 0.548046 0.871344
O O3 0.339443 0.727460 0.937536
O O4 0.420604 0.737716 0.023778
O O5 0.332056 0.425242 0.180545
O O6 0.332003 0.170359 0.127151
O O7 0.384326 0.331504 0.996847
O O8 0.750000 0.723410 0.484625
O O9 0.687556 0.586795 0.597027
O O10 0.696529 0.832576 0.660633
O O11 0.115048 0.118795 0.723917
O O12 0.067317 0.323017 0.775677
O O13 0.027484 0.105936 0.682201
O O14 0.250000 0.086109 0.065745
O O15 0.181763 0.063746 0.897342
O O16 0.536294 0.568515 0.000314
#
# Coordination Sequence:
#
# PCOD9364645 Si02
#       8
#     8   8   8   8   8   4   8   8
#     4  10  23  39  65  94 128 171 213 263 319 387
#     4  12  23  39  68  95 127 174 222 260 331 385
#     4  10  21  39  60  87 127 171 213 266 321 366
#     4  10  22  44  70  89 133 164 215 262 328 389
#     4  11  25  39  60  98 135 168 224 278 315 382
#     4  10  22  42  64 102 128 164 206 282 326 392
#     4  11  21  42  65  89 123 178 212 264 321 393
#     4  11  23  44  66  98 130 168 213 267 327 398
#
# _framework density 19.736687
#
# number of rings (size 3 to 8) (size 9 to 14) (size 15 to 20)
#    0.000    1.333    6.667    0.400    3.733    3.733 
#    0.000    0.000    0.000    0.000    0.000    0.000 
#    0.000    0.000    0.000    0.000    0.000    0.000 
#
# Total GULP energy -167565.837173 kJ/mol
# GULP energy per Si atom -5585.527906 kJ/mol
# Density = 1.969177 g / cm^3
# Si number density = 19.736687 Si / 1000 Ang^3
#
#
#
# Elastic Constant Matrix: (Units=GPa)
#
#
# Indices 1 2 3 4 5 6 
#
# 1 55.7714 25.7177 -19.1949 0.0000 0.0000 0.0000
# 2 25.7177 128.1559 44.9966 0.0000 0.0000 0.0000
# 3 -19.1949 44.9966 74.4832 0.0000 0.0000 0.0000
# 4 0.0000 0.0000 0.0000 42.2304 0.0000 0.0000
# 5 0.0000 0.0000 0.0000 0.0000 12.0470 0.0000
# 6 0.0000 0.0000 0.0000 0.0000 0.0000 27.0657
#
#
#
# Elastic Compliance Matrix: (Units=1/GPa)
#
#
# Indices 1 2 3 4 5 6 
#
# 1 0.027001 -0.009978 0.012986 0.000000 0.000000 0.000000
# 2 -0.009978 0.013591 -0.010782 0.000000 0.000000 0.000000
# 3 0.012986 -0.010782 0.023286 0.000000 0.000000 0.000000
# 4 0.000000 0.000000 0.000000 0.023680 0.000000 0.000000
# 5 0.000000 0.000000 0.000000 0.000000 0.083008 0.000000
# 6 0.000000 0.000000 0.000000 0.000000 0.000000 0.036947
#
#
# Mechanical properties :
#
#
# Convention : Reuss Voigt Hill
#
# Bulk Modulus (GPa) = 20.69086 40.16103 30.42595
# Shear Modulus (GPa) = 20.90557 30.06135 25.48346
#
# Velocity S-wave (km/s) = 3.25810 3.90695 3.59719
# Velocity P-wave (km/s) = 4.96587 6.38318 5.71860
#
# Compressibility (1/GPa) = 0.04833051
#
# Stress axis : x y z
#
# Youngs Moduli (GPa) = 37.03580 73.57842 42.94420
#
# Poissons Ratio (x) = 0.73416 -0.55768
# Poissons Ratio (y) = 0.36954 0.46302
# Poissons Ratio (z) = -0.48095 0.79332
#
# Static dielectric constant tensor:
#      x y z
#    x 1.702410 0.000000 0.000000 
#    y 0.000000 1.685900 0.000000 
#    z 0.000000 0.000000 1.704460 
# 
# From -- ./inp_files/14364.got.cif
#   From: 2010.05.17/outbox.cif.g08.bks.cpg/sg40_8_cif.got.tgz:14364.got - 2010.06.03 18:35:42.
