data_PCOD9364299
_publ_section_title
;
Structure prediction by ZEFSAII (Michael W. Deem and Ramdas Pophale) SiO2 
 PCOD9364299
Probable space group: A M A 2
;
_chemical_formula_sum "Si O2"
_cell_formula_units_Z 56
_cell_length_a 14.170574
_cell_length_b 13.625990
_cell_length_c 13.386483
_cell_angle_alpha 90.000000
_cell_angle_beta 90.000000
_cell_angle_gamma 90.000000
_cell_volume 2584.770563
_symmetry_space_group_name_H-M "A M A 2"
_symmetry_group_IT_number 40
_symmetry_cell_setting 'orthorhombic'
loop_
_space_group_symop_operation_xyz
x,y,z
-x,-y,z
1/2-x,y,z
1/2+x,-y,z
x,1/2+y,1/2+z
-x,1/2-y,1/2+z
1/2-x,1/2+y,1/2+z
1/2+x,1/2-y,1/2+z
loop_
_atom_site_type_symbol
_atom_site_label
_atom_site_fract_x
_atom_site_fract_y
_atom_site_fract_z
Si Si1 0.359003 0.516932 0.587590
Si Si2 0.507591 0.271437 0.275591
Si Si3 0.865060 0.080379 0.291394
Si Si4 0.636595 0.060358 0.508521
Si Si5 0.640942 0.950811 0.708920
Si Si6 0.635397 0.766277 0.096785
Si Si7 0.084568 0.422760 0.393559
O O1 0.250000 0.532577 0.608170
O O2 0.396137 0.478255 0.692871
O O3 0.391667 0.625817 0.555707
O O4 0.365956 0.438585 0.499061
O O5 0.578345 0.182039 0.291082
O O6 0.571531 0.362843 0.237901
O O7 0.425926 0.245490 0.196575
O O8 0.453167 0.314890 0.371364
O O9 0.750000 0.095928 0.288448
O O10 0.888564 0.028449 0.396731
O O11 0.750000 0.058077 0.512356
O O12 0.609968 0.173900 0.527479
O O13 0.608214 0.996067 0.603545
O O14 0.750000 0.917642 0.702014
O O15 0.637402 0.035135 0.794959
O O16 0.750000 0.760545 0.112760
O O17 0.000000 0.500000 0.402113
#
# Coordination Sequence:
#
# PCOD9364299 Si02
#       7
#     8   8   8   8   8   8   8
#     4  10  23  42  64  88 126 171 211 259 316 375
#     4  11  23  38  64  97 128 163 205 267 317 368
#     4  10  23  42  62  93 128 167 209 251 312 381
#     4   9  19  38  65  89 122 163 207 256 306 375
#     4  10  20  39  66  96 126 162 208 260 315 372
#     4  10  22  40  64  92 123 168 215 256 308 375
#     4  10  22  36  60  91 124 160 206 259 312 366
#
# _framework density 21.665365000000001
#
# number of rings (size 3 to 8) (size 9 to 14) (size 15 to 20)
#    0.000    2.000    1.429    0.857    6.000    0.571 
#    0.000    4.286    0.000    3.429    0.000    0.000 
#    0.000    0.000    0.000    0.000    0.000    0.000 
#
# Total GULP energy -156231.579535 kJ/mol
# GULP energy per Si atom -5579.699269 kJ/mol
# Density = 2.161605 g / cm^3
# Si number density = 21.665365 Si / 1000 Ang^3
#
#
#
# Elastic Constant Matrix: (Units=GPa)
#
#
# Indices 1 2 3 4 5 6 
#
# 1 72.3005 11.8520 3.2386 0.0000 0.0000 0.0000
# 2 11.8520 43.4536 11.3030 0.0000 0.0000 0.0000
# 3 3.2386 11.3030 117.3356 0.0000 0.0000 0.0000
# 4 0.0000 0.0000 0.0000 27.6095 0.0000 0.0000
# 5 0.0000 0.0000 0.0000 0.0000 -76.2343 0.0000
# 6 0.0000 0.0000 0.0000 0.0000 0.0000 27.5408
#
#
#
# Elastic Compliance Matrix: (Units=1/GPa)
#
#
# Indices 1 2 3 4 5 6 
#
# 1 0.014479 -0.003944 -0.000020 0.000000 0.000000 0.000000
# 2 -0.003944 0.024679 -0.002268 0.000000 0.000000 0.000000
# 3 -0.000020 -0.002268 0.008742 0.000000 0.000000 0.000000
# 4 0.000000 0.000000 0.000000 0.036219 0.000000 0.000000
# 5 0.000000 0.000000 0.000000 0.000000 -0.013117 0.000000
# 6 0.000000 0.000000 0.000000 0.000000 0.000000 0.036310
#
#
# Mechanical properties :
#
#
# Convention : Reuss Voigt Hill
#
# Bulk Modulus (GPa) = 28.22080 31.76408 29.99244
# Shear Modulus (GPa) = 37.99780 9.56293 23.78037
#
# Velocity S-wave (km/s) = 4.19244 2.10321 3.31663
# Velocity P-wave (km/s) = 6.04065 4.53774 5.34231
#
# Compressibility (1/GPa) = 0.03543486
#
# Stress axis : x y z
#
# Youngs Moduli (GPa) = 69.06761 40.52052 114.39513
#
# Poissons Ratio (x) = 0.15981 0.00225
# Poissons Ratio (y) = 0.27240 0.25950
# Poissons Ratio (z) = 0.00136 0.09192
#
# Static dielectric constant tensor:
#      x y z
#    x 1.821000 0.000000 0.000000 
#    y 0.000000 1.783970 0.000000 
#    z 0.000000 0.000000 1.846060 
# 
# From -- ./inp_files/12220.got.cif
#   From: 2010.05.17/outbox.cif.g08.bks.cpg/sg40_7_cif.got.tgz:12220.got - 2010.06.03 18:35:42.
