data_PCOD9364023
_publ_section_title
;
Structure prediction by ZEFSAII (Michael W. Deem and Ramdas Pophale) SiO2 
 PCOD9364023
Probable space group: A M A 2
;
_chemical_formula_sum "Si O2"
_cell_formula_units_Z 48
_cell_length_a 14.880784
_cell_length_b 11.451393
_cell_length_c 15.577914
_cell_angle_alpha 90.000000
_cell_angle_beta 90.000000
_cell_angle_gamma 90.000000
_cell_volume 2654.565429
_symmetry_space_group_name_H-M "A M A 2"
_symmetry_group_IT_number 40
_symmetry_cell_setting 'orthorhombic'
loop_
_space_group_symop_operation_xyz
x,y,z
-x,-y,z
1/2-x,y,z
1/2+x,-y,z
x,1/2+y,1/2+z
-x,1/2-y,1/2+z
1/2-x,1/2+y,1/2+z
1/2+x,1/2-y,1/2+z
loop_
_atom_site_type_symbol
_atom_site_label
_atom_site_fract_x
_atom_site_fract_y
_atom_site_fract_z
Si Si1 0.856431 0.460408 0.778920
Si Si2 0.526010 0.371014 0.622493
Si Si3 0.647091 0.791564 0.620601
Si Si4 0.106440 0.521167 0.975059
Si Si5 0.148224 0.252681 0.984522
Si Si6 0.856184 0.732079 0.800331
O O1 0.750000 0.448876 0.756635
O O2 0.921097 0.389898 0.713860
O O3 0.868375 0.431853 0.880067
O O4 0.882769 0.599061 0.775233
O O5 0.500000 0.500000 0.593296
O O6 0.433593 0.299439 0.612551
O O7 0.593790 0.304939 0.560177
O O8 0.750000 0.745394 0.613249
O O9 0.634679 0.892355 0.551015
O O10 0.635152 0.821251 0.721856
O O11 0.148679 0.393536 0.989025
O O12 0.000000 0.500000 0.976917
O O13 0.250000 0.208315 0.988281
O O14 0.104083 0.229476 0.890909
O O15 0.750000 0.719112 0.817618
#
# Coordination Sequence:
#
# PCOD9364023 Si02
#       6
#     8   8   8   8   8   8
#     4  10  20  36  60  89 118 149 194 248 294 345
#     4  12  23  35  58  89 119 156 195 241 294 352
#     4  11  22  37  57  84 119 154 195 243 298 352
#     4  11  21  38  62  92 117 152 197 247 300 353
#     4  10  21  39  62  86 114 150 198 246 294 352
#     4   8  17  35  59  82 109 152 192 233 289 350
#
# _framework density 18.082055
#
# number of rings (size 3 to 8) (size 9 to 14) (size 15 to 20)
#    0.000    1.667    3.333    3.500    2.333    0.667 
#    0.000    0.833    3.667    0.000    0.000    0.000 
#    0.000    0.000    0.000    0.000    0.000    0.000 
#
# Total GULP energy -133633.664878 kJ/mol
# GULP energy per Si atom -5568.069370 kJ/mol
# Density = 1.804090 g / cm^3
# Si number density = 18.082055 Si / 1000 Ang^3
#
#
#
# Elastic Constant Matrix: (Units=GPa)
#
#
# Indices 1 2 3 4 5 6 
#
# 1 126.2155 26.6651 48.3430 0.0000 0.0000 0.0000
# 2 26.6651 52.5101 68.8601 0.0000 0.0000 0.0000
# 3 48.3430 68.8601 164.7298 0.0000 0.0000 0.0000
# 4 0.0000 0.0000 0.0000 41.8504 0.0000 0.0000
# 5 0.0000 0.0000 0.0000 0.0000 -23.0918 0.0000
# 6 0.0000 0.0000 0.0000 0.0000 0.0000 -95.2954
#
#
#
# Elastic Compliance Matrix: (Units=1/GPa)
#
#
# Indices 1 2 3 4 5 6 
#
# 1 0.009069 -0.002468 -0.001630 0.000000 0.000000 0.000000
# 2 -0.002468 0.042821 -0.017176 0.000000 0.000000 0.000000
# 3 -0.001630 -0.017176 0.013729 0.000000 0.000000 0.000000
# 4 0.000000 0.000000 0.000000 0.023895 0.000000 0.000000
# 5 0.000000 0.000000 0.000000 0.000000 -0.043305 0.000000
# 6 0.000000 0.000000 0.000000 0.000000 0.000000 -0.010494
#
#
# Mechanical properties :
#
#
# Convention : Reuss Voigt Hill
#
# Bulk Modulus (GPa) = 43.34386 70.13243 56.73814
# Shear Modulus (GPa) = 58.17318 -2.00155 28.08582
#
# Velocity S-wave (km/s) = 5.67817 -1.05325 3.94540
# Velocity P-wave (km/s) = 8.18606 6.11480 7.22503
#
# Compressibility (1/GPa) = 0.02307132
#
# Stress axis : x y z
#
# Youngs Moduli (GPa) = 110.27116 23.35317 72.84115
#
# Poissons Ratio (x) = 0.05764 0.11871
# Poissons Ratio (y) = 0.27215 1.25109
# Poissons Ratio (z) = 0.17970 0.40110
#
# Static dielectric constant tensor:
#      x y z
#    x 1.794660 0.000000 0.000000 
#    y 0.000000 1.586290 0.000000 
#    z 0.000000 0.000000 1.689090 
# 
# From -- ./inp_files/16972.got.cif
#   From: 2010.05.17/outbox.cif.g08.bks.cpg/sg40_9_cif.got.tgz:16972.got - 2010.06.03 18:35:42.
