data_PCOD9364790
_publ_section_title
;
Structure prediction by ZEFSAII (Michael W. Deem and Ramdas Pophale) SiO2 
 PCOD9364790
Probable space group: A M A 2
;
_chemical_formula_sum "Si O2"
_cell_formula_units_Z 48
_cell_length_a 8.973351
_cell_length_b 14.001091
_cell_length_c 18.551308
_cell_angle_alpha 90.000000
_cell_angle_beta 90.000000
_cell_angle_gamma 90.000000
_cell_volume 2330.725191
_symmetry_space_group_name_H-M "A M A 2"
_symmetry_group_IT_number 40
_symmetry_cell_setting 'orthorhombic'
loop_
_space_group_symop_operation_xyz
x,y,z
-x,-y,z
1/2-x,y,z
1/2+x,-y,z
x,1/2+y,1/2+z
-x,1/2-y,1/2+z
1/2-x,1/2+y,1/2+z
1/2+x,1/2-y,1/2+z
loop_
_atom_site_type_symbol
_atom_site_label
_atom_site_fract_x
_atom_site_fract_y
_atom_site_fract_z
Si Si1 0.575456 0.101269 0.036710
Si Si2 0.925241 0.694881 0.685767
Si Si3 0.928968 0.894662 0.327601
Si Si4 0.078115 0.256306 0.935733
Si Si5 0.917660 0.914735 0.826498
Si Si6 0.928705 0.904283 0.662492
O O1 0.750000 0.099604 0.016644
O O2 0.564596 0.117447 0.122753
O O3 0.500000 0.000000 0.020586
O O4 0.498600 0.191385 0.996925
O O5 0.750000 0.706078 0.707494
O O6 0.968012 0.794714 0.645566
O O7 0.015942 0.664095 0.756523
O O8 0.750000 0.898644 0.328118
O O9 0.988542 0.844584 0.401281
O O10 0.000000 0.000000 0.322262
O O11 0.250000 0.280929 0.954000
O O12 0.080964 0.181869 0.869345
O O13 0.750000 0.947467 0.817289
O O14 0.979035 0.903061 0.746473
O O15 0.000000 0.000000 0.865450
O O16 0.750000 0.913430 0.656020
O O17 0.000000 0.000000 0.629069
#
# Coordination Sequence:
#
# PCOD9364790 Si02
#       6
#     8   8   8   8   8   8
#     4  11  24  41  63  92 127 168 212 260 318 381
#     4  10  21  41  64  89 128 170 212 262 316 374
#     4  12  25  41  65  94 124 160 210 263 318 380
#     4  11  22  40  62  87 122 161 204 256 314 374
#     4   9  17  29  50  78 112 148 186 234 291 350
#     4   9  17  32  53  82 117 153 194 243 299 357
#
# _framework density 20.594449000000001
#
# number of rings (size 3 to 8) (size 9 to 14) (size 15 to 20)
#    0.000    1.667    1.667    3.500    0.000    6.000 
#    0.000    0.833    0.000    2.000    0.000    0.000 
#    0.000    0.000    0.000    0.000    0.000    0.000 
#
# Total GULP energy -133765.912293 kJ/mol
# GULP energy per Si atom -5573.579679 kJ/mol
# Density = 2.054757 g / cm^3
# Si number density = 20.594449 Si / 1000 Ang^3
#
#
#
# Elastic Constant Matrix: (Units=GPa)
#
#
# Indices 1 2 3 4 5 6 
#
# 1 125.6311 65.7480 41.2613 0.0000 0.0000 0.0000
# 2 65.7480 134.2072 27.7020 0.0000 0.0000 0.0000
# 3 41.2613 27.7020 60.9868 0.0000 0.0000 0.0000
# 4 0.0000 0.0000 0.0000 19.5661 0.0000 0.0000
# 5 0.0000 0.0000 0.0000 0.0000 14.9528 0.0000
# 6 0.0000 0.0000 0.0000 0.0000 0.0000 33.3625
#
#
#
# Elastic Compliance Matrix: (Units=1/GPa)
#
#
# Indices 1 2 3 4 5 6 
#
# 1 0.012571 -0.004858 -0.006298 0.000000 0.000000 0.000000
# 2 -0.004858 0.010100 -0.001301 0.000000 0.000000 0.000000
# 3 -0.006298 -0.001301 0.021249 0.000000 0.000000 0.000000
# 4 0.000000 0.000000 0.000000 0.051109 0.000000 0.000000
# 5 0.000000 0.000000 0.000000 0.000000 0.066877 0.000000
# 6 0.000000 0.000000 0.000000 0.000000 0.000000 0.029974
#
#
# Mechanical properties :
#
#
# Convention : Reuss Voigt Hill
#
# Bulk Modulus (GPa) = 52.61726 65.58308 59.10017
# Shear Modulus (GPa) = 22.40862 25.98388 24.19625
#
# Velocity S-wave (km/s) = 3.30220 3.55589 3.43139
# Velocity P-wave (km/s) = 6.33594 6.98379 6.66773
#
# Compressibility (1/GPa) = 0.01900517
#
# Stress axis : x y z
#
# Youngs Moduli (GPa) = 79.54825 99.01197 47.06145
#
# Poissons Ratio (x) = 0.48105 0.29640
# Poissons Ratio (y) = 0.38649 0.06121
# Poissons Ratio (z) = 0.50101 0.12877
#
# Static dielectric constant tensor:
#      x y z
#    x 1.727840 0.000000 0.000000 
#    y 0.000000 1.823870 0.000000 
#    z 0.000000 0.000000 1.751930 
# 
# From -- ./inp_files/19212.got.cif
#   From: 2010.05.17/outbox.cif.g08.bks.cpg/sg40_10_cif.got.tgz:19212.got - 2010.06.03 18:35:42.
