data_PCOD9364008
_publ_section_title
;
Structure prediction by ZEFSAII (Michael W. Deem and Ramdas Pophale) SiO2 
 PCOD9364008
Probable space group: A M A 2
;
_chemical_formula_sum "Si O2"
_cell_formula_units_Z 48
_cell_length_a 8.745794
_cell_length_b 23.089216
_cell_length_c 11.735700
_cell_angle_alpha 90.000000
_cell_angle_beta 90.000000
_cell_angle_gamma 90.000000
_cell_volume 2369.831290
_symmetry_space_group_name_H-M "A M A 2"
_symmetry_group_IT_number 40
_symmetry_cell_setting 'orthorhombic'
loop_
_space_group_symop_operation_xyz
x,y,z
-x,-y,z
1/2-x,y,z
1/2+x,-y,z
x,1/2+y,1/2+z
-x,1/2-y,1/2+z
1/2-x,1/2+y,1/2+z
1/2+x,1/2-y,1/2+z
loop_
_atom_site_type_symbol
_atom_site_label
_atom_site_fract_x
_atom_site_fract_y
_atom_site_fract_z
Si Si1 0.430147 0.635643 0.362120
Si Si2 0.430998 0.436334 0.172820
Si Si3 0.574502 0.561634 0.794177
Si Si4 0.433648 0.766104 0.312506
Si Si5 0.929883 0.856278 0.479488
Si Si6 0.425469 0.344654 0.603402
O O1 0.250000 0.624639 0.348929
O O2 0.521292 0.585145 0.298623
O O3 0.466494 0.698402 0.308018
O O4 0.473976 0.644696 0.493310
O O5 0.500000 0.500000 0.147157
O O6 0.250000 0.439788 0.160961
O O7 0.495177 0.385955 0.089757
O O8 0.500000 0.500000 0.778814
O O9 0.750000 0.558423 0.837438
O O10 0.471147 0.597576 0.881237
O O11 0.578562 0.596909 0.677284
O O12 0.250000 0.774911 0.320071
O O13 0.504654 0.797067 0.424063
O O14 0.482746 0.797147 0.195071
O O15 0.750000 0.849972 0.498539
O O16 0.250000 0.329714 0.570378
#
# Coordination Sequence:
#
# PCOD9364008 Si02
#       6
#     8   8   8   8   8   8
#     4  11  24  41  63  93 126 163 207 257 313 375
#     4  12  26  45  66  91 127 170 216 261 317 379
#     4  10  20  36  59  87 120 158 202 252 306 362
#     4   9  21  41  63  91 127 163 205 257 313 372
#     4  11  22  38  63  94 126 162 207 258 311 367
#     4   9  20  39  59  84 120 162 204 251 304 364
#
# _framework density 20.254608000000001
#
# number of rings (size 3 to 8) (size 9 to 14) (size 15 to 20)
#    0.000    1.667    0.000    5.500    2.333    5.333 
#    0.000    1.667    0.000    0.000    0.000    0.000 
#    0.000    0.000    0.000    0.000    0.000    0.000 
#
# Total GULP energy -134082.138031 kJ/mol
# GULP energy per Si atom -5586.755751 kJ/mol
# Density = 2.020851 g / cm^3
# Si number density = 20.254608 Si / 1000 Ang^3
#
#
#
# Elastic Constant Matrix: (Units=GPa)
#
#
# Indices 1 2 3 4 5 6 
#
# 1 81.2874 32.1694 16.9554 0.0000 0.0000 0.0000
# 2 32.1694 55.0235 14.7172 0.0000 0.0000 0.0000
# 3 16.9554 14.7172 69.5496 0.0000 0.0000 0.0000
# 4 0.0000 0.0000 0.0000 9.1647 0.0000 0.0000
# 5 0.0000 0.0000 0.0000 0.0000 34.2913 0.0000
# 6 0.0000 0.0000 0.0000 0.0000 0.0000 54.1770
#
#
#
# Elastic Compliance Matrix: (Units=1/GPa)
#
#
# Indices 1 2 3 4 5 6 
#
# 1 0.016282 -0.008965 -0.002072 0.000000 0.000000 0.000000
# 2 -0.008965 0.024201 -0.002935 0.000000 0.000000 0.000000
# 3 -0.002072 -0.002935 0.015505 0.000000 0.000000 0.000000
# 4 0.000000 0.000000 0.000000 0.109115 0.000000 0.000000
# 5 0.000000 0.000000 0.000000 0.000000 0.029162 0.000000
# 6 0.000000 0.000000 0.000000 0.000000 0.000000 0.018458
#
#
# Mechanical properties :
#
#
# Convention : Reuss Voigt Hill
#
# Bulk Modulus (GPa) = 35.66116 37.06049 36.36082
# Shear Modulus (GPa) = 19.99878 28.99447 24.49663
#
# Velocity S-wave (km/s) = 3.14565 3.78762 3.48147
# Velocity P-wave (km/s) = 5.55321 6.12088 5.84394
#
# Compressibility (1/GPa) = 0.02804172
#
# Stress axis : x y z
#
# Youngs Moduli (GPa) = 61.41671 41.32123 64.49694
#
# Poissons Ratio (x) = 0.37045 0.13366
# Poissons Ratio (y) = 0.55061 0.18933
# Poissons Ratio (z) = 0.12728 0.12130
#
# Static dielectric constant tensor:
#      x y z
#    x 1.698390 0.000000 0.000000 
#    y 0.000000 1.737260 0.000000 
#    z 0.000000 0.000000 1.733530 
# 
# From -- ./inp_files/10259.got.cif
#   From: 2010.05.17/outbox.cif.g08.bks.cpg/sg40_6_cif.got.tgz:10259.got - 2010.06.03 18:35:42.
