data_PCOD9364054
_publ_section_title
;
Structure prediction by ZEFSAII (Michael W. Deem and Ramdas Pophale) SiO2 
 PCOD9364054
Probable space group: A M A 2
;
_chemical_formula_sum "Si O2"
_cell_formula_units_Z 64
_cell_length_a 14.863542
_cell_length_b 18.469586
_cell_length_c 11.546328
_cell_angle_alpha 90.000000
_cell_angle_beta 90.000000
_cell_angle_gamma 90.000000
_cell_volume 3169.737996
_symmetry_space_group_name_H-M "A M A 2"
_symmetry_group_IT_number 40
_symmetry_cell_setting 'orthorhombic'
loop_
_space_group_symop_operation_xyz
x,y,z
-x,-y,z
1/2-x,y,z
1/2+x,-y,z
x,1/2+y,1/2+z
-x,1/2-y,1/2+z
1/2-x,1/2+y,1/2+z
1/2+x,1/2-y,1/2+z
loop_
_atom_site_type_symbol
_atom_site_label
_atom_site_fract_x
_atom_site_fract_y
_atom_site_fract_z
Si Si1 0.855320 0.921991 0.283840
Si Si2 0.555146 0.074235 0.011665
Si Si3 0.142876 0.199397 0.464874
Si Si4 0.852248 0.234609 0.369602
Si Si5 0.984772 0.296931 0.187887
Si Si6 0.146430 0.850612 0.820643
Si Si7 0.141422 0.916637 0.262973
Si Si8 0.408809 0.174239 0.076307
O O1 0.750000 0.928189 0.306174
O O2 0.886701 0.863145 0.375969
O O3 0.864398 0.888175 0.154775
O O4 0.891921 0.003082 0.297381
O O5 0.601127 0.092822 0.134443
O O6 0.478859 0.134304 0.993803
O O7 0.500000 0.000000 0.015932
O O8 0.626414 0.083751 0.909126
O O9 0.250000 0.191632 0.495283
O O10 0.136912 0.276651 0.397871
O O11 0.076261 0.192539 0.573715
O O12 0.750000 0.239834 0.327302
O O13 0.879888 0.150615 0.347857
O O14 0.855682 0.267937 0.498482
O O15 0.915597 0.283459 0.290826
O O16 0.066881 0.349456 0.225083
O O17 0.036213 0.222139 0.165869
O O18 0.250000 0.851933 0.777571
O O19 0.250000 0.918756 0.253219
#
# Coordination Sequence:
#
# PCOD9364054 Si02
#       8
#     8   8   8   8   8   8   8   8
#     4  10  21  38  62  96 130 167 213 268 332 391
#     4  12  22  37  62  94 127 165 214 267 332 391
#     4  10  20  36  62  93 129 170 212 263 321 391
#     4  11  23  39  61  93 132 173 212 265 328 391
#     4  12  21  37  64  90 122 163 214 259 309 387
#     4  11  23  40  62  91 129 171 214 263 325 391
#     4  10  21  38  62  95 132 167 210 268 338 400
#     4  12  22  36  61  94 130 162 212 269 320 385
#
# _framework density 20.190943999999998
#
# number of rings (size 3 to 8) (size 9 to 14) (size 15 to 20)
#    0.000    1.000    6.250    1.125    0.000    2.500 
#    0.000    0.000    2.750    0.000    0.000    0.000 
#    0.000    0.000    0.000    0.000    0.000    0.000 
#
# Total GULP energy -178380.112986 kJ/mol
# GULP energy per Si atom -5574.378531 kJ/mol
# Density = 2.014499 g / cm^3
# Si number density = 20.190944 Si / 1000 Ang^3
#
#
#
# Elastic Constant Matrix: (Units=GPa)
#
#
# Indices 1 2 3 4 5 6 
#
# 1 107.7361 25.2796 40.0317 0.0000 0.0000 0.0000
# 2 25.2796 73.9977 27.4839 0.0000 0.0000 0.0000
# 3 40.0317 27.4839 69.7403 0.0000 0.0000 0.0000
# 4 0.0000 0.0000 0.0000 28.7943 0.0000 0.0000
# 5 0.0000 0.0000 0.0000 0.0000 28.8272 0.0000
# 6 0.0000 0.0000 0.0000 0.0000 0.0000 24.9308
#
#
#
# Elastic Compliance Matrix: (Units=1/GPa)
#
#
# Indices 1 2 3 4 5 6 
#
# 1 0.012001 -0.001806 -0.006177 0.000000 0.000000 0.000000
# 2 -0.001806 0.016103 -0.005310 0.000000 0.000000 0.000000
# 3 -0.006177 -0.005310 0.019977 0.000000 0.000000 0.000000
# 4 0.000000 0.000000 0.000000 0.034729 0.000000 0.000000
# 5 0.000000 0.000000 0.000000 0.000000 0.034689 0.000000
# 6 0.000000 0.000000 0.000000 0.000000 0.000000 0.040111
#
#
# Mechanical properties :
#
#
# Convention : Reuss Voigt Hill
#
# Bulk Modulus (GPa) = 46.51944 48.56272 47.54108
# Shear Modulus (GPa) = 26.12875 27.08904 26.60890
#
# Velocity S-wave (km/s) = 3.60124 3.66682 3.63418
# Velocity P-wave (km/s) = 6.35466 6.48316 6.41923
#
# Compressibility (1/GPa) = 0.02149639
#
# Stress axis : x y z
#
# Youngs Moduli (GPa) = 83.32759 62.10095 50.05741
#
# Poissons Ratio (x) = 0.11213 0.30921
# Poissons Ratio (y) = 0.15045 0.26578
# Poissons Ratio (z) = 0.51472 0.32973
#
# Static dielectric constant tensor:
#      x y z
#    x 1.768720 0.000000 0.000000 
#    y 0.000000 1.752970 0.000000 
#    z 0.000000 0.000000 1.736800 
# 
# From -- ./inp_files/12438.got.cif
#   From: 2010.05.17/outbox.cif.g08.bks.cpg/sg40_7_cif.got.tgz:12438.got - 2010.06.03 18:35:42.
