data_PCOD9364845
_publ_section_title
;
Structure prediction by ZEFSAII (Michael W. Deem and Ramdas Pophale) SiO2 
 PCOD9364845
Probable space group: A M A 2
;
_chemical_formula_sum "Si O2"
_cell_formula_units_Z 32
_cell_length_a 17.224467
_cell_length_b 14.395615
_cell_length_c 5.349592
_cell_angle_alpha 90.000000
_cell_angle_beta 90.000000
_cell_angle_gamma 90.000000
_cell_volume 1326.467690
_symmetry_space_group_name_H-M "A M A 2"
_symmetry_group_IT_number 40
_symmetry_cell_setting 'orthorhombic'
loop_
_space_group_symop_operation_xyz
x,y,z
-x,-y,z
1/2-x,y,z
1/2+x,-y,z
x,1/2+y,1/2+z
-x,1/2-y,1/2+z
1/2-x,1/2+y,1/2+z
1/2+x,1/2-y,1/2+z
loop_
_atom_site_type_symbol
_atom_site_label
_atom_site_fract_x
_atom_site_fract_y
_atom_site_fract_z
Si Si1 0.407014 0.983412 0.413070
Si Si2 0.606525 0.914151 0.916997
Si Si3 0.468983 0.298395 0.417711
Si Si4 0.659456 0.209639 0.572452
O O1 0.374579 0.037921 0.655626
O O2 0.500000 0.000000 0.416278
O O3 0.384259 0.875764 0.437140
O O4 0.373506 0.025655 0.158621
O O5 0.512881 0.895900 0.926146
O O6 0.642787 0.811469 0.957300
O O7 0.493226 0.247800 0.669607
O O8 0.379113 0.293439 0.349827
O O9 0.750000 0.192008 0.576626
#
# Coordination Sequence:
#
# PCOD9364845 Si02
#       4
#     8   8   8   8
#     4  12  26  44  77 107 140 191 251 298 357 444
#     4  11  25  46  74 103 145 189 245 297 362 434
#     4  10  21  42  73 102 138 190 245 291 351 445
#     4  11  27  47  74 111 152 193 242 314 376 430
#
# _framework density 24.124222
#
# number of rings (size 3 to 8) (size 9 to 14) (size 15 to 20)
#    0.000    1.000    2.500    3.750    7.000    4.000 
#    0.000   17.500    0.000    0.000    0.000    0.000 
#    0.000    0.000    0.000    0.000    0.000    0.000 
#
# Total GULP energy -89587.253067 kJ/mol
# GULP energy per Si atom -5599.203317 kJ/mol
# Density = 2.406931 g / cm^3
# Si number density = 24.124222 Si / 1000 Ang^3
#
#
#
# Elastic Constant Matrix: (Units=GPa)
#
#
# Indices 1 2 3 4 5 6 
#
# 1 127.0269 41.8597 17.5634 0.0000 0.0000 0.0000
# 2 41.8597 180.8447 76.2060 0.0000 0.0000 0.0000
# 3 17.5634 76.2060 186.6546 0.0000 0.0000 0.0000
# 4 0.0000 0.0000 0.0000 49.2745 0.0000 0.0000
# 5 0.0000 0.0000 0.0000 0.0000 8.0554 0.0000
# 6 0.0000 0.0000 0.0000 0.0000 0.0000 21.5216
#
#
#
# Elastic Compliance Matrix: (Units=1/GPa)
#
#
# Indices 1 2 3 4 5 6 
#
# 1 0.008522 -0.001974 0.000004 0.000000 0.000000 0.000000
# 2 -0.001974 0.007136 -0.002728 0.000000 0.000000 0.000000
# 3 0.000004 -0.002728 0.006471 0.000000 0.000000 0.000000
# 4 0.000000 0.000000 0.000000 0.020294 0.000000 0.000000
# 5 0.000000 0.000000 0.000000 0.000000 0.124141 0.000000
# 6 0.000000 0.000000 0.000000 0.000000 0.000000 0.046465
#
#
# Mechanical properties :
#
#
# Convention : Reuss Voigt Hill
#
# Bulk Modulus (GPa) = 78.53389 85.08715 81.81052
# Shear Modulus (GPa) = 22.05854 39.69677 30.87765
#
# Velocity S-wave (km/s) = 3.02714 4.06090 3.58151
# Velocity P-wave (km/s) = 6.69647 7.57198 7.14764
#
# Compressibility (1/GPa) = 0.01273336
#
# Stress axis : x y z
#
# Youngs Moduli (GPa) = 117.33766 140.13392 154.54221
#
# Poissons Ratio (x) = 0.27668 -0.00065
# Poissons Ratio (y) = 0.23167 0.42154
# Poissons Ratio (z) = -0.00049 0.38224
#
# Static dielectric constant tensor:
#      x y z
#    x 1.960350 0.000000 0.000000 
#    y 0.000000 1.962020 0.000000 
#    z 0.000000 0.000000 1.986510 
# 
# From -- ./inp_files/2154.got.cif
#   From: 2010.05.17/outbox.cif.g08.bks.cpg/sg40_2_cif.got.tgz:2154.got - 2010.06.03 18:35:42.
