data_PCOD9364150
_publ_section_title
;
Structure prediction by ZEFSAII (Michael W. Deem and Ramdas Pophale) SiO2 
 PCOD9364150
Probable space group: A M A 2
;
_chemical_formula_sum "Si O2"
_cell_formula_units_Z 56
_cell_length_a 14.488166
_cell_length_b 9.506359
_cell_length_c 17.298254
_cell_angle_alpha 90.000000
_cell_angle_beta 90.000000
_cell_angle_gamma 90.000000
_cell_volume 2382.483459
_symmetry_space_group_name_H-M "A M A 2"
_symmetry_group_IT_number 40
_symmetry_cell_setting 'orthorhombic'
loop_
_space_group_symop_operation_xyz
x,y,z
-x,-y,z
1/2-x,y,z
1/2+x,-y,z
x,1/2+y,1/2+z
-x,1/2-y,1/2+z
1/2-x,1/2+y,1/2+z
1/2+x,1/2-y,1/2+z
loop_
_atom_site_type_symbol
_atom_site_label
_atom_site_fract_x
_atom_site_fract_y
_atom_site_fract_z
Si Si1 0.486900 0.158634 0.886710
Si Si2 0.455502 0.692787 0.565568
Si Si3 0.146759 0.134214 0.433131
Si Si4 0.860632 0.591172 0.156247
Si Si5 0.854625 0.791628 0.612869
Si Si6 0.640712 0.880464 0.207583
Si Si7 0.859477 0.113079 0.328351
O O1 0.578202 0.253072 0.896683
O O2 0.415759 0.245129 0.834872
O O3 0.500000 0.000000 0.859864
O O4 0.452582 0.152357 0.976654
O O5 0.415769 0.849488 0.581963
O O6 0.556753 0.692690 0.604784
O O7 0.610618 0.399873 0.619141
O O8 0.250000 0.161021 0.402691
O O9 0.149215 0.149939 0.524891
O O10 0.123021 0.977684 0.405918
O O11 0.750000 0.601498 0.143152
O O12 0.877751 0.426415 0.166540
O O13 0.885464 0.713875 0.218541
O O14 0.750000 0.738962 0.631559
O O15 0.750000 0.885744 0.214650
O O16 0.607514 0.004404 0.262511
O O17 0.750000 0.139791 0.320854
#
# Coordination Sequence:
#
# PCOD9364150 Si02
#       7
#     8   8   8   8   8   8   8
#     4  11  23  37  58  94 135 169 217 282 335 395
#     4   9  17  31  52  82 125 169 210 269 337 391
#     4   9  19  36  60  90 126 170 220 271 329 391
#     4   8  14  25  47  82 123 160 206 261 323 388
#     4   9  15  25  48  86 128 166 208 266 327 388
#     4   8  17  32  54  87 122 159 213 270 324 391
#     4  10  20  37  63  94 125 173 229 277 332 407
#
# _framework density 23.504885000000002
#
# number of rings (size 3 to 8) (size 9 to 14) (size 15 to 20)
#    0.857    2.000    0.000    1.714    0.000    5.143 
#    0.000    1.429    3.143    0.857    0.000    0.000 
#    0.000    0.000    0.000    0.000    0.000    0.000 
#
# Total GULP energy -156199.653062 kJ/mol
# GULP energy per Si atom -5578.559038 kJ/mol
# Density = 2.345139 g / cm^3
# Si number density = 23.504885 Si / 1000 Ang^3
#
#
#
# Elastic Constant Matrix: (Units=GPa)
#
#
# Indices 1 2 3 4 5 6 
#
# 1 50.2578 19.9595 15.5274 0.0000 0.0000 0.0000
# 2 19.9595 86.4607 20.4104 0.0000 0.0000 0.0000
# 3 15.5274 20.4104 73.9159 0.0000 0.0000 0.0000
# 4 0.0000 0.0000 0.0000 28.8227 0.0000 0.0000
# 5 0.0000 0.0000 0.0000 0.0000 5.3305 0.0000
# 6 0.0000 0.0000 0.0000 0.0000 0.0000 -39.5260
#
#
#
# Elastic Compliance Matrix: (Units=1/GPa)
#
#
# Indices 1 2 3 4 5 6 
#
# 1 0.022749 -0.004411 -0.003561 0.000000 0.000000 0.000000
# 2 -0.004411 0.013228 -0.002726 0.000000 0.000000 0.000000
# 3 -0.003561 -0.002726 0.015030 0.000000 0.000000 0.000000
# 4 0.000000 0.000000 0.000000 0.034695 0.000000 0.000000
# 5 0.000000 0.000000 0.000000 0.000000 0.187601 0.000000
# 6 0.000000 0.000000 0.000000 0.000000 0.000000 -0.025300
#
#
# Mechanical properties :
#
#
# Convention : Reuss Voigt Hill
#
# Bulk Modulus (GPa) = 33.77133 35.82543 34.79838
# Shear Modulus (GPa) = 17.90387 9.24123 13.57255
#
# Velocity S-wave (km/s) = 2.76290 1.98498 2.40559
# Velocity P-wave (km/s) = 4.95753 4.53082 4.74897
#
# Compressibility (1/GPa) = 0.02961092
#
# Stress axis : x y z
#
# Youngs Moduli (GPa) = 43.95716 75.59859 66.53518
#
# Poissons Ratio (x) = 0.33347 0.23692
# Poissons Ratio (y) = 0.19390 0.18137
# Poissons Ratio (z) = 0.15653 0.20608
#
# Static dielectric constant tensor:
#      x y z
#    x 1.901480 0.000000 0.000000 
#    y 0.000000 1.930090 0.000000 
#    z 0.000000 0.000000 1.946040 
# 
# From -- ./inp_files/23112.got.cif
#   From: 2010.05.17/outbox.cif.g08.bks.cpg/sg40_12_cif.got.tgz:23112.got - 2010.06.03 18:35:42.
