data_PCOD9364847
_publ_section_title
;
Structure prediction by ZEFSAII (Michael W. Deem and Ramdas Pophale) SiO2 
 PCOD9364847
Probable space group: A M A 2
;
_chemical_formula_sum "Si O2"
_cell_formula_units_Z 64
_cell_length_a 22.076660
_cell_length_b 9.759868
_cell_length_c 14.745535
_cell_angle_alpha 90.000000
_cell_angle_beta 90.000000
_cell_angle_gamma 90.000000
_cell_volume 3177.150938
_symmetry_space_group_name_H-M "A M A 2"
_symmetry_group_IT_number 40
_symmetry_cell_setting 'orthorhombic'
loop_
_space_group_symop_operation_xyz
x,y,z
-x,-y,z
1/2-x,y,z
1/2+x,-y,z
x,1/2+y,1/2+z
-x,1/2-y,1/2+z
1/2-x,1/2+y,1/2+z
1/2+x,1/2-y,1/2+z
loop_
_atom_site_type_symbol
_atom_site_label
_atom_site_fract_x
_atom_site_fract_y
_atom_site_fract_z
Si Si1 0.059094 0.815133 0.912780
Si Si2 0.820360 0.497095 0.700746
Si Si3 0.820178 0.350079 0.891657
Si Si4 0.603330 0.768633 0.096907
Si Si5 0.316131 0.992462 0.580699
Si Si6 0.864003 0.804533 0.714294
Si Si7 0.074979 0.139871 0.895519
Si Si8 0.479282 0.655709 0.094572
O O1 0.122276 0.750633 0.877521
O O2 0.992044 0.803893 0.866840
O O3 0.069343 0.978019 0.915335
O O4 0.046371 0.740045 0.008723
O O5 0.750000 0.494438 0.670745
O O6 0.821425 0.450915 0.805833
O O7 0.860834 0.391084 0.643928
O O8 0.847283 0.648511 0.694095
O O9 0.750000 0.293571 0.895609
O O10 0.830719 0.428881 0.986879
O O11 0.639191 0.628062 0.105824
O O12 0.536162 0.739941 0.133317
O O13 0.593973 0.793636 0.990170
O O14 0.250000 0.930548 0.568176
O O15 0.316816 0.099620 0.662774
O O16 0.875156 0.829967 0.819793
O O17 0.926727 0.848424 0.667458
O O18 0.500000 0.500000 0.070457
#
# Coordination Sequence:
#
# PCOD9364847 Si02
#       8
#     8   8   8   8   8   8   8   8
#     4  10  21  43  63  97 135 171 221 266 333 390
#     4  11  26  45  66  95 133 172 225 282 334 400
#     4  10  22  41  66  93 127 170 219 275 327 396
#     4  11  23  43  65  96 132 173 224 269 337 392
#     4  11  23  42  68  92 128 176 222 273 333 399
#     4  12  24  42  66  97 133 174 220 273 340 394
#     4  10  25  39  67  93 137 178 213 279 329 409
#     4  11  22  39  68  99 135 173 219 278 330 400
#
# _framework density 20.143833000000001
#
# number of rings (size 3 to 8) (size 9 to 14) (size 15 to 20)
#    0.000    1.250    2.500    2.250    5.250    2.500 
#    0.000    3.125    0.000    0.000    0.000    0.000 
#    0.000    0.000    0.000    0.000    0.000    0.000 
#
# Total GULP energy -178588.109476 kJ/mol
# GULP energy per Si atom -5580.878421 kJ/mol
# Density = 2.009798 g / cm^3
# Si number density = 20.143833 Si / 1000 Ang^3
#
#
#
# Elastic Constant Matrix: (Units=GPa)
#
#
# Indices 1 2 3 4 5 6 
#
# 1 109.6304 56.8670 18.8045 0.0000 0.0000 0.0000
# 2 56.8670 116.7124 20.8303 0.0000 0.0000 0.0000
# 3 18.8045 20.8303 54.7205 0.0000 0.0000 0.0000
# 4 0.0000 0.0000 0.0000 20.7243 0.0000 0.0000
# 5 0.0000 0.0000 0.0000 0.0000 87.0841 0.0000
# 6 0.0000 0.0000 0.0000 0.0000 0.0000 22.8409
#
#
#
# Elastic Compliance Matrix: (Units=1/GPa)
#
#
# Indices 1 2 3 4 5 6 
#
# 1 0.012429 -0.005680 -0.002109 0.000000 0.000000 0.000000
# 2 -0.005680 0.011788 -0.002535 0.000000 0.000000 0.000000
# 3 -0.002109 -0.002535 0.019965 0.000000 0.000000 0.000000
# 4 0.000000 0.000000 0.000000 0.048252 0.000000 0.000000
# 5 0.000000 0.000000 0.000000 0.000000 0.011483 0.000000
# 6 0.000000 0.000000 0.000000 0.000000 0.000000 0.043781
#
#
# Mechanical properties :
#
#
# Convention : Reuss Voigt Hill
#
# Bulk Modulus (GPa) = 42.49303 52.67407 47.58355
# Shear Modulus (GPa) = 28.37810 38.43398 33.40604
#
# Velocity S-wave (km/s) = 3.75744 4.37278 4.07673
# Velocity P-wave (km/s) = 6.32179 7.19032 6.77000
#
# Compressibility (1/GPa) = 0.02353327
#
# Stress axis : x y z
#
# Youngs Moduli (GPa) = 80.45382 84.83222 50.08836
#
# Poissons Ratio (x) = 0.48182 0.10565
# Poissons Ratio (y) = 0.45695 0.12700
# Poissons Ratio (z) = 0.16970 0.21509
#
# Static dielectric constant tensor:
#      x y z
#    x 1.717240 0.000000 0.000000 
#    y 0.000000 1.684730 0.000000 
#    z 0.000000 0.000000 1.704590 
# 
# From -- ./inp_files/18505.got.cif
#   From: 2010.05.17/outbox.cif.g08.bks.cpg/sg40_10_cif.got.tgz:18505.got - 2010.06.03 18:35:42.
