data_PCOD9364061
_publ_section_title
;
Structure prediction by ZEFSAII (Michael W. Deem and Ramdas Pophale) SiO2 
 PCOD9364061
Probable space group: A M A 2
;
_chemical_formula_sum "Si O2"
_cell_formula_units_Z 56
_cell_length_a 13.546187
_cell_length_b 9.427734
_cell_length_c 21.441195
_cell_angle_alpha 90.000000
_cell_angle_beta 90.000000
_cell_angle_gamma 90.000000
_cell_volume 2738.251749
_symmetry_space_group_name_H-M "A M A 2"
_symmetry_group_IT_number 40
_symmetry_cell_setting 'orthorhombic'
loop_
_space_group_symop_operation_xyz
x,y,z
-x,-y,z
1/2-x,y,z
1/2+x,-y,z
x,1/2+y,1/2+z
-x,1/2-y,1/2+z
1/2-x,1/2+y,1/2+z
1/2+x,1/2-y,1/2+z
loop_
_atom_site_type_symbol
_atom_site_label
_atom_site_fract_x
_atom_site_fract_y
_atom_site_fract_z
Si Si1 0.370588 0.221204 0.490220
Si Si2 0.500000 0.000000 0.409086
Si Si3 0.637934 0.633915 0.806797
Si Si4 0.514051 0.139485 0.188338
Si Si5 0.500000 0.500000 0.456922
Si Si6 0.136879 0.546040 0.342656
Si Si7 0.363714 0.612285 0.129086
Si Si8 0.867235 0.135130 0.725677
O O1 0.250000 0.243262 0.476633
O O2 0.435492 0.371043 0.489982
O O3 0.372122 0.131131 0.554927
O O4 0.432487 0.116199 0.444960
O O5 0.423678 0.916979 0.365435
O O6 0.750000 0.583432 0.809700
O O7 0.583542 0.588654 0.744437
O O8 0.637544 0.804737 0.807050
O O9 0.570950 0.262385 0.154410
O O10 0.417540 0.215669 0.214228
O O11 0.500000 0.000000 0.147195
O O12 0.421327 0.562692 0.406954
O O13 0.250000 0.508197 0.357478
O O14 0.099199 0.431364 0.291992
O O15 0.250000 0.639315 0.146018
O O16 0.389318 0.468718 0.166736
O O17 0.750000 0.147151 0.728985
#
# Coordination Sequence:
#
# PCOD9364061 Si02
#       8
#     8   4   8   8   4   8   8   8
#     4  11  27  46  69  98 133 181 230 276 327 395
#     4  12  24  46  66  98 132 182 224 278 326 394
#     4  11  22  39  62  96 134 169 212 268 334 393
#     4  12  24  38  63  98 132 170 208 268 344 395
#     4  12  22  42  66  96 138 172 216 266 334 400
#     4  10  20  36  63  96 126 165 214 268 323 388
#     4  10  23  45  67  91 125 170 223 275 322 383
#     4  10  22  40  67  96 128 171 223 273 324 396
#
# _framework density 20.451004000000001
#
# number of rings (size 3 to 8) (size 9 to 14) (size 15 to 20)
#    0.000    1.143    3.571    2.571    3.000    1.143 
#    0.000    0.000    0.000    0.000    0.000    0.000 
#    0.000    0.000    0.000    0.000    0.000    0.000 
#
# Total GULP energy -156069.367507 kJ/mol
# GULP energy per Si atom -5573.905982 kJ/mol
# Density = 2.040446 g / cm^3
# Si number density = 20.451004 Si / 1000 Ang^3
#
#
#
# Elastic Constant Matrix: (Units=GPa)
#
#
# Indices 1 2 3 4 5 6 
#
# 1 134.1473 35.4700 28.4134 0.0000 0.0000 0.0000
# 2 35.4700 105.3080 12.0438 0.0000 0.0000 0.0000
# 3 28.4134 12.0438 45.9795 0.0000 0.0000 0.0000
# 4 0.0000 0.0000 0.0000 -3.2294 0.0000 0.0000
# 5 0.0000 0.0000 0.0000 0.0000 22.4081 0.0000
# 6 0.0000 0.0000 0.0000 0.0000 0.0000 21.3915
#
#
#
# Elastic Compliance Matrix: (Units=1/GPa)
#
#
# Indices 1 2 3 4 5 6 
#
# 1 0.009183 -0.002519 -0.005015 0.000000 0.000000 0.000000
# 2 -0.002519 0.010480 -0.001188 0.000000 0.000000 0.000000
# 3 -0.005015 -0.001188 0.025159 0.000000 0.000000 0.000000
# 4 0.000000 0.000000 0.000000 -0.309652 0.000000 0.000000
# 5 0.000000 0.000000 0.000000 0.000000 0.044627 0.000000
# 6 0.000000 0.000000 0.000000 0.000000 0.000000 0.046748
#
#
# Mechanical properties :
#
#
# Convention : Reuss Voigt Hill
#
# Bulk Modulus (GPa) = 36.52652 48.58770 42.55711
# Shear Modulus (GPa) = -34.04018 22.08120 -5.97949
#
# Velocity S-wave (km/s) = -4.08422 3.28946 -1.71177
# Velocity P-wave (km/s) = 2.08372 6.18361 4.11675
#
# Compressibility (1/GPa) = 0.02737737
#
# Stress axis : x y z
#
# Youngs Moduli (GPa) = 108.89913 95.41565 39.74728
#
# Poissons Ratio (x) = 0.24040 0.19932
# Poissons Ratio (y) = 0.27437 0.04723
# Poissons Ratio (z) = 0.54609 0.11338
#
# Static dielectric constant tensor:
#      x y z
#    x 1.812920 0.000000 0.000000 
#    y 0.000000 1.736760 0.000000 
#    z 0.000000 0.000000 1.748930 
# 
# From -- ./inp_files/23145.got.cif
#   From: 2010.05.17/outbox.cif.g08.bks.cpg/sg40_12_cif.got.tgz:23145.got - 2010.06.03 18:35:42.
