data_PCOD9364252
_publ_section_title
;
Structure prediction by ZEFSAII (Michael W. Deem and Ramdas Pophale) SiO2 
 PCOD9364252
Probable space group: A M A 2
;
_chemical_formula_sum "Si O2"
_cell_formula_units_Z 64
_cell_length_a 20.543855
_cell_length_b 17.199352
_cell_length_c 9.131307
_cell_angle_alpha 90.000000
_cell_angle_beta 90.000000
_cell_angle_gamma 90.000000
_cell_volume 3226.465088
_symmetry_space_group_name_H-M "A M A 2"
_symmetry_group_IT_number 40
_symmetry_cell_setting 'orthorhombic'
loop_
_space_group_symop_operation_xyz
x,y,z
-x,-y,z
1/2-x,y,z
1/2+x,-y,z
x,1/2+y,1/2+z
-x,1/2-y,1/2+z
1/2-x,1/2+y,1/2+z
1/2+x,1/2-y,1/2+z
loop_
_atom_site_type_symbol
_atom_site_label
_atom_site_fract_x
_atom_site_fract_y
_atom_site_fract_z
Si Si1 0.466340 0.823979 0.146940
Si Si2 0.417904 0.113274 0.969152
Si Si3 0.820608 0.022630 0.008217
Si Si4 0.546277 0.567184 0.914427
Si Si5 0.173414 0.677669 0.708531
Si Si6 0.824503 0.991522 0.343969
Si Si7 0.003274 0.849467 0.701482
Si Si8 0.372126 0.827456 0.887060
O O1 0.448539 0.862032 0.300691
O O2 0.501508 0.741727 0.164940
O O3 0.516462 0.882034 0.065748
O O4 0.405553 0.807453 0.042078
O O5 0.441896 0.135149 0.807143
O O6 0.380706 0.031681 0.965595
O O7 0.368152 0.168846 0.059324
O O8 0.750000 0.984318 0.982516
O O9 0.823565 0.103267 0.923687
O O10 0.826018 0.032631 0.183785
O O11 0.500000 0.500000 0.850096
O O12 0.617892 0.530163 0.936956
O O13 0.509847 0.598601 0.057964
O O14 0.250000 0.678846 0.675803
O O15 0.160798 0.598781 0.803222
O O16 0.155078 0.752869 0.803169
O O17 0.750000 0.996938 0.400290
O O18 0.069276 0.862122 0.791111
#
# Coordination Sequence:
#
# PCOD9364252 Si02
#       8
#     8   8   8   8   8   8   8   8
#     4  11  23  40  64  92 128 170 215 273 330 401
#     4  10  21  40  64  91 125 167 217 269 334 394
#     4  10  20  38  65  94 125 169 221 271 326 404
#     4  12  24  39  68  98 127 176 225 276 338 400
#     4  10  20  39  68  96 129 178 227 270 331 412
#     4   9  20  40  64  93 130 173 223 270 327 406
#     4  11  26  39  61  92 135 166 213 281 340 388
#     4  11  22  38  63  95 130 166 219 274 331 395
#
# _framework density 19.835951000000001
#
# number of rings (size 3 to 8) (size 9 to 14) (size 15 to 20)
#    0.000    1.500    2.500    4.500    3.500    1.000 
#    0.000    1.250    0.000    3.000    0.000    0.000 
#    0.000    0.000    0.000    0.000    0.000    0.000 
#
# Total GULP energy -178564.197942 kJ/mol
# GULP energy per Si atom -5580.131186 kJ/mol
# Density = 1.979080 g / cm^3
# Si number density = 19.835951 Si / 1000 Ang^3
#
#
#
# Elastic Constant Matrix: (Units=GPa)
#
#
# Indices 1 2 3 4 5 6 
#
# 1 108.9642 51.0492 35.6032 0.0000 0.0000 0.0000
# 2 51.0492 91.7932 46.2369 0.0000 0.0000 0.0000
# 3 35.6032 46.2369 89.7144 0.0000 0.0000 0.0000
# 4 0.0000 0.0000 0.0000 32.4789 0.0000 0.0000
# 5 0.0000 0.0000 0.0000 0.0000 14.7365 0.0000
# 6 0.0000 0.0000 0.0000 0.0000 0.0000 25.5950
#
#
#
# Elastic Compliance Matrix: (Units=1/GPa)
#
#
# Indices 1 2 3 4 5 6 
#
# 1 0.012642 -0.006083 -0.001882 0.000000 0.000000 0.000000
# 2 -0.006083 0.017640 -0.006678 0.000000 0.000000 0.000000
# 3 -0.001882 -0.006678 0.015335 0.000000 0.000000 0.000000
# 4 0.000000 0.000000 0.000000 0.030789 0.000000 0.000000
# 5 0.000000 0.000000 0.000000 0.000000 0.067859 0.000000
# 6 0.000000 0.000000 0.000000 0.000000 0.000000 0.039070
#
#
# Mechanical properties :
#
#
# Convention : Reuss Voigt Hill
#
# Bulk Modulus (GPa) = 61.22721 61.80558 61.51639
# Shear Modulus (GPa) = 22.92906 25.06759 23.99832
#
# Velocity S-wave (km/s) = 3.40359 3.55878 3.48205
# Velocity P-wave (km/s) = 6.81027 6.93632 6.87358
#
# Compressibility (1/GPa) = 0.01633261
#
# Stress axis : x y z
#
# Youngs Moduli (GPa) = 79.10177 56.68836 65.21079
#
# Poissons Ratio (x) = 0.34481 0.12274
# Poissons Ratio (y) = 0.48114 0.43545
# Poissons Ratio (z) = 0.14888 0.37854
#
# Static dielectric constant tensor:
#      x y z
#    x 1.767890 0.000000 0.000000 
#    y 0.000000 1.704620 0.000000 
#    z 0.000000 0.000000 1.710750 
# 
# From -- ./inp_files/8464.got.cif
#   From: 2010.05.17/outbox.cif.g08.bks.cpg/sg40_5_cif.got.tgz:8464.got - 2010.06.03 18:35:42.
