data_PCOD9364229
_publ_section_title
;
Structure prediction by ZEFSAII (Michael W. Deem and Ramdas Pophale) SiO2 
 PCOD9364229
Probable space group: A M A 2
;
_chemical_formula_sum "Si O2"
_cell_formula_units_Z 48
_cell_length_a 23.446888
_cell_length_b 7.161355
_cell_length_c 12.246439
_cell_angle_alpha 90.000000
_cell_angle_beta 90.000000
_cell_angle_gamma 90.000000
_cell_volume 2056.317803
_symmetry_space_group_name_H-M "A M A 2"
_symmetry_group_IT_number 40
_symmetry_cell_setting 'orthorhombic'
loop_
_space_group_symop_operation_xyz
x,y,z
-x,-y,z
1/2-x,y,z
1/2+x,-y,z
x,1/2+y,1/2+z
-x,1/2-y,1/2+z
1/2-x,1/2+y,1/2+z
1/2+x,1/2-y,1/2+z
loop_
_atom_site_type_symbol
_atom_site_label
_atom_site_fract_x
_atom_site_fract_y
_atom_site_fract_z
Si Si1 0.750000 0.029619 0.859401
Si Si2 0.976297 0.708009 0.954538
Si Si3 0.250000 0.517738 0.832836
Si Si4 0.000000 0.000000 0.134099
Si Si5 0.159639 0.950831 0.679788
Si Si6 0.565307 0.769970 0.287756
Si Si7 0.136651 0.494810 0.950622
Si Si8 0.750000 0.859434 0.102284
O O1 0.750000 0.258036 0.860294
O O2 0.804061 0.978305 0.782323
O O3 0.750000 0.947109 0.981558
O O4 0.001131 0.825667 0.053663
O O5 0.000000 0.500000 0.965007
O O6 0.908560 0.676480 0.955658
O O7 0.005431 0.782416 0.843671
O O8 0.193871 0.439285 0.888899
O O9 0.250000 0.494559 0.702668
O O10 0.947493 0.949970 0.212328
O O11 0.098011 0.885236 0.720657
O O12 0.151164 0.070347 0.571196
O O13 0.195483 0.773495 0.630015
O O14 0.607568 0.840558 0.381561
#
# Coordination Sequence:
#
# PCOD9364229 Si02
#       8
#     4   8   4   4   8   8   8   4
#     4  10  21  39  63  92 125 170 222 272 328 404
#     4  10  24  42  66  99 134 175 228 278 337 405
#     4  10  20  38  64  86 126 174 208 270 337 391
#     4  12  22  44  68  94 138 182 222 280 342 398
#     4  10  21  40  64  87 128 171 211 280 329 393
#     4  11  21  41  65  94 131 171 222 277 336 397
#     4  11  19  41  65  89 128 177 212 268 344 390
#     4  10  21  39  63  94 127 168 230 270 335 403
#
# _framework density 23.342694000000002
#
# number of rings (size 3 to 8) (size 9 to 14) (size 15 to 20)
#    0.000    1.667    7.500    1.000    0.000    1.333 
#    1.500    6.667    0.000    0.000    0.000    0.000 
#    0.000    0.000    0.000    0.000    0.000    0.000 
#
# Total GULP energy -134045.563071 kJ/mol
# GULP energy per Si atom -5585.231795 kJ/mol
# Density = 2.328956 g / cm^3
# Si number density = 23.342694 Si / 1000 Ang^3
#
#
#
# Elastic Constant Matrix: (Units=GPa)
#
#
# Indices 1 2 3 4 5 6 
#
# 1 101.9258 4.9680 37.1268 0.0000 0.0000 0.0000
# 2 4.9680 54.9441 31.8911 0.0000 0.0000 0.0000
# 3 37.1268 31.8911 188.9733 0.0000 0.0000 0.0000
# 4 0.0000 0.0000 0.0000 34.3673 0.0000 0.0000
# 5 0.0000 0.0000 0.0000 0.0000 40.6006 0.0000
# 6 0.0000 0.0000 0.0000 0.0000 0.0000 0.5396
#
#
#
# Elastic Compliance Matrix: (Units=1/GPa)
#
#
# Indices 1 2 3 4 5 6 
#
# 1 0.010571 0.000277 -0.002124 0.000000 0.000000 0.000000
# 2 0.000277 0.020184 -0.003461 0.000000 0.000000 0.000000
# 3 -0.002124 -0.003461 0.006293 0.000000 0.000000 0.000000
# 4 0.000000 0.000000 0.000000 0.029097 0.000000 0.000000
# 5 0.000000 0.000000 0.000000 0.000000 0.024630 0.000000
# 6 0.000000 0.000000 0.000000 0.000000 0.000000 1.853356
#
#
# Mechanical properties :
#
#
# Convention : Reuss Voigt Hill
#
# Bulk Modulus (GPa) = 37.83128 54.86832 46.34980
# Shear Modulus (GPa) = 2.54640 33.22533 17.88586
#
# Velocity S-wave (km/s) = 1.04558 3.77685 2.77109
# Velocity P-wave (km/s) = 4.20711 6.52503 5.48980
#
# Compressibility (1/GPa) = 0.02643315
#
# Stress axis : x y z
#
# Youngs Moduli (GPa) = 94.59773 49.54436 158.90746
#
# Poissons Ratio (x) = -0.01371 0.33745
# Poissons Ratio (y) = -0.02618 0.54992
# Poissons Ratio (z) = 0.20088 0.17145
#
# Static dielectric constant tensor:
#      x y z
#    x 1.934380 0.000000 0.000000 
#    y 0.000000 1.926490 0.000000 
#    z 0.000000 0.000000 1.920660 
# 
# From -- ./inp_files/14171.got.cif
#   From: 2010.05.17/outbox.cif.g08.bks.cpg/sg40_8_cif.got.tgz:14171.got - 2010.06.03 18:35:42.
