data_PCOD9364514
_publ_section_title
;
Structure prediction by ZEFSAII (Michael W. Deem and Ramdas Pophale) SiO2 
 PCOD9364514
Probable space group: A M A 2
;
_chemical_formula_sum "Si O2"
_cell_formula_units_Z 56
_cell_length_a 15.246540
_cell_length_b 31.878825
_cell_length_c 5.758533
_cell_angle_alpha 90.000000
_cell_angle_beta 90.000000
_cell_angle_gamma 90.000000
_cell_volume 2798.887632
_symmetry_space_group_name_H-M "A M A 2"
_symmetry_group_IT_number 40
_symmetry_cell_setting 'orthorhombic'
loop_
_space_group_symop_operation_xyz
x,y,z
-x,-y,z
1/2-x,y,z
1/2+x,-y,z
x,1/2+y,1/2+z
-x,1/2-y,1/2+z
1/2-x,1/2+y,1/2+z
1/2+x,1/2-y,1/2+z
loop_
_atom_site_type_symbol
_atom_site_label
_atom_site_fract_x
_atom_site_fract_y
_atom_site_fract_z
Si Si1 0.647276 0.732873 0.095900
Si Si2 0.587143 0.660369 0.789326
Si Si3 0.486101 0.204500 0.907233
Si Si4 0.150778 0.409800 0.483204
Si Si5 0.913590 0.472189 0.209305
Si Si6 0.352009 0.495181 0.702872
Si Si7 0.994443 0.884906 0.662748
O O1 0.750000 0.741308 0.157330
O O2 0.570747 0.727279 0.290361
O O3 0.642253 0.687738 0.969038
O O4 0.602231 0.768331 0.931899
O O5 0.523671 0.691932 0.656476
O O6 0.647918 0.633959 0.619670
O O7 0.521715 0.627135 0.905087
O O8 0.470886 0.159800 0.779538
O O9 0.250000 0.419432 0.406648
O O10 0.116961 0.447826 0.644412
O O11 0.083548 0.402971 0.276325
O O12 0.863552 0.481050 0.454192
O O13 0.000000 0.500000 0.249550
O O14 0.926909 0.422300 0.191567
O O15 0.886793 0.486520 0.946812
O O16 0.250000 0.491444 0.747791
#
# Coordination Sequence:
#
# PCOD9364514 Si02
#       7
#     8   8   8   8   8   8   8
#     4  11  22  40  66  94 127 170 211 264 332 400
#     4  10  21  38  63  91 128 164 201 266 330 393
#     4  10  22  41  61  94 130 164 218 272 322 405
#     4  10  21  37  58  95 132 163 204 261 332 397
#     4  12  23  41  68  95 128 173 232 267 331 401
#     4  11  25  42  64  94 135 175 220 280 331 392
#     4  10  23  38  63  90 126 169 213 272 325 388
#
# _framework density 20.007947999999999
#
# number of rings (size 3 to 8) (size 9 to 14) (size 15 to 20)
#    0.000    1.429    2.857    2.143    4.000    6.286 
#    0.000    1.429    0.000    0.000    0.000    0.000 
#    0.000    0.000    0.000    0.000    0.000    0.000 
#
# Total GULP energy -155894.715070 kJ/mol
# GULP energy per Si atom -5567.668395 kJ/mol
# Density = 1.996241 g / cm^3
# Si number density = 20.007948 Si / 1000 Ang^3
#
#
#
# Elastic Constant Matrix: (Units=GPa)
#
#
# Indices 1 2 3 4 5 6 
#
# 1 58.6646 35.6632 12.6139 0.0000 0.0000 0.0000
# 2 35.6632 100.7260 13.4640 0.0000 0.0000 0.0000
# 3 12.6139 13.4640 60.4646 0.0000 0.0000 0.0000
# 4 0.0000 0.0000 0.0000 30.5900 0.0000 0.0000
# 5 0.0000 0.0000 0.0000 0.0000 -2.3090 0.0000
# 6 0.0000 0.0000 0.0000 0.0000 0.0000 25.1476
#
#
#
# Elastic Compliance Matrix: (Units=1/GPa)
#
#
# Indices 1 2 3 4 5 6 
#
# 1 0.022228 -0.007473 -0.002973 0.000000 0.000000 0.000000
# 2 -0.007473 0.012745 -0.001279 0.000000 0.000000 0.000000
# 3 -0.002973 -0.001279 0.017444 0.000000 0.000000 0.000000
# 4 0.000000 0.000000 0.000000 0.032690 0.000000 0.000000
# 5 0.000000 0.000000 0.000000 0.000000 -0.433086 0.000000
# 6 0.000000 0.000000 0.000000 0.000000 0.000000 0.039765
#
#
# Mechanical properties :
#
#
# Convention : Reuss Voigt Hill
#
# Bulk Modulus (GPa) = 34.52234 38.14858 36.33546
# Shear Modulus (GPa) = -18.17463 21.22667 1.52602
#
# Velocity S-wave (km/s) = -3.01719 3.26070 0.87428
# Velocity P-wave (km/s) = 2.27021 5.76926 4.38396
#
# Compressibility (1/GPa) = 0.02896675
#
# Stress axis : x y z
#
# Youngs Moduli (GPa) = 44.98805 78.46402 57.32740
#
# Poissons Ratio (x) = 0.58634 0.17044
# Poissons Ratio (y) = 0.33618 0.07332
# Poissons Ratio (z) = 0.13376 0.10036
#
# Static dielectric constant tensor:
#      x y z
#    x 1.729800 0.000000 0.000000 
#    y 0.000000 1.765330 0.000000 
#    z 0.000000 0.000000 1.804810 
# 
# From -- ./inp_files/1447.got.cif
#   From: 2010.05.17/outbox.cif.g08.bks.cpg/sg40_1_cif.got.tgz:1447.got - 2010.06.03 18:35:42.
