data_PCOD9364131
_publ_section_title
;
Structure prediction by ZEFSAII (Michael W. Deem and Ramdas Pophale) SiO2 
 PCOD9364131
Probable space group: A M A 2
;
_chemical_formula_sum "Si O2"
_cell_formula_units_Z 48
_cell_length_a 23.949119
_cell_length_b 12.218305
_cell_length_c 7.015954
_cell_angle_alpha 90.000000
_cell_angle_beta 90.000000
_cell_angle_gamma 90.000000
_cell_volume 2052.991905
_symmetry_space_group_name_H-M "A M A 2"
_symmetry_group_IT_number 40
_symmetry_cell_setting 'orthorhombic'
loop_
_space_group_symop_operation_xyz
x,y,z
-x,-y,z
1/2-x,y,z
1/2+x,-y,z
x,1/2+y,1/2+z
-x,1/2-y,1/2+z
1/2-x,1/2+y,1/2+z
1/2+x,1/2-y,1/2+z
loop_
_atom_site_type_symbol
_atom_site_label
_atom_site_fract_x
_atom_site_fract_y
_atom_site_fract_z
Si Si1 0.396507 0.527924 0.966790
Si Si2 0.814722 0.051528 0.801116
Si Si3 0.685935 0.291856 0.957463
Si Si4 0.187521 0.681925 0.416530
Si Si5 0.512332 0.882190 0.752183
Si Si6 0.078463 0.801832 0.480981
O O1 0.357954 0.620703 0.875416
O O2 0.417145 0.417185 0.864695
O O3 0.356788 0.476365 0.131675
O O4 0.448205 0.586598 0.071686
O O5 0.750000 0.048428 0.733587
O O6 0.824660 0.167244 0.899017
O O7 0.819922 0.947887 0.942859
O O8 0.750000 0.320408 0.907360
O O9 0.682184 0.299606 0.187780
O O10 0.250000 0.714644 0.472974
O O11 0.139732 0.753140 0.508300
O O12 0.455522 0.832111 0.670388
O O13 0.544253 0.793062 0.875162
O O14 0.500000 0.000000 0.847995
#
# Coordination Sequence:
#
# PCOD9364131 Si02
#       6
#     8   8   8   8   8   8
#     4  10  20  37  62  83 119 160 210 251 300 367
#     4   9  17  33  59  89 122 161 199 249 311 370
#     4   9  17  33  61  93 126 161 197 248 313 369
#     4   9  18  36  61  91 122 156 200 249 306 369
#     4  10  23  43  61  84 124 162 211 257 307 366
#     4  11  22  42  64  90 121 164 208 257 311 367
#
# _framework density 23.380509
#
# number of rings (size 3 to 8) (size 9 to 14) (size 15 to 20)
#    0.000    2.333    3.333    1.500    0.000    4.000 
#    0.000   10.833    0.000    4.000    0.000    0.000 
#    0.000    0.000    0.000    0.000    0.000    0.000 
#
# Total GULP energy -134163.736769 kJ/mol
# GULP energy per Si atom -5590.155699 kJ/mol
# Density = 2.332729 g / cm^3
# Si number density = 23.380509 Si / 1000 Ang^3
#
#
#
# Elastic Constant Matrix: (Units=GPa)
#
#
# Indices 1 2 3 4 5 6 
#
# 1 116.8536 59.8837 18.5743 0.0000 0.0000 0.0000
# 2 59.8837 159.4074 33.8327 0.0000 0.0000 0.0000
# 3 18.5743 33.8327 51.7939 0.0000 0.0000 0.0000
# 4 0.0000 0.0000 0.0000 28.8982 0.0000 0.0000
# 5 0.0000 0.0000 0.0000 0.0000 -13.5708 0.0000
# 6 0.0000 0.0000 0.0000 0.0000 0.0000 50.7313
#
#
#
# Elastic Compliance Matrix: (Units=1/GPa)
#
#
# Indices 1 2 3 4 5 6 
#
# 1 0.010685 -0.003716 -0.001405 0.000000 0.000000 0.000000
# 2 -0.003716 0.008575 -0.004269 0.000000 0.000000 0.000000
# 3 -0.001405 -0.004269 0.022599 0.000000 0.000000 0.000000
# 4 0.000000 0.000000 0.000000 0.034604 0.000000 0.000000
# 5 0.000000 0.000000 0.000000 0.000000 -0.073688 0.000000
# 6 0.000000 0.000000 0.000000 0.000000 0.000000 0.019712
#
#
# Mechanical properties :
#
#
# Convention : Reuss Voigt Hill
#
# Bulk Modulus (GPa) = 43.32547 61.40403 52.36475
# Shear Modulus (GPa) = 102.12205 27.59601 64.85903
#
# Velocity S-wave (km/s) = 6.61612 3.43928 5.27265
# Velocity P-wave (km/s) = 8.77126 6.48779 7.71448
#
# Compressibility (1/GPa) = 0.02308111
#
# Stress axis : x y z
#
# Youngs Moduli (GPa) = 93.58647 116.61515 44.24878
#
# Poissons Ratio (x) = 0.43334 0.06215
# Poissons Ratio (y) = 0.34776 0.18889
# Poissons Ratio (z) = 0.13145 0.49781
#
# Static dielectric constant tensor:
#      x y z
#    x 1.892510 0.000000 0.000000 
#    y 0.000000 1.924610 0.000000 
#    z 0.000000 0.000000 1.909490 
# 
# From -- ./inp_files/8722.got.cif
#   From: 2010.05.17/outbox.cif.g08.bks.cpg/sg40_5_cif.got.tgz:8722.got - 2010.06.03 18:35:42.
