data_PCOD9364986
_publ_section_title
;
Structure prediction by ZEFSAII (Michael W. Deem and Ramdas Pophale) SiO2 
 PCOD9364986
Probable space group: A M A 2
;
_chemical_formula_sum "Si O2"
_cell_formula_units_Z 48
_cell_length_a 22.918770
_cell_length_b 18.508106
_cell_length_c 5.234079
_cell_angle_alpha 90.000000
_cell_angle_beta 90.000000
_cell_angle_gamma 90.000000
_cell_volume 2220.207461
_symmetry_space_group_name_H-M "A M A 2"
_symmetry_group_IT_number 40
_symmetry_cell_setting 'orthorhombic'
loop_
_space_group_symop_operation_xyz
x,y,z
-x,-y,z
1/2-x,y,z
1/2+x,-y,z
x,1/2+y,1/2+z
-x,1/2-y,1/2+z
1/2-x,1/2+y,1/2+z
1/2+x,1/2-y,1/2+z
loop_
_atom_site_type_symbol
_atom_site_label
_atom_site_fract_x
_atom_site_fract_y
_atom_site_fract_z
Si Si1 0.145606 0.310946 0.215170
Si Si2 0.488000 0.793049 0.563497
Si Si3 0.317450 0.724009 0.219728
Si Si4 0.811656 0.936708 0.198624
Si Si5 0.841447 0.019473 0.692594
Si Si6 0.405351 0.605235 0.045028
O O1 0.164127 0.273920 0.479885
O O2 0.160383 0.395462 0.212941
O O3 0.076209 0.307514 0.168979
O O4 0.174458 0.268476 0.979717
O O5 0.484028 0.757943 0.282627
O O6 0.531489 0.860547 0.538595
O O7 0.250000 0.701942 0.191896
O O8 0.360991 0.655485 0.209245
O O9 0.750000 0.895015 0.193052
O O10 0.810062 0.991342 0.438621
O O11 0.870840 0.894069 0.272129
O O12 0.816698 0.983200 0.945701
O O13 0.903093 0.976800 0.648984
#
# Coordination Sequence:
#
# PCOD9364986 Si02
#       6
#     8   8   8   8   8   8
#     4  12  25  47  67 104 133 180 224 281 348 401
#     4  12  24  44  72  96 134 176 222 286 335 405
#     4  12  26  43  69 100 138 176 228 279 335 408
#     4  10  22  40  66  97 134 175 218 272 333 398
#     4  10  25  40  67  96 134 171 224 274 337 402
#     4  10  25  44  68  96 132 174 231 270 336 393
#
# _framework density 21.619602
#
# number of rings (size 3 to 8) (size 9 to 14) (size 15 to 20)
#    1.000    0.000    3.333    2.500    4.667    4.667 
#    0.000    0.000    3.667    0.000    0.000    0.000 
#    0.000    0.000    0.000    0.000    0.000    0.000 
#
# Total GULP energy -133982.391154 kJ/mol
# GULP energy per Si atom -5582.599631 kJ/mol
# Density = 2.157040 g / cm^3
# Si number density = 21.619602 Si / 1000 Ang^3
#
#
#
# Elastic Constant Matrix: (Units=GPa)
#
#
# Indices 1 2 3 4 5 6 
#
# 1 82.5107 -16.5567 2.7353 0.0000 0.0000 0.0000
# 2 -16.5567 87.3154 38.2436 0.0000 0.0000 0.0000
# 3 2.7353 38.2436 152.3808 0.0000 0.0000 0.0000
# 4 0.0000 0.0000 0.0000 22.1107 0.0000 0.0000
# 5 0.0000 0.0000 0.0000 0.0000 14.7992 0.0000
# 6 0.0000 0.0000 0.0000 0.0000 0.0000 0.1041
#
#
#
# Elastic Compliance Matrix: (Units=1/GPa)
#
#
# Indices 1 2 3 4 5 6 
#
# 1 0.012717 0.002821 -0.000936 0.000000 0.000000 0.000000
# 2 0.002821 0.013493 -0.003437 0.000000 0.000000 0.000000
# 3 -0.000936 -0.003437 0.007442 0.000000 0.000000 0.000000
# 4 0.000000 0.000000 0.000000 0.045227 0.000000 0.000000
# 5 0.000000 0.000000 0.000000 0.000000 0.067571 0.000000
# 6 0.000000 0.000000 0.000000 0.000000 0.000000 9.606654
#
#
# Mechanical properties :
#
#
# Convention : Reuss Voigt Hill
#
# Bulk Modulus (GPa) = 32.73537 41.22792 36.98165
# Shear Modulus (GPa) = 0.51196 27.25511 13.88353
#
# Velocity S-wave (km/s) = 0.48715 3.55444 2.53686
# Velocity P-wave (km/s) = 3.93584 5.99637 5.07185
#
# Compressibility (1/GPa) = 0.03054800
#
# Stress axis : x y z
#
# Youngs Moduli (GPa) = 78.63581 74.11163 134.37372
#
# Poissons Ratio (x) = -0.20911 0.12583
# Poissons Ratio (y) = -0.22187 0.46185
# Poissons Ratio (z) = 0.07363 0.25473
#
# Static dielectric constant tensor:
#      x y z
#    x 1.846270 0.000000 0.000000 
#    y 0.000000 1.780330 0.000000 
#    z 0.000000 0.000000 1.786650 
# 
# From -- ./inp_files/2725.got.cif
#   From: 2010.05.17/outbox.cif.g08.bks.cpg/sg40_2_cif.got.tgz:2725.got - 2010.06.03 18:35:42.
