data_PCOD9364999
_publ_section_title
;
Structure prediction by ZEFSAII (Michael W. Deem and Ramdas Pophale) SiO2 
 PCOD9364999
Probable space group: A M A 2
;
_chemical_formula_sum "Si O2"
_cell_formula_units_Z 44
_cell_length_a 15.837920
_cell_length_b 15.467894
_cell_length_c 9.191481
_cell_angle_alpha 90.000000
_cell_angle_beta 90.000000
_cell_angle_gamma 90.000000
_cell_volume 2251.722285
_symmetry_space_group_name_H-M "A M A 2"
_symmetry_group_IT_number 40
_symmetry_cell_setting 'orthorhombic'
loop_
_space_group_symop_operation_xyz
x,y,z
-x,-y,z
1/2-x,y,z
1/2+x,-y,z
x,1/2+y,1/2+z
-x,1/2-y,1/2+z
1/2-x,1/2+y,1/2+z
1/2+x,1/2-y,1/2+z
loop_
_atom_site_type_symbol
_atom_site_label
_atom_site_fract_x
_atom_site_fract_y
_atom_site_fract_z
Si Si1 0.841452 0.793961 0.035210
Si Si2 0.344468 0.511734 0.410545
Si Si3 0.157368 0.136044 0.355995
Si Si4 0.908935 0.536676 0.708339
Si Si5 0.500000 0.000000 0.690323
Si Si6 0.522842 0.153984 0.461223
O O1 0.750000 0.755472 0.990990
O O2 0.839292 0.810958 0.206776
O O3 0.847308 0.888912 0.965374
O O4 0.920983 0.735462 0.000773
O O5 0.250000 0.493931 0.353895
O O6 0.359852 0.454157 0.556503
O O7 0.417984 0.505104 0.292963
O O8 0.250000 0.139136 0.426877
O O9 0.076264 0.171883 0.438591
O O10 0.136302 0.037205 0.306475
O O11 0.934220 0.614620 0.814752
O O12 0.000000 0.500000 0.661273
O O13 0.519777 0.080528 0.584706
#
# Coordination Sequence:
#
# PCOD9364999 Si02
#       6
#     8   8   8   8   4   8
#     4   9  21  39  62  86 115 158 201 246 303 355
#     4  10  22  41  62  84 119 165 199 242 304 370
#     4   9  18  36  59  83 116 159 196 235 297 362
#     4   9  16  36  60  85 112 150 205 238 287 357
#     4  12  24  38  56  96 128 154 196 252 310 354
#     4  11  22  37  62  95 119 154 201 258 299 349
#
# _framework density 19.540597000000002
#
# number of rings (size 3 to 8) (size 9 to 14) (size 15 to 20)
#    0.000    2.182    3.636    1.636    2.545    2.909 
#    0.000    0.000    0.000    0.000    0.000    0.000 
#    0.000    0.000    0.000    0.000    0.000    0.000 
#
# Total GULP energy -122629.501058 kJ/mol
# GULP energy per Si atom -5574.068230 kJ/mol
# Density = 1.949612 g / cm^3
# Si number density = 19.540597 Si / 1000 Ang^3
#
#
#
# Elastic Constant Matrix: (Units=GPa)
#
#
# Indices 1 2 3 4 5 6 
#
# 1 186.5788 43.6659 51.1270 0.0000 0.0000 0.0000
# 2 43.6659 21.3673 17.2323 0.0000 0.0000 0.0000
# 3 51.1270 17.2323 63.3477 0.0000 0.0000 0.0000
# 4 0.0000 0.0000 0.0000 11.9314 0.0000 0.0000
# 5 0.0000 0.0000 0.0000 0.0000 12.5972 0.0000
# 6 0.0000 0.0000 0.0000 0.0000 0.0000 28.8886
#
#
#
# Elastic Compliance Matrix: (Units=1/GPa)
#
#
# Indices 1 2 3 4 5 6 
#
# 1 0.010843 -0.019345 -0.003489 0.000000 0.000000 0.000000
# 2 -0.019345 0.094467 -0.010084 0.000000 0.000000 0.000000
# 3 -0.003489 -0.010084 0.021345 0.000000 0.000000 0.000000
# 4 0.000000 0.000000 0.000000 0.083812 0.000000 0.000000
# 5 0.000000 0.000000 0.000000 0.000000 0.079383 0.000000
# 6 0.000000 0.000000 0.000000 0.000000 0.000000 0.034616
#
#
# Mechanical properties :
#
#
# Convention : Reuss Voigt Hill
#
# Bulk Modulus (GPa) = 16.44253 55.03827 35.74040
# Shear Modulus (GPa) = 12.17804 21.30135 16.73970
#
# Velocity S-wave (km/s) = 2.49914 3.30526 2.93006
# Velocity P-wave (km/s) = 4.09395 6.54168 5.45683
#
# Compressibility (1/GPa) = 0.06081788
#
# Stress axis : x y z
#
# Youngs Moduli (GPa) = 92.22413 10.58575 46.84938
#
# Poissons Ratio (x) = 0.20478 0.16345
# Poissons Ratio (y) = 1.78409 0.47245
# Poissons Ratio (z) = 0.32176 0.10675
#
# Static dielectric constant tensor:
#      x y z
#    x 1.726170 0.000000 0.000000 
#    y 0.000000 1.674010 0.000000 
#    z 0.000000 0.000000 1.701520 
# 
# From -- ./inp_files/6376.got.cif
#   From: 2010.05.17/outbox.cif.g08.bks.cpg/sg40_4_cif.got.tgz:6376.got - 2010.06.03 18:35:42.
