data_PCOD9364492
_publ_section_title
;
Structure prediction by ZEFSAII (Michael W. Deem and Ramdas Pophale) SiO2 
 PCOD9364492
Probable space group: A M A 2
;
_chemical_formula_sum "Si O2"
_cell_formula_units_Z 56
_cell_length_a 17.381438
_cell_length_b 13.592150
_cell_length_c 11.186364
_cell_angle_alpha 90.000000
_cell_angle_beta 90.000000
_cell_angle_gamma 90.000000
_cell_volume 2642.790940
_symmetry_space_group_name_H-M "A M A 2"
_symmetry_group_IT_number 40
_symmetry_cell_setting 'orthorhombic'
loop_
_space_group_symop_operation_xyz
x,y,z
-x,-y,z
1/2-x,y,z
1/2+x,-y,z
x,1/2+y,1/2+z
-x,1/2-y,1/2+z
1/2-x,1/2+y,1/2+z
1/2+x,1/2-y,1/2+z
loop_
_atom_site_type_symbol
_atom_site_label
_atom_site_fract_x
_atom_site_fract_y
_atom_site_fract_z
Si Si1 0.339735 0.096165 0.776520
Si Si2 0.160520 0.173082 0.206588
Si Si3 0.578593 0.462892 0.048746
Si Si4 0.925879 0.248849 0.926620
Si Si5 0.446564 0.593120 0.491555
Si Si6 0.662457 0.536174 0.834689
Si Si7 0.341488 0.802320 0.160960
O O1 0.250000 0.092006 0.806175
O O2 0.357755 0.044728 0.650806
O O3 0.390608 0.058152 0.885001
O O4 0.362086 0.208424 0.741969
O O5 0.250000 0.202546 0.177964
O O6 0.113744 0.245174 0.296329
O O7 0.167412 0.073936 0.285418
O O8 0.107495 0.141658 0.094174
O O9 0.500000 0.500000 0.105134
O O10 0.562797 0.359373 0.980546
O O11 0.608821 0.537073 0.948836
O O12 0.000023 0.179822 0.937283
O O13 0.869328 0.204636 0.026608
O O14 0.500000 0.500000 0.529377
O O15 0.750000 0.568013 0.864123
O O16 0.629287 0.602712 0.729686
O O17 0.250000 0.805958 0.156809
#
# Coordination Sequence:
#
# PCOD9364492 Si02
#       7
#     8   8   8   8   8   8   8
#     4  10  22  41  61  84 127 177 218 264 330 402
#     4  10  22  42  66  93 132 175 222 273 333 407
#     4  10  21  36  62  92 127 163 211 271 331 386
#     4  10  23  38  64  94 131 164 215 276 337 393
#     4  12  26  42  65  94 133 175 224 276 344 400
#     4   9  18  34  61  94 124 162 214 265 319 390
#     4   9  18  35  62  92 126 167 213 263 327 396
#
# _framework density 21.189719
#
# number of rings (size 3 to 8) (size 9 to 14) (size 15 to 20)
#    0.000    2.000    0.000    2.571    6.000    6.857 
#    0.000    2.143    0.000    0.000    0.000    0.000 
#    0.000    0.000    0.000    0.000    0.000    0.000 
#
# Total GULP energy -156224.608962 kJ/mol
# GULP energy per Si atom -5579.450320 kJ/mol
# Density = 2.114149 g / cm^3
# Si number density = 21.189719 Si / 1000 Ang^3
#
#
#
# Elastic Constant Matrix: (Units=GPa)
#
#
# Indices 1 2 3 4 5 6 
#
# 1 96.2664 24.8954 59.2573 0.0000 0.0000 0.0000
# 2 24.8954 26.8655 29.9789 0.0000 0.0000 0.0000
# 3 59.2573 29.9789 90.5957 0.0000 0.0000 0.0000
# 4 0.0000 0.0000 0.0000 26.8396 0.0000 0.0000
# 5 0.0000 0.0000 0.0000 0.0000 32.4043 0.0000
# 6 0.0000 0.0000 0.0000 0.0000 0.0000 10.3889
#
#
#
# Elastic Compliance Matrix: (Units=1/GPa)
#
#
# Indices 1 2 3 4 5 6 
#
# 1 0.017903 -0.005585 -0.009862 0.000000 0.000000 0.000000
# 2 -0.005585 0.060756 -0.016451 0.000000 0.000000 0.000000
# 3 -0.009862 -0.016451 0.022932 0.000000 0.000000 0.000000
# 4 0.000000 0.000000 0.000000 0.037258 0.000000 0.000000
# 5 0.000000 0.000000 0.000000 0.000000 0.030860 0.000000
# 6 0.000000 0.000000 0.000000 0.000000 0.000000 0.096256
#
#
# Mechanical properties :
#
#
# Convention : Reuss Voigt Hill
#
# Bulk Modulus (GPa) = 26.45901 49.11010 37.78455
# Shear Modulus (GPa) = 14.60447 20.56629 17.58538
#
# Velocity S-wave (km/s) = 2.62816 3.11879 2.88393
# Velocity P-wave (km/s) = 4.66084 6.01630 5.38142
#
# Compressibility (1/GPa) = 0.03779431
#
# Stress axis : x y z
#
# Youngs Moduli (GPa) = 55.85780 16.45922 43.60661
#
# Poissons Ratio (x) = 0.09193 0.43003
# Poissons Ratio (y) = 0.31198 0.71739
# Poissons Ratio (z) = 0.55085 0.27078
#
# Static dielectric constant tensor:
#      x y z
#    x 1.763770 0.000000 0.000000 
#    y 0.000000 1.818730 0.000000 
#    z 0.000000 0.000000 1.726580 
# 
# From -- ./inp_files/12216.got.cif
#   From: 2010.05.17/outbox.cif.g08.bks.cpg/sg40_7_cif.got.tgz:12216.got - 2010.06.03 18:35:42.
