data_PCOD9364473
_publ_section_title
;
Structure prediction by ZEFSAII (Michael W. Deem and Ramdas Pophale) SiO2 
 PCOD9364473
Probable space group: A M A 2
;
_chemical_formula_sum "Si O2"
_cell_formula_units_Z 40
_cell_length_a 8.679888
_cell_length_b 9.624063
_cell_length_c 26.257930
_cell_angle_alpha 90.000000
_cell_angle_beta 90.000000
_cell_angle_gamma 90.000000
_cell_volume 2193.476899
_symmetry_space_group_name_H-M "A M A 2"
_symmetry_group_IT_number 40
_symmetry_cell_setting 'orthorhombic'
loop_
_space_group_symop_operation_xyz
x,y,z
-x,-y,z
1/2-x,y,z
1/2+x,-y,z
x,1/2+y,1/2+z
-x,1/2-y,1/2+z
1/2-x,1/2+y,1/2+z
1/2+x,1/2-y,1/2+z
loop_
_atom_site_type_symbol
_atom_site_label
_atom_site_fract_x
_atom_site_fract_y
_atom_site_fract_z
Si Si1 0.434355 0.844235 0.304550
Si Si2 0.565507 0.153978 0.599760
Si Si3 0.564864 0.346242 0.695116
Si Si4 0.064752 0.844432 0.894714
Si Si5 0.065503 0.654889 0.991124
O O1 0.250000 0.849957 0.305338
O O2 0.493087 0.798832 0.248727
O O3 0.496693 0.740751 0.347281
O O4 0.500000 0.000000 0.313259
O O5 0.750000 0.147871 0.595846
O O6 0.524116 0.249585 0.647538
O O7 0.498502 0.203467 0.545709
O O8 0.500000 0.000000 0.607826
O O9 0.500000 0.500000 0.685897
O O10 0.750000 0.351272 0.700163
O O11 0.250000 0.848059 0.890829
O O12 0.023219 0.759091 0.945820
O O13 0.000000 0.000000 0.896189
O O14 0.250000 0.645055 0.993825
O O15 0.000000 0.500000 0.981562
#
# Coordination Sequence:
#
# PCOD9364473 Si02
#       5
#     8   8   8   8   8
#     4  11  22  38  61  85 112 149 189 232 278 333
#     4  10  21  36  57  83 112 146 185 228 275 328
#     4  10  21  37  57  83 113 147 187 230 276 330
#     4  11  24  40  58  84 115 148 186 232 284 335
#     4  10  21  37  59  83 110 146 187 228 274 330
#
# _framework density 18.235889
#
# number of rings (size 3 to 8) (size 9 to 14) (size 15 to 20)
#    0.000    1.600    0.000    7.200    0.000    9.600 
#    0.000    6.000    0.000    0.000    0.000    0.000 
#    0.000    0.000    0.000    0.000    0.000    0.000 
#
# Total GULP energy -111776.253872 kJ/mol
# GULP energy per Si atom -5588.812694 kJ/mol
# Density = 1.819438 g / cm^3
# Si number density = 18.235889 Si / 1000 Ang^3
#
#
#
# Elastic Constant Matrix: (Units=GPa)
#
#
# Indices 1 2 3 4 5 6 
#
# 1 95.8415 57.6177 85.9134 0.0000 0.0000 0.0000
# 2 57.6177 106.1698 129.0055 0.0000 0.0000 0.0000
# 3 85.9134 129.0055 216.6407 0.0000 0.0000 0.0000
# 4 0.0000 0.0000 0.0000 30.7727 0.0000 0.0000
# 5 0.0000 0.0000 0.0000 0.0000 48.8190 0.0000
# 6 0.0000 0.0000 0.0000 0.0000 0.0000 8.7788
#
#
#
# Elastic Compliance Matrix: (Units=1/GPa)
#
#
# Indices 1 2 3 4 5 6 
#
# 1 0.016570 -0.003646 -0.004400 0.000000 0.000000 0.000000
# 2 -0.003646 0.034875 -0.019321 0.000000 0.000000 0.000000
# 3 -0.004400 -0.019321 0.017866 0.000000 0.000000 0.000000
# 4 0.000000 0.000000 0.000000 0.032496 0.000000 0.000000
# 5 0.000000 0.000000 0.000000 0.000000 0.020484 0.000000
# 6 0.000000 0.000000 0.000000 0.000000 0.000000 0.113911
#
#
# Mechanical properties :
#
#
# Convention : Reuss Voigt Hill
#
# Bulk Modulus (GPa) = 68.60455 107.08056 87.84255
# Shear Modulus (GPa) = 16.90358 27.41513 22.15935
#
# Velocity S-wave (km/s) = 3.04787 3.88153 3.48968
# Velocity P-wave (km/s) = 7.07731 8.88456 8.03193
#
# Compressibility (1/GPa) = 0.01457629
#
# Stress axis : x y z
#
# Youngs Moduli (GPa) = 60.34982 28.67423 55.97116
#
# Poissons Ratio (x) = 0.10454 0.24628
# Poissons Ratio (y) = 0.22003 1.08143
# Poissons Ratio (z) = 0.26555 0.55402
#
# Static dielectric constant tensor:
#      x y z
#    x 1.611950 0.000000 0.000000 
#    y 0.000000 1.592820 0.000000 
#    z 0.000000 0.000000 1.621860 
# 
# From -- ./inp_files/23822.got.cif
#   From: 2010.05.17/outbox.cif.g08.bks.cpg/sg40_12_cif.got.tgz:23822.got - 2010.06.03 18:35:42.
