data_PCOD9364730
_publ_section_title
;
Structure prediction by ZEFSAII (Michael W. Deem and Ramdas Pophale) SiO2 
 PCOD9364730
Probable space group: A M A 2
;
_chemical_formula_sum "Si O2"
_cell_formula_units_Z 48
_cell_length_a 9.861554
_cell_length_b 7.725543
_cell_length_c 30.540523
_cell_angle_alpha 90.000000
_cell_angle_beta 90.000000
_cell_angle_gamma 90.000000
_cell_volume 2326.755994
_symmetry_space_group_name_H-M "A M A 2"
_symmetry_group_IT_number 40
_symmetry_cell_setting 'orthorhombic'
loop_
_space_group_symop_operation_xyz
x,y,z
-x,-y,z
1/2-x,y,z
1/2+x,-y,z
x,1/2+y,1/2+z
-x,1/2-y,1/2+z
1/2-x,1/2+y,1/2+z
1/2+x,1/2-y,1/2+z
loop_
_atom_site_type_symbol
_atom_site_label
_atom_site_fract_x
_atom_site_fract_y
_atom_site_fract_z
Si Si1 0.400500 0.350452 0.383100
Si Si2 0.500000 0.000000 0.599878
Si Si3 0.750000 0.012538 0.661538
Si Si4 0.083484 0.161362 0.044304
Si Si5 0.750000 0.839072 0.219695
Si Si6 0.589243 0.330429 0.972283
Si Si7 0.519097 0.798200 0.289959
Si Si8 0.250000 0.752293 0.240305
O O1 0.500000 0.500000 0.396346
O O2 0.250000 0.422569 0.383907
O O3 0.409087 0.205744 0.420455
O O4 0.432283 0.289341 0.334240
O O5 0.376990 0.038280 0.632135
O O6 0.450614 0.836057 0.571388
O O7 0.750000 0.216185 0.676765
O O8 0.750000 0.895102 0.704352
O O9 0.250000 0.139951 0.040591
O O10 0.000000 0.000000 0.065207
O O11 0.999198 0.190586 0.999054
O O12 0.622398 0.788137 0.249634
O O13 0.750000 0.051621 0.218670
O O14 0.500000 0.500000 0.979920
O O15 0.750000 0.338915 0.986327
O O16 0.378556 0.730938 0.271487
O O17 0.500000 0.000000 0.300480
#
# Coordination Sequence:
#
# PCOD9364730 Si02
#       8
#     8   4   4   8   4   8   8   4
#     4  11  25  40  60  97 138 180 234 291 339 415
#     4  12  28  48  72 108 146 182 240 306 364 440
#     4  12  26  44  72 102 138 182 238 298 362 432
#     4  12  27  48  78 109 146 193 237 296 366 439
#     4  10  22  42  66  93 139 179 232 290 347 422
#     4  11  24  44  72 103 144 187 236 292 355 425
#     4  10  21  40  62  93 133 181 229 286 346 412
#     4  10  24  40  68  99 131 185 236 288 359 424
#
# _framework density 20.629579
#
# number of rings (size 3 to 8) (size 9 to 14) (size 15 to 20)
#    0.000    1.000    2.500    3.000    5.833    4.000 
#    0.000    0.000    0.000    0.000    0.000    0.000 
#    0.000    0.000    0.000    0.000    0.000    0.000 
#
# Total GULP energy -133933.468713 kJ/mol
# GULP energy per Si atom -5580.561196 kJ/mol
# Density = 2.058263 g / cm^3
# Si number density = 20.629579 Si / 1000 Ang^3
#
#
#
# Elastic Constant Matrix: (Units=GPa)
#
#
# Indices 1 2 3 4 5 6 
#
# 1 195.2994 41.7425 26.4391 0.0000 0.0000 0.0000
# 2 41.7425 79.5774 16.8332 0.0000 0.0000 0.0000
# 3 26.4391 16.8332 52.5497 0.0000 0.0000 0.0000
# 4 0.0000 0.0000 0.0000 19.9954 0.0000 0.0000
# 5 0.0000 0.0000 0.0000 0.0000 45.9629 0.0000
# 6 0.0000 0.0000 0.0000 0.0000 0.0000 33.6229
#
#
#
# Elastic Compliance Matrix: (Units=1/GPa)
#
#
# Indices 1 2 3 4 5 6 
#
# 1 0.005985 -0.002685 -0.002151 0.000000 0.000000 0.000000
# 2 -0.002685 0.014684 -0.003353 0.000000 0.000000 0.000000
# 3 -0.002151 -0.003353 0.021186 0.000000 0.000000 0.000000
# 4 0.000000 0.000000 0.000000 0.050011 0.000000 0.000000
# 5 0.000000 0.000000 0.000000 0.000000 0.021757 0.000000
# 6 0.000000 0.000000 0.000000 0.000000 0.000000 0.029742
#
#
# Mechanical properties :
#
#
# Convention : Reuss Voigt Hill
#
# Bulk Modulus (GPa) = 39.25060 55.27291 47.26176
# Shear Modulus (GPa) = 29.72022 36.07701 32.89861
#
# Velocity S-wave (km/s) = 3.79972 4.18640 3.99774
# Velocity P-wave (km/s) = 6.19017 7.08655 6.65347
#
# Compressibility (1/GPa) = 0.02547732
#
# Stress axis : x y z
#
# Youngs Moduli (GPa) = 167.07352 68.10206 47.20074
#
# Poissons Ratio (x) = 0.18282 0.10155
# Poissons Ratio (y) = 0.44852 0.15826
# Poissons Ratio (z) = 0.35945 0.22835
#
# Static dielectric constant tensor:
#      x y z
#    x 1.696960 0.000000 0.000000 
#    y 0.000000 1.792030 0.000000 
#    z 0.000000 0.000000 1.729820 
# 
# From -- ./inp_files/26233.got.cif
#   From: 2010.05.17/outbox.cif.g08.bks.cpg/sg40_14_cif.got.tgz:26233.got - 2010.06.03 18:35:42.
