data_PCOD9364816
_publ_section_title
;
Structure prediction by ZEFSAII (Michael W. Deem and Ramdas Pophale) SiO2 
 PCOD9364816
Probable space group: A M A 2
;
_chemical_formula_sum "Si O2"
_cell_formula_units_Z 64
_cell_length_a 17.631170
_cell_length_b 15.317222
_cell_length_c 12.138873
_cell_angle_alpha 90.000000
_cell_angle_beta 90.000000
_cell_angle_gamma 90.000000
_cell_volume 3278.230658
_symmetry_space_group_name_H-M "A M A 2"
_symmetry_group_IT_number 40
_symmetry_cell_setting 'orthorhombic'
loop_
_space_group_symop_operation_xyz
x,y,z
-x,-y,z
1/2-x,y,z
1/2+x,-y,z
x,1/2+y,1/2+z
-x,1/2-y,1/2+z
1/2-x,1/2+y,1/2+z
1/2+x,1/2-y,1/2+z
loop_
_atom_site_type_symbol
_atom_site_label
_atom_site_fract_x
_atom_site_fract_y
_atom_site_fract_z
Si Si1 0.661452 0.272956 0.439720
Si Si2 0.836087 0.478737 0.447935
Si Si3 0.415632 0.781507 0.658110
Si Si4 0.341132 0.621050 0.038929
Si Si5 0.659361 0.034233 0.699012
Si Si6 0.409436 0.759062 0.199981
Si Si7 0.584364 0.035913 0.157543
Si Si8 0.840433 0.880373 0.285974
O O1 0.750000 0.243196 0.444822
O O2 0.661295 0.375488 0.468668
O O3 0.608102 0.227538 0.529880
O O4 0.628015 0.263011 0.317534
O O5 0.750000 0.509488 0.470338
O O6 0.851862 0.494060 0.319932
O O7 0.892805 0.525524 0.530057
O O8 0.383305 0.874502 0.694271
O O9 0.504120 0.772691 0.685030
O O10 0.375630 0.701228 0.721196
O O11 0.250000 0.617341 0.037458
O O12 0.366889 0.536092 0.108152
O O13 0.364763 0.707532 0.104653
O O14 0.367727 0.620022 0.912799
O O15 0.750000 0.048589 0.684132
O O16 0.408330 0.863400 0.188549
O O17 0.500000 0.000000 0.174421
O O18 0.637329 0.970887 0.227454
O O19 0.750000 0.871055 0.284355
#
# Coordination Sequence:
#
# PCOD9364816 Si02
#       8
#     8   8   8   8   8   8   8   8
#     4  11  23  45  71  97 133 181 232 275 325 407
#     4  10  21  41  69  94 127 169 221 276 324 389
#     4  12  26  42  67  99 137 175 222 275 336 402
#     4  10  24  46  68  97 134 171 221 278 332 401
#     4  10  22  43  67  96 129 170 222 273 326 399
#     4  12  27  43  68 100 139 175 218 281 345 397
#     4  12  25  44  64  95 136 174 217 277 333 398
#     4  11  24  45  70  95 132 177 222 272 331 401
#
# _framework density 19.522727
#
# number of rings (size 3 to 8) (size 9 to 14) (size 15 to 20)
#    0.000    1.000    3.750    1.875    5.250    3.500 
#    0.000    0.000    0.000    0.000    0.000    0.000 
#    0.000    0.000    0.000    0.000    0.000    0.000 
#
# Total GULP energy -178878.458967 kJ/mol
# GULP energy per Si atom -5589.951843 kJ/mol
# Density = 1.947829 g / cm^3
# Si number density = 19.522727 Si / 1000 Ang^3
#
#
#
# Elastic Constant Matrix: (Units=GPa)
#
#
# Indices 1 2 3 4 5 6 
#
# 1 35.8972 -1.0029 23.4895 0.0000 0.0000 0.0000
# 2 -1.0029 96.2874 9.9867 0.0000 0.0000 0.0000
# 3 23.4895 9.9867 88.3832 0.0000 0.0000 0.0000
# 4 0.0000 0.0000 0.0000 17.8792 0.0000 0.0000
# 5 0.0000 0.0000 0.0000 0.0000 6.0660 0.0000
# 6 0.0000 0.0000 0.0000 0.0000 0.0000 34.0149
#
#
#
# Elastic Compliance Matrix: (Units=1/GPa)
#
#
# Indices 1 2 3 4 5 6 
#
# 1 0.033882 0.001302 -0.009152 0.000000 0.000000 0.000000
# 2 0.001302 0.010559 -0.001539 0.000000 0.000000 0.000000
# 3 -0.009152 -0.001539 0.013921 0.000000 0.000000 0.000000
# 4 0.000000 0.000000 0.000000 0.055931 0.000000 0.000000
# 5 0.000000 0.000000 0.000000 0.000000 0.164854 0.000000
# 6 0.000000 0.000000 0.000000 0.000000 0.000000 0.029399
#
#
# Mechanical properties :
#
#
# Convention : Reuss Voigt Hill
#
# Bulk Modulus (GPa) = 25.26292 31.72383 28.49337
# Shear Modulus (GPa) = 14.68353 24.13166 19.40760
#
# Velocity S-wave (km/s) = 2.74546 3.51961 3.15636
# Velocity P-wave (km/s) = 4.79776 5.72729 5.28300
#
# Compressibility (1/GPa) = 0.03958371
#
# Stress axis : x y z
#
# Youngs Moduli (GPa) = 29.51389 94.70795 71.83601
#
# Poissons Ratio (x) = -0.12332 0.65744
# Poissons Ratio (y) = -0.03843 0.11057
# Poissons Ratio (z) = 0.27011 0.14577
#
# Static dielectric constant tensor:
#      x y z
#    x 1.765000 0.000000 0.000000 
#    y 0.000000 1.647770 0.000000 
#    z 0.000000 0.000000 1.684320 
# 
# From -- ./inp_files/13108.got.cif
#   From: 2010.05.17/outbox.cif.g08.bks.cpg/sg40_7_cif.got.tgz:13108.got - 2010.06.03 18:35:42.
