data_PCOD9364361
_publ_section_title
;
Structure prediction by ZEFSAII (Michael W. Deem and Ramdas Pophale) SiO2 
 PCOD9364361
Probable space group: A M A 2
;
_chemical_formula_sum "Si O2"
_cell_formula_units_Z 56
_cell_length_a 19.515074
_cell_length_b 15.290703
_cell_length_c 9.916805
_cell_angle_alpha 90.000000
_cell_angle_beta 90.000000
_cell_angle_gamma 90.000000
_cell_volume 2959.166684
_symmetry_space_group_name_H-M "A M A 2"
_symmetry_group_IT_number 40
_symmetry_cell_setting 'orthorhombic'
loop_
_space_group_symop_operation_xyz
x,y,z
-x,-y,z
1/2-x,y,z
1/2+x,-y,z
x,1/2+y,1/2+z
-x,1/2-y,1/2+z
1/2-x,1/2+y,1/2+z
1/2+x,1/2-y,1/2+z
loop_
_atom_site_type_symbol
_atom_site_label
_atom_site_fract_x
_atom_site_fract_y
_atom_site_fract_z
Si Si1 0.574177 0.472142 0.397290
Si Si2 0.828383 0.135130 0.951086
Si Si3 0.328041 0.185288 0.977108
Si Si4 0.472355 0.634848 0.146173
Si Si5 0.399208 0.250876 0.236859
Si Si6 0.002582 0.100455 0.334100
Si Si7 0.124349 0.791036 0.224728
O O1 0.500000 0.500000 0.456214
O O2 0.623789 0.554092 0.411525
O O3 0.614756 0.390616 0.461818
O O4 0.557221 0.439146 0.245540
O O5 0.750000 0.116255 0.918112
O O6 0.855756 0.216338 0.863422
O O7 0.835985 0.157505 0.108910
O O8 0.250000 0.152409 0.990932
O O9 0.351162 0.239779 0.107354
O O10 0.333297 0.244814 0.843255
O O11 0.541630 0.677317 0.207134
O O12 0.418158 0.714080 0.150723
O O13 0.485880 0.605011 0.994874
O O14 0.438172 0.160045 0.267958
O O15 0.931564 0.146668 0.294657
O O16 0.000000 0.000000 0.290842
#
# Coordination Sequence:
#
# PCOD9364361 Si02
#       7
#     8   8   8   8   8   8   8
#     4  11  24  39  68  97 128 163 215 268 319 379
#     4  12  25  43  66  96 132 171 214 264 325 392
#     4  11  24  43  65  92 132 173 211 261 326 394
#     4  10  20  41  64  96 127 163 217 268 320 377
#     4  11  23  40  63  94 126 171 213 264 322 382
#     4  11  23  37  64  97 128 162 215 273 321 368
#     4  10  23  40  65  93 128 172 211 262 325 385
#
# _framework density 18.924247000000001
#
# number of rings (size 3 to 8) (size 9 to 14) (size 15 to 20)
#    0.000    1.143    4.286    1.714    6.000    0.000 
#    0.000    0.000    0.000    0.000    0.000    0.000 
#    0.000    0.000    0.000    0.000    0.000    0.000 
#
# Total GULP energy -156403.675012 kJ/mol
# GULP energy per Si atom -5585.845536 kJ/mol
# Density = 1.888117 g / cm^3
# Si number density = 18.924247 Si / 1000 Ang^3
#
#
#
# Elastic Constant Matrix: (Units=GPa)
#
#
# Indices 1 2 3 4 5 6 
#
# 1 135.2879 41.3679 40.2822 0.0000 0.0000 0.0000
# 2 41.3679 101.8542 35.5176 0.0000 0.0000 0.0000
# 3 40.2822 35.5176 119.2187 0.0000 0.0000 0.0000
# 4 0.0000 0.0000 0.0000 21.2597 0.0000 0.0000
# 5 0.0000 0.0000 0.0000 0.0000 6.8594 0.0000
# 6 0.0000 0.0000 0.0000 0.0000 0.0000 12.0366
#
#
#
# Elastic Compliance Matrix: (Units=1/GPa)
#
#
# Indices 1 2 3 4 5 6 
#
# 1 0.008910 -0.002867 -0.002157 0.000000 0.000000 0.000000
# 2 -0.002867 0.011879 -0.002570 0.000000 0.000000 0.000000
# 3 -0.002157 -0.002570 0.009882 0.000000 0.000000 0.000000
# 4 0.000000 0.000000 0.000000 0.047037 0.000000 0.000000
# 5 0.000000 0.000000 0.000000 0.000000 0.145786 0.000000
# 6 0.000000 0.000000 0.000000 0.000000 0.000000 0.083080
#
#
# Mechanical properties :
#
#
# Convention : Reuss Voigt Hill
#
# Bulk Modulus (GPa) = 64.58293 65.63292 65.10793
# Shear Modulus (GPa) = 15.29411 23.97734 19.63573
#
# Velocity S-wave (km/s) = 2.84593 3.56338 3.22467
# Velocity P-wave (km/s) = 6.70822 7.18940 6.95297
#
# Compressibility (1/GPa) = 0.01548397
#
# Stress axis : x y z
#
# Youngs Moduli (GPa) = 112.22833 84.18505 101.19072
#
# Poissons Ratio (x) = 0.24135 0.21823
# Poissons Ratio (y) = 0.32175 0.26008
# Poissons Ratio (z) = 0.24203 0.21637
#
# Static dielectric constant tensor:
#      x y z
#    x 1.634230 0.000000 0.000000 
#    y 0.000000 1.658980 0.000000 
#    z 0.000000 0.000000 1.649810 
# 
# From -- ./inp_files/8304.got.cif
#   From: 2010.05.17/outbox.cif.g08.bks.cpg/sg40_5_cif.got.tgz:8304.got - 2010.06.03 18:35:42.
