data_PCOD9364043
_publ_section_title
;
Structure prediction by ZEFSAII (Michael W. Deem and Ramdas Pophale) SiO2 
 PCOD9364043
Probable space group: A M A 2
;
_chemical_formula_sum "Si O2"
_cell_formula_units_Z 64
_cell_length_a 8.767511
_cell_length_b 15.800758
_cell_length_c 24.218702
_cell_angle_alpha 90.000000
_cell_angle_beta 90.000000
_cell_angle_gamma 90.000000
_cell_volume 3355.097184
_symmetry_space_group_name_H-M "A M A 2"
_symmetry_group_IT_number 40
_symmetry_cell_setting 'orthorhombic'
loop_
_space_group_symop_operation_xyz
x,y,z
-x,-y,z
1/2-x,y,z
1/2+x,-y,z
x,1/2+y,1/2+z
-x,1/2-y,1/2+z
1/2-x,1/2+y,1/2+z
1/2+x,1/2-y,1/2+z
loop_
_atom_site_type_symbol
_atom_site_label
_atom_site_fract_x
_atom_site_fract_y
_atom_site_fract_z
Si Si1 0.067821 0.590756 0.504910
Si Si2 0.566365 0.747039 0.313605
Si Si3 0.566724 0.409905 0.743248
Si Si4 0.432794 0.747529 0.942993
Si Si5 0.566877 0.337660 0.624796
Si Si6 0.067648 0.649944 0.123412
Si Si7 0.932377 0.409363 0.246353
Si Si8 0.068241 0.410722 0.009528
O O1 0.250000 0.590779 0.497925
O O2 0.033919 0.610635 0.569289
O O3 0.000000 0.500000 0.489585
O O4 0.995630 0.666864 0.470195
O O5 0.750000 0.740525 0.308188
O O6 0.517146 0.832069 0.281730
O O7 0.529454 0.752941 0.378142
O O8 0.493819 0.665684 0.284649
O O9 0.500000 0.500000 0.759700
O O10 0.750000 0.414601 0.745506
O O11 0.522941 0.387050 0.680286
O O12 0.250000 0.744078 0.949308
O O13 0.505161 0.667387 0.973931
O O14 0.750000 0.321928 0.626712
O O15 0.482585 0.247906 0.622860
O O16 0.250000 0.643248 0.116561
O O17 0.024332 0.611493 0.182792
O O18 0.985930 0.604780 0.072408
O O19 0.750000 0.411889 0.249309
O O20 0.000000 0.500000 0.262194
O O21 0.250000 0.412472 0.007219
O O22 0.000000 0.500000 0.990182
#
# Coordination Sequence:
#
# PCOD9364043 Si02
#       8
#     8   8   8   8   8   8   8   8
#     4  11  23  39  62  93 124 164 205 249 310 367
#     4  10  23  43  65  88 121 163 206 255 308 360
#     4  10  21  38  61  90 123 160 198 245 299 360
#     4  11  24  43  65  91 122 161 210 261 312 365
#     4  10  20  36  61  90 124 161 198 245 307 367
#     4  11  22  37  62  95 127 162 202 249 309 371
#     4  11  24  40  63  94 125 162 204 251 307 367
#     4  12  25  42  65  93 126 165 206 253 310 371
#
# _framework density 19.075454000000001
#
# number of rings (size 3 to 8) (size 9 to 14) (size 15 to 20)
#    0.000    1.250    2.500    3.375    0.000    6.000 
#    0.000    1.250    0.000    0.000    0.000    0.000 
#    0.000    0.000    0.000    0.000    0.000    0.000 
#
# Total GULP energy -178982.014085 kJ/mol
# GULP energy per Si atom -5593.187940 kJ/mol
# Density = 1.903204 g / cm^3
# Si number density = 19.075454 Si / 1000 Ang^3
#
#
#
# Elastic Constant Matrix: (Units=GPa)
#
#
# Indices 1 2 3 4 5 6 
#
# 1 60.5366 60.7059 60.2513 0.0000 0.0000 0.0000
# 2 60.7059 196.3279 80.8841 0.0000 0.0000 0.0000
# 3 60.2513 80.8841 136.3487 0.0000 0.0000 0.0000
# 4 0.0000 0.0000 0.0000 -4.4097 0.0000 0.0000
# 5 0.0000 0.0000 0.0000 0.0000 25.2525 0.0000
# 6 0.0000 0.0000 0.0000 0.0000 0.0000 32.3889
#
#
#
# Elastic Compliance Matrix: (Units=1/GPa)
#
#
# Indices 1 2 3 4 5 6 
#
# 1 0.033657 -0.005664 -0.011513 0.000000 0.000000 0.000000
# 2 -0.005664 0.007694 -0.002061 0.000000 0.000000 0.000000
# 3 -0.011513 -0.002061 0.013645 0.000000 0.000000 0.000000
# 4 0.000000 0.000000 0.000000 -0.226772 0.000000 0.000000
# 5 0.000000 0.000000 0.000000 0.000000 0.039600 0.000000
# 6 0.000000 0.000000 0.000000 0.000000 0.000000 0.030875
#
#
# Mechanical properties :
#
#
# Convention : Reuss Voigt Hill
#
# Bulk Modulus (GPa) = 60.53505 88.54398 74.53951
# Shear Modulus (GPa) = -87.23373 23.40444 -31.91464
#
# Velocity S-wave (km/s) = -6.76980 3.50657 -4.09476
# Velocity P-wave (km/s) = 5.41327 7.93179 4.09938
#
# Compressibility (1/GPa) = 0.01651935
#
# Stress axis : x y z
#
# Youngs Moduli (GPa) = 29.71109 129.96934 73.28957
#
# Poissons Ratio (x) = 0.73614 0.84378
# Poissons Ratio (y) = 0.16828 0.15108
# Poissons Ratio (z) = 0.34206 0.26792
#
# Static dielectric constant tensor:
#      x y z
#    x 1.641860 0.000000 0.000000 
#    y 0.000000 1.629370 0.000000 
#    z 0.000000 0.000000 1.652840 
# 
# From -- ./inp_files/24247.got.cif
#   From: 2010.05.17/outbox.cif.g08.bks.cpg/sg40_13_cif.got.tgz:24247.got - 2010.06.03 18:35:42.
