data_PCOD9364365
_publ_section_title
;
Structure prediction by ZEFSAII (Michael W. Deem and Ramdas Pophale) SiO2 
 PCOD9364365
Probable space group: A M A 2
;
_chemical_formula_sum "Si O2"
_cell_formula_units_Z 60
_cell_length_a 9.477088
_cell_length_b 17.683849
_cell_length_c 17.021595
_cell_angle_alpha 90.000000
_cell_angle_beta 90.000000
_cell_angle_gamma 90.000000
_cell_volume 2852.672820
_symmetry_space_group_name_H-M "A M A 2"
_symmetry_group_IT_number 40
_symmetry_cell_setting 'orthorhombic'
loop_
_space_group_symop_operation_xyz
x,y,z
-x,-y,z
1/2-x,y,z
1/2+x,-y,z
x,1/2+y,1/2+z
-x,1/2-y,1/2+z
1/2-x,1/2+y,1/2+z
1/2+x,1/2-y,1/2+z
loop_
_atom_site_type_symbol
_atom_site_label
_atom_site_fract_x
_atom_site_fract_y
_atom_site_fract_z
Si Si1 0.083217 0.427638 0.366880
Si Si2 0.585839 0.925279 0.587588
Si Si3 0.906592 0.284671 0.968787
Si Si4 0.082222 0.142317 0.008638
Si Si5 0.750000 0.525473 0.885441
Si Si6 0.583689 0.667414 0.215318
Si Si7 0.479439 0.604958 0.849924
Si Si8 0.918910 0.343338 0.688456
O O1 0.250000 0.442693 0.376162
O O2 0.067375 0.358849 0.305337
O O3 0.000000 0.500000 0.333626
O O4 0.007670 0.407754 0.448629
O O5 0.750000 0.945652 0.601271
O O6 0.584948 0.860037 0.521852
O O7 0.510869 0.888027 0.662562
O O8 0.500000 0.000000 0.563551
O O9 0.750000 0.250282 0.980319
O O10 0.920498 0.315308 0.880730
O O11 0.027836 0.227107 0.991772
O O12 0.250000 0.134637 0.995548
O O13 0.052025 0.128655 0.100541
O O14 0.626361 0.589179 0.890949
O O15 0.629822 0.460043 0.871221
O O16 0.750000 0.658002 0.195016
O O17 0.545340 0.754311 0.197270
O O18 0.496193 0.610059 0.756183
O O19 0.750000 0.350327 0.702046
#
# Coordination Sequence:
#
# PCOD9364365 Si02
#       8
#     8   8   8   8   4   8   8   8
#     4  11  24  44  69  95 128 170 218 269 326 381
#     4  11  24  37  58  94 130 168 208 257 314 376
#     4  11  23  40  64  92 130 170 209 256 314 378
#     4  11  24  42  66  98 130 164 214 266 316 384
#     4  10  24  40  64  92 128 160 214 262 312 374
#     4  10  21  42  68  90 123 167 212 262 319 378
#     4  11  22  43  63  93 124 170 210 260 313 380
#     4  10  20  41  66  93 126 168 209 259 319 378
#
# _framework density 21.032906000000001
#
# number of rings (size 3 to 8) (size 9 to 14) (size 15 to 20)
#    0.000    1.333    2.667    2.400    2.800    3.733 
#    6.000    0.000    0.000    0.000    0.000    0.000 
#    0.000    0.000    0.000    0.000    0.000    0.000 
#
# Total GULP energy -167179.526265 kJ/mol
# GULP energy per Si atom -5572.650875 kJ/mol
# Density = 2.098503 g / cm^3
# Si number density = 21.032906 Si / 1000 Ang^3
#
#
#
# Elastic Constant Matrix: (Units=GPa)
#
#
# Indices 1 2 3 4 5 6 
#
# 1 131.4425 16.8207 24.3115 0.0000 0.0000 0.0000
# 2 16.8207 42.1032 -4.6777 0.0000 0.0000 0.0000
# 3 24.3115 -4.6777 79.9434 0.0000 0.0000 0.0000
# 4 0.0000 0.0000 0.0000 21.0576 0.0000 0.0000
# 5 0.0000 0.0000 0.0000 0.0000 7.1915 0.0000
# 6 0.0000 0.0000 0.0000 0.0000 0.0000 22.2849
#
#
#
# Elastic Compliance Matrix: (Units=1/GPa)
#
#
# Indices 1 2 3 4 5 6 
#
# 1 0.008614 -0.003757 -0.002839 0.000000 0.000000 0.000000
# 2 -0.003757 0.025545 0.002637 0.000000 0.000000 0.000000
# 3 -0.002839 0.002637 0.013527 0.000000 0.000000 0.000000
# 4 0.000000 0.000000 0.000000 0.047489 0.000000 0.000000
# 5 0.000000 0.000000 0.000000 0.000000 0.139053 0.000000
# 6 0.000000 0.000000 0.000000 0.000000 0.000000 0.044873
#
#
# Mechanical properties :
#
#
# Convention : Reuss Voigt Hill
#
# Bulk Modulus (GPa) = 25.14614 36.26645 30.70630
# Shear Modulus (GPa) = 16.65142 24.57579 20.61361
#
# Velocity S-wave (km/s) = 2.81674 3.42196 3.13399
# Velocity P-wave (km/s) = 4.74977 5.73526 5.26562
#
# Compressibility (1/GPa) = 0.03976753
#
# Stress axis : x y z
#
# Youngs Moduli (GPa) = 116.09275 39.14661 73.92831
#
# Poissons Ratio (x) = 0.14706 0.20991
# Poissons Ratio (y) = 0.43613 -0.19496
# Poissons Ratio (z) = 0.32963 -0.10324
#
# Static dielectric constant tensor:
#      x y z
#    x 1.707650 0.000000 0.000000 
#    y 0.000000 1.765450 0.000000 
#    z 0.000000 0.000000 1.807540 
# 
# From -- ./inp_files/19429.got.cif
#   From: 2010.05.17/outbox.cif.g08.bks.cpg/sg40_10_cif.got.tgz:19429.got - 2010.06.03 18:35:42.
