data_PCOD9364702
_publ_section_title
;
Structure prediction by ZEFSAII (Michael W. Deem and Ramdas Pophale) SiO2 
 PCOD9364702
Probable space group: A M A 2
;
_chemical_formula_sum "Si O2"
_cell_formula_units_Z 64
_cell_length_a 15.109137
_cell_length_b 17.951608
_cell_length_c 11.862457
_cell_angle_alpha 90.000000
_cell_angle_beta 90.000000
_cell_angle_gamma 90.000000
_cell_volume 3217.493413
_symmetry_space_group_name_H-M "A M A 2"
_symmetry_group_IT_number 40
_symmetry_cell_setting 'orthorhombic'
loop_
_space_group_symop_operation_xyz
x,y,z
-x,-y,z
1/2-x,y,z
1/2+x,-y,z
x,1/2+y,1/2+z
-x,1/2-y,1/2+z
1/2-x,1/2+y,1/2+z
1/2+x,1/2-y,1/2+z
loop_
_atom_site_type_symbol
_atom_site_label
_atom_site_fract_x
_atom_site_fract_y
_atom_site_fract_z
Si Si1 0.478480 0.917268 0.269360
Si Si2 0.144055 0.549841 0.136641
Si Si3 0.851167 0.119215 0.071491
Si Si4 0.643364 0.570964 0.314081
Si Si5 0.150323 0.173771 0.301405
Si Si6 0.600765 0.693219 0.149780
Si Si7 0.849525 0.080748 0.466201
Si Si8 0.090125 0.712537 0.054513
O O1 0.421828 0.913933 0.156660
O O2 0.572739 0.878703 0.257901
O O3 0.415146 0.890458 0.370110
O O4 0.500000 0.000000 0.302792
O O5 0.250000 0.551363 0.131796
O O6 0.121058 0.508197 0.254610
O O7 0.114091 0.634412 0.116487
O O8 0.117343 0.492817 0.035123
O O9 0.750000 0.100234 0.101159
O O10 0.861943 0.209180 0.080365
O O11 0.868106 0.086833 0.946127
O O12 0.750000 0.583322 0.292586
O O13 0.585685 0.631751 0.247377
O O14 0.250000 0.143108 0.312906
O O15 0.150764 0.241691 0.214107
O O16 0.115353 0.198920 0.424186
O O17 0.512124 0.722523 0.089640
O O18 0.653173 0.646288 0.057603
O O19 0.750000 0.065544 0.423647
#
# Coordination Sequence:
#
# PCOD9364702 Si02
#       8
#     8   8   8   8   8   8   8   8
#     4  12  26  43  63  94 127 171 231 272 324 397
#     4   9  19  36  62  99 129 163 214 272 333 393
#     4  11  23  42  66  92 131 182 222 267 334 405
#     4   9  19  38  63  91 131 178 218 261 329 406
#     4  12  24  42  66  95 134 175 215 272 336 404
#     4  11  21  37  64  98 131 164 218 267 327 401
#     4  10  21  39  65  96 133 167 206 272 337 390
#     4  12  22  37  65  99 131 166 220 276 331 395
#
# _framework density 19.891261
#
# number of rings (size 3 to 8) (size 9 to 14) (size 15 to 20)
#    0.000    1.250    3.750    4.125    0.000    3.500 
#    2.250    0.000    0.000    0.000    0.000    0.000 
#    0.000    0.000    0.000    0.000    0.000    0.000 
#
# Total GULP energy -178456.618253 kJ/mol
# GULP energy per Si atom -5576.769320 kJ/mol
# Density = 1.984599 g / cm^3
# Si number density = 19.891261 Si / 1000 Ang^3
#
#
#
# Elastic Constant Matrix: (Units=GPa)
#
#
# Indices 1 2 3 4 5 6 
#
# 1 108.6760 3.7344 54.3669 0.0000 0.0000 0.0000
# 2 3.7344 51.8493 16.0248 0.0000 0.0000 0.0000
# 3 54.3669 16.0248 99.5264 0.0000 0.0000 0.0000
# 4 0.0000 0.0000 0.0000 109.1521 0.0000 0.0000
# 5 0.0000 0.0000 0.0000 0.0000 26.1865 0.0000
# 6 0.0000 0.0000 0.0000 0.0000 0.0000 13.2894
#
#
#
# Elastic Compliance Matrix: (Units=1/GPa)
#
#
# Indices 1 2 3 4 5 6 
#
# 1 0.012744 0.001298 -0.007171 0.000000 0.000000 0.000000
# 2 0.001298 0.020429 -0.003998 0.000000 0.000000 0.000000
# 3 -0.007171 -0.003998 0.014608 0.000000 0.000000 0.000000
# 4 0.000000 0.000000 0.000000 0.009162 0.000000 0.000000
# 5 0.000000 0.000000 0.000000 0.000000 0.038188 0.000000
# 6 0.000000 0.000000 0.000000 0.000000 0.000000 0.075248
#
#
# Mechanical properties :
#
#
# Convention : Reuss Voigt Hill
#
# Bulk Modulus (GPa) = 35.66344 45.36712 40.51528
# Shear Modulus (GPa) = 25.06676 42.12062 33.59369
#
# Velocity S-wave (km/s) = 3.55377 4.60667 4.11404
# Velocity P-wave (km/s) = 5.89976 7.15208 6.55589
#
# Compressibility (1/GPa) = 0.02803992
#
# Stress axis : x y z
#
# Youngs Moduli (GPa) = 78.46643 48.95013 68.45370
#
# Poissons Ratio (x) = -0.06355 0.49086
# Poissons Ratio (y) = -0.10187 0.27371
# Poissons Ratio (z) = 0.56266 0.19573
#
# Static dielectric constant tensor:
#      x y z
#    x 1.682500 0.000000 0.000000 
#    y 0.000000 1.722680 0.000000 
#    z 0.000000 0.000000 1.704950 
# 
# From -- ./inp_files/12421.got.cif
#   From: 2010.05.17/outbox.cif.g08.bks.cpg/sg40_7_cif.got.tgz:12421.got - 2010.06.03 18:35:42.
