data_PCOD9364138
_publ_section_title
;
Structure prediction by ZEFSAII (Michael W. Deem and Ramdas Pophale) SiO2 
 PCOD9364138
Probable space group: A M A 2
;
_chemical_formula_sum "Si O2"
_cell_formula_units_Z 56
_cell_length_a 14.226138
_cell_length_b 19.985179
_cell_length_c 10.215079
_cell_angle_alpha 90.000000
_cell_angle_beta 90.000000
_cell_angle_gamma 90.000000
_cell_volume 2904.268666
_symmetry_space_group_name_H-M "A M A 2"
_symmetry_group_IT_number 40
_symmetry_cell_setting 'orthorhombic'
loop_
_space_group_symop_operation_xyz
x,y,z
-x,-y,z
1/2-x,y,z
1/2+x,-y,z
x,1/2+y,1/2+z
-x,1/2-y,1/2+z
1/2-x,1/2+y,1/2+z
1/2+x,1/2-y,1/2+z
loop_
_atom_site_type_symbol
_atom_site_label
_atom_site_fract_x
_atom_site_fract_y
_atom_site_fract_z
Si Si1 0.857893 0.934516 0.176450
Si Si2 0.858445 0.644461 0.271831
Si Si3 0.032931 0.739816 0.891983
Si Si4 0.507964 0.675186 0.640742
Si Si5 0.640598 0.499226 0.964066
Si Si6 0.140009 0.435913 0.533505
Si Si7 0.501606 0.893266 0.543006
O O1 0.750000 0.919293 0.147968
O O2 0.916874 0.867643 0.174616
O O3 0.864004 0.967957 0.319312
O O4 0.892602 0.989858 0.072011
O O5 0.750000 0.642492 0.223510
O O6 0.879097 0.716538 0.339489
O O7 0.869017 0.587577 0.383615
O O8 0.941077 0.631718 0.167106
O O9 0.972578 0.723813 0.762508
O O10 0.990501 0.785885 0.005913
O O11 0.045199 0.668973 0.964566
O O12 0.588152 0.620594 0.617068
O O13 0.750000 0.509047 0.999057
O O14 0.585285 0.447527 0.059681
O O15 0.578648 0.566376 0.962708
O O16 0.250000 0.434556 0.567229
#
# Coordination Sequence:
#
# PCOD9364138 Si02
#       7
#     8   8   8   8   8   8   8
#     4  10  20  37  62  90 118 154 203 258 317 376
#     4  10  22  41  63  90 125 170 212 255 320 392
#     4  11  22  38  60  88 121 165 210 249 308 373
#     4  11  21  38  60  85 126 160 204 255 305 374
#     4  10  22  38  63  93 121 161 210 264 323 380
#     4   9  20  38  63  89 115 156 207 258 318 376
#     4  11  21  39  63  88 127 164 213 259 316 380
#
# _framework density 19.281963000000001
#
# number of rings (size 3 to 8) (size 9 to 14) (size 15 to 20)
#    0.000    1.714    2.857    1.714    2.000    1.143 
#   10.286    1.429    0.000    1.714    0.000    0.000 
#    0.000    0.000    0.000    0.000    0.000    0.000 
#
# Total GULP energy -156073.783243 kJ/mol
# GULP energy per Si atom -5574.063687 kJ/mol
# Density = 1.923808 g / cm^3
# Si number density = 19.281963 Si / 1000 Ang^3
#
#
#
# Elastic Constant Matrix: (Units=GPa)
#
#
# Indices 1 2 3 4 5 6 
#
# 1 69.1165 18.9435 17.2099 0.0000 0.0000 0.0000
# 2 18.9435 82.6353 23.7605 0.0000 0.0000 0.0000
# 3 17.2099 23.7605 70.7562 0.0000 0.0000 0.0000
# 4 0.0000 0.0000 0.0000 32.8867 0.0000 0.0000
# 5 0.0000 0.0000 0.0000 0.0000 24.5898 0.0000
# 6 0.0000 0.0000 0.0000 0.0000 0.0000 375.3896
#
#
#
# Elastic Compliance Matrix: (Units=1/GPa)
#
#
# Indices 1 2 3 4 5 6 
#
# 1 0.015972 -0.002816 -0.002939 0.000000 0.000000 0.000000
# 2 -0.002816 0.013891 -0.003980 0.000000 0.000000 0.000000
# 3 -0.002939 -0.003980 0.016184 0.000000 0.000000 0.000000
# 4 0.000000 0.000000 0.000000 0.030407 0.000000 0.000000
# 5 0.000000 0.000000 0.000000 0.000000 0.040667 0.000000
# 6 0.000000 0.000000 0.000000 0.000000 0.000000 0.002664
#
#
# Mechanical properties :
#
#
# Convention : Reuss Voigt Hill
#
# Bulk Modulus (GPa) = 37.62620 38.03729 37.83175
# Shear Modulus (GPa) = 33.75734 97.41285 65.58510
#
# Velocity S-wave (km/s) = 4.18870 7.11547 5.83845
# Velocity P-wave (km/s) = 6.55360 9.34217 8.06926
#
# Compressibility (1/GPa) = 0.02657722
#
# Stress axis : x y z
#
# Youngs Moduli (GPa) = 62.60929 71.98743 61.78808
#
# Poissons Ratio (x) = 0.20274 0.18160
# Poissons Ratio (y) = 0.17633 0.24590
# Poissons Ratio (z) = 0.18401 0.28649
#
# Static dielectric constant tensor:
#      x y z
#    x 1.654930 0.000000 0.000000 
#    y 0.000000 1.691860 0.000000 
#    z 0.000000 0.000000 1.706410 
# 
# From -- ./inp_files/6712.got.cif
#   From: 2010.05.17/outbox.cif.g08.bks.cpg/sg40_4_cif.got.tgz:6712.got - 2010.06.03 18:35:42.
