data_PCOD9364792
_publ_section_title
;
Structure prediction by ZEFSAII (Michael W. Deem and Ramdas Pophale) SiO2 
 PCOD9364792
Probable space group: A M A 2
;
_chemical_formula_sum "Si O2"
_cell_formula_units_Z 48
_cell_length_a 19.341124
_cell_length_b 12.993084
_cell_length_c 8.449601
_cell_angle_alpha 90.000000
_cell_angle_beta 90.000000
_cell_angle_gamma 90.000000
_cell_volume 2123.391903
_symmetry_space_group_name_H-M "A M A 2"
_symmetry_group_IT_number 40
_symmetry_cell_setting 'orthorhombic'
loop_
_space_group_symop_operation_xyz
x,y,z
-x,-y,z
1/2-x,y,z
1/2+x,-y,z
x,1/2+y,1/2+z
-x,1/2-y,1/2+z
1/2-x,1/2+y,1/2+z
1/2+x,1/2-y,1/2+z
loop_
_atom_site_type_symbol
_atom_site_label
_atom_site_fract_x
_atom_site_fract_y
_atom_site_fract_z
Si Si1 0.322252 0.356676 0.790140
Si Si2 0.171811 0.170676 0.549303
Si Si3 0.454771 0.790452 0.440638
Si Si4 0.412986 0.701472 0.758033
Si Si5 0.829032 0.959608 0.043586
Si Si6 0.930916 0.932352 0.770586
O O1 0.250000 0.364872 0.880618
O O2 0.323053 0.250177 0.693998
O O3 0.388876 0.356932 0.895821
O O4 0.325066 0.443591 0.658535
O O5 0.250000 0.132006 0.515565
O O6 0.140684 0.230306 0.397219
O O7 0.131788 0.125901 0.148055
O O8 0.449009 0.775583 0.628532
O O9 0.521938 0.839122 0.359806
O O10 0.385006 0.590233 0.114243
O O11 0.550647 0.823997 0.860741
O O12 0.750000 0.929002 0.000435
O O13 0.876543 0.983400 0.893068
O O14 0.000000 0.000000 0.749338
#
# Coordination Sequence:
#
# PCOD9364792 Si02
#       6
#     8   8   8   8   8   8
#     4   9  20  39  64  91 127 170 216 264 322 392
#     4  10  21  41  64  90 127 172 220 272 327 394
#     4  10  22  39  60  92 127 167 219 267 325 398
#     4  11  23  40  64  88 128 166 215 280 323 394
#     4  10  22  40  65  97 131 172 216 263 324 397
#     4  10  22  38  66  95 132 172 214 265 329 393
#
# _framework density 22.605340999999999
#
# number of rings (size 3 to 8) (size 9 to 14) (size 15 to 20)
#    0.000    2.000    0.000    3.000    7.000    4.667 
#    6.000    0.000    0.000    0.000    0.000    0.000 
#    0.000    0.000    0.000    0.000    0.000    0.000 
#
# Total GULP energy -133849.784469 kJ/mol
# GULP energy per Si atom -5577.074353 kJ/mol
# Density = 2.255389 g / cm^3
# Si number density = 22.605341 Si / 1000 Ang^3
#
#
#
# Elastic Constant Matrix: (Units=GPa)
#
#
# Indices 1 2 3 4 5 6 
#
# 1 167.6534 2.3453 72.9519 0.0000 0.0000 0.0000
# 2 2.3453 24.9806 -2.9258 0.0000 0.0000 0.0000
# 3 72.9519 -2.9258 109.3453 0.0000 0.0000 0.0000
# 4 0.0000 0.0000 0.0000 -1.5669 0.0000 0.0000
# 5 0.0000 0.0000 0.0000 0.0000 41.2365 0.0000
# 6 0.0000 0.0000 0.0000 0.0000 0.0000 27.1722
#
#
#
# Elastic Compliance Matrix: (Units=1/GPa)
#
#
# Indices 1 2 3 4 5 6 
#
# 1 0.008457 -0.001459 -0.005682 0.000000 0.000000 0.000000
# 2 -0.001459 0.040409 0.002055 0.000000 0.000000 0.000000
# 3 -0.005682 0.002055 0.012991 0.000000 0.000000 0.000000
# 4 0.000000 0.000000 0.000000 -0.638221 0.000000 0.000000
# 5 0.000000 0.000000 0.000000 0.000000 0.024250 0.000000
# 6 0.000000 0.000000 0.000000 0.000000 0.000000 0.036802
#
#
# Mechanical properties :
#
#
# Convention : Reuss Voigt Hill
#
# Bulk Modulus (GPa) = 19.34804 49.63581 34.49193
# Shear Modulus (GPa) = -10.24778 28.67556 9.21389
#
# Velocity S-wave (km/s) = -2.13147 3.56551 2.02110
# Velocity P-wave (km/s) = 1.58747 6.24145 4.55389
#
# Compressibility (1/GPa) = 0.05168482
#
# Stress axis : x y z
#
# Youngs Moduli (GPa) = 118.24048 24.74713 76.97711
#
# Poissons Ratio (x) = 0.03612 0.43735
# Poissons Ratio (y) = 0.17257 -0.15818
# Poissons Ratio (z) = 0.67179 -0.05085
#
# Static dielectric constant tensor:
#      x y z
#    x 1.898870 0.000000 0.000000 
#    y 0.000000 1.885770 0.000000 
#    z 0.000000 0.000000 1.830340 
# 
# From -- ./inp_files/7424.got.cif
#   From: 2010.05.17/outbox.cif.g08.bks.cpg/sg40_4_cif.got.tgz:7424.got - 2010.06.03 18:35:42.
