data_PCOD9364705
_publ_section_title
;
Structure prediction by ZEFSAII (Michael W. Deem and Ramdas Pophale) SiO2 
 PCOD9364705
Probable space group: A M A 2
;
_chemical_formula_sum "Si O2"
_cell_formula_units_Z 60
_cell_length_a 29.744093
_cell_length_b 9.244638
_cell_length_c 10.926451
_cell_angle_alpha 90.000000
_cell_angle_beta 90.000000
_cell_angle_gamma 90.000000
_cell_volume 3004.483080
_symmetry_space_group_name_H-M "A M A 2"
_symmetry_group_IT_number 40
_symmetry_cell_setting 'orthorhombic'
loop_
_space_group_symop_operation_xyz
x,y,z
-x,-y,z
1/2-x,y,z
1/2+x,-y,z
x,1/2+y,1/2+z
-x,1/2-y,1/2+z
1/2-x,1/2+y,1/2+z
1/2+x,1/2-y,1/2+z
loop_
_atom_site_type_symbol
_atom_site_label
_atom_site_fract_x
_atom_site_fract_y
_atom_site_fract_z
Si Si1 0.364442 0.079302 0.875000
Si Si2 0.078908 0.869249 0.756268
Si Si3 0.000000 0.500000 0.102561
Si Si4 0.344182 0.272622 0.649021
Si Si5 0.803337 0.004779 0.327456
Si Si6 0.800150 0.690649 0.412502
Si Si7 0.636568 0.131552 0.519522
Si Si8 0.420096 0.647775 0.972138
O O1 0.344369 0.154324 0.754728
O O2 0.411844 0.009102 0.840417
O O3 0.333002 0.945291 0.909229
O O4 0.369416 0.205940 0.972454
O O5 0.033990 0.902237 0.681802
O O6 0.195399 0.754748 0.051731
O O7 0.077764 0.732629 0.845096
O O8 0.968714 0.392003 0.024755
O O9 0.333956 0.420009 0.723209
O O10 0.389549 0.241177 0.569054
O O11 0.750000 0.026120 0.304246
O O12 0.812011 0.832868 0.334659
O O13 0.816602 0.077696 0.458836
O O14 0.750000 0.645441 0.381395
O O15 0.879158 0.632871 0.160457
O O16 0.604126 0.008271 0.461550
#
# Coordination Sequence:
#
# PCOD9364705 Si02
#       8
#     8   8   4   8   8   8   8   8
#     4  11  22  38  67  95 126 174 219 264 327 388
#     4  11  22  45  68  94 135 168 214 273 336 396
#     4  10  24  42  68 104 130 164 218 282 330 404
#     4  11  21  42  66  92 130 177 213 273 330 388
#     4  10  21  39  66  96 133 175 225 271 322 387
#     4  11  23  40  61  96 132 173 225 274 326 387
#     4  10  22  40  67  98 127 177 220 266 328 389
#     4  11  22  46  69  96 135 172 217 272 342 405
#
# _framework density 19.970157
#
# number of rings (size 3 to 8) (size 9 to 14) (size 15 to 20)
#    0.000    1.333    5.333    0.400    0.000    8.000 
#    0.000    0.667    0.000    0.000    0.000    0.000 
#    0.000    0.000    0.000    0.000    0.000    0.000 
#
# Total GULP energy -167190.385152 kJ/mol
# GULP energy per Si atom -5573.012838 kJ/mol
# Density = 1.992470 g / cm^3
# Si number density = 19.970157 Si / 1000 Ang^3
#
#
#
# Elastic Constant Matrix: (Units=GPa)
#
#
# Indices 1 2 3 4 5 6 
#
# 1 70.4909 27.8486 26.5761 0.0000 0.0000 0.0000
# 2 27.8486 124.4729 53.0498 0.0000 0.0000 0.0000
# 3 26.5761 53.0498 77.8130 0.0000 0.0000 0.0000
# 4 0.0000 0.0000 0.0000 34.1422 0.0000 0.0000
# 5 0.0000 0.0000 0.0000 0.0000 30.1707 0.0000
# 6 0.0000 0.0000 0.0000 0.0000 0.0000 15.7396
#
#
#
# Elastic Compliance Matrix: (Units=1/GPa)
#
#
# Indices 1 2 3 4 5 6 
#
# 1 0.016572 -0.001826 -0.004415 0.000000 0.000000 0.000000
# 2 -0.001826 0.011526 -0.007234 0.000000 0.000000 0.000000
# 3 -0.004415 -0.007234 0.019291 0.000000 0.000000 0.000000
# 4 0.000000 0.000000 0.000000 0.029289 0.000000 0.000000
# 5 0.000000 0.000000 0.000000 0.000000 0.033145 0.000000
# 6 0.000000 0.000000 0.000000 0.000000 0.000000 0.063534
#
#
# Mechanical properties :
#
#
# Convention : Reuss Voigt Hill
#
# Bulk Modulus (GPa) = 48.92716 54.19175 51.55946
# Shear Modulus (GPa) = 24.14061 27.03067 25.58564
#
# Velocity S-wave (km/s) = 3.48060 3.68306 3.58326
# Velocity P-wave (km/s) = 6.38013 6.72918 6.55698
#
# Compressibility (1/GPa) = 0.02043855
#
# Stress axis : x y z
#
# Youngs Moduli (GPa) = 60.34204 86.76399 51.83735
#
# Poissons Ratio (x) = 0.15843 0.22887
# Poissons Ratio (y) = 0.11019 0.37499
# Poissons Ratio (z) = 0.26642 0.62765
#
# Static dielectric constant tensor:
#      x y z
#    x 1.717260 0.000000 0.000000 
#    y 0.000000 1.713230 0.000000 
#    z 0.000000 0.000000 1.751550 
# 
# From -- ./inp_files/14388.got.cif
#   From: 2010.05.17/outbox.cif.g08.bks.cpg/sg40_8_cif.got.tgz:14388.got - 2010.06.03 18:35:42.
