data_PCOD9364808
_publ_section_title
;
Structure prediction by ZEFSAII (Michael W. Deem and Ramdas Pophale) SiO2 
 PCOD9364808
Probable space group: A M A 2
;
_chemical_formula_sum "Si O2"
_cell_formula_units_Z 64
_cell_length_a 8.954282
_cell_length_b 28.885949
_cell_length_c 13.245320
_cell_angle_alpha 90.000000
_cell_angle_beta 90.000000
_cell_angle_gamma 90.000000
_cell_volume 3425.940869
_symmetry_space_group_name_H-M "A M A 2"
_symmetry_group_IT_number 40
_symmetry_cell_setting 'orthorhombic'
loop_
_space_group_symop_operation_xyz
x,y,z
-x,-y,z
1/2-x,y,z
1/2+x,-y,z
x,1/2+y,1/2+z
-x,1/2-y,1/2+z
1/2-x,1/2+y,1/2+z
1/2+x,1/2-y,1/2+z
loop_
_atom_site_type_symbol
_atom_site_label
_atom_site_fract_x
_atom_site_fract_y
_atom_site_fract_z
Si Si1 0.421699 0.744758 0.963310
Si Si2 0.429716 0.374669 0.751076
Si Si3 0.070940 0.355952 0.978863
Si Si4 0.929752 0.051216 0.854793
Si Si5 0.414318 0.293937 0.251168
Si Si6 0.425849 0.617456 0.187753
Si Si7 0.570802 0.550572 0.582971
Si Si8 0.081172 0.203636 0.122947
O O1 0.250000 0.734825 0.991148
O O2 0.512522 0.697062 0.973689
O O3 0.429671 0.763063 0.849935
O O4 0.480150 0.788884 0.025865
O O5 0.250000 0.369343 0.744748
O O6 0.466684 0.378756 0.869855
O O7 0.473938 0.416140 0.675290
O O8 0.508264 0.329655 0.704780
O O9 0.250000 0.355690 0.990554
O O10 0.997787 0.380748 0.075662
O O11 0.750000 0.049264 0.846135
O O12 0.997639 0.082000 0.765513
O O13 0.966327 0.068636 0.969473
O O14 0.000000 0.000000 0.848289
O O15 0.250000 0.317293 0.253366
O O16 0.539077 0.331789 0.233310
O O17 0.414171 0.255909 0.164232
O O18 0.250000 0.608834 0.181152
O O19 0.500000 0.500000 0.593732
O O20 0.750000 0.546221 0.586330
O O21 0.250000 0.188635 0.100564
#
# Coordination Sequence:
#
# PCOD9364808 Si02
#       8
#     8   8   8   8   8   8   8   8
#     4  11  22  37  55  77 112 155 199 246 295 347
#     4  10  22  39  60  87 118 156 199 241 295 353
#     4  11  22  38  59  82 117 159 201 246 293 346
#     4  10  21  41  67  92 122 152 188 239 298 355
#     4  10  22  38  55  79 116 157 198 245 295 344
#     4  12  25  39  60  88 119 157 204 245 294 356
#     4   9  20  40  65  92 119 150 185 234 295 352
#     4  11  22  36  55  83 117 154 198 242 291 347
#
# _framework density 18.680999
#
# number of rings (size 3 to 8) (size 9 to 14) (size 15 to 20)
#    0.000    1.500    2.500    2.625    1.750    3.000 
#    0.000    0.625    0.000    1.500    0.000    0.000 
#    0.000    0.000    0.000    0.000    0.000    0.000 
#
# Total GULP energy -178552.185862 kJ/mol
# GULP energy per Si atom -5579.755808 kJ/mol
# Density = 1.863848 g / cm^3
# Si number density = 18.680999 Si / 1000 Ang^3
#
#
#
# Elastic Constant Matrix: (Units=GPa)
#
#
# Indices 1 2 3 4 5 6 
#
# 1 82.0332 35.6577 57.7810 0.0000 0.0000 0.0000
# 2 35.6577 69.9724 59.0696 0.0000 0.0000 0.0000
# 3 57.7810 59.0696 143.0913 0.0000 0.0000 0.0000
# 4 0.0000 0.0000 0.0000 34.2508 0.0000 0.0000
# 5 0.0000 0.0000 0.0000 0.0000 23.4082 0.0000
# 6 0.0000 0.0000 0.0000 0.0000 0.0000 29.4973
#
#
#
# Elastic Compliance Matrix: (Units=1/GPa)
#
#
# Indices 1 2 3 4 5 6 
#
# 1 0.017971 -0.004654 -0.005336 0.000000 0.000000 0.000000
# 2 -0.004654 0.023141 -0.007674 0.000000 0.000000 0.000000
# 3 -0.005336 -0.007674 0.012311 0.000000 0.000000 0.000000
# 4 0.000000 0.000000 0.000000 0.029196 0.000000 0.000000
# 5 0.000000 0.000000 0.000000 0.000000 0.042720 0.000000
# 6 0.000000 0.000000 0.000000 0.000000 0.000000 0.033901
#
#
# Mechanical properties :
#
#
# Convention : Reuss Voigt Hill
#
# Bulk Modulus (GPa) = 55.25828 66.67928 60.96878
# Shear Modulus (GPa) = 24.92529 26.93716 25.93123
#
# Velocity S-wave (km/s) = 3.65671 3.80143 3.72977
# Velocity P-wave (km/s) = 6.89006 7.41882 7.15932
#
# Compressibility (1/GPa) = 0.01809683
#
# Stress axis : x y z
#
# Youngs Moduli (GPa) = 55.64398 43.21381 81.22876
#
# Poissons Ratio (x) = 0.20110 0.43342
# Poissons Ratio (y) = 0.25895 0.62331
# Poissons Ratio (z) = 0.29691 0.33160
#
# Static dielectric constant tensor:
#      x y z
#    x 1.648980 0.000000 0.000000 
#    y 0.000000 1.615150 0.000000 
#    z 0.000000 0.000000 1.688380 
# 
# From -- ./inp_files/10680.got.cif
#   From: 2010.05.17/outbox.cif.g08.bks.cpg/sg40_6_cif.got.tgz:10680.got - 2010.06.03 18:35:42.
