data_PCOD9364391
_publ_section_title
;
Structure prediction by ZEFSAII (Michael W. Deem and Ramdas Pophale) SiO2 
 PCOD9364391
Probable space group: A M A 2
;
_chemical_formula_sum "Si O2"
_cell_formula_units_Z 64
_cell_length_a 15.389004
_cell_length_b 12.029002
_cell_length_c 15.006379
_cell_angle_alpha 90.000000
_cell_angle_beta 90.000000
_cell_angle_gamma 90.000000
_cell_volume 2777.896243
_symmetry_space_group_name_H-M "A M A 2"
_symmetry_group_IT_number 40
_symmetry_cell_setting 'orthorhombic'
loop_
_space_group_symop_operation_xyz
x,y,z
-x,-y,z
1/2-x,y,z
1/2+x,-y,z
x,1/2+y,1/2+z
-x,1/2-y,1/2+z
1/2-x,1/2+y,1/2+z
1/2+x,1/2-y,1/2+z
loop_
_atom_site_type_symbol
_atom_site_label
_atom_site_fract_x
_atom_site_fract_y
_atom_site_fract_z
Si Si1 0.101039 0.773896 0.191990
Si Si2 0.855352 0.691466 0.488741
Si Si3 0.073090 0.194419 0.311200
Si Si4 0.352688 0.027652 0.886139
Si Si5 0.097805 0.018577 0.696159
Si Si6 0.356824 0.265671 0.957081
Si Si7 0.151001 0.454955 0.825228
Si Si8 0.656996 0.704963 0.145074
O O1 0.129659 0.644886 0.196627
O O2 0.153912 0.871857 0.240423
O O3 0.013784 0.779378 0.253066
O O4 0.103555 0.793541 0.086243
O O5 0.750000 0.718659 0.488797
O O6 0.906079 0.758471 0.409998
O O7 0.862880 0.561584 0.463486
O O8 0.138994 0.252098 0.242689
O O9 0.092664 0.063017 0.311524
O O10 0.250000 0.031789 0.863813
O O11 0.401898 0.985384 0.799649
O O12 0.382214 0.150966 0.910757
O O13 0.155135 0.928258 0.646430
O O14 0.000000 0.000000 0.661709
O O15 0.250000 0.269884 0.951255
O O16 0.383958 0.376314 0.904876
O O17 0.394889 0.262578 0.056785
O O18 0.250000 0.491357 0.845063
O O19 0.750000 0.753485 0.123640
#
# Coordination Sequence:
#
# PCOD9364391 Si02
#       8
#     8   8   8   8   8   8   8   8
#     4  12  27  46  69 106 149 191 239 308 381 441
#     4  11  25  46  76 111 145 196 259 309 366 445
#     4  12  26  48  68 104 150 194 241 306 375 443
#     4  10  20  42  72  98 133 183 239 302 359 421
#     4  12  23  44  65  99 141 182 235 301 366 429
#     4   9  21  39  65 102 134 173 232 298 356 418
#     4  11  24  45  71 102 144 193 249 302 364 449
#     4  11  23  41  69  99 135 189 246 296 358 433
#
# _framework density 23.039017999999999
#
# number of rings (size 3 to 8) (size 9 to 14) (size 15 to 20)
#    0.000    1.000    3.750    2.250    3.500    2.500 
#    2.250    0.000    0.000    0.000    0.000    0.000 
#    0.000    0.000    0.000    0.000    0.000    0.000 
#
# Total GULP energy -178512.175943 kJ/mol
# GULP energy per Si atom -5578.505498 kJ/mol
# Density = 2.298658 g / cm^3
# Si number density = 23.039018 Si / 1000 Ang^3
#
#
#
# Elastic Constant Matrix: (Units=GPa)
#
#
# Indices 1 2 3 4 5 6 
#
# 1 61.1969 5.5080 24.1857 0.0000 0.0000 0.0000
# 2 5.5080 109.1345 17.9913 0.0000 0.0000 0.0000
# 3 24.1857 17.9913 141.5136 0.0000 0.0000 0.0000
# 4 0.0000 0.0000 0.0000 27.9633 0.0000 0.0000
# 5 0.0000 0.0000 0.0000 0.0000 21.3985 0.0000
# 6 0.0000 0.0000 0.0000 0.0000 0.0000 14.9398
#
#
#
# Elastic Compliance Matrix: (Units=1/GPa)
#
#
# Indices 1 2 3 4 5 6 
#
# 1 0.017541 -0.000399 -0.002947 0.000000 0.000000 0.000000
# 2 -0.000399 0.009368 -0.001123 0.000000 0.000000 0.000000
# 3 -0.002947 -0.001123 0.007713 0.000000 0.000000 0.000000
# 4 0.000000 0.000000 0.000000 0.035761 0.000000 0.000000
# 5 0.000000 0.000000 0.000000 0.000000 0.046732 0.000000
# 6 0.000000 0.000000 0.000000 0.000000 0.000000 0.066935
#
#
# Mechanical properties :
#
#
# Convention : Reuss Voigt Hill
#
# Bulk Modulus (GPa) = 38.93507 45.24610 42.09059
# Shear Modulus (GPa) = 24.80756 30.47098 27.63927
#
# Velocity S-wave (km/s) = 3.28497 3.64068 3.46739
# Velocity P-wave (km/s) = 5.59681 6.11181 5.85997
#
# Compressibility (1/GPa) = 0.02568379
#
# Stress axis : x y z
#
# Youngs Moduli (GPa) = 57.00800 106.74348 129.65309
#
# Poissons Ratio (x) = 0.04264 0.38211
# Poissons Ratio (y) = 0.02277 0.14557
# Poissons Ratio (z) = 0.16801 0.11985
#
# Static dielectric constant tensor:
#      x y z
#    x 2.004910 0.000000 0.000000 
#    y 0.000000 1.830670 0.000000 
#    z 0.000000 0.000000 1.859580 
# 
# From -- ./inp_files/17872.got.cif
#   From: 2010.05.17/outbox.cif.g08.bks.cpg/sg40_9_cif.got.tgz:17872.got - 2010.06.03 18:35:42.
