data_PCOD9364451
_publ_section_title
;
Structure prediction by ZEFSAII (Michael W. Deem and Ramdas Pophale) SiO2 
 PCOD9364451
Probable space group: A M A 2
;
_chemical_formula_sum "Si O2"
_cell_formula_units_Z 64
_cell_length_a 18.716006
_cell_length_b 11.911303
_cell_length_c 15.687744
_cell_angle_alpha 90.000000
_cell_angle_beta 90.000000
_cell_angle_gamma 90.000000
_cell_volume 3497.300434
_symmetry_space_group_name_H-M "A M A 2"
_symmetry_group_IT_number 40
_symmetry_cell_setting 'orthorhombic'
loop_
_space_group_symop_operation_xyz
x,y,z
-x,-y,z
1/2-x,y,z
1/2+x,-y,z
x,1/2+y,1/2+z
-x,1/2-y,1/2+z
1/2-x,1/2+y,1/2+z
1/2+x,1/2-y,1/2+z
loop_
_atom_site_type_symbol
_atom_site_label
_atom_site_fract_x
_atom_site_fract_y
_atom_site_fract_z
Si Si1 0.913525 0.208308 0.140090
Si Si2 0.835357 0.937766 0.405063
Si Si3 0.914575 0.980816 0.229714
Si Si4 0.924376 0.934356 0.736831
Si Si5 0.928227 0.810224 0.080298
Si Si6 0.916630 0.543730 0.065571
Si Si7 0.584859 0.475792 0.427620
Si Si8 0.667068 0.700271 0.477625
O O1 0.931548 0.305203 0.207770
O O2 0.985792 0.183288 0.087791
O O3 0.889510 0.093433 0.182800
O O4 0.855529 0.243326 0.071019
O O5 0.750000 0.958177 0.404634
O O6 0.873473 0.970812 0.317743
O O7 0.847539 0.804445 0.416048
O O8 0.872888 0.999599 0.484654
O O9 0.903466 0.875072 0.166181
O O10 0.000000 0.000000 0.243297
O O11 0.892860 0.942800 0.831385
O O12 0.888123 0.993541 0.655228
O O13 0.000000 0.000000 0.741935
O O14 0.912724 0.678355 0.072638
O O15 0.902528 0.879605 0.998071
O O16 0.000000 0.500000 0.057247
O O17 0.500000 0.500000 0.427685
O O18 0.623830 0.589588 0.454264
O O19 0.750000 0.673560 0.475692
#
# Coordination Sequence:
#
# PCOD9364451 Si02
#       8
#     8   8   8   8   8   8   8   8
#     4  11  19  40  61  91 123 158 203 251 309 364
#     4  11  25  43  61  89 125 168 211 251 308 374
#     4  10  23  37  64  94 120 158 207 257 307 368
#     4  10  21  35  60  95 123 153 199 256 310 360
#     4  11  20  38  63  94 124 153 203 258 311 356
#     4  11  21  39  62  92 126 159 198 257 310 365
#     4  11  22  37  63  93 123 158 203 261 307 363
#     4  11  23  41  63  85 122 169 208 250 307 373
#
# _framework density 18.299828999999999
#
# number of rings (size 3 to 8) (size 9 to 14) (size 15 to 20)
#    0.000    1.250    6.250    0.750    3.500    1.500 
#    0.000    2.500    0.000    0.000    0.000    0.000 
#    0.000    0.000    0.000    0.000    0.000    0.000 
#
# Total GULP energy -178496.625301 kJ/mol
# GULP energy per Si atom -5578.019541 kJ/mol
# Density = 1.825818 g / cm^3
# Si number density = 18.299829 Si / 1000 Ang^3
#
#
#
# Elastic Constant Matrix: (Units=GPa)
#
#
# Indices 1 2 3 4 5 6 
#
# 1 29.7108 42.9309 35.3910 0.0000 0.0000 0.0000
# 2 42.9309 124.6319 67.6608 0.0000 0.0000 0.0000
# 3 35.3910 67.6608 151.4035 0.0000 0.0000 0.0000
# 4 0.0000 0.0000 0.0000 18.0574 0.0000 0.0000
# 5 0.0000 0.0000 0.0000 0.0000 4.0717 0.0000
# 6 0.0000 0.0000 0.0000 0.0000 0.0000 16.9936
#
#
#
# Elastic Compliance Matrix: (Units=1/GPa)
#
#
# Indices 1 2 3 4 5 6 
#
# 1 0.073264 -0.021045 -0.007721 0.000000 0.000000 0.000000
# 2 -0.021045 0.016639 -0.002516 0.000000 0.000000 0.000000
# 3 -0.007721 -0.002516 0.009534 0.000000 0.000000 0.000000
# 4 0.000000 0.000000 0.000000 0.055379 0.000000 0.000000
# 5 0.000000 0.000000 0.000000 0.000000 0.245597 0.000000
# 6 0.000000 0.000000 0.000000 0.000000 0.000000 0.058846
#
#
# Mechanical properties :
#
#
# Convention : Reuss Voigt Hill
#
# Bulk Modulus (GPa) = 27.12051 66.41239 46.76645
# Shear Modulus (GPa) = 9.36130 18.47545 13.91837
#
# Velocity S-wave (km/s) = 2.26420 3.18086 2.76084
# Velocity P-wave (km/s) = 4.65701 7.06120 5.98115
#
# Compressibility (1/GPa) = 0.03687246
#
# Stress axis : x y z
#
# Youngs Moduli (GPa) = 13.64927 60.09967 104.88543
#
# Poissons Ratio (x) = 1.26481 0.80980
# Poissons Ratio (y) = 0.28725 0.26394
# Poissons Ratio (z) = 0.10538 0.15124
#
# Static dielectric constant tensor:
#      x y z
#    x 1.620710 0.000000 0.000000 
#    y 0.000000 1.669760 0.000000 
#    z 0.000000 0.000000 1.647830 
# 
# From -- ./inp_files/17836.got.cif
#   From: 2010.05.17/outbox.cif.g08.bks.cpg/sg40_9_cif.got.tgz:17836.got - 2010.06.03 18:35:42.
