data_PCOD9364703
_publ_section_title
;
Structure prediction by ZEFSAII (Michael W. Deem and Ramdas Pophale) SiO2 
 PCOD9364703
Probable space group: A M A 2
;
_chemical_formula_sum "Si O2"
_cell_formula_units_Z 64
_cell_length_a 14.380260
_cell_length_b 9.505814
_cell_length_c 19.356029
_cell_angle_alpha 90.000000
_cell_angle_beta 90.000000
_cell_angle_gamma 90.000000
_cell_volume 2645.893227
_symmetry_space_group_name_H-M "A M A 2"
_symmetry_group_IT_number 40
_symmetry_cell_setting 'orthorhombic'
loop_
_space_group_symop_operation_xyz
x,y,z
-x,-y,z
1/2-x,y,z
1/2+x,-y,z
x,1/2+y,1/2+z
-x,1/2-y,1/2+z
1/2-x,1/2+y,1/2+z
1/2+x,1/2-y,1/2+z
loop_
_atom_site_type_symbol
_atom_site_label
_atom_site_fract_x
_atom_site_fract_y
_atom_site_fract_z
Si Si1 0.139577 0.410677 0.438960
Si Si2 0.968100 0.348662 0.904947
Si Si3 0.145020 0.378250 0.073332
Si Si4 0.647084 0.277662 0.433949
Si Si5 0.138914 0.649588 0.158397
Si Si6 0.516233 0.860173 0.135495
Si Si7 0.358264 0.141648 0.262896
Si Si8 0.141474 0.965827 0.782639
O O1 0.250000 0.375293 0.440328
O O2 0.083810 0.266498 0.454144
O O3 0.131593 0.568567 0.469270
O O4 0.107792 0.448029 0.360411
O O5 0.902967 0.380470 0.838777
O O6 0.000000 0.500000 0.933549
O O7 0.063349 0.267359 0.884623
O O8 0.250000 0.352683 0.100868
O O9 0.148782 0.341459 0.992752
O O10 0.121315 0.535125 0.097798
O O11 0.074919 0.264496 0.102554
O O12 0.750000 0.282662 0.401924
O O13 0.250000 0.671432 0.161315
O O14 0.102081 0.576263 0.228871
O O15 0.082885 0.790859 0.149753
O O16 0.576664 0.911510 0.201643
O O17 0.500000 0.000000 0.091345
O O18 0.250000 0.096916 0.261096
O O19 0.361805 0.310108 0.252038
O O20 0.250000 0.001841 0.789009
#
# Coordination Sequence:
#
# PCOD9364703 Si02
#       8
#     8   8   8   8   8   8   8   8
#     4   9  19  38  64  93 127 171 220 275 339 404
#     4  11  23  38  61  94 130 175 222 275 338 401
#     4  10  22  44  68  89 126 176 227 280 333 398
#     4  10  23  42  65  95 128 171 225 279 337 401
#     4  10  21  39  65  98 130 172 226 279 334 402
#     4  12  25  38  61  98 133 173 221 275 344 403
#     4  10  21  40  62  90 132 180 221 268 340 408
#     4   8  15  31  60  91 118 160 213 264 326 388
#
# _framework density 24.188428999999999
#
# number of rings (size 3 to 8) (size 9 to 14) (size 15 to 20)
#    0.000    2.000    1.250    2.625    1.750    4.000 
#    0.000    0.000    0.000    6.000    0.000    0.000 
#    0.000    0.000    0.000    0.000    0.000    0.000 
#
# Total GULP energy -178649.529049 kJ/mol
# GULP energy per Si atom -5582.797783 kJ/mol
# Density = 2.413337 g / cm^3
# Si number density = 24.188429 Si / 1000 Ang^3
#
#
#
# Elastic Constant Matrix: (Units=GPa)
#
#
# Indices 1 2 3 4 5 6 
#
# 1 159.5753 69.6456 21.3736 0.0000 0.0000 0.0000
# 2 69.6456 157.2847 9.4892 0.0000 0.0000 0.0000
# 3 21.3736 9.4892 34.7171 0.0000 0.0000 0.0000
# 4 0.0000 0.0000 0.0000 10.3204 0.0000 0.0000
# 5 0.0000 0.0000 0.0000 0.0000 24.9839 0.0000
# 6 0.0000 0.0000 0.0000 0.0000 0.0000 33.6459
#
#
#
# Elastic Compliance Matrix: (Units=1/GPa)
#
#
# Indices 1 2 3 4 5 6 
#
# 1 0.008326 -0.003434 -0.004187 0.000000 0.000000 0.000000
# 2 -0.003434 0.007881 -0.000040 0.000000 0.000000 0.000000
# 3 -0.004187 -0.000040 0.031393 0.000000 0.000000 0.000000
# 4 0.000000 0.000000 0.000000 0.096896 0.000000 0.000000
# 5 0.000000 0.000000 0.000000 0.000000 0.040026 0.000000
# 6 0.000000 0.000000 0.000000 0.000000 0.000000 0.029721
#
#
# Mechanical properties :
#
#
# Convention : Reuss Voigt Hill
#
# Bulk Modulus (GPa) = 30.98133 61.39932 46.19032
# Shear Modulus (GPa) = 20.80509 30.52793 25.66651
#
# Velocity S-wave (km/s) = 2.93597 3.55644 3.26100
# Velocity P-wave (km/s) = 4.93248 6.50409 5.77203
#
# Compressibility (1/GPa) = 0.03227750
#
# Stress axis : x y z
#
# Youngs Moduli (GPa) = 120.10029 126.88749 31.85406
#
# Poissons Ratio (x) = 0.43577 0.13339
# Poissons Ratio (y) = 0.41246 0.00127
# Poissons Ratio (z) = 0.50292 0.00505
#
# Static dielectric constant tensor:
#      x y z
#    x 1.960040 0.000000 0.000000 
#    y 0.000000 1.929920 0.000000 
#    z 0.000000 0.000000 1.985880 
# 
# From -- ./inp_files/24829.got.cif
#   From: 2010.05.17/outbox.cif.g08.bks.cpg/sg40_13_cif.got.tgz:24829.got - 2010.06.03 18:35:42.
