data_PCOD9364563
_publ_section_title
;
Structure prediction by ZEFSAII (Michael W. Deem and Ramdas Pophale) SiO2 
 PCOD9364563
Probable space group: A M A 2
;
_chemical_formula_sum "Si O2"
_cell_formula_units_Z 56
_cell_length_a 8.515858
_cell_length_b 24.467985
_cell_length_c 14.172520
_cell_angle_alpha 90.000000
_cell_angle_beta 90.000000
_cell_angle_gamma 90.000000
_cell_volume 2953.069684
_symmetry_space_group_name_H-M "A M A 2"
_symmetry_group_IT_number 40
_symmetry_cell_setting 'orthorhombic'
loop_
_space_group_symop_operation_xyz
x,y,z
-x,-y,z
1/2-x,y,z
1/2+x,-y,z
x,1/2+y,1/2+z
-x,1/2-y,1/2+z
1/2-x,1/2+y,1/2+z
1/2+x,1/2-y,1/2+z
loop_
_atom_site_type_symbol
_atom_site_label
_atom_site_fract_x
_atom_site_fract_y
_atom_site_fract_z
Si Si1 0.937200 0.939784 0.417390
Si Si2 0.062014 0.439660 0.332917
Si Si3 0.062025 0.665220 0.230580
Si Si4 0.938514 0.166189 0.522664
Si Si5 0.440266 0.881022 0.234451
Si Si6 0.940808 0.228667 0.338364
Si Si7 0.560613 0.560580 0.547726
O O1 0.750000 0.938956 0.423054
O O2 0.007021 0.893183 0.485544
O O3 0.991456 0.922351 0.312230
O O4 0.000000 0.000000 0.439580
O O5 0.250000 0.440644 0.331170
O O6 0.008894 0.426776 0.440819
O O7 0.000000 0.500000 0.309360
O O8 0.001165 0.393040 0.264137
O O9 0.250000 0.664203 0.233230
O O10 0.004108 0.713107 0.300701
O O11 0.007505 0.677650 0.124821
O O12 0.750000 0.166690 0.526647
O O13 0.990986 0.209454 0.442398
O O14 0.250000 0.884157 0.239846
O O15 0.486731 0.820278 0.267215
O O16 0.490107 0.898042 0.129624
O O17 0.750000 0.229870 0.339315
O O18 0.500000 0.500000 0.571062
O O19 0.750000 0.559516 0.547478
#
# Coordination Sequence:
#
# PCOD9364563 Si02
#       7
#     8   8   8   8   8   8   8
#     4  11  21  34  53  81 113 148 187 231 279 332
#     4  10  21  38  57  81 111 146 186 231 276 327
#     4  11  22  38  60  86 112 144 181 224 276 330
#     4  10  21  40  60  81 110 146 185 229 273 322
#     4   9  17  33  54  79 112 151 187 225 272 325
#     4   8  18  36  57  79 110 145 178 217 267 321
#     4   9  18  31  51  77 108 144 184 225 270 319
#
# _framework density 18.963318000000001
#
# number of rings (size 3 to 8) (size 9 to 14) (size 15 to 20)
#    0.000    2.286    0.000    3.857    0.000    4.000 
#    0.000   11.429    0.000    0.000    0.000    0.000 
#    0.000    0.000    0.000    0.000    0.000    0.000 
#
# Total GULP energy -156304.591727 kJ/mol
# GULP energy per Si atom -5582.306847 kJ/mol
# Density = 1.892016 g / cm^3
# Si number density = 18.963318 Si / 1000 Ang^3
#
#
#
# Elastic Constant Matrix: (Units=GPa)
#
#
# Indices 1 2 3 4 5 6 
#
# 1 47.7513 25.5731 23.2791 0.0000 0.0000 0.0000
# 2 25.5731 114.1197 78.9198 0.0000 0.0000 0.0000
# 3 23.2791 78.9198 116.1326 0.0000 0.0000 0.0000
# 4 0.0000 0.0000 0.0000 4.6051 0.0000 0.0000
# 5 0.0000 0.0000 0.0000 0.0000 27.3185 0.0000
# 6 0.0000 0.0000 0.0000 0.0000 0.0000 17.6124
#
#
#
# Elastic Compliance Matrix: (Units=1/GPa)
#
#
# Indices 1 2 3 4 5 6 
#
# 1 0.024089 -0.003884 -0.002189 0.000000 0.000000 0.000000
# 2 -0.003884 0.017158 -0.010882 0.000000 0.000000 0.000000
# 3 -0.002189 -0.010882 0.016444 0.000000 0.000000 0.000000
# 4 0.000000 0.000000 0.000000 0.217149 0.000000 0.000000
# 5 0.000000 0.000000 0.000000 0.000000 0.036605 0.000000
# 6 0.000000 0.000000 0.000000 0.000000 0.000000 0.056778
#
#
# Mechanical properties :
#
#
# Convention : Reuss Voigt Hill
#
# Bulk Modulus (GPa) = 42.04856 59.28306 50.66581
# Shear Modulus (GPa) = 12.19327 19.92264 16.05795
#
# Velocity S-wave (km/s) = 2.53848 3.24479 2.91312
# Velocity P-wave (km/s) = 5.55100 6.73558 6.17178
#
# Compressibility (1/GPa) = 0.02378203
#
# Stress axis : x y z
#
# Youngs Moduli (GPa) = 41.51223 58.28047 60.81064
#
# Poissons Ratio (x) = 0.22638 0.13312
# Poissons Ratio (y) = 0.16124 0.66172
# Poissons Ratio (z) = 0.09088 0.63419
#
# Static dielectric constant tensor:
#      x y z
#    x 1.639300 0.000000 0.000000 
#    y 0.000000 1.651470 0.000000 
#    z 0.000000 0.000000 1.661210 
# 
# From -- ./inp_files/15351.got.cif
#   From: 2010.05.17/outbox.cif.g08.bks.cpg/sg40_8_cif.got.tgz:15351.got - 2010.06.03 18:35:42.
