data_PCOD9364852
_publ_section_title
;
Structure prediction by ZEFSAII (Michael W. Deem and Ramdas Pophale) SiO2 
 PCOD9364852
Probable space group: A M A 2
;
_chemical_formula_sum "Si O2"
_cell_formula_units_Z 28
_cell_length_a 13.717843
_cell_length_b 9.723849
_cell_length_c 9.875514
_cell_angle_alpha 90.000000
_cell_angle_beta 90.000000
_cell_angle_gamma 90.000000
_cell_volume 1317.297123
_symmetry_space_group_name_H-M "A M A 2"
_symmetry_group_IT_number 40
_symmetry_cell_setting 'orthorhombic'
loop_
_space_group_symop_operation_xyz
x,y,z
-x,-y,z
1/2-x,y,z
1/2+x,-y,z
x,1/2+y,1/2+z
-x,1/2-y,1/2+z
1/2-x,1/2+y,1/2+z
1/2+x,1/2-y,1/2+z
loop_
_atom_site_type_symbol
_atom_site_label
_atom_site_fract_x
_atom_site_fract_y
_atom_site_fract_z
Si Si1 0.750000 0.567616 0.366560
Si Si2 0.579098 0.824497 0.074494
Si Si3 0.463877 0.360231 0.295260
Si Si4 0.250000 0.966938 0.158326
Si Si5 0.750000 0.732781 0.912742
O O1 0.651828 0.625026 0.305187
O O2 0.750000 0.397812 0.368120
O O3 0.750000 0.619742 0.521006
O O4 0.512716 0.857261 0.943685
O O5 0.655364 0.717851 0.006752
O O6 0.515234 0.765952 0.196693
O O7 0.652034 0.939863 0.137356
O O8 0.500000 0.500000 0.227519
O O9 0.250000 0.872462 0.289481
#
# Coordination Sequence:
#
# PCOD9364852 Si02
#       5
#     4   8   8   4   4
#     4  10  22  40  64  94 129 176 207 275 325 386
#     4  10  25  41  67 100 130 174 217 270 324 389
#     4  12  23  44  66  96 135 167 221 269 327 389
#     4  10  21  43  69  95 134 170 218 269 327 386
#     4  10  21  43  67  97 131 174 221 258 330 388
#
# _framework density 21.255645000000001
#
# number of rings (size 3 to 8) (size 9 to 14) (size 15 to 20)
#    0.000    1.714    5.714    1.714    4.000    2.286 
#    0.000    2.857    0.000    0.000    0.000    0.000 
#    0.000    0.000    0.000    0.000    0.000    0.000 
#
# Total GULP energy -78013.147986 kJ/mol
# GULP energy per Si atom -5572.367713 kJ/mol
# Density = 2.120727 g / cm^3
# Si number density = 21.255645 Si / 1000 Ang^3
#
#
#
# Elastic Constant Matrix: (Units=GPa)
#
#
# Indices 1 2 3 4 5 6 
#
# 1 100.2452 18.3287 33.0042 0.0000 0.0000 0.0000
# 2 18.3287 50.8139 64.5255 0.0000 0.0000 0.0000
# 3 33.0042 64.5255 138.6629 0.0000 0.0000 0.0000
# 4 0.0000 0.0000 0.0000 48.7157 0.0000 0.0000
# 5 0.0000 0.0000 0.0000 0.0000 17.5220 0.0000
# 6 0.0000 0.0000 0.0000 0.0000 0.0000 15.5300
#
#
#
# Elastic Compliance Matrix: (Units=1/GPa)
#
#
# Indices 1 2 3 4 5 6 
#
# 1 0.010874 -0.001554 -0.001865 0.000000 0.000000 0.000000
# 2 -0.001554 0.048328 -0.022119 0.000000 0.000000 0.000000
# 3 -0.001865 -0.022119 0.017949 0.000000 0.000000 0.000000
# 4 0.000000 0.000000 0.000000 0.020527 0.000000 0.000000
# 5 0.000000 0.000000 0.000000 0.000000 0.057071 0.000000
# 6 0.000000 0.000000 0.000000 0.000000 0.000000 0.064391
#
#
# Mechanical properties :
#
#
# Convention : Reuss Voigt Hill
#
# Bulk Modulus (GPa) = 38.35220 57.93765 48.14492
# Shear Modulus (GPa) = 17.92710 27.94445 22.93577
#
# Velocity S-wave (km/s) = 2.90729 3.62979 3.28844
# Velocity P-wave (km/s) = 5.41777 6.69954 6.09246
#
# Compressibility (1/GPa) = 0.02607413
#
# Stress axis : x y z
#
# Youngs Moduli (GPa) = 91.96519 20.69200 55.71475
#
# Poissons Ratio (x) = 0.03215 0.10391
# Poissons Ratio (y) = 0.14290 1.23236
# Poissons Ratio (z) = 0.17152 0.45769
#
# Static dielectric constant tensor:
#      x y z
#    x 1.861790 0.000000 0.000000 
#    y 0.000000 1.834990 0.000000 
#    z 0.000000 0.000000 1.768560 
# 
# From -- ./inp_files/4911.got.cif
#   From: 2010.05.17/outbox.cif.g08.bks.cpg/sg40_3_cif.got.tgz:4911.got - 2010.06.03 18:35:42.
