data_PCOD9364087
_publ_section_title
;
Structure prediction by ZEFSAII (Michael W. Deem and Ramdas Pophale) SiO2 
 PCOD9364087
Probable space group: A M A 2
;
_chemical_formula_sum "Si O2"
_cell_formula_units_Z 48
_cell_length_a 17.901326
_cell_length_b 9.338867
_cell_length_c 12.863411
_cell_angle_alpha 90.000000
_cell_angle_beta 90.000000
_cell_angle_gamma 90.000000
_cell_volume 2150.480644
_symmetry_space_group_name_H-M "A M A 2"
_symmetry_group_IT_number 40
_symmetry_cell_setting 'orthorhombic'
loop_
_space_group_symop_operation_xyz
x,y,z
-x,-y,z
1/2-x,y,z
1/2+x,-y,z
x,1/2+y,1/2+z
-x,1/2-y,1/2+z
1/2-x,1/2+y,1/2+z
1/2+x,1/2-y,1/2+z
loop_
_atom_site_type_symbol
_atom_site_label
_atom_site_fract_x
_atom_site_fract_y
_atom_site_fract_z
Si Si1 0.338604 0.428498 0.723360
Si Si2 0.832681 0.964539 0.827616
Si Si3 0.333719 0.175495 0.593296
Si Si4 0.888414 0.248605 0.751996
Si Si5 0.048226 0.255048 0.864778
Si Si6 0.068825 0.429118 0.063150
O O1 0.250000 0.403873 0.738730
O O2 0.358286 0.338400 0.617743
O O3 0.355927 0.594896 0.733907
O O4 0.390530 0.353834 0.808047
O O5 0.750000 0.929039 0.870937
O O6 0.833812 0.899644 0.709035
O O7 0.905700 0.892693 0.878849
O O8 0.842933 0.135225 0.821683
O O9 0.250000 0.178452 0.553086
O O10 0.381610 0.063720 0.527590
O O11 0.888499 0.175603 0.638895
O O12 0.972676 0.250417 0.797984
O O13 0.034484 0.335231 0.972210
O O14 0.000000 0.500000 0.125164
#
# Coordination Sequence:
#
# PCOD9364087 Si02
#       6
#     8   8   8   8   8   8
#     4  10  20  37  59  85 118 159 198 244 301 360
#     4   9  18  36  59  84 115 155 194 237 292 354
#     4   8  17  34  57  81 110 148 192 236 289 353
#     4  11  21  38  62  88 121 157 197 251 305 362
#     4  11  22  38  59  85 119 159 203 247 298 362
#     4  11  22  37  59  85 114 154 204 251 303 361
#
# _framework density 22.320592000000001
#
# number of rings (size 3 to 8) (size 9 to 14) (size 15 to 20)
#    0.000    2.000    0.000    7.000    0.000    2.000 
#    0.000    8.333    0.000    4.000    0.000    0.000 
#    0.000    0.000    0.000    0.000    0.000    0.000 
#
# Total GULP energy -133857.486906 kJ/mol
# GULP energy per Si atom -5577.395288 kJ/mol
# Density = 2.226979 g / cm^3
# Si number density = 22.320592 Si / 1000 Ang^3
#
#
#
# Elastic Constant Matrix: (Units=GPa)
#
#
# Indices 1 2 3 4 5 6 
#
# 1 95.3203 41.2700 12.3017 0.0000 0.0000 0.0000
# 2 41.2700 159.5956 9.3733 0.0000 0.0000 0.0000
# 3 12.3017 9.3733 23.5175 0.0000 0.0000 0.0000
# 4 0.0000 0.0000 0.0000 17.5724 0.0000 0.0000
# 5 0.0000 0.0000 0.0000 0.0000 8.2755 0.0000
# 6 0.0000 0.0000 0.0000 0.0000 0.0000 32.1675
#
#
#
# Elastic Compliance Matrix: (Units=1/GPa)
#
#
# Indices 1 2 3 4 5 6 
#
# 1 0.012438 -0.002902 -0.005349 0.000000 0.000000 0.000000
# 2 -0.002902 0.007093 -0.001309 0.000000 0.000000 0.000000
# 3 -0.005349 -0.001309 0.045842 0.000000 0.000000 0.000000
# 4 0.000000 0.000000 0.000000 0.056907 0.000000 0.000000
# 5 0.000000 0.000000 0.000000 0.000000 0.120838 0.000000
# 6 0.000000 0.000000 0.000000 0.000000 0.000000 0.031087
#
#
# Mechanical properties :
#
#
# Convention : Reuss Voigt Hill
#
# Bulk Modulus (GPa) = 21.62095 44.92481 33.27288
# Shear Modulus (GPa) = 16.19466 25.96897 21.08182
#
# Velocity S-wave (km/s) = 2.69652 3.41464 3.07661
# Velocity P-wave (km/s) = 4.40483 5.97638 5.24975
#
# Compressibility (1/GPa) = 0.04625144
#
# Stress axis : x y z
#
# Youngs Moduli (GPa) = 80.39990 140.98031 21.81429
#
# Poissons Ratio (x) = 0.40914 0.11669
# Poissons Ratio (y) = 0.23333 0.02856
# Poissons Ratio (z) = 0.43009 0.18455
#
# Static dielectric constant tensor:
#      x y z
#    x 1.834220 0.000000 0.000000 
#    y 0.000000 1.886310 0.000000 
#    z 0.000000 0.000000 1.864720 
# 
# From -- ./inp_files/17658.got.cif
#   From: 2010.05.17/outbox.cif.g08.bks.cpg/sg40_9_cif.got.tgz:17658.got - 2010.06.03 18:35:42.
