data_PCOD9364652
_publ_section_title
;
Structure prediction by ZEFSAII (Michael W. Deem and Ramdas Pophale) SiO2 
 PCOD9364652
Probable space group: A M A 2
;
_chemical_formula_sum "Si O2"
_cell_formula_units_Z 64
_cell_length_a 28.067396
_cell_length_b 8.345040
_cell_length_c 12.683269
_cell_angle_alpha 90.000000
_cell_angle_beta 90.000000
_cell_angle_gamma 90.000000
_cell_volume 2970.720193
_symmetry_space_group_name_H-M "A M A 2"
_symmetry_group_IT_number 40
_symmetry_cell_setting 'orthorhombic'
loop_
_space_group_symop_operation_xyz
x,y,z
-x,-y,z
1/2-x,y,z
1/2+x,-y,z
x,1/2+y,1/2+z
-x,1/2-y,1/2+z
1/2-x,1/2+y,1/2+z
1/2+x,1/2-y,1/2+z
loop_
_atom_site_type_symbol
_atom_site_label
_atom_site_fract_x
_atom_site_fract_y
_atom_site_fract_z
Si Si1 0.992681 0.679055 0.502320
Si Si2 0.928577 0.646737 0.297063
Si Si3 0.304268 0.232916 0.447634
Si Si4 0.096290 0.323729 0.957520
Si Si5 0.549629 0.952428 0.597275
Si Si6 0.840378 0.434092 0.377334
Si Si7 0.127815 0.045797 0.283555
Si Si8 0.193647 0.790641 0.186275
O O1 0.963880 0.688202 0.392183
O O2 0.957916 0.765112 0.587420
O O3 0.000000 0.500000 0.538224
O O4 0.046808 0.735657 0.480864
O O5 0.952199 0.540807 0.207201
O O6 0.886986 0.532499 0.340788
O O7 0.906098 0.808950 0.248119
O O8 0.250000 0.179145 0.431553
O O9 0.307966 0.423295 0.421409
O O10 0.338258 0.131805 0.370974
O O11 0.316491 0.219084 0.570988
O O12 0.140160 0.200561 0.958522
O O13 0.097737 0.409285 0.844011
O O14 0.094506 0.471690 0.038889
O O15 0.500000 0.000000 0.537539
O O16 0.818579 0.336285 0.278942
O O17 0.161529 0.948964 0.204176
O O18 0.250000 0.828665 0.191036
#
# Coordination Sequence:
#
# PCOD9364652 Si02
#       8
#     8   8   8   8   8   8   8   8
#     4  11  21  41  64  83 129 170 205 264 319 360
#     4  11  22  38  64  88 123 165 209 257 309 368
#     4  10  22  41  65  90 123 165 202 254 324 382
#     4  10  21  39  61  88 123 164 206 257 312 361
#     4  10  23  38  59  89 119 164 212 253 307 373
#     4  10  22  37  61  91 121 159 207 262 303 372
#     4  10  22  40  64  94 124 164 205 262 310 376
#     4  10  22  41  63  92 126 160 204 258 315 381
#
# _framework density 21.543596000000001
#
# number of rings (size 3 to 8) (size 9 to 14) (size 15 to 20)
#    0.000    1.750    2.500    1.125    3.500    0.000 
#    0.000    1.250    0.000    7.500    0.000    0.000 
#    0.000    0.000    0.000    0.000    0.000    0.000 
#
# Total GULP energy -178483.639188 kJ/mol
# GULP energy per Si atom -5577.613725 kJ/mol
# Density = 2.149456 g / cm^3
# Si number density = 21.543596 Si / 1000 Ang^3
#
#
#
# Elastic Constant Matrix: (Units=GPa)
#
#
# Indices 1 2 3 4 5 6 
#
# 1 55.9883 27.1688 21.2425 0.0000 0.0000 0.0000
# 2 27.1688 83.4309 0.8462 0.0000 0.0000 0.0000
# 3 21.2425 0.8462 43.2051 0.0000 0.0000 0.0000
# 4 0.0000 0.0000 0.0000 24.4474 0.0000 0.0000
# 5 0.0000 0.0000 0.0000 0.0000 17.6352 0.0000
# 6 0.0000 0.0000 0.0000 0.0000 0.0000 36.1213
#
#
#
# Elastic Compliance Matrix: (Units=1/GPa)
#
#
# Indices 1 2 3 4 5 6 
#
# 1 0.027053 -0.008677 -0.013131 0.000000 0.000000 0.000000
# 2 -0.008677 0.014771 0.003977 0.000000 0.000000 0.000000
# 3 -0.013131 0.003977 0.029524 0.000000 0.000000 0.000000
# 4 0.000000 0.000000 0.000000 0.040904 0.000000 0.000000
# 5 0.000000 0.000000 0.000000 0.000000 0.056705 0.000000
# 6 0.000000 0.000000 0.000000 0.000000 0.000000 0.027684
#
#
# Mechanical properties :
#
#
# Convention : Reuss Voigt Hill
#
# Bulk Modulus (GPa) = 28.02232 31.23768 29.63000
# Shear Modulus (GPa) = 20.47507 24.53191 22.50349
#
# Velocity S-wave (km/s) = 3.08620 3.37814 3.23547
# Velocity P-wave (km/s) = 5.07297 5.45408 5.26697
#
# Compressibility (1/GPa) = 0.03568584
#
# Stress axis : x y z
#
# Youngs Moduli (GPa) = 36.96392 67.69966 33.87106
#
# Poissons Ratio (x) = 0.58740 0.44477
# Poissons Ratio (y) = 0.32072 -0.13470
# Poissons Ratio (z) = 0.48538 -0.26922
#
# Static dielectric constant tensor:
#      x y z
#    x 1.790440 0.000000 0.000000 
#    y 0.000000 2.018820 0.000000 
#    z 0.000000 0.000000 1.817100 
# 
# From -- ./inp_files/14416.got.cif
#   From: 2010.05.17/outbox.cif.g08.bks.cpg/sg40_8_cif.got.tgz:14416.got - 2010.06.03 18:35:42.
