data_PCOD9364247
_publ_section_title
;
Structure prediction by ZEFSAII (Michael W. Deem and Ramdas Pophale) SiO2 
 PCOD9364247
Probable space group: A M A 2
;
_chemical_formula_sum "Si O2"
_cell_formula_units_Z 56
_cell_length_a 19.832841
_cell_length_b 15.429539
_cell_length_c 9.586074
_cell_angle_alpha 90.000000
_cell_angle_beta 90.000000
_cell_angle_gamma 90.000000
_cell_volume 2933.449782
_symmetry_space_group_name_H-M "A M A 2"
_symmetry_group_IT_number 40
_symmetry_cell_setting 'orthorhombic'
loop_
_space_group_symop_operation_xyz
x,y,z
-x,-y,z
1/2-x,y,z
1/2+x,-y,z
x,1/2+y,1/2+z
-x,1/2-y,1/2+z
1/2-x,1/2+y,1/2+z
1/2+x,1/2-y,1/2+z
loop_
_atom_site_type_symbol
_atom_site_label
_atom_site_fract_x
_atom_site_fract_y
_atom_site_fract_z
Si Si1 0.676278 0.838244 0.617180
Si Si2 0.628624 0.324548 0.412729
Si Si3 0.575685 0.263178 0.905113
Si Si4 0.173139 0.137328 0.204317
Si Si5 0.173055 0.493744 0.940707
Si Si6 0.009861 0.898125 0.797764
Si Si7 0.561049 0.648217 0.987730
O O1 0.750000 0.815464 0.556903
O O2 0.677670 0.822969 0.781394
O O3 0.617826 0.783569 0.543949
O O4 0.664808 0.938017 0.569305
O O5 0.652463 0.379376 0.545130
O O6 0.562308 0.360493 0.338292
O O7 0.609502 0.231539 0.476487
O O8 0.622066 0.296283 0.778608
O O9 0.559010 0.161718 0.891411
O O10 0.506862 0.320781 0.906539
O O11 0.250000 0.170360 0.204889
O O12 0.170825 0.052751 0.302156
O O13 0.250000 0.456725 0.951030
O O14 0.109749 0.429403 0.938802
O O15 0.033677 0.877160 0.640692
O O16 0.000000 0.000000 0.818397
#
# Coordination Sequence:
#
# PCOD9364247 Si02
#       7
#     8   8   8   8   8   8   8
#     4  10  20  38  65  90 126 164 204 253 311 378
#     4  11  22  40  62  90 124 163 203 252 322 369
#     4  10  21  40  62  91 121 164 211 253 314 364
#     4  10  21  40  63  92 128 160 203 257 311 370
#     4   9  21  40  63  92 123 165 212 258 312 376
#     4  11  23  40  61  90 122 160 209 266 308 372
#     4  11  22  38  66  89 124 160 212 263 301 382
#
# _framework density 19.090150999999999
#
# number of rings (size 3 to 8) (size 9 to 14) (size 15 to 20)
#    0.000    1.714    2.857    2.571    2.000    1.143 
#    5.143    0.000    0.000    1.714    0.000    0.000 
#    0.000    0.000    0.000    0.000    0.000    0.000 
#
# Total GULP energy -155988.575728 kJ/mol
# GULP energy per Si atom -5571.020562 kJ/mol
# Density = 1.904670 g / cm^3
# Si number density = 19.090151 Si / 1000 Ang^3
#
#
#
# Elastic Constant Matrix: (Units=GPa)
#
#
# Indices 1 2 3 4 5 6 
#
# 1 112.7942 58.1196 46.2600 0.0000 0.0000 0.0000
# 2 58.1196 106.5441 32.3130 0.0000 0.0000 0.0000
# 3 46.2600 32.3130 114.9158 0.0000 0.0000 0.0000
# 4 0.0000 0.0000 0.0000 12.8662 0.0000 0.0000
# 5 0.0000 0.0000 0.0000 0.0000 20.2141 0.0000
# 6 0.0000 0.0000 0.0000 0.0000 0.0000 -9.2028
#
#
#
# Elastic Compliance Matrix: (Units=1/GPa)
#
#
# Indices 1 2 3 4 5 6 
#
# 1 0.013644 -0.006316 -0.003717 0.000000 0.000000 0.000000
# 2 -0.006316 0.013184 -0.001165 0.000000 0.000000 0.000000
# 3 -0.003717 -0.001165 0.010526 0.000000 0.000000 0.000000
# 4 0.000000 0.000000 0.000000 0.077723 0.000000 0.000000
# 5 0.000000 0.000000 0.000000 0.000000 0.049470 0.000000
# 6 0.000000 0.000000 0.000000 0.000000 0.000000 -0.108663
#
#
# Mechanical properties :
#
#
# Convention : Reuss Voigt Hill
#
# Bulk Modulus (GPa) = 66.84571 67.51547 67.18059
# Shear Modulus (GPa) = 60.04818 17.94626 38.99722
#
# Velocity S-wave (km/s) = 5.61457 3.06940 4.52463
# Velocity P-wave (km/s) = 8.78197 6.92857 7.90974
#
# Compressibility (1/GPa) = 0.01495982
#
# Stress axis : x y z
#
# Youngs Moduli (GPa) = 73.29038 75.84789 95.00525
#
# Poissons Ratio (x) = 0.47904 0.35311
# Poissons Ratio (y) = 0.46288 0.11066
# Poissons Ratio (z) = 0.27240 0.08835
#
# Static dielectric constant tensor:
#      x y z
#    x 1.694680 0.000000 0.000000 
#    y 0.000000 1.669410 0.000000 
#    z 0.000000 0.000000 1.687150 
# 
# From -- ./inp_files/8310.got.cif
#   From: 2010.05.17/outbox.cif.g08.bks.cpg/sg40_5_cif.got.tgz:8310.got - 2010.06.03 18:35:42.
