data_PCOD9364688
_publ_section_title
;
Structure prediction by ZEFSAII (Michael W. Deem and Ramdas Pophale) SiO2 
 PCOD9364688
Probable space group: A M A 2
;
_chemical_formula_sum "Si O2"
_cell_formula_units_Z 40
_cell_length_a 9.908269
_cell_length_b 24.765371
_cell_length_c 7.394582
_cell_angle_alpha 90.000000
_cell_angle_beta 90.000000
_cell_angle_gamma 90.000000
_cell_volume 1814.497008
_symmetry_space_group_name_H-M "A M A 2"
_symmetry_group_IT_number 40
_symmetry_cell_setting 'orthorhombic'
loop_
_space_group_symop_operation_xyz
x,y,z
-x,-y,z
1/2-x,y,z
1/2+x,-y,z
x,1/2+y,1/2+z
-x,1/2-y,1/2+z
1/2-x,1/2+y,1/2+z
1/2+x,1/2-y,1/2+z
loop_
_atom_site_type_symbol
_atom_site_label
_atom_site_fract_x
_atom_site_fract_y
_atom_site_fract_z
Si Si1 0.099040 0.851150 0.205050
Si Si2 0.906378 0.451043 0.790433
Si Si3 0.099885 0.547050 0.225355
Si Si4 0.999682 0.665392 0.331078
Si Si5 0.599723 0.764216 0.144034
O O1 0.250000 0.856044 0.281938
O O2 0.994611 0.898495 0.248506
O O3 0.015788 0.797205 0.251229
O O4 0.108252 0.848341 0.986803
O O5 0.750000 0.449483 0.725534
O O6 0.000000 0.500000 0.722469
O O7 0.898495 0.455937 0.007487
O O8 0.250000 0.535954 0.293294
O O9 0.000000 0.500000 0.289916
O O10 0.060859 0.608456 0.273133
O O11 0.940534 0.701683 0.169573
O O12 0.096244 0.704548 0.451715
O O13 0.750000 0.770826 0.221033
#
# Coordination Sequence:
#
# PCOD9364688 Si02
#       5
#     8   8   8   8   8
#     4  10  23  40  60  91 125 164 213 265 318 377
#     4  10  21  39  64  93 125 167 213 264 322 383
#     4  10  23  43  68  97 129 168 213 266 321 385
#     4  10  24  41  65  96 128 171 217 263 321 381
#     4  10  23  43  64  91 127 170 214 262 319 378
#
# _framework density 22.044678999999999
#
# number of rings (size 3 to 8) (size 9 to 14) (size 15 to 20)
#    1.200    0.800    0.000    2.400    2.800    4.800 
#    0.000    0.000    0.000    0.000    0.000    0.000 
#    0.000    0.000    0.000    0.000    0.000    0.000 
#
# Total GULP energy -111344.391045 kJ/mol
# GULP energy per Si atom -5567.219552 kJ/mol
# Density = 2.199450 g / cm^3
# Si number density = 22.044679 Si / 1000 Ang^3
#
#
#
# Elastic Constant Matrix: (Units=GPa)
#
#
# Indices 1 2 3 4 5 6 
#
# 1 233.4951 105.7391 23.8538 0.0000 0.0000 0.0000
# 2 105.7391 182.0119 16.7650 0.0000 0.0000 0.0000
# 3 23.8538 16.7650 67.7929 0.0000 0.0000 0.0000
# 4 0.0000 0.0000 0.0000 27.6975 0.0000 0.0000
# 5 0.0000 0.0000 0.0000 0.0000 18.1765 0.0000
# 6 0.0000 0.0000 0.0000 0.0000 0.0000 15.9799
#
#
#
# Elastic Compliance Matrix: (Units=1/GPa)
#
#
# Indices 1 2 3 4 5 6 
#
# 1 0.005915 -0.003320 -0.001260 0.000000 0.000000 0.000000
# 2 -0.003320 0.007486 -0.000683 0.000000 0.000000 0.000000
# 3 -0.001260 -0.000683 0.015363 0.000000 0.000000 0.000000
# 4 0.000000 0.000000 0.000000 0.036104 0.000000 0.000000
# 5 0.000000 0.000000 0.000000 0.000000 0.055016 0.000000
# 6 0.000000 0.000000 0.000000 0.000000 0.000000 0.062579
#
#
# Mechanical properties :
#
#
# Convention : Reuss Voigt Hill
#
# Bulk Modulus (GPa) = 54.83281 86.22397 70.52839
# Shear Modulus (GPa) = 25.11687 34.83357 29.97522
#
# Velocity S-wave (km/s) = 3.37911 3.97940 3.69148
# Velocity P-wave (km/s) = 6.33656 7.76611 7.08747
#
# Compressibility (1/GPa) = 0.01823726
#
# Stress axis : x y z
#
# Youngs Moduli (GPa) = 169.05934 133.58351 65.09093
#
# Poissons Ratio (x) = 0.44353 0.08203
# Poissons Ratio (y) = 0.56132 0.04446
# Poissons Ratio (z) = 0.21305 0.09123
#
# Static dielectric constant tensor:
#      x y z
#    x 1.815160 0.000000 0.000000 
#    y 0.000000 1.813210 0.000000 
#    z 0.000000 0.000000 1.868480 
# 
# From -- ./inp_files/4255.got.cif
#   From: 2010.05.17/outbox.cif.g08.bks.cpg/sg40_3_cif.got.tgz:4255.got - 2010.06.03 18:35:42.
