data_PCOD9364611
_publ_section_title
;
Structure prediction by ZEFSAII (Michael W. Deem and Ramdas Pophale) SiO2 
 PCOD9364611
Probable space group: A M A 2
;
_chemical_formula_sum "Si O2"
_cell_formula_units_Z 64
_cell_length_a 17.343952
_cell_length_b 16.367404
_cell_length_c 11.146193
_cell_angle_alpha 90.000000
_cell_angle_beta 90.000000
_cell_angle_gamma 90.000000
_cell_volume 3164.130769
_symmetry_space_group_name_H-M "A M A 2"
_symmetry_group_IT_number 40
_symmetry_cell_setting 'orthorhombic'
loop_
_space_group_symop_operation_xyz
x,y,z
-x,-y,z
1/2-x,y,z
1/2+x,-y,z
x,1/2+y,1/2+z
-x,1/2-y,1/2+z
1/2-x,1/2+y,1/2+z
1/2+x,1/2-y,1/2+z
loop_
_atom_site_type_symbol
_atom_site_label
_atom_site_fract_x
_atom_site_fract_y
_atom_site_fract_z
Si Si1 0.490847 0.913646 0.055460
Si Si2 0.159086 0.316835 0.581454
Si Si3 0.158681 0.486209 0.113727
Si Si4 0.841986 0.860067 0.458865
Si Si5 0.092511 0.242539 0.817496
Si Si6 0.430863 0.699645 0.746589
Si Si7 0.157509 0.305497 0.065734
Si Si8 0.068740 0.556762 0.299134
O O1 0.402877 0.883854 0.035411
O O2 0.530284 0.845270 0.134876
O O3 0.500000 0.000000 0.122175
O O4 0.539799 0.928620 0.934642
O O5 0.250000 0.337603 0.569369
O O6 0.144748 0.230274 0.514483
O O7 0.137437 0.298166 0.720426
O O8 0.250000 0.484812 0.099903
O O9 0.130170 0.399684 0.064141
O O10 0.139741 0.502677 0.253411
O O11 0.128938 0.564597 0.039586
O O12 0.750000 0.868328 0.447333
O O13 0.881985 0.859383 0.330284
O O14 0.091502 0.149843 0.768280
O O15 0.002414 0.265631 0.821871
O O16 0.129229 0.257592 0.947495
O O17 0.376805 0.767568 0.687336
O O18 0.250000 0.302269 0.069359
O O19 0.000000 0.500000 0.244061
#
# Coordination Sequence:
#
# PCOD9364611 Si02
#       8
#     8   8   8   8   8   8   8   8
#     4  10  23  42  61  92 128 167 219 272 325 394
#     4  10  21  40  67  94 128 173 223 275 334 400
#     4  10  23  41  64  95 131 165 216 274 332 395
#     4  10  21  38  62  92 126 169 215 265 328 400
#     4  11  22  38  67  95 125 173 225 273 331 406
#     4  11  23  39  62  89 131 169 215 265 331 393
#     4  11  24  43  64  97 133 172 219 279 340 401
#     4  11  21  39  64  93 127 167 217 279 331 389
#
# _framework density 20.226723
#
# number of rings (size 3 to 8) (size 9 to 14) (size 15 to 20)
#    0.000    1.500    2.500    2.250    1.750    4.500 
#    0.000    7.500    0.000    0.000    0.000    0.000 
#    0.000    0.000    0.000    0.000    0.000    0.000 
#
# Total GULP energy -178313.116435 kJ/mol
# GULP energy per Si atom -5572.284889 kJ/mol
# Density = 2.018069 g / cm^3
# Si number density = 20.226723 Si / 1000 Ang^3
#
#
#
# Elastic Constant Matrix: (Units=GPa)
#
#
# Indices 1 2 3 4 5 6 
#
# 1 66.9125 47.2698 40.4655 0.0000 0.0000 0.0000
# 2 47.2698 103.2490 11.3096 0.0000 0.0000 0.0000
# 3 40.4655 11.3096 57.8735 0.0000 0.0000 0.0000
# 4 0.0000 0.0000 0.0000 -3.9122 0.0000 0.0000
# 5 0.0000 0.0000 0.0000 0.0000 18.2289 0.0000
# 6 0.0000 0.0000 0.0000 0.0000 0.0000 18.1865
#
#
#
# Elastic Compliance Matrix: (Units=1/GPa)
#
#
# Indices 1 2 3 4 5 6 
#
# 1 0.042947 -0.016731 -0.026759 0.000000 0.000000 0.000000
# 2 -0.016731 0.016415 0.008491 0.000000 0.000000 0.000000
# 3 -0.026759 0.008491 0.034330 0.000000 0.000000 0.000000
# 4 0.000000 0.000000 0.000000 -0.255610 0.000000 0.000000
# 5 0.000000 0.000000 0.000000 0.000000 0.054858 0.000000
# 6 0.000000 0.000000 0.000000 0.000000 0.000000 0.054986
#
#
# Mechanical properties :
#
#
# Convention : Reuss Voigt Hill
#
# Bulk Modulus (GPa) = 42.20674 47.34718 44.77696
# Shear Modulus (GPa) = 193.61319 15.09997 104.35658
#
# Velocity S-wave (km/s) = 9.79435 2.73524 7.19065
# Velocity P-wave (km/s) = 12.19909 5.78225 9.54600
#
# Compressibility (1/GPa) = 0.02369290
#
# Stress axis : x y z
#
# Youngs Moduli (GPa) = 23.28430 60.91907 29.12886
#
# Poissons Ratio (x) = 1.01925 0.77947
# Poissons Ratio (y) = 0.38957 -0.24732
# Poissons Ratio (z) = 0.62308 -0.51725
#
# Static dielectric constant tensor:
#      x y z
#    x 1.719380 0.000000 0.000000 
#    y 0.000000 1.796790 0.000000 
#    z 0.000000 0.000000 1.738260 
# 
# From -- ./inp_files/13118.got.cif
#   From: 2010.05.17/outbox.cif.g08.bks.cpg/sg40_7_cif.got.tgz:13118.got - 2010.06.03 18:35:42.
