data_PCOD9364882
_publ_section_title
;
Structure prediction by ZEFSAII (Michael W. Deem and Ramdas Pophale) SiO2 
 PCOD9364882
Probable space group: A M A 2
;
_chemical_formula_sum "Si O2"
_cell_formula_units_Z 64
_cell_length_a 24.499236
_cell_length_b 5.078369
_cell_length_c 24.101393
_cell_angle_alpha 90.000000
_cell_angle_beta 90.000000
_cell_angle_gamma 90.000000
_cell_volume 2998.602783
_symmetry_space_group_name_H-M "A M A 2"
_symmetry_group_IT_number 40
_symmetry_cell_setting 'orthorhombic'
loop_
_space_group_symop_operation_xyz
x,y,z
-x,-y,z
1/2-x,y,z
1/2+x,-y,z
x,1/2+y,1/2+z
-x,1/2-y,1/2+z
1/2-x,1/2+y,1/2+z
1/2+x,1/2-y,1/2+z
loop_
_atom_site_type_symbol
_atom_site_label
_atom_site_fract_x
_atom_site_fract_y
_atom_site_fract_z
Si Si1 0.687456 0.298026 0.680440
Si Si2 0.415731 0.946908 0.916148
Si Si3 0.633012 0.459733 0.997681
Si Si4 0.874048 0.089325 0.279464
Si Si5 0.965211 0.257948 0.509340
Si Si6 0.685755 0.706315 0.893292
Si Si7 0.686731 0.312412 0.109019
Si Si8 0.441951 0.395579 0.291038
O O1 0.750000 0.236682 0.695907
O O2 0.662602 0.453812 0.732607
O O3 0.685208 0.520554 0.633221
O O4 0.664184 0.028211 0.653534
O O5 0.408504 0.721763 0.962073
O O6 0.452630 0.171255 0.944811
O O7 0.354090 0.045050 0.903480
O O8 0.441160 0.881081 0.857786
O O9 0.597258 0.695159 0.025179
O O10 0.675920 0.550997 0.950991
O O11 0.659030 0.317337 0.049423
O O12 0.926675 0.900665 0.275945
O O13 0.842029 0.073304 0.338739
O O14 0.895221 0.390011 0.274328
O O15 0.000000 0.500000 0.533148
O O16 0.000000 0.000000 0.519749
O O17 0.750000 0.756204 0.884384
O O18 0.750000 0.389390 0.100915
O O19 0.500000 0.500000 0.271066
#
# Coordination Sequence:
#
# PCOD9364882 Si02
#       8
#     8   8   8   8   8   8   8   8
#     4  10  22  42  67  92 120 164 212 256 306 370
#     4  10  22  37  57  90 128 169 207 243 315 379
#     4  11  22  39  60  92 130 164 209 257 321 376
#     4  11  22  42  63  94 123 161 208 259 311 375
#     4  11  22  36  59  85 118 165 208 255 303 362
#     4  10  22  36  57  93 132 167 195 250 321 387
#     4  10  23  40  64  93 122 165 212 254 305 369
#     4  11  23  38  63  93 127 161 209 258 315 376
#
# _framework density 21.343274999999998
#
# number of rings (size 3 to 8) (size 9 to 14) (size 15 to 20)
#    0.000    1.500    2.500    2.250    3.500    1.000 
#    0.000    1.250    0.000    7.500    0.000    0.000 
#    0.000    0.000    0.000    0.000    0.000    0.000 
#
# Total GULP energy -178342.640259 kJ/mol
# GULP energy per Si atom -5573.207508 kJ/mol
# Density = 2.129470 g / cm^3
# Si number density = 21.343275 Si / 1000 Ang^3
#
#
#
# Elastic Constant Matrix: (Units=GPa)
#
#
# Indices 1 2 3 4 5 6 
#
# 1 68.9527 5.6917 6.9670 0.0000 0.0000 0.0000
# 2 5.6917 84.6520 -3.3014 0.0000 0.0000 0.0000
# 3 6.9670 -3.3014 44.2954 0.0000 0.0000 0.0000
# 4 0.0000 0.0000 0.0000 21.1386 0.0000 0.0000
# 5 0.0000 0.0000 0.0000 0.0000 9.9770 0.0000
# 6 0.0000 0.0000 0.0000 0.0000 0.0000 26.0863
#
#
#
# Elastic Compliance Matrix: (Units=1/GPa)
#
#
# Indices 1 2 3 4 5 6 
#
# 1 0.014837 -0.001092 -0.002415 0.000000 0.000000 0.000000
# 2 -0.001092 0.011928 0.001061 0.000000 0.000000 0.000000
# 3 -0.002415 0.001061 0.023035 0.000000 0.000000 0.000000
# 4 0.000000 0.000000 0.000000 0.047307 0.000000 0.000000
# 5 0.000000 0.000000 0.000000 0.000000 0.100231 0.000000
# 6 0.000000 0.000000 0.000000 0.000000 0.000000 0.038334
#
#
# Mechanical properties :
#
#
# Convention : Reuss Voigt Hill
#
# Bulk Modulus (GPa) = 22.26815 24.06832 23.16824
# Shear Modulus (GPa) = 19.56698 24.00988 21.78843
#
# Velocity S-wave (km/s) = 3.03111 3.35765 3.19855
# Velocity P-wave (km/s) = 4.76510 5.13157 4.95173
#
# Compressibility (1/GPa) = 0.04490718
#
# Stress axis : x y z
#
# Youngs Moduli (GPa) = 67.39981 83.83750 43.41297
#
# Poissons Ratio (x) = 0.09153 0.10484
# Poissons Ratio (y) = 0.07358 -0.04605
# Poissons Ratio (z) = 0.16277 -0.08893
#
# Static dielectric constant tensor:
#      x y z
#    x 1.832370 0.000000 0.000000 
#    y 0.000000 1.860640 0.000000 
#    z 0.000000 0.000000 1.764580 
# 
# From -- ./inp_files/25045.got.cif
#   From: 2010.05.17/outbox.cif.g08.bks.cpg/sg40_13_cif.got.tgz:25045.got - 2010.06.03 18:35:42.
