data_PCOD9364263
_publ_section_title
;
Structure prediction by ZEFSAII (Michael W. Deem and Ramdas Pophale) SiO2 
 PCOD9364263
Probable space group: A M A 2
;
_chemical_formula_sum "Si O2"
_cell_formula_units_Z 44
_cell_length_a 13.872943
_cell_length_b 11.285836
_cell_length_c 10.391632
_cell_angle_alpha 90.000000
_cell_angle_beta 90.000000
_cell_angle_gamma 90.000000
_cell_volume 1626.994540
_symmetry_space_group_name_H-M "A M A 2"
_symmetry_group_IT_number 40
_symmetry_cell_setting 'orthorhombic'
loop_
_space_group_symop_operation_xyz
x,y,z
-x,-y,z
1/2-x,y,z
1/2+x,-y,z
x,1/2+y,1/2+z
-x,1/2-y,1/2+z
1/2-x,1/2+y,1/2+z
1/2+x,1/2-y,1/2+z
loop_
_atom_site_type_symbol
_atom_site_label
_atom_site_fract_x
_atom_site_fract_y
_atom_site_fract_z
Si Si1 0.455635 0.117784 0.445100
Si Si2 0.642991 0.161867 0.849768
Si Si3 0.250000 0.576981 0.677467
Si Si4 0.589309 0.583776 0.633475
Si Si5 0.057017 0.147444 0.722967
Si Si6 0.147381 0.223999 0.963522
O O1 0.377413 0.197125 0.371619
O O2 0.415515 0.089592 0.587649
O O3 0.549841 0.200872 0.470708
O O4 0.500000 0.000000 0.385874
O O5 0.750000 0.145859 0.795529
O O6 0.637592 0.111051 0.994167
O O7 0.551812 0.118341 0.768055
O O8 0.333449 0.482730 0.719167
O O9 0.168095 0.654543 0.594615
O O10 0.500000 0.500000 0.605770
O O11 0.562461 0.710804 0.693247
O O12 0.127117 0.133691 0.844901
O O13 0.250000 0.286690 0.936990
#
# Coordination Sequence:
#
# PCOD9364263 Si02
#       6
#     8   8   4   8   8   8
#     4  10  22  41  63  86 125 171 202 253 322 373
#     4  10  22  43  62  89 128 164 211 263 309 377
#     4  10  20  38  68  90 120 166 216 260 312 380
#     4  11  22  40  65  96 125 168 212 264 325 372
#     4  10  22  38  64  92 128 159 209 264 318 369
#     4   9  22  41  63  89 126 166 206 265 310 372
#
# _framework density 27.04373
#
# number of rings (size 3 to 8) (size 9 to 14) (size 15 to 20)
#    0.545    1.455    0.909    3.273    1.273    7.273 
#    1.636    0.000    0.000    0.000    0.000    0.000 
#    0.000    0.000    0.000    0.000    0.000    0.000 
#
# Total GULP energy -122731.466468 kJ/mol
# GULP energy per Si atom -5578.703021 kJ/mol
# Density = 2.698218 g / cm^3
# Si number density = 27.043730 Si / 1000 Ang^3
#
#
#
# Elastic Constant Matrix: (Units=GPa)
#
#
# Indices 1 2 3 4 5 6 
#
# 1 136.5260 7.6186 -1.3083 0.0000 0.0000 0.0000
# 2 7.6186 79.9942 -4.4977 0.0000 0.0000 0.0000
# 3 -1.3083 -4.4977 121.0018 0.0000 0.0000 0.0000
# 4 0.0000 0.0000 0.0000 41.9707 0.0000 0.0000
# 5 0.0000 0.0000 0.0000 0.0000 -0.6709 0.0000
# 6 0.0000 0.0000 0.0000 0.0000 0.0000 -38.7223
#
#
#
# Elastic Compliance Matrix: (Units=1/GPa)
#
#
# Indices 1 2 3 4 5 6 
#
# 1 0.007364 -0.000698 0.000054 0.000000 0.000000 0.000000
# 2 -0.000698 0.012593 0.000461 0.000000 0.000000 0.000000
# 3 0.000054 0.000461 0.008282 0.000000 0.000000 0.000000
# 4 0.000000 0.000000 0.000000 0.023826 0.000000 0.000000
# 5 0.000000 0.000000 0.000000 0.000000 -1.490446 0.000000
# 6 0.000000 0.000000 0.000000 0.000000 0.000000 -0.025825
#
#
# Mechanical properties :
#
#
# Convention : Reuss Voigt Hill
#
# Bulk Modulus (GPa) = 35.87934 37.90527 36.89231
# Shear Modulus (GPa) = -3.43750 22.89612 9.72931
#
# Velocity S-wave (km/s) = -1.12865 2.91285 1.89880
# Velocity P-wave (km/s) = 3.40551 5.03584 4.29867
#
# Compressibility (1/GPa) = 0.02787119
#
# Stress axis : x y z
#
# Youngs Moduli (GPa) = 135.79404 79.40728 120.74325
#
# Poissons Ratio (x) = 0.05545 -0.00648
# Poissons Ratio (y) = 0.09483 -0.05561
# Poissons Ratio (z) = -0.00729 -0.03657
#
# Static dielectric constant tensor:
#      x y z
#    x 1.961680 0.000000 0.000000 
#    y 0.000000 2.238360 0.000000 
#    z 0.000000 0.000000 2.220290 
# 
# From -- ./inp_files/16924.got.cif
#   From: 2010.05.17/outbox.cif.g08.bks.cpg/sg40_9_cif.got.tgz:16924.got - 2010.06.03 18:35:42.
