data_PCOD9364787
_publ_section_title
;
Structure prediction by ZEFSAII (Michael W. Deem and Ramdas Pophale) SiO2 
 PCOD9364787
Probable space group: A M A 2
;
_chemical_formula_sum "Si O2"
_cell_formula_units_Z 52
_cell_length_a 18.049684
_cell_length_b 9.330673
_cell_length_c 15.966577
_cell_angle_alpha 90.000000
_cell_angle_beta 90.000000
_cell_angle_gamma 90.000000
_cell_volume 2689.022229
_symmetry_space_group_name_H-M "A M A 2"
_symmetry_group_IT_number 40
_symmetry_cell_setting 'orthorhombic'
loop_
_space_group_symop_operation_xyz
x,y,z
-x,-y,z
1/2-x,y,z
1/2+x,-y,z
x,1/2+y,1/2+z
-x,1/2-y,1/2+z
1/2-x,1/2+y,1/2+z
1/2+x,1/2-y,1/2+z
loop_
_atom_site_type_symbol
_atom_site_label
_atom_site_fract_x
_atom_site_fract_y
_atom_site_fract_z
Si Si1 0.436429 0.800653 0.548020
Si Si2 0.333140 0.030670 0.080679
Si Si3 0.836127 0.983022 0.446251
Si Si4 0.914044 0.689067 0.469855
Si Si5 0.116646 0.003848 0.260427
Si Si6 0.000000 0.500000 0.347154
Si Si7 0.000858 0.742016 0.730210
O O1 0.378542 0.669815 0.551833
O O2 0.391923 0.934530 0.509484
O O3 0.506414 0.759927 0.490548
O O4 0.471144 0.805590 0.641647
O O5 0.250000 0.028833 0.046798
O O6 0.331135 0.030365 0.181396
O O7 0.379221 0.895105 0.047825
O O8 0.750000 0.003685 0.468981
O O9 0.849828 0.033367 0.350436
O O10 0.858309 0.815705 0.446813
O O11 0.934185 0.566656 0.402622
O O12 0.062775 0.877319 0.228580
O O13 0.068644 0.149918 0.269089
O O14 0.975056 0.369997 0.288816
#
# Coordination Sequence:
#
# PCOD9364787 Si02
#       7
#     8   8   8   8   8   4   8
#     4  11  23  42  66  94 125 168 221 267 314 391
#     4  11  22  40  65  92 131 174 210 265 332 389
#     4  12  26  42  64  97 133 172 215 271 335 387
#     4  12  23  42  63  95 129 166 220 268 318 383
#     4  10  21  41  63  93 130 168 218 269 318 389
#     4  12  22  38  62  96 120 162 212 276 318 364
#     4  10  22  38  64  96 124 164 223 270 318 373
#
# _framework density 19.337883999999999
#
# number of rings (size 3 to 8) (size 9 to 14) (size 15 to 20)
#    0.000    0.923    4.615    2.769    4.308    0.000 
#    0.000    0.000    0.000    0.000    0.000    0.000 
#    0.000    0.000    0.000    0.000    0.000    0.000 
#
# Total GULP energy -145093.676531 kJ/mol
# GULP energy per Si atom -5580.526020 kJ/mol
# Density = 1.929387 g / cm^3
# Si number density = 19.337884 Si / 1000 Ang^3
#
#
#
# Elastic Constant Matrix: (Units=GPa)
#
#
# Indices 1 2 3 4 5 6 
#
# 1 100.4430 42.5175 18.5745 0.0000 0.0000 0.0000
# 2 42.5175 83.2825 44.2998 0.0000 0.0000 0.0000
# 3 18.5745 44.2998 80.8626 0.0000 0.0000 0.0000
# 4 0.0000 0.0000 0.0000 24.6573 0.0000 0.0000
# 5 0.0000 0.0000 0.0000 0.0000 10.0205 0.0000
# 6 0.0000 0.0000 0.0000 0.0000 0.0000 14.3992
#
#
#
# Elastic Compliance Matrix: (Units=1/GPa)
#
#
# Indices 1 2 3 4 5 6 
#
# 1 0.012747 -0.006986 0.000899 0.000000 0.000000 0.000000
# 2 -0.006986 0.020774 -0.009776 0.000000 0.000000 0.000000
# 3 0.000899 -0.009776 0.017516 0.000000 0.000000 0.000000
# 4 0.000000 0.000000 0.000000 0.040556 0.000000 0.000000
# 5 0.000000 0.000000 0.000000 0.000000 0.099795 0.000000
# 6 0.000000 0.000000 0.000000 0.000000 0.000000 0.069448
#
#
# Mechanical properties :
#
#
# Convention : Reuss Voigt Hill
#
# Bulk Modulus (GPa) = 51.78407 52.81904 52.30156
# Shear Modulus (GPa) = 16.72253 20.42850 18.57551
#
# Velocity S-wave (km/s) = 2.94386 3.25375 3.10268
# Velocity P-wave (km/s) = 6.19611 6.44119 6.31984
#
# Compressibility (1/GPa) = 0.01931096
#
# Stress axis : x y z
#
# Youngs Moduli (GPa) = 78.45185 48.13761 57.09109
#
# Poissons Ratio (x) = 0.33627 -0.05133
# Poissons Ratio (y) = 0.54804 0.55813
# Poissons Ratio (z) = -0.07053 0.47060
#
# Static dielectric constant tensor:
#      x y z
#    x 1.669200 0.000000 0.000000 
#    y 0.000000 1.660570 0.000000 
#    z 0.000000 0.000000 1.715720 
# 
# From -- ./inp_files/21064.got.cif
#   From: 2010.05.17/outbox.cif.g08.bks.cpg/sg40_11_cif.got.tgz:21064.got - 2010.06.03 18:35:42.
