data_PCOD9364622
_publ_section_title
;
Structure prediction by ZEFSAII (Michael W. Deem and Ramdas Pophale) SiO2 
 PCOD9364622
Probable space group: A M A 2
;
_chemical_formula_sum "Si O2"
_cell_formula_units_Z 36
_cell_length_a 14.612684
_cell_length_b 5.423124
_cell_length_c 19.537285
_cell_angle_alpha 90.000000
_cell_angle_beta 90.000000
_cell_angle_gamma 90.000000
_cell_volume 1548.259449
_symmetry_space_group_name_H-M "A M A 2"
_symmetry_group_IT_number 40
_symmetry_cell_setting 'orthorhombic'
loop_
_space_group_symop_operation_xyz
x,y,z
-x,-y,z
1/2-x,y,z
1/2+x,-y,z
x,1/2+y,1/2+z
-x,1/2-y,1/2+z
1/2-x,1/2+y,1/2+z
1/2+x,1/2-y,1/2+z
loop_
_atom_site_type_symbol
_atom_site_label
_atom_site_fract_x
_atom_site_fract_y
_atom_site_fract_z
Si Si1 0.611533 0.517068 0.190800
Si Si2 0.389747 0.983453 0.116863
Si Si3 0.500000 0.000000 0.423914
Si Si4 0.152189 0.162064 0.975767
Si Si5 0.601160 0.617671 0.343945
O O1 0.500000 0.500000 0.190280
O O2 0.640878 0.253290 0.160572
O O3 0.639561 0.578710 0.268665
O O4 0.640966 0.751682 0.146166
O O5 0.500000 0.000000 0.119416
O O6 0.358736 0.973764 0.038496
O O7 0.559459 0.177984 0.472094
O O8 0.423098 0.112882 0.372990
O O9 0.250000 0.295391 0.983859
O O10 0.152703 0.020498 0.904023
O O11 0.500000 0.500000 0.341922
#
# Coordination Sequence:
#
# PCOD9364622 Si02
#       5
#     8   8   4   8   8
#     4   9  20  35  65  96 129 166 219 275 345 413
#     4  10  21  38  63  97 128 172 218 277 345 413
#     4  10  22  40  72 100 134 182 238 294 354 422
#     4  11  25  42  64  96 136 185 238 292 351 424
#     4   9  20  38  65  94 127 169 222 279 342 414
#
# _framework density 23.251916000000001
#
# number of rings (size 3 to 8) (size 9 to 14) (size 15 to 20)
#    0.000    2.222    0.000    2.000   18.667    0.889 
#    0.000    2.222    0.000    0.000    0.000    0.000 
#    0.000    0.000    0.000    0.000    0.000    0.000 
#
# Total GULP energy -100486.115322 kJ/mol
# GULP energy per Si atom -5582.561962 kJ/mol
# Density = 2.319899 g / cm^3
# Si number density = 23.251916 Si / 1000 Ang^3
#
#
#
# Elastic Constant Matrix: (Units=GPa)
#
#
# Indices 1 2 3 4 5 6 
#
# 1 109.5416 22.0941 26.0814 0.0000 0.0000 0.0000
# 2 22.0941 111.8338 43.5959 0.0000 0.0000 0.0000
# 3 26.0814 43.5959 132.2012 0.0000 0.0000 0.0000
# 4 0.0000 0.0000 0.0000 26.7376 0.0000 0.0000
# 5 0.0000 0.0000 0.0000 0.0000-1296.0443 0.0000
# 6 0.0000 0.0000 0.0000 0.0000 0.0000 -0.8641
#
#
#
# Elastic Compliance Matrix: (Units=1/GPa)
#
#
# Indices 1 2 3 4 5 6 
#
# 1 0.009753 -0.001350 -0.001479 0.000000 0.000000 0.000000
# 2 -0.001350 0.010448 -0.003179 0.000000 0.000000 0.000000
# 3 -0.001479 -0.003179 0.008904 0.000000 0.000000 0.000000
# 4 0.000000 0.000000 0.000000 0.037400 0.000000 0.000000
# 5 0.000000 0.000000 0.000000 0.000000 -0.000772 0.000000
# 6 0.000000 0.000000 0.000000 0.000000 0.000000 -1.157242
#
#
# Mechanical properties :
#
#
# Convention : Reuss Voigt Hill
#
# Bulk Modulus (GPa) = 58.51678 59.67991 59.09835
# Shear Modulus (GPa) = -4.65638 -236.58048 -120.61843
#
# Velocity S-wave (km/s) = -1.41666 -10.09790 -7.21022
# Velocity P-wave (km/s) = 4.74817 10.49925 6.62152
#
# Compressibility (1/GPa) = 0.01708911
#
# Stress axis : x y z
#
# Youngs Moduli (GPa) = 102.52798 95.71318 112.30502
#
# Poissons Ratio (x) = 0.12925 0.16609
# Poissons Ratio (y) = 0.13845 0.35702
# Poissons Ratio (z) = 0.15163 0.30427
#
# Static dielectric constant tensor:
#      x y z
#    x 2.460280 0.000000 0.000000 
#    y 0.000000 1.969360 0.000000 
#    z 0.000000 0.000000 1.836750 
# 
# From -- ./inp_files/22944.got.cif
#   From: 2010.05.17/outbox.cif.g08.bks.cpg/sg40_12_cif.got.tgz:22944.got - 2010.06.03 18:35:42.
