data_PCOD9364989
_publ_section_title
;
Structure prediction by ZEFSAII (Michael W. Deem and Ramdas Pophale) SiO2 
 PCOD9364989
Probable space group: A M A 2
;
_chemical_formula_sum "Si O2"
_cell_formula_units_Z 32
_cell_length_a 9.709291
_cell_length_b 28.799339
_cell_length_c 5.246899
_cell_angle_alpha 90.000000
_cell_angle_beta 90.000000
_cell_angle_gamma 90.000000
_cell_volume 1467.144000
_symmetry_space_group_name_H-M "A M A 2"
_symmetry_group_IT_number 40
_symmetry_cell_setting 'orthorhombic'
loop_
_space_group_symop_operation_xyz
x,y,z
-x,-y,z
1/2-x,y,z
1/2+x,-y,z
x,1/2+y,1/2+z
-x,1/2-y,1/2+z
1/2-x,1/2+y,1/2+z
1/2+x,1/2-y,1/2+z
loop_
_atom_site_type_symbol
_atom_site_label
_atom_site_fract_x
_atom_site_fract_y
_atom_site_fract_z
Si Si1 0.901573 0.399303 0.074470
Si Si2 0.404510 0.959359 0.283124
Si Si3 0.410668 0.263261 0.477676
Si Si4 0.512809 0.134900 0.079057
O O1 0.750000 0.418572 0.034989
O O2 0.913664 0.375005 0.343713
O O3 0.014105 0.439575 0.030044
O O4 0.934190 0.362740 0.848837
O O5 0.250000 0.974626 0.332054
O O6 0.403481 0.913026 0.110900
O O7 0.500000 0.000000 0.174538
O O8 0.250000 0.246542 0.470127
O O9 0.503624 0.245048 0.715698
O O10 0.405905 0.318765 0.523468
#
# Coordination Sequence:
#
# PCOD9364989 Si02
#       4
#     8   8   8   8
#     4  10  22  40  67  97 131 173 222 274 330 395
#     4  10  23  42  67  99 136 177 225 274 333 402
#     4  12  27  47  72 105 142 185 235 292 353 418
#     4  10  24  43  70  96 138 176 222 273 341 402
#
# _framework density 21.811084999999999
#
# number of rings (size 3 to 8) (size 9 to 14) (size 15 to 20)
#    1.500    0.000    0.000    4.500    0.000    9.000 
#    0.000    0.000    0.000    0.000    0.000    0.000 
#    0.000    0.000    0.000    0.000    0.000    0.000 
#
# Total GULP energy -89132.252051 kJ/mol
# GULP energy per Si atom -5570.765753 kJ/mol
# Density = 2.176144 g / cm^3
# Si number density = 21.811085 Si / 1000 Ang^3
#
#
#
# Elastic Constant Matrix: (Units=GPa)
#
#
# Indices 1 2 3 4 5 6 
#
# 1 192.4772 21.5330 29.7218 0.0000 0.0000 0.0000
# 2 21.5330 78.1434 -20.1011 0.0000 0.0000 0.0000
# 3 29.7218 -20.1011 91.8829 0.0000 0.0000 0.0000
# 4 0.0000 0.0000 0.0000 10.5801 0.0000 0.0000
# 5 0.0000 0.0000 0.0000 0.0000 9.7963 0.0000
# 6 0.0000 0.0000 0.0000 0.0000 0.0000 12.1087
#
#
#
# Elastic Compliance Matrix: (Units=1/GPa)
#
#
# Indices 1 2 3 4 5 6 
#
# 1 0.005807 -0.002208 -0.002361 0.000000 0.000000 0.000000
# 2 -0.002208 0.014399 0.003864 0.000000 0.000000 0.000000
# 3 -0.002361 0.003864 0.012493 0.000000 0.000000 0.000000
# 4 0.000000 0.000000 0.000000 0.094517 0.000000 0.000000
# 5 0.000000 0.000000 0.000000 0.000000 0.102079 0.000000
# 6 0.000000 0.000000 0.000000 0.000000 0.000000 0.082585
#
#
# Mechanical properties :
#
#
# Convention : Reuss Voigt Hill
#
# Bulk Modulus (GPa) = 31.95963 47.20121 39.58042
# Shear Modulus (GPa) = 15.44545 28.58701 22.01623
#
# Velocity S-wave (km/s) = 2.66399 3.62424 3.18056
# Velocity P-wave (km/s) = 4.91398 6.26110 5.62799
#
# Compressibility (1/GPa) = 0.03128947
#
# Stress axis : x y z
#
# Youngs Moduli (GPa) = 172.20510 69.44777 80.04713
#
# Poissons Ratio (x) = 0.15331 0.18902
# Poissons Ratio (y) = 0.38016 -0.30932
# Poissons Ratio (z) = 0.40664 -0.26836
#
# Static dielectric constant tensor:
#      x y z
#    x 1.780240 0.000000 0.000000 
#    y 0.000000 1.834950 0.000000 
#    z 0.000000 0.000000 1.801900 
# 
# From -- ./inp_files/328.got.cif
#   From: 2010.05.17/outbox.cif.g08.bks.cpg/sg40_1_cif.got.tgz:328.got - 2010.06.03 18:35:42.
