data_PCOD9364020
_publ_section_title
;
Structure prediction by ZEFSAII (Michael W. Deem and Ramdas Pophale) SiO2 
 PCOD9364020
Probable space group: A M A 2
;
_chemical_formula_sum "Si O2"
_cell_formula_units_Z 40
_cell_length_a 18.558101
_cell_length_b 12.340991
_cell_length_c 8.043931
_cell_angle_alpha 90.000000
_cell_angle_beta 90.000000
_cell_angle_gamma 90.000000
_cell_volume 1842.264172
_symmetry_space_group_name_H-M "A M A 2"
_symmetry_group_IT_number 40
_symmetry_cell_setting 'orthorhombic'
loop_
_space_group_symop_operation_xyz
x,y,z
-x,-y,z
1/2-x,y,z
1/2+x,-y,z
x,1/2+y,1/2+z
-x,1/2-y,1/2+z
1/2-x,1/2+y,1/2+z
1/2+x,1/2-y,1/2+z
loop_
_atom_site_type_symbol
_atom_site_label
_atom_site_fract_x
_atom_site_fract_y
_atom_site_fract_z
Si Si1 0.568624 0.198785 0.835140
Si Si2 0.334633 0.395683 0.619778
Si Si3 0.166813 0.658599 0.249942
Si Si4 0.665292 0.868170 0.139138
Si Si5 0.970978 0.391096 0.054562
O O1 0.620427 0.274914 0.725830
O O2 0.519347 0.127912 0.717239
O O3 0.615841 0.128109 0.961153
O O4 0.522332 0.284867 0.941228
O O5 0.250000 0.403433 0.570821
O O6 0.341908 0.288824 0.732126
O O7 0.353358 0.510728 0.701165
O O8 0.250000 0.632269 0.209120
O O9 0.153159 0.628899 0.440705
O O10 0.111205 0.605930 0.120829
O O11 0.750000 0.848330 0.168106
O O12 0.000000 0.500000 0.971902
#
# Coordination Sequence:
#
# PCOD9364020 Si02
#       5
#     8   8   8   8   8
#     4  11  23  37  57  84 117 152 192 235 281 338
#     4   9  19  37  60  86 117 152 189 233 282 334
#     4   9  19  38  61  84 113 148 189 235 281 337
#     4  10  20  36  60  87 115 151 192 233 281 334
#     4  11  24  40  59  85 116 151 190 234 287 339
#
# _framework density 21.712415
#
# number of rings (size 3 to 8) (size 9 to 14) (size 15 to 20)
#    0.000    2.000    0.000    3.000    0.000    5.600 
#    0.000    2.000    0.000   10.800    0.000    0.000 
#    0.000    0.000    0.000    0.000    0.000    0.000 
#
# Total GULP energy -111840.939215 kJ/mol
# GULP energy per Si atom -5592.046961 kJ/mol
# Density = 2.166300 g / cm^3
# Si number density = 21.712415 Si / 1000 Ang^3
#
#
#
# Elastic Constant Matrix: (Units=GPa)
#
#
# Indices 1 2 3 4 5 6 
#
# 1 54.6232 39.2776 8.0276 0.0000 0.0000 0.0000
# 2 39.2776 68.2167 8.3395 0.0000 0.0000 0.0000
# 3 8.0276 8.3395 22.8963 0.0000 0.0000 0.0000
# 4 0.0000 0.0000 0.0000 5.6282 0.0000 0.0000
# 5 0.0000 0.0000 0.0000 0.0000 35.2275 0.0000
# 6 0.0000 0.0000 0.0000 0.0000 0.0000 21.1134
#
#
#
# Elastic Compliance Matrix: (Units=1/GPa)
#
#
# Indices 1 2 3 4 5 6 
#
# 1 0.031714 -0.017688 -0.004676 0.000000 0.000000 0.000000
# 2 -0.017688 0.025208 -0.002980 0.000000 0.000000 0.000000
# 3 -0.004676 -0.002980 0.046400 0.000000 0.000000 0.000000
# 4 0.000000 0.000000 0.000000 0.177675 0.000000 0.000000
# 5 0.000000 0.000000 0.000000 0.000000 0.028387 0.000000
# 6 0.000000 0.000000 0.000000 0.000000 0.000000 0.047363
#
#
# Mechanical properties :
#
#
# Convention : Reuss Voigt Hill
#
# Bulk Modulus (GPa) = 18.99964 28.55841 23.77902
# Shear Modulus (GPa) = 11.76525 18.39991 15.08258
#
# Velocity S-wave (km/s) = 2.33033 2.91424 2.63849
# Velocity P-wave (km/s) = 4.00127 4.95028 4.50086
#
# Compressibility (1/GPa) = 0.05263259
#
# Stress axis : x y z
#
# Youngs Moduli (GPa) = 31.53231 39.67007 21.55165
#
# Poissons Ratio (x) = 0.70169 0.10079
# Poissons Ratio (y) = 0.55775 0.06422
# Poissons Ratio (z) = 0.14746 0.11821
#
# Static dielectric constant tensor:
#      x y z
#    x 1.793900 0.000000 0.000000 
#    y 0.000000 1.774140 0.000000 
#    z 0.000000 0.000000 1.766090 
# 
# From -- ./inp_files/8102.got.cif
#   From: 2010.05.17/outbox.cif.g08.bks.cpg/sg40_5_cif.got.tgz:8102.got - 2010.06.03 18:35:42.
