data_PCOD9364341
_publ_section_title
;
Structure prediction by ZEFSAII (Michael W. Deem and Ramdas Pophale) SiO2 
 PCOD9364341
Probable space group: A M A 2
;
_chemical_formula_sum "Si O2"
_cell_formula_units_Z 64
_cell_length_a 15.397520
_cell_length_b 15.698582
_cell_length_c 12.583676
_cell_angle_alpha 90.000000
_cell_angle_beta 90.000000
_cell_angle_gamma 90.000000
_cell_volume 3041.716477
_symmetry_space_group_name_H-M "A M A 2"
_symmetry_group_IT_number 40
_symmetry_cell_setting 'orthorhombic'
loop_
_space_group_symop_operation_xyz
x,y,z
-x,-y,z
1/2-x,y,z
1/2+x,-y,z
x,1/2+y,1/2+z
-x,1/2-y,1/2+z
1/2-x,1/2+y,1/2+z
1/2+x,1/2-y,1/2+z
loop_
_atom_site_type_symbol
_atom_site_label
_atom_site_fract_x
_atom_site_fract_y
_atom_site_fract_z
Si Si1 0.901453 0.533229 0.663810
Si Si2 0.398420 0.020712 0.386203
Si Si3 0.854551 0.294827 0.388587
Si Si4 0.144575 0.276317 0.666765
Si Si5 0.353342 0.861649 0.774535
Si Si6 0.146539 0.861992 0.532932
Si Si7 0.144697 0.714279 0.933438
Si Si8 0.396975 0.511154 0.433527
O O1 0.859633 0.491400 0.767911
O O2 0.898739 0.632993 0.684929
O O3 0.860591 0.517760 0.548272
O O4 0.000000 0.500000 0.656126
O O5 0.385128 0.118019 0.417172
O O6 0.500000 0.000000 0.378002
O O7 0.364749 0.950598 0.469629
O O8 0.750000 0.288888 0.391192
O O9 0.880619 0.281517 0.266233
O O10 0.888400 0.217859 0.463394
O O11 0.878544 0.389361 0.422324
O O12 0.250000 0.286692 0.667779
O O13 0.119147 0.243124 0.551434
O O14 0.250000 0.848139 0.766061
O O15 0.388637 0.864861 0.653860
O O16 0.387693 0.783003 0.846363
O O17 0.364675 0.949424 0.839762
O O18 0.250000 0.848947 0.541183
O O19 0.250000 0.714687 0.929464
O O20 0.500000 0.500000 0.433469
#
# Coordination Sequence:
#
# PCOD9364341 Si02
#       8
#     8   8   8   8   8   8   8   8
#     4  10  22  42  60  90 124 158 204 251 304 354
#     4  11  24  41  60  90 123 162 203 244 303 364
#     4  10  22  40  63  90 118 157 204 251 302 356
#     4  10  20  40  67  90 118 159 209 254 295 353
#     4  10  22  41  62  88 122 157 199 253 303 353
#     4  10  22  41  62  88 122 157 199 253 303 353
#     4  10  22  40  63  90 118 157 204 251 302 356
#     4  11  24  41  60  90 123 162 203 244 303 364
#
# _framework density 21.040751
#
# number of rings (size 3 to 8) (size 9 to 14) (size 15 to 20)
#    0.000    1.750    2.500    0.750    3.500    2.500 
#    0.000    0.000    0.000    0.000    0.000    0.000 
#    0.000    0.000    0.000    0.000    0.000    0.000 
#
# Total GULP energy -178708.696068 kJ/mol
# GULP energy per Si atom -5584.646752 kJ/mol
# Density = 2.099286 g / cm^3
# Si number density = 21.040751 Si / 1000 Ang^3
#
#
#
# Elastic Constant Matrix: (Units=GPa)
#
#
# Indices 1 2 3 4 5 6 
#
# 1 16.1359 -9.7655 11.5347 0.0000 0.0000 0.0000
# 2 -9.7655 104.9517 32.8507 0.0000 0.0000 0.0000
# 3 11.5347 32.8507 143.5985 0.0000 0.0000 0.0000
# 4 0.0000 0.0000 0.0000 47.4369 0.0000 0.0000
# 5 0.0000 0.0000 0.0000 0.0000 17.8105 0.0000
# 6 0.0000 0.0000 0.0000 0.0000 0.0000 29.3993
#
#
#
# Elastic Compliance Matrix: (Units=1/GPa)
#
#
# Indices 1 2 3 4 5 6 
#
# 1 0.073367 0.009340 -0.008030 0.000000 0.000000 0.000000
# 2 0.009340 0.011452 -0.003370 0.000000 0.000000 0.000000
# 3 -0.008030 -0.003370 0.008380 0.000000 0.000000 0.000000
# 4 0.000000 0.000000 0.000000 0.021081 0.000000 0.000000
# 5 0.000000 0.000000 0.000000 0.000000 0.056147 0.000000
# 6 0.000000 0.000000 0.000000 0.000000 0.000000 0.034014
#
#
# Mechanical properties :
#
#
# Convention : Reuss Voigt Hill
#
# Bulk Modulus (GPa) = 11.22606 37.10287 24.16446
# Shear Modulus (GPa) = 20.98609 34.26710 27.62660
#
# Velocity S-wave (km/s) = 3.16159 4.03998 3.62747
# Velocity P-wave (km/s) = 4.32140 6.27965 5.39020
#
# Compressibility (1/GPa) = 0.08907847
#
# Stress axis : x y z
#
# Youngs Moduli (GPa) = 13.63019 87.31987 119.33380
#
# Poissons Ratio (x) = -0.81557 0.95825
# Poissons Ratio (y) = -0.12731 0.40217
# Poissons Ratio (z) = 0.10945 0.29428
#
# Static dielectric constant tensor:
#      x y z
#    x 1.783890 0.000000 0.000000 
#    y 0.000000 1.726460 0.000000 
#    z 0.000000 0.000000 1.805290 
# 
# From -- ./inp_files/13137.got.cif
#   From: 2010.05.17/outbox.cif.g08.bks.cpg/sg40_7_cif.got.tgz:13137.got - 2010.06.03 18:35:42.
