data_PCOD9364074
_publ_section_title
;
Structure prediction by ZEFSAII (Michael W. Deem and Ramdas Pophale) SiO2 
 PCOD9364074
Probable space group: A M A 2
;
_chemical_formula_sum "Si O2"
_cell_formula_units_Z 60
_cell_length_a 9.446461
_cell_length_b 25.771242
_cell_length_c 12.401897
_cell_angle_alpha 90.000000
_cell_angle_beta 90.000000
_cell_angle_gamma 90.000000
_cell_volume 3019.205022
_symmetry_space_group_name_H-M "A M A 2"
_symmetry_group_IT_number 40
_symmetry_cell_setting 'orthorhombic'
loop_
_space_group_symop_operation_xyz
x,y,z
-x,-y,z
1/2-x,y,z
1/2+x,-y,z
x,1/2+y,1/2+z
-x,1/2-y,1/2+z
1/2-x,1/2+y,1/2+z
1/2+x,1/2-y,1/2+z
loop_
_atom_site_type_symbol
_atom_site_label
_atom_site_fract_x
_atom_site_fract_y
_atom_site_fract_z
Si Si1 0.583250 0.445586 0.399580
Si Si2 0.416412 0.623656 0.617058
Si Si3 0.412793 0.450214 0.758779
Si Si4 0.471143 0.432395 0.005423
Si Si5 0.750000 0.992643 0.567201
Si Si6 0.416417 0.815619 0.555446
Si Si7 0.583026 0.713781 0.506127
Si Si8 0.914526 0.644779 0.293701
O O1 0.500000 0.500000 0.399832
O O2 0.750000 0.453847 0.376150
O O3 0.570908 0.416409 0.515623
O O4 0.514920 0.404364 0.316545
O O5 0.250000 0.630337 0.639354
O O6 0.502051 0.598678 0.715055
O O7 0.492409 0.676805 0.584572
O O8 0.500000 0.500000 0.719336
O O9 0.250000 0.451130 0.722011
O O10 0.416208 0.451387 0.888247
O O11 0.626868 0.451163 0.031024
O O12 0.371104 0.462296 0.088521
O O13 0.449707 0.371269 0.004473
O O14 0.250000 0.803087 0.540254
O O15 0.514653 0.770330 0.510692
O O16 0.442617 0.826193 0.682074
O O17 0.750000 0.714480 0.533405
O O18 0.568055 0.686011 0.390284
O O19 0.750000 0.627707 0.295324
#
# Coordination Sequence:
#
# PCOD9364074 Si02
#       8
#     8   8   8   8   4   8   8   8
#     4  10  20  37  57  85 118 156 196 243 293 348
#     4  10  22  37  59  84 115 158 203 247 301 349
#     4  12  21  34  55  87 122 161 200 245 295 353
#     4  11  21  39  59  86 122 162 194 239 294 348
#     4  10  20  40  60  80 122 164 194 240 292 348
#     4  11  23  41  64  91 117 154 197 239 292 352
#     4  10  22  42  63  85 117 152 195 250 295 345
#     4   9  21  42  63  85 115 152 194 242 293 343
#
# _framework density 19.872782000000001
#
# number of rings (size 3 to 8) (size 9 to 14) (size 15 to 20)
#    0.000    1.600    2.667    2.000    1.867    4.800 
#    2.400    2.667    0.000    0.000    0.000    0.000 
#    0.000    0.000    0.000    0.000    0.000    0.000 
#
# Total GULP energy -167064.744567 kJ/mol
# GULP energy per Si atom -5568.824819 kJ/mol
# Density = 1.982755 g / cm^3
# Si number density = 19.872782 Si / 1000 Ang^3
#
#
#
# Elastic Constant Matrix: (Units=GPa)
#
#
# Indices 1 2 3 4 5 6 
#
# 1 183.6713 50.3101 21.5594 0.0000 0.0000 0.0000
# 2 50.3101 78.3261 8.0695 0.0000 0.0000 0.0000
# 3 21.5594 8.0695 23.3013 0.0000 0.0000 0.0000
# 4 0.0000 0.0000 0.0000 17.2600 0.0000 0.0000
# 5 0.0000 0.0000 0.0000 0.0000-1830.9573 0.0000
# 6 0.0000 0.0000 0.0000 0.0000 0.0000 43.0131
#
#
#
# Elastic Compliance Matrix: (Units=1/GPa)
#
#
# Indices 1 2 3 4 5 6 
#
# 1 0.007173 -0.004068 -0.005227 0.000000 0.000000 0.000000
# 2 -0.004068 0.015547 -0.001620 0.000000 0.000000 0.000000
# 3 -0.005227 -0.001620 0.048314 0.000000 0.000000 0.000000
# 4 0.000000 0.000000 0.000000 0.057937 0.000000 0.000000
# 5 0.000000 0.000000 0.000000 0.000000 -0.000546 0.000000
# 6 0.000000 0.000000 0.000000 0.000000 0.000000 0.023249
#
#
# Mechanical properties :
#
#
# Convention : Reuss Voigt Hill
#
# Bulk Modulus (GPa) = 20.32437 49.46408 34.89422
# Shear Modulus (GPa) = 26.32889 -340.44618 -157.05864
#
# Velocity S-wave (km/s) = 3.64383 -13.10285 -8.89964
# Velocity P-wave (km/s) = 5.28704 14.28176 9.38125
#
# Compressibility (1/GPa) = 0.04920202
#
# Stress axis : x y z
#
# Youngs Moduli (GPa) = 139.42131 64.32002 20.69808
#
# Poissons Ratio (x) = 0.26168 0.10820
# Poissons Ratio (y) = 0.56723 0.03353
# Poissons Ratio (z) = 0.72880 0.10419
#
# Static dielectric constant tensor:
#      x y z
#    x 8.892570 0.000000 0.000000 
#    y 0.000000 1.698930 0.000000 
#    z 0.000000 0.000000 1.778760 
# 
# From -- ./inp_files/15500.got.cif
#   From: 2010.05.17/outbox.cif.g08.bks.cpg/sg40_8_cif.got.tgz:15500.got - 2010.06.03 18:35:42.
