data_PCOD9364923
_publ_section_title
;
Structure prediction by ZEFSAII (Michael W. Deem and Ramdas Pophale) SiO2 
 PCOD9364923
Probable space group: A M A 2
;
_chemical_formula_sum "Si O2"
_cell_formula_units_Z 64
_cell_length_a 8.424595
_cell_length_b 14.539001
_cell_length_c 25.195671
_cell_angle_alpha 90.000000
_cell_angle_beta 90.000000
_cell_angle_gamma 90.000000
_cell_volume 3086.096679
_symmetry_space_group_name_H-M "A M A 2"
_symmetry_group_IT_number 40
_symmetry_cell_setting 'orthorhombic'
loop_
_space_group_symop_operation_xyz
x,y,z
-x,-y,z
1/2-x,y,z
1/2+x,-y,z
x,1/2+y,1/2+z
-x,1/2-y,1/2+z
1/2-x,1/2+y,1/2+z
1/2+x,1/2-y,1/2+z
loop_
_atom_site_type_symbol
_atom_site_label
_atom_site_fract_x
_atom_site_fract_y
_atom_site_fract_z
Si Si1 0.558695 0.396476 0.566350
Si Si2 0.439705 0.714995 0.897191
Si Si3 0.941541 0.603456 0.345331
Si Si4 0.557682 0.604978 0.113451
Si Si5 0.938413 0.605038 0.795553
Si Si6 0.558349 0.217773 0.510877
Si Si7 0.558256 0.105696 0.728203
Si Si8 0.440141 0.105653 0.184463
O O1 0.500000 0.500000 0.558204
O O2 0.750000 0.398903 0.566118
O O3 0.505280 0.322304 0.523259
O O4 0.511558 0.361781 0.625652
O O5 0.250000 0.712795 0.896397
O O6 0.494552 0.820259 0.887114
O O7 0.500197 0.656733 0.847427
O O8 0.498637 0.683335 0.954432
O O9 0.750000 0.600732 0.345344
O O10 0.994906 0.637555 0.286447
O O11 0.000000 0.500000 0.354324
O O12 0.500000 0.500000 0.110684
O O13 0.750000 0.606414 0.113220
O O14 0.503407 0.658554 0.061378
O O15 0.506799 0.645288 0.171136
O O16 0.250000 0.396054 0.794983
O O17 0.996957 0.647409 0.739341
O O18 0.000000 0.500000 0.797777
O O19 0.750000 0.216252 0.510298
O O20 0.750000 0.109153 0.728626
O O21 0.500000 0.000000 0.726807
O O22 0.250000 0.108642 0.187157
O O23 0.500000 0.000000 0.184931
#
# Coordination Sequence:
#
# PCOD9364923 Si02
#       8
#     8   8   8   8   8   8   8   8
#     4   9  19  35  57  82 111 146 183 225 277 331
#     4  11  24  40  56  79 109 146 191 235 276 325
#     4   9  19  35  57  82 110 142 177 219 270 323
#     4   9  18  33  55  79 105 135 169 210 262 317
#     4  11  22  38  60  85 113 146 181 226 280 336
#     4  10  22  39  55  76 106 145 189 230 272 322
#     4   8  14  28  51  79 106 133 166 208 258 318
#     4   9  16  30  54  84 114 143 177 221 273 334
#
# _framework density 20.738171000000001
#
# number of rings (size 3 to 8) (size 9 to 14) (size 15 to 20)
#    0.000    2.500    0.000    2.625    0.000    4.500 
#    0.000    7.500    0.000    4.500    0.000    0.000 
#    0.000    0.000    0.000    0.000    0.000    0.000 
#
# Total GULP energy -178501.463276 kJ/mol
# GULP energy per Si atom -5578.170727 kJ/mol
# Density = 2.069097 g / cm^3
# Si number density = 20.738171 Si / 1000 Ang^3
#
#
#
# Elastic Constant Matrix: (Units=GPa)
#
#
# Indices 1 2 3 4 5 6 
#
# 1 30.0585 -0.0397 15.3631 0.0000 0.0000 0.0000
# 2 -0.0397 37.1212 5.5096 0.0000 0.0000 0.0000
# 3 15.3631 5.5096 97.7468 0.0000 0.0000 0.0000
# 4 0.0000 0.0000 0.0000 33.2613 0.0000 0.0000
# 5 0.0000 0.0000 0.0000 0.0000 16.2560 0.0000
# 6 0.0000 0.0000 0.0000 0.0000 0.0000 18.0978
#
#
#
# Elastic Compliance Matrix: (Units=1/GPa)
#
#
# Indices 1 2 3 4 5 6 
#
# 1 0.036204 0.000891 -0.005740 0.000000 0.000000 0.000000
# 2 0.000891 0.027188 -0.001672 0.000000 0.000000 0.000000
# 3 -0.005740 -0.001672 0.011227 0.000000 0.000000 0.000000
# 4 0.000000 0.000000 0.000000 0.030065 0.000000 0.000000
# 5 0.000000 0.000000 0.000000 0.000000 0.061516 0.000000
# 6 0.000000 0.000000 0.000000 0.000000 0.000000 0.055255
#
#
# Mechanical properties :
#
#
# Convention : Reuss Voigt Hill
#
# Bulk Modulus (GPa) = 16.24053 22.95470 19.59762
# Shear Modulus (GPa) = 19.60601 23.12925 21.36763
#
# Velocity S-wave (km/s) = 3.07808 3.34323 3.21339
# Velocity P-wave (km/s) = 4.52560 5.09861 4.82062
#
# Compressibility (1/GPa) = 0.06157436
#
# Stress axis : x y z
#
# Youngs Moduli (GPa) = 27.62152 36.78101 89.07084
#
# Poissons Ratio (x) = -0.03276 0.51130
# Poissons Ratio (y) = -0.02460 0.14897
# Poissons Ratio (z) = 0.15856 0.06152
#
# Static dielectric constant tensor:
#      x y z
#    x 1.754310 0.000000 0.000000 
#    y 0.000000 1.738930 0.000000 
#    z 0.000000 0.000000 1.768200 
# 
# From -- ./inp_files/24303.got.cif
#   From: 2010.05.17/outbox.cif.g08.bks.cpg/sg40_13_cif.got.tgz:24303.got - 2010.06.03 18:35:42.
