data_PCOD9364968
_publ_section_title
;
Structure prediction by ZEFSAII (Michael W. Deem and Ramdas Pophale) SiO2 
 PCOD9364968
Probable space group: A M A 2
;
_chemical_formula_sum "Si O2"
_cell_formula_units_Z 64
_cell_length_a 8.688742
_cell_length_b 15.803015
_cell_length_c 24.198364
_cell_angle_alpha 90.000000
_cell_angle_beta 90.000000
_cell_angle_gamma 90.000000
_cell_volume 3322.636711
_symmetry_space_group_name_H-M "A M A 2"
_symmetry_group_IT_number 40
_symmetry_cell_setting 'orthorhombic'
loop_
_space_group_symop_operation_xyz
x,y,z
-x,-y,z
1/2-x,y,z
1/2+x,-y,z
x,1/2+y,1/2+z
-x,1/2-y,1/2+z
1/2-x,1/2+y,1/2+z
1/2+x,1/2-y,1/2+z
loop_
_atom_site_type_symbol
_atom_site_label
_atom_site_fract_x
_atom_site_fract_y
_atom_site_fract_z
Si Si1 0.935504 0.343488 0.804660
Si Si2 0.434340 0.911248 0.919929
Si Si3 0.566073 0.256667 0.988495
Si Si4 0.064118 0.751884 0.611131
Si Si5 0.934591 0.589542 0.189372
Si Si6 0.935105 0.409192 0.683935
Si Si7 0.434169 0.652999 0.305033
Si Si8 0.433271 0.410951 0.918120
O O1 0.750000 0.339628 0.807493
O O2 0.981142 0.386301 0.746759
O O3 0.001043 0.248530 0.806175
O O4 0.999631 0.393236 0.857145
O O5 0.250000 0.915776 0.915883
O O6 0.475246 0.831698 0.958605
O O7 0.503750 0.893527 0.859453
O O8 0.500000 0.000000 0.941175
O O9 0.750000 0.266707 0.984443
O O10 0.486755 0.333591 0.956267
O O11 0.513002 0.255669 0.051625
O O12 0.250000 0.750320 0.604935
O O13 0.025703 0.833601 0.648314
O O14 0.016643 0.667453 0.644189
O O15 0.750000 0.585759 0.194054
O O16 0.000000 0.500000 0.169522
O O17 0.004723 0.609554 0.249393
O O18 0.750000 0.412377 0.682958
O O19 0.000000 0.500000 0.667716
O O20 0.250000 0.653787 0.305451
O O21 0.500000 0.500000 0.938645
O O22 0.250000 0.414634 0.915672
#
# Coordination Sequence:
#
# PCOD9364968 Si02
#       8
#     8   8   8   8   8   8   8   8
#     4  11  21  39  64  93 131 168 205 255 313 375
#     4  11  24  42  65  92 128 166 208 260 314 376
#     4  11  25  44  66  92 124 165 212 266 317 370
#     4  10  23  44  65  87 123 168 210 260 316 370
#     4  11  23  42  65  92 127 165 206 257 314 374
#     4  10  22  40  63  92 126 166 205 252 310 366
#     4  12  23  37  63  96 128 166 207 253 312 378
#     4  12  25  42  66  96 129 168 210 258 313 376
#
# _framework density 19.261810000000001
#
# number of rings (size 3 to 8) (size 9 to 14) (size 15 to 20)
#    0.000    1.000    2.500    4.500    0.000    6.000 
#    0.000    3.750    0.000    0.000    0.000    0.000 
#    0.000    0.000    0.000    0.000    0.000    0.000 
#
# Total GULP energy -179058.147716 kJ/mol
# GULP energy per Si atom -5595.567116 kJ/mol
# Density = 1.921797 g / cm^3
# Si number density = 19.261810 Si / 1000 Ang^3
#
#
#
# Elastic Constant Matrix: (Units=GPa)
#
#
# Indices 1 2 3 4 5 6 
#
# 1 88.4130 61.6846 51.1331 0.0000 0.0000 0.0000
# 2 61.6846 175.5820 57.7595 0.0000 0.0000 0.0000
# 3 51.1331 57.7595 120.8702 0.0000 0.0000 0.0000
# 4 0.0000 0.0000 0.0000 -6.1373 0.0000 0.0000
# 5 0.0000 0.0000 0.0000 0.0000 36.0424 0.0000
# 6 0.0000 0.0000 0.0000 0.0000 0.0000 106.3064
#
#
#
# Elastic Compliance Matrix: (Units=1/GPa)
#
#
# Indices 1 2 3 4 5 6 
#
# 1 0.017420 -0.004385 -0.005274 0.000000 0.000000 0.000000
# 2 -0.004385 0.007861 -0.001902 0.000000 0.000000 0.000000
# 3 -0.005274 -0.001902 0.011413 0.000000 0.000000 0.000000
# 4 0.000000 0.000000 0.000000 -0.162938 0.000000 0.000000
# 5 0.000000 0.000000 0.000000 0.000000 0.027745 0.000000
# 6 0.000000 0.000000 0.000000 0.000000 0.000000 0.009407
#
#
# Mechanical properties :
#
#
# Convention : Reuss Voigt Hill
#
# Bulk Modulus (GPa) = 73.67342 80.66883 77.17112
# Shear Modulus (GPa) = -81.37315 41.52817 -19.92249
#
# Velocity S-wave (km/s) = -6.50673 4.64830 -3.21954
# Velocity P-wave (km/s) = 4.25660 8.41308 5.13134
#
# Compressibility (1/GPa) = 0.01357342
#
# Stress axis : x y z
#
# Youngs Moduli (GPa) = 57.40497 127.20326 87.61799
#
# Poissons Ratio (x) = 0.55779 0.46210
# Poissons Ratio (y) = 0.25172 0.16662
# Poissons Ratio (z) = 0.30275 0.24190
#
# Static dielectric constant tensor:
#      x y z
#    x 1.645370 0.000000 0.000000 
#    y 0.000000 1.683430 0.000000 
#    z 0.000000 0.000000 1.641160 
# 
# From -- ./inp_files/24258.got.cif
#   From: 2010.05.17/outbox.cif.g08.bks.cpg/sg40_13_cif.got.tgz:24258.got - 2010.06.03 18:35:42.
