data_PCOD9364202
_publ_section_title
;
Structure prediction by ZEFSAII (Michael W. Deem and Ramdas Pophale) SiO2 
 PCOD9364202
Probable space group: A M A 2
;
_chemical_formula_sum "Si O2"
_cell_formula_units_Z 24
_cell_length_a 15.119043
_cell_length_b 14.667951
_cell_length_c 4.876918
_cell_angle_alpha 90.000000
_cell_angle_beta 90.000000
_cell_angle_gamma 90.000000
_cell_volume 1081.531583
_symmetry_space_group_name_H-M "A M A 2"
_symmetry_group_IT_number 40
_symmetry_cell_setting 'orthorhombic'
loop_
_space_group_symop_operation_xyz
x,y,z
-x,-y,z
1/2-x,y,z
1/2+x,-y,z
x,1/2+y,1/2+z
-x,1/2-y,1/2+z
1/2-x,1/2+y,1/2+z
1/2+x,1/2-y,1/2+z
loop_
_atom_site_type_symbol
_atom_site_label
_atom_site_fract_x
_atom_site_fract_y
_atom_site_fract_z
Si Si1 0.403700 0.953660 0.311630
Si Si2 0.153895 0.555979 0.309479
Si Si3 0.503021 0.191277 0.660109
O O1 0.423345 0.861218 0.477430
O O2 0.500000 0.000000 0.304665
O O3 0.344926 0.015932 0.506084
O O4 0.366954 0.970256 0.009188
O O5 0.250000 0.595720 0.380506
O O6 0.071090 0.625491 0.297677
O O7 0.459780 0.253503 0.420318
#
# Coordination Sequence:
#
# PCOD9364202 Si02
#       3
#     8   8   8
#     4  10  20  38  62  84 113 160 208 239 289 373
#     4  11  22  39  61  88 121 161 207 256 299 351
#     4  11  22  39  63  90 123 161 203 251 309 372
#
# _framework density 22.190753999999998
#
# number of rings (size 3 to 8) (size 9 to 14) (size 15 to 20)
#    0.000    1.333    0.000   10.000    0.000    0.000 
#    0.000   10.000    0.000    0.000    0.000    0.000 
#    0.000    0.000    0.000    0.000    0.000    0.000 
#
# Total GULP energy -66834.495115 kJ/mol
# GULP energy per Si atom -5569.541260 kJ/mol
# Density = 2.214025 g / cm^3
# Si number density = 22.190754 Si / 1000 Ang^3
#
#
#
# Elastic Constant Matrix: (Units=GPa)
#
#
# Indices 1 2 3 4 5 6 
#
# 1 82.6469 12.0475 12.4394 0.0000 0.0000 0.0000
# 2 12.0475 63.9874 28.9856 0.0000 0.0000 0.0000
# 3 12.4394 28.9856 141.9350 0.0000 0.0000 0.0000
# 4 0.0000 0.0000 0.0000 56.8705 0.0000 0.0000
# 5 0.0000 0.0000 0.0000 0.0000 -48.6374 0.0000
# 6 0.0000 0.0000 0.0000 0.0000 0.0000 5.6022
#
#
#
# Elastic Compliance Matrix: (Units=1/GPa)
#
#
# Indices 1 2 3 4 5 6 
#
# 1 0.012500 -0.002047 -0.000678 0.000000 0.000000 0.000000
# 2 -0.002047 0.017556 -0.003406 0.000000 0.000000 0.000000
# 3 -0.000678 -0.003406 0.007800 0.000000 0.000000 0.000000
# 4 0.000000 0.000000 0.000000 0.017584 0.000000 0.000000
# 5 0.000000 0.000000 0.000000 0.000000 -0.020560 0.000000
# 6 0.000000 0.000000 0.000000 0.000000 0.000000 0.178500
#
#
# Mechanical properties :
#
#
# Convention : Reuss Voigt Hill
#
# Bulk Modulus (GPa) = 39.06779 43.94602 41.50691
# Shear Modulus (GPa) = 21.35181 18.44018 19.89599
#
# Velocity S-wave (km/s) = 3.10529 2.88581 2.99756
# Velocity P-wave (km/s) = 5.52275 5.56333 5.54307
#
# Compressibility (1/GPa) = 0.02559653
#
# Stress axis : x y z
#
# Youngs Moduli (GPa) = 80.00011 56.95983 128.19836
#
# Poissons Ratio (x) = 0.11657 0.08686
# Poissons Ratio (y) = 0.16372 0.43663
# Poissons Ratio (z) = 0.05421 0.19400
#
# Static dielectric constant tensor:
#      x y z
#    x 6.952000 0.000000 0.000000 
#    y 0.000000 1.932340 0.000000 
#    z 0.000000 0.000000 1.788010 
# 
# From -- ./inp_files/501.got.cif
#   From: 2010.05.17/outbox.cif.g08.bks.cpg/sg40_1_cif.got.tgz:501.got - 2010.06.03 18:35:42.
