data_PCOD9364039
_publ_section_title
;
Structure prediction by ZEFSAII (Michael W. Deem and Ramdas Pophale) SiO2 
 PCOD9364039
Probable space group: A M A 2
;
_chemical_formula_sum "Si O2"
_cell_formula_units_Z 60
_cell_length_a 20.074166
_cell_length_b 20.119972
_cell_length_c 8.302169
_cell_angle_alpha 90.000000
_cell_angle_beta 90.000000
_cell_angle_gamma 90.000000
_cell_volume 3353.176801
_symmetry_space_group_name_H-M "A M A 2"
_symmetry_group_IT_number 40
_symmetry_cell_setting 'orthorhombic'
loop_
_space_group_symop_operation_xyz
x,y,z
-x,-y,z
1/2-x,y,z
1/2+x,-y,z
x,1/2+y,1/2+z
-x,1/2-y,1/2+z
1/2-x,1/2+y,1/2+z
1/2+x,1/2-y,1/2+z
loop_
_atom_site_type_symbol
_atom_site_label
_atom_site_fract_x
_atom_site_fract_y
_atom_site_fract_z
Si Si1 0.675924 0.297877 0.669310
Si Si2 0.912101 0.398640 0.244368
Si Si3 0.067794 0.465727 0.719698
Si Si4 0.573661 0.188387 0.172410
Si Si5 0.673357 0.448091 0.536675
Si Si6 0.549460 0.272766 0.461407
Si Si7 0.500000 0.500000 0.040602
Si Si8 0.827204 0.294259 0.052949
O O1 0.750000 0.271986 0.624893
O O2 0.674666 0.375054 0.617282
O O3 0.613540 0.267529 0.576460
O O4 0.667563 0.290834 0.860226
O O5 0.865989 0.440459 0.367762
O O6 0.943322 0.339086 0.351775
O O7 0.866470 0.358321 0.118152
O O8 0.964919 0.444509 0.151317
O O9 0.074811 0.390404 0.662227
O O10 0.130811 0.505863 0.655327
O O11 0.000000 0.500000 0.651102
O O12 0.054527 0.470967 0.912572
O O13 0.550069 0.208855 0.349516
O O14 0.640730 0.228473 0.131918
O O15 0.518106 0.219093 0.056733
O O16 0.750000 0.469465 0.514408
O O17 0.750000 0.300027 0.098109
#
# Coordination Sequence:
#
# PCOD9364039 Si02
#       8
#     8   8   8   8   8   8   4   8
#     4   9  18  36  61  86 116 153 196 241 288 349
#     4  10  21  36  60  91 118 156 196 258 292 360
#     4  10  23  39  58  84 119 161 201 243 301 367
#     4  11  23  36  58  83 115 151 193 246 297 355
#     4  10  20  36  61  88 119 159 202 245 298 363
#     4  10  22  34  57  84 115 149 197 241 302 346
#     4  10  24  36  62  86 124 156 204 244 312 358
#     4  10  21  38  60  87 120 156 198 246 298 353
#
# _framework density 17.89348
#
# number of rings (size 3 to 8) (size 9 to 14) (size 15 to 20)
#    0.400    1.600    0.000    3.600    8.400    3.733 
#    0.000    0.667    0.000    0.000    0.000    0.000 
#    0.000    0.000    0.000    0.000    0.000    0.000 
#
# Total GULP energy -167321.342344 kJ/mol
# GULP energy per Si atom -5577.378078 kJ/mol
# Density = 1.785275 g / cm^3
# Si number density = 17.893480 Si / 1000 Ang^3
#
#
#
# Elastic Constant Matrix: (Units=GPa)
#
#
# Indices 1 2 3 4 5 6 
#
# 1 66.6276 24.7417 12.5917 0.0000 0.0000 0.0000
# 2 24.7417 54.7513 8.7782 0.0000 0.0000 0.0000
# 3 12.5917 8.7782 47.1191 0.0000 0.0000 0.0000
# 4 0.0000 0.0000 0.0000 18.8541 0.0000 0.0000
# 5 0.0000 0.0000 0.0000 0.0000 29.2811 0.0000
# 6 0.0000 0.0000 0.0000 0.0000 0.0000 18.7459
#
#
#
# Elastic Compliance Matrix: (Units=1/GPa)
#
#
# Indices 1 2 3 4 5 6 
#
# 1 0.018581 -0.007834 -0.003506 0.000000 0.000000 0.000000
# 2 -0.007834 0.022130 -0.002029 0.000000 0.000000 0.000000
# 3 -0.003506 -0.002029 0.022538 0.000000 0.000000 0.000000
# 4 0.000000 0.000000 0.000000 0.053039 0.000000 0.000000
# 5 0.000000 0.000000 0.000000 0.000000 0.034152 0.000000
# 6 0.000000 0.000000 0.000000 0.000000 0.000000 0.053345
#
#
# Mechanical properties :
#
#
# Convention : Reuss Voigt Hill
#
# Bulk Modulus (GPa) = 27.39004 28.96903 28.17953
# Shear Modulus (GPa) = 20.60220 21.53531 21.06876
#
# Velocity S-wave (km/s) = 3.39688 3.47295 3.43513
# Velocity P-wave (km/s) = 5.54306 5.68390 5.61392
#
# Compressibility (1/GPa) = 0.03650963
#
# Stress axis : x y z
#
# Youngs Moduli (GPa) = 53.81963 45.18743 44.37009
#
# Poissons Ratio (x) = 0.35401 0.15555
# Poissons Ratio (y) = 0.42164 0.09004
# Poissons Ratio (z) = 0.18868 0.09170
#
# Static dielectric constant tensor:
#      x y z
#    x 1.610640 0.000000 0.000000 
#    y 0.000000 1.589960 0.000000 
#    z 0.000000 0.000000 1.626840 
# 
# From -- ./inp_files/7679.got.cif
#   From: 2010.05.17/outbox.cif.g08.bks.cpg/sg40_4_cif.got.tgz:7679.got - 2010.06.03 18:35:42.
