data_PCOD9364700
_publ_section_title
;
Structure prediction by ZEFSAII (Michael W. Deem and Ramdas Pophale) SiO2 
 PCOD9364700
Probable space group: A M A 2
;
_chemical_formula_sum "Si O2"
_cell_formula_units_Z 64
_cell_length_a 8.790673
_cell_length_b 31.253571
_cell_length_c 12.086194
_cell_angle_alpha 90.000000
_cell_angle_beta 90.000000
_cell_angle_gamma 90.000000
_cell_volume 3320.560006
_symmetry_space_group_name_H-M "A M A 2"
_symmetry_group_IT_number 40
_symmetry_cell_setting 'orthorhombic'
loop_
_space_group_symop_operation_xyz
x,y,z
-x,-y,z
1/2-x,y,z
1/2+x,-y,z
x,1/2+y,1/2+z
-x,1/2-y,1/2+z
1/2-x,1/2+y,1/2+z
1/2+x,1/2-y,1/2+z
loop_
_atom_site_type_symbol
_atom_site_label
_atom_site_fract_x
_atom_site_fract_y
_atom_site_fract_z
Si Si1 0.931128 0.544523 0.276050
Si Si2 0.932103 0.544155 0.747620
Si Si3 0.927606 0.434204 0.510415
Si Si4 0.068868 0.124289 0.642024
Si Si5 0.572896 0.831400 0.004443
Si Si6 0.433114 0.700609 0.748725
Si Si7 0.430281 0.799590 0.781835
Si Si8 0.431997 0.373556 0.897852
O O1 0.750000 0.543892 0.269343
O O2 0.000000 0.500000 0.232789
O O3 0.984150 0.549279 0.403267
O O4 0.995954 0.584946 0.209476
O O5 0.750000 0.541251 0.740406
O O6 0.971397 0.585125 0.822758
O O7 0.000000 0.500000 0.793658
O O8 0.001139 0.550648 0.625457
O O9 0.750000 0.446885 0.503987
O O10 0.935903 0.382682 0.507690
O O11 0.250000 0.120804 0.647475
O O12 0.016211 0.168202 0.700131
O O13 0.011107 0.123527 0.516478
O O14 0.750000 0.819843 0.983525
O O15 0.528430 0.813415 0.123937
O O16 0.471556 0.813587 0.905911
O O17 0.250000 0.696109 0.761703
O O18 0.473312 0.750111 0.765797
O O19 0.513606 0.668742 0.833638
O O20 0.250000 0.803749 0.762393
O O21 0.250000 0.372737 0.912022
#
# Coordination Sequence:
#
# PCOD9364700 Si02
#       8
#     8   8   8   8   8   8   8   8
#     4  12  25  43  67  95 129 166 211 263 317 380
#     4  11  24  41  64  94 127 165 210 259 315 377
#     4  11  21  38  65  95 130 168 209 259 316 374
#     4  12  26  45  67  92 127 170 214 262 320 379
#     4  10  21  39  65  93 129 171 212 260 317 375
#     4  10  23  43  65  95 130 169 212 260 317 378
#     4  11  24  41  65  97 131 167 213 264 317 377
#     4  11  25  44  66  93 126 166 214 266 318 375
#
# _framework density 19.273858000000001
#
# number of rings (size 3 to 8) (size 9 to 14) (size 15 to 20)
#    0.000    1.000    2.500    4.125    1.750    4.000 
#    0.000    1.250    0.000    0.000    0.000    0.000 
#    0.000    0.000    0.000    0.000    0.000    0.000 
#
# Total GULP energy -179060.030499 kJ/mol
# GULP energy per Si atom -5595.625953 kJ/mol
# Density = 1.922999 g / cm^3
# Si number density = 19.273858 Si / 1000 Ang^3
#
#
#
# Elastic Constant Matrix: (Units=GPa)
#
#
# Indices 1 2 3 4 5 6 
#
# 1 121.9703 79.2896 66.9294 0.0000 0.0000 0.0000
# 2 79.2896 154.4778 70.9592 0.0000 0.0000 0.0000
# 3 66.9294 70.9592 121.4744 0.0000 0.0000 0.0000
# 4 0.0000 0.0000 0.0000 50.0106 0.0000 0.0000
# 5 0.0000 0.0000 0.0000 0.0000 37.6572 0.0000
# 6 0.0000 0.0000 0.0000 0.0000 0.0000 9.3232
#
#
#
# Elastic Compliance Matrix: (Units=1/GPa)
#
#
# Indices 1 2 3 4 5 6 
#
# 1 0.014124 -0.005023 -0.004848 0.000000 0.000000 0.000000
# 2 -0.005023 0.010633 -0.003444 0.000000 0.000000 0.000000
# 3 -0.004848 -0.003444 0.012915 0.000000 0.000000 0.000000
# 4 0.000000 0.000000 0.000000 0.019996 0.000000 0.000000
# 5 0.000000 0.000000 0.000000 0.000000 0.026555 0.000000
# 6 0.000000 0.000000 0.000000 0.000000 0.000000 0.107259
#
#
# Mechanical properties :
#
#
# Convention : Reuss Voigt Hill
#
# Bulk Modulus (GPa) = 90.55434 92.47543 91.51489
# Shear Modulus (GPa) = 22.54343 31.44781 26.99562
#
# Velocity S-wave (km/s) = 3.42371 4.04373 3.74656
# Velocity P-wave (km/s) = 7.91922 8.35980 8.14249
#
# Compressibility (1/GPa) = 0.01104309
#
# Stress axis : x y z
#
# Youngs Moduli (GPa) = 70.80112 94.04244 77.42752
#
# Poissons Ratio (x) = 0.47234 0.37537
# Poissons Ratio (y) = 0.35560 0.26668
# Poissons Ratio (z) = 0.34325 0.32390
#
# Static dielectric constant tensor:
#      x y z
#    x 1.649370 0.000000 0.000000 
#    y 0.000000 1.664570 0.000000 
#    z 0.000000 0.000000 1.633180 
# 
# From -- ./inp_files/10645.got.cif
#   From: 2010.05.17/outbox.cif.g08.bks.cpg/sg40_6_cif.got.tgz:10645.got - 2010.06.03 18:35:42.
