data_PCOD9364756
_publ_section_title
;
Structure prediction by ZEFSAII (Michael W. Deem and Ramdas Pophale) SiO2 
 PCOD9364756
Probable space group: A M A 2
;
_chemical_formula_sum "Si O2"
_cell_formula_units_Z 48
_cell_length_a 15.210590
_cell_length_b 21.303844
_cell_length_c 7.555202
_cell_angle_alpha 90.000000
_cell_angle_beta 90.000000
_cell_angle_gamma 90.000000
_cell_volume 2448.218153
_symmetry_space_group_name_H-M "A M A 2"
_symmetry_group_IT_number 40
_symmetry_cell_setting 'orthorhombic'
loop_
_space_group_symop_operation_xyz
x,y,z
-x,-y,z
1/2-x,y,z
1/2+x,-y,z
x,1/2+y,1/2+z
-x,1/2-y,1/2+z
1/2-x,1/2+y,1/2+z
1/2+x,1/2-y,1/2+z
loop_
_atom_site_type_symbol
_atom_site_label
_atom_site_fract_x
_atom_site_fract_y
_atom_site_fract_z
Si Si1 0.150864 0.864858 0.423760
Si Si2 0.480364 0.803418 0.145106
Si Si3 0.106224 0.005363 0.455322
Si Si4 0.421116 0.546682 0.326647
Si Si5 0.349306 0.109699 0.170792
Si Si6 0.035227 0.333636 0.245178
O O1 0.250000 0.843057 0.399731
O O2 0.084662 0.830168 0.292200
O O3 0.116462 0.851914 0.621966
O O4 0.144036 0.939373 0.390872
O O5 0.575161 0.837357 0.168008
O O6 0.492325 0.729332 0.167456
O O7 0.445132 0.820321 0.950430
O O8 0.128495 0.015368 0.662025
O O9 0.136386 0.063328 0.336324
O O10 0.000000 0.000000 0.445881
O O11 0.500000 0.500000 0.384887
O O12 0.365386 0.568259 0.494042
O O13 0.467729 0.608417 0.245329
O O14 0.250000 0.134760 0.172010
#
# Coordination Sequence:
#
# PCOD9364756 Si02
#       6
#     8   8   8   8   8   8
#     4  12  25  42  66 100 131 168 223 272 315 385
#     4  11  24  43  68  90 132 175 211 267 328 383
#     4  11  20  41  70  89 127 174 212 261 330 381
#     4  10  21  40  65  89 122 168 211 261 325 378
#     4  11  24  39  63  96 127 165 213 264 320 390
#     4  11  22  42  68  90 123 174 216 259 324 382
#
# _framework density 19.606096999999998
#
# number of rings (size 3 to 8) (size 9 to 14) (size 15 to 20)
#    0.000    1.000    6.667    1.000    2.333    2.667 
#    0.000    0.000    0.000    0.000    0.000    0.000 
#    0.000    0.000    0.000    0.000    0.000    0.000 
#
# Total GULP energy -134154.283194 kJ/mol
# GULP energy per Si atom -5589.761800 kJ/mol
# Density = 1.956147 g / cm^3
# Si number density = 19.606097 Si / 1000 Ang^3
#
#
#
# Elastic Constant Matrix: (Units=GPa)
#
#
# Indices 1 2 3 4 5 6 
#
# 1 107.4454 8.7363 38.5358 0.0000 0.0000 0.0000
# 2 8.7363 85.4419 1.8839 0.0000 0.0000 0.0000
# 3 38.5358 1.8839 78.2875 0.0000 0.0000 0.0000
# 4 0.0000 0.0000 0.0000 25.6515 0.0000 0.0000
# 5 0.0000 0.0000 0.0000 0.0000 -583.5944 0.0000
# 6 0.0000 0.0000 0.0000 0.0000 0.0000 -1.8635
#
#
#
# Elastic Compliance Matrix: (Units=1/GPa)
#
#
# Indices 1 2 3 4 5 6 
#
# 1 0.011394 -0.001042 -0.005584 0.000000 0.000000 0.000000
# 2 -0.001042 0.011805 0.000229 0.000000 0.000000 0.000000
# 3 -0.005584 0.000229 0.015516 0.000000 0.000000 0.000000
# 4 0.000000 0.000000 0.000000 0.038984 0.000000 0.000000
# 5 0.000000 0.000000 0.000000 0.000000 -0.001714 0.000000
# 6 0.000000 0.000000 0.000000 0.000000 0.000000 -0.536621
#
#
# Mechanical properties :
#
#
# Convention : Reuss Voigt Hill
#
# Bulk Modulus (GPa) = 38.57645 41.05410 39.81527
# Shear Modulus (GPa) = -11.38433 -97.16004 -54.27218
#
# Velocity S-wave (km/s) = -2.41229 -7.04724 -5.26701
# Velocity P-wave (km/s) = 3.45827 6.72557 4.07882
#
# Compressibility (1/GPa) = 0.02592255
#
# Stress axis : x y z
#
# Youngs Moduli (GPa) = 87.76265 84.70730 64.44800
#
# Poissons Ratio (x) = 0.08826 0.35985
# Poissons Ratio (y) = 0.09144 -0.01475
# Poissons Ratio (z) = 0.49003 -0.01938
#
# Static dielectric constant tensor:
#      x y z
#    x 1.880470 0.000000 0.000000 
#    y 0.000000 1.669770 0.000000 
#    z 0.000000 0.000000 1.697190 
# 
# From -- ./inp_files/6464.got.cif
#   From: 2010.05.17/outbox.cif.g08.bks.cpg/sg40_4_cif.got.tgz:6464.got - 2010.06.03 18:35:42.
