data_PCOD9364785
_publ_section_title
;
Structure prediction by ZEFSAII (Michael W. Deem and Ramdas Pophale) SiO2 
 PCOD9364785
Probable space group: A M A 2
;
_chemical_formula_sum "Si O2"
_cell_formula_units_Z 60
_cell_length_a 16.939685
_cell_length_b 11.938689
_cell_length_c 14.828127
_cell_angle_alpha 90.000000
_cell_angle_beta 90.000000
_cell_angle_gamma 90.000000
_cell_volume 2998.805276
_symmetry_space_group_name_H-M "A M A 2"
_symmetry_group_IT_number 40
_symmetry_cell_setting 'orthorhombic'
loop_
_space_group_symop_operation_xyz
x,y,z
-x,-y,z
1/2-x,y,z
1/2+x,-y,z
x,1/2+y,1/2+z
-x,1/2-y,1/2+z
1/2-x,1/2+y,1/2+z
1/2+x,1/2-y,1/2+z
loop_
_atom_site_type_symbol
_atom_site_label
_atom_site_fract_x
_atom_site_fract_y
_atom_site_fract_z
Si Si1 0.840946 0.635460 0.476830
Si Si2 0.374659 0.744046 0.165701
Si Si3 0.590884 0.474673 0.071810
Si Si4 0.465182 0.624717 0.697094
Si Si5 0.339391 0.608299 0.540294
Si Si6 0.127279 0.336151 0.953651
Si Si7 0.443706 0.675443 0.900224
Si Si8 0.250000 0.337343 0.809961
O O1 0.750000 0.643828 0.445206
O O2 0.846442 0.690312 0.576221
O O3 0.862810 0.505762 0.489624
O O4 0.901686 0.705924 0.417099
O O5 0.373345 0.612046 0.142806
O O6 0.464338 0.786194 0.182160
O O7 0.319052 0.780508 0.246360
O O8 0.500000 0.500000 0.096302
O O9 0.630847 0.591526 0.045543
O O10 0.589898 0.408798 0.975797
O O11 0.500000 0.500000 0.688394
O O12 0.398802 0.635127 0.620956
O O13 0.432684 0.637881 0.797981
O O14 0.250000 0.589797 0.574492
O O15 0.340160 0.712380 0.472624
O O16 0.181023 0.388061 0.876764
O O17 0.036898 0.324341 0.922518
#
# Coordination Sequence:
#
# PCOD9364785 Si02
#       8
#     8   8   8   8   8   8   8   4
#     4  10  21  41  63  92 127 166 209 258 319 390
#     4  11  22  40  65  94 127 164 212 264 325 386
#     4   9  20  40  65  92 126 166 210 262 318 387
#     4  12  22  38  65  99 129 167 215 273 327 386
#     4  11  24  41  65  90 127 172 219 259 321 397
#     4  11  22  43  64  89 126 169 215 261 322 390
#     4  10  22  38  65  96 127 159 210 266 324 374
#     4  12  24  40  64  94 126 162 216 272 318 388
#
# _framework density 20.007967000000001
#
# number of rings (size 3 to 8) (size 9 to 14) (size 15 to 20)
#    0.000    1.333    4.000    3.600    0.000    1.067 
#    1.200    2.667    0.000    0.000    0.000    0.000 
#    0.000    0.000    0.000    0.000    0.000    0.000 
#
# Total GULP energy -167044.242439 kJ/mol
# GULP energy per Si atom -5568.141415 kJ/mol
# Density = 1.996243 g / cm^3
# Si number density = 20.007967 Si / 1000 Ang^3
#
#
#
# Elastic Constant Matrix: (Units=GPa)
#
#
# Indices 1 2 3 4 5 6 
#
# 1 80.9535 14.0154 19.5898 0.0000 0.0000 0.0000
# 2 14.0154 81.9782 -13.2189 0.0000 0.0000 0.0000
# 3 19.5898 -13.2189 28.7366 0.0000 0.0000 0.0000
# 4 0.0000 0.0000 0.0000 15.6406 0.0000 0.0000
# 5 0.0000 0.0000 0.0000 0.0000 68.8302 0.0000
# 6 0.0000 0.0000 0.0000 0.0000 0.0000 8.9210
#
#
#
# Elastic Compliance Matrix: (Units=1/GPa)
#
#
# Indices 1 2 3 4 5 6 
#
# 1 0.016498 -0.005005 -0.013549 0.000000 0.000000 0.000000
# 2 -0.005005 0.014694 0.010172 0.000000 0.000000 0.000000
# 3 -0.013549 0.010172 0.048714 0.000000 0.000000 0.000000
# 4 0.000000 0.000000 0.000000 0.063936 0.000000 0.000000
# 5 0.000000 0.000000 0.000000 0.000000 0.014529 0.000000
# 6 0.000000 0.000000 0.000000 0.000000 0.000000 0.112095
#
#
# Mechanical properties :
#
#
# Convention : Reuss Voigt Hill
#
# Bulk Modulus (GPa) = 15.83769 25.82677 20.83223
# Shear Modulus (GPa) = 16.21903 30.09716 23.15810
#
# Velocity S-wave (km/s) = 2.85024 3.88268 3.40581
# Velocity P-wave (km/s) = 4.33183 5.74775 5.08927
#
# Compressibility (1/GPa) = 0.06314052
#
# Stress axis : x y z
#
# Youngs Moduli (GPa) = 60.61290 68.05374 20.52782
#
# Poissons Ratio (x) = 0.34064 0.27814
# Poissons Ratio (y) = 0.30339 -0.20880
# Poissons Ratio (z) = 0.82126 -0.69222
#
# Static dielectric constant tensor:
#      x y z
#    x 1.708440 0.000000 0.000000 
#    y 0.000000 1.741660 0.000000 
#    z 0.000000 0.000000 1.688480 
# 
# From -- ./inp_files/17795.got.cif
#   From: 2010.05.17/outbox.cif.g08.bks.cpg/sg40_9_cif.got.tgz:17795.got - 2010.06.03 18:35:42.
