data_PCOD9364878
_publ_section_title
;
Structure prediction by ZEFSAII (Michael W. Deem and Ramdas Pophale) SiO2 
 PCOD9364878
Probable space group: A M A 2
;
_chemical_formula_sum "Si O2"
_cell_formula_units_Z 40
_cell_length_a 10.955388
_cell_length_b 15.935271
_cell_length_c 9.712141
_cell_angle_alpha 90.000000
_cell_angle_beta 90.000000
_cell_angle_gamma 90.000000
_cell_volume 1695.517184
_symmetry_space_group_name_H-M "A M A 2"
_symmetry_group_IT_number 40
_symmetry_cell_setting 'orthorhombic'
loop_
_space_group_symop_operation_xyz
x,y,z
-x,-y,z
1/2-x,y,z
1/2+x,-y,z
x,1/2+y,1/2+z
-x,1/2-y,1/2+z
1/2-x,1/2+y,1/2+z
1/2+x,1/2-y,1/2+z
loop_
_atom_site_type_symbol
_atom_site_label
_atom_site_fract_x
_atom_site_fract_y
_atom_site_fract_z
Si Si1 0.385350 0.247175 0.203600
Si Si2 0.878443 0.620847 0.951752
Si Si3 0.890496 0.937306 0.071765
Si Si4 0.612360 0.846468 0.793158
Si Si5 0.879276 0.425366 0.990425
O O1 0.250000 0.256119 0.269734
O O2 0.379978 0.310687 0.071584
O O3 0.399248 0.155512 0.137013
O O4 0.500807 0.280757 0.291682
O O5 0.750000 0.628091 0.872534
O O6 0.878287 0.525338 0.010406
O O7 0.015211 0.613274 0.896060
O O8 0.750000 0.968395 0.095800
O O9 0.905033 0.917108 0.908793
O O10 0.000000 0.000000 0.114553
O O11 0.750000 0.811650 0.817326
O O12 0.613306 0.885621 0.641019
O O13 0.750000 0.404317 0.925506
#
# Coordination Sequence:
#
# PCOD9364878 Si02
#       5
#     8   8   8   8   8
#     4   9  18  32  49  73 105 141 177 218 269 326
#     4   8  13  21  37  59  88 122 154 190 242 299
#     4  10  22  36  52  81 114 143 183 229 274 328
#     4   9  18  31  50  76 108 139 175 221 271 325
#     4   8  13  21  36  63  91 119 152 193 244 300
#
# _framework density 23.591621
#
# number of rings (size 3 to 8) (size 9 to 14) (size 15 to 20)
#    0.000    3.200    0.000    0.000    5.600    1.600 
#    0.000    0.000    0.000    0.000   10.400    0.000 
#    0.000    0.000    0.000    0.000    0.000    0.000 
#
# Total GULP energy -111446.505212 kJ/mol
# GULP energy per Si atom -5572.325261 kJ/mol
# Density = 2.353793 g / cm^3
# Si number density = 23.591621 Si / 1000 Ang^3
#
#
#
# Elastic Constant Matrix: (Units=GPa)
#
#
# Indices 1 2 3 4 5 6 
#
# 1 233.5412 64.0625 24.4919 0.0000 0.0000 0.0000
# 2 64.0625 133.4663 24.9247 0.0000 0.0000 0.0000
# 3 24.4919 24.9247 54.4369 0.0000 0.0000 0.0000
# 4 0.0000 0.0000 0.0000 28.6347 0.0000 0.0000
# 5 0.0000 0.0000 0.0000 0.0000 -26.8259 0.0000
# 6 0.0000 0.0000 0.0000 0.0000 0.0000 12.0449
#
#
#
# Elastic Compliance Matrix: (Units=1/GPa)
#
#
# Indices 1 2 3 4 5 6 
#
# 1 0.005009 -0.002169 -0.001261 0.000000 0.000000 0.000000
# 2 -0.002169 0.009132 -0.003205 0.000000 0.000000 0.000000
# 3 -0.001261 -0.003205 0.020405 0.000000 0.000000 0.000000
# 4 0.000000 0.000000 0.000000 0.034923 0.000000 0.000000
# 5 0.000000 0.000000 0.000000 0.000000 -0.037277 0.000000
# 6 0.000000 0.000000 0.000000 0.000000 0.000000 0.083023
#
#
# Mechanical properties :
#
#
# Convention : Reuss Voigt Hill
#
# Bulk Modulus (GPa) = 47.00121 72.04474 59.52297
# Shear Modulus (GPa) = 36.87971 23.30177 30.09074
#
# Velocity S-wave (km/s) = 3.95809 3.14620 3.57527
# Velocity P-wave (km/s) = 6.39177 6.61836 6.50605
#
# Compressibility (1/GPa) = 0.02127605
#
# Stress axis : x y z
#
# Youngs Moduli (GPa) = 199.63888 109.50277 49.00826
#
# Poissons Ratio (x) = 0.23750 0.06178
# Poissons Ratio (y) = 0.43299 0.15710
# Poissons Ratio (z) = 0.25166 0.35101
#
# Static dielectric constant tensor:
#      x y z
#    x 2.116160 0.000000 0.000000 
#    y 0.000000 1.874470 0.000000 
#    z 0.000000 0.000000 1.830970 
# 
# From -- ./inp_files/11074.got.cif
#   From: 2010.05.17/outbox.cif.g08.bks.cpg/sg40_6_cif.got.tgz:11074.got - 2010.06.03 18:35:42.
