data_PCOD9364598
_publ_section_title
;
Structure prediction by ZEFSAII (Michael W. Deem and Ramdas Pophale) SiO2 
 PCOD9364598
Probable space group: A M A 2
;
_chemical_formula_sum "Si O2"
_cell_formula_units_Z 48
_cell_length_a 8.747840
_cell_length_b 19.473384
_cell_length_c 15.128714
_cell_angle_alpha 90.000000
_cell_angle_beta 90.000000
_cell_angle_gamma 90.000000
_cell_volume 2577.177148
_symmetry_space_group_name_H-M "A M A 2"
_symmetry_group_IT_number 40
_symmetry_cell_setting 'orthorhombic'
loop_
_space_group_symop_operation_xyz
x,y,z
-x,-y,z
1/2-x,y,z
1/2+x,-y,z
x,1/2+y,1/2+z
-x,1/2-y,1/2+z
1/2-x,1/2+y,1/2+z
1/2+x,1/2-y,1/2+z
loop_
_atom_site_type_symbol
_atom_site_label
_atom_site_fract_x
_atom_site_fract_y
_atom_site_fract_z
Si Si1 0.068248 0.925319 0.803360
Si Si2 0.566930 0.926459 0.103778
Si Si3 0.068129 0.925303 0.594241
Si Si4 0.432024 0.171451 0.447676
Si Si5 0.432416 0.676950 0.444883
Si Si6 0.067125 0.925303 0.297862
O O1 0.250000 0.925752 0.818849
O O2 0.041765 0.914020 0.698746
O O3 0.990021 0.867241 0.861864
O O4 0.000000 0.000000 0.825986
O O5 0.750000 0.932561 0.113808
O O6 0.492884 0.911129 0.198836
O O7 0.500000 0.000000 0.074212
O O8 0.533337 0.868341 0.031944
O O9 0.250000 0.925456 0.578209
O O10 0.989540 0.867755 0.535093
O O11 0.000000 0.000000 0.571522
O O12 0.250000 0.167652 0.441301
O O13 0.487010 0.249751 0.448444
O O14 0.506506 0.131183 0.365496
O O15 0.250000 0.686373 0.439999
O O16 0.250000 0.928222 0.298789
O O17 0.000000 0.000000 0.323162
#
# Coordination Sequence:
#
# PCOD9364598 Si02
#       6
#     8   8   8   8   8   8
#     4  10  21  38  62  89 118 153 194 240 286 338
#     4  10  21  38  61  88 117 150 192 239 286 338
#     4  10  21  39  62  88 117 150 192 239 286 338
#     4  12  25  40  59  84 117 155 194 237 289 347
#     4  11  24  40  59  85 119 156 194 238 288 344
#     4  11  22  39  63  88 116 150 192 239 287 341
#
# _framework density 18.625029000000001
#
# number of rings (size 3 to 8) (size 9 to 14) (size 15 to 20)
#    0.000    1.333    0.000    7.000    0.000    7.333 
#    0.000    1.667    0.000    0.000    0.000    0.000 
#    0.000    0.000    0.000    0.000    0.000    0.000 
#
# Total GULP energy -134253.737203 kJ/mol
# GULP energy per Si atom -5593.905717 kJ/mol
# Density = 1.858264 g / cm^3
# Si number density = 18.625029 Si / 1000 Ang^3
#
#
#
# Elastic Constant Matrix: (Units=GPa)
#
#
# Indices 1 2 3 4 5 6 
#
# 1 141.1507 91.3500 75.5668 0.0000 0.0000 0.0000
# 2 91.3500 162.9683 88.3420 0.0000 0.0000 0.0000
# 3 75.5668 88.3420 84.4853 0.0000 0.0000 0.0000
# 4 0.0000 0.0000 0.0000 -45.3821 0.0000 0.0000
# 5 0.0000 0.0000 0.0000 0.0000 102.5141 0.0000
# 6 0.0000 0.0000 0.0000 0.0000 0.0000 38.3050
#
#
#
# Elastic Compliance Matrix: (Units=1/GPa)
#
#
# Indices 1 2 3 4 5 6 
#
# 1 0.014004 -0.002447 -0.009968 0.000000 0.000000 0.000000
# 2 -0.002447 0.014593 -0.013071 0.000000 0.000000 0.000000
# 3 -0.009968 -0.013071 0.034419 0.000000 0.000000 0.000000
# 4 0.000000 0.000000 0.000000 -0.022035 0.000000 0.000000
# 5 0.000000 0.000000 0.000000 0.000000 0.009755 0.000000
# 6 0.000000 0.000000 0.000000 0.000000 0.000000 0.026106
#
#
# Mechanical properties :
#
#
# Convention : Reuss Voigt Hill
#
# Bulk Modulus (GPa) = 83.01213 99.90243 91.45728
# Shear Modulus (GPa) = 37.92806 27.97710 32.95258
#
# Velocity S-wave (km/s) = 4.51755 3.87993 4.21082
# Velocity P-wave (km/s) = 8.47809 8.59227 8.53537
#
# Compressibility (1/GPa) = 0.01204643
#
# Stress axis : x y z
#
# Youngs Moduli (GPa) = 71.40607 68.52555 29.05347
#
# Poissons Ratio (x) = 0.16766 0.28959
# Poissons Ratio (y) = 0.17471 0.37975
# Poissons Ratio (z) = 0.71175 0.89568
#
# Static dielectric constant tensor:
#      x y z
#    x 1.619790 0.000000 0.000000 
#    y 0.000000 1.601170 0.000000 
#    z 0.000000 0.000000 1.636340 
# 
# From -- ./inp_files/15051.got.cif
#   From: 2010.05.17/outbox.cif.g08.bks.cpg/sg40_8_cif.got.tgz:15051.got - 2010.06.03 18:35:42.
