data_PCOD9364590
_publ_section_title
;
Structure prediction by ZEFSAII (Michael W. Deem and Ramdas Pophale) SiO2 
 PCOD9364590
Probable space group: A M A 2
;
_chemical_formula_sum "Si O2"
_cell_formula_units_Z 32
_cell_length_a 22.597331
_cell_length_b 5.918041
_cell_length_c 7.461585
_cell_angle_alpha 90.000000
_cell_angle_beta 90.000000
_cell_angle_gamma 90.000000
_cell_volume 997.852173
_symmetry_space_group_name_H-M "A M A 2"
_symmetry_group_IT_number 40
_symmetry_cell_setting 'orthorhombic'
loop_
_space_group_symop_operation_xyz
x,y,z
-x,-y,z
1/2-x,y,z
1/2+x,-y,z
x,1/2+y,1/2+z
-x,1/2-y,1/2+z
1/2-x,1/2+y,1/2+z
1/2+x,1/2-y,1/2+z
loop_
_atom_site_type_symbol
_atom_site_label
_atom_site_fract_x
_atom_site_fract_y
_atom_site_fract_z
Si Si1 0.250000 0.156257 0.117370
Si Si2 0.998868 0.748375 0.022835
Si Si3 0.123635 0.754004 0.747796
Si Si4 0.378260 0.244696 0.740439
Si Si5 0.250000 0.217640 0.725487
O O1 0.186027 0.266874 0.141245
O O2 0.250000 0.981268 0.282180
O O3 0.250000 0.078110 0.909047
O O4 0.060474 0.743816 0.132281
O O5 0.000000 0.500000 0.928428
O O6 0.937577 0.744170 0.134008
O O7 0.000000 0.000000 0.935764
O O8 0.123577 0.496880 0.824529
O O9 0.122133 0.001697 0.842877
O O10 0.314833 0.225120 0.636630
#
# Coordination Sequence:
#
# PCOD9364590 Si02
#       5
#     4   8   8   8   4
#     4  10  21  38  60  88 122 164 212 268 332 402
#     4   8  14  26  50  76 108 146 188 240 300 366
#     4   9  17  32  54  81 112 152 195 249 309 377
#     4   9  17  32  54  81 112 152 195 249 309 377
#     4  10  21  38  60  88 122 164 212 268 332 402
#
# _framework density 32.068879000000003
#
# number of rings (size 3 to 8) (size 9 to 14) (size 15 to 20)
#    0.000    3.000    0.000    0.750    0.000    0.000 
#    0.000   20.000    0.000   45.000    0.000    0.000 
#    0.000    0.000    0.000    0.000    0.000    0.000 
#
# Total GULP energy -89090.062279 kJ/mol
# GULP energy per Si atom -5568.128892 kJ/mol
# Density = 3.199589 g / cm^3
# Si number density = 32.068879 Si / 1000 Ang^3
#
#
#
# Elastic Constant Matrix: (Units=GPa)
#
#
# Indices 1 2 3 4 5 6 
#
# 1 401.6055 26.4942 77.9873 0.0000 0.0000 0.0000
# 2 26.4942 424.2598 67.2445 0.0000 0.0000 0.0000
# 3 77.9873 67.2445 68.6993 0.0000 0.0000 0.0000
# 4 0.0000 0.0000 0.0000 43.7453 0.0000 0.0000
# 5 0.0000 0.0000 0.0000 0.0000 86.8196 0.0000
# 6 0.0000 0.0000 0.0000 0.0000 0.0000 19.7220
#
#
#
# Elastic Compliance Matrix: (Units=1/GPa)
#
#
# Indices 1 2 3 4 5 6 
#
# 1 0.003266 0.000454 -0.004153 0.000000 0.000000 0.000000
# 2 0.000454 0.002853 -0.003308 0.000000 0.000000 0.000000
# 3 -0.004153 -0.003308 0.022508 0.000000 0.000000 0.000000
# 4 0.000000 0.000000 0.000000 0.022860 0.000000 0.000000
# 5 0.000000 0.000000 0.000000 0.000000 0.011518 0.000000
# 6 0.000000 0.000000 0.000000 0.000000 0.000000 0.050705
#
#
# Mechanical properties :
#
#
# Convention : Reuss Voigt Hill
#
# Bulk Modulus (GPa) = 68.42481 137.55739 102.99110
# Shear Modulus (GPa) = 37.70872 78.24662 57.97767
#
# Velocity S-wave (km/s) = 3.43281 4.94495 4.25657
# Velocity P-wave (km/s) = 6.09060 8.69430 7.50621
#
# Compressibility (1/GPa) = 0.01461458
#
# Stress axis : x y z
#
# Youngs Moduli (GPa) = 306.14380 350.50457 44.42778
#
# Poissons Ratio (x) = -0.15920 0.18449
# Poissons Ratio (y) = -0.13905 0.14698
# Poissons Ratio (z) = 1.27131 1.15955
#
# Static dielectric constant tensor:
#      x y z
#    x 2.410790 0.000000 0.000000 
#    y 0.000000 2.495840 0.000000 
#    z 0.000000 0.000000 2.490560 
# 
# From -- ./inp_files/13345.got.cif
#   From: 2010.05.17/outbox.cif.g08.bks.cpg/sg40_7_cif.got.tgz:13345.got - 2010.06.03 18:35:42.
