data_PCOD9364651
_publ_section_title
;
Structure prediction by ZEFSAII (Michael W. Deem and Ramdas Pophale) SiO2 
 PCOD9364651
Probable space group: A M A 2
;
_chemical_formula_sum "Si O2"
_cell_formula_units_Z 56
_cell_length_a 8.388110
_cell_length_b 21.256865
_cell_length_c 14.561488
_cell_angle_alpha 90.000000
_cell_angle_beta 90.000000
_cell_angle_gamma 90.000000
_cell_volume 2596.384980
_symmetry_space_group_name_H-M "A M A 2"
_symmetry_group_IT_number 40
_symmetry_cell_setting 'orthorhombic'
loop_
_space_group_symop_operation_xyz
x,y,z
-x,-y,z
1/2-x,y,z
1/2+x,-y,z
x,1/2+y,1/2+z
-x,1/2-y,1/2+z
1/2-x,1/2+y,1/2+z
1/2+x,1/2-y,1/2+z
loop_
_atom_site_type_symbol
_atom_site_label
_atom_site_fract_x
_atom_site_fract_y
_atom_site_fract_z
Si Si1 0.941790 0.431964 0.232350
Si Si2 0.063723 0.432840 0.628565
Si Si3 0.557457 0.355710 0.061959
Si Si4 0.436009 0.430949 0.900918
Si Si5 0.567358 0.832476 0.263994
Si Si6 0.060366 0.603224 0.433915
Si Si7 0.556522 0.244272 0.923137
O O1 0.750000 0.433814 0.235081
O O2 0.984032 0.372786 0.166788
O O3 0.000921 0.422134 0.336183
O O4 0.000000 0.500000 0.197718
O O5 0.250000 0.435388 0.639916
O O6 0.000000 0.500000 0.666059
O O7 0.007506 0.367946 0.677084
O O8 0.017148 0.428267 0.522295
O O9 0.750000 0.362902 0.052646
O O10 0.464978 0.408031 0.003826
O O11 0.517381 0.290581 0.009297
O O12 0.500000 0.500000 0.890096
O O13 0.250000 0.424285 0.875312
O O14 0.547969 0.386684 0.840236
O O15 0.750000 0.818733 0.241844
O O16 0.501903 0.774078 0.324613
O O17 0.250000 0.593686 0.439172
O O18 0.020309 0.677004 0.436807
O O19 0.750000 0.239881 0.920098
#
# Coordination Sequence:
#
# PCOD9364651 Si02
#       7
#     8   8   8   8   8   8   8
#     4  10  22  39  60  86 116 152 194 243 296 349
#     4  12  25  42  64  90 121 158 203 254 309 364
#     4   9  19  37  58  83 116 152 192 242 299 354
#     4  11  20  31  50  80 116 154 194 237 291 353
#     4  10  21  39  61  87 120 155 194 244 301 360
#     4  11  24  41  61  87 121 161 205 251 297 352
#     4   9  20  39  62  89 122 158 195 239 295 356
#
# _framework density 21.568451
#
# number of rings (size 3 to 8) (size 9 to 14) (size 15 to 20)
#    0.000    1.714    0.000    5.571    0.000    8.000 
#    0.000    1.429    0.000    0.000    0.000    0.000 
#    0.000    0.000    0.000    0.000    0.000    0.000 
#
# Total GULP energy -156262.144822 kJ/mol
# GULP energy per Si atom -5580.790887 kJ/mol
# Density = 2.151936 g / cm^3
# Si number density = 21.568451 Si / 1000 Ang^3
#
#
#
# Elastic Constant Matrix: (Units=GPa)
#
#
# Indices 1 2 3 4 5 6 
#
# 1 35.6906 3.1362 16.1022 0.0000 0.0000 0.0000
# 2 3.1362 73.8349 6.7740 0.0000 0.0000 0.0000
# 3 16.1022 6.7740 96.6018 0.0000 0.0000 0.0000
# 4 0.0000 0.0000 0.0000 28.9991 0.0000 0.0000
# 5 0.0000 0.0000 0.0000 0.0000 6.9534 0.0000
# 6 0.0000 0.0000 0.0000 0.0000 0.0000 18.7027
#
#
#
# Elastic Compliance Matrix: (Units=1/GPa)
#
#
# Indices 1 2 3 4 5 6 
#
# 1 0.030347 -0.000830 -0.005000 0.000000 0.000000 0.000000
# 2 -0.000830 0.013654 -0.000819 0.000000 0.000000 0.000000
# 3 -0.005000 -0.000819 0.011243 0.000000 0.000000 0.000000
# 4 0.000000 0.000000 0.000000 0.034484 0.000000 0.000000
# 5 0.000000 0.000000 0.000000 0.000000 0.143815 0.000000
# 6 0.000000 0.000000 0.000000 0.000000 0.000000 0.053468
#
#
# Mechanical properties :
#
#
# Convention : Reuss Voigt Hill
#
# Bulk Modulus (GPa) = 23.84075 28.68358 26.26217
# Shear Modulus (GPa) = 15.90879 22.93870 19.42375
#
# Velocity S-wave (km/s) = 2.71882 3.26472 3.00419
# Velocity P-wave (km/s) = 4.57531 5.24775 4.92303
#
# Compressibility (1/GPa) = 0.04194499
#
# Stress axis : x y z
#
# Youngs Moduli (GPa) = 32.95172 73.23788 88.94674
#
# Poissons Ratio (x) = 0.06081 0.44476
# Poissons Ratio (y) = 0.02736 0.07285
# Poissons Ratio (z) = 0.16477 0.05999
#
# Static dielectric constant tensor:
#      x y z
#    x 1.743440 0.000000 0.000000 
#    y 0.000000 1.779170 0.000000 
#    z 0.000000 0.000000 1.860010 
# 
# From -- ./inp_files/15299.got.cif
#   From: 2010.05.17/outbox.cif.g08.bks.cpg/sg40_8_cif.got.tgz:15299.got - 2010.06.03 18:35:42.
