data_PCOD9364350
_publ_section_title
;
Structure prediction by ZEFSAII (Michael W. Deem and Ramdas Pophale) SiO2 
 PCOD9364350
Probable space group: A M A 2
;
_chemical_formula_sum "Si O2"
_cell_formula_units_Z 44
_cell_length_a 24.714463
_cell_length_b 9.478675
_cell_length_c 7.612590
_cell_angle_alpha 90.000000
_cell_angle_beta 90.000000
_cell_angle_gamma 90.000000
_cell_volume 1783.328094
_symmetry_space_group_name_H-M "A M A 2"
_symmetry_group_IT_number 40
_symmetry_cell_setting 'orthorhombic'
loop_
_space_group_symop_operation_xyz
x,y,z
-x,-y,z
1/2-x,y,z
1/2+x,-y,z
x,1/2+y,1/2+z
-x,1/2-y,1/2+z
1/2-x,1/2+y,1/2+z
1/2+x,1/2-y,1/2+z
loop_
_atom_site_type_symbol
_atom_site_label
_atom_site_fract_x
_atom_site_fract_y
_atom_site_fract_z
Si Si1 0.750000 0.001992 0.826630
Si Si2 0.429918 0.802624 0.313662
Si Si3 0.158831 0.993977 0.358175
Si Si4 0.368770 0.005346 0.774414
Si Si5 0.750000 0.314319 0.703723
Si Si6 0.467390 0.352188 0.203029
Si Si7 0.250000 0.265816 0.823205
O O1 0.750000 0.148014 0.713770
O O2 0.685788 0.017359 0.884231
O O3 0.750000 0.841283 0.992525
O O4 0.396865 0.944606 0.264149
O O5 0.394187 0.661082 0.294796
O O6 0.488990 0.769341 0.237027
O O7 0.442009 0.819151 0.517520
O O8 0.195140 0.122004 0.285684
O O9 0.198736 0.862239 0.324087
O O10 0.146410 0.001181 0.565919
O O11 0.414736 0.888697 0.820392
O O12 0.750000 0.864408 0.691243
O O13 0.500000 0.500000 0.197597
#
# Coordination Sequence:
#
# PCOD9364350 Si02
#       7
#     4   8   8   8   4   8   4
#     4  12  21  38  65  95 128 168 209 258 320 380
#     4  10  20  42  69  92 126 173 219 268 326 383
#     4  10  21  41  65  90 131 171 211 265 322 383
#     4  10  20  40  69  89 126 171 206 261 328 381
#     4  11  24  39  57  97 134 165 212 269 322 392
#     4   9  21  42  64  93 126 165 215 269 325 378
#     4  11  21  39  62  94 132 169 211 259 320 382
#
# _framework density 24.672969999999999
#
# number of rings (size 3 to 8) (size 9 to 14) (size 15 to 20)
#    0.000    1.818    3.636    0.545    0.000    1.455 
#   13.091    2.727    0.000    0.000    0.000    0.000 
#    0.000    0.000    0.000    0.000    0.000    0.000 
#
# Total GULP energy -122667.278344 kJ/mol
# GULP energy per Si atom -5575.785379 kJ/mol
# Density = 2.461681 g / cm^3
# Si number density = 24.672970 Si / 1000 Ang^3
#
#
#
# Elastic Constant Matrix: (Units=GPa)
#
#
# Indices 1 2 3 4 5 6 
#
# 1 151.0768 31.2799 17.7664 0.0000 0.0000 0.0000
# 2 31.2799 36.6796 -0.5414 0.0000 0.0000 0.0000
# 3 17.7664 -0.5414 34.6219 0.0000 0.0000 0.0000
# 4 0.0000 0.0000 0.0000 23.5791 0.0000 0.0000
# 5 0.0000 0.0000 0.0000 0.0000 34.4237 0.0000
# 6 0.0000 0.0000 0.0000 0.0000 0.0000 36.1675
#
#
#
# Elastic Compliance Matrix: (Units=1/GPa)
#
#
# Indices 1 2 3 4 5 6 
#
# 1 0.008711 -0.007496 -0.004587 0.000000 0.000000 0.000000
# 2 -0.007496 0.033720 0.004374 0.000000 0.000000 0.000000
# 3 -0.004587 0.004374 0.031306 0.000000 0.000000 0.000000
# 4 0.000000 0.000000 0.000000 0.042410 0.000000 0.000000
# 5 0.000000 0.000000 0.000000 0.000000 0.029050 0.000000
# 6 0.000000 0.000000 0.000000 0.000000 0.000000 0.027649
#
#
# Mechanical properties :
#
#
# Convention : Reuss Voigt Hill
#
# Bulk Modulus (GPa) = 17.14735 35.48758 26.31746
# Shear Modulus (GPa) = 24.07277 30.42562 27.24919
#
# Velocity S-wave (km/s) = 3.12697 3.51544 3.32688
# Velocity P-wave (km/s) = 4.47238 5.55807 5.04452
#
# Compressibility (1/GPa) = 0.05831806
#
# Stress axis : x y z
#
# Youngs Moduli (GPa) = 114.80265 29.65588 31.94305
#
# Poissons Ratio (x) = 0.22230 0.14653
# Poissons Ratio (y) = 0.86056 -0.13972
# Poissons Ratio (z) = 0.52661 -0.12971
#
# Static dielectric constant tensor:
#      x y z
#    x 2.095990 0.000000 0.000000 
#    y 0.000000 1.977370 0.000000 
#    z 0.000000 0.000000 2.010530 
# 
# From -- ./inp_files/8708.got.cif
#   From: 2010.05.17/outbox.cif.g08.bks.cpg/sg40_5_cif.got.tgz:8708.got - 2010.06.03 18:35:42.
