data_PCOD9364613
_publ_section_title
;
Structure prediction by ZEFSAII (Michael W. Deem and Ramdas Pophale) SiO2 
 PCOD9364613
Probable space group: A M A 2
;
_chemical_formula_sum "Si O2"
_cell_formula_units_Z 56
_cell_length_a 19.690719
_cell_length_b 11.721342
_cell_length_c 11.570964
_cell_angle_alpha 90.000000
_cell_angle_beta 90.000000
_cell_angle_gamma 90.000000
_cell_volume 2670.597602
_symmetry_space_group_name_H-M "A M A 2"
_symmetry_group_IT_number 40
_symmetry_cell_setting 'orthorhombic'
loop_
_space_group_symop_operation_xyz
x,y,z
-x,-y,z
1/2-x,y,z
1/2+x,-y,z
x,1/2+y,1/2+z
-x,1/2-y,1/2+z
1/2-x,1/2+y,1/2+z
1/2+x,1/2-y,1/2+z
loop_
_atom_site_type_symbol
_atom_site_label
_atom_site_fract_x
_atom_site_fract_y
_atom_site_fract_z
Si Si1 0.825250 0.334882 0.995040
Si Si2 0.601366 0.264913 0.463364
Si Si3 0.674301 0.579072 0.114356
Si Si4 0.526748 0.875596 0.395044
Si Si5 0.826162 0.594292 0.597264
Si Si6 0.169292 0.026909 0.847178
Si Si7 0.438751 0.557913 0.646704
O O1 0.750000 0.318039 0.936606
O O2 0.895734 0.344055 0.925867
O O3 0.821532 0.453040 0.062042
O O4 0.832320 0.228919 0.082262
O O5 0.527134 0.219479 0.430852
O O6 0.634429 0.349284 0.367613
O O7 0.596441 0.345358 0.574589
O O8 0.641671 0.156922 0.514714
O O9 0.750000 0.626383 0.135276
O O10 0.642718 0.552312 0.241420
O O11 0.526847 0.888941 0.257799
O O12 0.500000 0.000000 0.441361
O O13 0.750000 0.565152 0.635276
O O14 0.836549 0.542489 0.467875
O O15 0.882542 0.536549 0.676439
O O16 0.250000 0.045466 0.826729
O O17 0.500000 0.500000 0.575747
#
# Coordination Sequence:
#
# PCOD9364613 Si02
#       7
#     8   8   8   8   8   8   8
#     4  10  21  39  62  88 123 159 200 257 311 375
#     4  11  22  40  62  90 125 169 210 266 321 378
#     4  10  21  38  62  94 126 164 208 257 323 388
#     4  11  23  40  57  86 124 159 206 257 303 379
#     4   9  19  38  63  89 118 155 204 257 306 367
#     4   9  20  38  62  93 127 161 209 263 314 377
#     4  10  23  40  60  84 121 164 203 256 315 374
#
# _framework density 20.969090000000001
#
# number of rings (size 3 to 8) (size 9 to 14) (size 15 to 20)
#    0.000    2.000    1.429    1.286    2.000    4.571 
#    0.000    0.000    0.000    0.000    0.000    0.000 
#    0.000    0.000    0.000    0.000    0.000    0.000 
#
# Total GULP energy -156010.501572 kJ/mol
# GULP energy per Si atom -5571.803628 kJ/mol
# Density = 2.092136 g / cm^3
# Si number density = 20.969090 Si / 1000 Ang^3
#
#
#
# Elastic Constant Matrix: (Units=GPa)
#
#
# Indices 1 2 3 4 5 6 
#
# 1 97.5555 18.8121 9.2300 0.0000 0.0000 0.0000
# 2 18.8121 74.5449 -9.8264 0.0000 0.0000 0.0000
# 3 9.2300 -9.8264 30.3935 0.0000 0.0000 0.0000
# 4 0.0000 0.0000 0.0000 11.9392 0.0000 0.0000
# 5 0.0000 0.0000 0.0000 0.0000 36.0923 0.0000
# 6 0.0000 0.0000 0.0000 0.0000 0.0000 30.7364
#
#
#
# Elastic Compliance Matrix: (Units=1/GPa)
#
#
# Indices 1 2 3 4 5 6 
#
# 1 0.011351 -0.003467 -0.004568 0.000000 0.000000 0.000000
# 2 -0.003467 0.015071 0.005925 0.000000 0.000000 0.000000
# 3 -0.004568 0.005925 0.036205 0.000000 0.000000 0.000000
# 4 0.000000 0.000000 0.000000 0.083758 0.000000 0.000000
# 5 0.000000 0.000000 0.000000 0.000000 0.027707 0.000000
# 6 0.000000 0.000000 0.000000 0.000000 0.000000 0.032535
#
#
# Mechanical properties :
#
#
# Convention : Reuss Voigt Hill
#
# Bulk Modulus (GPa) = 17.12107 26.54726 21.83417
# Shear Modulus (GPa) = 21.70948 28.03880 24.87414
#
# Velocity S-wave (km/s) = 3.22111 3.66067 3.44790
# Velocity P-wave (km/s) = 4.69220 5.52766 5.12697
#
# Compressibility (1/GPa) = 0.05840756
#
# Stress axis : x y z
#
# Youngs Moduli (GPa) = 88.09573 66.35409 27.62071
#
# Poissons Ratio (x) = 0.23003 0.12617
# Poissons Ratio (y) = 0.30541 -0.16366
# Poissons Ratio (z) = 0.40242 -0.39316
#
# Static dielectric constant tensor:
#      x y z
#    x 1.805350 0.000000 0.000000 
#    y 0.000000 1.800580 0.000000 
#    z 0.000000 0.000000 1.796670 
# 
# From -- ./inp_files/13560.got.cif
#   From: 2010.05.17/outbox.cif.g08.bks.cpg/sg40_7_cif.got.tgz:13560.got - 2010.06.03 18:35:42.
