data_PCOD9364175
_publ_section_title
;
Structure prediction by ZEFSAII (Michael W. Deem and Ramdas Pophale) SiO2 
 PCOD9364175
Probable space group: A M A 2
;
_chemical_formula_sum "Si O2"
_cell_formula_units_Z 64
_cell_length_a 23.618661
_cell_length_b 16.807784
_cell_length_c 8.607740
_cell_angle_alpha 90.000000
_cell_angle_beta 90.000000
_cell_angle_gamma 90.000000
_cell_volume 3417.077836
_symmetry_space_group_name_H-M "A M A 2"
_symmetry_group_IT_number 40
_symmetry_cell_setting 'orthorhombic'
loop_
_space_group_symop_operation_xyz
x,y,z
-x,-y,z
1/2-x,y,z
1/2+x,-y,z
x,1/2+y,1/2+z
-x,1/2-y,1/2+z
1/2-x,1/2+y,1/2+z
1/2+x,1/2-y,1/2+z
loop_
_atom_site_type_symbol
_atom_site_label
_atom_site_fract_x
_atom_site_fract_y
_atom_site_fract_z
Si Si1 0.460908 0.575431 0.056290
Si Si2 0.096963 0.652441 0.757728
Si Si3 0.813822 0.628810 0.692322
Si Si4 0.854136 0.388094 0.238321
Si Si5 0.689148 0.782770 0.472552
Si Si6 0.008918 0.260475 0.074188
Si Si7 0.814921 0.451862 0.560872
Si Si8 0.415059 0.777896 0.279428
O O1 0.500000 0.500000 0.042630
O O2 0.406224 0.563348 0.164904
O O3 0.496569 0.649166 0.127887
O O4 0.437266 0.603047 0.888376
O O5 0.055026 0.706011 0.657512
O O6 0.137380 0.596635 0.654510
O O7 0.138780 0.709140 0.853397
O O8 0.750000 0.629736 0.765272
O O9 0.813881 0.701336 0.569321
O O10 0.820706 0.544309 0.608545
O O11 0.868946 0.651752 0.795241
O O12 0.816509 0.355843 0.095222
O O13 0.824655 0.433413 0.378713
O O14 0.880903 0.304492 0.297483
O O15 0.750000 0.786954 0.394108
O O16 0.947724 0.220874 0.112775
O O17 0.034244 0.273682 0.902994
O O18 0.750000 0.428476 0.599972
#
# Coordination Sequence:
#
# PCOD9364175 Si02
#       8
#     8   8   8   8   8   8   8   8
#     4  10  23  40  57  84 118 154 190 238 298 357
#     4  11  22  36  58  86 116 150 195 239 295 350
#     4   9  21  38  60  85 116 154 195 242 296 344
#     4   9  19  37  58  82 111 149 195 231 285 348
#     4   9  18  37  59  78 108 153 193 229 285 350
#     4  11  21  37  60  83 117 154 196 240 293 357
#     4  11  22  37  59  90 120 148 196 253 296 346
#     4  10  20  38  59  84 113 156 197 241 288 356
#
# _framework density 18.729455000000002
#
# number of rings (size 3 to 8) (size 9 to 14) (size 15 to 20)
#    0.000    2.000    2.500    1.500    1.750    1.500 
#    2.250    0.625    0.000    0.000    0.000    0.000 
#    0.000    0.000    0.000    0.000    0.000    0.000 
#
# Total GULP energy -178213.986909 kJ/mol
# GULP energy per Si atom -5569.187091 kJ/mol
# Density = 1.868683 g / cm^3
# Si number density = 18.729455 Si / 1000 Ang^3
#
#
#
# Elastic Constant Matrix: (Units=GPa)
#
#
# Indices 1 2 3 4 5 6 
#
# 1 123.7608 60.4501 32.3909 0.0000 0.0000 0.0000
# 2 60.4501 66.7394 27.0055 0.0000 0.0000 0.0000
# 3 32.3909 27.0055 49.1491 0.0000 0.0000 0.0000
# 4 0.0000 0.0000 0.0000 13.3920 0.0000 0.0000
# 5 0.0000 0.0000 0.0000 0.0000 11.0968 0.0000
# 6 0.0000 0.0000 0.0000 0.0000 0.0000 33.4673
#
#
#
# Elastic Compliance Matrix: (Units=1/GPa)
#
#
# Indices 1 2 3 4 5 6 
#
# 1 0.014845 -0.012200 -0.003080 0.000000 0.000000 0.000000
# 2 -0.012200 0.029293 -0.008055 0.000000 0.000000 0.000000
# 3 -0.003080 -0.008055 0.026802 0.000000 0.000000 0.000000
# 4 0.000000 0.000000 0.000000 0.074671 0.000000 0.000000
# 5 0.000000 0.000000 0.000000 0.000000 0.090116 0.000000
# 6 0.000000 0.000000 0.000000 0.000000 0.000000 0.029880
#
#
# Mechanical properties :
#
#
# Convention : Reuss Voigt Hill
#
# Bulk Modulus (GPa) = 41.20309 53.26026 47.23168
# Shear Modulus (GPa) = 15.60699 19.57807 17.59253
#
# Velocity S-wave (km/s) = 2.88980 3.23663 3.06812
# Velocity P-wave (km/s) = 5.76033 6.51660 6.15010
#
# Compressibility (1/GPa) = 0.02427002
#
# Stress axis : x y z
#
# Youngs Moduli (GPa) = 67.36198 34.13740 37.31017
#
# Poissons Ratio (x) = 0.41647 0.11492
# Poissons Ratio (y) = 0.82181 0.30055
# Poissons Ratio (z) = 0.20748 0.27499
#
# Static dielectric constant tensor:
#      x y z
#    x 1.699240 0.000000 0.000000 
#    y 0.000000 1.620440 0.000000 
#    z 0.000000 0.000000 1.697560 
# 
# From -- ./inp_files/8976.got.cif
#   From: 2010.05.17/outbox.cif.g08.bks.cpg/sg40_5_cif.got.tgz:8976.got - 2010.06.03 18:35:42.
