data_PCOD9364665
_publ_section_title
;
Structure prediction by ZEFSAII (Michael W. Deem and Ramdas Pophale) SiO2 
 PCOD9364665
Probable space group: A M A 2
;
_chemical_formula_sum "Si O2"
_cell_formula_units_Z 48
_cell_length_a 17.353641
_cell_length_b 15.393157
_cell_length_c 8.032435
_cell_angle_alpha 90.000000
_cell_angle_beta 90.000000
_cell_angle_gamma 90.000000
_cell_volume 2145.682838
_symmetry_space_group_name_H-M "A M A 2"
_symmetry_group_IT_number 40
_symmetry_cell_setting 'orthorhombic'
loop_
_space_group_symop_operation_xyz
x,y,z
-x,-y,z
1/2-x,y,z
1/2+x,-y,z
x,1/2+y,1/2+z
-x,1/2-y,1/2+z
1/2-x,1/2+y,1/2+z
1/2+x,1/2-y,1/2+z
loop_
_atom_site_type_symbol
_atom_site_label
_atom_site_fract_x
_atom_site_fract_y
_atom_site_fract_z
Si Si1 0.341368 0.611946 0.968710
Si Si2 0.163152 0.949538 0.225119
Si Si3 0.915434 0.753227 0.245545
Si Si4 0.835888 0.725249 0.911943
Si Si5 0.553995 0.870257 0.769225
Si Si6 0.490027 0.412283 0.604371
O O1 0.250000 0.615846 0.013387
O O2 0.346531 0.543054 0.815360
O O3 0.374768 0.705214 0.906403
O O4 0.399572 0.586009 0.118728
O O5 0.250000 0.947591 0.158278
O O6 0.155354 0.875625 0.367233
O O7 0.101933 0.914710 0.090031
O O8 0.967841 0.667229 0.243766
O O9 0.976402 0.827536 0.189314
O O10 0.851714 0.741735 0.104876
O O11 0.750000 0.751715 0.865275
O O12 0.894970 0.786384 0.816126
O O13 0.542060 0.922847 0.939751
O O14 0.500000 0.500000 0.711448
#
# Coordination Sequence:
#
# PCOD9364665 Si02
#       6
#     8   8   8   8   8   8
#     4  11  23  42  67  95 129 169 213 266 323 386
#     4  10  22  41  67  95 127 169 213 261 324 384
#     4  11  22  39  63  93 126 164 213 258 312 380
#     4  10  21  39  62  89 124 161 204 261 318 376
#     4  11  24  39  60  94 126 165 212 261 317 377
#     4  11  22  41  61  91 127 170 208 259 313 374
#
# _framework density 22.3705
#
# number of rings (size 3 to 8) (size 9 to 14) (size 15 to 20)
#    0.000    1.333    3.333    3.000    0.000    1.333 
#    0.000    1.667    0.000    0.000    0.000    0.000 
#    0.000    0.000    0.000    0.000    0.000    0.000 
#
# Total GULP energy -133747.264414 kJ/mol
# GULP energy per Si atom -5572.802684 kJ/mol
# Density = 2.231958 g / cm^3
# Si number density = 22.370500 Si / 1000 Ang^3
#
#
#
# Elastic Constant Matrix: (Units=GPa)
#
#
# Indices 1 2 3 4 5 6 
#
# 1 128.2061 19.1846 35.8051 0.0000 0.0000 0.0000
# 2 19.1846 52.5436 -6.9683 0.0000 0.0000 0.0000
# 3 35.8051 -6.9683 59.8679 0.0000 0.0000 0.0000
# 4 0.0000 0.0000 0.0000 14.7635 0.0000 0.0000
# 5 0.0000 0.0000 0.0000 0.0000 33.8862 0.0000
# 6 0.0000 0.0000 0.0000 0.0000 0.0000 28.9401
#
#
#
# Elastic Compliance Matrix: (Units=1/GPa)
#
#
# Indices 1 2 3 4 5 6 
#
# 1 0.010389 -0.004690 -0.006759 0.000000 0.000000 0.000000
# 2 -0.004690 0.021447 0.005301 0.000000 0.000000 0.000000
# 3 -0.006759 0.005301 0.021363 0.000000 0.000000 0.000000
# 4 0.000000 0.000000 0.000000 0.067734 0.000000 0.000000
# 5 0.000000 0.000000 0.000000 0.000000 0.029511 0.000000
# 6 0.000000 0.000000 0.000000 0.000000 0.000000 0.034554
#
#
# Mechanical properties :
#
#
# Convention : Reuss Voigt Hill
#
# Bulk Modulus (GPa) = 24.44783 37.40673 30.92728
# Shear Modulus (GPa) = 23.70459 28.35773 26.03116
#
# Velocity S-wave (km/s) = 3.25874 3.56425 3.41491
# Velocity P-wave (km/s) = 5.01114 5.80485 5.42254
#
# Compressibility (1/GPa) = 0.04090342
#
# Stress axis : x y z
#
# Youngs Moduli (GPa) = 96.25108 46.62620 46.80973
#
# Poissons Ratio (x) = 0.21867 0.31641
# Poissons Ratio (y) = 0.45140 -0.24815
# Poissons Ratio (z) = 0.65061 -0.24717
#
# Static dielectric constant tensor:
#      x y z
#    x 1.927510 0.000000 0.000000 
#    y 0.000000 1.860710 0.000000 
#    z 0.000000 0.000000 1.869960 
# 
# From -- ./inp_files/6436.got.cif
#   From: 2010.05.17/outbox.cif.g08.bks.cpg/sg40_4_cif.got.tgz:6436.got - 2010.06.03 18:35:42.
