data_PCOD9364937
_publ_section_title
;
Structure prediction by ZEFSAII (Michael W. Deem and Ramdas Pophale) SiO2 
 PCOD9364937
Probable space group: A M A 2
;
_chemical_formula_sum "Si O2"
_cell_formula_units_Z 56
_cell_length_a 15.095470
_cell_length_b 32.310174
_cell_length_c 5.130008
_cell_angle_alpha 90.000000
_cell_angle_beta 90.000000
_cell_angle_gamma 90.000000
_cell_volume 2502.096058
_symmetry_space_group_name_H-M "A M A 2"
_symmetry_group_IT_number 40
_symmetry_cell_setting 'orthorhombic'
loop_
_space_group_symop_operation_xyz
x,y,z
-x,-y,z
1/2-x,y,z
1/2+x,-y,z
x,1/2+y,1/2+z
-x,1/2-y,1/2+z
1/2-x,1/2+y,1/2+z
1/2+x,1/2-y,1/2+z
loop_
_atom_site_type_symbol
_atom_site_label
_atom_site_fract_x
_atom_site_fract_y
_atom_site_fract_z
Si Si1 0.101976 0.911568 0.059220
Si Si2 0.003030 0.887829 0.542319
Si Si3 0.150653 0.553808 0.169971
Si Si4 0.351534 0.247159 0.975504
Si Si5 0.003773 0.298736 0.228065
Si Si6 0.105296 0.002774 0.167235
Si Si7 0.656947 0.676003 0.598148
O O1 0.019692 0.907332 0.259347
O O2 0.157966 0.872388 0.158685
O O3 0.140641 0.956706 0.108505
O O4 0.075077 0.903715 0.757877
O O5 0.001447 0.837998 0.533843
O O6 0.912675 0.907007 0.646048
O O7 0.250000 0.565974 0.110306
O O8 0.122285 0.519161 0.957520
O O9 0.143413 0.534008 0.454765
O O10 0.250000 0.235129 0.053558
O O11 0.403694 0.214744 0.792145
O O12 0.341783 0.290944 0.827717
O O13 0.433309 0.258787 0.168767
O O14 0.063813 0.317642 0.457345
O O15 0.000000 0.000000 0.121037
O O16 0.750000 0.684651 0.444686
#
# Coordination Sequence:
#
# PCOD9364937 Si02
#       7
#     8   8   8   8   8   8   8
#     4  11  22  39  65  93 123 168 222 265 318 394
#     4  11  22  40  65  91 124 173 216 265 325 393
#     4  12  25  41  63  97 133 169 216 279 329 382
#     4  11  22  39  64  93 126 166 213 268 331 396
#     4  11  22  40  66  91 130 169 219 270 330 399
#     4  12  22  41  69  91 127 177 221 260 327 402
#     4  10  22  39  61  91 126 166 209 268 331 389
#
# _framework density 22.381236999999999
#
# number of rings (size 3 to 8) (size 9 to 14) (size 15 to 20)
#    0.000    0.857    5.714    2.143    0.000    1.714 
#    0.000    0.000    0.000    0.857    0.000    0.000 
#    0.000    0.000    0.000    0.000    0.000    0.000 
#
# Total GULP energy -156117.637205 kJ/mol
# GULP energy per Si atom -5575.629900 kJ/mol
# Density = 2.233030 g / cm^3
# Si number density = 22.381237 Si / 1000 Ang^3
#
#
#
# Elastic Constant Matrix: (Units=GPa)
#
#
# Indices 1 2 3 4 5 6 
#
# 1 125.9958 24.6750 -7.6782 0.0000 0.0000 0.0000
# 2 24.6750 80.4750 1.3695 0.0000 0.0000 0.0000
# 3 -7.6782 1.3695 54.0235 0.0000 0.0000 0.0000
# 4 0.0000 0.0000 0.0000 28.6762 0.0000 0.0000
# 5 0.0000 0.0000 0.0000 0.0000 21.8058 0.0000
# 6 0.0000 0.0000 0.0000 0.0000 0.0000 3.4857
#
#
#
# Elastic Compliance Matrix: (Units=1/GPa)
#
#
# Indices 1 2 3 4 5 6 
#
# 1 0.008531 -0.002638 0.001279 0.000000 0.000000 0.000000
# 2 -0.002638 0.013247 -0.000711 0.000000 0.000000 0.000000
# 3 0.001279 -0.000711 0.018710 0.000000 0.000000 0.000000
# 4 0.000000 0.000000 0.000000 0.034872 0.000000 0.000000
# 5 0.000000 0.000000 0.000000 0.000000 0.045859 0.000000
# 6 0.000000 0.000000 0.000000 0.000000 0.000000 0.286889
#
#
# Mechanical properties :
#
#
# Convention : Reuss Voigt Hill
#
# Bulk Modulus (GPa) = 27.50969 33.02522 30.26746
# Shear Modulus (GPa) = 11.78235 26.93540 19.35888
#
# Velocity S-wave (km/s) = 2.29691 3.47289 2.94421
# Velocity P-wave (km/s) = 4.39915 5.55599 5.01107
#
# Compressibility (1/GPa) = 0.03635082
#
# Stress axis : x y z
#
# Youngs Moduli (GPa) = 117.21564 75.48856 53.44643
#
# Poissons Ratio (x) = 0.19911 -0.06838
# Poissons Ratio (y) = 0.30917 0.03798
# Poissons Ratio (z) = -0.14996 0.05365
#
# Static dielectric constant tensor:
#      x y z
#    x 1.892290 0.000000 0.000000 
#    y 0.000000 1.853190 0.000000 
#    z 0.000000 0.000000 1.898440 
# 
# From -- ./inp_files/1444.got.cif
#   From: 2010.05.17/outbox.cif.g08.bks.cpg/sg40_1_cif.got.tgz:1444.got - 2010.06.03 18:35:42.
