data_PCOD9364489
_publ_section_title
;
Structure prediction by ZEFSAII (Michael W. Deem and Ramdas Pophale) SiO2 
 PCOD9364489
Probable space group: A M A 2
;
_chemical_formula_sum "Si O2"
_cell_formula_units_Z 40
_cell_length_a 16.827892
_cell_length_b 12.445139
_cell_length_c 10.026800
_cell_angle_alpha 90.000000
_cell_angle_beta 90.000000
_cell_angle_gamma 90.000000
_cell_volume 2099.867152
_symmetry_space_group_name_H-M "A M A 2"
_symmetry_group_IT_number 40
_symmetry_cell_setting 'orthorhombic'
loop_
_space_group_symop_operation_xyz
x,y,z
-x,-y,z
1/2-x,y,z
1/2+x,-y,z
x,1/2+y,1/2+z
-x,1/2-y,1/2+z
1/2-x,1/2+y,1/2+z
1/2+x,1/2-y,1/2+z
loop_
_atom_site_type_symbol
_atom_site_label
_atom_site_fract_x
_atom_site_fract_y
_atom_site_fract_z
Si Si1 0.662729 0.743761 0.814160
Si Si2 0.164487 0.001428 0.809690
Si Si3 0.500000 0.500000 0.713309
Si Si4 0.886953 0.646171 0.538789
Si Si5 0.000000 0.500000 0.155859
Si Si6 0.994625 0.829389 0.426989
O O1 0.750000 0.702457 0.856467
O O2 0.661455 0.871285 0.839930
O O3 0.653480 0.716850 0.655941
O O4 0.586004 0.695083 0.887990
O O5 0.250000 0.983913 0.737864
O O6 0.081135 0.981756 0.736026
O O7 0.164211 0.923967 0.937488
O O8 0.562036 0.559540 0.620454
O O9 0.536228 0.408310 0.809984
O O10 0.944052 0.722916 0.451318
O O11 0.010537 0.603159 0.062109
#
# Coordination Sequence:
#
# PCOD9364489 Si02
#       6
#     8   8   4   8   4   8
#     4  10  21  38  58  86 120 158 203 254 307 360
#     4  11  23  38  61  91 121 160 205 249 303 367
#     4   9  21  34  56  92 111 149 208 248 292 361
#     4  11  20  38  62  84 120 159 196 252 301 359
#     4  11  21  40  60  90 127 155 204 258 296 367
#     4  10  21  36  61  88 115 160 203 244 305 362
#
# _framework density 19.048824
#
# number of rings (size 3 to 8) (size 9 to 14) (size 15 to 20)
#    0.000    1.600    2.000    3.600    2.800    0.800 
#    0.000    0.000    0.000    2.400    0.000    0.000 
#    0.000    0.000    0.000    0.000    0.000    0.000 
#
# Total GULP energy -111477.026760 kJ/mol
# GULP energy per Si atom -5573.851338 kJ/mol
# Density = 1.900547 g / cm^3
# Si number density = 19.048824 Si / 1000 Ang^3
#
#
#
# Elastic Constant Matrix: (Units=GPa)
#
#
# Indices 1 2 3 4 5 6 
#
# 1 114.1897 54.4775 52.2809 0.0000 0.0000 0.0000
# 2 54.4775 108.0671 41.9661 0.0000 0.0000 0.0000
# 3 52.2809 41.9661 73.9982 0.0000 0.0000 0.0000
# 4 0.0000 0.0000 0.0000 6.0330 0.0000 0.0000
# 5 0.0000 0.0000 0.0000 0.0000 1.9006 0.0000
# 6 0.0000 0.0000 0.0000 0.0000 0.0000 10.0305
#
#
#
# Elastic Compliance Matrix: (Units=1/GPa)
#
#
# Indices 1 2 3 4 5 6 
#
# 1 0.014299 -0.004213 -0.007713 0.000000 0.000000 0.000000
# 2 -0.004213 0.013108 -0.004458 0.000000 0.000000 0.000000
# 3 -0.007713 -0.004458 0.021491 0.000000 0.000000 0.000000
# 4 0.000000 0.000000 0.000000 0.165755 0.000000 0.000000
# 5 0.000000 0.000000 0.000000 0.000000 0.526154 0.000000
# 6 0.000000 0.000000 0.000000 0.000000 0.000000 0.099696
#
#
# Mechanical properties :
#
#
# Convention : Reuss Voigt Hill
#
# Bulk Modulus (GPa) = 61.99145 65.96712 63.97929
# Shear Modulus (GPa) = 5.69057 13.42819 9.55938
#
# Velocity S-wave (km/s) = 1.73027 2.65794 2.24260
# Velocity P-wave (km/s) = 6.05028 6.64269 6.35339
#
# Compressibility (1/GPa) = 0.01613126
#
# Stress axis : x y z
#
# Youngs Moduli (GPa) = 69.93730 76.28789 46.53078
#
# Poissons Ratio (x) = 0.32139 0.35889
# Poissons Ratio (y) = 0.29463 0.20741
# Poissons Ratio (z) = 0.53942 0.34006
#
# Static dielectric constant tensor:
#      x y z
#    x 1.715430 0.000000 0.000000 
#    y 0.000000 1.656400 0.000000 
#    z 0.000000 0.000000 1.668640 
# 
# From -- ./inp_files/7170.got.cif
#   From: 2010.05.17/outbox.cif.g08.bks.cpg/sg40_4_cif.got.tgz:7170.got - 2010.06.03 18:35:42.
