data_PCOD9364525
_publ_section_title
;
Structure prediction by ZEFSAII (Michael W. Deem and Ramdas Pophale) SiO2 
 PCOD9364525
Probable space group: A M A 2
;
_chemical_formula_sum "Si O2"
_cell_formula_units_Z 64
_cell_length_a 8.418884
_cell_length_b 31.898830
_cell_length_c 12.256423
_cell_angle_alpha 90.000000
_cell_angle_beta 90.000000
_cell_angle_gamma 90.000000
_cell_volume 3291.493644
_symmetry_space_group_name_H-M "A M A 2"
_symmetry_group_IT_number 40
_symmetry_cell_setting 'orthorhombic'
loop_
_space_group_symop_operation_xyz
x,y,z
-x,-y,z
1/2-x,y,z
1/2+x,-y,z
x,1/2+y,1/2+z
-x,1/2-y,1/2+z
1/2-x,1/2+y,1/2+z
1/2+x,1/2-y,1/2+z
loop_
_atom_site_type_symbol
_atom_site_label
_atom_site_fract_x
_atom_site_fract_y
_atom_site_fract_z
Si Si1 0.942059 0.374544 0.301360
Si Si2 0.559082 0.296423 0.698138
Si Si3 0.555825 0.374467 0.552947
Si Si4 0.942346 0.701962 0.156817
Si Si5 0.560306 0.955323 0.663250
Si Si6 0.939818 0.955634 0.190288
Si Si7 0.440101 0.931466 0.426367
Si Si8 0.558586 0.666376 0.923006
O O1 0.750000 0.375020 0.300447
O O2 0.994558 0.376369 0.427170
O O3 0.997631 0.415137 0.232483
O O4 0.997696 0.332063 0.243251
O O5 0.750000 0.295429 0.689004
O O6 0.502094 0.331905 0.613102
O O7 0.500923 0.249277 0.677550
O O8 0.513299 0.311297 0.818392
O O9 0.750000 0.374454 0.554246
O O10 0.503914 0.415267 0.621462
O O11 0.750000 0.701622 0.160157
O O12 0.992014 0.687125 0.036421
O O13 0.750000 0.955307 0.666267
O O14 0.505904 0.950401 0.538065
O O15 0.500000 0.000000 0.706032
O O16 0.750000 0.955555 0.189202
O O17 0.996828 0.951218 0.314956
O O18 0.000000 0.000000 0.145559
O O19 0.250000 0.934888 0.428157
O O20 0.486176 0.882451 0.423932
O O21 0.750000 0.668729 0.916172
#
# Coordination Sequence:
#
# PCOD9364525 Si02
#       8
#     8   8   8   8   8   8   8   8
#     4  10  22  40  62  85 113 153 198 237 284 345
#     4  10  21  38  61  86 116 153 194 234 283 344
#     4   9  20  39  60  82 112 152 192 233 282 339
#     4  10  22  39  59  88 120 153 190 238 292 338
#     4  11  23  38  59  87 116 151 193 239 288 346
#     4  11  22  38  60  85 116 150 190 239 288 345
#     4  11  21  37  60  86 118 153 190 236 288 345
#     4  10  21  37  60  87 119 152 188 236 291 339
#
# _framework density 19.44406
#
# number of rings (size 3 to 8) (size 9 to 14) (size 15 to 20)
#    0.000    1.750    2.500    1.500    1.750    2.500 
#    0.000    1.875    0.000    0.000    0.000    0.000 
#    0.000    0.000    0.000    0.000    0.000    0.000 
#
# Total GULP energy -178787.758550 kJ/mol
# GULP energy per Si atom -5587.117455 kJ/mol
# Density = 1.939980 g / cm^3
# Si number density = 19.444060 Si / 1000 Ang^3
#
#
#
# Elastic Constant Matrix: (Units=GPa)
#
#
# Indices 1 2 3 4 5 6 
#
# 1 15.1999 26.2717 14.1849 0.0000 0.0000 0.0000
# 2 26.2717 200.7029 87.8755 0.0000 0.0000 0.0000
# 3 14.1849 87.8755 150.4329 0.0000 0.0000 0.0000
# 4 0.0000 0.0000 0.0000 60.3570 0.0000 0.0000
# 5 0.0000 0.0000 0.0000 0.0000 2.2365 0.0000
# 6 0.0000 0.0000 0.0000 0.0000 0.0000 26.3452
#
#
#
# Elastic Compliance Matrix: (Units=1/GPa)
#
#
# Indices 1 2 3 4 5 6 
#
# 1 0.085494 -0.010294 -0.002048 0.000000 0.000000 0.000000
# 2 -0.010294 0.007934 -0.003664 0.000000 0.000000 0.000000
# 3 -0.002048 -0.003664 0.008981 0.000000 0.000000 0.000000
# 4 0.000000 0.000000 0.000000 0.016568 0.000000 0.000000
# 5 0.000000 0.000000 0.000000 0.000000 0.447123 0.000000
# 6 0.000000 0.000000 0.000000 0.000000 0.000000 0.037958
#
#
# Mechanical properties :
#
#
# Convention : Reuss Voigt Hill
#
# Bulk Modulus (GPa) = 14.20528 69.22221 41.71374
# Shear Modulus (GPa) = 7.58108 33.65464 20.61786
#
# Velocity S-wave (km/s) = 1.97671 4.16486 3.25986
# Velocity P-wave (km/s) = 3.53997 7.66851 5.97233
#
# Compressibility (1/GPa) = 0.07039638
#
# Stress axis : x y z
#
# Youngs Moduli (GPa) = 11.69669 126.03509 111.34591
#
# Poissons Ratio (x) = 1.29744 0.22806
# Poissons Ratio (y) = 0.12041 0.40799
# Poissons Ratio (z) = 0.02396 0.46181
#
# Static dielectric constant tensor:
#      x y z
#    x 1.674470 0.000000 0.000000 
#    y 0.000000 1.684920 0.000000 
#    z 0.000000 0.000000 1.643540 
# 
# From -- ./inp_files/10650.got.cif
#   From: 2010.05.17/outbox.cif.g08.bks.cpg/sg40_6_cif.got.tgz:10650.got - 2010.06.03 18:35:42.
