data_PCOD9364797
_publ_section_title
;
Structure prediction by ZEFSAII (Michael W. Deem and Ramdas Pophale) SiO2 
 PCOD9364797
Probable space group: A M A 2
;
_chemical_formula_sum "Si O2"
_cell_formula_units_Z 40
_cell_length_a 22.797872
_cell_length_b 8.965618
_cell_length_c 9.057489
_cell_angle_alpha 90.000000
_cell_angle_beta 90.000000
_cell_angle_gamma 90.000000
_cell_volume 1851.323684
_symmetry_space_group_name_H-M "A M A 2"
_symmetry_group_IT_number 40
_symmetry_cell_setting 'orthorhombic'
loop_
_space_group_symop_operation_xyz
x,y,z
-x,-y,z
1/2-x,y,z
1/2+x,-y,z
x,1/2+y,1/2+z
-x,1/2-y,1/2+z
1/2-x,1/2+y,1/2+z
1/2+x,1/2-y,1/2+z
loop_
_atom_site_type_symbol
_atom_site_label
_atom_site_fract_x
_atom_site_fract_y
_atom_site_fract_z
Si Si1 0.443429 0.406748 0.694660
Si Si2 0.366962 0.189320 0.192687
Si Si3 0.866074 0.810351 0.860262
Si Si4 0.442805 0.908456 0.857633
Si Si5 0.750000 0.854705 0.360435
Si Si6 0.750000 0.205777 0.200429
O O1 0.500000 0.500000 0.742546
O O2 0.388381 0.519150 0.690699
O O3 0.422733 0.277881 0.801283
O O4 0.453633 0.355700 0.525863
O O5 0.423081 0.278392 0.251369
O O6 0.310422 0.205783 0.293465
O O7 0.352895 0.236816 0.027039
O O8 0.887142 0.980403 0.858872
O O9 0.809477 0.776489 0.764239
O O10 0.500000 0.000000 0.810655
O O11 0.750000 0.776385 0.528476
O O12 0.750000 0.031581 0.279999
#
# Coordination Sequence:
#
# PCOD9364797 Si02
#       6
#     8   8   8   8   4   4
#     4  10  21  41  65  94 136 181 226 283 351 424
#     4  11  24  41  67  97 136 177 233 292 356 425
#     4  11  24  41  67  99 134 177 235 288 358 428
#     4  10  23  41  65  99 137 182 230 291 352 427
#     4  12  27  47  74  99 140 188 238 298 373 446
#     4  12  27  47  74 101 138 190 238 298 375 446
#
# _framework density 21.606161
#
# number of rings (size 3 to 8) (size 9 to 14) (size 15 to 20)
#    0.000    1.200    2.000    3.000    5.600    3.200 
#    0.000    0.000    0.000    0.000    0.000    0.000 
#    0.000    0.000    0.000    0.000    0.000    0.000 
#
# Total GULP energy -111408.312744 kJ/mol
# GULP energy per Si atom -5570.415637 kJ/mol
# Density = 2.155698 g / cm^3
# Si number density = 21.606161 Si / 1000 Ang^3
#
#
#
# Elastic Constant Matrix: (Units=GPa)
#
#
# Indices 1 2 3 4 5 6 
#
# 1 111.6654 12.7134 44.4666 0.0000 0.0000 0.0000
# 2 12.7134 64.8856 48.9607 0.0000 0.0000 0.0000
# 3 44.4666 48.9607 117.7216 0.0000 0.0000 0.0000
# 4 0.0000 0.0000 0.0000 18.9049 0.0000 0.0000
# 5 0.0000 0.0000 0.0000 0.0000 33.1224 0.0000
# 6 0.0000 0.0000 0.0000 0.0000 0.0000 32.4869
#
#
#
# Elastic Compliance Matrix: (Units=1/GPa)
#
#
# Indices 1 2 3 4 5 6 
#
# 1 0.010625 0.001379 -0.004587 0.000000 0.000000 0.000000
# 2 0.001379 0.022640 -0.009937 0.000000 0.000000 0.000000
# 3 -0.004587 -0.009937 0.014360 0.000000 0.000000 0.000000
# 4 0.000000 0.000000 0.000000 0.052896 0.000000 0.000000
# 5 0.000000 0.000000 0.000000 0.000000 0.030191 0.000000
# 6 0.000000 0.000000 0.000000 0.000000 0.000000 0.030782
#
#
# Mechanical properties :
#
#
# Convention : Reuss Voigt Hill
#
# Bulk Modulus (GPa) = 46.87019 56.28375 51.57697
# Shear Modulus (GPa) = 25.65494 29.44497 27.54995
#
# Velocity S-wave (km/s) = 3.44959 3.69562 3.57472
# Velocity P-wave (km/s) = 6.13240 6.65707 6.40011
#
# Compressibility (1/GPa) = 0.02133552
#
# Stress axis : x y z
#
# Youngs Moduli (GPa) = 94.11870 44.17050 69.63777
#
# Poissons Ratio (x) = -0.06093 0.31943
# Poissons Ratio (y) = -0.12983 0.69198
# Poissons Ratio (z) = 0.43172 0.43892
#
# Static dielectric constant tensor:
#      x y z
#    x 1.756610 0.000000 0.000000 
#    y 0.000000 1.865670 0.000000 
#    z 0.000000 0.000000 1.803980 
# 
# From -- ./inp_files/8618.got.cif
#   From: 2010.05.17/outbox.cif.g08.bks.cpg/sg40_5_cif.got.tgz:8618.got - 2010.06.03 18:35:42.
