data_PCOD9364430
_publ_section_title
;
Structure prediction by ZEFSAII (Michael W. Deem and Ramdas Pophale) SiO2 
 PCOD9364430
Probable space group: A M A 2
;
_chemical_formula_sum "Si O2"
_cell_formula_units_Z 64
_cell_length_a 13.766993
_cell_length_b 14.372589
_cell_length_c 19.155943
_cell_angle_alpha 90.000000
_cell_angle_beta 90.000000
_cell_angle_gamma 90.000000
_cell_volume 3790.335336
_symmetry_space_group_name_H-M "A M A 2"
_symmetry_group_IT_number 40
_symmetry_cell_setting 'orthorhombic'
loop_
_space_group_symop_operation_xyz
x,y,z
-x,-y,z
1/2-x,y,z
1/2+x,-y,z
x,1/2+y,1/2+z
-x,1/2-y,1/2+z
1/2-x,1/2+y,1/2+z
1/2+x,1/2-y,1/2+z
loop_
_atom_site_type_symbol
_atom_site_label
_atom_site_fract_x
_atom_site_fract_y
_atom_site_fract_z
Si Si1 0.135164 0.584735 0.647750
Si Si2 0.135164 0.084735 0.996777
Si Si3 0.136223 0.808258 0.652493
Si Si4 0.363776 0.308258 0.992034
Si Si5 0.634631 0.486248 0.797822
Si Si6 0.018481 0.850949 0.356502
Si Si7 0.365369 0.513752 0.346705
Si Si8 0.018481 0.350949 0.288025
O O1 0.250000 0.564263 0.645150
O O2 0.093894 0.556872 0.572263
O O3 0.126774 0.696125 0.653891
O O4 0.101972 0.539253 0.719291
O O5 0.250000 0.064262 0.999377
O O6 0.126774 0.196125 0.990636
O O7 0.101971 0.039253 0.925236
O O8 0.250000 0.829901 0.669441
O O9 0.118583 0.838314 0.572263
O O10 0.061006 0.844301 0.709905
O O11 0.250000 0.329901 0.975086
O O12 0.438994 0.344301 0.934622
O O13 0.750000 0.475956 0.804043
O O14 0.577878 0.413975 0.847887
O O15 0.599751 0.589841 0.815127
O O16 1.000000 0.750000 0.322263
O O17 0.250000 0.524045 0.340484
O O18 0.400249 0.410159 0.329400
O O19 0.422122 0.586025 0.296639
#
# Coordination Sequence:
#
# PCOD9364430 Si02
#       8
#     8   8   8   8   8   8   8   8
#     4   8  14  28  51  77 106 140 177 216 262 321
#     4   8  14  28  51  77 106 140 177 216 262 321
#     4   9  17  32  56  82 109 145 185 223 264 316
#     4   9  17  32  56  82 109 145 185 223 264 316
#     4  10  21  35  52  79 111 145 182 224 278 329
#     4  11  21  34  54  81 110 138 181 227 271 319
#     4  10  21  35  52  79 111 145 182 224 278 329
#     4  11  21  34  54  81 110 138 181 227 271 319
#
# _framework density 16.88505
#
# number of rings (size 3 to 8) (size 9 to 14) (size 15 to 20)
#    0.000    2.500    2.500    2.250    0.000    1.000 
#    0.000    6.250    0.000    2.250    0.000    0.000 
#    0.000    0.000    0.000    0.000    0.000    0.000 
#
# Total GULP energy -178139.946314 kJ/mol
# GULP energy per Si atom -5566.873322 kJ/mol
# Density = 1.684662 g / cm^3
# Si number density = 16.885050 Si / 1000 Ang^3
#
#
#
# Elastic Constant Matrix: (Units=GPa)
#
#
# Indices 1 2 3 4 5 6 
#
# 1 119.3483 40.2498 63.1422 0.0000 0.0000 0.0000
# 2 40.2498 73.8886 46.4311 0.0000 0.0000 0.0000
# 3 63.1422 46.4311 151.9265 0.0000 0.0000 0.0000
# 4 0.0000 0.0000 0.0000 -908.6011 0.0000 0.0000
# 5 0.0000 0.0000 0.0000 0.0000 25.2558 0.0000
# 6 0.0000 0.0000 0.0000 0.0000 0.0000 24.3324
#
#
#
# Elastic Compliance Matrix: (Units=1/GPa)
#
#
# Indices 1 2 3 4 5 6 
#
# 1 0.011662 -0.004093 -0.003596 0.000000 0.000000 0.000000
# 2 -0.004093 0.018187 -0.003857 0.000000 0.000000 0.000000
# 3 -0.003596 -0.003857 0.009255 0.000000 0.000000 0.000000
# 4 0.000000 0.000000 0.000000 -0.001101 0.000000 0.000000
# 5 0.000000 0.000000 0.000000 0.000000 0.039595 0.000000
# 6 0.000000 0.000000 0.000000 0.000000 0.000000 0.041097
#
#
# Mechanical properties :
#
#
# Convention : Reuss Voigt Hill
#
# Bulk Modulus (GPa) = 62.45181 71.64550 67.04865
# Shear Modulus (GPa) = 33.98464 -158.77988 -62.39762
#
# Velocity S-wave (km/s) = 4.49119 -9.70772 -6.08560
# Velocity P-wave (km/s) = 7.99757 9.11755 3.09586
#
# Compressibility (1/GPa) = 0.01601235
#
# Stress axis : x y z
#
# Youngs Moduli (GPa) = 85.75203 54.98338 108.04474
#
# Poissons Ratio (x) = 0.22504 0.38851
# Poissons Ratio (y) = 0.35097 0.41676
# Poissons Ratio (z) = 0.30835 0.21209
#
# Static dielectric constant tensor:
#      x y z
#    x 1.586390 0.000000 0.000000 
#    y 0.000000 1.559140 0.000000 
#    z 0.000000 0.000000 1.613180 
# 
# From -- ./inp_files/20867.got.cif
#   From: 2010.05.17/outbox.cif.g08.bks.cpg/sg40_11_cif.got.tgz:20867.got - 2010.06.03 18:35:42.
