data_PCOD9364626
_publ_section_title
;
Structure prediction by ZEFSAII (Michael W. Deem and Ramdas Pophale) SiO2 
 PCOD9364626
Probable space group: A M A 2
;
_chemical_formula_sum "Si O2"
_cell_formula_units_Z 56
_cell_length_a 13.377310
_cell_length_b 9.703202
_cell_length_c 19.297617
_cell_angle_alpha 90.000000
_cell_angle_beta 90.000000
_cell_angle_gamma 90.000000
_cell_volume 2504.883584
_symmetry_space_group_name_H-M "A M A 2"
_symmetry_group_IT_number 40
_symmetry_cell_setting 'orthorhombic'
loop_
_space_group_symop_operation_xyz
x,y,z
-x,-y,z
1/2-x,y,z
1/2+x,-y,z
x,1/2+y,1/2+z
-x,1/2-y,1/2+z
1/2-x,1/2+y,1/2+z
1/2+x,1/2-y,1/2+z
loop_
_atom_site_type_symbol
_atom_site_label
_atom_site_fract_x
_atom_site_fract_y
_atom_site_fract_z
Si Si1 0.861371 0.196223 0.866830
Si Si2 0.865524 0.920094 0.268006
Si Si3 0.870658 0.724062 0.733552
Si Si4 0.644373 0.390388 0.000353
Si Si5 0.041098 0.649238 0.627459
Si Si6 0.130438 0.615390 0.372715
Si Si7 0.425171 0.305402 0.998825
O O1 0.750000 0.164649 0.838573
O O2 0.912880 0.297450 0.812432
O O3 0.851001 0.292809 0.933379
O O4 0.899500 0.044153 0.881845
O O5 0.750000 0.924609 0.289106
O O6 0.882056 0.880329 0.189108
O O7 0.897330 0.078523 0.271455
O O8 0.750000 0.719990 0.715724
O O9 0.946558 0.724561 0.667609
O O10 0.883941 0.839953 0.792548
O O11 0.750000 0.370176 0.039064
O O12 0.536183 0.346455 0.026199
O O13 0.632912 0.552840 0.984809
O O14 0.000000 0.500000 0.602742
O O15 0.104015 0.718066 0.565777
O O16 0.250000 0.630019 0.387138
O O17 0.078264 0.714691 0.429255
#
# Coordination Sequence:
#
# PCOD9364626 Si02
#       7
#     8   8   8   8   8   8   8
#     4   9  19  37  62  95 126 161 208 264 326 377
#     4   9  18  36  61  87 122 168 210 255 318 386
#     4   9  19  39  64  91 127 170 216 265 320 390
#     4  10  23  43  62  87 125 166 212 261 318 387
#     4  10  23  40  60  93 129 163 215 263 320 389
#     4  10  21  38  65 100 129 161 213 274 328 384
#     4  11  24  40  65  94 124 171 217 263 326 383
#
# _framework density 22.356327
#
# number of rings (size 3 to 8) (size 9 to 14) (size 15 to 20)
#    0.000    2.286    0.000    1.286    4.000    4.000 
#    5.143    0.000    0.000    0.000    0.000    0.000 
#    0.000    0.000    0.000    0.000    0.000    0.000 
#
# Total GULP energy -155915.963963 kJ/mol
# GULP energy per Si atom -5568.427284 kJ/mol
# Density = 2.230544 g / cm^3
# Si number density = 22.356327 Si / 1000 Ang^3
#
#
#
# Elastic Constant Matrix: (Units=GPa)
#
#
# Indices 1 2 3 4 5 6 
#
# 1 100.3833 12.0259 5.1155 0.0000 0.0000 0.0000
# 2 12.0259 118.8931 59.8583 0.0000 0.0000 0.0000
# 3 5.1155 59.8583 59.2166 0.0000 0.0000 0.0000
# 4 0.0000 0.0000 0.0000 7.2933 0.0000 0.0000
# 5 0.0000 0.0000 0.0000 0.0000 56.3607 0.0000
# 6 0.0000 0.0000 0.0000 0.0000 0.0000 12.2131
#
#
#
# Elastic Compliance Matrix: (Units=1/GPa)
#
#
# Indices 1 2 3 4 5 6 
#
# 1 0.010087 -0.001184 0.000326 0.000000 0.000000 0.000000
# 2 -0.001184 0.017266 -0.017351 0.000000 0.000000 0.000000
# 3 0.000326 -0.017351 0.034398 0.000000 0.000000 0.000000
# 4 0.000000 0.000000 0.000000 0.137112 0.000000 0.000000
# 5 0.000000 0.000000 0.000000 0.000000 0.017743 0.000000
# 6 0.000000 0.000000 0.000000 0.000000 0.000000 0.081879
#
#
# Mechanical properties :
#
#
# Convention : Reuss Voigt Hill
#
# Bulk Modulus (GPa) = 39.47544 48.05473 43.76509
# Shear Modulus (GPa) = 14.56241 28.60630 21.58436
#
# Velocity S-wave (km/s) = 2.55498 3.58098 3.11057
# Velocity P-wave (km/s) = 5.13805 6.21606 5.70259
#
# Compressibility (1/GPa) = 0.02533221
#
# Stress axis : x y z
#
# Youngs Moduli (GPa) = 99.13655 57.91599 29.07128
#
# Poissons Ratio (x) = 0.06859 -0.00947
# Poissons Ratio (y) = 0.11741 0.50442
# Poissons Ratio (z) = -0.03229 1.00491
#
# Static dielectric constant tensor:
#      x y z
#    x 1.954150 0.000000 0.000000 
#    y 0.000000 1.856690 0.000000 
#    z 0.000000 0.000000 1.785910 
# 
# From -- ./inp_files/23127.got.cif
#   From: 2010.05.17/outbox.cif.g08.bks.cpg/sg40_12_cif.got.tgz:23127.got - 2010.06.03 18:35:42.
