data_PCOD9364896
_publ_section_title
;
Structure prediction by ZEFSAII (Michael W. Deem and Ramdas Pophale) SiO2 
 PCOD9364896
Probable space group: A M A 2
;
_chemical_formula_sum "Si O2"
_cell_formula_units_Z 60
_cell_length_a 26.873328
_cell_length_b 8.687759
_cell_length_c 11.398873
_cell_angle_alpha 90.000000
_cell_angle_beta 90.000000
_cell_angle_gamma 90.000000
_cell_volume 2661.283448
_symmetry_space_group_name_H-M "A M A 2"
_symmetry_group_IT_number 40
_symmetry_cell_setting 'orthorhombic'
loop_
_space_group_symop_operation_xyz
x,y,z
-x,-y,z
1/2-x,y,z
1/2+x,-y,z
x,1/2+y,1/2+z
-x,1/2-y,1/2+z
1/2-x,1/2+y,1/2+z
1/2+x,1/2-y,1/2+z
loop_
_atom_site_type_symbol
_atom_site_label
_atom_site_fract_x
_atom_site_fract_y
_atom_site_fract_z
Si Si1 0.996176 0.671710 0.434830
Si Si2 0.917405 0.614889 0.246511
Si Si3 0.161976 0.077326 0.876646
Si Si4 0.750000 0.131712 0.775023
Si Si5 0.164337 0.168851 0.144364
Si Si6 0.554814 0.076531 0.334866
Si Si7 0.086779 0.126250 0.536405
Si Si8 0.142740 0.331109 0.685225
O O1 0.968473 0.660770 0.308226
O O2 0.962022 0.771848 0.518931
O O3 0.000000 0.500000 0.480054
O O4 0.045334 0.768164 0.409560
O O5 0.886757 0.525563 0.348279
O O6 0.886832 0.759006 0.195575
O O7 0.921293 0.493126 0.141495
O O8 0.163696 0.213474 0.780435
O O9 0.206939 0.962347 0.849615
O O10 0.162509 0.155243 0.003700
O O11 0.793488 0.221504 0.697080
O O12 0.171659 0.990272 0.179644
O O13 0.586726 0.122010 0.223434
O O14 0.500000 0.000000 0.318165
O O15 0.588918 0.967038 0.415486
O O16 0.134077 0.232488 0.566887
#
# Coordination Sequence:
#
# PCOD9364896 Si02
#       8
#     8   8   8   4   8   8   8   8
#     4  11  22  37  59  88 124 169 220 267 310 365
#     4  10  22  40  61  87 123 164 207 261 314 367
#     4  10  22  43  64  91 130 159 201 259 318 392
#     4  10  24  44  66  98 130 158 198 262 326 386
#     4  11  22  41  70  94 121 164 207 254 319 383
#     4  10  22  38  56  86 125 161 209 261 303 359
#     4  10  22  38  55  82 118 158 202 253 314 357
#     4  11  23  40  65  92 121 168 215 253 309 379
#
# _framework density 22.545511000000001
#
# number of rings (size 3 to 8) (size 9 to 14) (size 15 to 20)
#    0.000    1.600    0.000    5.200    0.000    8.000 
#    0.000    2.667    0.000    0.000    0.000    0.000 
#    0.000    0.000    0.000    0.000    0.000    0.000 
#
# Total GULP energy -167235.038994 kJ/mol
# GULP energy per Si atom -5574.501300 kJ/mol
# Density = 2.249420 g / cm^3
# Si number density = 22.545511 Si / 1000 Ang^3
#
#
#
# Elastic Constant Matrix: (Units=GPa)
#
#
# Indices 1 2 3 4 5 6 
#
# 1 26.3326 14.9405 24.9015 0.0000 0.0000 0.0000
# 2 14.9405 114.2240 33.3104 0.0000 0.0000 0.0000
# 3 24.9015 33.3104 85.4510 0.0000 0.0000 0.0000
# 4 0.0000 0.0000 0.0000 47.2040 0.0000 0.0000
# 5 0.0000 0.0000 0.0000 0.0000 -55.1445 0.0000
# 6 0.0000 0.0000 0.0000 0.0000 0.0000 -15.0642
#
#
#
# Elastic Compliance Matrix: (Units=1/GPa)
#
#
# Indices 1 2 3 4 5 6 
#
# 1 0.053176 -0.002749 -0.014425 0.000000 0.000000 0.000000
# 2 -0.002749 0.010020 -0.003105 0.000000 0.000000 0.000000
# 3 -0.014425 -0.003105 0.017116 0.000000 0.000000 0.000000
# 4 0.000000 0.000000 0.000000 0.021185 0.000000 0.000000
# 5 0.000000 0.000000 0.000000 0.000000 -0.018134 0.000000
# 6 0.000000 0.000000 0.000000 0.000000 0.000000 -0.066382
#
#
# Mechanical properties :
#
#
# Convention : Reuss Voigt Hill
#
# Bulk Modulus (GPa) = 25.15370 41.36803 33.26087
# Shear Modulus (GPa) = 70.63278 5.58939 38.11108
#
# Velocity S-wave (km/s) = 5.60330 1.57624 4.11592
# Velocity P-wave (km/s) = 7.28311 4.65846 6.11330
#
# Compressibility (1/GPa) = 0.03975558
#
# Stress axis : x y z
#
# Youngs Moduli (GPa) = 18.80549 99.80322 58.42336
#
# Poissons Ratio (x) = 0.27434 0.84273
# Poissons Ratio (y) = 0.05169 0.18139
# Poissons Ratio (z) = 0.27126 0.30987
#
# Static dielectric constant tensor:
#      x y z
#    x 1.878370 0.000000 0.000000 
#    y 0.000000 1.888950 0.000000 
#    z 0.000000 0.000000 1.830960 
# 
# From -- ./inp_files/14242.got.cif
#   From: 2010.05.17/outbox.cif.g08.bks.cpg/sg40_8_cif.got.tgz:14242.got - 2010.06.03 18:35:42.
