data_PCOD9364142
_publ_section_title
;
Structure prediction by ZEFSAII (Michael W. Deem and Ramdas Pophale) SiO2 
 PCOD9364142
Probable space group: A M A 2
;
_chemical_formula_sum "Si O2"
_cell_formula_units_Z 48
_cell_length_a 14.350995
_cell_length_b 16.906816
_cell_length_c 9.203658
_cell_angle_alpha 90.000000
_cell_angle_beta 90.000000
_cell_angle_gamma 90.000000
_cell_volume 2233.080153
_symmetry_space_group_name_H-M "A M A 2"
_symmetry_group_IT_number 40
_symmetry_cell_setting 'orthorhombic'
loop_
_space_group_symop_operation_xyz
x,y,z
-x,-y,z
1/2-x,y,z
1/2+x,-y,z
x,1/2+y,1/2+z
-x,1/2-y,1/2+z
1/2-x,1/2+y,1/2+z
1/2+x,1/2-y,1/2+z
loop_
_atom_site_type_symbol
_atom_site_label
_atom_site_fract_x
_atom_site_fract_y
_atom_site_fract_z
Si Si1 0.141860 0.102385 0.030220
Si Si2 0.920238 0.720237 0.397523
Si Si3 0.851433 0.377474 0.987545
Si Si4 0.024112 0.329488 0.707440
Si Si5 0.516404 0.907544 0.745326
Si Si6 0.645059 0.024565 0.267608
O O1 0.250000 0.126260 0.023182
O O2 0.076178 0.155980 0.131843
O O3 0.138039 0.017273 0.110415
O O4 0.090394 0.098351 0.876994
O O5 0.851897 0.795233 0.398996
O O6 0.917635 0.693292 0.564771
O O7 0.012823 0.764049 0.331786
O O8 0.924943 0.641698 0.297548
O O9 0.750000 0.386194 0.059578
O O10 0.863835 0.453418 0.883502
O O11 0.935188 0.373952 0.101465
O O12 0.067790 0.408264 0.775352
O O13 0.500000 0.000000 0.721072
O O14 0.750000 0.057446 0.283830
#
# Coordination Sequence:
#
# PCOD9364142 Si02
#       6
#     8   8   8   8   8   8
#     4  10  20  37  62  91 127 171 217 262 321 383
#     4  11  23  40  63  96 127 170 220 260 331 378
#     4  11  24  42  66  97 131 167 217 273 327 387
#     4  11  22  39  62  94 130 172 216 266 325 390
#     4  11  24  42  66  93 130 173 217 268 329 393
#     4  10  22  39  64  96 128 170 214 264 328 393
#
# _framework density 21.494975
#
# number of rings (size 3 to 8) (size 9 to 14) (size 15 to 20)
#    0.000    1.333    3.333    3.000    2.333    0.667 
#    0.000    2.500    0.000    0.000    0.000    0.000 
#    0.000    0.000    0.000    0.000    0.000    0.000 
#
# Total GULP energy -133762.935239 kJ/mol
# GULP energy per Si atom -5573.455635 kJ/mol
# Density = 2.144605 g / cm^3
# Si number density = 21.494975 Si / 1000 Ang^3
#
#
#
# Elastic Constant Matrix: (Units=GPa)
#
#
# Indices 1 2 3 4 5 6 
#
# 1 56.0945 11.0417 15.5311 0.0000 0.0000 0.0000
# 2 11.0417 101.5372 8.7338 0.0000 0.0000 0.0000
# 3 15.5311 8.7338 61.7451 0.0000 0.0000 0.0000
# 4 0.0000 0.0000 0.0000 28.5182 0.0000 0.0000
# 5 0.0000 0.0000 0.0000 0.0000 17.5593 0.0000
# 6 0.0000 0.0000 0.0000 0.0000 0.0000 6.8770
#
#
#
# Elastic Compliance Matrix: (Units=1/GPa)
#
#
# Indices 1 2 3 4 5 6 
#
# 1 0.019452 -0.001715 -0.004650 0.000000 0.000000 0.000000
# 2 -0.001715 0.010121 -0.001000 0.000000 0.000000 0.000000
# 3 -0.004650 -0.001000 0.017507 0.000000 0.000000 0.000000
# 4 0.000000 0.000000 0.000000 0.035065 0.000000 0.000000
# 5 0.000000 0.000000 0.000000 0.000000 0.056950 0.000000
# 6 0.000000 0.000000 0.000000 0.000000 0.000000 0.145412
#
#
# Mechanical properties :
#
#
# Convention : Reuss Voigt Hill
#
# Bulk Modulus (GPa) = 30.91322 32.22110 31.56716
# Shear Modulus (GPa) = 16.12791 22.86226 19.49509
#
# Velocity S-wave (km/s) = 2.74215 3.26484 3.01485
# Velocity P-wave (km/s) = 4.94355 5.40693 5.18042
#
# Compressibility (1/GPa) = 0.03234862
#
# Stress axis : x y z
#
# Youngs Moduli (GPa) = 51.40798 98.80276 57.12069
#
# Poissons Ratio (x) = 0.16948 0.26563
# Poissons Ratio (y) = 0.08818 0.05713
# Poissons Ratio (z) = 0.23906 0.09882
#
# Static dielectric constant tensor:
#      x y z
#    x 1.806470 0.000000 0.000000 
#    y 0.000000 1.828910 0.000000 
#    z 0.000000 0.000000 1.806040 
# 
# From -- ./inp_files/6421.got.cif
#   From: 2010.05.17/outbox.cif.g08.bks.cpg/sg40_4_cif.got.tgz:6421.got - 2010.06.03 18:35:42.
