data_PCOD9364417
_publ_section_title
;
Structure prediction by ZEFSAII (Michael W. Deem and Ramdas Pophale) SiO2 
 PCOD9364417
Probable space group: A M A 2
;
_chemical_formula_sum "Si O2"
_cell_formula_units_Z 56
_cell_length_a 14.966907
_cell_length_b 14.772883
_cell_length_c 11.658449
_cell_angle_alpha 90.000000
_cell_angle_beta 90.000000
_cell_angle_gamma 90.000000
_cell_volume 2577.733974
_symmetry_space_group_name_H-M "A M A 2"
_symmetry_group_IT_number 40
_symmetry_cell_setting 'orthorhombic'
loop_
_space_group_symop_operation_xyz
x,y,z
-x,-y,z
1/2-x,y,z
1/2+x,-y,z
x,1/2+y,1/2+z
-x,1/2-y,1/2+z
1/2-x,1/2+y,1/2+z
1/2+x,1/2-y,1/2+z
loop_
_atom_site_type_symbol
_atom_site_label
_atom_site_fract_x
_atom_site_fract_y
_atom_site_fract_z
Si Si1 0.854942 0.111296 0.790060
Si Si2 0.596072 0.037329 0.561198
Si Si3 0.857855 0.308509 0.682914
Si Si4 0.354301 0.326423 0.772578
Si Si5 0.351263 0.523345 0.831678
Si Si6 0.646089 0.711085 0.503641
Si Si7 0.049474 0.766279 0.476269
O O1 0.750000 0.098051 0.778261
O O2 0.892007 0.040087 0.698098
O O3 0.876104 0.212761 0.745180
O O4 0.873280 0.121803 0.925291
O O5 0.597535 0.141641 0.520783
O O6 0.500000 0.000000 0.535847
O O7 0.652564 0.979576 0.470227
O O8 0.750000 0.311376 0.662322
O O9 0.886962 0.388575 0.768215
O O10 0.912797 0.308266 0.564489
O O11 0.250000 0.321950 0.812469
O O12 0.392167 0.427632 0.793554
O O13 0.354009 0.307162 0.638378
O O14 0.413721 0.257894 0.847451
O O15 0.250000 0.518005 0.788873
O O16 0.750000 0.740742 0.472779
O O17 0.557701 0.771900 0.483730
#
# Coordination Sequence:
#
# PCOD9364417 Si02
#       7
#     8   8   8   8   8   8   8
#     4   9  19  37  57  78 111 154 196 238 293 357
#     4  10  21  34  54  86 119 151 195 247 306 359
#     4   9  18  33  58  89 118 150 195 245 299 359
#     4   9  19  37  60  86 121 160 200 244 308 372
#     4   9  18  34  58  88 121 154 194 249 303 363
#     4  10  22  38  59  83 113 160 207 249 301 366
#     4  10  21  35  60  85 121 156 201 253 305 360
#
# _framework density 21.724508
#
# number of rings (size 3 to 8) (size 9 to 14) (size 15 to 20)
#    0.000    2.571    0.000    0.857    6.000    4.571 
#    0.000    2.143    0.000    0.000    0.000    0.000 
#    0.000    0.000    0.000    0.000    0.000    0.000 
#
# Total GULP energy -155878.279386 kJ/mol
# GULP energy per Si atom -5567.081407 kJ/mol
# Density = 2.167506 g / cm^3
# Si number density = 21.724508 Si / 1000 Ang^3
#
#
#
# Elastic Constant Matrix: (Units=GPa)
#
#
# Indices 1 2 3 4 5 6 
#
# 1 86.1419 20.2314 49.5531 0.0000 0.0000 0.0000
# 2 20.2314 40.8576 29.5537 0.0000 0.0000 0.0000
# 3 49.5531 29.5537 136.2329 0.0000 0.0000 0.0000
# 4 0.0000 0.0000 0.0000 30.1673 0.0000 0.0000
# 5 0.0000 0.0000 0.0000 0.0000 42.5842 0.0000
# 6 0.0000 0.0000 0.0000 0.0000 0.0000 11.0577
#
#
#
# Elastic Compliance Matrix: (Units=1/GPa)
#
#
# Indices 1 2 3 4 5 6 
#
# 1 0.015265 -0.004202 -0.004641 0.000000 0.000000 0.000000
# 2 -0.004202 0.030187 -0.005020 0.000000 0.000000 0.000000
# 3 -0.004641 -0.005020 0.010118 0.000000 0.000000 0.000000
# 4 0.000000 0.000000 0.000000 0.033148 0.000000 0.000000
# 5 0.000000 0.000000 0.000000 0.000000 0.023483 0.000000
# 6 0.000000 0.000000 0.000000 0.000000 0.000000 0.090434
#
#
# Mechanical properties :
#
#
# Convention : Reuss Voigt Hill
#
# Bulk Modulus (GPa) = 35.91476 51.32320 43.61898
# Shear Modulus (GPa) = 20.86432 27.68813 24.27622
#
# Velocity S-wave (km/s) = 3.10240 3.57390 3.34647
# Velocity P-wave (km/s) = 5.42227 6.38014 5.92061
#
# Compressibility (1/GPa) = 0.02784371
#
# Stress axis : x y z
#
# Youngs Moduli (GPa) = 65.50768 33.12661 98.83784
#
# Poissons Ratio (x) = 0.13919 0.45871
# Poissons Ratio (y) = 0.27526 0.49619
# Poissons Ratio (z) = 0.30403 0.16631
#
# Static dielectric constant tensor:
#      x y z
#    x 1.355330 0.000000 0.000000 
#    y 0.000000 1.854910 0.000000 
#    z 0.000000 0.000000 1.887630 
# 
# From -- ./inp_files/12210.got.cif
#   From: 2010.05.17/outbox.cif.g08.bks.cpg/sg40_7_cif.got.tgz:12210.got - 2010.06.03 18:35:42.
