data_PCOD9364969
_publ_section_title
;
Structure prediction by ZEFSAII (Michael W. Deem and Ramdas Pophale) SiO2 
 PCOD9364969
Probable space group: A M A 2
;
_chemical_formula_sum "Si O2"
_cell_formula_units_Z 64
_cell_length_a 8.716808
_cell_length_b 15.773335
_cell_length_c 24.106206
_cell_angle_alpha 90.000000
_cell_angle_beta 90.000000
_cell_angle_gamma 90.000000
_cell_volume 3314.437781
_symmetry_space_group_name_H-M "A M A 2"
_symmetry_group_IT_number 40
_symmetry_cell_setting 'orthorhombic'
loop_
_space_group_symop_operation_xyz
x,y,z
-x,-y,z
1/2-x,y,z
1/2+x,-y,z
x,1/2+y,1/2+z
-x,1/2-y,1/2+z
1/2-x,1/2+y,1/2+z
1/2+x,1/2-y,1/2+z
loop_
_atom_site_type_symbol
_atom_site_label
_atom_site_fract_x
_atom_site_fract_y
_atom_site_fract_z
Si Si1 0.566415 0.410957 0.607320
Si Si2 0.065746 0.850012 0.718786
Si Si3 0.934969 0.254675 0.525856
Si Si4 0.432556 0.754709 0.903504
Si Si5 0.932779 0.410694 0.333497
Si Si6 0.433549 0.339409 0.720041
Si Si7 0.433390 0.908189 0.342131
Si Si8 0.934519 0.090304 0.596221
O O1 0.500000 0.500000 0.586833
O O2 0.750000 0.415844 0.612992
O O3 0.530217 0.333957 0.565775
O O4 0.493435 0.390241 0.666983
O O5 0.250000 0.855069 0.723848
O O6 0.018986 0.888946 0.659571
O O7 0.988253 0.896348 0.770431
O O8 0.014185 0.752145 0.720128
O O9 0.750000 0.252730 0.517904
O O10 0.981433 0.168273 0.557174
O O11 0.016074 0.262251 0.467069
O O12 0.250000 0.757398 0.898131
O O13 0.504515 0.831995 0.868775
O O14 0.495279 0.666715 0.878627
O O15 0.750000 0.412036 0.335638
O O16 0.000000 0.500000 0.353781
O O17 0.250000 0.328080 0.716665
O O18 0.468429 0.386477 0.777744
O O19 0.250000 0.907915 0.348874
O O20 0.500000 0.000000 0.356301
O O21 0.750000 0.087024 0.595436
O O22 0.000000 0.000000 0.578767
#
# Coordination Sequence:
#
# PCOD9364969 Si02
#       8
#     8   8   8   8   8   8   8   8
#     4  11  23  41  65  93 128 167 208 259 315 375
#     4  11  21  38  64  95 131 169 207 255 314 377
#     4  10  23  45  65  86 124 169 211 264 319 372
#     4  12  26  44  67  94 124 166 214 267 320 376
#     4  12  25  43  66  96 130 169 211 260 316 378
#     4  11  22  37  63  96 130 168 208 255 313 376
#     4  11  24  42  65  95 129 168 211 260 316 376
#     4  10  22  40  63  93 126 166 206 252 311 366
#
# _framework density 19.309457999999999
#
# number of rings (size 3 to 8) (size 9 to 14) (size 15 to 20)
#    0.000    1.000    2.500    4.500    0.000    7.000 
#    0.000    2.500    0.000    0.000    0.000    0.000 
#    0.000    0.000    0.000    0.000    0.000    0.000 
#
# Total GULP energy -179062.060500 kJ/mol
# GULP energy per Si atom -5595.689391 kJ/mol
# Density = 1.926551 g / cm^3
# Si number density = 19.309458 Si / 1000 Ang^3
#
#
#
# Elastic Constant Matrix: (Units=GPa)
#
#
# Indices 1 2 3 4 5 6 
#
# 1 81.6379 40.9502 39.1278 0.0000 0.0000 0.0000
# 2 40.9502 138.9379 21.8881 0.0000 0.0000 0.0000
# 3 39.1278 21.8881 81.5639 0.0000 0.0000 0.0000
# 4 0.0000 0.0000 0.0000 -5.4808 0.0000 0.0000
# 5 0.0000 0.0000 0.0000 0.0000 32.9835 0.0000
# 6 0.0000 0.0000 0.0000 0.0000 0.0000 42.1627
#
#
#
# Elastic Compliance Matrix: (Units=1/GPa)
#
#
# Indices 1 2 3 4 5 6 
#
# 1 0.017889 -0.004094 -0.007483 0.000000 0.000000 0.000000
# 2 -0.004094 0.008452 -0.000304 0.000000 0.000000 0.000000
# 3 -0.007483 -0.000304 0.015932 0.000000 0.000000 0.000000
# 4 0.000000 0.000000 0.000000 -0.182454 0.000000 0.000000
# 5 0.000000 0.000000 0.000000 0.000000 0.030318 0.000000
# 6 0.000000 0.000000 0.000000 0.000000 0.000000 0.023718
#
#
# Mechanical properties :
#
#
# Convention : Reuss Voigt Hill
#
# Bulk Modulus (GPa) = 54.02330 56.23022 55.12676
# Shear Modulus (GPa) = -88.94821 27.27796 -30.83512
#
# Velocity S-wave (km/s) = -6.79445 3.76263 -4.00045
# Velocity P-wave (km/s) = 5.78916 6.93255 2.69684
#
# Compressibility (1/GPa) = 0.01851053
#
# Stress axis : x y z
#
# Youngs Moduli (GPa) = 55.89944 118.31557 62.76734
#
# Poissons Ratio (x) = 0.48435 0.46970
# Poissons Ratio (y) = 0.22884 0.01910
# Poissons Ratio (z) = 0.41831 0.03600
#
# Static dielectric constant tensor:
#      x y z
#    x 1.646520 0.000000 0.000000 
#    y 0.000000 1.660840 0.000000 
#    z 0.000000 0.000000 1.651080 
# 
# From -- ./inp_files/24325.got.cif
#   From: 2010.05.17/outbox.cif.g08.bks.cpg/sg40_13_cif.got.tgz:24325.got - 2010.06.03 18:35:42.
