data_PCOD9364286
_publ_section_title
;
Structure prediction by ZEFSAII (Michael W. Deem and Ramdas Pophale) SiO2 
 PCOD9364286
Probable space group: A M A 2
;
_chemical_formula_sum "Si O2"
_cell_formula_units_Z 64
_cell_length_a 18.556873
_cell_length_b 23.845224
_cell_length_c 7.510375
_cell_angle_alpha 90.000000
_cell_angle_beta 90.000000
_cell_angle_gamma 90.000000
_cell_volume 3323.286813
_symmetry_space_group_name_H-M "A M A 2"
_symmetry_group_IT_number 40
_symmetry_cell_setting 'orthorhombic'
loop_
_space_group_symop_operation_xyz
x,y,z
-x,-y,z
1/2-x,y,z
1/2+x,-y,z
x,1/2+y,1/2+z
-x,1/2-y,1/2+z
1/2-x,1/2+y,1/2+z
1/2+x,1/2-y,1/2+z
loop_
_atom_site_type_symbol
_atom_site_label
_atom_site_fract_x
_atom_site_fract_y
_atom_site_fract_z
Si Si1 0.415180 0.175128 0.115310
Si Si2 0.553134 0.334046 0.195259
Si Si3 0.394625 0.860653 0.801941
Si Si4 0.332631 0.284571 0.022300
Si Si5 0.426238 0.793963 0.163607
Si Si6 0.335356 0.979965 0.900039
Si Si7 0.831770 0.925637 0.601794
Si Si8 0.666353 0.938926 0.202476
O O1 0.368370 0.231677 0.125472
O O2 0.493446 0.182836 0.203450
O O3 0.375614 0.119066 0.176366
O O4 0.427898 0.169313 0.904224
O O5 0.470659 0.353408 0.199185
O O6 0.562554 0.271774 0.118324
O O7 0.609035 0.377308 0.112111
O O8 0.338175 0.835271 0.662171
O O9 0.378041 0.924450 0.850672
O O10 0.397751 0.826112 0.988337
O O11 0.250000 0.271848 0.977622
O O12 0.376268 0.296738 0.839149
O O13 0.250000 0.966131 0.914768
O O14 0.343549 0.027964 0.751510
O O15 0.360416 0.010312 0.080811
O O16 0.750000 0.902657 0.623772
O O17 0.835625 0.953715 0.409036
O O18 0.750000 0.928958 0.149994
#
# Coordination Sequence:
#
# PCOD9364286 Si02
#       8
#     8   8   8   8   8   8   8   8
#     4  10  20  39  64  91 129 168 209 267 326 382
#     4  10  21  39  65  91 128 166 211 265 322 385
#     4  11  24  41  67  92 127 178 215 254 329 393
#     4  11  24  39  63  97 129 168 220 266 321 393
#     4  10  24  42  62  93 133 171 203 269 330 384
#     4  10  22  43  62  88 131 166 210 269 314 375
#     4  10  22  38  62  93 123 165 212 267 326 376
#     4  10  21  37  64  93 122 166 213 264 324 378
#
# _framework density 19.258043000000001
#
# number of rings (size 3 to 8) (size 9 to 14) (size 15 to 20)
#    0.000    1.750    2.500    0.750    3.500    4.500 
#    0.000    1.250    5.500    0.000    0.000    0.000 
#    0.000    0.000    0.000    0.000    0.000    0.000 
#
# Total GULP energy -178688.835350 kJ/mol
# GULP energy per Si atom -5584.026105 kJ/mol
# Density = 1.921421 g / cm^3
# Si number density = 19.258043 Si / 1000 Ang^3
#
#
#
# Elastic Constant Matrix: (Units=GPa)
#
#
# Indices 1 2 3 4 5 6 
#
# 1 84.3041 32.4619 24.1200 0.0000 0.0000 0.0000
# 2 32.4619 82.1808 11.8801 0.0000 0.0000 0.0000
# 3 24.1200 11.8801 36.1559 0.0000 0.0000 0.0000
# 4 0.0000 0.0000 0.0000 18.7713 0.0000 0.0000
# 5 0.0000 0.0000 0.0000 0.0000 25.1479 0.0000
# 6 0.0000 0.0000 0.0000 0.0000 0.0000 23.1643
#
#
#
# Elastic Compliance Matrix: (Units=1/GPa)
#
#
# Indices 1 2 3 4 5 6 
#
# 1 0.016523 -0.005179 -0.009321 0.000000 0.000000 0.000000
# 2 -0.005179 0.014399 -0.001276 0.000000 0.000000 0.000000
# 3 -0.009321 -0.001276 0.034295 0.000000 0.000000 0.000000
# 4 0.000000 0.000000 0.000000 0.053273 0.000000 0.000000
# 5 0.000000 0.000000 0.000000 0.000000 0.039765 0.000000
# 6 0.000000 0.000000 0.000000 0.000000 0.000000 0.043170
#
#
# Mechanical properties :
#
#
# Convention : Reuss Voigt Hill
#
# Bulk Modulus (GPa) = 29.70467 37.72942 33.71705
# Shear Modulus (GPa) = 20.47519 22.36193 21.41856
#
# Velocity S-wave (km/s) = 3.26422 3.41130 3.33857
# Velocity P-wave (km/s) = 5.44654 5.92874 5.69275
#
# Compressibility (1/GPa) = 0.03366474
#
# Stress axis : x y z
#
# Youngs Moduli (GPa) = 60.52219 69.45138 29.15852
#
# Poissons Ratio (x) = 0.35970 0.27178
# Poissons Ratio (y) = 0.31346 0.03721
# Poissons Ratio (z) = 0.56412 0.08862
#
# Static dielectric constant tensor:
#      x y z
#    x 1.691910 0.000000 0.000000 
#    y 0.000000 1.644310 0.000000 
#    z 0.000000 0.000000 1.677800 
# 
# From -- ./inp_files/7828.got.cif
#   From: 2010.05.17/outbox.cif.g08.bks.cpg/sg40_4_cif.got.tgz:7828.got - 2010.06.03 18:35:42.
