data_PCOD9364482
_publ_section_title
;
Structure prediction by ZEFSAII (Michael W. Deem and Ramdas Pophale) SiO2 
 PCOD9364482
Probable space group: A M A 2
;
_chemical_formula_sum "Si O2"
_cell_formula_units_Z 60
_cell_length_a 14.089593
_cell_length_b 8.664627
_cell_length_c 26.369815
_cell_angle_alpha 90.000000
_cell_angle_beta 90.000000
_cell_angle_gamma 90.000000
_cell_volume 3219.255176
_symmetry_space_group_name_H-M "A M A 2"
_symmetry_group_IT_number 40
_symmetry_cell_setting 'orthorhombic'
loop_
_space_group_symop_operation_xyz
x,y,z
-x,-y,z
1/2-x,y,z
1/2+x,-y,z
x,1/2+y,1/2+z
-x,1/2-y,1/2+z
1/2-x,1/2+y,1/2+z
1/2+x,1/2-y,1/2+z
loop_
_atom_site_type_symbol
_atom_site_label
_atom_site_fract_x
_atom_site_fract_y
_atom_site_fract_z
Si Si1 0.530685 0.169433 0.405790
Si Si2 0.636799 0.368605 0.324045
Si Si3 0.360513 0.076539 0.607543
Si Si4 0.860366 0.324286 0.486816
Si Si5 0.500000 0.000000 0.172310
Si Si6 0.359543 0.893823 0.907556
Si Si7 0.542925 0.753594 0.088298
Si Si8 0.638469 0.254329 0.214150
O O1 0.583346 0.245086 0.358347
O O2 0.599546 0.182079 0.454136
O O3 0.436806 0.266497 0.418376
O O4 0.500000 0.000000 0.393551
O O5 0.750000 0.344967 0.329216
O O6 0.618887 0.531136 0.352277
O O7 0.611599 0.343823 0.265616
O O8 0.250000 0.093027 0.592902
O O9 0.435139 0.191720 0.580562
O O10 0.370291 0.130661 0.666185
O O11 0.396239 0.901645 0.599477
O O12 0.750000 0.305151 0.498496
O O13 0.870308 0.469640 0.448890
O O14 0.918404 0.335139 0.538241
O O15 0.547323 0.873307 0.134827
O O16 0.425450 0.897247 0.204210
O O17 0.250000 0.842554 0.908454
O O18 0.750000 0.210902 0.217535
#
# Coordination Sequence:
#
# PCOD9364482 Si02
#       8
#     8   8   8   8   4   8   8   8
#     4  11  23  36  58  90 117 145 183 238 292 347
#     4   9  18  37  61  82 113 154 191 230 281 338
#     4   9  19  38  57  81 117 154 196 238 281 334
#     4  10  21  38  60  82 113 155 196 233 282 340
#     4  10  22  36  56  86 122 148 194 240 284 336
#     4   9  20  40  61  85 112 148 194 234 277 347
#     4  10  21  36  58  85 114 156 190 243 283 340
#     4   9  19  37  60  84 116 155 192 235 285 337
#
# _framework density 18.637851999999999
#
# number of rings (size 3 to 8) (size 9 to 14) (size 15 to 20)
#    0.000    2.400    0.000    3.200    4.667    2.133 
#    9.600    0.667    0.000    0.000    0.000    0.000 
#    0.000    0.000    0.000    0.000    0.000    0.000 
#
# Total GULP energy -167357.382029 kJ/mol
# GULP energy per Si atom -5578.579401 kJ/mol
# Density = 1.859543 g / cm^3
# Si number density = 18.637852 Si / 1000 Ang^3
#
#
#
# Elastic Constant Matrix: (Units=GPa)
#
#
# Indices 1 2 3 4 5 6 
#
# 1 95.8407 27.2484 40.3521 0.0000 0.0000 0.0000
# 2 27.2484 48.0819 3.3042 0.0000 0.0000 0.0000
# 3 40.3521 3.3042 77.2656 0.0000 0.0000 0.0000
# 4 0.0000 0.0000 0.0000 3.7302 0.0000 0.0000
# 5 0.0000 0.0000 0.0000 0.0000 30.8442 0.0000
# 6 0.0000 0.0000 0.0000 0.0000 0.0000 14.4405
#
#
#
# Elastic Compliance Matrix: (Units=1/GPa)
#
#
# Indices 1 2 3 4 5 6 
#
# 1 0.016346 -0.008702 -0.008164 0.000000 0.000000 0.000000
# 2 -0.008702 0.025492 0.003455 0.000000 0.000000 0.000000
# 3 -0.008164 0.003455 0.017058 0.000000 0.000000 0.000000
# 4 0.000000 0.000000 0.000000 0.268080 0.000000 0.000000
# 5 0.000000 0.000000 0.000000 0.000000 0.032421 0.000000
# 6 0.000000 0.000000 0.000000 0.000000 0.000000 0.069250
#
#
# Mechanical properties :
#
#
# Convention : Reuss Voigt Hill
#
# Bulk Modulus (GPa) = 31.17960 40.33305 35.75632
# Shear Modulus (GPa) = 10.72590 19.82188 15.27389
#
# Velocity S-wave (km/s) = 2.40154 3.26472 2.86581
# Velocity P-wave (km/s) = 4.94524 5.99154 5.49335
#
# Compressibility (1/GPa) = 0.03207225
#
# Stress axis : x y z
#
# Youngs Moduli (GPa) = 61.17880 39.22795 58.62188
#
# Poissons Ratio (x) = 0.34137 0.47861
# Poissons Ratio (y) = 0.53238 -0.20251
# Poissons Ratio (z) = 0.49948 -0.13552
#
# Static dielectric constant tensor:
#      x y z
#    x 1.657580 0.000000 0.000000 
#    y 0.000000 1.627170 0.000000 
#    z 0.000000 0.000000 1.649540 
# 
# From -- ./inp_files/25756.got.cif
#   From: 2010.05.17/outbox.cif.g08.bks.cpg/sg40_13_cif.got.tgz:25756.got - 2010.06.03 18:35:42.
