data_PCOD9364191
_publ_section_title
;
Structure prediction by ZEFSAII (Michael W. Deem and Ramdas Pophale) SiO2 
 PCOD9364191
Probable space group: A M A 2
;
_chemical_formula_sum "Si O2"
_cell_formula_units_Z 48
_cell_length_a 14.387920
_cell_length_b 11.967828
_cell_length_c 12.355900
_cell_angle_alpha 90.000000
_cell_angle_beta 90.000000
_cell_angle_gamma 90.000000
_cell_volume 2127.589009
_symmetry_space_group_name_H-M "A M A 2"
_symmetry_group_IT_number 40
_symmetry_cell_setting 'orthorhombic'
loop_
_space_group_symop_operation_xyz
x,y,z
-x,-y,z
1/2-x,y,z
1/2+x,-y,z
x,1/2+y,1/2+z
-x,1/2-y,1/2+z
1/2-x,1/2+y,1/2+z
1/2+x,1/2-y,1/2+z
loop_
_atom_site_type_symbol
_atom_site_label
_atom_site_fract_x
_atom_site_fract_y
_atom_site_fract_z
Si Si1 0.446393 0.699999 0.294790
Si Si2 0.750000 0.716272 0.734575
Si Si3 0.938624 0.168716 0.985286
Si Si4 0.250000 0.533067 0.632588
Si Si5 0.250000 0.534653 0.158667
Si Si6 0.046260 0.104894 0.202820
Si Si7 0.573647 0.917795 0.568227
Si Si8 0.250000 0.950093 0.907422
O O1 0.347573 0.764696 0.296624
O O2 0.474826 0.645102 0.406255
O O3 0.529930 0.785063 0.271389
O O4 0.447147 0.616943 0.193352
O O5 0.750000 0.598870 0.670570
O O6 0.750000 0.828170 0.659765
O O7 0.844729 0.116865 0.935888
O O8 0.920927 0.300185 0.007507
O O9 0.976013 0.121324 0.099789
O O10 0.153621 0.585073 0.675075
O O11 0.250000 0.542764 0.502280
O O12 0.337279 0.505331 0.086877
O O13 0.250000 0.493580 0.283164
O O14 0.000000 0.000000 0.261503
O O15 0.500000 0.000000 0.518592
#
# Coordination Sequence:
#
# PCOD9364191 Si02
#       8
#     8   4   8   4   4   8   8   4
#     4  10  22  39  62  91 129 167 220 263 324 382
#     4  10  20  38  60  89 130 173 203 270 322 387
#     4  11  24  40  64  94 131 165 221 267 325 388
#     4  12  22  39  64  94 134 167 216 265 333 383
#     4  10  22  36  63  93 123 163 216 260 322 376
#     4  11  22  38  63  93 125 170 212 268 319 386
#     4  10  21  41  61  88 126 171 203 264 319 382
#     4  12  22  37  65  98 121 165 213 277 321 384
#
# _framework density 22.560746999999999
#
# number of rings (size 3 to 8) (size 9 to 14) (size 15 to 20)
#    0.000    1.333    3.333    3.500    4.667    2.000 
#    0.000    4.167    0.000    0.000    0.000    0.000 
#    0.000    0.000    0.000    0.000    0.000    0.000 
#
# Total GULP energy -133927.851995 kJ/mol
# GULP energy per Si atom -5580.327166 kJ/mol
# Density = 2.250940 g / cm^3
# Si number density = 22.560747 Si / 1000 Ang^3
#
#
#
# Elastic Constant Matrix: (Units=GPa)
#
#
# Indices 1 2 3 4 5 6 
#
# 1 172.3237 38.0607 34.3403 0.0000 0.0000 0.0000
# 2 38.0607 65.1937 5.5665 0.0000 0.0000 0.0000
# 3 34.3403 5.5665 74.7892 0.0000 0.0000 0.0000
# 4 0.0000 0.0000 0.0000 2.4043 0.0000 0.0000
# 5 0.0000 0.0000 0.0000 0.0000 8.8554 0.0000
# 6 0.0000 0.0000 0.0000 0.0000 0.0000 31.3055
#
#
#
# Elastic Compliance Matrix: (Units=1/GPa)
#
#
# Indices 1 2 3 4 5 6 
#
# 1 0.007294 -0.003998 -0.003052 0.000000 0.000000 0.000000
# 2 -0.003998 0.017628 0.000524 0.000000 0.000000 0.000000
# 3 -0.003052 0.000524 0.014733 0.000000 0.000000 0.000000
# 4 0.000000 0.000000 0.000000 0.415920 0.000000 0.000000
# 5 0.000000 0.000000 0.000000 0.000000 0.112925 0.000000
# 6 0.000000 0.000000 0.000000 0.000000 0.000000 0.031943
#
#
# Mechanical properties :
#
#
# Convention : Reuss Voigt Hill
#
# Bulk Modulus (GPa) = 37.58870 52.02683 44.80777
# Shear Modulus (GPa) = 8.03389 24.13566 16.08478
#
# Velocity S-wave (km/s) = 1.88911 3.27434 2.67302
# Velocity P-wave (km/s) = 4.63202 6.11604 5.42501
#
# Compressibility (1/GPa) = 0.02660374
#
# Stress axis : x y z
#
# Youngs Moduli (GPa) = 137.09616 56.72738 67.87418
#
# Poissons Ratio (x) = 0.22679 0.20713
# Poissons Ratio (y) = 0.54809 -0.03554
# Poissons Ratio (z) = 0.41837 -0.02970
#
# Static dielectric constant tensor:
#      x y z
#    x 2.025640 0.000000 0.000000 
#    y 0.000000 1.873650 0.000000 
#    z 0.000000 0.000000 1.818070 
# 
# From -- ./inp_files/17039.got.cif
#   From: 2010.05.17/outbox.cif.g08.bks.cpg/sg40_9_cif.got.tgz:17039.got - 2010.06.03 18:35:42.
