data_PCOD9364464
_publ_section_title
;
Structure prediction by ZEFSAII (Michael W. Deem and Ramdas Pophale) SiO2 
 PCOD9364464
Probable space group: A M A 2
;
_chemical_formula_sum "Si O2"
_cell_formula_units_Z 64
_cell_length_a 16.281507
_cell_length_b 13.177661
_cell_length_c 15.613768
_cell_angle_alpha 90.000000
_cell_angle_beta 90.000000
_cell_angle_gamma 90.000000
_cell_volume 3349.967960
_symmetry_space_group_name_H-M "A M A 2"
_symmetry_group_IT_number 40
_symmetry_cell_setting 'orthorhombic'
loop_
_space_group_symop_operation_xyz
x,y,z
-x,-y,z
1/2-x,y,z
1/2+x,-y,z
x,1/2+y,1/2+z
-x,1/2-y,1/2+z
1/2-x,1/2+y,1/2+z
1/2+x,1/2-y,1/2+z
loop_
_atom_site_type_symbol
_atom_site_label
_atom_site_fract_x
_atom_site_fract_y
_atom_site_fract_z
Si Si1 0.597570 0.171800 0.838480
Si Si2 0.339684 0.280683 0.514492
Si Si3 0.916769 0.288914 0.395741
Si Si4 0.654623 0.102709 0.493236
Si Si5 0.421633 0.300491 0.147680
Si Si6 0.091335 0.581439 0.099682
Si Si7 0.007418 0.116338 0.063823
Si Si8 0.345287 0.036091 0.789685
O O1 0.651736 0.223789 0.911418
O O2 0.505557 0.212456 0.851238
O O3 0.617346 0.188935 0.740005
O O4 0.603898 0.048921 0.842394
O O5 0.250000 0.319837 0.536928
O O6 0.357029 0.175865 0.563158
O O7 0.415655 0.349845 0.540294
O O8 0.884759 0.176922 0.421275
O O9 0.859170 0.355120 0.334346
O O10 0.936058 0.353360 0.482207
O O11 0.750000 0.078774 0.475644
O O12 0.645862 0.173307 0.577186
O O13 0.604599 0.002512 0.524445
O O14 0.500282 0.374743 0.124256
O O15 0.458318 0.188681 0.137303
O O16 0.126315 0.541939 0.190554
O O17 0.000000 0.000000 0.084375
O O18 0.250000 0.007690 0.793409
#
# Coordination Sequence:
#
# PCOD9364464 Si02
#       8
#     8   8   8   8   8   8   8   8
#     4  11  21  36  55  86 117 154 202 245 300 356
#     4  10  21  37  59  86 119 153 196 250 303 357
#     4  10  21  36  54  82 122 157 190 241 302 363
#     4  11  22  37  58  88 122 154 199 251 305 356
#     4  10  21  36  59  85 114 156 200 251 297 361
#     4  11  22  39  63  89 119 159 202 247 303 369
#     4   9  19  37  57  79 111 153 198 239 299 365
#     4  12  22  34  61  93 119 152 200 256 304 347
#
# _framework density 19.104659000000002
#
# number of rings (size 3 to 8) (size 9 to 14) (size 15 to 20)
#    0.000    1.500    2.500    4.875    0.000    0.500 
#    0.000    3.750    0.000    0.000    0.000    0.000 
#    0.000    0.000    0.000    0.000    0.000    0.000 
#
# Total GULP energy -178322.649378 kJ/mol
# GULP energy per Si atom -5572.582793 kJ/mol
# Density = 1.906118 g / cm^3
# Si number density = 19.104659 Si / 1000 Ang^3
#
#
#
# Elastic Constant Matrix: (Units=GPa)
#
#
# Indices 1 2 3 4 5 6 
#
# 1 64.0562 15.3604 -1.4666 0.0000 0.0000 0.0000
# 2 15.3604 92.9152 15.8474 0.0000 0.0000 0.0000
# 3 -1.4666 15.8474 49.0550 0.0000 0.0000 0.0000
# 4 0.0000 0.0000 0.0000 36.1520 0.0000 0.0000
# 5 0.0000 0.0000 0.0000 0.0000 15.6388 0.0000
# 6 0.0000 0.0000 0.0000 0.0000 0.0000 8.3822
#
#
#
# Elastic Compliance Matrix: (Units=1/GPa)
#
#
# Indices 1 2 3 4 5 6 
#
# 1 0.016351 -0.002949 0.001442 0.000000 0.000000 0.000000
# 2 -0.002949 0.011922 -0.003940 0.000000 0.000000 0.000000
# 3 0.001442 -0.003940 0.021701 0.000000 0.000000 0.000000
# 4 0.000000 0.000000 0.000000 0.027661 0.000000 0.000000
# 5 0.000000 0.000000 0.000000 0.000000 0.063943 0.000000
# 6 0.000000 0.000000 0.000000 0.000000 0.000000 0.119301
#
#
# Mechanical properties :
#
#
# Convention : Reuss Voigt Hill
#
# Bulk Modulus (GPa) = 25.58831 29.50097 27.54464
# Shear Modulus (GPa) = 17.55614 23.78695 20.67154
#
# Velocity S-wave (km/s) = 3.03470 3.53241 3.29297
# Velocity P-wave (km/s) = 5.06972 5.66679 5.37655
#
# Compressibility (1/GPa) = 0.03908034
#
# Stress axis : x y z
#
# Youngs Moduli (GPa) = 61.15663 83.87884 46.08067
#
# Poissons Ratio (x) = 0.24736 -0.06643
# Poissons Ratio (y) = 0.18035 0.18154
# Poissons Ratio (z) = -0.08816 0.33045
#
# Static dielectric constant tensor:
#      x y z
#    x 1.670140 0.000000 0.000000 
#    y 0.000000 1.694940 0.000000 
#    z 0.000000 0.000000 1.680430 
# 
# From -- ./inp_files/21203.got.cif
#   From: 2010.05.17/outbox.cif.g08.bks.cpg/sg40_11_cif.got.tgz:21203.got - 2010.06.03 18:35:42.
