data_PCOD9364798
_publ_section_title
;
Structure prediction by ZEFSAII (Michael W. Deem and Ramdas Pophale) SiO2 
 PCOD9364798
Probable space group: A M A 2
;
_chemical_formula_sum "Si O2"
_cell_formula_units_Z 24
_cell_length_a 5.432285
_cell_length_b 6.914651
_cell_length_c 27.488372
_cell_angle_alpha 90.000000
_cell_angle_beta 90.000000
_cell_angle_gamma 90.000000
_cell_volume 1032.527985
_symmetry_space_group_name_H-M "A M A 2"
_symmetry_group_IT_number 40
_symmetry_cell_setting 'orthorhombic'
loop_
_space_group_symop_operation_xyz
x,y,z
-x,-y,z
1/2-x,y,z
1/2+x,-y,z
x,1/2+y,1/2+z
-x,1/2-y,1/2+z
1/2-x,1/2+y,1/2+z
1/2+x,1/2-y,1/2+z
loop_
_atom_site_type_symbol
_atom_site_label
_atom_site_fract_x
_atom_site_fract_y
_atom_site_fract_z
Si Si1 0.250000 0.875073 0.524161
Si Si2 0.750000 0.010832 0.883127
Si Si3 0.250000 0.628620 0.805270
Si Si4 0.250000 0.120386 0.117479
Si Si5 0.250000 0.876939 0.412005
Si Si6 0.250000 0.379672 0.210546
O O1 0.250000 0.705754 0.563265
O O2 0.250000 0.809219 0.468019
O O3 0.500000 0.000000 0.531275
O O4 0.750000 0.179002 0.842498
O O5 0.500000 0.000000 0.912742
O O6 0.750000 0.784113 0.869423
O O7 0.500000 0.500000 0.809339
O O8 0.250000 0.715482 0.751375
O O9 0.250000 0.292011 0.156676
O O10 0.500000 0.000000 0.125100
O O11 0.500000 0.000000 0.408243
O O12 0.500000 0.500000 0.217696
#
# Coordination Sequence:
#
# PCOD9364798 Si02
#       6
#     4   4   4   4   4   4
#     4  10  21  41  65  95 131 173 217 268 330 394
#     4  12  26  43  66  97 130 173 227 274 337 405
#     4  12  26  46  69  98 136 177 224 283 341 404
#     4  12  24  39  64  99 134 173 217 268 330 401
#     4  10  23  43  69  97 134 176 225 283 340 397
#     4  12  24  44  69  96 131 174 222 278 336 403
#
# _framework density 23.243924
#
# number of rings (size 3 to 8) (size 9 to 14) (size 15 to 20)
#    0.000    0.667    0.000    8.000    0.000    5.333 
#    0.000    0.000    0.000    0.000    0.000    0.000 
#    0.000    0.000    0.000    0.000    0.000    0.000 
#
# Total GULP energy -66914.063101 kJ/mol
# GULP energy per Si atom -5576.171925 kJ/mol
# Density = 2.319102 g / cm^3
# Si number density = 23.243924 Si / 1000 Ang^3
#
#
#
# Elastic Constant Matrix: (Units=GPa)
#
#
# Indices 1 2 3 4 5 6 
#
# 1 266.9441 75.1713 25.4436 0.0000 0.0000 0.0000
# 2 75.1713 125.5290 46.8868 0.0000 0.0000 0.0000
# 3 25.4436 46.8868 108.7471 0.0000 0.0000 0.0000
# 4 0.0000 0.0000 0.0000 67.5596 0.0000 0.0000
# 5 0.0000 0.0000 0.0000 0.0000 22.5524 0.0000
# 6 0.0000 0.0000 0.0000 0.0000 0.0000 54.3017
#
#
#
# Elastic Compliance Matrix: (Units=1/GPa)
#
#
# Indices 1 2 3 4 5 6 
#
# 1 0.004507 -0.002748 0.000130 0.000000 0.000000 0.000000
# 2 -0.002748 0.011171 -0.004173 0.000000 0.000000 0.000000
# 3 0.000130 -0.004173 0.010965 0.000000 0.000000 0.000000
# 4 0.000000 0.000000 0.000000 0.014802 0.000000 0.000000
# 5 0.000000 0.000000 0.000000 0.000000 0.044341 0.000000
# 6 0.000000 0.000000 0.000000 0.000000 0.000000 0.018416
#
#
# Mechanical properties :
#
#
# Convention : Reuss Voigt Hill
#
# Bulk Modulus (GPa) = 76.56661 88.46929 82.51795
# Shear Modulus (GPa) = 40.93769 52.46399 46.70084
#
# Velocity S-wave (km/s) = 4.20124 4.75605 4.48723
# Velocity P-wave (km/s) = 7.51970 8.26462 7.90095
#
# Compressibility (1/GPa) = 0.01306052
#
# Stress axis : x y z
#
# Youngs Moduli (GPa) = 221.85279 89.52071 91.20298
#
# Poissons Ratio (x) = 0.24599 -0.01187
# Poissons Ratio (y) = 0.60962 0.38062
# Poissons Ratio (z) = -0.02887 0.37360
#
# Static dielectric constant tensor:
#      x y z
#    x 2.205070 0.000000 0.000000 
#    y 0.000000 2.118590 0.000000 
#    z 0.000000 0.000000 1.805170 
# 
# From -- ./inp_files/25076.got.cif
#   From: 2010.05.17/outbox.cif.g08.bks.cpg/sg40_13_cif.got.tgz:25076.got - 2010.06.03 18:35:42.
