data_PCOD9364287
_publ_section_title
;
Structure prediction by ZEFSAII (Michael W. Deem and Ramdas Pophale) SiO2 
 PCOD9364287
Probable space group: A M A 2
;
_chemical_formula_sum "Si O2"
_cell_formula_units_Z 48
_cell_length_a 18.027114
_cell_length_b 11.610883
_cell_length_c 10.870358
_cell_angle_alpha 90.000000
_cell_angle_beta 90.000000
_cell_angle_gamma 90.000000
_cell_volume 2275.282367
_symmetry_space_group_name_H-M "A M A 2"
_symmetry_group_IT_number 40
_symmetry_cell_setting 'orthorhombic'
loop_
_space_group_symop_operation_xyz
x,y,z
-x,-y,z
1/2-x,y,z
1/2+x,-y,z
x,1/2+y,1/2+z
-x,1/2-y,1/2+z
1/2-x,1/2+y,1/2+z
1/2+x,1/2-y,1/2+z
loop_
_atom_site_type_symbol
_atom_site_label
_atom_site_fract_x
_atom_site_fract_y
_atom_site_fract_z
Si Si1 0.165513 0.656216 0.269160
Si Si2 0.163870 0.038549 0.519996
Si Si3 0.595103 0.307395 0.827745
Si Si4 0.428400 0.357929 0.883560
Si Si5 0.666706 0.582257 0.414346
Si Si6 0.419080 0.513214 0.638366
O O1 0.250000 0.702552 0.262034
O O2 0.140095 0.621530 0.132186
O O3 0.114689 0.743070 0.344856
O O4 0.167211 0.534723 0.337677
O O5 0.250000 0.004659 0.540827
O O6 0.156106 0.117588 0.399619
O O7 0.111353 0.928468 0.493150
O O8 0.515883 0.333469 0.893135
O O9 0.615254 0.175583 0.848208
O O10 0.592378 0.356878 0.688526
O O11 0.422127 0.439264 0.763254
O O12 0.750000 0.629212 0.421018
O O13 0.639492 0.543539 0.548452
O O14 0.500000 0.500000 0.577832
#
# Coordination Sequence:
#
# PCOD9364287 Si02
#       6
#     8   8   8   8   8   8
#     4  10  23  40  58  89 125 162 204 246 306 369
#     4  10  20  39  65  89 119 159 206 254 303 366
#     4  10  22  40  60  92 122 154 208 255 304 365
#     4  10  21  40  61  90 122 157 205 256 307 360
#     4  11  24  40  60  89 124 164 203 245 307 370
#     4   9  21  40  61  88 121 155 205 255 304 362
#
# _framework density 21.096281999999999
#
# number of rings (size 3 to 8) (size 9 to 14) (size 15 to 20)
#    0.000    2.000    0.000    3.500    2.333    6.667 
#    9.000    3.333    0.000    0.000    0.000    0.000 
#    0.000    0.000    0.000    0.000    0.000    0.000 
#
# Total GULP energy -133967.588883 kJ/mol
# GULP energy per Si atom -5581.982870 kJ/mol
# Density = 2.104827 g / cm^3
# Si number density = 21.096282 Si / 1000 Ang^3
#
#
#
# Elastic Constant Matrix: (Units=GPa)
#
#
# Indices 1 2 3 4 5 6 
#
# 1 69.5383 39.3635 10.2364 0.0000 0.0000 0.0000
# 2 39.3635 100.6002 7.4633 0.0000 0.0000 0.0000
# 3 10.2364 7.4633 34.5153 0.0000 0.0000 0.0000
# 4 0.0000 0.0000 0.0000 14.9345 0.0000 0.0000
# 5 0.0000 0.0000 0.0000 0.0000 -3.7816 0.0000
# 6 0.0000 0.0000 0.0000 0.0000 0.0000 34.9079
#
#
#
# Elastic Compliance Matrix: (Units=1/GPa)
#
#
# Indices 1 2 3 4 5 6 
#
# 1 0.019026 -0.007141 -0.004099 0.000000 0.000000 0.000000
# 2 -0.007141 0.012782 -0.000646 0.000000 0.000000 0.000000
# 3 -0.004099 -0.000646 0.030328 0.000000 0.000000 0.000000
# 4 0.000000 0.000000 0.000000 0.066959 0.000000 0.000000
# 5 0.000000 0.000000 0.000000 0.000000 -0.264440 0.000000
# 6 0.000000 0.000000 0.000000 0.000000 0.000000 0.028647
#
#
# Mechanical properties :
#
#
# Convention : Reuss Voigt Hill
#
# Bulk Modulus (GPa) = 26.06515 35.42002 30.74259
# Shear Modulus (GPa) = -71.28764 19.05154 -26.11805
#
# Velocity S-wave (km/s) = -5.81936 3.00838 -3.52240
# Velocity P-wave (km/s) = 5.72460 5.37525 1.39244
#
# Compressibility (1/GPa) = 0.03836540
#
# Stress axis : x y z
#
# Youngs Moduli (GPa) = 52.55988 78.23346 32.97288
#
# Poissons Ratio (x) = 0.55863 0.13514
# Poissons Ratio (y) = 0.37530 0.02131
# Poissons Ratio (z) = 0.21542 0.05055
#
# Static dielectric constant tensor:
#      x y z
#    x 1.807150 0.000000 0.000000 
#    y 0.000000 1.785750 0.000000 
#    z 0.000000 0.000000 1.790340 
# 
# From -- ./inp_files/12884.got.cif
#   From: 2010.05.17/outbox.cif.g08.bks.cpg/sg40_7_cif.got.tgz:12884.got - 2010.06.03 18:35:42.
