data_PCOD9364237
_publ_section_title
;
Structure prediction by ZEFSAII (Michael W. Deem and Ramdas Pophale) SiO2 
 PCOD9364237
Probable space group: A M A 2
;
_chemical_formula_sum "Si O2"
_cell_formula_units_Z 40
_cell_length_a 22.589836
_cell_length_b 9.187751
_cell_length_c 10.468260
_cell_angle_alpha 90.000000
_cell_angle_beta 90.000000
_cell_angle_gamma 90.000000
_cell_volume 2172.685147
_symmetry_space_group_name_H-M "A M A 2"
_symmetry_group_IT_number 40
_symmetry_cell_setting 'orthorhombic'
loop_
_space_group_symop_operation_xyz
x,y,z
-x,-y,z
1/2-x,y,z
1/2+x,-y,z
x,1/2+y,1/2+z
-x,1/2-y,1/2+z
1/2-x,1/2+y,1/2+z
1/2+x,1/2-y,1/2+z
loop_
_atom_site_type_symbol
_atom_site_label
_atom_site_fract_x
_atom_site_fract_y
_atom_site_fract_z
Si Si1 0.013390 0.334047 0.881950
Si Si2 0.180568 0.644741 0.051848
Si Si3 0.389954 0.322629 0.346872
Si Si4 0.123706 0.666784 0.316452
Si Si5 0.118511 0.832478 0.557553
O O1 0.062343 0.254654 0.793901
O O2 0.000000 0.500000 0.844220
O O3 0.953778 0.242174 0.883157
O O4 0.049007 0.337467 0.016978
O O5 0.250000 0.621836 0.035206
O O6 0.165888 0.691346 0.196802
O O7 0.145119 0.492801 0.039156
O O8 0.155716 0.758248 0.948851
O O9 0.389842 0.497319 0.339025
O O10 0.374652 0.277844 0.201200
O O11 0.147159 0.730710 0.449866
#
# Coordination Sequence:
#
# PCOD9364237 Si02
#       5
#     8   8   8   8   8
#     4  10  20  38  64  92 130 160 200 255 321 382
#     4  11  24  43  64  88 127 172 215 258 311 374
#     4  11  21  38  65  96 125 162 209 257 320 369
#     4   9  23  40  62  92 126 164 204 258 316 372
#     4   9  23  41  61  91 125 166 202 256 314 369
#
# _framework density 18.410398000000001
#
# number of rings (size 3 to 8) (size 9 to 14) (size 15 to 20)
#    1.200    0.800    2.000    0.600    2.800    7.200 
#    0.000    0.000    0.000    0.000    0.000    0.000 
#    0.000    0.000    0.000    0.000    0.000    0.000 
#
# Total GULP energy -111406.386721 kJ/mol
# GULP energy per Si atom -5570.319336 kJ/mol
# Density = 1.836849 g / cm^3
# Si number density = 18.410398 Si / 1000 Ang^3
#
#
#
# Elastic Constant Matrix: (Units=GPa)
#
#
# Indices 1 2 3 4 5 6 
#
# 1 51.5046 21.3926 35.7236 0.0000 0.0000 0.0000
# 2 21.3926 74.3962 61.9779 0.0000 0.0000 0.0000
# 3 35.7236 61.9779 125.7826 0.0000 0.0000 0.0000
# 4 0.0000 0.0000 0.0000 27.4037 0.0000 0.0000
# 5 0.0000 0.0000 0.0000 0.0000 26.5441 0.0000
# 6 0.0000 0.0000 0.0000 0.0000 0.0000 5.5867
#
#
#
# Elastic Compliance Matrix: (Units=1/GPa)
#
#
# Indices 1 2 3 4 5 6 
#
# 1 0.024372 -0.002106 -0.005884 0.000000 0.000000 0.000000
# 2 -0.002106 0.022983 -0.010727 0.000000 0.000000 0.000000
# 3 -0.005884 -0.010727 0.014907 0.000000 0.000000 0.000000
# 4 0.000000 0.000000 0.000000 0.036491 0.000000 0.000000
# 5 0.000000 0.000000 0.000000 0.000000 0.037673 0.000000
# 6 0.000000 0.000000 0.000000 0.000000 0.000000 0.178998
#
#
# Mechanical properties :
#
#
# Convention : Reuss Voigt Hill
#
# Bulk Modulus (GPa) = 40.27689 54.43018 47.35354
# Shear Modulus (GPa) = 13.84529 20.74618 17.29573
#
# Velocity S-wave (km/s) = 2.74530 3.36053 3.06838
# Velocity P-wave (km/s) = 5.65453 6.68481 6.19114
#
# Compressibility (1/GPa) = 0.02482813
#
# Stress axis : x y z
#
# Youngs Moduli (GPa) = 41.03113 43.50999 67.08391
#
# Poissons Ratio (x) = 0.09164 0.39472
# Poissons Ratio (y) = 0.08642 0.71958
# Poissons Ratio (z) = 0.24143 0.46671
#
# Static dielectric constant tensor:
#      x y z
#    x 1.604350 0.000000 0.000000 
#    y 0.000000 1.627290 0.000000 
#    z 0.000000 0.000000 1.656470 
# 
# From -- ./inp_files/8600.got.cif
#   From: 2010.05.17/outbox.cif.g08.bks.cpg/sg40_5_cif.got.tgz:8600.got - 2010.06.03 18:35:42.
