data_PCOD9364490
_publ_section_title
;
Structure prediction by ZEFSAII (Michael W. Deem and Ramdas Pophale) SiO2 
 PCOD9364490
Probable space group: A M A 2
;
_chemical_formula_sum "Si O2"
_cell_formula_units_Z 44
_cell_length_a 14.064576
_cell_length_b 9.003653
_cell_length_c 17.791895
_cell_angle_alpha 90.000000
_cell_angle_beta 90.000000
_cell_angle_gamma 90.000000
_cell_volume 2253.033245
_symmetry_space_group_name_H-M "A M A 2"
_symmetry_group_IT_number 40
_symmetry_cell_setting 'orthorhombic'
loop_
_space_group_symop_operation_xyz
x,y,z
-x,-y,z
1/2-x,y,z
1/2+x,-y,z
x,1/2+y,1/2+z
-x,1/2-y,1/2+z
1/2-x,1/2+y,1/2+z
1/2+x,1/2-y,1/2+z
loop_
_atom_site_type_symbol
_atom_site_label
_atom_site_fract_x
_atom_site_fract_y
_atom_site_fract_z
Si Si1 0.050084 0.239447 0.710100
Si Si2 0.000000 0.000000 0.309305
Si Si3 0.857735 0.842115 0.421567
Si Si4 0.531612 0.169642 0.037468
Si Si5 0.647224 0.624765 0.030482
Si Si6 0.143704 0.432756 0.207345
O O1 0.061560 0.389144 0.757396
O O2 0.060765 0.277497 0.621466
O O3 0.942968 0.177488 0.725882
O O4 0.117179 0.100691 0.730293
O O5 0.932507 0.895097 0.359325
O O6 0.750000 0.821121 0.393787
O O7 0.892146 0.704618 0.472716
O O8 0.857982 0.981069 0.478948
O O9 0.440082 0.268176 0.016068
O O10 0.500000 0.000000 0.041188
O O11 0.750000 0.698863 0.018780
O O12 0.642965 0.571626 0.116527
O O13 0.250000 0.391609 0.232667
#
# Coordination Sequence:
#
# PCOD9364490 Si02
#       6
#     8   4   8   8   8   8
#     4  10  21  36  61  92 125 161 201 252 316 369
#     4  12  24  42  60  92 132 164 194 258 324 378
#     4  11  23  41  64  87 120 168 213 250 305 378
#     4  11  20  37  62  91 124 160 209 264 303 359
#     4   9  17  34  62  90 114 153 205 252 296 354
#     4   9  18  36  62  88 119 157 204 251 297 362
#
# _framework density 19.529228
#
# number of rings (size 3 to 8) (size 9 to 14) (size 15 to 20)
#    0.000    1.818    4.545    0.000    0.000    2.182 
#    3.273    0.000    0.000    0.000    0.000    0.000 
#    0.000    0.000    0.000    0.000    0.000    0.000 
#
# Total GULP energy -122733.043454 kJ/mol
# GULP energy per Si atom -5578.774702 kJ/mol
# Density = 1.948478 g / cm^3
# Si number density = 19.529228 Si / 1000 Ang^3
#
#
#
# Elastic Constant Matrix: (Units=GPa)
#
#
# Indices 1 2 3 4 5 6 
#
# 1 70.3335 -2.1214 18.3821 0.0000 0.0000 0.0000
# 2 -2.1214 68.4169 17.7637 0.0000 0.0000 0.0000
# 3 18.3821 17.7637 53.2230 0.0000 0.0000 0.0000
# 4 0.0000 0.0000 0.0000 -93.6268 0.0000 0.0000
# 5 0.0000 0.0000 0.0000 0.0000 12.2105 0.0000
# 6 0.0000 0.0000 0.0000 0.0000 0.0000 11.2465
#
#
#
# Elastic Compliance Matrix: (Units=1/GPa)
#
#
# Indices 1 2 3 4 5 6 
#
# 1 0.015900 0.002101 -0.006193 0.000000 0.000000 0.000000
# 2 0.002101 0.016281 -0.006159 0.000000 0.000000 0.000000
# 3 -0.006193 -0.006159 0.022983 0.000000 0.000000 0.000000
# 4 0.000000 0.000000 0.000000 -0.010681 0.000000 0.000000
# 5 0.000000 0.000000 0.000000 0.000000 0.081897 0.000000
# 6 0.000000 0.000000 0.000000 0.000000 0.000000 0.088917
#
#
# Mechanical properties :
#
#
# Convention : Reuss Voigt Hill
#
# Bulk Modulus (GPa) = 28.85047 28.89137 28.87092
# Shear Modulus (GPa) = 20.21402 -3.50403 8.35499
#
# Velocity S-wave (km/s) = 3.22073 -1.34095 2.07062
# Velocity P-wave (km/s) = 5.35125 3.52541 4.53125
#
# Compressibility (1/GPa) = 0.03466148
#
# Stress axis : x y z
#
# Youngs Moduli (GPa) = 62.89376 61.42265 43.50959
#
# Poissons Ratio (x) = -0.12904 0.26944
# Poissons Ratio (y) = -0.13213 0.26799
# Poissons Ratio (z) = 0.38948 0.37833
#
# Static dielectric constant tensor:
#      x y z
#    x 1.704300 0.000000 0.000000 
#    y 0.000000 1.675350 0.000000 
#    z 0.000000 0.000000 1.685560 
# 
# From -- ./inp_files/20479.got.cif
#   From: 2010.05.17/outbox.cif.g08.bks.cpg/sg40_11_cif.got.tgz:20479.got - 2010.06.03 18:35:42.
