data_PCOD9364409
_publ_section_title
;
Structure prediction by ZEFSAII (Michael W. Deem and Ramdas Pophale) SiO2 
 PCOD9364409
Probable space group: A M A 2
;
_chemical_formula_sum "Si O2"
_cell_formula_units_Z 48
_cell_length_a 23.172075
_cell_length_b 17.035187
_cell_length_c 6.375110
_cell_angle_alpha 90.000000
_cell_angle_beta 90.000000
_cell_angle_gamma 90.000000
_cell_volume 2516.514943
_symmetry_space_group_name_H-M "A M A 2"
_symmetry_group_IT_number 40
_symmetry_cell_setting 'orthorhombic'
loop_
_space_group_symop_operation_xyz
x,y,z
-x,-y,z
1/2-x,y,z
1/2+x,-y,z
x,1/2+y,1/2+z
-x,1/2-y,1/2+z
1/2-x,1/2+y,1/2+z
1/2+x,1/2-y,1/2+z
loop_
_atom_site_type_symbol
_atom_site_label
_atom_site_fract_x
_atom_site_fract_y
_atom_site_fract_z
Si Si1 0.316591 0.255263 0.536220
Si Si2 0.934248 0.024302 0.484745
Si Si3 0.030928 0.830704 0.198766
Si Si4 0.117042 0.732902 0.429135
Si Si5 0.102193 0.857976 0.805633
Si Si6 0.601595 0.364214 0.785034
O O1 0.250000 0.247164 0.482564
O O2 0.328486 0.249876 0.783754
O O3 0.343643 0.337068 0.452975
O O4 0.355967 0.187370 0.429708
O O5 0.940424 0.095024 0.317498
O O6 0.903784 0.059263 0.690484
O O7 0.903116 0.950995 0.376991
O O8 0.000000 0.000000 0.538600
O O9 0.062511 0.751942 0.279461
O O10 0.964622 0.833112 0.267145
O O11 0.046871 0.842795 0.955205
O O12 0.108858 0.794953 0.617751
O O13 0.120981 0.649504 0.544031
#
# Coordination Sequence:
#
# PCOD9364409 Si02
#       6
#     8   8   8   8   8   8
#     4  10  22  40  58  82 114 159 208 249 290 342
#     4   9  19  35  54  88 124 154 184 233 304 371
#     4   9  19  33  55  85 120 152 188 234 295 367
#     4   9  20  32  54  84 114 152 191 242 289 349
#     4   9  19  37  58  82 113 154 196 237 291 355
#     4  10  21  33  58  87 118 153 190 244 301 351
#
# _framework density 19.073998
#
# number of rings (size 3 to 8) (size 9 to 14) (size 15 to 20)
#    0.000    2.667    0.000    0.000    7.000    8.667 
#    0.000    0.833    0.000    4.000    0.000    0.000 
#    0.000    0.000    0.000    0.000    0.000    0.000 
#
# Total GULP energy -133651.816442 kJ/mol
# GULP energy per Si atom -5568.825685 kJ/mol
# Density = 1.903058 g / cm^3
# Si number density = 19.073998 Si / 1000 Ang^3
#
#
#
# Elastic Constant Matrix: (Units=GPa)
#
#
# Indices 1 2 3 4 5 6 
#
# 1 103.1056 44.9864 38.5005 0.0000 0.0000 0.0000
# 2 44.9864 98.0974 51.9186 0.0000 0.0000 0.0000
# 3 38.5005 51.9186 106.9624 0.0000 0.0000 0.0000
# 4 0.0000 0.0000 0.0000 37.4546 0.0000 0.0000
# 5 0.0000 0.0000 0.0000 0.0000 19.7714 0.0000
# 6 0.0000 0.0000 0.0000 0.0000 0.0000 12.8873
#
#
#
# Elastic Compliance Matrix: (Units=1/GPa)
#
#
# Indices 1 2 3 4 5 6 
#
# 1 0.012538 -0.004523 -0.002317 0.000000 0.000000 0.000000
# 2 -0.004523 0.015350 -0.005823 0.000000 0.000000 0.000000
# 3 -0.002317 -0.005823 0.013009 0.000000 0.000000 0.000000
# 4 0.000000 0.000000 0.000000 0.026699 0.000000 0.000000
# 5 0.000000 0.000000 0.000000 0.000000 0.050578 0.000000
# 6 0.000000 0.000000 0.000000 0.000000 0.000000 0.077596
#
#
# Mechanical properties :
#
#
# Convention : Reuss Voigt Hill
#
# Bulk Modulus (GPa) = 64.22311 64.33070 64.27691
# Shear Modulus (GPa) = 22.09592 25.53999 23.81796
#
# Velocity S-wave (km/s) = 3.40727 3.66320 3.53755
# Velocity P-wave (km/s) = 7.01590 7.18973 7.10335
#
# Compressibility (1/GPa) = 0.01557072
#
# Stress axis : x y z
#
# Youngs Moduli (GPa) = 79.75999 65.14721 76.86730
#
# Poissons Ratio (x) = 0.29467 0.17813
# Poissons Ratio (y) = 0.36077 0.44757
# Poissons Ratio (z) = 0.18483 0.37933
#
# Static dielectric constant tensor:
#      x y z
#    x 1.662430 0.000000 0.000000 
#    y 0.000000 1.706210 0.000000 
#    z 0.000000 0.000000 1.738990 
# 
# From -- ./inp_files/2720.got.cif
#   From: 2010.05.17/outbox.cif.g08.bks.cpg/sg40_2_cif.got.tgz:2720.got - 2010.06.03 18:35:42.
