data_PCOD9364943
_publ_section_title
;
Structure prediction by ZEFSAII (Michael W. Deem and Ramdas Pophale) SiO2 
 PCOD9364943
Probable space group: A M A 2
;
_chemical_formula_sum "Si O2"
_cell_formula_units_Z 64
_cell_length_a 20.987460
_cell_length_b 18.086506
_cell_length_c 8.406549
_cell_angle_alpha 90.000000
_cell_angle_beta 90.000000
_cell_angle_gamma 90.000000
_cell_volume 3191.040432
_symmetry_space_group_name_H-M "A M A 2"
_symmetry_group_IT_number 40
_symmetry_cell_setting 'orthorhombic'
loop_
_space_group_symop_operation_xyz
x,y,z
-x,-y,z
1/2-x,y,z
1/2+x,-y,z
x,1/2+y,1/2+z
-x,1/2-y,1/2+z
1/2-x,1/2+y,1/2+z
1/2+x,1/2-y,1/2+z
loop_
_atom_site_type_symbol
_atom_site_label
_atom_site_fract_x
_atom_site_fract_y
_atom_site_fract_z
Si Si1 0.320664 0.483415 0.200020
Si Si2 0.822923 0.675027 0.365235
Si Si3 0.939410 0.705001 0.605309
Si Si4 0.056156 0.541927 0.343093
Si Si5 0.822923 0.824973 0.159538
Si Si6 0.560590 0.794998 0.919463
Si Si7 0.679336 0.483415 0.824753
Si Si8 0.056156 0.458074 0.681680
O O1 0.250000 0.501103 0.262121
O O2 0.334092 0.398550 0.256479
O O3 0.375196 0.534865 0.268189
O O4 0.320108 0.500000 0.012387
O O5 0.750000 0.667898 0.429526
O O6 0.878770 0.686288 0.494129
O O7 0.824187 0.750000 0.262386
O O8 0.921312 0.749999 0.762387
O O9 0.964125 0.625569 0.663081
O O10 1.000000 0.740183 0.512387
O O11 0.035875 0.625569 0.361690
O O12 0.062192 0.500001 0.512387
O O13 0.000000 0.500000 0.251137
O O14 0.750000 0.832102 0.095247
O O15 0.834092 0.898549 0.268294
O O16 0.878770 0.813712 0.030643
O O17 0.750000 0.501103 0.762653
O O18 0.624804 0.534865 0.756585
O O19 0.000000 0.500000 0.773638
#
# Coordination Sequence:
#
# PCOD9364943 Si02
#       8
#     8   8   8   8   8   8   8   8
#     4  10  22  39  63  93 124 164 212 260 317 385
#     4  10  22  41  62  89 129 167 204 260 322 385
#     4  12  25  42  64  92 124 167 215 268 329 394
#     4  11  21  42  64  87 123 161 208 267 326 377
#     4  10  22  41  62  89 129 167 204 260 322 385
#     4  12  25  42  64  92 124 167 215 268 329 394
#     4  10  22  39  63  93 124 164 212 260 317 385
#     4  11  21  42  64  87 123 161 208 267 326 377
#
# _framework density 20.056152999999998
#
# number of rings (size 3 to 8) (size 9 to 14) (size 15 to 20)
#    0.000    1.250    5.000    0.750    3.500    2.500 
#    0.000    0.000    0.000    0.000    0.000    0.000 
#    0.000    0.000    0.000    0.000    0.000    0.000 
#
# Total GULP energy -178440.617493 kJ/mol
# GULP energy per Si atom -5576.269297 kJ/mol
# Density = 2.001050 g / cm^3
# Si number density = 20.056153 Si / 1000 Ang^3
#
#
#
# Elastic Constant Matrix: (Units=GPa)
#
#
# Indices 1 2 3 4 5 6 
#
# 1 126.7191 6.4693 56.4931 0.0000 0.0000 0.0000
# 2 6.4693 66.0308 24.4469 0.0000 0.0000 0.0000
# 3 56.4931 24.4469 74.7247 0.0000 0.0000 0.0000
# 4 0.0000 0.0000 0.0000 30.4198 0.0000 0.0000
# 5 0.0000 0.0000 0.0000 0.0000 45.0729 0.0000
# 6 0.0000 0.0000 0.0000 0.0000 0.0000 27.2697
#
#
#
# Elastic Compliance Matrix: (Units=1/GPa)
#
#
# Indices 1 2 3 4 5 6 
#
# 1 0.012267 0.002539 -0.010104 0.000000 0.000000 0.000000
# 2 0.002539 0.017757 -0.007729 0.000000 0.000000 0.000000
# 3 -0.010104 -0.007729 0.023550 0.000000 0.000000 0.000000
# 4 0.000000 0.000000 0.000000 0.032873 0.000000 0.000000
# 5 0.000000 0.000000 0.000000 0.000000 0.022186 0.000000
# 6 0.000000 0.000000 0.000000 0.000000 0.000000 0.036671
#
#
# Mechanical properties :
#
#
# Convention : Reuss Voigt Hill
#
# Bulk Modulus (GPa) = 43.50602 49.14367 46.32485
# Shear Modulus (GPa) = 27.23983 32.55684 29.89834
#
# Velocity S-wave (km/s) = 3.68935 4.03337 3.86519
# Velocity P-wave (km/s) = 6.31566 6.80052 6.56257
#
# Compressibility (1/GPa) = 0.02298532
#
# Stress axis : x y z
#
# Youngs Moduli (GPa) = 81.52280 56.31494 42.46252
#
# Poissons Ratio (x) = -0.14300 0.42906
# Poissons Ratio (y) = -0.20700 0.32820
# Poissons Ratio (z) = 0.82374 0.43527
#
# Static dielectric constant tensor:
#      x y z
#    x 1.774390 0.000000 0.000000 
#    y 0.000000 1.709580 0.000000 
#    z 0.000000 0.000000 1.745060 
# 
# From -- ./inp_files/8448.got.cif
#   From: 2010.05.17/outbox.cif.g08.bks.cpg/sg40_5_cif.got.tgz:8448.got - 2010.06.03 18:35:42.
