data_PCOD9364030
_publ_section_title
;
Structure prediction by ZEFSAII (Michael W. Deem and Ramdas Pophale) SiO2 
 PCOD9364030
Probable space group: A M A 2
;
_chemical_formula_sum "Si O2"
_cell_formula_units_Z 60
_cell_length_a 12.889483
_cell_length_b 11.768270
_cell_length_c 18.512217
_cell_angle_alpha 90.000000
_cell_angle_beta 90.000000
_cell_angle_gamma 90.000000
_cell_volume 2808.061107
_symmetry_space_group_name_H-M "A M A 2"
_symmetry_group_IT_number 40
_symmetry_cell_setting 'orthorhombic'
loop_
_space_group_symop_operation_xyz
x,y,z
-x,-y,z
1/2-x,y,z
1/2+x,-y,z
x,1/2+y,1/2+z
-x,1/2-y,1/2+z
1/2-x,1/2+y,1/2+z
1/2+x,1/2-y,1/2+z
loop_
_atom_site_type_symbol
_atom_site_label
_atom_site_fract_x
_atom_site_fract_y
_atom_site_fract_z
Si Si1 0.373961 0.634122 0.462880
Si Si2 0.124987 0.083626 0.603715
Si Si3 0.376028 0.287863 0.305424
Si Si4 0.127257 0.328890 0.059891
Si Si5 0.502817 0.218031 0.174983
Si Si6 0.000000 0.500000 0.342631
Si Si7 0.629499 0.060753 0.075734
Si Si8 0.371252 0.225769 0.469166
O O1 0.250000 0.629086 0.451292
O O2 0.405495 0.762163 0.486036
O O3 0.431281 0.580690 0.394624
O O4 0.397116 0.552664 0.531620
O O5 0.250000 0.093891 0.610755
O O6 0.076354 0.170008 0.662677
O O7 0.087604 0.134706 0.526472
O O8 0.099938 0.951169 0.594543
O O9 0.250000 0.285270 0.293101
O O10 0.448096 0.214869 0.251979
O O11 0.421175 0.417010 0.300200
O O12 0.399083 0.244987 0.386555
O O13 0.250000 0.335267 0.051381
O O14 0.092794 0.243285 0.121996
O O15 0.565539 0.110666 0.143319
O O16 0.750000 0.052562 0.097569
O O17 0.621538 0.156620 0.013181
O O18 0.250000 0.195155 0.464553
#
# Coordination Sequence:
#
# PCOD9364030 Si02
#       8
#     8   8   8   8   8   4   8   8
#     4  10  20  36  60  91 120 151 196 258 309 353
#     4   9  19  36  59  87 118 156 203 252 300 358
#     4  11  24  39  57  87 125 163 202 247 305 373
#     4  10  21  34  53  84 122 154 192 244 297 354
#     4  11  21  35  55  87 116 157 201 247 304 359
#     4  12  22  36  60  88 118 162 196 246 304 380
#     4   9  17  35  62  89 114 146 200 255 300 352
#     4   8  15  33  58  82 110 147 192 243 293 348
#
# _framework density 21.367056000000002
#
# number of rings (size 3 to 8) (size 9 to 14) (size 15 to 20)
#    0.000    2.133    1.333    3.200    3.733    0.000 
#    0.000    2.000    0.000    3.200    0.000    5.600 
#    0.000    0.000    0.000    0.000    0.000    0.000 
#
# Total GULP energy -167214.049858 kJ/mol
# GULP energy per Si atom -5573.801662 kJ/mol
# Density = 2.131842 g / cm^3
# Si number density = 21.367056 Si / 1000 Ang^3
#
#
#
# Elastic Constant Matrix: (Units=GPa)
#
#
# Indices 1 2 3 4 5 6 
#
# 1 98.1641 21.5395 28.5252 0.0000 0.0000 0.0000
# 2 21.5395 41.7103 -13.6633 0.0000 0.0000 0.0000
# 3 28.5252 -13.6633 63.9846 0.0000 0.0000 0.0000
# 4 0.0000 0.0000 0.0000 13.2017 0.0000 0.0000
# 5 0.0000 0.0000 0.0000 0.0000 35.5407 0.0000
# 6 0.0000 0.0000 0.0000 0.0000 0.0000 34.6609
#
#
#
# Elastic Compliance Matrix: (Units=1/GPa)
#
#
# Indices 1 2 3 4 5 6 
#
# 1 0.015205 -0.010830 -0.009091 0.000000 0.000000 0.000000
# 2 -0.010830 0.033492 0.011980 0.000000 0.000000 0.000000
# 3 -0.009091 0.011980 0.022240 0.000000 0.000000 0.000000
# 4 0.000000 0.000000 0.000000 0.075748 0.000000 0.000000
# 5 0.000000 0.000000 0.000000 0.000000 0.028137 0.000000
# 6 0.000000 0.000000 0.000000 0.000000 0.000000 0.028851
#
#
# Mechanical properties :
#
#
# Convention : Reuss Voigt Hill
#
# Bulk Modulus (GPa) = 18.16377 30.74020 24.45199
# Shear Modulus (GPa) = 21.01657 27.84450 24.43053
#
# Velocity S-wave (km/s) = 3.13964 3.61383 3.38505
# Velocity P-wave (km/s) = 4.65429 5.64190 5.17172
#
# Compressibility (1/GPa) = 0.05505466
#
# Stress axis : x y z
#
# Youngs Moduli (GPa) = 65.76659 29.85770 44.96377
#
# Poissons Ratio (x) = 0.32337 0.40879
# Poissons Ratio (y) = 0.71227 -0.53868
# Poissons Ratio (z) = 0.59791 -0.35770
#
# Static dielectric constant tensor:
#      x y z
#    x 1.904390 0.000000 0.000000 
#    y 0.000000 1.831560 0.000000 
#    z 0.000000 0.000000 1.760410 
# 
# From -- ./inp_files/20720.got.cif
#   From: 2010.05.17/outbox.cif.g08.bks.cpg/sg40_11_cif.got.tgz:20720.got - 2010.06.03 18:35:42.
