data_PCOD9364069
_publ_section_title
;
Structure prediction by ZEFSAII (Michael W. Deem and Ramdas Pophale) SiO2 
 PCOD9364069
Probable space group: A M A 2
;
_chemical_formula_sum "Si O2"
_cell_formula_units_Z 48
_cell_length_a 14.125756
_cell_length_b 7.358677
_cell_length_c 23.247099
_cell_angle_alpha 90.000000
_cell_angle_beta 90.000000
_cell_angle_gamma 90.000000
_cell_volume 2416.463312
_symmetry_space_group_name_H-M "A M A 2"
_symmetry_group_IT_number 40
_symmetry_cell_setting 'orthorhombic'
loop_
_space_group_symop_operation_xyz
x,y,z
-x,-y,z
1/2-x,y,z
1/2+x,-y,z
x,1/2+y,1/2+z
-x,1/2-y,1/2+z
1/2-x,1/2+y,1/2+z
1/2+x,1/2-y,1/2+z
loop_
_atom_site_type_symbol
_atom_site_label
_atom_site_fract_x
_atom_site_fract_y
_atom_site_fract_z
Si Si1 0.362874 0.633866 0.185430
Si Si2 0.135568 0.932762 0.102324
Si Si3 0.487330 0.793989 0.421063
Si Si4 0.987576 0.781875 0.790392
Si Si5 0.863190 0.786465 0.201429
Si Si6 0.363288 0.983920 0.969790
O O1 0.250000 0.648126 0.189730
O O2 0.407383 0.727721 0.241491
O O3 0.386104 0.421625 0.184372
O O4 0.394275 0.740252 0.128734
O O5 0.250000 0.937911 0.101908
O O6 0.107025 0.082873 0.149430
O O7 0.108635 0.962602 0.036764
O O8 0.468903 0.797005 0.352738
O O9 0.402288 0.678607 0.449100
O O10 0.580491 0.671830 0.434658
O O11 0.500000 0.000000 0.442116
O O12 0.079019 0.691017 0.760349
O O13 0.000000 0.000000 0.799146
O O14 0.750000 0.804276 0.209866
O O15 0.250000 0.969306 0.963518
#
# Coordination Sequence:
#
# PCOD9364069 Si02
#       6
#     8   8   8   8   8   8
#     4   9  19  34  55  86 117 146 187 245 307 364
#     4   9  19  37  61  88 115 151 202 247 302 373
#     4  11  25  42  60  92 126 161 222 263 296 371
#     4  10  20  37  56  81 119 159 195 246 302 362
#     4   9  19  34  55  86 117 146 187 245 307 364
#     4  10  23  45  66  87 127 172 207 259 313 362
#
# _framework density 19.863738999999999
#
# number of rings (size 3 to 8) (size 9 to 14) (size 15 to 20)
#    0.000    2.333    1.667    0.000    2.333    6.000 
#    0.000    5.000    0.000    0.000    0.000    0.000 
#    0.000    0.000    0.000    0.000    0.000    0.000 
#
# Total GULP energy -133966.571202 kJ/mol
# GULP energy per Si atom -5581.940467 kJ/mol
# Density = 1.981853 g / cm^3
# Si number density = 19.863739 Si / 1000 Ang^3
#
#
#
# Elastic Constant Matrix: (Units=GPa)
#
#
# Indices 1 2 3 4 5 6 
#
# 1 69.3289 9.3960 2.5189 0.0000 0.0000 0.0000
# 2 9.3960 86.5088 26.4565 0.0000 0.0000 0.0000
# 3 2.5189 26.4565 117.0623 0.0000 0.0000 0.0000
# 4 0.0000 0.0000 0.0000 25.9846 0.0000 0.0000
# 5 0.0000 0.0000 0.0000 0.0000 28.8246 0.0000
# 6 0.0000 0.0000 0.0000 0.0000 0.0000 16.9730
#
#
#
# Elastic Compliance Matrix: (Units=1/GPa)
#
#
# Indices 1 2 3 4 5 6 
#
# 1 0.014640 -0.001605 0.000048 0.000000 0.000000 0.000000
# 2 -0.001605 0.012594 -0.002812 0.000000 0.000000 0.000000
# 3 0.000048 -0.002812 0.009177 0.000000 0.000000 0.000000
# 4 0.000000 0.000000 0.000000 0.038484 0.000000 0.000000
# 5 0.000000 0.000000 0.000000 0.000000 0.034693 0.000000
# 6 0.000000 0.000000 0.000000 0.000000 0.000000 0.058917
#
#
# Mechanical properties :
#
#
# Convention : Reuss Voigt Hill
#
# Bulk Modulus (GPa) = 36.13639 38.84921 37.49280
# Shear Modulus (GPa) = 26.81452 29.99167 28.40310
#
# Velocity S-wave (km/s) = 3.67812 3.88992 3.78550
# Velocity P-wave (km/s) = 6.02243 6.30679 6.16625
#
# Compressibility (1/GPa) = 0.02767293
#
# Stress axis : x y z
#
# Youngs Moduli (GPa) = 68.30721 79.40490 108.96946
#
# Poissons Ratio (x) = 0.12742 -0.00519
# Poissons Ratio (y) = 0.10961 0.30639
# Poissons Ratio (z) = -0.00325 0.22326
#
# Static dielectric constant tensor:
#      x y z
#    x 1.720580 0.000000 0.000000 
#    y 0.000000 1.736340 0.000000 
#    z 0.000000 0.000000 1.674300 
# 
# From -- ./inp_files/22991.got.cif
#   From: 2010.05.17/outbox.cif.g08.bks.cpg/sg40_12_cif.got.tgz:22991.got - 2010.06.03 18:35:42.
