data_PCOD9364602
_publ_section_title
;
Structure prediction by ZEFSAII (Michael W. Deem and Ramdas Pophale) SiO2 
 PCOD9364602
Probable space group: A M A 2
;
_chemical_formula_sum "Si O2"
_cell_formula_units_Z 36
_cell_length_a 9.250755
_cell_length_b 11.294553
_cell_length_c 16.988231
_cell_angle_alpha 90.000000
_cell_angle_beta 90.000000
_cell_angle_gamma 90.000000
_cell_volume 1774.983763
_symmetry_space_group_name_H-M "A M A 2"
_symmetry_group_IT_number 40
_symmetry_cell_setting 'orthorhombic'
loop_
_space_group_symop_operation_xyz
x,y,z
-x,-y,z
1/2-x,y,z
1/2+x,-y,z
x,1/2+y,1/2+z
-x,1/2-y,1/2+z
1/2-x,1/2+y,1/2+z
1/2+x,1/2-y,1/2+z
loop_
_atom_site_type_symbol
_atom_site_label
_atom_site_fract_x
_atom_site_fract_y
_atom_site_fract_z
Si Si1 0.094529 0.849024 0.352570
Si Si2 0.500000 0.000000 0.208383
Si Si3 0.417110 0.618915 0.256231
Si Si4 0.082140 0.734732 0.621724
Si Si5 0.079247 0.618738 0.002405
O O1 0.250000 0.871943 0.392649
O O2 0.085429 0.712946 0.326949
O O3 0.963174 0.876756 0.410299
O O4 0.091559 0.923249 0.271419
O O5 0.429415 0.100025 0.153299
O O6 0.500000 0.500000 0.277216
O O7 0.250000 0.597200 0.232689
O O8 0.505756 0.682937 0.187014
O O9 0.250000 0.764906 0.612114
O O10 0.993495 0.767650 0.543577
O O11 0.250000 0.615228 0.014883
O O12 0.000000 0.500000 0.033985
#
# Coordination Sequence:
#
# PCOD9364602 Si02
#       5
#     8   4   8   8   8
#     4  10  21  39  64  93 124 162 210 263 316 379
#     4  10  22  40  70  98 126 164 212 262 314 384
#     4  10  21  38  61  90 124 161 207 258 311 374
#     4  11  23  40  64  93 127 166 208 258 316 375
#     4  12  25  41  63  91 126 167 212 265 319 377
#
# _framework density 20.281876
#
# number of rings (size 3 to 8) (size 9 to 14) (size 15 to 20)
#    0.000    1.333    1.111    4.667    0.000    7.111 
#    2.000    0.000    0.000    0.000    0.000    0.000 
#    0.000    0.000    0.000    0.000    0.000    0.000 
#
# Total GULP energy -100474.152920 kJ/mol
# GULP energy per Si atom -5581.897384 kJ/mol
# Density = 2.023571 g / cm^3
# Si number density = 20.281876 Si / 1000 Ang^3
#
#
#
# Elastic Constant Matrix: (Units=GPa)
#
#
# Indices 1 2 3 4 5 6 
#
# 1 197.3838 58.5007 36.1172 0.0000 0.0000 0.0000
# 2 58.5007 132.4048 26.8473 0.0000 0.0000 0.0000
# 3 36.1172 26.8473 64.3452 0.0000 0.0000 0.0000
# 4 0.0000 0.0000 0.0000 29.8841 0.0000 0.0000
# 5 0.0000 0.0000 0.0000 0.0000 20.6407 0.0000
# 6 0.0000 0.0000 0.0000 0.0000 0.0000 11.8066
#
#
#
# Elastic Compliance Matrix: (Units=1/GPa)
#
#
# Indices 1 2 3 4 5 6 
#
# 1 0.006190 -0.002218 -0.002549 0.000000 0.000000 0.000000
# 2 -0.002218 0.009045 -0.002529 0.000000 0.000000 0.000000
# 3 -0.002549 -0.002529 0.018027 0.000000 0.000000 0.000000
# 4 0.000000 0.000000 0.000000 0.033463 0.000000 0.000000
# 5 0.000000 0.000000 0.000000 0.000000 0.048448 0.000000
# 6 0.000000 0.000000 0.000000 0.000000 0.000000 0.084699
#
#
# Mechanical properties :
#
#
# Convention : Reuss Voigt Hill
#
# Bulk Modulus (GPa) = 53.56110 70.78490 62.17300
# Shear Modulus (GPa) = 22.65643 30.64417 26.65030
#
# Velocity S-wave (km/s) = 3.34590 3.89126 3.62884
# Velocity P-wave (km/s) = 6.43369 7.42735 6.94831
#
# Compressibility (1/GPa) = 0.01867027
#
# Stress axis : x y z
#
# Youngs Moduli (GPa) = 161.54815 110.55286 55.47179
#
# Poissons Ratio (x) = 0.24522 0.14140
# Poissons Ratio (y) = 0.35833 0.14029
# Poissons Ratio (z) = 0.41179 0.27960
#
# Static dielectric constant tensor:
#      x y z
#    x 1.710800 0.000000 0.000000 
#    y 0.000000 1.740030 0.000000 
#    z 0.000000 0.000000 1.739300 
# 
# From -- ./inp_files/18988.got.cif
#   From: 2010.05.17/outbox.cif.g08.bks.cpg/sg40_10_cif.got.tgz:18988.got - 2010.06.03 18:35:42.
