data_PCOD9364967
_publ_section_title
;
Structure prediction by ZEFSAII (Michael W. Deem and Ramdas Pophale) SiO2 
 PCOD9364967
Probable space group: A M A 2
;
_chemical_formula_sum "Si O2"
_cell_formula_units_Z 64
_cell_length_a 20.234597
_cell_length_b 18.132376
_cell_length_c 8.698380
_cell_angle_alpha 90.000000
_cell_angle_beta 90.000000
_cell_angle_gamma 90.000000
_cell_volume 3191.447113
_symmetry_space_group_name_H-M "A M A 2"
_symmetry_group_IT_number 40
_symmetry_cell_setting 'orthorhombic'
loop_
_space_group_symop_operation_xyz
x,y,z
-x,-y,z
1/2-x,y,z
1/2+x,-y,z
x,1/2+y,1/2+z
-x,1/2-y,1/2+z
1/2-x,1/2+y,1/2+z
1/2+x,1/2-y,1/2+z
loop_
_atom_site_type_symbol
_atom_site_label
_atom_site_fract_x
_atom_site_fract_y
_atom_site_fract_z
Si Si1 0.591804 0.086225 0.321530
Si Si2 0.513448 0.310546 0.923651
Si Si3 0.175116 0.557120 0.876578
Si Si4 0.109977 0.168119 0.164953
Si Si5 0.324390 0.135445 0.706756
Si Si6 0.017683 0.915086 0.020070
Si Si7 0.962901 0.832561 0.777774
Si Si8 0.825711 0.727250 0.909546
O O1 0.520781 0.110571 0.390624
O O2 0.640356 0.149587 0.379471
O O3 0.621148 0.007903 0.370353
O O4 0.577928 0.092166 0.138613
O O5 0.577662 0.298239 0.819268
O O6 0.464927 0.245385 0.868018
O O7 0.527448 0.308951 0.102509
O O8 0.250000 0.527552 0.871514
O O9 0.160976 0.607975 0.728860
O O10 0.170274 0.606512 0.032203
O O11 0.144081 0.224837 0.049967
O O12 0.046237 0.128428 0.088267
O O13 0.250000 0.110891 0.760432
O O14 0.395826 0.117538 0.783380
O O15 0.326133 0.222105 0.753792
O O16 0.022404 0.879244 0.852034
O O17 0.000000 0.000000 0.011205
O O18 0.750000 0.714249 0.949299
#
# Coordination Sequence:
#
# PCOD9364967 Si02
#       8
#     8   8   8   8   8   8   8   8
#     4  11  22  41  62  96 134 168 215 268 334 390
#     4  11  23  37  65  94 126 170 215 278 330 387
#     4  11  23  40  64  93 130 172 220 269 322 394
#     4  11  21  40  63  91 126 166 219 263 327 393
#     4  10  22  40  63  91 126 171 219 264 317 388
#     4  11  23  38  61  90 131 174 214 262 330 400
#     4  12  22  41  62  94 130 168 224 273 329 386
#     4  11  22  41  68  95 128 174 223 271 325 392
#
# _framework density 20.053598999999998
#
# number of rings (size 3 to 8) (size 9 to 14) (size 15 to 20)
#    0.000    1.000    5.000    3.000    0.000    1.000 
#    0.000    0.000    0.000    0.000    0.000    9.625 
#    0.000    0.000    0.000    0.000    0.000    0.000 
#
# Total GULP energy -178251.341006 kJ/mol
# GULP energy per Si atom -5570.354406 kJ/mol
# Density = 2.000796 g / cm^3
# Si number density = 20.053599 Si / 1000 Ang^3
#
#
#
# Elastic Constant Matrix: (Units=GPa)
#
#
# Indices 1 2 3 4 5 6 
#
# 1 91.6211 35.6267 43.3415 0.0000 0.0000 0.0000
# 2 35.6267 92.1664 54.5288 0.0000 0.0000 0.0000
# 3 43.3415 54.5288 119.6405 0.0000 0.0000 0.0000
# 4 0.0000 0.0000 0.0000 19.6641 0.0000 0.0000
# 5 0.0000 0.0000 0.0000 0.0000 30.7868 0.0000
# 6 0.0000 0.0000 0.0000 0.0000 0.0000 31.3792
#
#
#
# Elastic Compliance Matrix: (Units=1/GPa)
#
#
# Indices 1 2 3 4 5 6 
#
# 1 0.013855 -0.003267 -0.003530 0.000000 0.000000 0.000000
# 2 -0.003267 0.015626 -0.005938 0.000000 0.000000 0.000000
# 3 -0.003530 -0.005938 0.012344 0.000000 0.000000 0.000000
# 4 0.000000 0.000000 0.000000 0.050854 0.000000 0.000000
# 5 0.000000 0.000000 0.000000 0.000000 0.032481 0.000000
# 6 0.000000 0.000000 0.000000 0.000000 0.000000 0.031868
#
#
# Mechanical properties :
#
#
# Convention : Reuss Voigt Hill
#
# Bulk Modulus (GPa) = 61.14842 63.38022 62.26432
# Shear Modulus (GPa) = 26.60269 27.69476 27.14872
#
# Velocity S-wave (km/s) = 3.64618 3.72026 3.68340
# Velocity P-wave (km/s) = 6.94873 7.08010 7.01472
#
# Compressibility (1/GPa) = 0.01635365
#
# Stress axis : x y z
#
# Youngs Moduli (GPa) = 72.17707 63.99506 81.01243
#
# Poissons Ratio (x) = 0.20907 0.28598
# Poissons Ratio (y) = 0.23580 0.48109
# Poissons Ratio (z) = 0.25479 0.38003
#
# Static dielectric constant tensor:
#      x y z
#    x 1.803100 0.000000 0.000000 
#    y 0.000000 1.703100 0.000000 
#    z 0.000000 0.000000 1.765180 
# 
# From -- ./inp_files/8471.got.cif
#   From: 2010.05.17/outbox.cif.g08.bks.cpg/sg40_5_cif.got.tgz:8471.got - 2010.06.03 18:35:42.
