data_PCOD9364519
_publ_section_title
;
Structure prediction by ZEFSAII (Michael W. Deem and Ramdas Pophale) SiO2 
 PCOD9364519
Probable space group: A M A 2
;
_chemical_formula_sum "Si O2"
_cell_formula_units_Z 52
_cell_length_a 24.729616
_cell_length_b 8.723360
_cell_length_c 11.856066
_cell_angle_alpha 90.000000
_cell_angle_beta 90.000000
_cell_angle_gamma 90.000000
_cell_volume 2557.653905
_symmetry_space_group_name_H-M "A M A 2"
_symmetry_group_IT_number 40
_symmetry_cell_setting 'orthorhombic'
loop_
_space_group_symop_operation_xyz
x,y,z
-x,-y,z
1/2-x,y,z
1/2+x,-y,z
x,1/2+y,1/2+z
-x,1/2-y,1/2+z
1/2-x,1/2+y,1/2+z
1/2+x,1/2-y,1/2+z
loop_
_atom_site_type_symbol
_atom_site_label
_atom_site_fract_x
_atom_site_fract_y
_atom_site_fract_z
Si Si1 0.250000 0.739938 0.366071
Si Si2 0.663893 0.685248 0.440836
Si Si3 0.750000 0.007025 0.073622
Si Si4 0.250000 0.585134 0.836530
Si Si5 0.142241 0.113835 0.794449
Si Si6 0.436893 0.185902 0.348635
Si Si7 0.560986 0.061975 0.658799
Si Si8 0.061695 0.849027 0.400546
O O1 0.250000 0.631326 0.478646
O O2 0.197742 0.705457 0.289738
O O3 0.250000 0.918831 0.394711
O O4 0.697648 0.613765 0.544685
O O5 0.699039 0.816556 0.379855
O O6 0.658976 0.541911 0.356579
O O7 0.603019 0.749998 0.445740
O O8 0.750000 0.942721 0.200933
O O9 0.101754 0.214371 0.869223
O O10 0.106560 0.063237 0.688664
O O11 0.429466 0.291335 0.239092
O O12 0.499642 0.197036 0.381055
O O13 0.426038 0.005246 0.331649
O O14 0.566498 0.107627 0.530294
O O15 0.500000 0.000000 0.679194
#
# Coordination Sequence:
#
# PCOD9364519 Si02
#       8
#     4   8   4   4   8   8   8   8
#     4  10  22  40  62  96 118 160 206 250 302 364
#     4   9  21  39  59  89 120 158 202 256 302 368
#     4   9  21  41  62  84 122 157 203 251 308 364
#     4  11  21  41  64  86 124 163 207 251 310 360
#     4  10  22  41  65  88 129 160 203 255 301 364
#     4  10  21  37  59  87 121 153 202 253 302 357
#     4  11  21  40  62  87 121 166 201 250 312 361
#     4  11  22  39  60  89 120 161 202 251 304 366
#
# _framework density 20.331133000000001
#
# number of rings (size 3 to 8) (size 9 to 14) (size 15 to 20)
#    0.000    1.846    3.077    1.385    0.000    6.154 
#    0.000   16.154    0.000    0.000    0.000    0.000 
#    0.000    0.000    0.000    0.000    0.000    0.000 
#
# Total GULP energy -145072.791712 kJ/mol
# GULP energy per Si atom -5579.722758 kJ/mol
# Density = 2.028486 g / cm^3
# Si number density = 20.331133 Si / 1000 Ang^3
#
#
#
# Elastic Constant Matrix: (Units=GPa)
#
#
# Indices 1 2 3 4 5 6 
#
# 1 90.8007 50.6546 -2.5530 0.0000 0.0000 0.0000
# 2 50.6546 132.9365 33.3900 0.0000 0.0000 0.0000
# 3 -2.5530 33.3900 67.4647 0.0000 0.0000 0.0000
# 4 0.0000 0.0000 0.0000 21.1421 0.0000 0.0000
# 5 0.0000 0.0000 0.0000 0.0000 -62.8917 0.0000
# 6 0.0000 0.0000 0.0000 0.0000 0.0000 46.1934
#
#
#
# Elastic Compliance Matrix: (Units=1/GPa)
#
#
# Indices 1 2 3 4 5 6 
#
# 1 0.014804 -0.006602 0.003828 0.000000 0.000000 0.000000
# 2 -0.006602 0.011535 -0.005959 0.000000 0.000000 0.000000
# 3 0.003828 -0.005959 0.017917 0.000000 0.000000 0.000000
# 4 0.000000 0.000000 0.000000 0.047299 0.000000 0.000000
# 5 0.000000 0.000000 0.000000 0.000000 -0.015900 0.000000
# 6 0.000000 0.000000 0.000000 0.000000 0.000000 0.021648
#
#
# Mechanical properties :
#
#
# Convention : Reuss Voigt Hill
#
# Bulk Modulus (GPa) = 37.32884 50.46502 43.89693
# Shear Modulus (GPa) = 40.42089 14.86946 27.64517
#
# Velocity S-wave (km/s) = 4.46368 2.70731 3.69147
# Velocity P-wave (km/s) = 6.70568 5.88627 6.30929
#
# Compressibility (1/GPa) = 0.02678894
#
# Stress axis : x y z
#
# Youngs Moduli (GPa) = 67.54910 86.69346 55.81425
#
# Poissons Ratio (x) = 0.57239 -0.21365
# Poissons Ratio (y) = 0.44599 0.33258
# Poissons Ratio (z) = -0.25857 0.51659
#
# Static dielectric constant tensor:
#      x y z
#    x 1.744210 0.000000 0.000000 
#    y 0.000000 1.735580 0.000000 
#    z 0.000000 0.000000 1.698040 
# 
# From -- ./inp_files/14210.got.cif
#   From: 2010.05.17/outbox.cif.g08.bks.cpg/sg40_8_cif.got.tgz:14210.got - 2010.06.03 18:35:42.
