data_PCOD9364748
_publ_section_title
;
Structure prediction by ZEFSAII (Michael W. Deem and Ramdas Pophale) SiO2 
 PCOD9364748
Probable space group: A M A 2
;
_chemical_formula_sum "Si O2"
_cell_formula_units_Z 64
_cell_length_a 8.907163
_cell_length_b 31.472826
_cell_length_c 12.131307
_cell_angle_alpha 90.000000
_cell_angle_beta 90.000000
_cell_angle_gamma 90.000000
_cell_volume 3400.812858
_symmetry_space_group_name_H-M "A M A 2"
_symmetry_group_IT_number 40
_symmetry_cell_setting 'orthorhombic'
loop_
_space_group_symop_operation_xyz
x,y,z
-x,-y,z
1/2-x,y,z
1/2+x,-y,z
x,1/2+y,1/2+z
-x,1/2-y,1/2+z
1/2-x,1/2+y,1/2+z
1/2+x,1/2-y,1/2+z
loop_
_atom_site_type_symbol
_atom_site_label
_atom_site_fract_x
_atom_site_fract_y
_atom_site_fract_z
Si Si1 0.070540 0.207100 0.669280
Si Si2 0.569300 0.044048 0.138449
Si Si3 0.928546 0.569592 0.392084
Si Si4 0.569829 0.126937 0.278901
Si Si5 0.573046 0.798550 0.136466
Si Si6 0.573300 0.339160 0.397283
Si Si7 0.929424 0.956610 0.663668
Si Si8 0.931180 0.373687 0.020920
O O1 0.250000 0.213379 0.658470
O O2 0.041067 0.190326 0.792619
O O3 0.026110 0.169226 0.586169
O O4 0.988593 0.251131 0.647804
O O5 0.750000 0.041553 0.142002
O O6 0.523117 0.085122 0.209310
O O7 0.500000 0.000000 0.179150
O O8 0.524535 0.051113 0.010756
O O9 0.750000 0.564004 0.379821
O O10 0.972075 0.619137 0.393882
O O11 0.011761 0.549552 0.287972
O O12 0.750000 0.128050 0.281715
O O13 0.509825 0.168654 0.217046
O O14 0.504983 0.124787 0.401538
O O15 0.750000 0.799526 0.160799
O O16 0.551151 0.814863 0.011658
O O17 0.750000 0.351989 0.389206
O O18 0.750000 0.959687 0.664333
O O19 0.972585 0.914983 0.593408
O O20 0.000000 0.000000 0.618270
O O21 0.750000 0.373700 0.010469
#
# Coordination Sequence:
#
# PCOD9364748 Si02
#       8
#     8   8   8   8   8   8   8   8
#     4  10  22  42  64  89 124 162 200 250 308 358
#     4  10  23  40  60  89 121 157 199 247 301 357
#     4  11  21  37  62  93 126 159 202 249 304 363
#     4  11  24  43  63  87 123 162 205 253 304 361
#     4  11  24  40  63  95 124 159 206 249 304 365
#     4  10  21  40  64  90 123 162 200 248 308 361
#     4  11  23  41  63  91 126 161 204 252 306 364
#     4  10  23  43  64  88 121 161 205 253 305 362
#
# _framework density 18.819030000000001
#
# number of rings (size 3 to 8) (size 9 to 14) (size 15 to 20)
#    0.000    1.500    2.500    1.875    1.750    6.000 
#    0.000    2.500    0.000    0.000    0.000    0.000 
#    0.000    0.000    0.000    0.000    0.000    0.000 
#
# Total GULP energy -178880.012711 kJ/mol
# GULP energy per Si atom -5590.000397 kJ/mol
# Density = 1.877620 g / cm^3
# Si number density = 18.819030 Si / 1000 Ang^3
#
#
#
# Elastic Constant Matrix: (Units=GPa)
#
#
# Indices 1 2 3 4 5 6 
#
# 1 37.1335 52.4547 46.5801 0.0000 0.0000 0.0000
# 2 52.4547 169.7588 69.4493 0.0000 0.0000 0.0000
# 3 46.5801 69.4493 134.4333 0.0000 0.0000 0.0000
# 4 0.0000 0.0000 0.0000 -45.9170 0.0000 0.0000
# 5 0.0000 0.0000 0.0000 0.0000 10.0746 0.0000
# 6 0.0000 0.0000 0.0000 0.0000 0.0000 38.7713
#
#
#
# Elastic Compliance Matrix: (Units=1/GPa)
#
#
# Indices 1 2 3 4 5 6 
#
# 1 0.066786 -0.014163 -0.015824 0.000000 0.000000 0.000000
# 2 -0.014163 0.010473 -0.000503 0.000000 0.000000 0.000000
# 3 -0.015824 -0.000503 0.013181 0.000000 0.000000 0.000000
# 4 0.000000 0.000000 0.000000 -0.021778 0.000000 0.000000
# 5 0.000000 0.000000 0.000000 0.000000 0.099259 0.000000
# 6 0.000000 0.000000 0.000000 0.000000 0.000000 0.025792
#
#
# Mechanical properties :
#
#
# Convention : Reuss Voigt Hill
#
# Bulk Modulus (GPa) = 33.94413 75.36594 54.65503
# Shear Modulus (GPa) = 18.90264 12.10856 15.50560
#
# Velocity S-wave (km/s) = 3.17273 2.53933 2.87354
# Velocity P-wave (km/s) = 5.61230 6.98085 6.33365
#
# Compressibility (1/GPa) = 0.02946018
#
# Stress axis : x y z
#
# Youngs Moduli (GPa) = 14.97320 95.48615 75.86416
#
# Poissons Ratio (x) = 1.35235 1.20049
# Poissons Ratio (y) = 0.21206 0.03816
# Poissons Ratio (z) = 0.23694 0.04803
#
# Static dielectric constant tensor:
#      x y z
#    x 1.636020 0.000000 0.000000 
#    y 0.000000 1.632580 0.000000 
#    z 0.000000 0.000000 1.629040 
# 
# From -- ./inp_files/10615.got.cif
#   From: 2010.05.17/outbox.cif.g08.bks.cpg/sg40_6_cif.got.tgz:10615.got - 2010.06.03 18:35:42.
