data_PCOD9364635
_publ_section_title
;
Structure prediction by ZEFSAII (Michael W. Deem and Ramdas Pophale) SiO2 
 PCOD9364635
Probable space group: A M A 2
;
_chemical_formula_sum "Si O2"
_cell_formula_units_Z 28
_cell_length_a 9.665466
_cell_length_b 9.161502
_cell_length_c 15.162344
_cell_angle_alpha 90.000000
_cell_angle_beta 90.000000
_cell_angle_gamma 90.000000
_cell_volume 1342.628383
_symmetry_space_group_name_H-M "A M A 2"
_symmetry_group_IT_number 40
_symmetry_cell_setting 'orthorhombic'
loop_
_space_group_symop_operation_xyz
x,y,z
-x,-y,z
1/2-x,y,z
1/2+x,-y,z
x,1/2+y,1/2+z
-x,1/2-y,1/2+z
1/2-x,1/2+y,1/2+z
1/2+x,1/2-y,1/2+z
loop_
_atom_site_type_symbol
_atom_site_label
_atom_site_fract_x
_atom_site_fract_y
_atom_site_fract_z
Si Si1 0.250000 0.668746 0.599951
Si Si2 0.750000 0.277876 0.906717
Si Si3 0.445599 0.803402 0.347155
Si Si4 0.500000 0.000000 0.194388
Si Si5 0.750000 0.064313 0.494090
Si Si6 0.250000 0.065969 0.899191
O O1 0.388554 0.598091 0.641461
O O2 0.250000 0.846270 0.586111
O O3 0.250000 0.623469 0.498383
O O4 0.609706 0.308142 0.854886
O O5 0.750000 0.387821 0.990716
O O6 0.750000 0.104697 0.914365
O O7 0.378430 0.883572 0.432190
O O8 0.380965 0.641805 0.351382
O O9 0.415143 0.890704 0.258327
#
# Coordination Sequence:
#
# PCOD9364635 Si02
#       6
#     4   4   8   4   4   4
#     4  10  25  36  65  95 139 166 224 263 349 383
#     4  12  19  37  72  90 123 170 227 276 310 370
#     4  10  21  38  67  96 121 171 231 256 322 401
#     4  12  20  42  70  96 136 180 202 290 340 380
#     4  10  21  41  60  98 122 170 229 263 307 418
#     4  10  25  40  63  99 130 172 232 270 310 413
#
# _framework density 20.854617000000001
#
# number of rings (size 3 to 8) (size 9 to 14) (size 15 to 20)
#    0.000    1.714    2.857    3.429    8.000    0.000 
#    0.000    0.000   18.857    0.000    0.000    0.000 
#    0.000    0.000    0.000    0.000    0.000    0.000 
#
# Total GULP energy -77963.973732 kJ/mol
# GULP energy per Si atom -5568.855267 kJ/mol
# Density = 2.080715 g / cm^3
# Si number density = 20.854617 Si / 1000 Ang^3
#
#
#
# Elastic Constant Matrix: (Units=GPa)
#
#
# Indices 1 2 3 4 5 6 
#
# 1 152.1006 36.9380 32.1565 0.0000 0.0000 0.0000
# 2 36.9380 194.0334 44.8801 0.0000 0.0000 0.0000
# 3 32.1565 44.8801 79.9970 0.0000 0.0000 0.0000
# 4 0.0000 0.0000 0.0000 42.4668 0.0000 0.0000
# 5 0.0000 0.0000 0.0000 0.0000 14.9739 0.0000
# 6 0.0000 0.0000 0.0000 0.0000 0.0000 24.6328
#
#
#
# Elastic Compliance Matrix: (Units=1/GPa)
#
#
# Indices 1 2 3 4 5 6 
#
# 1 0.007296 -0.000817 -0.002475 0.000000 0.000000 0.000000
# 2 -0.000817 0.006014 -0.003046 0.000000 0.000000 0.000000
# 3 -0.002475 -0.003046 0.015204 0.000000 0.000000 0.000000
# 4 0.000000 0.000000 0.000000 0.023548 0.000000 0.000000
# 5 0.000000 0.000000 0.000000 0.000000 0.066783 0.000000
# 6 0.000000 0.000000 0.000000 0.000000 0.000000 0.040596
#
#
# Mechanical properties :
#
#
# Convention : Reuss Voigt Hill
#
# Bulk Modulus (GPa) = 63.13153 72.67558 67.90356
# Shear Modulus (GPa) = 28.18582 37.22511 32.70546
#
# Velocity S-wave (km/s) = 3.68032 4.22949 3.96442
# Velocity P-wave (km/s) = 6.95684 7.66653 7.32029
#
# Compressibility (1/GPa) = 0.01583995
#
# Stress axis : x y z
#
# Youngs Moduli (GPa) = 137.05968 166.28868 65.77276
#
# Poissons Ratio (x) = 0.13578 0.16277
# Poissons Ratio (y) = 0.11192 0.20031
# Poissons Ratio (z) = 0.33918 0.50644
#
# Static dielectric constant tensor:
#      x y z
#    x 1.775980 0.000000 0.000000 
#    y 0.000000 1.935890 0.000000 
#    z 0.000000 0.000000 1.719290 
# 
# From -- ./inp_files/16016.got.cif
#   From: 2010.05.17/outbox.cif.g08.bks.cpg/sg40_9_cif.got.tgz:16016.got - 2010.06.03 18:35:42.
