data_PCOD9364146
_publ_section_title
;
Structure prediction by ZEFSAII (Michael W. Deem and Ramdas Pophale) SiO2 
 PCOD9364146
Probable space group: A M A 2
;
_chemical_formula_sum "Si O2"
_cell_formula_units_Z 60
_cell_length_a 9.638083
_cell_length_b 16.975870
_cell_length_c 18.681092
_cell_angle_alpha 90.000000
_cell_angle_beta 90.000000
_cell_angle_gamma 90.000000
_cell_volume 3056.503954
_symmetry_space_group_name_H-M "A M A 2"
_symmetry_group_IT_number 40
_symmetry_cell_setting 'orthorhombic'
loop_
_space_group_symop_operation_xyz
x,y,z
-x,-y,z
1/2-x,y,z
1/2+x,-y,z
x,1/2+y,1/2+z
-x,1/2-y,1/2+z
1/2-x,1/2+y,1/2+z
1/2+x,1/2-y,1/2+z
loop_
_atom_site_type_symbol
_atom_site_label
_atom_site_fract_x
_atom_site_fract_y
_atom_site_fract_z
Si Si1 0.907794 0.565437 0.418650
Si Si2 0.087697 0.806681 0.296369
Si Si3 0.000000 0.000000 0.526252
Si Si4 0.593736 0.207250 0.026826
Si Si5 0.596963 0.606210 0.155312
Si Si6 0.590480 0.357563 0.932486
Si Si7 0.909883 0.383876 0.286157
Si Si8 0.090988 0.702684 0.657255
O O1 0.750000 0.539308 0.408248
O O2 0.904511 0.645469 0.462821
O O3 0.000000 0.500000 0.457800
O O4 0.988132 0.582313 0.345562
O O5 0.250000 0.830029 0.292031
O O6 0.084816 0.710918 0.297470
O O7 0.012898 0.843593 0.365999
O O8 0.997844 0.824483 0.225569
O O9 0.079284 0.941360 0.581407
O O10 0.919889 0.940959 0.472959
O O11 0.750000 0.213708 0.057904
O O12 0.557979 0.291129 0.992081
O O13 0.487083 0.177923 0.085640
O O14 0.750000 0.586824 0.185420
O O15 0.471263 0.590634 0.209664
O O16 0.592310 0.701489 0.150040
O O17 0.750000 0.344099 0.908777
O O18 0.750000 0.407376 0.293039
O O19 0.250000 0.676828 0.662623
#
# Coordination Sequence:
#
# PCOD9364146 Si02
#       8
#     8   8   4   8   8   8   8   8
#     4  11  23  39  60  87 120 156 198 250 311 376
#     4  10  21  38  63  91 120 157 207 259 307 367
#     4  12  24  40  60  92 130 172 214 260 312 374
#     4  10  21  39  62  89 120 159 201 252 314 377
#     4  10  22  37  54  83 122 163 203 246 298 359
#     4  11  23  40  63  90 126 169 214 261 310 372
#     4  10  21  37  59  87 121 162 204 249 302 363
#     4  10  20  37  63  90 118 155 203 256 309 372
#
# _framework density 19.630271
#
# number of rings (size 3 to 8) (size 9 to 14) (size 15 to 20)
#    0.000    1.600    2.667    2.000    0.933    5.333 
#    0.000    0.000    1.467    0.000    0.000    0.000 
#    0.000    0.000    0.000    0.000    0.000    0.000 
#
# Total GULP energy -167389.681748 kJ/mol
# GULP energy per Si atom -5579.656058 kJ/mol
# Density = 1.958559 g / cm^3
# Si number density = 19.630271 Si / 1000 Ang^3
#
#
#
# Elastic Constant Matrix: (Units=GPa)
#
#
# Indices 1 2 3 4 5 6 
#
# 1 170.5139 16.2861 83.7987 0.0000 0.0000 0.0000
# 2 16.2861 47.3981 19.9526 0.0000 0.0000 0.0000
# 3 83.7987 19.9526 107.8230 0.0000 0.0000 0.0000
# 4 0.0000 0.0000 0.0000 31.0059 0.0000 0.0000
# 5 0.0000 0.0000 0.0000 0.0000 27.2820 0.0000
# 6 0.0000 0.0000 0.0000 0.0000 0.0000 21.8433
#
#
#
# Elastic Compliance Matrix: (Units=1/GPa)
#
#
# Indices 1 2 3 4 5 6 
#
# 1 0.009490 -0.000169 -0.007344 0.000000 0.000000 0.000000
# 2 -0.000169 0.022883 -0.004103 0.000000 0.000000 0.000000
# 3 -0.007344 -0.004103 0.015742 0.000000 0.000000 0.000000
# 4 0.000000 0.000000 0.000000 0.032252 0.000000 0.000000
# 5 0.000000 0.000000 0.000000 0.000000 0.036654 0.000000
# 6 0.000000 0.000000 0.000000 0.000000 0.000000 0.045781
#
#
# Mechanical properties :
#
#
# Convention : Reuss Voigt Hill
#
# Bulk Modulus (GPa) = 40.18982 62.86774 51.52878
# Shear Modulus (GPa) = 25.72959 29.73941 27.73450
#
# Velocity S-wave (km/s) = 3.62430 3.89649 3.76286
# Velocity P-wave (km/s) = 6.16700 7.23457 6.72201
#
# Compressibility (1/GPa) = 0.02488193
#
# Stress axis : x y z
#
# Youngs Moduli (GPa) = 105.37273 43.70013 63.52586
#
# Poissons Ratio (x) = 0.00739 0.46655
# Poissons Ratio (y) = 0.01783 0.26065
# Poissons Ratio (z) = 0.77389 0.17930
#
# Static dielectric constant tensor:
#      x y z
#    x 1.691260 0.000000 0.000000 
#    y 0.000000 1.723480 0.000000 
#    z 0.000000 0.000000 1.668680 
# 
# From -- ./inp_files/19407.got.cif
#   From: 2010.05.17/outbox.cif.g08.bks.cpg/sg40_10_cif.got.tgz:19407.got - 2010.06.03 18:35:42.
