data_PCOD9364184
_publ_section_title
;
Structure prediction by ZEFSAII (Michael W. Deem and Ramdas Pophale) SiO2 
 PCOD9364184
Probable space group: A M A 2
;
_chemical_formula_sum "Si O2"
_cell_formula_units_Z 64
_cell_length_a 15.574179
_cell_length_b 9.274744
_cell_length_c 23.160619
_cell_angle_alpha 90.000000
_cell_angle_beta 90.000000
_cell_angle_gamma 90.000000
_cell_volume 3345.470891
_symmetry_space_group_name_H-M "A M A 2"
_symmetry_group_IT_number 40
_symmetry_cell_setting 'orthorhombic'
loop_
_space_group_symop_operation_xyz
x,y,z
-x,-y,z
1/2-x,y,z
1/2+x,-y,z
x,1/2+y,1/2+z
-x,1/2-y,1/2+z
1/2-x,1/2+y,1/2+z
1/2+x,1/2-y,1/2+z
loop_
_atom_site_type_symbol
_atom_site_label
_atom_site_fract_x
_atom_site_fract_y
_atom_site_fract_z
Si Si1 0.154668 0.833077 0.966390
Si Si2 0.907448 0.925469 0.880520
Si Si3 0.099313 0.978392 0.076915
Si Si4 0.345266 0.797990 0.546890
Si Si5 0.348283 0.113282 0.753124
Si Si6 0.920361 0.098852 0.658590
Si Si7 0.038269 0.355814 0.697268
Si Si8 0.019948 0.338850 0.944943
O O1 0.250000 0.776245 0.953484
O O2 0.073406 0.733292 0.953162
O O3 0.139633 0.980303 0.929670
O O4 0.145878 0.870861 0.033689
O O5 0.859134 0.924163 0.820089
O O6 0.926854 0.764640 0.902372
O O7 0.000000 0.000000 0.871362
O O8 0.090513 0.914170 0.141167
O O9 0.142912 0.132745 0.067703
O O10 0.000000 0.000000 0.056834
O O11 0.250000 0.817250 0.521656
O O12 0.356326 0.888537 0.605428
O O13 0.422180 0.837257 0.503186
O O14 0.250000 0.142625 0.739189
O O15 0.405143 0.252208 0.736683
O O16 0.381249 0.980647 0.713955
O O17 0.961006 0.253858 0.674349
O O18 0.000000 0.000000 0.639313
O O19 0.000000 0.500000 0.725638
O O20 0.000000 0.500000 0.925371
#
# Coordination Sequence:
#
# PCOD9364184 Si02
#       8
#     8   8   8   8   8   8   8   8
#     4  11  21  38  66  92 119 160 209 257 302 364
#     4  10  21  42  66  87 115 162 212 247 301 367
#     4  11  18  36  60  90 123 162 206 250 301 358
#     4  12  22  35  59  92 129 167 204 249 308 372
#     4  11  24  40  61  92 122 155 206 260 306 363
#     4  10  20  38  60  84 121 167 204 249 303 365
#     4  10  20  38  61  82 120 164 205 247 305 366
#     4  11  24  41  61  92 128 160 198 256 319 376
#
# _framework density 19.130341000000001
#
# number of rings (size 3 to 8) (size 9 to 14) (size 15 to 20)
#    0.000    1.250    5.000    3.000    0.000    3.500 
#    0.000    0.000    0.000    0.000    0.000    0.000 
#    0.000    0.000    0.000    0.000    0.000    0.000 
#
# Total GULP energy -178634.178983 kJ/mol
# GULP energy per Si atom -5582.318093 kJ/mol
# Density = 1.908680 g / cm^3
# Si number density = 19.130341 Si / 1000 Ang^3
#
#
#
# Elastic Constant Matrix: (Units=GPa)
#
#
# Indices 1 2 3 4 5 6 
#
# 1 103.4957 11.8094 13.8091 0.0000 0.0000 0.0000
# 2 11.8094 91.3771 19.8596 0.0000 0.0000 0.0000
# 3 13.8091 19.8596 66.6174 0.0000 0.0000 0.0000
# 4 0.0000 0.0000 0.0000 21.0025 0.0000 0.0000
# 5 0.0000 0.0000 0.0000 0.0000 9.5581 0.0000
# 6 0.0000 0.0000 0.0000 0.0000 0.0000 10.2032
#
#
#
# Elastic Compliance Matrix: (Units=1/GPa)
#
#
# Indices 1 2 3 4 5 6 
#
# 1 0.010006 -0.000901 -0.001806 0.000000 0.000000 0.000000
# 2 -0.000901 0.011783 -0.003326 0.000000 0.000000 0.000000
# 3 -0.001806 -0.003326 0.016377 0.000000 0.000000 0.000000
# 4 0.000000 0.000000 0.000000 0.047613 0.000000 0.000000
# 5 0.000000 0.000000 0.000000 0.000000 0.104623 0.000000
# 6 0.000000 0.000000 0.000000 0.000000 0.000000 0.098009
#
#
# Mechanical properties :
#
#
# Convention : Reuss Voigt Hill
#
# Bulk Modulus (GPa) = 38.31244 39.16071 38.73657
# Shear Modulus (GPa) = 16.17203 22.55357 19.36280
#
# Velocity S-wave (km/s) = 2.91066 3.43730 3.18488
# Velocity P-wave (km/s) = 5.60058 6.02231 5.81527
#
# Compressibility (1/GPa) = 0.02610119
#
# Stress axis : x y z
#
# Youngs Moduli (GPa) = 99.94071 84.86861 61.06169
#
# Poissons Ratio (x) = 0.07644 0.11025
# Poissons Ratio (y) = 0.09002 0.20309
# Poissons Ratio (z) = 0.18045 0.28227
#
# Static dielectric constant tensor:
#      x y z
#    x 1.679800 0.000000 0.000000 
#    y 0.000000 1.679410 0.000000 
#    z 0.000000 0.000000 1.651770 
# 
# From -- ./inp_files/24847.got.cif
#   From: 2010.05.17/outbox.cif.g08.bks.cpg/sg40_13_cif.got.tgz:24847.got - 2010.06.03 18:35:42.
