data_PCOD9364459
_publ_section_title
;
Structure prediction by ZEFSAII (Michael W. Deem and Ramdas Pophale) SiO2 
 PCOD9364459
Probable space group: A M A 2
;
_chemical_formula_sum "Si O2"
_cell_formula_units_Z 48
_cell_length_a 9.699310
_cell_length_b 13.312341
_cell_length_c 17.501545
_cell_angle_alpha 90.000000
_cell_angle_beta 90.000000
_cell_angle_gamma 90.000000
_cell_volume 2259.808629
_symmetry_space_group_name_H-M "A M A 2"
_symmetry_group_IT_number 40
_symmetry_cell_setting 'orthorhombic'
loop_
_space_group_symop_operation_xyz
x,y,z
-x,-y,z
1/2-x,y,z
1/2+x,-y,z
x,1/2+y,1/2+z
-x,1/2-y,1/2+z
1/2-x,1/2+y,1/2+z
1/2+x,1/2-y,1/2+z
loop_
_atom_site_type_symbol
_atom_site_label
_atom_site_fract_x
_atom_site_fract_y
_atom_site_fract_z
Si Si1 0.907940 0.288962 0.583380
Si Si2 0.586452 0.901363 0.531532
Si Si3 0.404391 0.183417 0.365178
Si Si4 0.586926 0.180282 0.219948
Si Si5 0.395836 0.087654 0.751739
Si Si6 0.466378 0.615052 0.423601
O O1 0.750000 0.267870 0.608091
O O2 0.000878 0.191178 0.566202
O O3 0.993171 0.350722 0.647747
O O4 0.901665 0.342223 0.500723
O O5 0.750000 0.901573 0.551801
O O6 0.582553 0.885184 0.439832
O O7 0.500000 0.000000 0.551560
O O8 0.250000 0.175786 0.332939
O O9 0.515908 0.154311 0.300931
O O10 0.424685 0.298116 0.397249
O O11 0.750000 0.153991 0.215323
O O12 0.576382 0.302008 0.220787
O O13 0.250000 0.052245 0.722438
O O14 0.389416 0.102590 0.843144
O O15 0.500000 0.000000 0.734972
O O16 0.500000 0.500000 0.442684
#
# Coordination Sequence:
#
# PCOD9364459 Si02
#       6
#     8   8   8   8   8   8
#     4  11  22  36  56  82 114 150 187 227 276 334
#     4  10  21  38  60  85 112 144 186 234 283 337
#     4   9  19  36  59  84 108 139 181 228 276 328
#     4  10  21  36  52  74 109 147 183 226 274 325
#     4   9  18  32  52  77 103 132 171 218 268 321
#     4   9  19  34  56  84 112 140 176 223 273 327
#
# _framework density 21.240736999999999
#
# number of rings (size 3 to 8) (size 9 to 14) (size 15 to 20)
#    0.000    2.333    0.000    2.000    0.000   13.333 
#    0.000    2.500    0.000    0.000    0.000    0.000 
#    0.000    0.000    0.000    0.000    0.000    0.000 
#
# Total GULP energy -133683.775941 kJ/mol
# GULP energy per Si atom -5570.157331 kJ/mol
# Density = 2.119239 g / cm^3
# Si number density = 21.240737 Si / 1000 Ang^3
#
#
#
# Elastic Constant Matrix: (Units=GPa)
#
#
# Indices 1 2 3 4 5 6 
#
# 1 138.7339 8.5411 73.1566 0.0000 0.0000 0.0000
# 2 8.5411 41.2037 14.6481 0.0000 0.0000 0.0000
# 3 73.1566 14.6481 139.9834 0.0000 0.0000 0.0000
# 4 0.0000 0.0000 0.0000 -33.2977 0.0000 0.0000
# 5 0.0000 0.0000 0.0000 0.0000 -9.7001 0.0000
# 6 0.0000 0.0000 0.0000 0.0000 0.0000 19.0915
#
#
#
# Elastic Compliance Matrix: (Units=1/GPa)
#
#
# Indices 1 2 3 4 5 6 
#
# 1 0.009952 -0.000222 -0.005178 0.000000 0.000000 0.000000
# 2 -0.000222 0.025212 -0.002522 0.000000 0.000000 0.000000
# 3 -0.005178 -0.002522 0.010114 0.000000 0.000000 0.000000
# 4 0.000000 0.000000 0.000000 -0.030032 0.000000 0.000000
# 5 0.000000 0.000000 0.000000 0.000000 -0.103092 0.000000
# 6 0.000000 0.000000 0.000000 0.000000 0.000000 0.052379
#
#
# Mechanical properties :
#
#
# Convention : Reuss Voigt Hill
#
# Bulk Modulus (GPa) = 33.97464 56.95695 45.46580
# Shear Modulus (GPa) = -509.62384 10.12377 -249.75003
#
# Velocity S-wave (km/s) = -15.50640 2.18553 -10.85523
# Velocity P-wave (km/s) = 17.45188 5.76558 11.64745
#
# Compressibility (1/GPa) = 0.02943372
#
# Stress axis : x y z
#
# Youngs Moduli (GPa) = 100.48183 39.66311 98.87699
#
# Poissons Ratio (x) = 0.00881 0.51196
# Poissons Ratio (y) = 0.02233 0.24938
# Poissons Ratio (z) = 0.52027 0.10003
#
# Static dielectric constant tensor:
#      x y z
#    x 1.754020 0.000000 0.000000 
#    y 0.000000 1.882670 0.000000 
#    z 0.000000 0.000000 1.806940 
# 
# From -- ./inp_files/19195.got.cif
#   From: 2010.05.17/outbox.cif.g08.bks.cpg/sg40_10_cif.got.tgz:19195.got - 2010.06.03 18:35:42.
