data_PCOD9364289
_publ_section_title
;
Structure prediction by ZEFSAII (Michael W. Deem and Ramdas Pophale) SiO2 
 PCOD9364289
Probable space group: A M A 2
;
_chemical_formula_sum "Si O2"
_cell_formula_units_Z 60
_cell_length_a 23.136669
_cell_length_b 15.314076
_cell_length_c 7.033556
_cell_angle_alpha 90.000000
_cell_angle_beta 90.000000
_cell_angle_gamma 90.000000
_cell_volume 2492.106404
_symmetry_space_group_name_H-M "A M A 2"
_symmetry_group_IT_number 40
_symmetry_cell_setting 'orthorhombic'
loop_
_space_group_symop_operation_xyz
x,y,z
-x,-y,z
1/2-x,y,z
1/2+x,-y,z
x,1/2+y,1/2+z
-x,1/2-y,1/2+z
1/2-x,1/2+y,1/2+z
1/2+x,1/2-y,1/2+z
loop_
_atom_site_type_symbol
_atom_site_label
_atom_site_fract_x
_atom_site_fract_y
_atom_site_fract_z
Si Si1 0.419802 0.492013 0.815710
Si Si2 0.814961 0.620824 0.726326
Si Si3 0.340442 0.419828 0.301077
Si Si4 0.250000 0.057630 0.652673
Si Si5 0.503171 0.363397 0.642919
Si Si6 0.360581 0.192628 0.672434
Si Si7 0.423509 0.781161 0.825407
Si Si8 0.937901 0.456455 0.253433
O O1 0.354545 0.460678 0.786410
O O2 0.456980 0.403570 0.790159
O O3 0.447088 0.562155 0.667485
O O4 0.429117 0.528159 0.026584
O O5 0.750000 0.613829 0.799908
O O6 0.813046 0.614624 0.495761
O O7 0.841998 0.715725 0.767208
O O8 0.298779 0.479080 0.179923
O O9 0.376796 0.339912 0.214006
O O10 0.390742 0.485911 0.359054
O O11 0.303078 0.132290 0.653357
O O12 0.534354 0.274961 0.698797
O O13 0.464608 0.340701 0.459453
O O14 0.387007 0.219241 0.467269
O O15 0.413598 0.142142 0.777486
O O16 0.000000 0.500000 0.293686
#
# Coordination Sequence:
#
# PCOD9364289 Si02
#       8
#     8   8   8   4   8   8   8   8
#     4  11  22  41  62  92 135 171 203 260 341 379
#     4  11  22  44  65  88 125 174 223 266 320 383
#     4  10  23  37  65  92 123 165 220 268 311 374
#     4  10  20  40  64  94 120 156 226 276 308 370
#     4  11  23  41  63  94 136 171 209 271 323 405
#     4  10  20  39  65  91 115 171 215 260 313 382
#     4  11  23  40  64  97 128 173 218 258 338 385
#     4  11  22  38  63  97 131 164 210 263 322 395
#
# _framework density 24.076021000000001
#
# number of rings (size 3 to 8) (size 9 to 14) (size 15 to 20)
#    0.000    1.333    6.667    0.000    3.733    1.067 
#    7.200    0.000    1.467    0.000    0.000    0.000 
#    0.000    0.000    0.000    0.000    0.000    0.000 
#
# Total GULP energy -167002.429623 kJ/mol
# GULP energy per Si atom -5566.747654 kJ/mol
# Density = 2.402122 g / cm^3
# Si number density = 24.076021 Si / 1000 Ang^3
#
#
#
# Elastic Constant Matrix: (Units=GPa)
#
#
# Indices 1 2 3 4 5 6 
#
# 1 206.2534 85.2130 34.6470 0.0000 0.0000 0.0000
# 2 85.2130 145.4794 38.4712 0.0000 0.0000 0.0000
# 3 34.6470 38.4712 56.0218 0.0000 0.0000 0.0000
# 4 0.0000 0.0000 0.0000 27.0038 0.0000 0.0000
# 5 0.0000 0.0000 0.0000 0.0000 25.5114 0.0000
# 6 0.0000 0.0000 0.0000 0.0000 0.0000 78.9065
#
#
#
# Elastic Compliance Matrix: (Units=1/GPa)
#
#
# Indices 1 2 3 4 5 6 
#
# 1 0.006530 -0.003369 -0.001725 0.000000 0.000000 0.000000
# 2 -0.003369 0.010137 -0.004878 0.000000 0.000000 0.000000
# 3 -0.001725 -0.004878 0.022267 0.000000 0.000000 0.000000
# 4 0.000000 0.000000 0.000000 0.037032 0.000000 0.000000
# 5 0.000000 0.000000 0.000000 0.000000 0.039198 0.000000
# 6 0.000000 0.000000 0.000000 0.000000 0.000000 0.012673
#
#
# Mechanical properties :
#
#
# Convention : Reuss Voigt Hill
#
# Bulk Modulus (GPa) = 52.65824 80.49078 66.57451
# Shear Modulus (GPa) = 32.44429 42.91257 37.67843
#
# Velocity S-wave (km/s) = 3.67492 4.22640 3.96027
# Velocity P-wave (km/s) = 6.31869 7.57107 6.97305
#
# Compressibility (1/GPa) = 0.01899038
#
# Stress axis : x y z
#
# Youngs Moduli (GPa) = 153.14058 98.64966 44.90978
#
# Poissons Ratio (x) = 0.33231 0.07748
# Poissons Ratio (y) = 0.51587 0.21906
# Poissons Ratio (z) = 0.26420 0.48120
#
# Static dielectric constant tensor:
#      x y z
#    x 1.947820 0.000000 0.000000 
#    y 0.000000 1.962160 0.000000 
#    z 0.000000 0.000000 1.996550 
# 
# From -- ./inp_files/8892.got.cif
#   From: 2010.05.17/outbox.cif.g08.bks.cpg/sg40_5_cif.got.tgz:8892.got - 2010.06.03 18:35:42.
