data_PCOD9364642
_publ_section_title
;
Structure prediction by ZEFSAII (Michael W. Deem and Ramdas Pophale) SiO2 
 PCOD9364642
Probable space group: A M A 2
;
_chemical_formula_sum "Si O2"
_cell_formula_units_Z 64
_cell_length_a 15.493740
_cell_length_b 23.594766
_cell_length_c 7.979672
_cell_angle_alpha 90.000000
_cell_angle_beta 90.000000
_cell_angle_gamma 90.000000
_cell_volume 2917.138027
_symmetry_space_group_name_H-M "A M A 2"
_symmetry_group_IT_number 40
_symmetry_cell_setting 'orthorhombic'
loop_
_space_group_symop_operation_xyz
x,y,z
-x,-y,z
1/2-x,y,z
1/2+x,-y,z
x,1/2+y,1/2+z
-x,1/2-y,1/2+z
1/2-x,1/2+y,1/2+z
1/2+x,1/2-y,1/2+z
loop_
_atom_site_type_symbol
_atom_site_label
_atom_site_fract_x
_atom_site_fract_y
_atom_site_fract_z
Si Si1 0.646619 0.480364 0.487110
Si Si2 0.346597 0.370640 0.215325
Si Si3 0.652497 0.357546 0.641436
Si Si4 0.902995 0.008876 0.613644
Si Si5 0.984976 0.312789 0.110469
Si Si6 0.479165 0.307540 0.718331
Si Si7 0.848275 0.596550 0.608215
Si Si8 0.841850 0.393223 0.029800
O O1 0.750000 0.487134 0.459240
O O2 0.632667 0.417579 0.554132
O O3 0.601805 0.491149 0.309893
O O4 0.622423 0.530922 0.614807
O O5 0.250000 0.350678 0.172149
O O6 0.370344 0.426755 0.107157
O O7 0.423430 0.326063 0.195248
O O8 0.345455 0.389840 0.409029
O O9 0.750000 0.338724 0.592716
O O10 0.569667 0.317456 0.619045
O O11 0.655613 0.370067 0.840983
O O12 0.848168 0.960838 0.522922
O O13 0.000000 0.000000 0.553228
O O14 0.944444 0.254009 0.169725
O O15 0.919987 0.365438 0.131725
O O16 0.001799 0.307423 0.914028
O O17 0.414188 0.358888 0.684300
O O18 0.750000 0.602058 0.673281
O O19 0.750000 0.377565 0.108266
#
# Coordination Sequence:
#
# PCOD9364642 Si02
#       8
#     8   8   8   8   8   8   8   8
#     4   9  19  35  56  88 120 152 192 228 281 346
#     4  10  21  39  60  84 120 156 190 234 289 345
#     4   9  21  39  59  84 115 154 191 232 289 344
#     4  11  20  33  58  91 121 149 188 231 283 345
#     4  11  24  41  57  87 110 152 201 243 296 342
#     4  11  24  39  61  82 117 148 199 250 288 346
#     4   9  20  38  59  85 117 155 190 232 290 345
#     4  10  21  40  60  82 117 153 189 235 287 345
#
# _framework density 21.939311
#
# number of rings (size 3 to 8) (size 9 to 14) (size 15 to 20)
#    0.000    2.000    1.250    2.625    3.500    3.500 
#    0.000    3.750    0.000    0.000    0.000    0.000 
#    0.000    0.000    0.000    0.000    0.000    0.000 
#
# Total GULP energy -178782.637389 kJ/mol
# GULP energy per Si atom -5586.957418 kJ/mol
# Density = 2.188938 g / cm^3
# Si number density = 21.939311 Si / 1000 Ang^3
#
#
#
# Elastic Constant Matrix: (Units=GPa)
#
#
# Indices 1 2 3 4 5 6 
#
# 1 67.6406 -2.9268 6.8111 0.0000 0.0000 0.0000
# 2 -2.9268 48.4953 3.6916 0.0000 0.0000 0.0000
# 3 6.8111 3.6916 11.9268 0.0000 0.0000 0.0000
# 4 0.0000 0.0000 0.0000 29.6746 0.0000 0.0000
# 5 0.0000 0.0000 0.0000 0.0000 8.8005 0.0000
# 6 0.0000 0.0000 0.0000 0.0000 0.0000 12.2259
#
#
#
# Elastic Compliance Matrix: (Units=1/GPa)
#
#
# Indices 1 2 3 4 5 6 
#
# 1 0.015819 0.001682 -0.009554 0.000000 0.000000 0.000000
# 2 0.001682 0.021297 -0.007552 0.000000 0.000000 0.000000
# 3 -0.009554 -0.007552 0.091639 0.000000 0.000000 0.000000
# 4 0.000000 0.000000 0.000000 0.033699 0.000000 0.000000
# 5 0.000000 0.000000 0.000000 0.000000 0.113629 0.000000
# 6 0.000000 0.000000 0.000000 0.000000 0.000000 0.081793
#
#
# Mechanical properties :
#
#
# Convention : Reuss Voigt Hill
#
# Bulk Modulus (GPa) = 10.21402 15.91274 13.06338
# Shear Modulus (GPa) = 11.86632 18.17267 15.01950
#
# Velocity S-wave (km/s) = 2.32818 2.88117 2.61931
# Velocity P-wave (km/s) = 3.44861 4.28217 3.88780
#
# Compressibility (1/GPa) = 0.09790469
#
# Stress axis : x y z
#
# Youngs Moduli (GPa) = 63.21558 46.95502 10.91243
#
# Poissons Ratio (x) = -0.07898 0.10426
# Poissons Ratio (y) = -0.10633 0.08242
# Poissons Ratio (z) = 0.60399 0.35463
#
# Static dielectric constant tensor:
#      x y z
#    x 1.829870 0.000000 0.000000 
#    y 0.000000 1.802080 0.000000 
#    z 0.000000 0.000000 1.799680 
# 
# From -- ./inp_files/6872.got.cif
#   From: 2010.05.17/outbox.cif.g08.bks.cpg/sg40_4_cif.got.tgz:6872.got - 2010.06.03 18:35:42.
