data_PCOD9364056
_publ_section_title
;
Structure prediction by ZEFSAII (Michael W. Deem and Ramdas Pophale) SiO2 
 PCOD9364056
Probable space group: A M A 2
;
_chemical_formula_sum "Si O2"
_cell_formula_units_Z 64
_cell_length_a 30.263133
_cell_length_b 8.701227
_cell_length_c 11.741729
_cell_angle_alpha 90.000000
_cell_angle_beta 90.000000
_cell_angle_gamma 90.000000
_cell_volume 3091.907110
_symmetry_space_group_name_H-M "A M A 2"
_symmetry_group_IT_number 40
_symmetry_cell_setting 'orthorhombic'
loop_
_space_group_symop_operation_xyz
x,y,z
-x,-y,z
1/2-x,y,z
1/2+x,-y,z
x,1/2+y,1/2+z
-x,1/2-y,1/2+z
1/2-x,1/2+y,1/2+z
1/2+x,1/2-y,1/2+z
loop_
_atom_site_type_symbol
_atom_site_label
_atom_site_fract_x
_atom_site_fract_y
_atom_site_fract_z
Si Si1 0.455423 0.421071 0.940760
Si Si2 0.104523 0.355114 0.297707
Si Si3 0.080557 0.028812 0.229777
Si Si4 0.798120 0.719193 0.385882
Si Si5 0.050212 0.558773 0.474000
Si Si6 0.702115 0.289860 0.139152
Si Si7 0.174141 0.435839 0.831129
Si Si8 0.369103 0.968257 0.557443
O O1 0.500000 0.500000 0.981361
O O2 0.452101 0.425475 0.804080
O O3 0.450291 0.243365 0.971107
O O4 0.413430 0.514816 0.990593
O O5 0.077301 0.196681 0.288796
O O6 0.154823 0.342523 0.344062
O O7 0.078608 0.480618 0.372406
O O8 0.112470 0.380620 0.164527
O O9 0.070455 0.017715 0.097262
O O10 0.130296 0.975621 0.258488
O O11 0.750000 0.664436 0.341295
O O12 0.797519 0.692895 0.521937
O O13 0.801299 0.902616 0.356491
O O14 0.000000 0.500000 0.466071
O O15 0.750000 0.371077 0.141569
O O16 0.661540 0.402511 0.114139
O O17 0.697712 0.189722 0.253133
O O18 0.158884 0.383536 0.957988
#
# Coordination Sequence:
#
# PCOD9364056 Si02
#       8
#     8   8   8   8   8   8   8   8
#     4  11  24  46  66  93 130 169 222 271 331 394
#     4  11  23  42  64  94 134 171 217 265 334 385
#     4  10  22  43  64  94 129 171 217 268 325 392
#     4   9  19  37  61  90 128 172 218 267 320 385
#     4  12  26  43  67  97 129 170 218 275 326 394
#     4  10  20  36  62  96 127 170 223 266 319 384
#     4   9  19  36  64  92 126 175 215 266 323 380
#     4  10  23  39  63  90 132 170 208 270 329 381
#
# _framework density 20.699197999999999
#
# number of rings (size 3 to 8) (size 9 to 14) (size 15 to 20)
#    0.000    1.750    1.250    3.000    3.500    2.500 
#    2.250    0.000    0.000    0.000    0.000    0.000 
#    0.000    0.000    0.000    0.000    0.000    0.000 
#
# Total GULP energy -178272.059215 kJ/mol
# GULP energy per Si atom -5571.001850 kJ/mol
# Density = 2.065209 g / cm^3
# Si number density = 20.699198 Si / 1000 Ang^3
#
#
#
# Elastic Constant Matrix: (Units=GPa)
#
#
# Indices 1 2 3 4 5 6 
#
# 1 121.2551 30.8659 38.2887 0.0000 0.0000 0.0000
# 2 30.8659 49.1197 41.2984 0.0000 0.0000 0.0000
# 3 38.2887 41.2984 150.6826 0.0000 0.0000 0.0000
# 4 0.0000 0.0000 0.0000 31.6708 0.0000 0.0000
# 5 0.0000 0.0000 0.0000 0.0000 21.7923 0.0000
# 6 0.0000 0.0000 0.0000 0.0000 0.0000 17.1853
#
#
#
# Elastic Compliance Matrix: (Units=1/GPa)
#
#
# Indices 1 2 3 4 5 6 
#
# 1 0.009946 -0.005360 -0.001058 0.000000 0.000000 0.000000
# 2 -0.005360 0.029343 -0.006680 0.000000 0.000000 0.000000
# 3 -0.001058 -0.006680 0.008736 0.000000 0.000000 0.000000
# 4 0.000000 0.000000 0.000000 0.031575 0.000000 0.000000
# 5 0.000000 0.000000 0.000000 0.000000 0.045888 0.000000
# 6 0.000000 0.000000 0.000000 0.000000 0.000000 0.058189
#
#
# Mechanical properties :
#
#
# Convention : Reuss Voigt Hill
#
# Bulk Modulus (GPa) = 45.81232 60.21816 53.01524
# Shear Modulus (GPa) = 23.02561 28.16997 25.59779
#
# Velocity S-wave (km/s) = 3.33887 3.69307 3.52043
# Velocity P-wave (km/s) = 6.08642 6.88042 6.49557
#
# Compressibility (1/GPa) = 0.02182819
#
# Stress axis : x y z
#
# Youngs Moduli (GPa) = 100.54684 34.07959 114.46578
#
# Poissons Ratio (x) = 0.18267 0.12112
# Poissons Ratio (y) = 0.53893 0.76466
# Poissons Ratio (z) = 0.10640 0.22766
#
# Static dielectric constant tensor:
#      x y z
#    x 1.788500 0.000000 0.000000 
#    y 0.000000 1.794500 0.000000 
#    z 0.000000 0.000000 1.820640 
# 
# From -- ./inp_files/14426.got.cif
#   From: 2010.05.17/outbox.cif.g08.bks.cpg/sg40_8_cif.got.tgz:14426.got - 2010.06.03 18:35:42.
