data_PCOD9364964
_publ_section_title
;
Structure prediction by ZEFSAII (Michael W. Deem and Ramdas Pophale) SiO2 
 PCOD9364964
Probable space group: A M A 2
;
_chemical_formula_sum "Si O2"
_cell_formula_units_Z 64
_cell_length_a 18.618780
_cell_length_b 6.449532
_cell_length_c 26.069964
_cell_angle_alpha 90.000000
_cell_angle_beta 90.000000
_cell_angle_gamma 90.000000
_cell_volume 3130.544299
_symmetry_space_group_name_H-M "A M A 2"
_symmetry_group_IT_number 40
_symmetry_cell_setting 'orthorhombic'
loop_
_space_group_symop_operation_xyz
x,y,z
-x,-y,z
1/2-x,y,z
1/2+x,-y,z
x,1/2+y,1/2+z
-x,1/2-y,1/2+z
1/2-x,1/2+y,1/2+z
1/2+x,1/2-y,1/2+z
loop_
_atom_site_type_symbol
_atom_site_label
_atom_site_fract_x
_atom_site_fract_y
_atom_site_fract_z
Si Si1 0.571768 0.116556 0.845760
Si Si2 0.666816 0.918126 0.284989
Si Si3 0.333927 0.235405 0.076579
Si Si4 0.166073 0.264595 0.879953
Si Si5 0.074328 0.415729 0.516741
Si Si6 0.574328 0.915729 0.439792
Si Si7 0.166816 0.418126 0.671544
Si Si8 0.071768 0.616557 0.110773
O O1 0.614038 0.235011 0.801296
O O2 0.553094 0.288829 0.888547
O O3 0.500000 0.000000 0.829032
O O4 0.624602 0.948960 0.871374
O O5 0.750000 0.846690 0.286779
O O6 0.660170 0.100230 0.327375
O O7 0.651831 1.000000 0.228266
O O8 0.250000 0.266511 0.065650
O O9 0.375398 0.448960 0.085159
O O10 0.372891 0.098156 0.033330
O O11 0.339830 0.100230 0.129158
O O12 0.250000 0.233489 0.890882
O O13 0.127109 0.401844 0.923203
O O14 0.108214 0.250000 0.478266
O O15 0.053093 0.288830 0.567986
O O16 0.000000 0.500000 0.493252
O O17 0.500000 0.000000 0.463281
O O18 0.250000 0.346690 0.669754
O O19 0.114038 0.235012 0.655237
O O20 0.000000 0.500000 0.127501
#
# Coordination Sequence:
#
# PCOD9364964 Si02
#       8
#     8   8   8   8   8   8   8   8
#     4  11  21  38  62  87 123 163 203 257 313 361
#     4   9  20  39  62  87 121 164 207 252 305 367
#     4  10  22  40  62  91 123 159 202 255 308 363
#     4  10  22  40  62  91 123 159 202 255 308 363
#     4  11  23  39  64  90 119 163 207 249 306 374
#     4  11  23  39  64  90 119 163 207 249 306 374
#     4   9  20  39  62  87 121 164 207 252 305 367
#     4  11  21  38  62  87 123 163 203 257 313 361
#
# _framework density 20.443729000000001
#
# number of rings (size 3 to 8) (size 9 to 14) (size 15 to 20)
#    0.000    1.750    2.500    1.500    0.000    2.500 
#    0.000    8.750    0.000    0.000    0.000    0.000 
#    0.000    0.000    0.000    0.000    0.000    0.000 
#
# Total GULP energy -178943.879451 kJ/mol
# GULP energy per Si atom -5591.996233 kJ/mol
# Density = 2.039720 g / cm^3
# Si number density = 20.443729 Si / 1000 Ang^3
#
#
#
# Elastic Constant Matrix: (Units=GPa)
#
#
# Indices 1 2 3 4 5 6 
#
# 1 96.7207 54.5546 13.6567 0.0000 0.0000 0.0000
# 2 54.5546 88.7741 10.1400 0.0000 0.0000 0.0000
# 3 13.6567 10.1400 58.2950 0.0000 0.0000 0.0000
# 4 0.0000 0.0000 0.0000 20.5218 0.0000 0.0000
# 5 0.0000 0.0000 0.0000 0.0000 38.2834 0.0000
# 6 0.0000 0.0000 0.0000 0.0000 0.0000 33.8088
#
#
#
# Elastic Compliance Matrix: (Units=1/GPa)
#
#
# Indices 1 2 3 4 5 6 
#
# 1 0.016069 -0.009637 -0.002088 0.000000 0.000000 0.000000
# 2 -0.009637 0.017272 -0.000747 0.000000 0.000000 0.000000
# 3 -0.002088 -0.000747 0.017773 0.000000 0.000000 0.000000
# 4 0.000000 0.000000 0.000000 0.048729 0.000000 0.000000
# 5 0.000000 0.000000 0.000000 0.000000 0.026121 0.000000
# 6 0.000000 0.000000 0.000000 0.000000 0.000000 0.029578
#
#
# Mechanical properties :
#
#
# Convention : Reuss Voigt Hill
#
# Bulk Modulus (GPa) = 38.21013 44.49916 41.35464
# Shear Modulus (GPa) = 26.42573 29.55201 27.98887
#
# Velocity S-wave (km/s) = 3.59919 3.80614 3.70411
# Velocity P-wave (km/s) = 6.00026 6.41323 6.21018
#
# Compressibility (1/GPa) = 0.02617107
#
# Stress axis : x y z
#
# Youngs Moduli (GPa) = 62.23005 57.89758 56.26429
#
# Poissons Ratio (x) = 0.55794 0.11750
# Poissons Ratio (y) = 0.59969 0.04201
# Poissons Ratio (z) = 0.12996 0.04323
#
# Static dielectric constant tensor:
#      x y z
#    x 1.702510 0.000000 0.000000 
#    y 0.000000 1.717540 0.000000 
#    z 0.000000 0.000000 1.724030 
# 
# From -- ./inp_files/26687.got.cif
#   From: 2010.05.17/outbox.cif.g08.bks.cpg/sg40_14_cif.got.tgz:26687.got - 2010.06.03 18:35:42.
