data_PCOD9364778
_publ_section_title
;
Structure prediction by ZEFSAII (Michael W. Deem and Ramdas Pophale) SiO2 
 PCOD9364778
Probable space group: A M A 2
;
_chemical_formula_sum "Si O2"
_cell_formula_units_Z 56
_cell_length_a 18.938818
_cell_length_b 15.876716
_cell_length_c 8.957095
_cell_angle_alpha 90.000000
_cell_angle_beta 90.000000
_cell_angle_gamma 90.000000
_cell_volume 2693.275170
_symmetry_space_group_name_H-M "A M A 2"
_symmetry_group_IT_number 40
_symmetry_cell_setting 'orthorhombic'
loop_
_space_group_symop_operation_xyz
x,y,z
-x,-y,z
1/2-x,y,z
1/2+x,-y,z
x,1/2+y,1/2+z
-x,1/2-y,1/2+z
1/2-x,1/2+y,1/2+z
1/2+x,1/2-y,1/2+z
loop_
_atom_site_type_symbol
_atom_site_label
_atom_site_fract_x
_atom_site_fract_y
_atom_site_fract_z
Si Si1 0.335610 0.799656 0.361900
Si Si2 0.668473 0.035558 0.179975
Si Si3 0.109768 0.501943 0.359620
Si Si4 0.666374 0.861893 0.334068
Si Si5 0.563920 0.760150 0.111827
Si Si6 0.168216 0.136470 0.665840
Si Si7 0.010177 0.858348 0.852200
O O1 0.250000 0.805378 0.391031
O O2 0.356185 0.876807 0.252693
O O3 0.384881 0.796678 0.507467
O O4 0.350316 0.709842 0.282551
O O5 0.750000 0.049762 0.138456
O O6 0.664415 0.961555 0.300990
O O7 0.632999 0.998259 0.031680
O O8 0.162166 0.544351 0.241423
O O9 0.085094 0.406238 0.341737
O O10 0.045976 0.567202 0.334185
O O11 0.750000 0.836662 0.317403
O O12 0.616975 0.814814 0.215082
O O13 0.636239 0.850906 0.501631
O O14 0.513809 0.707483 0.219825
O O15 0.513277 0.814824 0.005140
O O16 0.250000 0.150335 0.635183
#
# Coordination Sequence:
#
# PCOD9364778 Si02
#       7
#     8   8   8   8   8   8   8
#     4  10  22  41  68  99 130 168 215 276 338 393
#     4  10  21  40  69 100 128 164 211 267 333 392
#     4  11  23  45  62  91 130 173 215 265 319 396
#     4  10  22  41  69  99 128 168 214 272 334 389
#     4  12  25  45  64  91 130 176 224 275 324 398
#     4  10  21  40  68  99 132 168 212 268 335 395
#     4  11  28  42  64  90 125 176 226 263 323 389
#
# _framework density 20.792527
#
# number of rings (size 3 to 8) (size 9 to 14) (size 15 to 20)
#    0.000    1.429    2.857    0.857    8.000    2.286 
#    0.000    1.429    0.000    0.000    0.000    0.000 
#    0.000    0.000    0.000    0.000    0.000    0.000 
#
# Total GULP energy -156099.711787 kJ/mol
# GULP energy per Si atom -5574.989707 kJ/mol
# Density = 2.074520 g / cm^3
# Si number density = 20.792527 Si / 1000 Ang^3
#
#
#
# Elastic Constant Matrix: (Units=GPa)
#
#
# Indices 1 2 3 4 5 6 
#
# 1 48.6215 34.8657 31.4425 0.0000 0.0000 0.0000
# 2 34.8657 76.7167 39.7665 0.0000 0.0000 0.0000
# 3 31.4425 39.7665 105.8988 0.0000 0.0000 0.0000
# 4 0.0000 0.0000 0.0000 40.2757 0.0000 0.0000
# 5 0.0000 0.0000 0.0000 0.0000 37.9603 0.0000
# 6 0.0000 0.0000 0.0000 0.0000 0.0000 21.4863
#
#
#
# Elastic Compliance Matrix: (Units=1/GPa)
#
#
# Indices 1 2 3 4 5 6 
#
# 1 0.032594 -0.012165 -0.005110 0.000000 0.000000 0.000000
# 2 -0.012165 0.020726 -0.004171 0.000000 0.000000 0.000000
# 3 -0.005110 -0.004171 0.012526 0.000000 0.000000 0.000000
# 4 0.000000 0.000000 0.000000 0.024829 0.000000 0.000000
# 5 0.000000 0.000000 0.000000 0.000000 0.026343 0.000000
# 6 0.000000 0.000000 0.000000 0.000000 0.000000 0.046541
#
#
# Mechanical properties :
#
#
# Convention : Reuss Voigt Hill
#
# Bulk Modulus (GPa) = 43.56194 49.26517 46.41355
# Shear Modulus (GPa) = 23.35332 28.28860 25.82096
#
# Velocity S-wave (km/s) = 3.35499 3.69252 3.52780
# Velocity P-wave (km/s) = 6.00035 6.47493 6.24215
#
# Compressibility (1/GPa) = 0.02295582
#
# Stress axis : x y z
#
# Youngs Moduli (GPa) = 30.68003 48.24967 79.83196
#
# Poissons Ratio (x) = 0.58694 0.40791
# Poissons Ratio (y) = 0.37321 0.33297
# Poissons Ratio (z) = 0.15676 0.20124
#
# Static dielectric constant tensor:
#      x y z
#    x 1.787470 0.000000 0.000000 
#    y 0.000000 1.766420 0.000000 
#    z 0.000000 0.000000 1.797550 
# 
# From -- ./inp_files/8286.got.cif
#   From: 2010.05.17/outbox.cif.g08.bks.cpg/sg40_5_cif.got.tgz:8286.got - 2010.06.03 18:35:42.
