data_PCOD9364548
_publ_section_title
;
Structure prediction by ZEFSAII (Michael W. Deem and Ramdas Pophale) SiO2 
 PCOD9364548
Probable space group: A M A 2
;
_chemical_formula_sum "Si O2"
_cell_formula_units_Z 64
_cell_length_a 17.945983
_cell_length_b 11.427130
_cell_length_c 15.690677
_cell_angle_alpha 90.000000
_cell_angle_beta 90.000000
_cell_angle_gamma 90.000000
_cell_volume 3217.704090
_symmetry_space_group_name_H-M "A M A 2"
_symmetry_group_IT_number 40
_symmetry_cell_setting 'orthorhombic'
loop_
_space_group_symop_operation_xyz
x,y,z
-x,-y,z
1/2-x,y,z
1/2+x,-y,z
x,1/2+y,1/2+z
-x,1/2-y,1/2+z
1/2-x,1/2+y,1/2+z
1/2+x,1/2-y,1/2+z
loop_
_atom_site_type_symbol
_atom_site_label
_atom_site_fract_x
_atom_site_fract_y
_atom_site_fract_z
Si Si1 0.389236 0.966271 0.543380
Si Si2 0.412682 0.332150 0.741701
Si Si3 0.331492 0.884725 0.709419
Si Si4 0.839769 0.985255 0.357207
Si Si5 0.979576 0.876640 0.938047
Si Si6 0.933191 0.268183 0.811202
Si Si7 0.163385 0.613224 0.326919
Si Si8 0.530221 0.805141 0.576532
O O1 0.329788 0.922520 0.611436
O O2 0.460822 0.895954 0.580637
O O3 0.369795 0.949811 0.443578
O O4 0.403506 0.104712 0.555299
O O5 0.369699 0.449316 0.771427
O O6 0.490963 0.337059 0.792302
O O7 0.359196 0.228714 0.774939
O O8 0.441182 0.282790 0.650337
O O9 0.250000 0.842012 0.736532
O O10 0.390647 0.784147 0.730197
O O11 0.348230 0.000557 0.765953
O O12 0.750000 0.982602 0.358992
O O13 0.876584 0.856046 0.357146
O O14 0.895590 0.884638 0.903961
O O15 0.035253 0.846031 0.860139
O O16 0.000000 0.000000 0.977556
O O17 0.999597 0.774912 0.001615
O O18 0.250000 0.615508 0.352420
#
# Coordination Sequence:
#
# PCOD9364548 Si02
#       8
#     8   8   8   8   8   8   8   8
#     4  11  22  42  66 101 132 172 222 289 333 395
#     4  11  23  40  67  93 128 173 223 273 327 402
#     4  11  21  37  65  97 133 173 216 273 337 395
#     4  12  26  44  68 100 139 178 220 279 352 410
#     4  11  22  39  66  93 129 175 223 271 329 400
#     4  11  22  41  65  97 127 175 224 272 325 399
#     4  10  21  37  63  98 130 167 216 275 337 396
#     4  11  23  39  66  96 130 168 233 281 330 390
#
# _framework density 19.889956999999999
#
# number of rings (size 3 to 8) (size 9 to 14) (size 15 to 20)
#    0.000    1.000    5.000    3.000    1.750    1.000 
#    0.000    0.625    0.000    0.000    0.000    0.000 
#    0.000    0.000    0.000    0.000    0.000    0.000 
#
# Total GULP energy -178148.554472 kJ/mol
# GULP energy per Si atom -5567.142327 kJ/mol
# Density = 1.984469 g / cm^3
# Si number density = 19.889957 Si / 1000 Ang^3
#
#
#
# Elastic Constant Matrix: (Units=GPa)
#
#
# Indices 1 2 3 4 5 6 
#
# 1 107.3027 40.6296 32.3375 0.0000 0.0000 0.0000
# 2 40.6296 38.9344 12.0052 0.0000 0.0000 0.0000
# 3 32.3375 12.0052 77.8160 0.0000 0.0000 0.0000
# 4 0.0000 0.0000 0.0000 -2.4124 0.0000 0.0000
# 5 0.0000 0.0000 0.0000 0.0000 43.0549 0.0000
# 6 0.0000 0.0000 0.0000 0.0000 0.0000 21.0997
#
#
#
# Elastic Compliance Matrix: (Units=1/GPa)
#
#
# Indices 1 2 3 4 5 6 
#
# 1 0.016776 -0.016124 -0.004484 0.000000 0.000000 0.000000
# 2 -0.016124 0.042464 0.000149 0.000000 0.000000 0.000000
# 3 -0.004484 0.000149 0.014691 0.000000 0.000000 0.000000
# 4 0.000000 0.000000 0.000000 -0.414531 0.000000 0.000000
# 5 0.000000 0.000000 0.000000 0.000000 0.023226 0.000000
# 6 0.000000 0.000000 0.000000 0.000000 0.000000 0.047394
#
#
# Mechanical properties :
#
#
# Convention : Reuss Voigt Hill
#
# Bulk Modulus (GPa) = 30.29007 43.77754 37.03380
# Shear Modulus (GPa) = -22.92966 21.62049 -0.65459
#
# Velocity S-wave (km/s) = -3.39901 3.30055 -0.57430
# Velocity P-wave (km/s) = 0.37749 6.04835 4.26849
#
# Compressibility (1/GPa) = 0.03301412
#
# Stress axis : x y z
#
# Youngs Moduli (GPa) = 59.60931 23.54940 68.06812
#
# Poissons Ratio (x) = 0.37970 0.30521
# Poissons Ratio (y) = 0.96112 -0.01016
# Poissons Ratio (z) = 0.26728 -0.00351
#
# Static dielectric constant tensor:
#      x y z
#    x 1.224430 0.000000 0.000000 
#    y 0.000000 1.749720 0.000000 
#    z 0.000000 0.000000 1.750740 
# 
# From -- ./inp_files/17832.got.cif
#   From: 2010.05.17/outbox.cif.g08.bks.cpg/sg40_9_cif.got.tgz:17832.got - 2010.06.03 18:35:42.
