data_PCOD9364004
_publ_section_title
;
Structure prediction by ZEFSAII (Michael W. Deem and Ramdas Pophale) SiO2 
 PCOD9364004
Probable space group: A M A 2
;
_chemical_formula_sum "Si O2"
_cell_formula_units_Z 48
_cell_length_a 8.615593
_cell_length_b 9.449197
_cell_length_c 31.928250
_cell_angle_alpha 90.000000
_cell_angle_beta 90.000000
_cell_angle_gamma 90.000000
_cell_volume 2599.292738
_symmetry_space_group_name_H-M "A M A 2"
_symmetry_group_IT_number 40
_symmetry_cell_setting 'orthorhombic'
loop_
_space_group_symop_operation_xyz
x,y,z
-x,-y,z
1/2-x,y,z
1/2+x,-y,z
x,1/2+y,1/2+z
-x,1/2-y,1/2+z
1/2-x,1/2+y,1/2+z
1/2+x,1/2-y,1/2+z
loop_
_atom_site_type_symbol
_atom_site_label
_atom_site_fract_x
_atom_site_fract_y
_atom_site_fract_z
Si Si1 0.564126 0.840855 0.909420
Si Si2 0.064735 0.839859 0.576149
Si Si3 0.564221 0.658556 0.499645
Si Si4 0.935453 0.341328 0.832709
Si Si5 0.936452 0.339459 0.255956
Si Si6 0.064351 0.160151 0.662630
O O1 0.750000 0.845276 0.909906
O O2 0.503832 0.740595 0.872763
O O3 0.500000 0.000000 0.902631
O O4 0.501491 0.792333 0.954714
O O5 0.250000 0.842633 0.574267
O O6 0.995307 0.753961 0.537524
O O7 0.011023 0.775848 0.620962
O O8 0.000000 0.000000 0.574287
O O9 0.500000 0.500000 0.505612
O O10 0.750000 0.656268 0.498211
O O11 0.750000 0.342885 0.835108
O O12 0.000000 0.500000 0.831423
O O13 0.989524 0.256519 0.791578
O O14 0.750000 0.343473 0.260620
O O15 0.971715 0.282382 0.208974
O O16 0.000000 0.500000 0.259402
O O17 0.250000 0.157203 0.657495
O O18 0.000000 0.000000 0.664072
#
# Coordination Sequence:
#
# PCOD9364004 Si02
#       6
#     8   8   8   8   8   8
#     4  11  22  40  63  87 113 146 188 230 275 329
#     4  11  21  35  56  84 116 151 190 233 281 331
#     4  11  22  39  60  85 115 148 187 231 280 332
#     4  12  25  41  59  83 115 149 185 230 284 337
#     4  10  20  36  59  86 114 148 190 233 277 329
#     4   9  17  31  53  81 112 146 187 233 278 326
#
# _framework density 18.466562
#
# number of rings (size 3 to 8) (size 9 to 14) (size 15 to 20)
#    0.000    1.333    0.000    9.500    0.000    2.667 
#    0.000    4.167    0.000    4.000    0.000    0.000 
#    0.000    0.000    0.000    0.000    0.000    0.000 
#
# Total GULP energy -134105.747307 kJ/mol
# GULP energy per Si atom -5587.739471 kJ/mol
# Density = 1.842453 g / cm^3
# Si number density = 18.466562 Si / 1000 Ang^3
#
#
#
# Elastic Constant Matrix: (Units=GPa)
#
#
# Indices 1 2 3 4 5 6 
#
# 1 198.3148 51.9295 101.3385 0.0000 0.0000 0.0000
# 2 51.9295 71.4810 91.1526 0.0000 0.0000 0.0000
# 3 101.3385 91.1526 211.1384 0.0000 0.0000 0.0000
# 4 0.0000 0.0000 0.0000 32.1236 0.0000 0.0000
# 5 0.0000 0.0000 0.0000 0.0000 37.1065 0.0000
# 6 0.0000 0.0000 0.0000 0.0000 0.0000 29.4130
#
#
#
# Elastic Compliance Matrix: (Units=1/GPa)
#
#
# Indices 1 2 3 4 5 6 
#
# 1 0.006775 -0.001725 -0.002507 0.000000 0.000000 0.000000
# 2 -0.001725 0.031564 -0.012799 0.000000 0.000000 0.000000
# 3 -0.002507 -0.012799 0.011465 0.000000 0.000000 0.000000
# 4 0.000000 0.000000 0.000000 0.031130 0.000000 0.000000
# 5 0.000000 0.000000 0.000000 0.000000 0.026949 0.000000
# 6 0.000000 0.000000 0.000000 0.000000 0.000000 0.033999
#
#
# Mechanical properties :
#
#
# Convention : Reuss Voigt Hill
#
# Bulk Modulus (GPa) = 63.52270 107.75284 85.63777
# Shear Modulus (GPa) = 27.59503 35.49620 31.54561
#
# Velocity S-wave (km/s) = 3.86984 4.38903 4.13759
# Velocity P-wave (km/s) = 7.37842 9.17397 8.32474
#
# Compressibility (1/GPa) = 0.01574240
#
# Stress axis : x y z
#
# Youngs Moduli (GPa) = 147.59366 31.68155 87.22078
#
# Poissons Ratio (x) = 0.05465 0.21868
# Poissons Ratio (y) = 0.25459 1.11633
# Poissons Ratio (z) = 0.37005 0.40549
#
# Static dielectric constant tensor:
#      x y z
#    x 1.613130 0.000000 0.000000 
#    y 0.000000 1.604830 0.000000 
#    z 0.000000 0.000000 1.659910 
# 
# From -- ./inp_files/26124.got.cif
#   From: 2010.05.17/outbox.cif.g08.bks.cpg/sg40_14_cif.got.tgz:26124.got - 2010.06.03 18:35:42.
