data_PCOD9364231
_publ_section_title
;
Structure prediction by ZEFSAII (Michael W. Deem and Ramdas Pophale) SiO2 
 PCOD9364231
Probable space group: A M A 2
;
_chemical_formula_sum "Si O2"
_cell_formula_units_Z 48
_cell_length_a 19.201315
_cell_length_b 9.718442
_cell_length_c 11.458199
_cell_angle_alpha 90.000000
_cell_angle_beta 90.000000
_cell_angle_gamma 90.000000
_cell_volume 2138.178607
_symmetry_space_group_name_H-M "A M A 2"
_symmetry_group_IT_number 40
_symmetry_cell_setting 'orthorhombic'
loop_
_space_group_symop_operation_xyz
x,y,z
-x,-y,z
1/2-x,y,z
1/2+x,-y,z
x,1/2+y,1/2+z
-x,1/2-y,1/2+z
1/2-x,1/2+y,1/2+z
1/2+x,1/2-y,1/2+z
loop_
_atom_site_type_symbol
_atom_site_label
_atom_site_fract_x
_atom_site_fract_y
_atom_site_fract_z
Si Si1 0.831782 0.818956 0.412780
Si Si2 0.420377 0.013708 0.093636
Si Si3 0.898133 0.889435 0.645597
Si Si4 0.333583 0.486448 0.364952
Si Si5 0.574720 0.573232 0.838036
Si Si6 0.942842 0.186122 0.580356
O O1 0.750000 0.834089 0.397690
O O2 0.850915 0.813010 0.550362
O O3 0.852557 0.676186 0.349730
O O4 0.869964 0.956669 0.371902
O O5 0.411641 0.906438 0.200302
O O6 0.419308 0.171564 0.136023
O O7 0.500000 0.000000 0.045990
O O8 0.363252 0.007955 0.994346
O O9 0.977887 0.843887 0.620797
O O10 0.868546 0.904711 0.776061
O O11 0.899236 0.052436 0.613228
O O12 0.250000 0.499207 0.358364
O O13 0.500000 0.500000 0.840965
O O14 0.565884 0.687874 0.938515
#
# Coordination Sequence:
#
# PCOD9364231 Si02
#       6
#     8   8   8   8   8   8
#     4  10  20  38  64  89 123 172 219 267 331 401
#     4  11  25  37  61  94 126 169 214 271 336 394
#     4  10  20  40  64  91 124 167 218 275 327 392
#     4  11  25  41  60  95 135 173 219 269 339 420
#     4  10  20  40  60  89 124 158 215 275 320 390
#     4  10  20  39  64  91 122 158 219 276 329 387
#
# _framework density 22.449012
#
# number of rings (size 3 to 8) (size 9 to 14) (size 15 to 20)
#    0.000    1.667    3.333    2.500    2.333    4.667 
#    0.000    4.167    0.000    0.000    0.000    0.000 
#    0.000    0.000    0.000    0.000    0.000    0.000 
#
# Total GULP energy -133859.421328 kJ/mol
# GULP energy per Si atom -5577.475889 kJ/mol
# Density = 2.239792 g / cm^3
# Si number density = 22.449012 Si / 1000 Ang^3
#
#
#
# Elastic Constant Matrix: (Units=GPa)
#
#
# Indices 1 2 3 4 5 6 
#
# 1 49.3888 23.4899 40.3954 0.0000 0.0000 0.0000
# 2 23.4899 70.6319 30.8908 0.0000 0.0000 0.0000
# 3 40.3954 30.8908 135.2542 0.0000 0.0000 0.0000
# 4 0.0000 0.0000 0.0000 52.0786 0.0000 0.0000
# 5 0.0000 0.0000 0.0000 0.0000 54.3041 0.0000
# 6 0.0000 0.0000 0.0000 0.0000 0.0000 29.4990
#
#
#
# Elastic Compliance Matrix: (Units=1/GPa)
#
#
# Indices 1 2 3 4 5 6 
#
# 1 0.029305 -0.006575 -0.007251 0.000000 0.000000 0.000000
# 2 -0.006575 0.017204 -0.001966 0.000000 0.000000 0.000000
# 3 -0.007251 -0.001966 0.010008 0.000000 0.000000 0.000000
# 4 0.000000 0.000000 0.000000 0.019202 0.000000 0.000000
# 5 0.000000 0.000000 0.000000 0.000000 0.018415 0.000000
# 6 0.000000 0.000000 0.000000 0.000000 0.000000 0.033899
#
#
# Mechanical properties :
#
#
# Convention : Reuss Voigt Hill
#
# Bulk Modulus (GPa) = 40.10456 49.42521 44.76488
# Shear Modulus (GPa) = 29.77490 37.87627 33.82558
#
# Velocity S-wave (km/s) = 3.64584 4.11203 3.88593
# Velocity P-wave (km/s) = 5.96878 6.67903 6.33387
#
# Compressibility (1/GPa) = 0.02493482
#
# Stress axis : x y z
#
# Youngs Moduli (GPa) = 34.12398 58.12554 99.92088
#
# Poissons Ratio (x) = 0.38216 0.72449
# Poissons Ratio (y) = 0.22436 0.19641
# Poissons Ratio (z) = 0.24742 0.11425
#
# Static dielectric constant tensor:
#      x y z
#    x 1.764330 0.000000 0.000000 
#    y 0.000000 1.902650 0.000000 
#    z 0.000000 0.000000 1.975670 
# 
# From -- ./inp_files/12909.got.cif
#   From: 2010.05.17/outbox.cif.g08.bks.cpg/sg40_7_cif.got.tgz:12909.got - 2010.06.03 18:35:42.
