data_PCOD9364359
_publ_section_title
;
Structure prediction by ZEFSAII (Michael W. Deem and Ramdas Pophale) SiO2 
 PCOD9364359
Probable space group: A M A 2
;
_chemical_formula_sum "Si O2"
_cell_formula_units_Z 48
_cell_length_a 14.032542
_cell_length_b 28.579936
_cell_length_c 5.271437
_cell_angle_alpha 90.000000
_cell_angle_beta 90.000000
_cell_angle_gamma 90.000000
_cell_volume 2114.105340
_symmetry_space_group_name_H-M "A M A 2"
_symmetry_group_IT_number 40
_symmetry_cell_setting 'orthorhombic'
loop_
_space_group_symop_operation_xyz
x,y,z
-x,-y,z
1/2-x,y,z
1/2+x,-y,z
x,1/2+y,1/2+z
-x,1/2-y,1/2+z
1/2-x,1/2+y,1/2+z
1/2+x,1/2-y,1/2+z
loop_
_atom_site_type_symbol
_atom_site_label
_atom_site_fract_x
_atom_site_fract_y
_atom_site_fract_z
Si Si1 0.437322 0.242253 0.727880
Si Si2 0.849385 0.671892 0.478270
Si Si3 0.962764 0.856193 0.685590
Si Si4 0.750000 0.492745 0.628148
Si Si5 0.916026 0.595704 0.833775
Si Si6 0.250000 0.447019 0.130183
Si Si7 0.952907 0.454928 0.468584
O O1 0.516998 0.247490 0.502866
O O2 0.363859 0.282665 0.652275
O O3 0.396645 0.189156 0.709231
O O4 0.750000 0.675255 0.334256
O O5 0.941021 0.664767 0.307143
O O6 0.850979 0.626037 0.651510
O O7 0.995851 0.870371 0.405965
O O8 0.942946 0.906318 0.813736
O O9 0.750000 0.512573 0.913196
O O10 0.848127 0.465510 0.575298
O O11 0.750000 0.533232 0.412467
O O12 0.848269 0.580014 0.064213
O O13 0.967871 0.554105 0.686420
O O14 0.000000 0.500000 0.325450
#
# Coordination Sequence:
#
# PCOD9364359 Si02
#       7
#     8   8   8   4   8   4   8
#     4  10  20  41  63  91 129 173 212 265 337 398
#     4  10  21  37  62  98 135 168 221 281 339 398
#     4  10  23  39  66  92 135 183 223 277 336 413
#     4  12  28  48  66  99 136 185 224 290 340 408
#     4  11  22  38  68  99 133 178 225 281 340 404
#     4  12  26  42  70  99 136 171 234 290 344 398
#     4  11  24  44  67  96 136 183 230 280 343 407
#
# _framework density 22.704639
#
# number of rings (size 3 to 8) (size 9 to 14) (size 15 to 20)
#    0.000    1.333    4.167    1.000    5.833    0.667 
#    1.500    0.000    0.000    0.000    0.000    0.000 
#    0.000    0.000    0.000    0.000    0.000    0.000 
#
# Total GULP energy -133954.592764 kJ/mol
# GULP energy per Si atom -5581.441365 kJ/mol
# Density = 2.265296 g / cm^3
# Si number density = 22.704639 Si / 1000 Ang^3
#
#
#
# Elastic Constant Matrix: (Units=GPa)
#
#
# Indices 1 2 3 4 5 6 
#
# 1 87.5674 41.1699 -3.7380 0.0000 0.0000 0.0000
# 2 41.1699 157.9098 22.1310 0.0000 0.0000 0.0000
# 3 -3.7380 22.1310 53.3138 0.0000 0.0000 0.0000
# 4 0.0000 0.0000 0.0000 37.3655 0.0000 0.0000
# 5 0.0000 0.0000 0.0000 0.0000 11.0842 0.0000
# 6 0.0000 0.0000 0.0000 0.0000 0.0000 4.1510
#
#
#
# Elastic Compliance Matrix: (Units=1/GPa)
#
#
# Indices 1 2 3 4 5 6 
#
# 1 0.013327 -0.003828 0.002524 0.000000 0.000000 0.000000
# 2 -0.003828 0.007824 -0.003516 0.000000 0.000000 0.000000
# 3 0.002524 -0.003516 0.020393 0.000000 0.000000 0.000000
# 4 0.000000 0.000000 0.000000 0.026763 0.000000 0.000000
# 5 0.000000 0.000000 0.000000 0.000000 0.090218 0.000000
# 6 0.000000 0.000000 0.000000 0.000000 0.000000 0.240909
#
#
# Mechanical properties :
#
#
# Convention : Reuss Voigt Hill
#
# Bulk Modulus (GPa) = 31.34527 46.43520 38.89024
# Shear Modulus (GPa) = 11.91299 26.46868 19.19084
#
# Velocity S-wave (km/s) = 2.29311 3.41806 2.91045
# Velocity P-wave (km/s) = 4.56582 6.00614 5.33482
#
# Compressibility (1/GPa) = 0.03190274
#
# Stress axis : x y z
#
# Youngs Moduli (GPa) = 75.03324 127.81789 49.03562
#
# Poissons Ratio (x) = 0.48934 -0.12375
# Poissons Ratio (y) = 0.28726 0.17241
# Poissons Ratio (z) = -0.18936 0.44942
#
# Static dielectric constant tensor:
#      x y z
#    x 1.886360 0.000000 0.000000 
#    y 0.000000 1.981010 0.000000 
#    z 0.000000 0.000000 1.868780 
# 
# From -- ./inp_files/1360.got.cif
#   From: 2010.05.17/outbox.cif.g08.bks.cpg/sg40_1_cif.got.tgz:1360.got - 2010.06.03 18:35:42.
