data_PCOD9364704
_publ_section_title
;
Structure prediction by ZEFSAII (Michael W. Deem and Ramdas Pophale) SiO2 
 PCOD9364704
Probable space group: A M A 2
;
_chemical_formula_sum "Si O2"
_cell_formula_units_Z 64
_cell_length_a 34.295088
_cell_length_b 16.763789
_cell_length_c 5.434731
_cell_angle_alpha 90.000000
_cell_angle_beta 90.000000
_cell_angle_gamma 90.000000
_cell_volume 3124.511737
_symmetry_space_group_name_H-M "A M A 2"
_symmetry_group_IT_number 40
_symmetry_cell_setting 'orthorhombic'
loop_
_space_group_symop_operation_xyz
x,y,z
-x,-y,z
1/2-x,y,z
1/2+x,-y,z
x,1/2+y,1/2+z
-x,1/2-y,1/2+z
1/2-x,1/2+y,1/2+z
1/2+x,1/2-y,1/2+z
loop_
_atom_site_type_symbol
_atom_site_label
_atom_site_fract_x
_atom_site_fract_y
_atom_site_fract_z
Si Si1 0.036068 0.549688 0.237500
Si Si2 0.519365 0.782160 0.955364
Si Si3 0.838117 0.769447 0.631948
Si Si4 0.595725 0.027228 0.085653
Si Si5 0.406080 0.321462 0.879858
Si Si6 0.852262 0.583694 0.199107
Si Si7 0.114531 0.578187 0.970406
Si Si8 0.703693 0.214324 0.629621
O O1 0.020427 0.623431 0.399955
O O2 0.061526 0.486737 0.392812
O O3 0.070105 0.585725 0.066212
O O4 0.000000 0.500000 0.124993
O O5 0.497429 0.741064 0.722364
O O6 0.561908 0.742915 0.941375
O O7 0.875656 0.714721 0.686783
O O8 0.857486 0.853938 0.567199
O O9 0.813475 0.745549 0.390499
O O10 0.813573 0.759053 0.886646
O O11 0.607121 0.939494 0.184405
O O12 0.579559 0.093732 0.272696
O O13 0.636038 0.060322 0.973371
O O14 0.381896 0.346241 0.119516
O O15 0.864926 0.504830 0.052296
O O16 0.811130 0.621893 0.131103
O O17 0.750000 0.220202 0.626632
#
# Coordination Sequence:
#
# PCOD9364704 Si02
#       8
#     8   8   8   8   8   8   8   8
#     4  11  25  41  59  92 133 174 222 286 336 388
#     4  12  29  42  62  91 131 174 222 281 340 385
#     4  11  23  42  71 100 135 170 225 266 328 403
#     4  10  21  39  66  90 126 173 225 271 331 390
#     4  10  21  41  64  93 125 176 223 275 315 402
#     4   9  21  39  66  95 125 167 220 264 322 404
#     4  10  23  40  67  96 129 180 224 274 334 394
#     4  11  24  44  71 101 136 171 212 272 336 399
#
# _framework density 20.483201000000001
#
# number of rings (size 3 to 8) (size 9 to 14) (size 15 to 20)
#    0.000    1.500    2.500    1.125   12.250    0.500 
#    0.000    1.250    0.000    0.000    0.000    0.000 
#    0.000    0.000    0.000    0.000    0.000    0.000 
#
# Total GULP energy -178334.872021 kJ/mol
# GULP energy per Si atom -5572.964751 kJ/mol
# Density = 2.043658 g / cm^3
# Si number density = 20.483201 Si / 1000 Ang^3
#
#
#
# Elastic Constant Matrix: (Units=GPa)
#
#
# Indices 1 2 3 4 5 6 
#
# 1 108.0395 33.7705 26.2492 0.0000 0.0000 0.0000
# 2 33.7705 73.0340 8.6315 0.0000 0.0000 0.0000
# 3 26.2492 8.6315 73.5543 0.0000 0.0000 0.0000
# 4 0.0000 0.0000 0.0000 24.9183 0.0000 0.0000
# 5 0.0000 0.0000 0.0000 0.0000 20.7375 0.0000
# 6 0.0000 0.0000 0.0000 0.0000 0.0000 26.0706
#
#
#
# Elastic Compliance Matrix: (Units=1/GPa)
#
#
# Indices 1 2 3 4 5 6 
#
# 1 0.011683 -0.004978 -0.003585 0.000000 0.000000 0.000000
# 2 -0.004978 0.016006 -0.000102 0.000000 0.000000 0.000000
# 3 -0.003585 -0.000102 0.014887 0.000000 0.000000 0.000000
# 4 0.000000 0.000000 0.000000 0.040131 0.000000 0.000000
# 5 0.000000 0.000000 0.000000 0.000000 0.048222 0.000000
# 6 0.000000 0.000000 0.000000 0.000000 0.000000 0.038357
#
#
# Mechanical properties :
#
#
# Convention : Reuss Voigt Hill
#
# Bulk Modulus (GPa) = 39.61082 43.54779 41.57930
# Shear Modulus (GPa) = 25.63683 26.74374 26.19029
#
# Velocity S-wave (km/s) = 3.54164 3.61729 3.57966
# Velocity P-wave (km/s) = 6.00870 6.22517 6.11789
#
# Compressibility (1/GPa) = 0.02524563
#
# Stress axis : x y z
#
# Youngs Moduli (GPa) = 85.59410 62.47546 67.17394
#
# Poissons Ratio (x) = 0.31103 0.24082
# Poissons Ratio (y) = 0.42613 0.00683
# Poissons Ratio (z) = 0.30686 0.00635
#
# Static dielectric constant tensor:
#      x y z
#    x 1.725170 0.000000 0.000000 
#    y 0.000000 1.771040 0.000000 
#    z 0.000000 0.000000 1.855930 
# 
# From -- ./inp_files/3481.got.cif
#   From: 2010.05.17/outbox.cif.g08.bks.cpg/sg40_2_cif.got.tgz:3481.got - 2010.06.03 18:35:42.
