data_PCOD9364559
_publ_section_title
;
Structure prediction by ZEFSAII (Michael W. Deem and Ramdas Pophale) SiO2 
 PCOD9364559
Probable space group: A M A 2
;
_chemical_formula_sum "Si O2"
_cell_formula_units_Z 40
_cell_length_a 13.444536
_cell_length_b 10.555638
_cell_length_c 11.351866
_cell_angle_alpha 90.000000
_cell_angle_beta 90.000000
_cell_angle_gamma 90.000000
_cell_volume 1611.007500
_symmetry_space_group_name_H-M "A M A 2"
_symmetry_group_IT_number 40
_symmetry_cell_setting 'orthorhombic'
loop_
_space_group_symop_operation_xyz
x,y,z
-x,-y,z
1/2-x,y,z
1/2+x,-y,z
x,1/2+y,1/2+z
-x,1/2-y,1/2+z
1/2-x,1/2+y,1/2+z
1/2+x,1/2-y,1/2+z
loop_
_atom_site_type_symbol
_atom_site_label
_atom_site_fract_x
_atom_site_fract_y
_atom_site_fract_z
Si Si1 0.042765 0.128644 0.050210
Si Si2 0.132210 0.956443 0.664289
Si Si3 0.066636 0.354258 0.913534
Si Si4 0.863515 0.251085 0.184270
Si Si5 0.365370 0.690831 0.786306
O O1 0.113733 0.118450 0.163239
O O2 0.945618 0.205870 0.092264
O O3 0.094516 0.212084 0.953987
O O4 0.000000 0.000000 0.003982
O O5 0.250000 0.948732 0.651454
O O6 0.091718 0.929674 0.532306
O O7 0.109707 0.838012 0.751755
O O8 0.110288 0.099553 0.705944
O O9 0.125179 0.351774 0.790268
O O10 0.950711 0.360275 0.873559
O O11 0.750000 0.248452 0.142111
O O12 0.250000 0.679921 0.823018
#
# Coordination Sequence:
#
# PCOD9364559 Si02
#       5
#     8   8   8   8   8
#     4  10  23  40  60  91 129 169 209 266 324 397
#     4   9  19  39  66  98 132 166 219 283 330 393
#     4  10  21  37  67  94 126 168 219 269 331 393
#     4  10  22  42  67  96 130 171 219 272 335 401
#     4   9  20  39  61  91 127 169 215 267 328 390
#
# _framework density 24.829180999999998
#
# number of rings (size 3 to 8) (size 9 to 14) (size 15 to 20)
#    0.000    2.400    0.000    0.600    2.800    8.800 
#   14.400    0.000    0.000    4.800    0.000    0.000 
#    0.000    0.000    0.000    0.000    0.000    0.000 
#
# Total GULP energy -111671.126061 kJ/mol
# GULP energy per Si atom -5583.556303 kJ/mol
# Density = 2.477267 g / cm^3
# Si number density = 24.829181 Si / 1000 Ang^3
#
#
#
# Elastic Constant Matrix: (Units=GPa)
#
#
# Indices 1 2 3 4 5 6 
#
# 1 129.6616 8.4778 13.0773 0.0000 0.0000 0.0000
# 2 8.4778 55.0524 -15.9298 0.0000 0.0000 0.0000
# 3 13.0773 -15.9298 67.2936 0.0000 0.0000 0.0000
# 4 0.0000 0.0000 0.0000 39.4416 0.0000 0.0000
# 5 0.0000 0.0000 0.0000 0.0000 0.8819 0.0000
# 6 0.0000 0.0000 0.0000 0.0000 0.0000 29.2105
#
#
#
# Elastic Compliance Matrix: (Units=1/GPa)
#
#
# Indices 1 2 3 4 5 6 
#
# 1 0.008032 -0.001813 -0.001990 0.000000 0.000000 0.000000
# 2 -0.001813 0.019909 0.005065 0.000000 0.000000 0.000000
# 3 -0.001990 0.005065 0.016446 0.000000 0.000000 0.000000
# 4 0.000000 0.000000 0.000000 0.025354 0.000000 0.000000
# 5 0.000000 0.000000 0.000000 0.000000 1.133941 0.000000
# 6 0.000000 0.000000 0.000000 0.000000 0.000000 0.034234
#
#
# Mechanical properties :
#
#
# Convention : Reuss Voigt Hill
#
# Bulk Modulus (GPa) = 21.31639 29.25090 25.28364
# Shear Modulus (GPa) = 3.99671 30.33230 17.16450
#
# Velocity S-wave (km/s) = 1.27011 3.49899 2.63212
# Velocity P-wave (km/s) = 3.27944 5.30380 4.40937
#
# Compressibility (1/GPa) = 0.04691227
#
# Stress axis : x y z
#
# Youngs Moduli (GPa) = 124.50835 50.22782 60.80514
#
# Poissons Ratio (x) = 0.09104 0.12099
# Poissons Ratio (y) = 0.22568 -0.30799
# Poissons Ratio (z) = 0.24776 -0.25441
#
# Static dielectric constant tensor:
#      x y z
#    x 1.924250 0.000000 0.000000 
#    y 0.000000 2.153890 0.000000 
#    z 0.000000 0.000000 1.945050 
# 
# From -- ./inp_files/11933.got.cif
#   From: 2010.05.17/outbox.cif.g08.bks.cpg/sg40_6_cif.got.tgz:11933.got - 2010.06.03 18:35:42.
