data_PCOD9364222
_publ_section_title
;
Structure prediction by ZEFSAII (Michael W. Deem and Ramdas Pophale) SiO2 
 PCOD9364222
Probable space group: A M A 2
;
_chemical_formula_sum "Si O2"
_cell_formula_units_Z 64
_cell_length_a 13.874268
_cell_length_b 11.763372
_cell_length_c 19.676021
_cell_angle_alpha 90.000000
_cell_angle_beta 90.000000
_cell_angle_gamma 90.000000
_cell_volume 3211.287493
_symmetry_space_group_name_H-M "A M A 2"
_symmetry_group_IT_number 40
_symmetry_cell_setting 'orthorhombic'
loop_
_space_group_symop_operation_xyz
x,y,z
-x,-y,z
1/2-x,y,z
1/2+x,-y,z
x,1/2+y,1/2+z
-x,1/2-y,1/2+z
1/2-x,1/2+y,1/2+z
1/2+x,1/2-y,1/2+z
loop_
_atom_site_type_symbol
_atom_site_label
_atom_site_fract_x
_atom_site_fract_y
_atom_site_fract_z
Si Si1 0.140914 0.759004 0.637130
Si Si2 0.494197 0.636301 0.240406
Si Si3 0.365608 0.758505 0.135682
Si Si4 0.363189 0.043996 0.945413
Si Si5 0.957386 0.669187 0.390955
Si Si6 0.364793 0.007417 0.101377
Si Si7 0.144141 0.401969 0.997460
Si Si8 0.925422 0.346700 0.992951
O O1 0.250000 0.746897 0.661467
O O2 0.101124 0.632143 0.623409
O O3 0.144116 0.834070 0.568751
O O4 0.079597 0.824066 0.691864
O O5 0.500000 0.500000 0.246403
O O6 0.401626 0.684613 0.199639
O O7 0.510486 0.690878 0.314219
O O8 0.250000 0.749402 0.127597
O O9 0.391245 0.892755 0.140716
O O10 0.415517 0.713594 0.066291
O O11 0.250000 0.075961 0.941734
O O12 0.442450 0.140138 0.930742
O O13 0.391894 0.944295 0.893698
O O14 0.383891 0.996415 0.020936
O O15 0.897238 0.762887 0.432065
O O16 0.250000 0.014157 0.106610
O O17 0.250000 0.374458 0.965700
O O18 0.135517 0.538479 0.001473
O O19 0.036413 0.373658 0.972168
#
# Coordination Sequence:
#
# PCOD9364222 Si02
#       8
#     8   8   8   8   8   8   8   8
#     4  10  21  39  63  90 124 163 208 263 322 385
#     4  12  25  42  57  90 131 171 216 257 324 396
#     4  11  23  39  64  95 127 166 218 274 320 376
#     4  10  20  38  63  91 125 159 204 268 327 380
#     4  11  24  40  60  91 128 164 215 263 319 390
#     4   9  19  37  65  98 119 150 211 272 329 377
#     4  10  21  38  62  94 126 159 205 258 310 374
#     4  11  21  39  65  92 125 165 210 261 315 372
#
# _framework density 19.9297
#
# number of rings (size 3 to 8) (size 9 to 14) (size 15 to 20)
#    0.000    1.500    3.750    1.875    0.000    5.000 
#    0.000    2.500    0.000    1.500    0.000    0.000 
#    0.000    0.000    0.000    0.000    0.000    0.000 
#
# Total GULP energy -178333.179479 kJ/mol
# GULP energy per Si atom -5572.911859 kJ/mol
# Density = 1.988434 g / cm^3
# Si number density = 19.929700 Si / 1000 Ang^3
#
#
#
# Elastic Constant Matrix: (Units=GPa)
#
#
# Indices 1 2 3 4 5 6 
#
# 1 100.3291 3.4386 -16.5813 0.0000 0.0000 0.0000
# 2 3.4386 109.6955 23.1301 0.0000 0.0000 0.0000
# 3 -16.5813 23.1301 52.2429 0.0000 0.0000 0.0000
# 4 0.0000 0.0000 0.0000 17.5886 0.0000 0.0000
# 5 0.0000 0.0000 0.0000 0.0000 12.8770 0.0000
# 6 0.0000 0.0000 0.0000 0.0000 0.0000 18.5124
#
#
#
# Elastic Compliance Matrix: (Units=1/GPa)
#
#
# Indices 1 2 3 4 5 6 
#
# 1 0.010650 -0.001154 0.003891 0.000000 0.000000 0.000000
# 2 -0.001154 0.010180 -0.004873 0.000000 0.000000 0.000000
# 3 0.003891 -0.004873 0.022534 0.000000 0.000000 0.000000
# 4 0.000000 0.000000 0.000000 0.056855 0.000000 0.000000
# 5 0.000000 0.000000 0.000000 0.000000 0.077658 0.000000
# 6 0.000000 0.000000 0.000000 0.000000 0.000000 0.054018
#
#
# Mechanical properties :
#
#
# Convention : Reuss Voigt Hill
#
# Bulk Modulus (GPa) = 25.58153 31.36028 28.47091
# Shear Modulus (GPa) = 20.06436 26.61426 23.33931
#
# Velocity S-wave (km/s) = 3.17639 3.65829 3.42582
# Velocity P-wave (km/s) = 5.12994 5.79773 5.47403
#
# Compressibility (1/GPa) = 0.03909070
#
# Stress axis : x y z
#
# Youngs Moduli (GPa) = 93.89796 98.23249 44.37725
#
# Poissons Ratio (x) = 0.11339 -0.17268
# Poissons Ratio (y) = 0.10839 0.21627
# Poissons Ratio (z) = -0.36538 0.47873
#
# Static dielectric constant tensor:
#      x y z
#    x 1.766880 0.000000 0.000000 
#    y 0.000000 1.757780 0.000000 
#    z 0.000000 0.000000 1.661730 
# 
# From -- ./inp_files/20806.got.cif
#   From: 2010.05.17/outbox.cif.g08.bks.cpg/sg40_11_cif.got.tgz:20806.got - 2010.06.03 18:35:42.
