data_PCOD9364456
_publ_section_title
;
Structure prediction by ZEFSAII (Michael W. Deem and Ramdas Pophale) SiO2 
 PCOD9364456
Probable space group: A M A 2
;
_chemical_formula_sum "Si O2"
_cell_formula_units_Z 64
_cell_length_a 8.963173
_cell_length_b 14.721392
_cell_length_c 24.498872
_cell_angle_alpha 90.000000
_cell_angle_beta 90.000000
_cell_angle_gamma 90.000000
_cell_volume 3232.635551
_symmetry_space_group_name_H-M "A M A 2"
_symmetry_group_IT_number 40
_symmetry_cell_setting 'orthorhombic'
loop_
_space_group_symop_operation_xyz
x,y,z
-x,-y,z
1/2-x,y,z
1/2+x,-y,z
x,1/2+y,1/2+z
-x,1/2-y,1/2+z
1/2-x,1/2+y,1/2+z
1/2+x,1/2-y,1/2+z
loop_
_atom_site_type_symbol
_atom_site_label
_atom_site_fract_x
_atom_site_fract_y
_atom_site_fract_z
Si Si1 0.083178 0.193356 0.678080
Si Si2 0.572466 0.099087 0.777950
Si Si3 0.916023 0.404004 0.786146
Si Si4 0.574637 0.766686 0.468062
Si Si5 0.927312 0.755662 0.852177
Si Si6 0.570590 0.901019 0.564154
Si Si7 0.928774 0.594583 0.546243
Si Si8 0.014003 0.609947 0.664343
O O1 0.250000 0.158665 0.690371
O O2 0.034778 0.154450 0.619344
O O3 0.974435 0.156818 0.724563
O O4 0.090835 0.302479 0.674849
O O5 0.750000 0.093293 0.782122
O O6 0.504614 0.153690 0.829017
O O7 0.500000 0.000000 0.773606
O O8 0.750000 0.408542 0.810130
O O9 0.900016 0.382602 0.721718
O O10 0.000000 0.500000 0.791359
O O11 0.011418 0.326600 0.815167
O O12 0.750000 0.780906 0.454244
O O13 0.478140 0.762722 0.413796
O O14 0.526099 0.844702 0.510514
O O15 0.564884 0.672441 0.501286
O O16 0.750000 0.762663 0.847151
O O17 0.750000 0.907994 0.562867
O O18 0.500000 0.000000 0.565901
O O19 0.750000 0.584711 0.562178
O O20 0.000000 0.500000 0.526729
O O21 0.029512 0.622375 0.598893
O O22 0.000000 0.500000 0.663748
#
# Coordination Sequence:
#
# PCOD9364456 Si02
#       8
#     8   8   8   8   8   8   8   8
#     4  11  21  39  67  97 133 173 214 261 321 386
#     4  12  26  45  68  97 130 169 217 266 324 385
#     4  11  24  42  65  96 131 169 212 259 320 384
#     4  10  22  43  65  87 122 168 215 262 316 379
#     4  12  26  44  67  94 126 167 216 270 325 379
#     4  10  22  40  65  93 126 169 213 263 320 380
#     4  10  21  38  62  92 126 167 206 252 313 379
#     4  10  21  35  64  98 134 170 213 249 317 382
#
# _framework density 19.798088
#
# number of rings (size 3 to 8) (size 9 to 14) (size 15 to 20)
#    0.000    1.250    2.500    3.375    0.000   10.500 
#    0.000    2.500    0.000    0.000    0.000    0.000 
#    0.000    0.000    0.000    0.000    0.000    0.000 
#
# Total GULP energy -178271.811999 kJ/mol
# GULP energy per Si atom -5570.994125 kJ/mol
# Density = 1.975303 g / cm^3
# Si number density = 19.798088 Si / 1000 Ang^3
#
#
#
# Elastic Constant Matrix: (Units=GPa)
#
#
# Indices 1 2 3 4 5 6 
#
# 1 114.5101 53.0355 51.6447 0.0000 0.0000 0.0000
# 2 53.0355 126.8447 38.6993 0.0000 0.0000 0.0000
# 3 51.6447 38.6993 110.4305 0.0000 0.0000 0.0000
# 4 0.0000 0.0000 0.0000 9.3537 0.0000 0.0000
# 5 0.0000 0.0000 0.0000 0.0000 336.2154 0.0000
# 6 0.0000 0.0000 0.0000 0.0000 0.0000 69.7032
#
#
#
# Elastic Compliance Matrix: (Units=1/GPa)
#
#
# Indices 1 2 3 4 5 6 
#
# 1 0.012566 -0.003875 -0.004518 0.000000 0.000000 0.000000
# 2 -0.003875 0.010023 -0.001700 0.000000 0.000000 0.000000
# 3 -0.004518 -0.001700 0.011764 0.000000 0.000000 0.000000
# 4 0.000000 0.000000 0.000000 0.106909 0.000000 0.000000
# 5 0.000000 0.000000 0.000000 0.000000 0.002974 0.000000
# 6 0.000000 0.000000 0.000000 0.000000 0.000000 0.014347
#
#
# Mechanical properties :
#
#
# Convention : Reuss Voigt Hill
#
# Bulk Modulus (GPa) = 70.59614 70.94938 70.77276
# Shear Modulus (GPa) = 27.24922 96.94817 62.09870
#
# Velocity S-wave (km/s) = 3.71395 7.00534 5.60661
# Velocity P-wave (km/s) = 7.35709 10.06714 8.81686
#
# Compressibility (1/GPa) = 0.01416508
#
# Stress axis : x y z
#
# Youngs Moduli (GPa) = 79.58278 99.77428 85.00267
#
# Poissons Ratio (x) = 0.38665 0.38408
# Poissons Ratio (y) = 0.30841 0.14450
# Poissons Ratio (z) = 0.35959 0.16962
#
# Static dielectric constant tensor:
#      x y z
#    x 1.736800 0.000000 0.000000 
#    y 0.000000 1.685230 0.000000 
#    z 0.000000 0.000000 1.685420 
# 
# From -- ./inp_files/24257.got.cif
#   From: 2010.05.17/outbox.cif.g08.bks.cpg/sg40_13_cif.got.tgz:24257.got - 2010.06.03 18:35:42.
