data_PCOD9364207
_publ_section_title
;
Structure prediction by ZEFSAII (Michael W. Deem and Ramdas Pophale) SiO2 
 PCOD9364207
Probable space group: A M A 2
;
_chemical_formula_sum "Si O2"
_cell_formula_units_Z 60
_cell_length_a 26.649751
_cell_length_b 13.141527
_cell_length_c 7.372787
_cell_angle_alpha 90.000000
_cell_angle_beta 90.000000
_cell_angle_gamma 90.000000
_cell_volume 2582.085831
_symmetry_space_group_name_H-M "A M A 2"
_symmetry_group_IT_number 40
_symmetry_cell_setting 'orthorhombic'
loop_
_space_group_symop_operation_xyz
x,y,z
-x,-y,z
1/2-x,y,z
1/2+x,-y,z
x,1/2+y,1/2+z
-x,1/2-y,1/2+z
1/2-x,1/2+y,1/2+z
1/2+x,1/2-y,1/2+z
loop_
_atom_site_type_symbol
_atom_site_label
_atom_site_fract_x
_atom_site_fract_y
_atom_site_fract_z
Si Si1 0.953238 0.831317 0.365970
Si Si2 0.403470 0.872953 0.737147
Si Si3 0.805776 0.842816 0.971371
Si Si4 0.865757 0.968656 0.267477
Si Si5 0.191564 0.498112 0.150571
Si Si6 0.000000 0.000000 0.859269
Si Si7 0.461009 0.190812 0.768181
Si Si8 0.626330 0.183154 0.348141
O O1 0.916350 0.731821 0.342960
O O2 0.921424 0.925847 0.296963
O O3 0.968497 0.856702 0.571309
O O4 0.003970 0.789482 0.277369
O O5 0.406327 0.848292 0.523011
O O6 0.347419 0.919614 0.747713
O O7 0.447045 0.953145 0.783652
O O8 0.750000 0.844953 0.046581
O O9 0.806933 0.906127 0.785360
O O10 0.822573 0.728488 0.926069
O O11 0.840851 0.897702 0.117574
O O12 0.834175 0.972364 0.457191
O O13 0.868344 0.087878 0.217094
O O14 0.250000 0.464903 0.127958
O O15 0.022926 0.109549 0.920009
O O16 0.403741 0.222190 0.771516
#
# Coordination Sequence:
#
# PCOD9364207 Si02
#       8
#     8   8   8   8   8   4   8   8
#     4  11  23  40  62  96 133 179 226 280 344 420
#     4  10  21  40  64  92 131 172 220 278 341 404
#     4  11  24  43  68  97 136 177 228 289 347 417
#     4  11  24  44  68  99 135 181 232 284 352 421
#     4  10  23  44  69  98 135 179 228 284 349 416
#     4  10  20  38  62  88 126 176 214 274 338 408
#     4  11  23  40  64  95 134 178 224 281 347 417
#     4  11  23  41  67  95 134 171 230 288 339 415
#
# _framework density 23.237027999999999
#
# number of rings (size 3 to 8) (size 9 to 14) (size 15 to 20)
#    0.000    1.333    1.333    5.200    1.867    3.200 
#    0.000    0.000    0.000    0.000    0.000    0.000 
#    0.000    0.000    0.000    0.000    0.000    0.000 
#
# Total GULP energy -167331.109735 kJ/mol
# GULP energy per Si atom -5577.703658 kJ/mol
# Density = 2.318414 g / cm^3
# Si number density = 23.237028 Si / 1000 Ang^3
#
#
#
# Elastic Constant Matrix: (Units=GPa)
#
#
# Indices 1 2 3 4 5 6 
#
# 1 106.0959 5.9299 5.0329 0.0000 0.0000 0.0000
# 2 5.9299 81.1327 1.0383 0.0000 0.0000 0.0000
# 3 5.0329 1.0383 43.1027 0.0000 0.0000 0.0000
# 4 0.0000 0.0000 0.0000 22.4506 0.0000 0.0000
# 5 0.0000 0.0000 0.0000 0.0000 32.9982 0.0000
# 6 0.0000 0.0000 0.0000 0.0000 0.0000 38.2330
#
#
#
# Elastic Compliance Matrix: (Units=1/GPa)
#
#
# Indices 1 2 3 4 5 6 
#
# 1 0.009515 -0.000681 -0.001095 0.000000 0.000000 0.000000
# 2 -0.000681 0.012378 -0.000219 0.000000 0.000000 0.000000
# 3 -0.001095 -0.000219 0.023333 0.000000 0.000000 0.000000
# 4 0.000000 0.000000 0.000000 0.044542 0.000000 0.000000
# 5 0.000000 0.000000 0.000000 0.000000 0.030305 0.000000
# 6 0.000000 0.000000 0.000000 0.000000 0.000000 0.026155
#
#
# Mechanical properties :
#
#
# Convention : Reuss Voigt Hill
#
# Bulk Modulus (GPa) = 24.24974 28.25928 26.25451
# Shear Modulus (GPa) = 30.49438 33.29171 31.89304
#
# Velocity S-wave (km/s) = 3.62652 3.78921 3.70876
# Velocity P-wave (km/s) = 5.29094 5.59749 5.44637
#
# Compressibility (1/GPa) = 0.04123756
#
# Stress axis : x y z
#
# Youngs Moduli (GPa) = 105.09219 80.78794 42.85687
#
# Poissons Ratio (x) = 0.05505 0.04691
# Poissons Ratio (y) = 0.07162 0.00937
# Poissons Ratio (z) = 0.11504 0.01766
#
# Static dielectric constant tensor:
#      x y z
#    x 1.935990 0.000000 0.000000 
#    y 0.000000 1.954900 0.000000 
#    z 0.000000 0.000000 1.905480 
# 
# From -- ./inp_files/9170.got.cif
#   From: 2010.05.17/outbox.cif.g08.bks.cpg/sg40_5_cif.got.tgz:9170.got - 2010.06.03 18:35:42.
