data_PCOD9364775
_publ_section_title
;
Structure prediction by ZEFSAII (Michael W. Deem and Ramdas Pophale) SiO2 
 PCOD9364775
Probable space group: A M A 2
;
_chemical_formula_sum "Si O2"
_cell_formula_units_Z 64
_cell_length_a 18.070881
_cell_length_b 12.759221
_cell_length_c 14.874508
_cell_angle_alpha 90.000000
_cell_angle_beta 90.000000
_cell_angle_gamma 90.000000
_cell_volume 3429.620729
_symmetry_space_group_name_H-M "A M A 2"
_symmetry_group_IT_number 40
_symmetry_cell_setting 'orthorhombic'
loop_
_space_group_symop_operation_xyz
x,y,z
-x,-y,z
1/2-x,y,z
1/2+x,-y,z
x,1/2+y,1/2+z
-x,1/2-y,1/2+z
1/2-x,1/2+y,1/2+z
1/2+x,1/2-y,1/2+z
loop_
_atom_site_type_symbol
_atom_site_label
_atom_site_fract_x
_atom_site_fract_y
_atom_site_fract_z
Si Si1 0.164654 0.131159 0.071420
Si Si2 0.837674 0.969900 0.599200
Si Si3 0.165534 0.341941 0.959886
Si Si4 0.930325 0.781882 0.515805
Si Si5 0.522723 0.121167 0.352401
Si Si6 0.161774 0.420642 0.459423
Si Si7 0.419443 0.450355 0.271195
Si Si8 0.461496 0.230438 0.181358
O O1 0.250000 0.132847 0.103118
O O2 0.106791 0.159491 0.148486
O O3 0.157379 0.225038 0.998766
O O4 0.149767 0.020995 0.023504
O O5 0.750000 0.952404 0.608571
O O6 0.877672 0.876505 0.546806
O O7 0.848165 0.076453 0.541438
O O8 0.876675 0.983928 0.695120
O O9 0.250000 0.356548 0.930011
O O10 0.106877 0.364832 0.883279
O O11 0.881532 0.679530 0.497233
O O12 0.973709 0.816509 0.426088
O O13 0.989439 0.760319 0.594807
O O14 0.508598 0.168222 0.254763
O O15 0.500000 0.000000 0.356097
O O16 0.250000 0.402066 0.453436
O O17 0.128002 0.444702 0.361593
O O18 0.500000 0.500000 0.288829
O O19 0.431919 0.335398 0.229054
#
# Coordination Sequence:
#
# PCOD9364775 Si02
#       8
#     8   8   8   8   8   8   8   8
#     4  10  23  43  67  94 130 176 220 265 327 397
#     4  11  22  40  68  98 130 172 219 276 332 384
#     4  10  21  40  68  96 127 170 218 267 325 387
#     4  12  24  44  68  96 139 172 220 275 328 398
#     4  12  25  44  66 100 131 172 222 273 324 389
#     4  11  27  46  66  96 136 179 222 276 336 396
#     4  12  24  41  66 102 132 169 224 279 332 396
#     4  12  26  42  67 100 131 175 220 269 330 393
#
# _framework density 18.660955999999999
#
# number of rings (size 3 to 8) (size 9 to 14) (size 15 to 20)
#    0.000    0.750    6.250    0.750    5.250    0.500 
#    0.000    1.875    0.000    0.000    0.000    0.000 
#    0.000    0.000    0.000    0.000    0.000    0.000 
#
# Total GULP energy -178965.300915 kJ/mol
# GULP energy per Si atom -5592.665654 kJ/mol
# Density = 1.861848 g / cm^3
# Si number density = 18.660956 Si / 1000 Ang^3
#
#
#
# Elastic Constant Matrix: (Units=GPa)
#
#
# Indices 1 2 3 4 5 6 
#
# 1 73.7079 22.3340 11.9090 0.0000 0.0000 0.0000
# 2 22.3340 93.2124 6.5635 0.0000 0.0000 0.0000
# 3 11.9090 6.5635 43.4543 0.0000 0.0000 0.0000
# 4 0.0000 0.0000 0.0000 25.6173 0.0000 0.0000
# 5 0.0000 0.0000 0.0000 0.0000 31.8885 0.0000
# 6 0.0000 0.0000 0.0000 0.0000 0.0000 29.0726
#
#
#
# Elastic Compliance Matrix: (Units=1/GPa)
#
#
# Indices 1 2 3 4 5 6 
#
# 1 0.015181 -0.003380 -0.003650 0.000000 0.000000 0.000000
# 2 -0.003380 0.011596 -0.000825 0.000000 0.000000 0.000000
# 3 -0.003650 -0.000825 0.024138 0.000000 0.000000 0.000000
# 4 0.000000 0.000000 0.000000 0.039036 0.000000 0.000000
# 5 0.000000 0.000000 0.000000 0.000000 0.031359 0.000000
# 6 0.000000 0.000000 0.000000 0.000000 0.000000 0.034397
#
#
# Mechanical properties :
#
#
# Convention : Reuss Voigt Hill
#
# Bulk Modulus (GPa) = 28.40585 32.44308 30.42447
# Shear Modulus (GPa) = 27.29966 28.62022 27.95994
#
# Velocity S-wave (km/s) = 3.82898 3.92049 3.87500
# Velocity P-wave (km/s) = 5.89942 6.15767 6.02993
#
# Compressibility (1/GPa) = 0.03520402
#
# Stress axis : x y z
#
# Youngs Moduli (GPa) = 65.87146 86.23479 41.42920
#
# Poissons Ratio (x) = 0.29151 0.15121
# Poissons Ratio (y) = 0.22267 0.03418
# Poissons Ratio (z) = 0.24042 0.07115
#
# Static dielectric constant tensor:
#      x y z
#    x 1.629360 0.000000 0.000000 
#    y 0.000000 1.630710 0.000000 
#    z 0.000000 0.000000 1.609640 
# 
# From -- ./inp_files/17855.got.cif
#   From: 2010.05.17/outbox.cif.g08.bks.cpg/sg40_9_cif.got.tgz:17855.got - 2010.06.03 18:35:42.
