data_PCOD9364214
_publ_section_title
;
Structure prediction by ZEFSAII (Michael W. Deem and Ramdas Pophale) SiO2 
 PCOD9364214
Probable space group: A M A 2
;
_chemical_formula_sum "Si O2"
_cell_formula_units_Z 64
_cell_length_a 17.661651
_cell_length_b 15.477954
_cell_length_c 12.401881
_cell_angle_alpha 90.000000
_cell_angle_beta 90.000000
_cell_angle_gamma 90.000000
_cell_volume 3390.255351
_symmetry_space_group_name_H-M "A M A 2"
_symmetry_group_IT_number 40
_symmetry_cell_setting 'orthorhombic'
loop_
_space_group_symop_operation_xyz
x,y,z
-x,-y,z
1/2-x,y,z
1/2+x,-y,z
x,1/2+y,1/2+z
-x,1/2-y,1/2+z
1/2-x,1/2+y,1/2+z
1/2+x,1/2-y,1/2+z
loop_
_atom_site_type_symbol
_atom_site_label
_atom_site_fract_x
_atom_site_fract_y
_atom_site_fract_z
Si Si1 0.379861 0.128160 0.476240
Si Si2 0.662900 0.464095 0.753055
Si Si3 0.087997 0.478754 0.129385
Si Si4 0.833925 0.187921 0.029178
Si Si5 0.158740 0.355021 0.297188
Si Si6 0.056999 0.821076 0.473632
Si Si7 0.573174 0.139909 0.234358
Si Si8 0.592744 0.806634 0.162305
O O1 0.355248 0.078443 0.369021
O O2 0.331395 0.212914 0.493218
O O3 0.466858 0.161117 0.467640
O O4 0.376084 0.063593 0.577199
O O5 0.750000 0.494011 0.750709
O O6 0.604022 0.542079 0.737362
O O7 0.650005 0.386835 0.667426
O O8 0.130103 0.437242 0.230396
O O9 0.000000 0.500000 0.153870
O O10 0.088553 0.404933 0.036714
O O11 0.750000 0.154434 0.052224
O O12 0.883384 0.182843 0.135329
O O13 0.864683 0.140347 0.922481
O O14 0.250000 0.347483 0.293151
O O15 0.122439 0.270370 0.240316
O O16 0.087322 0.819237 0.352082
O O17 0.076699 0.738754 0.547507
O O18 0.485081 0.153710 0.208401
#
# Coordination Sequence:
#
# PCOD9364214 Si02
#       8
#     8   8   8   8   8   8   8   8
#     4  11  19  38  64  93 122 157 209 261 308 369
#     4  12  24  39  62  93 126 166 212 260 316 376
#     4   9  20  36  63  92 126 156 203 267 307 361
#     4  11  23  40  61  89 128 168 204 249 312 382
#     4  10  21  40  64  92 126 164 207 254 312 377
#     4  10  20  38  62  95 122 157 207 263 316 359
#     4  12  23  41  64  91 128 163 210 261 314 375
#     4  11  22  38  64  91 122 165 208 260 312 371
#
# _framework density 18.877632999999999
#
# number of rings (size 3 to 8) (size 9 to 14) (size 15 to 20)
#    0.000    1.250    5.000    1.500    0.000    1.000 
#    0.000    4.375    0.000    0.000    0.000    0.000 
#    0.000    0.000    0.000    0.000    0.000    0.000 
#
# Total GULP energy -178641.293052 kJ/mol
# GULP energy per Si atom -5582.540408 kJ/mol
# Density = 1.883467 g / cm^3
# Si number density = 18.877633 Si / 1000 Ang^3
#
#
#
# Elastic Constant Matrix: (Units=GPa)
#
#
# Indices 1 2 3 4 5 6 
#
# 1 59.3202 18.3424 48.8490 0.0000 0.0000 0.0000
# 2 18.3424 79.8294 43.8555 0.0000 0.0000 0.0000
# 3 48.8490 43.8555 123.5188 0.0000 0.0000 0.0000
# 4 0.0000 0.0000 0.0000 35.0569 0.0000 0.0000
# 5 0.0000 0.0000 0.0000 0.0000 -4.6512 0.0000
# 6 0.0000 0.0000 0.0000 0.0000 0.0000 79.3703
#
#
#
# Elastic Compliance Matrix: (Units=1/GPa)
#
#
# Indices 1 2 3 4 5 6 
#
# 1 0.025009 -0.000389 -0.009752 0.000000 0.000000 0.000000
# 2 -0.000389 0.015568 -0.005374 0.000000 0.000000 0.000000
# 3 -0.009752 -0.005374 0.013861 0.000000 0.000000 0.000000
# 4 0.000000 0.000000 0.000000 0.028525 0.000000 0.000000
# 5 0.000000 0.000000 0.000000 0.000000 -0.215000 0.000000
# 6 0.000000 0.000000 0.000000 0.000000 0.000000 0.012599
#
#
# Mechanical properties :
#
#
# Convention : Reuss Voigt Hill
#
# Bulk Modulus (GPa) = 42.72043 53.86247 48.29145
# Shear Modulus (GPa) = -62.03056 32.06331 -14.98363
#
# Velocity S-wave (km/s) = -5.73852 4.12573 -2.82037
# Velocity P-wave (km/s) = 4.60741 7.16170 3.87697
#
# Compressibility (1/GPa) = 0.02340801
#
# Stress axis : x y z
#
# Youngs Moduli (GPa) = 39.98594 64.23350 72.14590
#
# Poissons Ratio (x) = 0.02496 0.70360
# Poissons Ratio (y) = 0.01554 0.38770
# Poissons Ratio (z) = 0.38996 0.34518
#
# Static dielectric constant tensor:
#      x y z
#    x 1.688840 0.000000 0.000000 
#    y 0.000000 1.646900 0.000000 
#    z 0.000000 0.000000 1.654650 
# 
# From -- ./inp_files/13134.got.cif
#   From: 2010.05.17/outbox.cif.g08.bks.cpg/sg40_7_cif.got.tgz:13134.got - 2010.06.03 18:35:42.
