data_PCOD9364182
_publ_section_title
;
Structure prediction by ZEFSAII (Michael W. Deem and Ramdas Pophale) SiO2 
 PCOD9364182
Probable space group: A M A 2
;
_chemical_formula_sum "Si O2"
_cell_formula_units_Z 60
_cell_length_a 9.107039
_cell_length_b 27.348959
_cell_length_c 12.585554
_cell_angle_alpha 90.000000
_cell_angle_beta 90.000000
_cell_angle_gamma 90.000000
_cell_volume 3134.659220
_symmetry_space_group_name_H-M "A M A 2"
_symmetry_group_IT_number 40
_symmetry_cell_setting 'orthorhombic'
loop_
_space_group_symop_operation_xyz
x,y,z
-x,-y,z
1/2-x,y,z
1/2+x,-y,z
x,1/2+y,1/2+z
-x,1/2-y,1/2+z
1/2-x,1/2+y,1/2+z
1/2+x,1/2-y,1/2+z
loop_
_atom_site_type_symbol
_atom_site_label
_atom_site_fract_x
_atom_site_fract_y
_atom_site_fract_z
Si Si1 0.428161 0.393946 0.910070
Si Si2 0.923356 0.816032 0.908197
Si Si3 0.077585 0.918234 0.961057
Si Si4 0.918085 0.712682 0.976132
Si Si5 0.425495 0.449655 0.696628
Si Si6 0.083229 0.577187 0.116383
Si Si7 0.916574 0.669210 0.205604
Si Si8 0.000000 0.000000 0.784864
O O1 0.250000 0.395916 0.930025
O O2 0.478847 0.337518 0.925707
O O3 0.456548 0.411198 0.790309
O O4 0.510819 0.427051 0.998853
O O5 0.750000 0.820496 0.926746
O O6 0.983729 0.766329 0.960846
O O7 0.996648 0.867486 0.937576
O O8 0.966215 0.809422 0.785924
O O9 0.250000 0.908486 0.969903
O O10 0.058004 0.958801 0.868072
O O11 0.024748 0.936520 0.077044
O O12 0.750000 0.716185 0.934888
O O13 0.912417 0.701064 0.100119
O O14 0.500000 0.500000 0.728461
O O15 0.250000 0.455830 0.692499
O O16 0.250000 0.595796 0.104322
O O17 0.090245 0.531795 0.198012
O O18 0.975358 0.616195 0.171736
O O19 0.750000 0.665967 0.248895
#
# Coordination Sequence:
#
# PCOD9364182 Si02
#       8
#     8   8   8   8   8   8   8   4
#     4   9  20  41  64  87 121 162 200 244 302 362
#     4  11  22  37  60  90 120 153 199 250 298 353
#     4  11  24  41  61  87 121 163 204 244 302 366
#     4   8  18  37  59  83 115 156 193 235 295 356
#     4  10  22  40  62  88 118 159 204 247 295 353
#     4  11  23  37  59  90 120 154 202 251 297 352
#     4  10  20  38  60  83 118 157 194 242 303 357
#     4  12  24  38  60  86 128 156 202 240 308 352
#
# _framework density 19.140837999999999
#
# number of rings (size 3 to 8) (size 9 to 14) (size 15 to 20)
#    0.000    1.867    2.000    2.400    0.933    4.267 
#    0.000    8.000    0.000    0.000    0.000    0.000 
#    0.000    0.000    0.000    0.000    0.000    0.000 
#
# Total GULP energy -167020.256246 kJ/mol
# GULP energy per Si atom -5567.341875 kJ/mol
# Density = 1.909727 g / cm^3
# Si number density = 19.140838 Si / 1000 Ang^3
#
#
#
# Elastic Constant Matrix: (Units=GPa)
#
#
# Indices 1 2 3 4 5 6 
#
# 1 38.2103 28.5090 16.0792 0.0000 0.0000 0.0000
# 2 28.5090 117.4700 49.5196 0.0000 0.0000 0.0000
# 3 16.0792 49.5196 80.7456 0.0000 0.0000 0.0000
# 4 0.0000 0.0000 0.0000 24.2544 0.0000 0.0000
# 5 0.0000 0.0000 0.0000 0.0000 6.1438 0.0000
# 6 0.0000 0.0000 0.0000 0.0000 0.0000 10.2810
#
#
#
# Elastic Compliance Matrix: (Units=1/GPa)
#
#
# Indices 1 2 3 4 5 6 
#
# 1 0.032242 -0.006903 -0.002187 0.000000 0.000000 0.000000
# 2 -0.006903 0.012959 -0.006573 0.000000 0.000000 0.000000
# 3 -0.002187 -0.006573 0.016851 0.000000 0.000000 0.000000
# 4 0.000000 0.000000 0.000000 0.041230 0.000000 0.000000
# 5 0.000000 0.000000 0.000000 0.000000 0.162765 0.000000
# 6 0.000000 0.000000 0.000000 0.000000 0.000000 0.097267
#
#
# Mechanical properties :
#
#
# Convention : Reuss Voigt Hill
#
# Bulk Modulus (GPa) = 32.54557 47.18237 39.86397
# Shear Modulus (GPa) = 12.34931 17.62371 14.98651
#
# Velocity S-wave (km/s) = 2.54280 3.03766 2.80118
# Velocity P-wave (km/s) = 5.06569 6.08332 5.59768
#
# Compressibility (1/GPa) = 0.03072615
#
# Stress axis : x y z
#
# Youngs Moduli (GPa) = 31.01586 77.16739 59.34355
#
# Poissons Ratio (x) = 0.53267 0.12979
# Poissons Ratio (y) = 0.21410 0.39005
# Poissons Ratio (z) = 0.06783 0.50721
#
# Static dielectric constant tensor:
#      x y z
#    x 1.668870 0.000000 0.000000 
#    y 0.000000 1.700490 0.000000 
#    z 0.000000 0.000000 1.696770 
# 
# From -- ./inp_files/10406.got.cif
#   From: 2010.05.17/outbox.cif.g08.bks.cpg/sg40_6_cif.got.tgz:10406.got - 2010.06.03 18:35:42.
