data_PCOD9364551
_publ_section_title
;
Structure prediction by ZEFSAII (Michael W. Deem and Ramdas Pophale) SiO2 
 PCOD9364551
Probable space group: A M A 2
;
_chemical_formula_sum "Si O2"
_cell_formula_units_Z 64
_cell_length_a 18.299457
_cell_length_b 15.799085
_cell_length_c 10.739063
_cell_angle_alpha 90.000000
_cell_angle_beta 90.000000
_cell_angle_gamma 90.000000
_cell_volume 3104.820726
_symmetry_space_group_name_H-M "A M A 2"
_symmetry_group_IT_number 40
_symmetry_cell_setting 'orthorhombic'
loop_
_space_group_symop_operation_xyz
x,y,z
-x,-y,z
1/2-x,y,z
1/2+x,-y,z
x,1/2+y,1/2+z
-x,1/2-y,1/2+z
1/2-x,1/2+y,1/2+z
1/2+x,1/2-y,1/2+z
loop_
_atom_site_type_symbol
_atom_site_label
_atom_site_fract_x
_atom_site_fract_y
_atom_site_fract_z
Si Si1 0.058627 0.929564 0.755310
Si Si2 0.533724 0.202265 0.549453
Si Si3 0.334415 0.507207 0.788456
Si Si4 0.604126 0.826892 0.206149
Si Si5 0.108954 0.793095 0.935874
Si Si6 0.438405 0.855839 0.289548
Si Si7 0.831331 0.770018 0.673273
Si Si8 0.164177 0.537995 0.080773
O O1 0.022175 0.854518 0.672297
O O2 0.093990 0.883332 0.873751
O O3 0.116652 0.975072 0.664588
O O4 0.000000 0.000000 0.791418
O O5 0.597938 0.267266 0.586220
O O6 0.465182 0.255587 0.498433
O O7 0.553482 0.140389 0.437715
O O8 0.250000 0.480014 0.784319
O O9 0.347829 0.589928 0.705452
O O10 0.389656 0.434200 0.747546
O O11 0.352318 0.532298 0.932828
O O12 0.628810 0.769246 0.322452
O O13 0.519369 0.852667 0.233086
O O14 0.165672 0.785868 0.047104
O O15 0.393179 0.770832 0.259324
O O16 0.750000 0.766425 0.728374
O O17 0.846486 0.865989 0.629240
O O18 0.250000 0.517873 0.094178
#
# Coordination Sequence:
#
# PCOD9364551 Si02
#       8
#     8   8   8   8   8   8   8   8
#     4  11  23  37  64  92 119 157 204 262 303 357
#     4  10  21  39  60  90 121 154 199 255 304 359
#     4  11  22  39  59  89 122 155 204 254 303 361
#     4  10  21  37  64  89 119 155 202 254 303 358
#     4  10  21  38  58  91 120 154 201 250 299 363
#     4  11  22  38  63  91 120 158 205 253 301 369
#     4  11  22  41  64  86 124 170 204 242 306 381
#     4  10  22  39  60  87 121 159 206 252 302 364
#
# _framework density 20.613106999999999
#
# number of rings (size 3 to 8) (size 9 to 14) (size 15 to 20)
#    0.000    1.500    3.750    1.500    5.250    0.500 
#    2.250    3.125    0.000    1.500    0.000    0.000 
#    0.000    0.000    0.000    0.000    0.000    0.000 
#
# Total GULP energy -178703.637331 kJ/mol
# GULP energy per Si atom -5584.488667 kJ/mol
# Density = 2.056619 g / cm^3
# Si number density = 20.613107 Si / 1000 Ang^3
#
#
#
# Elastic Constant Matrix: (Units=GPa)
#
#
# Indices 1 2 3 4 5 6 
#
# 1 52.1601 10.0247 -6.8262 0.0000 0.0000 0.0000
# 2 10.0247 81.1015 -2.9103 0.0000 0.0000 0.0000
# 3 -6.8262 -2.9103 20.6789 0.0000 0.0000 0.0000
# 4 0.0000 0.0000 0.0000 30.6003 0.0000 0.0000
# 5 0.0000 0.0000 0.0000 0.0000 13.8125 0.0000
# 6 0.0000 0.0000 0.0000 0.0000 0.0000 26.1747
#
#
#
# Elastic Compliance Matrix: (Units=1/GPa)
#
#
# Indices 1 2 3 4 5 6 
#
# 1 0.020455 -0.002298 0.006429 0.000000 0.000000 0.000000
# 2 -0.002298 0.012651 0.001022 0.000000 0.000000 0.000000
# 3 0.006429 0.001022 0.050625 0.000000 0.000000 0.000000
# 4 0.000000 0.000000 0.000000 0.032679 0.000000 0.000000
# 5 0.000000 0.000000 0.000000 0.000000 0.072398 0.000000
# 6 0.000000 0.000000 0.000000 0.000000 0.000000 0.038205
#
#
# Mechanical properties :
#
#
# Convention : Reuss Voigt Hill
#
# Bulk Modulus (GPa) = 10.63417 17.16853 13.90135
# Shear Modulus (GPa) = 20.15709 24.36100 22.25904
#
# Velocity S-wave (km/s) = 3.13050 3.44149 3.28967
# Velocity P-wave (km/s) = 4.27046 4.91313 4.60302
#
# Compressibility (1/GPa) = 0.09403652
#
# Stress axis : x y z
#
# Youngs Moduli (GPa) = 48.88857 79.04573 19.75328
#
# Poissons Ratio (x) = 0.18162 -0.12699
# Poissons Ratio (y) = 0.11233 -0.02019
# Poissons Ratio (z) = -0.31430 -0.08079
#
# Static dielectric constant tensor:
#      x y z
#    x 1.754500 0.000000 0.000000 
#    y 0.000000 1.748860 0.000000 
#    z 0.000000 0.000000 1.731700 
# 
# From -- ./inp_files/13139.got.cif
#   From: 2010.05.17/outbox.cif.g08.bks.cpg/sg40_7_cif.got.tgz:13139.got - 2010.06.03 18:35:42.
