data_PCOD9364995
_publ_section_title
;
Structure prediction by ZEFSAII (Michael W. Deem and Ramdas Pophale) SiO2 
 PCOD9364995
Probable space group: A M A 2
;
_chemical_formula_sum "Si O2"
_cell_formula_units_Z 36
_cell_length_a 17.488887
_cell_length_b 16.487320
_cell_length_c 5.107191
_cell_angle_alpha 90.000000
_cell_angle_beta 90.000000
_cell_angle_gamma 90.000000
_cell_volume 1472.632358
_symmetry_space_group_name_H-M "A M A 2"
_symmetry_group_IT_number 40
_symmetry_cell_setting 'orthorhombic'
loop_
_space_group_symop_operation_xyz
x,y,z
-x,-y,z
1/2-x,y,z
1/2+x,-y,z
x,1/2+y,1/2+z
-x,1/2-y,1/2+z
1/2-x,1/2+y,1/2+z
1/2+x,1/2-y,1/2+z
loop_
_atom_site_type_symbol
_atom_site_label
_atom_site_fract_x
_atom_site_fract_y
_atom_site_fract_z
Si Si1 0.750000 0.889808 0.692171
Si Si2 0.384903 0.879339 0.285958
Si Si3 0.750000 0.996825 0.192688
Si Si4 0.413567 0.147445 0.897429
Si Si5 0.421430 0.281085 0.283936
Si Si6 0.000000 0.000000 0.079042
O O1 0.669226 0.846699 0.761866
O O2 0.750000 0.922314 0.396480
O O3 0.750000 0.964572 0.897964
O O4 0.320737 0.945532 0.247960
O O5 0.382288 0.834520 0.558578
O O6 0.387087 0.814259 0.052155
O O7 0.461210 0.931969 0.254395
O O8 0.487779 0.195001 0.779796
O O9 0.439571 0.053136 0.912426
O O10 0.408373 0.189633 0.185363
#
# Coordination Sequence:
#
# PCOD9364995 Si02
#       6
#     4   8   4   8   8   4
#     4  12  28  44  74 110 150 187 251 322 375 437
#     4  11  25  44  72 100 144 192 238 311 363 447
#     4  12  26  46  68 112 146 187 253 312 379 441
#     4  11  25  48  73 112 146 197 247 311 372 449
#     4  11  26  45  73 105 147 192 250 296 376 456
#     4  10  22  40  74  98 138 190 242 294 364 430
#
# _framework density 24.446019
#
# number of rings (size 3 to 8) (size 9 to 14) (size 15 to 20)
#    0.000    0.889    2.222    4.000    6.222    6.222 
#    0.000    0.000    0.000    1.333    0.000    0.000 
#    0.000    0.000    0.000    0.000    0.000    0.000 
#
# Total GULP energy -100753.072002 kJ/mol
# GULP energy per Si atom -5597.392889 kJ/mol
# Density = 2.439038 g / cm^3
# Si number density = 24.446019 Si / 1000 Ang^3
#
#
#
# Elastic Constant Matrix: (Units=GPa)
#
#
# Indices 1 2 3 4 5 6 
#
# 1 86.3214 24.4809 -20.2009 0.0000 0.0000 0.0000
# 2 24.4809 116.4678 25.4026 0.0000 0.0000 0.0000
# 3 -20.2009 25.4026 54.7159 0.0000 0.0000 0.0000
# 4 0.0000 0.0000 0.0000 45.5071 0.0000 0.0000
# 5 0.0000 0.0000 0.0000 0.0000 15.7959 0.0000
# 6 0.0000 0.0000 0.0000 0.0000 0.0000 58.4084
#
#
#
# Elastic Compliance Matrix: (Units=1/GPa)
#
#
# Indices 1 2 3 4 5 6 
#
# 1 0.014725 -0.004763 0.007648 0.000000 0.000000 0.000000
# 2 -0.004763 0.011094 -0.006909 0.000000 0.000000 0.000000
# 3 0.007648 -0.006909 0.024307 0.000000 0.000000 0.000000
# 4 0.000000 0.000000 0.000000 0.021975 0.000000 0.000000
# 5 0.000000 0.000000 0.000000 0.000000 0.063307 0.000000
# 6 0.000000 0.000000 0.000000 0.000000 0.000000 0.017121
#
#
# Mechanical properties :
#
#
# Convention : Reuss Voigt Hill
#
# Bulk Modulus (GPa) = 23.76549 35.20781 29.48665
# Shear Modulus (GPa) = 28.63608 39.13045 33.88327
#
# Velocity S-wave (km/s) = 3.42629 4.00520 3.72700
# Velocity P-wave (km/s) = 5.03938 5.98518 5.53253
#
# Compressibility (1/GPa) = 0.04207782
#
# Stress axis : x y z
#
# Youngs Moduli (GPa) = 67.91063 90.13693 41.13960
#
# Poissons Ratio (x) = 0.42934 -0.31463
# Poissons Ratio (y) = 0.32347 0.28424
# Poissons Ratio (z) = -0.51937 0.62278
#
# Static dielectric constant tensor:
#      x y z
#    x 2.061880 0.000000 0.000000 
#    y 0.000000 1.956300 0.000000 
#    z 0.000000 0.000000 1.958960 
# 
# From -- ./inp_files/1765.got.cif
#   From: 2010.05.17/outbox.cif.g08.bks.cpg/sg40_1_cif.got.tgz:1765.got - 2010.06.03 18:35:42.
