data_PCOD9364946
_publ_section_title
;
Structure prediction by ZEFSAII (Michael W. Deem and Ramdas Pophale) SiO2 
 PCOD9364946
Probable space group: A M A 2
;
_chemical_formula_sum "Si O2"
_cell_formula_units_Z 52
_cell_length_a 7.650073
_cell_length_b 17.223256
_cell_length_c 15.936554
_cell_angle_alpha 90.000000
_cell_angle_beta 90.000000
_cell_angle_gamma 90.000000
_cell_volume 2099.787059
_symmetry_space_group_name_H-M "A M A 2"
_symmetry_group_IT_number 40
_symmetry_cell_setting 'orthorhombic'
loop_
_space_group_symop_operation_xyz
x,y,z
-x,-y,z
1/2-x,y,z
1/2+x,-y,z
x,1/2+y,1/2+z
-x,1/2-y,1/2+z
1/2-x,1/2+y,1/2+z
1/2+x,1/2-y,1/2+z
loop_
_atom_site_type_symbol
_atom_site_label
_atom_site_fract_x
_atom_site_fract_y
_atom_site_fract_z
Si Si1 0.958086 0.625074 0.021810
Si Si2 0.459419 0.194391 0.020010
Si Si3 0.250000 0.750845 0.762838
Si Si4 0.437912 0.150219 0.693284
Si Si5 0.540211 0.914493 0.167916
Si Si6 0.046077 0.914435 0.865136
Si Si7 0.048894 0.353886 0.842601
O O1 0.750000 0.616393 0.031237
O O2 0.041469 0.599034 0.109160
O O3 0.011259 0.716399 0.018273
O O4 0.001688 0.599617 0.927224
O O5 0.250000 0.192918 0.024999
O O6 0.507656 0.147465 0.936767
O O7 0.525935 0.147060 0.100341
O O8 0.402769 0.790290 0.702725
O O9 0.406206 0.711699 0.821321
O O10 0.250000 0.190301 0.690713
O O11 0.447155 0.100719 0.778600
O O12 0.455638 0.404999 0.758648
O O13 0.750000 0.900863 0.179728
O O14 0.500000 0.000000 0.135128
O O15 0.250000 0.905501 0.843431
O O16 0.000000 0.000000 0.896723
O O17 0.250000 0.324758 0.855395
#
# Coordination Sequence:
#
# PCOD9364946 Si02
#       7
#     8   8   4   8   8   8   8
#     4  10  22  42  68 102 139 173 223 282 341 409
#     4  10  22  39  64  98 135 176 222 277 340 405
#     4  12  22  42  66 100 136 174 226 284 334 400
#     4  12  25  42  69  99 136 180 226 280 344 403
#     4  11  23  41  66  93 137 181 230 280 330 404
#     4  12  25  44  67  95 136 181 231 281 334 408
#     4  11  24  41  69  99 136 178 224 281 344 403
#
# _framework density 24.764413999999999
#
# number of rings (size 3 to 8) (size 9 to 14) (size 15 to 20)
#    0.000    0.923    2.308    4.615    3.231    4.308 
#    0.000    0.769    0.000    3.692    0.000    0.000 
#    0.000    0.000    0.000    0.000    0.000    0.000 
#
# Total GULP energy -145049.336509 kJ/mol
# GULP energy per Si atom -5578.820635 kJ/mol
# Density = 2.470805 g / cm^3
# Si number density = 24.764414 Si / 1000 Ang^3
#
#
#
# Elastic Constant Matrix: (Units=GPa)
#
#
# Indices 1 2 3 4 5 6 
#
# 1 153.5410 -4.8363 1.7186 0.0000 0.0000 0.0000
# 2 -4.8363 57.1456 16.5231 0.0000 0.0000 0.0000
# 3 1.7186 16.5231 97.6057 0.0000 0.0000 0.0000
# 4 0.0000 0.0000 0.0000 29.4457 0.0000 0.0000
# 5 0.0000 0.0000 0.0000 0.0000 32.7563 0.0000
# 6 0.0000 0.0000 0.0000 0.0000 0.0000 21.1824
#
#
#
# Elastic Compliance Matrix: (Units=1/GPa)
#
#
# Indices 1 2 3 4 5 6 
#
# 1 0.006535 0.000616 -0.000219 0.000000 0.000000 0.000000
# 2 0.000616 0.018458 -0.003136 0.000000 0.000000 0.000000
# 3 -0.000219 -0.003136 0.010780 0.000000 0.000000 0.000000
# 4 0.000000 0.000000 0.000000 0.033961 0.000000 0.000000
# 5 0.000000 0.000000 0.000000 0.000000 0.030528 0.000000
# 6 0.000000 0.000000 0.000000 0.000000 0.000000 0.047209
#
#
# Mechanical properties :
#
#
# Convention : Reuss Voigt Hill
#
# Bulk Modulus (GPa) = 33.00783 37.23368 35.12076
# Shear Modulus (GPa) = 30.66612 36.33601 33.50106
#
# Velocity S-wave (km/s) = 3.52279 3.83465 3.68202
# Velocity P-wave (km/s) = 5.46849 5.88845 5.68235
#
# Compressibility (1/GPa) = 0.03029584
#
# Stress axis : x y z
#
# Youngs Moduli (GPa) = 153.02700 54.17719 92.76469
#
# Poissons Ratio (x) = -0.03340 0.02036
# Poissons Ratio (y) = -0.09434 0.29086
# Poissons Ratio (z) = 0.03358 0.16987
#
# Static dielectric constant tensor:
#      x y z
#    x 1.926730 0.000000 0.000000 
#    y 0.000000 1.900540 0.000000 
#    z 0.000000 0.000000 2.017110 
# 
# From -- ./inp_files/15242.got.cif
#   From: 2010.05.17/outbox.cif.g08.bks.cpg/sg40_8_cif.got.tgz:15242.got - 2010.06.03 18:35:42.
