data_PCOD9364099
_publ_section_title
;
Structure prediction by ZEFSAII (Michael W. Deem and Ramdas Pophale) SiO2 
 PCOD9364099
Probable space group: A M A 2
;
_chemical_formula_sum "Si O2"
_cell_formula_units_Z 64
_cell_length_a 8.461264
_cell_length_b 28.102633
_cell_length_c 12.700987
_cell_angle_alpha 90.000000
_cell_angle_beta 90.000000
_cell_angle_gamma 90.000000
_cell_volume 3020.088913
_symmetry_space_group_name_H-M "A M A 2"
_symmetry_group_IT_number 40
_symmetry_cell_setting 'orthorhombic'
loop_
_space_group_symop_operation_xyz
x,y,z
-x,-y,z
1/2-x,y,z
1/2+x,-y,z
x,1/2+y,1/2+z
-x,1/2-y,1/2+z
1/2-x,1/2+y,1/2+z
1/2+x,1/2-y,1/2+z
loop_
_atom_site_type_symbol
_atom_site_label
_atom_site_fract_x
_atom_site_fract_y
_atom_site_fract_z
Si Si1 0.560238 0.551523 0.215310
Si Si2 0.442113 0.882333 0.905077
Si Si3 0.562566 0.644897 0.693795
Si Si4 0.060931 0.764847 0.076868
Si Si5 0.437564 0.554938 0.602548
Si Si6 0.933704 0.809213 0.401745
Si Si7 0.929901 0.619813 0.054811
Si Si8 0.569413 0.194023 0.747621
O O1 0.500000 0.500000 0.235526
O O2 0.750000 0.553753 0.216623
O O3 0.502664 0.584068 0.309748
O O4 0.512323 0.570160 0.100544
O O5 0.250000 0.879714 0.910882
O O6 0.489054 0.830218 0.856571
O O7 0.497053 0.913016 0.005271
O O8 0.750000 0.638373 0.681897
O O9 0.506719 0.681009 0.599583
O O10 0.484511 0.592599 0.694878
O O11 0.526510 0.675263 0.798202
O O12 0.250000 0.766641 0.066005
O O13 0.021609 0.734523 0.182794
O O14 0.003980 0.734578 0.974976
O O15 0.500000 0.500000 0.607283
O O16 0.250000 0.551642 0.594920
O O17 0.750000 0.801789 0.377167
O O18 0.953748 0.854557 0.477042
O O19 0.750000 0.617589 0.012034
O O20 0.921797 0.652333 0.159993
O O21 0.750000 0.210100 0.765390
#
# Coordination Sequence:
#
# PCOD9364099 Si02
#       8
#     8   8   8   8   8   8   8   8
#     4   9  17  28  46  74 109 145 187 236 288 344
#     4   9  18  34  55  83 118 157 196 238 291 351
#     4  11  24  43  64  88 119 157 198 243 294 353
#     4   9  20  37  59  89 126 161 196 241 295 351
#     4  12  26  44  64  86 113 151 199 253 304 354
#     4  10  20  37  60  87 117 151 192 240 290 345
#     4   8  15  30  49  72 104 146 188 227 277 338
#     4   8  15  29  53  83 118 156 192 230 278 338
#
# _framework density 21.191427999999998
#
# number of rings (size 3 to 8) (size 9 to 14) (size 15 to 20)
#    0.000    2.500    0.000    3.750    0.000    5.000 
#    0.000    6.875    0.000    1.500    0.000    0.000 
#    0.000    0.000    0.000    0.000    0.000    0.000 
#
# Total GULP energy -178195.865960 kJ/mol
# GULP energy per Si atom -5568.620811 kJ/mol
# Density = 2.114320 g / cm^3
# Si number density = 21.191428 Si / 1000 Ang^3
#
#
#
# Elastic Constant Matrix: (Units=GPa)
#
#
# Indices 1 2 3 4 5 6 
#
# 1 32.6412 21.0014 11.7769 0.0000 0.0000 0.0000
# 2 21.0014 129.9114 48.4176 0.0000 0.0000 0.0000
# 3 11.7769 48.4176 73.5308 0.0000 0.0000 0.0000
# 4 0.0000 0.0000 0.0000 53.9070 0.0000 0.0000
# 5 0.0000 0.0000 0.0000 0.0000 28.7707 0.0000
# 6 0.0000 0.0000 0.0000 0.0000 0.0000 -43.3698
#
#
#
# Elastic Compliance Matrix: (Units=1/GPa)
#
#
# Indices 1 2 3 4 5 6 
#
# 1 0.034525 -0.004665 -0.002458 0.000000 0.000000 0.000000
# 2 -0.004665 0.010831 -0.006385 0.000000 0.000000 0.000000
# 3 -0.002458 -0.006385 0.018198 0.000000 0.000000 0.000000
# 4 0.000000 0.000000 0.000000 0.018550 0.000000 0.000000
# 5 0.000000 0.000000 0.000000 0.000000 0.034758 0.000000
# 6 0.000000 0.000000 0.000000 0.000000 0.000000 -0.023057
#
#
# Mechanical properties :
#
#
# Convention : Reuss Voigt Hill
#
# Bulk Modulus (GPa) = 27.36882 44.27501 35.82191
# Shear Modulus (GPa) = 37.59428 18.18739 27.89084
#
# Velocity S-wave (km/s) = 4.21650 2.93276 3.63180
# Velocity P-wave (km/s) = 6.05378 5.69266 5.87599
#
# Compressibility (1/GPa) = 0.03653793
#
# Stress axis : x y z
#
# Youngs Moduli (GPa) = 28.96493 92.32441 54.95225
#
# Poissons Ratio (x) = 0.43072 0.13505
# Poissons Ratio (y) = 0.13513 0.35086
# Poissons Ratio (z) = 0.07118 0.58948
#
# Static dielectric constant tensor:
#      x y z
#    x 1.716350 0.000000 0.000000 
#    y 0.000000 1.800670 0.000000 
#    z 0.000000 0.000000 1.851280 
# 
# From -- ./inp_files/10696.got.cif
#   From: 2010.05.17/outbox.cif.g08.bks.cpg/sg40_6_cif.got.tgz:10696.got - 2010.06.03 18:35:42.
