data_PCOD9364335
_publ_section_title
;
Structure prediction by ZEFSAII (Michael W. Deem and Ramdas Pophale) SiO2 
 PCOD9364335
Probable space group: A M A 2
;
_chemical_formula_sum "Si O2"
_cell_formula_units_Z 64
_cell_length_a 17.897902
_cell_length_b 15.809673
_cell_length_c 11.765899
_cell_angle_alpha 90.000000
_cell_angle_beta 90.000000
_cell_angle_gamma 90.000000
_cell_volume 3329.278522
_symmetry_space_group_name_H-M "A M A 2"
_symmetry_group_IT_number 40
_symmetry_cell_setting 'orthorhombic'
loop_
_space_group_symop_operation_xyz
x,y,z
-x,-y,z
1/2-x,y,z
1/2+x,-y,z
x,1/2+y,1/2+z
-x,1/2-y,1/2+z
1/2-x,1/2+y,1/2+z
1/2+x,1/2-y,1/2+z
loop_
_atom_site_type_symbol
_atom_site_label
_atom_site_fract_x
_atom_site_fract_y
_atom_site_fract_z
Si Si1 0.662477 0.346368 0.435000
Si Si2 0.919251 0.514166 0.436625
Si Si3 0.339133 0.735279 0.672865
Si Si4 0.410407 0.586461 0.089041
Si Si5 0.576876 0.088173 0.691202
Si Si6 0.161963 0.747921 0.209820
Si Si7 0.660220 0.064323 0.162966
Si Si8 0.840435 0.916405 0.341870
O O1 0.750000 0.370967 0.439921
O O2 0.613894 0.425167 0.395949
O O3 0.639252 0.315166 0.558825
O O4 0.654618 0.273329 0.342659
O O5 0.931274 0.572166 0.326357
O O6 0.864860 0.544434 0.535325
O O7 0.000000 0.500000 0.490763
O O8 0.250000 0.749112 0.667171
O O9 0.379426 0.824901 0.676168
O O10 0.353652 0.672736 0.778014
O O11 0.497609 0.592727 0.125471
O O12 0.383991 0.496914 0.143276
O O13 0.373534 0.670880 0.140359
O O14 0.388266 0.580924 0.956826
O O15 0.250000 0.748308 0.181647
O O16 0.131263 0.841548 0.189220
O O17 0.750000 0.065487 0.167209
O O18 0.638618 0.992166 0.254297
O O19 0.750000 0.922657 0.364506
#
# Coordination Sequence:
#
# PCOD9364335 Si02
#       8
#     8   8   8   8   8   8   8   8
#     4  10  20  40  65  89 125 165 210 266 316 369
#     4  12  22  42  64  89 127 169 213 261 318 372
#     4  10  23  42  66  98 125 163 216 264 319 377
#     4  11  23  45  59  89 132 172 208 261 317 378
#     4  11  25  44  62  90 131 171 214 265 313 382
#     4  10  21  38  63  94 122 162 212 259 316 376
#     4  10  23  42  66  98 128 161 213 268 319 380
#     4  10  22  44  68  93 130 166 210 267 321 381
#
# _framework density 19.223383999999999
#
# number of rings (size 3 to 8) (size 9 to 14) (size 15 to 20)
#    0.000    1.500    3.750    0.750    3.500    3.000 
#    4.500    0.000    0.000    0.000    0.000    0.000 
#    0.000    0.000    0.000    0.000    0.000    0.000 
#
# Total GULP energy -178568.377905 kJ/mol
# GULP energy per Si atom -5580.261810 kJ/mol
# Density = 1.917963 g / cm^3
# Si number density = 19.223384 Si / 1000 Ang^3
#
#
#
# Elastic Constant Matrix: (Units=GPa)
#
#
# Indices 1 2 3 4 5 6 
#
# 1 27.3069 44.8077 37.8026 0.0000 0.0000 0.0000
# 2 44.8077 127.4653 49.7109 0.0000 0.0000 0.0000
# 3 37.8026 49.7109 126.8192 0.0000 0.0000 0.0000
# 4 0.0000 0.0000 0.0000 8.8306 0.0000 0.0000
# 5 0.0000 0.0000 0.0000 0.0000 25.0562 0.0000
# 6 0.0000 0.0000 0.0000 0.0000 0.0000 15.8125
#
#
#
# Elastic Compliance Matrix: (Units=1/GPa)
#
#
# Indices 1 2 3 4 5 6 
#
# 1 0.129712 -0.036026 -0.024544 0.000000 0.000000 0.000000
# 2 -0.036026 0.019267 0.003186 0.000000 0.000000 0.000000
# 3 -0.024544 0.003186 0.013952 0.000000 0.000000 0.000000
# 4 0.000000 0.000000 0.000000 0.113243 0.000000 0.000000
# 5 0.000000 0.000000 0.000000 0.000000 0.039910 0.000000
# 6 0.000000 0.000000 0.000000 0.000000 0.000000 0.063241
#
#
# Mechanical properties :
#
#
# Convention : Reuss Voigt Hill
#
# Bulk Modulus (GPa) = 20.76172 60.69263 40.72718
# Shear Modulus (GPa) = 9.80112 19.89120 14.84616
#
# Velocity S-wave (km/s) = 2.26044 3.22023 2.78204
# Velocity P-wave (km/s) = 4.19958 6.74295 5.61711
#
# Compressibility (1/GPa) = 0.04816556
#
# Stress axis : x y z
#
# Youngs Moduli (GPa) = 7.70938 51.90330 71.67328
#
# Poissons Ratio (x) = 1.86985 1.75911
# Poissons Ratio (y) = 0.27774 -0.22838
# Poissons Ratio (z) = 0.18922 -0.16539
#
# Static dielectric constant tensor:
#      x y z
#    x 1.684470 0.000000 0.000000 
#    y 0.000000 1.683610 0.000000 
#    z 0.000000 0.000000 1.671120 
# 
# From -- ./inp_files/13107.got.cif
#   From: 2010.05.17/outbox.cif.g08.bks.cpg/sg40_7_cif.got.tgz:13107.got - 2010.06.03 18:35:42.
