data_PCOD9364806
_publ_section_title
;
Structure prediction by ZEFSAII (Michael W. Deem and Ramdas Pophale) SiO2 
 PCOD9364806
Probable space group: A M A 2
;
_chemical_formula_sum "Si O2"
_cell_formula_units_Z 48
_cell_length_a 23.024127
_cell_length_b 9.346204
_cell_length_c 10.710153
_cell_angle_alpha 90.000000
_cell_angle_beta 90.000000
_cell_angle_gamma 90.000000
_cell_volume 2304.698416
_symmetry_space_group_name_H-M "A M A 2"
_symmetry_group_IT_number 40
_symmetry_cell_setting 'orthorhombic'
loop_
_space_group_symop_operation_xyz
x,y,z
-x,-y,z
1/2-x,y,z
1/2+x,-y,z
x,1/2+y,1/2+z
-x,1/2-y,1/2+z
1/2-x,1/2+y,1/2+z
1/2+x,1/2-y,1/2+z
loop_
_atom_site_type_symbol
_atom_site_label
_atom_site_fract_x
_atom_site_fract_y
_atom_site_fract_z
Si Si1 0.750000 0.838279 0.805331
Si Si2 0.250000 0.072368 0.185290
Si Si3 0.750000 0.630919 0.449342
Si Si4 0.027846 0.156368 0.598571
Si Si5 0.750000 0.068673 0.457628
Si Si6 0.977580 0.837633 0.323867
Si Si7 0.151798 0.260369 0.286194
Si Si8 0.154242 0.553801 0.142640
O O1 0.750000 0.736478 0.924416
O O2 0.806868 0.832272 0.719375
O O3 0.750000 0.001837 0.850069
O O4 0.193354 0.174103 0.190288
O O5 0.250000 0.950516 0.080198
O O6 0.250000 0.995853 0.319520
O O7 0.807727 0.718077 0.409882
O O8 0.009027 0.217801 0.463936
O O9 0.008536 0.251022 0.714444
O O10 0.096446 0.128979 0.597014
O O11 0.000000 0.000000 0.611750
O O12 0.805305 0.015374 0.535825
O O13 0.908231 0.821729 0.305992
O O14 0.000000 0.000000 0.319335
O O15 0.138229 0.417857 0.230885
#
# Coordination Sequence:
#
# PCOD9364806 Si02
#       8
#     4   4   4   8   4   8   8   8
#     4   9  20  36  61  99 125 167 220 271 334 406
#     4  11  22  36  63 101 139 167 210 276 341 393
#     4   9  20  38  61  95 127 173 218 260 337 413
#     4  11  24  46  69  94 133 181 231 283 342 400
#     4  11  22  36  61  99 135 169 212 275 338 400
#     4  11  26  45  68 102 133 178 237 288 341 405
#     4  10  21  42  65  90 133 174 219 279 334 400
#     4  10  21  41  67  89 127 179 224 269 339 411
#
# _framework density 20.827020999999998
#
# number of rings (size 3 to 8) (size 9 to 14) (size 15 to 20)
#    0.000    1.667    1.667    3.500    0.000   10.000 
#    6.000    0.000    0.000    0.000    0.000    0.000 
#    0.000    0.000    0.000    0.000    0.000    0.000 
#
# Total GULP energy -134104.418914 kJ/mol
# GULP energy per Si atom -5587.684121 kJ/mol
# Density = 2.077962 g / cm^3
# Si number density = 20.827021 Si / 1000 Ang^3
#
#
#
# Elastic Constant Matrix: (Units=GPa)
#
#
# Indices 1 2 3 4 5 6 
#
# 1 142.2943 47.2452 63.2364 0.0000 0.0000 0.0000
# 2 47.2452 74.1132 50.4972 0.0000 0.0000 0.0000
# 3 63.2364 50.4972 158.6092 0.0000 0.0000 0.0000
# 4 0.0000 0.0000 0.0000 42.3636 0.0000 0.0000
# 5 0.0000 0.0000 0.0000 0.0000 14.0707 0.0000
# 6 0.0000 0.0000 0.0000 0.0000 0.0000 22.0337
#
#
#
# Elastic Compliance Matrix: (Units=1/GPa)
#
#
# Indices 1 2 3 4 5 6 
#
# 1 0.009577 -0.004474 -0.002394 0.000000 0.000000 0.000000
# 2 -0.004474 0.019321 -0.004367 0.000000 0.000000 0.000000
# 3 -0.002394 -0.004367 0.008650 0.000000 0.000000 0.000000
# 4 0.000000 0.000000 0.000000 0.023605 0.000000 0.000000
# 5 0.000000 0.000000 0.000000 0.000000 0.071070 0.000000
# 6 0.000000 0.000000 0.000000 0.000000 0.000000 0.045385
#
#
# Mechanical properties :
#
#
# Convention : Reuss Voigt Hill
#
# Bulk Modulus (GPa) = 66.32742 77.44160 71.88451
# Shear Modulus (GPa) = 24.37793 29.96280 27.17036
#
# Velocity S-wave (km/s) = 3.42496 3.79707 3.61581
# Velocity P-wave (km/s) = 6.89612 7.51582 7.21263
#
# Compressibility (1/GPa) = 0.01507672
#
# Stress axis : x y z
#
# Youngs Moduli (GPa) = 104.41647 51.75788 115.61069
#
# Poissons Ratio (x) = 0.23157 0.27676
# Poissons Ratio (y) = 0.46716 0.50493
# Poissons Ratio (z) = 0.24996 0.22605
#
# Static dielectric constant tensor:
#      x y z
#    x 1.756550 0.000000 0.000000 
#    y 0.000000 1.770340 0.000000 
#    z 0.000000 0.000000 1.779720 
# 
# From -- ./inp_files/13970.got.cif
#   From: 2010.05.17/outbox.cif.g08.bks.cpg/sg40_7_cif.got.tgz:13970.got - 2010.06.03 18:35:42.
