data_PCOD9364708
_publ_section_title
;
Structure prediction by ZEFSAII (Michael W. Deem and Ramdas Pophale) SiO2 
 PCOD9364708
Probable space group: A M A 2
;
_chemical_formula_sum "Si O2"
_cell_formula_units_Z 64
_cell_length_a 13.712658
_cell_length_b 22.080331
_cell_length_c 10.094324
_cell_angle_alpha 90.000000
_cell_angle_beta 90.000000
_cell_angle_gamma 90.000000
_cell_volume 3056.359699
_symmetry_space_group_name_H-M "A M A 2"
_symmetry_group_IT_number 40
_symmetry_cell_setting 'orthorhombic'
loop_
_space_group_symop_operation_xyz
x,y,z
-x,-y,z
1/2-x,y,z
1/2+x,-y,z
x,1/2+y,1/2+z
-x,1/2-y,1/2+z
1/2-x,1/2+y,1/2+z
1/2+x,1/2-y,1/2+z
loop_
_atom_site_type_symbol
_atom_site_label
_atom_site_fract_x
_atom_site_fract_y
_atom_site_fract_z
Si Si1 0.637692 0.113016 0.227850
Si Si2 0.529219 0.356112 0.309797
Si Si3 0.450103 0.779029 0.377920
Si Si4 0.860782 0.914364 0.569937
Si Si5 0.636995 0.164967 0.633343
Si Si6 0.638064 0.351146 0.784469
Si Si7 0.474734 0.571405 0.565172
Si Si8 0.363610 0.959706 0.473421
O O1 0.750000 0.100816 0.205302
O O2 0.623690 0.177627 0.297337
O O3 0.574551 0.106855 0.098388
O O4 0.594910 0.063894 0.333822
O O5 0.567909 0.291337 0.357024
O O6 0.577430 0.376532 0.172760
O O7 0.416232 0.343673 0.272955
O O8 0.551043 0.407492 0.417671
O O9 0.427587 0.794422 0.531945
O O10 0.555227 0.800101 0.315952
O O11 0.750000 0.917959 0.620420
O O12 0.859728 0.885219 0.424999
O O13 0.901810 0.981193 0.544831
O O14 0.750000 0.184849 0.639254
O O15 0.635747 0.098552 0.566310
O O16 0.750000 0.331193 0.755392
O O17 0.600343 0.398356 0.671465
O O18 0.500000 0.500000 0.575231
O O19 0.250000 0.974605 0.444498
#
# Coordination Sequence:
#
# PCOD9364708 Si02
#       8
#     8   8   8   8   8   8   8   8
#     4   9  19  40  70  95 121 166 224 279 324 383
#     4  12  27  41  62  97 138 172 219 272 332 398
#     4  10  22  42  65  96 131 165 221 279 326 391
#     4  10  21  39  66  97 127 165 216 274 328 387
#     4  10  22  42  67  94 127 174 219 265 327 392
#     4  10  22  43  70  97 128 173 223 272 330 396
#     4  11  26  42  60  98 140 181 215 266 339 405
#     4   8  16  34  64  97 121 156 215 267 314 376
#
# _framework density 20.939943
#
# number of rings (size 3 to 8) (size 9 to 14) (size 15 to 20)
#    0.000    2.000    1.250    1.875    5.250    4.000 
#    0.000    1.250    0.000    0.000    0.000    0.000 
#    0.000    0.000    0.000    0.000    0.000    0.000 
#
# Total GULP energy -178503.058673 kJ/mol
# GULP energy per Si atom -5578.220584 kJ/mol
# Density = 2.089228 g / cm^3
# Si number density = 20.939943 Si / 1000 Ang^3
#
#
#
# Elastic Constant Matrix: (Units=GPa)
#
#
# Indices 1 2 3 4 5 6 
#
# 1 95.2335 8.6553 19.6911 0.0000 0.0000 0.0000
# 2 8.6553 84.6898 15.5471 0.0000 0.0000 0.0000
# 3 19.6911 15.5471 84.7611 0.0000 0.0000 0.0000
# 4 0.0000 0.0000 0.0000 16.8307 0.0000 0.0000
# 5 0.0000 0.0000 0.0000 0.0000 16.6120 0.0000
# 6 0.0000 0.0000 0.0000 0.0000 0.0000 8.8320
#
#
#
# Elastic Compliance Matrix: (Units=1/GPa)
#
#
# Indices 1 2 3 4 5 6 
#
# 1 0.011068 -0.000682 -0.002446 0.000000 0.000000 0.000000
# 2 -0.000682 0.012261 -0.002091 0.000000 0.000000 0.000000
# 3 -0.002446 -0.002091 0.012750 0.000000 0.000000 0.000000
# 4 0.000000 0.000000 0.000000 0.059415 0.000000 0.000000
# 5 0.000000 0.000000 0.000000 0.000000 0.060197 0.000000
# 6 0.000000 0.000000 0.000000 0.000000 0.000000 0.113225
#
#
# Mechanical properties :
#
#
# Convention : Reuss Voigt Hill
#
# Bulk Modulus (GPa) = 38.99930 39.16350 39.08140
# Shear Modulus (GPa) = 17.36706 23.17433 20.27070
#
# Velocity S-wave (km/s) = 2.88301 3.33033 3.11471
# Velocity P-wave (km/s) = 5.45409 5.79064 5.62488
#
# Compressibility (1/GPa) = 0.02564148
#
# Stress axis : x y z
#
# Youngs Moduli (GPa) = 90.34813 81.55753 78.43379
#
# Poissons Ratio (x) = 0.05563 0.19186
# Poissons Ratio (y) = 0.06163 0.16397
# Poissons Ratio (z) = 0.22101 0.17050
#
# Static dielectric constant tensor:
#      x y z
#    x 1.831560 0.000000 0.000000 
#    y 0.000000 1.755740 0.000000 
#    z 0.000000 0.000000 1.796800 
# 
# From -- ./inp_files/6914.got.cif
#   From: 2010.05.17/outbox.cif.g08.bks.cpg/sg40_4_cif.got.tgz:6914.got - 2010.06.03 18:35:42.
