data_PCOD9364477
_publ_section_title
;
Structure prediction by ZEFSAII (Michael W. Deem and Ramdas Pophale) SiO2 
 PCOD9364477
Probable space group: A M A 2
;
_chemical_formula_sum "Si O2"
_cell_formula_units_Z 44
_cell_length_a 10.803254
_cell_length_b 7.413836
_cell_length_c 28.050958
_cell_angle_alpha 90.000000
_cell_angle_beta 90.000000
_cell_angle_gamma 90.000000
_cell_volume 2246.700903
_symmetry_space_group_name_H-M "A M A 2"
_symmetry_group_IT_number 40
_symmetry_cell_setting 'orthorhombic'
loop_
_space_group_symop_operation_xyz
x,y,z
-x,-y,z
1/2-x,y,z
1/2+x,-y,z
x,1/2+y,1/2+z
-x,1/2-y,1/2+z
1/2-x,1/2+y,1/2+z
1/2+x,1/2-y,1/2+z
loop_
_atom_site_type_symbol
_atom_site_label
_atom_site_fract_x
_atom_site_fract_y
_atom_site_fract_z
Si Si1 0.111573 0.863183 0.688750
Si Si2 0.614841 0.871227 0.096503
Si Si3 0.500000 0.500000 0.335793
Si Si4 0.605102 0.349248 0.782083
Si Si5 0.614564 0.887254 0.929340
Si Si6 0.116286 0.380954 0.007795
O O1 0.250000 0.942500 0.696540
O O2 0.105708 0.788237 0.635224
O O3 0.100587 0.697672 0.725786
O O4 0.000000 0.000000 0.697387
O O5 0.750000 0.959278 0.103893
O O6 0.613540 0.786776 0.043890
O O7 0.500000 0.000000 0.103334
O O8 0.568055 0.657767 0.306723
O O9 0.592721 0.399085 0.372765
O O10 0.500000 0.500000 0.793291
O O11 0.750000 0.395433 0.793904
O O12 0.750000 0.963538 0.940664
O O13 0.500000 0.000000 0.949662
O O14 0.608514 0.693682 0.954002
O O15 0.250000 0.472236 0.014240
O O16 0.000000 0.500000 0.019047
#
# Coordination Sequence:
#
# PCOD9364477 Si02
#       6
#     8   8   4   8   8   8
#     4  10  21  38  59  88 121 158 199 247 302 361
#     4  10  21  36  57  84 118 152 195 242 295 358
#     4  10  22  42  66  86 122 162 212 252 314 358
#     4  11  24  41  64  93 126 165 209 257 312 371
#     4   9  20  37  58  81 111 147 192 241 294 352
#     4  10  21  37  56  84 115 152 194 244 298 356
#
# _framework density 19.584273
#
# number of rings (size 3 to 8) (size 9 to 14) (size 15 to 20)
#    0.545    1.455    0.909    2.182    0.000    5.091 
#    0.000    1.818    0.000    0.000    0.000    0.000 
#    0.000    0.000    0.000    0.000    0.000    0.000 
#
# Total GULP energy -122494.542789 kJ/mol
# GULP energy per Si atom -5567.933763 kJ/mol
# Density = 1.953970 g / cm^3
# Si number density = 19.584273 Si / 1000 Ang^3
#
#
#
# Elastic Constant Matrix: (Units=GPa)
#
#
# Indices 1 2 3 4 5 6 
#
# 1 208.9880 61.2259 6.8370 0.0000 0.0000 0.0000
# 2 61.2259 43.2110 9.5698 0.0000 0.0000 0.0000
# 3 6.8370 9.5698 65.1487 0.0000 0.0000 0.0000
# 4 0.0000 0.0000 0.0000 22.2374 0.0000 0.0000
# 5 0.0000 0.0000 0.0000 0.0000 18.6700 0.0000
# 6 0.0000 0.0000 0.0000 0.0000 0.0000 39.9757
#
#
#
# Elastic Compliance Matrix: (Units=1/GPa)
#
#
# Indices 1 2 3 4 5 6 
#
# 1 0.008229 -0.011854 0.000878 0.000000 0.000000 0.000000
# 2 -0.011854 0.040997 -0.004778 0.000000 0.000000 0.000000
# 3 0.000878 -0.004778 0.015959 0.000000 0.000000 0.000000
# 4 0.000000 0.000000 0.000000 0.044969 0.000000 0.000000
# 5 0.000000 0.000000 0.000000 0.000000 0.053562 0.000000
# 6 0.000000 0.000000 0.000000 0.000000 0.000000 0.025015
#
#
# Mechanical properties :
#
#
# Convention : Reuss Voigt Hill
#
# Bulk Modulus (GPa) = 29.69482 52.51258 41.10370
# Shear Modulus (GPa) = 21.60143 32.15762 26.87953
#
# Velocity S-wave (km/s) = 3.32475 4.05657 3.70875
# Velocity P-wave (km/s) = 5.47120 6.98662 6.27483
#
# Compressibility (1/GPa) = 0.03367591
#
# Stress axis : x y z
#
# Youngs Moduli (GPa) = 121.51950 24.39211 62.65962
#
# Poissons Ratio (x) = 0.28915 -0.05500
# Poissons Ratio (y) = 1.44053 0.29939
# Poissons Ratio (z) = -0.10666 0.11655
#
# Static dielectric constant tensor:
#      x y z
#    x 1.713590 0.000000 0.000000 
#    y 0.000000 1.658270 0.000000 
#    z 0.000000 0.000000 1.683850 
# 
# From -- ./inp_files/26040.got.cif
#   From: 2010.05.17/outbox.cif.g08.bks.cpg/sg40_14_cif.got.tgz:26040.got - 2010.06.03 18:35:42.
