data_PCOD9364435
_publ_section_title
;
Structure prediction by ZEFSAII (Michael W. Deem and Ramdas Pophale) SiO2 
 PCOD9364435
Probable space group: A M A 2
;
_chemical_formula_sum "Si O2"
_cell_formula_units_Z 56
_cell_length_a 9.288530
_cell_length_b 20.165805
_cell_length_c 14.619412
_cell_angle_alpha 90.000000
_cell_angle_beta 90.000000
_cell_angle_gamma 90.000000
_cell_volume 2738.372072
_symmetry_space_group_name_H-M "A M A 2"
_symmetry_group_IT_number 40
_symmetry_cell_setting 'orthorhombic'
loop_
_space_group_symop_operation_xyz
x,y,z
-x,-y,z
1/2-x,y,z
1/2+x,-y,z
x,1/2+y,1/2+z
-x,1/2-y,1/2+z
1/2-x,1/2+y,1/2+z
1/2+x,1/2-y,1/2+z
loop_
_atom_site_type_symbol
_atom_site_label
_atom_site_fract_x
_atom_site_fract_y
_atom_site_fract_z
Si Si1 0.410637 0.059388 0.295000
Si Si2 0.576829 0.071135 0.888632
Si Si3 0.078466 0.818846 0.231987
Si Si4 0.911632 0.189958 0.752012
Si Si5 0.094437 0.058089 0.507768
Si Si6 0.076677 0.164599 0.035946
Si Si7 0.590210 0.684975 0.031452
O O1 0.250000 0.069701 0.255719
O O2 0.509585 0.123812 0.292785
O O3 0.389810 0.041087 0.400848
O O4 0.500000 0.000000 0.248664
O O5 0.750000 0.063577 0.903264
O O6 0.557551 0.120643 0.801814
O O7 0.500000 0.000000 0.877084
O O8 0.500315 0.110957 0.971807
O O9 0.250000 0.822343 0.225295
O O10 0.026426 0.747724 0.268987
O O11 0.001998 0.832660 0.134068
O O12 0.750000 0.211409 0.781915
O O13 0.906379 0.184459 0.642222
O O14 0.250000 0.060293 0.552347
O O15 0.023096 0.129509 0.508067
O O16 0.000000 0.000000 0.551109
O O17 0.250000 0.153899 0.044118
O O18 0.057980 0.240288 0.999886
O O19 0.750000 0.666497 0.997802
#
# Coordination Sequence:
#
# PCOD9364435 Si02
#       7
#     8   8   8   8   8   8   8
#     4  10  21  37  55  81 116 153 191 237 290 345
#     4  11  24  42  64  90 123 160 205 253 306 365
#     4  11  22  37  61  90 118 154 199 244 295 355
#     4   9  21  41  61  86 119 156 196 246 297 349
#     4  10  21  35  54  81 115 152 191 234 284 341
#     4  10  22  41  62  87 119 154 196 246 299 353
#     4   9  19  37  60  85 117 153 192 240 295 348
#
# _framework density 20.450105000000001
#
# number of rings (size 3 to 8) (size 9 to 14) (size 15 to 20)
#    0.000    2.000    0.000    3.857    2.000    6.857 
#    0.000    4.286    0.000    0.000    0.000    0.000 
#    0.000    0.000    0.000    0.000    0.000    0.000 
#
# Total GULP energy -156183.224349 kJ/mol
# GULP energy per Si atom -5577.972298 kJ/mol
# Density = 2.040356 g / cm^3
# Si number density = 20.450105 Si / 1000 Ang^3
#
#
#
# Elastic Constant Matrix: (Units=GPa)
#
#
# Indices 1 2 3 4 5 6 
#
# 1 184.5626 100.0597 17.7337 0.0000 0.0000 0.0000
# 2 100.0597 142.2328 24.1042 0.0000 0.0000 0.0000
# 3 17.7337 24.1042 38.5470 0.0000 0.0000 0.0000
# 4 0.0000 0.0000 0.0000 36.6910 0.0000 0.0000
# 5 0.0000 0.0000 0.0000 0.0000 14.8661 0.0000
# 6 0.0000 0.0000 0.0000 0.0000 0.0000 34.2982
#
#
#
# Elastic Compliance Matrix: (Units=1/GPa)
#
#
# Indices 1 2 3 4 5 6 
#
# 1 0.008760 -0.006129 -0.000197 0.000000 0.000000 0.000000
# 2 -0.006129 0.012153 -0.004779 0.000000 0.000000 0.000000
# 3 -0.000197 -0.004779 0.029022 0.000000 0.000000 0.000000
# 4 0.000000 0.000000 0.000000 0.027255 0.000000 0.000000
# 5 0.000000 0.000000 0.000000 0.000000 0.067267 0.000000
# 6 0.000000 0.000000 0.000000 0.000000 0.000000 0.029156
#
#
# Mechanical properties :
#
#
# Convention : Reuss Voigt Hill
#
# Bulk Modulus (GPa) = 36.07198 72.12643 54.09921
# Shear Modulus (GPa) = 24.38249 32.06740 28.22494
#
# Velocity S-wave (km/s) = 3.45670 3.96419 3.71912
# Velocity P-wave (km/s) = 5.79733 7.50328 6.70478
#
# Compressibility (1/GPa) = 0.02772235
#
# Stress axis : x y z
#
# Youngs Moduli (GPa) = 114.15386 82.28721 34.45680
#
# Poissons Ratio (x) = 0.50436 0.00680
# Poissons Ratio (y) = 0.69967 0.16468
# Poissons Ratio (z) = 0.02254 0.39329
#
# Static dielectric constant tensor:
#      x y z
#    x 1.771560 0.000000 0.000000 
#    y 0.000000 1.713330 0.000000 
#    z 0.000000 0.000000 1.764200 
# 
# From -- ./inp_files/15333.got.cif
#   From: 2010.05.17/outbox.cif.g08.bks.cpg/sg40_8_cif.got.tgz:15333.got - 2010.06.03 18:35:42.
