data_PCOD9364256
_publ_section_title
;
Structure prediction by ZEFSAII (Michael W. Deem and Ramdas Pophale) SiO2 
 PCOD9364256
Probable space group: A M A 2
;
_chemical_formula_sum "Si O2"
_cell_formula_units_Z 40
_cell_length_a 20.093355
_cell_length_b 18.080200
_cell_length_c 5.245325
_cell_angle_alpha 90.000000
_cell_angle_beta 90.000000
_cell_angle_gamma 90.000000
_cell_volume 1905.583965
_symmetry_space_group_name_H-M "A M A 2"
_symmetry_group_IT_number 40
_symmetry_cell_setting 'orthorhombic'
loop_
_space_group_symop_operation_xyz
x,y,z
-x,-y,z
1/2-x,y,z
1/2+x,-y,z
x,1/2+y,1/2+z
-x,1/2-y,1/2+z
1/2-x,1/2+y,1/2+z
1/2+x,1/2-y,1/2+z
loop_
_atom_site_type_symbol
_atom_site_label
_atom_site_fract_x
_atom_site_fract_y
_atom_site_fract_z
Si Si1 0.428683 0.032741 0.533860
Si Si2 0.670496 0.255702 0.287736
Si Si3 0.674074 0.582039 0.788793
Si Si4 0.680114 0.957621 0.926795
Si Si5 0.129480 0.658556 0.774357
O O1 0.382303 0.966051 0.428073
O O2 0.385463 0.060335 0.771973
O O3 0.500000 0.000000 0.594617
O O4 0.432347 0.105131 0.351281
O O5 0.750000 0.266305 0.335007
O O6 0.658591 0.168113 0.270483
O O7 0.629925 0.288229 0.528817
O O8 0.652097 0.295780 0.022089
O O9 0.750000 0.574693 0.894151
O O10 0.676975 0.542242 0.513799
O O11 0.750000 0.942934 0.790621
O O12 0.678935 0.906548 0.178222
#
# Coordination Sequence:
#
# PCOD9364256 Si02
#       5
#     8   8   8   8   8
#     4  11  24  43  66  93 133 179 224 264 318 385
#     4  11  22  39  66 100 134 165 206 273 337 386
#     4   9  22  40  65  97 130 168 216 271 330 387
#     4  10  20  38  66  98 132 169 219 270 320 382
#     4  11  23  40  64  98 128 171 211 266 323 386
#
# _framework density 20.990939999999998
#
# number of rings (size 3 to 8) (size 9 to 14) (size 15 to 20)
#    0.000    1.600    2.000    2.400    2.800    6.400 
#    0.000    2.000    0.000    0.000    0.000    0.000 
#    0.000    0.000    0.000    0.000    0.000    0.000 
#
# Total GULP energy -111416.871908 kJ/mol
# GULP energy per Si atom -5570.843595 kJ/mol
# Density = 2.094316 g / cm^3
# Si number density = 20.990940 Si / 1000 Ang^3
#
#
#
# Elastic Constant Matrix: (Units=GPa)
#
#
# Indices 1 2 3 4 5 6 
#
# 1 87.4368 17.8064 23.4721 0.0000 0.0000 0.0000
# 2 17.8064 174.9064 50.4275 0.0000 0.0000 0.0000
# 3 23.4721 50.4275 110.3435 0.0000 0.0000 0.0000
# 4 0.0000 0.0000 0.0000 30.9663 0.0000 0.0000
# 5 0.0000 0.0000 0.0000 0.0000 -18.8912 0.0000
# 6 0.0000 0.0000 0.0000 0.0000 0.0000 10.1904
#
#
#
# Elastic Compliance Matrix: (Units=1/GPa)
#
#
# Indices 1 2 3 4 5 6 
#
# 1 0.012178 -0.000568 -0.002331 0.000000 0.000000 0.000000
# 2 -0.000568 0.006611 -0.002901 0.000000 0.000000 0.000000
# 3 -0.002331 -0.002901 0.010884 0.000000 0.000000 0.000000
# 4 0.000000 0.000000 0.000000 0.032293 0.000000 0.000000
# 5 0.000000 0.000000 0.000000 0.000000 -0.052935 0.000000
# 6 0.000000 0.000000 0.000000 0.000000 0.000000 0.098132
#
#
# Mechanical properties :
#
#
# Convention : Reuss Voigt Hill
#
# Bulk Modulus (GPa) = 55.32577 61.78874 58.55726
# Shear Modulus (GPa) = 40.06794 23.18514 31.62654
#
# Velocity S-wave (km/s) = 4.37375 3.32705 3.88580
# Velocity P-wave (km/s) = 7.20558 6.65273 6.93467
#
# Compressibility (1/GPa) = 0.01807476
#
# Stress axis : x y z
#
# Youngs Moduli (GPa) = 82.11383 151.25283 91.87711
#
# Poissons Ratio (x) = 0.08587 0.21417
# Poissons Ratio (y) = 0.04662 0.26651
# Poissons Ratio (z) = 0.19141 0.43874
#
# Static dielectric constant tensor:
#      x y z
#    x 1.681090 0.000000 0.000000 
#    y 0.000000 1.778060 0.000000 
#    z 0.000000 0.000000 1.854910 
# 
# From -- ./inp_files/1728.got.cif
#   From: 2010.05.17/outbox.cif.g08.bks.cpg/sg40_1_cif.got.tgz:1728.got - 2010.06.03 18:35:42.
