data_PCOD9364894
_publ_section_title
;
Structure prediction by ZEFSAII (Michael W. Deem and Ramdas Pophale) SiO2 
 PCOD9364894
Probable space group: A M A 2
;
_chemical_formula_sum "Si O2"
_cell_formula_units_Z 48
_cell_length_a 10.475199
_cell_length_b 11.318740
_cell_length_c 14.518357
_cell_angle_alpha 90.000000
_cell_angle_beta 90.000000
_cell_angle_gamma 90.000000
_cell_volume 1721.384299
_symmetry_space_group_name_H-M "A M A 2"
_symmetry_group_IT_number 40
_symmetry_cell_setting 'orthorhombic'
loop_
_space_group_symop_operation_xyz
x,y,z
-x,-y,z
1/2-x,y,z
1/2+x,-y,z
x,1/2+y,1/2+z
-x,1/2-y,1/2+z
1/2-x,1/2+y,1/2+z
1/2+x,1/2-y,1/2+z
loop_
_atom_site_type_symbol
_atom_site_label
_atom_site_fract_x
_atom_site_fract_y
_atom_site_fract_z
Si Si1 0.750000 0.540895 0.078540
Si Si2 0.250000 0.164852 0.683641
Si Si3 0.544313 0.676958 0.189269
Si Si4 0.250000 0.566309 0.395171
Si Si5 0.978099 0.370613 0.897481
Si Si6 0.572956 0.105630 0.903269
Si Si7 0.250000 0.825070 0.395655
Si Si8 0.119344 0.572299 0.701399
O O1 0.750000 0.402784 0.086526
O O2 0.621359 0.582492 0.129629
O O3 0.750000 0.584920 0.977437
O O4 0.395356 0.208346 0.681265
O O5 0.250000 0.092921 0.782656
O O6 0.567921 0.633468 0.293742
O O7 0.613667 0.797555 0.162409
O O8 0.411411 0.545887 0.416814
O O9 0.250000 0.696848 0.439143
O O10 0.942693 0.242793 0.942545
O O11 0.889240 0.402813 0.811053
O O12 0.000000 0.500000 0.945397
O O13 0.115359 0.342845 0.848212
O O14 0.750000 0.084249 0.914822
O O15 0.250000 0.509464 0.676765
O O16 0.000000 0.500000 0.668103
#
# Coordination Sequence:
#
# PCOD9364894 Si02
#       8
#     4   4   8   4   8   8   4   8
#     4  12  24  42  63  94 139 184 224 287 372 439
#     4  12  22  36  72 103 136 171 248 314 351 426
#     4  11  21  39  65 104 135 170 231 306 360 413
#     4  12  20  37  67 109 136 170 242 318 372 401
#     4  10  24  38  61  92 136 175 226 280 361 428
#     4  11  18  34  66 100 131 162 225 306 358 402
#     4  12  26  43  64  90 141 191 232 293 373 454
#     4  10  22  37  65  99 137 171 223 294 371 427
#
# _framework density 27.884533000000001
#
# number of rings (size 3 to 8) (size 9 to 14) (size 15 to 20)
#    0.000    1.000    5.833    1.500    9.333    1.333 
#    0.000    0.000    5.500    0.000    0.000    0.000 
#    0.000    0.000    0.000    0.000    0.000    0.000 
#
# Total GULP energy -133637.342591 kJ/mol
# GULP energy per Si atom -5568.222608 kJ/mol
# Density = 2.782107 g / cm^3
# Si number density = 27.884533 Si / 1000 Ang^3
#
#
#
# Elastic Constant Matrix: (Units=GPa)
#
#
# Indices 1 2 3 4 5 6 
#
# 1 255.6988 44.9522 0.9274 0.0000 0.0000 0.0000
# 2 44.9522 159.9544 15.4142 0.0000 0.0000 0.0000
# 3 0.9274 15.4142 49.0893 0.0000 0.0000 0.0000
# 4 0.0000 0.0000 0.0000 24.8273 0.0000 0.0000
# 5 0.0000 0.0000 0.0000 0.0000 8.9040 0.0000
# 6 0.0000 0.0000 0.0000 0.0000 0.0000 55.8857
#
#
#
# Elastic Compliance Matrix: (Units=1/GPa)
#
#
# Indices 1 2 3 4 5 6 
#
# 1 0.004118 -0.001186 0.000295 0.000000 0.000000 0.000000
# 2 -0.001186 0.006788 -0.002109 0.000000 0.000000 0.000000
# 3 0.000295 -0.002109 0.021028 0.000000 0.000000 0.000000
# 4 0.000000 0.000000 0.000000 0.040278 0.000000 0.000000
# 5 0.000000 0.000000 0.000000 0.000000 0.112310 0.000000
# 6 0.000000 0.000000 0.000000 0.000000 0.000000 0.017894
#
#
# Mechanical properties :
#
#
# Convention : Reuss Voigt Hill
#
# Bulk Modulus (GPa) = 38.56006 65.25889 51.90948
# Shear Modulus (GPa) = 23.03502 44.81998 33.92750
#
# Velocity S-wave (km/s) = 2.87729 4.01352 3.49193
# Velocity P-wave (km/s) = 4.98968 6.70312 5.90884
#
# Compressibility (1/GPa) = 0.02593357
#
# Stress axis : x y z
#
# Youngs Moduli (GPa) = 242.82236 147.31312 47.55617
#
# Poissons Ratio (x) = 0.17467 -0.01401
# Poissons Ratio (y) = 0.28792 0.10030
# Poissons Ratio (z) = -0.07152 0.31070
#
# Static dielectric constant tensor:
#      x y z
#    x 3.227760 0.000000 0.000000 
#    y 0.000000 2.230070 0.000000 
#    z 0.000000 0.000000 2.045270 
# 
# From -- ./inp_files/19262.got.cif
#   From: 2010.05.17/outbox.cif.g08.bks.cpg/sg40_10_cif.got.tgz:19262.got - 2010.06.03 18:35:42.
