data_PCOD9364093
_publ_section_title
;
Structure prediction by ZEFSAII (Michael W. Deem and Ramdas Pophale) SiO2 
 PCOD9364093
Probable space group: A M A 2
;
_chemical_formula_sum "Si O2"
_cell_formula_units_Z 48
_cell_length_a 8.647101
_cell_length_b 31.749019
_cell_length_c 9.301057
_cell_angle_alpha 90.000000
_cell_angle_beta 90.000000
_cell_angle_gamma 90.000000
_cell_volume 2553.484043
_symmetry_space_group_name_H-M "A M A 2"
_symmetry_group_IT_number 40
_symmetry_cell_setting 'orthorhombic'
loop_
_space_group_symop_operation_xyz
x,y,z
-x,-y,z
1/2-x,y,z
1/2+x,-y,z
x,1/2+y,1/2+z
-x,1/2-y,1/2+z
1/2-x,1/2+y,1/2+z
1/2+x,1/2-y,1/2+z
loop_
_atom_site_type_symbol
_atom_site_label
_atom_site_fract_x
_atom_site_fract_y
_atom_site_fract_z
Si Si1 0.935501 0.045631 0.381460
Si Si2 0.563280 0.291841 0.890192
Si Si3 0.562709 0.127252 0.892874
Si Si4 0.935516 0.374566 0.713733
Si Si5 0.563834 0.045368 0.715698
Si Si6 0.436760 0.290503 0.212025
O O1 0.750000 0.045238 0.374052
O O2 0.981939 0.052361 0.548891
O O3 0.000448 0.083007 0.285048
O O4 0.000000 0.000000 0.337753
O O5 0.750000 0.291476 0.895490
O O6 0.514126 0.334343 0.808503
O O7 0.513178 0.250908 0.799716
O O8 0.500451 0.290425 0.051238
O O9 0.750000 0.127066 0.900847
O O10 0.512906 0.084184 0.814111
O O11 0.515942 0.167492 0.797709
O O12 0.496002 0.130016 0.052086
O O13 0.750000 0.375781 0.713093
O O14 0.750000 0.043760 0.719388
O O15 0.500000 0.000000 0.761734
O O16 0.250000 0.290245 0.205100
#
# Coordination Sequence:
#
# PCOD9364093 Si02
#       6
#     8   8   8   8   8   8
#     4  10  20  37  60  84 111 145 185 230 279 330
#     4  10  22  38  57  84 115 145 183 232 282 333
#     4  10  21  37  56  80 110 145 187 231 276 330
#     4  11  23  37  54  81 115 149 186 228 277 333
#     4   9  19  35  56  81 107 138 179 225 273 327
#     4  10  21  38  60  84 111 146 188 232 281 337
#
# _framework density 18.797847000000001
#
# number of rings (size 3 to 8) (size 9 to 14) (size 15 to 20)
#    0.000    2.000    0.000    3.000    0.000    6.000 
#    0.000    1.667    0.000    0.000    0.000    0.000 
#    0.000    0.000    0.000    0.000    0.000    0.000 
#
# Total GULP energy -134100.995062 kJ/mol
# GULP energy per Si atom -5587.541461 kJ/mol
# Density = 1.875506 g / cm^3
# Si number density = 18.797847 Si / 1000 Ang^3
#
#
#
# Elastic Constant Matrix: (Units=GPa)
#
#
# Indices 1 2 3 4 5 6 
#
# 1 20.6168 42.2151 36.7634 0.0000 0.0000 0.0000
# 2 42.2151 207.0878 136.0543 0.0000 0.0000 0.0000
# 3 36.7634 136.0543 181.6286 0.0000 0.0000 0.0000
# 4 0.0000 0.0000 0.0000 42.8043 0.0000 0.0000
# 5 0.0000 0.0000 0.0000 0.0000 35.3667 0.0000
# 6 0.0000 0.0000 0.0000 0.0000 0.0000 22.1440
#
#
#
# Elastic Compliance Matrix: (Units=1/GPa)
#
#
# Indices 1 2 3 4 5 6 
#
# 1 0.089867 -0.012541 -0.008796 0.000000 0.000000 0.000000
# 2 -0.012541 0.011258 -0.005895 0.000000 0.000000 0.000000
# 3 -0.008796 -0.005895 0.011702 0.000000 0.000000 0.000000
# 4 0.000000 0.000000 0.000000 0.023362 0.000000 0.000000
# 5 0.000000 0.000000 0.000000 0.000000 0.028275 0.000000
# 6 0.000000 0.000000 0.000000 0.000000 0.000000 0.045159
#
#
# Mechanical properties :
#
#
# Convention : Reuss Voigt Hill
#
# Bulk Modulus (GPa) = 17.13382 93.26655 55.20019
# Shear Modulus (GPa) = 17.63409 33.01636 25.32522
#
# Velocity S-wave (km/s) = 3.06615 4.19548 3.67446
# Velocity P-wave (km/s) = 4.65506 8.55527 6.88703
#
# Compressibility (1/GPa) = 0.05836409
#
# Stress axis : x y z
#
# Youngs Moduli (GPa) = 11.12752 88.82410 85.45602
#
# Poissons Ratio (x) = 1.11391 0.75168
# Poissons Ratio (y) = 0.13955 0.50376
# Poissons Ratio (z) = 0.09788 0.52361
#
# Static dielectric constant tensor:
#      x y z
#    x 1.641240 0.000000 0.000000 
#    y 0.000000 1.635040 0.000000 
#    z 0.000000 0.000000 1.610280 
# 
# From -- ./inp_files/4567.got.cif
#   From: 2010.05.17/outbox.cif.g08.bks.cpg/sg40_3_cif.got.tgz:4567.got - 2010.06.03 18:35:42.
