data_PCOD9364745
_publ_section_title
;
Structure prediction by ZEFSAII (Michael W. Deem and Ramdas Pophale) SiO2 
 PCOD9364745
Probable space group: A M A 2
;
_chemical_formula_sum "Si O2"
_cell_formula_units_Z 64
_cell_length_a 30.525258
_cell_length_b 7.863549
_cell_length_c 12.066945
_cell_angle_alpha 90.000000
_cell_angle_beta 90.000000
_cell_angle_gamma 90.000000
_cell_volume 2896.511612
_symmetry_space_group_name_H-M "A M A 2"
_symmetry_group_IT_number 40
_symmetry_cell_setting 'orthorhombic'
loop_
_space_group_symop_operation_xyz
x,y,z
-x,-y,z
1/2-x,y,z
1/2+x,-y,z
x,1/2+y,1/2+z
-x,1/2-y,1/2+z
1/2-x,1/2+y,1/2+z
1/2+x,1/2-y,1/2+z
loop_
_atom_site_type_symbol
_atom_site_label
_atom_site_fract_x
_atom_site_fract_y
_atom_site_fract_z
Si Si1 0.138589 0.725701 0.715120
Si Si2 0.501278 0.204947 0.911156
Si Si3 0.698456 0.740445 0.006775
Si Si4 0.059972 0.225440 0.708790
Si Si5 0.411694 0.354102 0.495933
Si Si6 0.564255 0.627427 0.078322
Si Si7 0.637070 0.417684 0.339628
Si Si8 0.140261 0.049891 0.444512
O O1 0.173252 0.696391 0.617082
O O2 0.090841 0.748462 0.659980
O O3 0.140878 0.591675 0.814562
O O4 0.147483 0.912241 0.770062
O O5 0.477232 0.256798 0.798627
O O6 0.552890 0.241474 0.917647
O O7 0.500000 0.000000 0.919266
O O8 0.475890 0.291330 0.012934
O O9 0.750000 0.759355 0.016046
O O10 0.678270 0.837443 0.900406
O O11 0.683253 0.545560 0.986651
O O12 0.064707 0.363317 0.612783
O O13 0.107409 0.205168 0.765941
O O14 0.052617 0.041375 0.649381
O O15 0.396431 0.522435 0.436501
O O16 0.370013 0.230157 0.502995
O O17 0.600525 0.568296 0.987687
#
# Coordination Sequence:
#
# PCOD9364745 Si02
#       8
#     8   8   8   8   8   8   8   8
#     4   9  20  40  68  87 121 164 198 242 311 363
#     4  12  24  36  55  92 125 163 214 261 295 342
#     4  11  24  41  65  96 122 149 195 251 309 377
#     4  10  21  40  64  80 122 170 200 256 303 342
#     4  10  23  38  64  89 119 167 212 247 301 357
#     4   9  21  39  60  88 122 164 210 251 296 353
#     4  10  21  42  64  90 121 156 204 246 304 368
#     4   9  20  41  62  90 119 159 204 245 296 371
#
# _framework density 22.095544
#
# number of rings (size 3 to 8) (size 9 to 14) (size 15 to 20)
#    0.000    2.000    1.250    2.250    1.750    4.500 
#    0.000    1.875    0.000    0.000    0.000    0.000 
#    0.000    0.000    0.000    0.000    0.000    0.000 
#
# Total GULP energy -178993.125301 kJ/mol
# GULP energy per Si atom -5593.535166 kJ/mol
# Density = 2.204525 g / cm^3
# Si number density = 22.095544 Si / 1000 Ang^3
#
#
#
# Elastic Constant Matrix: (Units=GPa)
#
#
# Indices 1 2 3 4 5 6 
#
# 1 102.9651 5.5792 39.4095 0.0000 0.0000 0.0000
# 2 5.5792 25.7995 23.5046 0.0000 0.0000 0.0000
# 3 39.4095 23.5046 132.8648 0.0000 0.0000 0.0000
# 4 0.0000 0.0000 0.0000 47.9016 0.0000 0.0000
# 5 0.0000 0.0000 0.0000 0.0000 19.6084 0.0000
# 6 0.0000 0.0000 0.0000 0.0000 0.0000 24.0151
#
#
#
# Elastic Compliance Matrix: (Units=1/GPa)
#
#
# Indices 1 2 3 4 5 6 
#
# 1 0.010967 0.000706 -0.003378 0.000000 0.000000 0.000000
# 2 0.000706 0.046253 -0.008392 0.000000 0.000000 0.000000
# 3 -0.003378 -0.008392 0.010013 0.000000 0.000000 0.000000
# 4 0.000000 0.000000 0.000000 0.020876 0.000000 0.000000
# 5 0.000000 0.000000 0.000000 0.000000 0.050999 0.000000
# 6 0.000000 0.000000 0.000000 0.000000 0.000000 0.041640
#
#
# Mechanical properties :
#
#
# Convention : Reuss Voigt Hill
#
# Bulk Modulus (GPa) = 22.17049 44.29068 33.23058
# Shear Modulus (GPa) = 22.94524 31.18078 27.06301
#
# Velocity S-wave (km/s) = 3.22600 3.76064 3.50354
# Velocity P-wave (km/s) = 4.89202 6.24061 5.60700
#
# Compressibility (1/GPa) = 0.04510501
#
# Stress axis : x y z
#
# Youngs Moduli (GPa) = 91.18609 21.62018 99.87137
#
# Poissons Ratio (x) = -0.01526 0.33733
# Poissons Ratio (y) = -0.06435 0.83810
# Poissons Ratio (z) = 0.30800 0.18143
#
# Static dielectric constant tensor:
#      x y z
#    x 1.776570 0.000000 0.000000 
#    y 0.000000 1.869220 0.000000 
#    z 0.000000 0.000000 1.857450 
# 
# From -- ./inp_files/14432.got.cif
#   From: 2010.05.17/outbox.cif.g08.bks.cpg/sg40_8_cif.got.tgz:14432.got - 2010.06.03 18:35:42.
