data_PCOD9364546
_publ_section_title
;
Structure prediction by ZEFSAII (Michael W. Deem and Ramdas Pophale) SiO2 
 PCOD9364546
Probable space group: A M A 2
;
_chemical_formula_sum "Si O2"
_cell_formula_units_Z 60
_cell_length_a 14.900477
_cell_length_b 9.988205
_cell_length_c 17.751720
_cell_angle_alpha 90.000000
_cell_angle_beta 90.000000
_cell_angle_gamma 90.000000
_cell_volume 2641.971071
_symmetry_space_group_name_H-M "A M A 2"
_symmetry_group_IT_number 40
_symmetry_cell_setting 'orthorhombic'
loop_
_space_group_symop_operation_xyz
x,y,z
-x,-y,z
1/2-x,y,z
1/2+x,-y,z
x,1/2+y,1/2+z
-x,1/2-y,1/2+z
1/2-x,1/2+y,1/2+z
1/2+x,1/2-y,1/2+z
loop_
_atom_site_type_symbol
_atom_site_label
_atom_site_fract_x
_atom_site_fract_y
_atom_site_fract_z
Si Si1 0.856159 0.052431 0.027450
Si Si2 0.468058 0.280825 0.883966
Si Si3 0.156629 0.463514 0.788515
Si Si4 0.103418 0.765191 0.167089
Si Si5 0.147121 0.758665 0.529970
Si Si6 0.586422 0.265644 0.757903
Si Si7 0.606061 0.533728 0.162170
Si Si8 0.500000 0.500000 0.401600
O O1 0.750000 0.077618 0.012869
O O2 0.893394 0.156525 0.088501
O O3 0.863064 0.896777 0.054244
O O4 0.921687 0.058557 0.955188
O O5 0.416808 0.402150 0.844033
O O6 0.566077 0.289466 0.846716
O O7 0.453140 0.123981 0.858723
O O8 0.430627 0.283145 0.968133
O O9 0.250000 0.476386 0.830813
O O10 0.159563 0.350707 0.725307
O O11 0.139695 0.599736 0.742927
O O12 0.142028 0.616165 0.159978
O O13 0.004026 0.768965 0.206331
O O14 0.250000 0.769231 0.499563
O O15 0.135501 0.867240 0.595439
O O16 0.626045 0.121996 0.736693
O O17 0.500000 0.500000 0.155835
#
# Coordination Sequence:
#
# PCOD9364546 Si02
#       8
#     8   8   8   8   8   8   8   4
#     4  10  22  40  63  97 128 167 220 265 326 404
#     4  10  22  40  66  91 120 172 220 266 327 405
#     4  11  23  40  64  91 126 171 225 277 327 400
#     4  10  21  37  63  94 130 165 213 271 330 390
#     4  10  22  41  64  92 131 169 212 270 333 402
#     4  10  23  41  64  90 127 173 225 265 328 398
#     4  10  23  37  63  94 130 168 218 270 334 392
#     4  10  24  38  72  92 128 174 218 274 350 394
#
# _framework density 22.710317
#
# number of rings (size 3 to 8) (size 9 to 14) (size 15 to 20)
#    0.000    1.867    0.000    3.200   14.000    4.267 
#    0.000    0.667    0.000    0.000    0.000    0.000 
#    0.000    0.000    0.000    0.000    0.000    0.000 
#
# Total GULP energy -167068.736101 kJ/mol
# GULP energy per Si atom -5568.957870 kJ/mol
# Density = 2.265863 g / cm^3
# Si number density = 22.710317 Si / 1000 Ang^3
#
#
#
# Elastic Constant Matrix: (Units=GPa)
#
#
# Indices 1 2 3 4 5 6 
#
# 1 63.9812 30.6871 19.3812 0.0000 0.0000 0.0000
# 2 30.6871 193.4961 42.5449 0.0000 0.0000 0.0000
# 3 19.3812 42.5449 53.2044 0.0000 0.0000 0.0000
# 4 0.0000 0.0000 0.0000 43.9278 0.0000 0.0000
# 5 0.0000 0.0000 0.0000 0.0000 6.0652 0.0000
# 6 0.0000 0.0000 0.0000 0.0000 0.0000 768.1066
#
#
#
# Elastic Compliance Matrix: (Units=1/GPa)
#
#
# Indices 1 2 3 4 5 6 
#
# 1 0.018026 -0.001717 -0.005194 0.000000 0.000000 0.000000
# 2 -0.001717 0.006434 -0.004520 0.000000 0.000000 0.000000
# 3 -0.005194 -0.004520 0.024301 0.000000 0.000000 0.000000
# 4 0.000000 0.000000 0.000000 0.022765 0.000000 0.000000
# 5 0.000000 0.000000 0.000000 0.000000 0.164876 0.000000
# 6 0.000000 0.000000 0.000000 0.000000 0.000000 0.001302
#
#
# Mechanical properties :
#
#
# Convention : Reuss Voigt Hill
#
# Bulk Modulus (GPa) = 38.60772 55.10090 46.85431
# Shear Modulus (GPa) = 18.57366 178.15783 98.36574
#
# Velocity S-wave (km/s) = 2.86291 8.86669 6.58842
# Velocity P-wave (km/s) = 5.28823 11.36396 8.86298
#
# Compressibility (1/GPa) = 0.02590155
#
# Stress axis : x y z
#
# Youngs Moduli (GPa) = 55.47444 155.42208 41.14980
#
# Poissons Ratio (x) = 0.26684 0.21372
# Poissons Ratio (y) = 0.09524 0.18598
# Poissons Ratio (z) = 0.28812 0.70245
#
# Static dielectric constant tensor:
#      x y z
#    x 1.922730 0.000000 0.000000 
#    y 0.000000 1.914190 0.000000 
#    z 0.000000 0.000000 1.904970 
# 
# From -- ./inp_files/21125.got.cif
#   From: 2010.05.17/outbox.cif.g08.bks.cpg/sg40_11_cif.got.tgz:21125.got - 2010.06.03 18:35:42.
