data_PCOD9364484
_publ_section_title
;
Structure prediction by ZEFSAII (Michael W. Deem and Ramdas Pophale) SiO2 
 PCOD9364484
Probable space group: A M A 2
;
_chemical_formula_sum "Si O2"
_cell_formula_units_Z 44
_cell_length_a 16.346752
_cell_length_b 12.374643
_cell_length_c 12.067428
_cell_angle_alpha 90.000000
_cell_angle_beta 90.000000
_cell_angle_gamma 90.000000
_cell_volume 2441.062330
_symmetry_space_group_name_H-M "A M A 2"
_symmetry_group_IT_number 40
_symmetry_cell_setting 'orthorhombic'
loop_
_space_group_symop_operation_xyz
x,y,z
-x,-y,z
1/2-x,y,z
1/2+x,-y,z
x,1/2+y,1/2+z
-x,1/2-y,1/2+z
1/2-x,1/2+y,1/2+z
1/2+x,1/2-y,1/2+z
loop_
_atom_site_type_symbol
_atom_site_label
_atom_site_fract_x
_atom_site_fract_y
_atom_site_fract_z
Si Si1 0.844242 0.760476 0.402580
Si Si2 0.500000 0.000000 0.642204
Si Si3 0.016165 0.237389 0.566249
Si Si4 0.445626 0.101758 0.235085
Si Si5 0.841223 0.525084 0.293695
Si Si6 0.420065 0.076916 0.994373
O O1 0.750000 0.786277 0.422470
O O2 0.894695 0.745074 0.515330
O O3 0.848280 0.649818 0.331722
O O4 0.889667 0.851393 0.330642
O O5 0.502203 0.111768 0.575953
O O6 0.582659 0.997282 0.715473
O O7 0.000883 0.301096 0.681858
O O8 0.953786 0.301160 0.484957
O O9 0.396299 0.065576 0.123658
O O10 0.500000 0.000000 0.269629
O O11 0.750000 0.507825 0.247199
O O12 0.854123 0.456097 0.405476
O O13 0.500000 0.000000 0.978816
#
# Coordination Sequence:
#
# PCOD9364484 Si02
#       6
#     8   4   8   8   8   8
#     4  11  21  36  57  89 120 149 195 248 298 354
#     4  12  22  38  58  84 124 156 194 242 300 360
#     4  10  21  36  59  81 111 162 190 237 290 361
#     4   9  19  36  59  82 113 153 197 228 288 355
#     4  11  20  35  63  89 115 150 198 252 295 347
#     4   9  16  34  58  82 105 142 197 236 276 347
#
# _framework density 18.024939
#
# number of rings (size 3 to 8) (size 9 to 14) (size 15 to 20)
#    1.091    0.727    4.545    0.000    1.273    1.455 
#    0.000    1.818    0.000    2.182    0.000    0.000 
#    0.000    0.000    0.000    0.000    0.000    0.000 
#
# Total GULP energy -122502.969077 kJ/mol
# GULP energy per Si atom -5568.316776 kJ/mol
# Density = 1.798391 g / cm^3
# Si number density = 18.024939 Si / 1000 Ang^3
#
#
#
# Elastic Constant Matrix: (Units=GPa)
#
#
# Indices 1 2 3 4 5 6 
#
# 1 93.6685 22.8414 24.2890 0.0000 0.0000 0.0000
# 2 22.8414 114.6161 5.5063 0.0000 0.0000 0.0000
# 3 24.2890 5.5063 21.9813 0.0000 0.0000 0.0000
# 4 0.0000 0.0000 0.0000 15.1322 0.0000 0.0000
# 5 0.0000 0.0000 0.0000 0.0000 7.0863 0.0000
# 6 0.0000 0.0000 0.0000 0.0000 0.0000 18.1728
#
#
#
# Elastic Compliance Matrix: (Units=1/GPa)
#
#
# Indices 1 2 3 4 5 6 
#
# 1 0.015540 -0.002300 -0.016596 0.000000 0.000000 0.000000
# 2 -0.002300 0.009171 0.000244 0.000000 0.000000 0.000000
# 3 -0.016596 0.000244 0.063770 0.000000 0.000000 0.000000
# 4 0.000000 0.000000 0.000000 0.066084 0.000000 0.000000
# 5 0.000000 0.000000 0.000000 0.000000 0.141117 0.000000
# 6 0.000000 0.000000 0.000000 0.000000 0.000000 0.055027
#
#
# Mechanical properties :
#
#
# Convention : Reuss Voigt Hill
#
# Bulk Modulus (GPa) = 19.53947 37.28215 28.41081
# Shear Modulus (GPa) = 12.34345 19.92021 16.13183
#
# Velocity S-wave (km/s) = 2.61970 3.32798 2.99486
# Velocity P-wave (km/s) = 4.47373 5.95784 5.26831
#
# Compressibility (1/GPa) = 0.05117847
#
# Stress axis : x y z
#
# Youngs Moduli (GPa) = 64.34975 109.03513 15.68133
#
# Poissons Ratio (x) = 0.25074 0.26024
# Poissons Ratio (y) = 0.14798 -0.00382
# Poissons Ratio (z) = 1.06792 -0.02657
#
# Static dielectric constant tensor:
#      x y z
#    x 1.613150 0.000000 0.000000 
#    y 0.000000 1.636420 0.000000 
#    z 0.000000 0.000000 1.637380 
# 
# From -- ./inp_files/16915.got.cif
#   From: 2010.05.17/outbox.cif.g08.bks.cpg/sg40_9_cif.got.tgz:16915.got - 2010.06.03 18:35:42.
