data_PCOD9364892
_publ_section_title
;
Structure prediction by ZEFSAII (Michael W. Deem and Ramdas Pophale) SiO2 
 PCOD9364892
Probable space group: A M A 2
;
_chemical_formula_sum "Si O2"
_cell_formula_units_Z 40
_cell_length_a 10.041927
_cell_length_b 9.524877
_cell_length_c 22.370024
_cell_angle_alpha 90.000000
_cell_angle_beta 90.000000
_cell_angle_gamma 90.000000
_cell_volume 2139.650729
_symmetry_space_group_name_H-M "A M A 2"
_symmetry_group_IT_number 40
_symmetry_cell_setting 'orthorhombic'
loop_
_space_group_symop_operation_xyz
x,y,z
-x,-y,z
1/2-x,y,z
1/2+x,-y,z
x,1/2+y,1/2+z
-x,1/2-y,1/2+z
1/2-x,1/2+y,1/2+z
1/2+x,1/2-y,1/2+z
loop_
_atom_site_type_symbol
_atom_site_label
_atom_site_fract_x
_atom_site_fract_y
_atom_site_fract_z
Si Si1 0.250000 0.335912 0.553700
Si Si2 0.250000 0.864289 0.194455
Si Si3 0.250000 0.135667 0.990592
Si Si4 0.750000 0.560083 0.371949
Si Si5 0.750000 0.805005 0.807529
Si Si6 0.000000 0.500000 0.757956
Si Si7 0.470579 0.708527 0.859979
Si Si8 0.491923 0.660830 0.995736
O O1 0.250000 0.331063 0.625112
O O2 0.250000 0.501200 0.535145
O O3 0.376665 0.253092 0.526612
O O4 0.250000 0.732424 0.238593
O O5 0.383321 0.943402 0.215859
O O6 0.376497 0.239798 0.997618
O O7 0.250000 0.049443 0.927356
O O8 0.750000 0.469575 0.312898
O O9 0.620080 0.655484 0.369141
O O10 0.620858 0.745886 0.841362
O O11 0.068799 0.609258 0.804648
O O12 0.460732 0.642147 0.925316
O O13 0.500000 0.500000 0.020276
#
# Coordination Sequence:
#
# PCOD9364892 Si02
#       8
#     4   4   4   4   4   4   8   8
#     4  12  27  44  68  96 135 180 233 270 322 403
#     4  10  25  44  64  90 128 180 226 265 312 395
#     4  12  25  39  67  99 138 173 217 277 332 399
#     4  12  21  34  62 101 132 157 208 264 342 386
#     4  10  22  37  59  86 131 160 206 266 322 379
#     4  10  22  42  66  94 126 172 222 270 332 388
#     4  11  20  36  62  96 127 162 207 272 332 394
#     4  12  24  42  66 101 136 175 214 277 346 399
#
# _framework density 18.694641000000001
#
# number of rings (size 3 to 8) (size 9 to 14) (size 15 to 20)
#    0.000    0.800    5.000    2.400    2.800    0.000 
#    0.000    4.000    4.400    0.000    0.000    0.000 
#    0.000    0.000    0.000    0.000    0.000    0.000 
#
# Total GULP energy -111500.475699 kJ/mol
# GULP energy per Si atom -5575.023785 kJ/mol
# Density = 1.865209 g / cm^3
# Si number density = 18.694641 Si / 1000 Ang^3
#
#
#
# Elastic Constant Matrix: (Units=GPa)
#
#
# Indices 1 2 3 4 5 6 
#
# 1 130.9771 63.6154 63.1246 0.0000 0.0000 0.0000
# 2 63.6154 143.4501 55.2231 0.0000 0.0000 0.0000
# 3 63.1246 55.2231 149.5583 0.0000 0.0000 0.0000
# 4 0.0000 0.0000 0.0000 14.6019 0.0000 0.0000
# 5 0.0000 0.0000 0.0000 0.0000 -11.6839 0.0000
# 6 0.0000 0.0000 0.0000 0.0000 0.0000 30.4353
#
#
#
# Elastic Compliance Matrix: (Units=1/GPa)
#
#
# Indices 1 2 3 4 5 6 
#
# 1 0.010973 -0.003594 -0.003304 0.000000 0.000000 0.000000
# 2 -0.003594 0.009303 -0.001918 0.000000 0.000000 0.000000
# 3 -0.003304 -0.001918 0.008789 0.000000 0.000000 0.000000
# 4 0.000000 0.000000 0.000000 0.068484 0.000000 0.000000
# 5 0.000000 0.000000 0.000000 0.000000 -0.085588 0.000000
# 6 0.000000 0.000000 0.000000 0.000000 0.000000 0.032857
#
#
# Mechanical properties :
#
#
# Convention : Reuss Voigt Hill
#
# Bulk Modulus (GPa) = 87.47059 87.54573 87.50816
# Shear Modulus (GPa) = 75.45660 22.80549 49.13104
#
# Velocity S-wave (km/s) = 6.36006 3.49649 5.13204
# Velocity P-wave (km/s) = 10.04114 7.95183 9.05693
#
# Compressibility (1/GPa) = 0.01143241
#
# Stress axis : x y z
#
# Youngs Moduli (GPa) = 91.13159 107.48761 113.77457
#
# Poissons Ratio (x) = 0.38633 0.37595
# Poissons Ratio (y) = 0.32754 0.21824
# Poissons Ratio (z) = 0.30113 0.20618
#
# Static dielectric constant tensor:
#      x y z
#    x 1.675510 0.000000 0.000000 
#    y 0.000000 1.701210 0.000000 
#    z 0.000000 0.000000 1.625520 
# 
# From -- ./inp_files/23896.got.cif
#   From: 2010.05.17/outbox.cif.g08.bks.cpg/sg40_12_cif.got.tgz:23896.got - 2010.06.03 18:35:42.
