data_PCOD9364159
_publ_section_title
;
Structure prediction by ZEFSAII (Michael W. Deem and Ramdas Pophale) SiO2 
 PCOD9364159
Probable space group: A M A 2
;
_chemical_formula_sum "Si O2"
_cell_formula_units_Z 44
_cell_length_a 14.310348
_cell_length_b 18.873624
_cell_length_c 8.464866
_cell_angle_alpha 90.000000
_cell_angle_beta 90.000000
_cell_angle_gamma 90.000000
_cell_volume 2286.259807
_symmetry_space_group_name_H-M "A M A 2"
_symmetry_group_IT_number 40
_symmetry_cell_setting 'orthorhombic'
loop_
_space_group_symop_operation_xyz
x,y,z
-x,-y,z
1/2-x,y,z
1/2+x,-y,z
x,1/2+y,1/2+z
-x,1/2-y,1/2+z
1/2-x,1/2+y,1/2+z
1/2+x,1/2-y,1/2+z
loop_
_atom_site_type_symbol
_atom_site_label
_atom_site_fract_x
_atom_site_fract_y
_atom_site_fract_z
Si Si1 0.439901 0.808948 0.145340
Si Si2 0.750000 0.528260 0.541288
Si Si3 0.904628 0.300244 0.392775
Si Si4 0.250000 0.589969 0.299309
Si Si5 0.250000 0.289526 0.085728
Si Si6 0.750000 0.684845 0.446714
Si Si7 0.907959 0.546109 0.796838
Si Si8 0.750000 0.039278 0.549221
O O1 0.457013 0.740036 0.250973
O O2 0.431906 0.871849 0.272146
O O3 0.519517 0.826795 0.018680
O O4 0.341968 0.799016 0.051401
O O5 0.750000 0.453768 0.459525
O O6 0.750000 0.598510 0.431950
O O7 0.841652 0.531734 0.647677
O O8 0.840175 0.359403 0.309676
O O9 0.836972 0.246650 0.492353
O O10 0.250000 0.526037 0.172527
O O11 0.250000 0.277125 0.276152
O O12 0.250000 0.375327 0.079533
O O13 0.000000 0.500000 0.796798
O O14 0.843705 0.530355 0.946421
#
# Coordination Sequence:
#
# PCOD9364159 Si02
#       8
#     8   4   8   4   4   4   8   4
#     4  11  22  41  62  95 128 173 214 265 329 395
#     4   9  19  36  61  83 124 161 212 260 319 378
#     4  11  24  39  66  92 136 164 219 273 325 391
#     4  11  23  41  59  97 124 161 211 283 313 369
#     4  11  20  42  63  90 122 179 207 266 333 392
#     4  10  20  37  66  86 120 177 217 253 326 396
#     4  10  21  39  63  90 122 170 210 259 320 393
#     4  11  22  42  65  88 128 164 215 266 319 385
#
# _framework density 19.245407
#
# number of rings (size 3 to 8) (size 9 to 14) (size 15 to 20)
#    0.000    1.455    2.727    3.818    0.000    1.455 
#    3.273   10.000    0.000    0.000    0.000    0.000 
#    0.000    0.000    0.000    0.000    0.000    0.000 
#
# Total GULP energy -122648.746288 kJ/mol
# GULP energy per Si atom -5574.943013 kJ/mol
# Density = 1.920160 g / cm^3
# Si number density = 19.245407 Si / 1000 Ang^3
#
#
#
# Elastic Constant Matrix: (Units=GPa)
#
#
# Indices 1 2 3 4 5 6 
#
# 1 93.4290 15.8232 9.8742 0.0000 0.0000 0.0000
# 2 15.8232 86.4053 25.7324 0.0000 0.0000 0.0000
# 3 9.8742 25.7324 39.1086 0.0000 0.0000 0.0000
# 4 0.0000 0.0000 0.0000 40.5846 0.0000 0.0000
# 5 0.0000 0.0000 0.0000 0.0000 32.5628 0.0000
# 6 0.0000 0.0000 0.0000 0.0000 0.0000 14.7672
#
#
#
# Elastic Compliance Matrix: (Units=1/GPa)
#
#
# Indices 1 2 3 4 5 6 
#
# 1 0.011150 -0.001497 -0.001830 0.000000 0.000000 0.000000
# 2 -0.001497 0.014595 -0.009225 0.000000 0.000000 0.000000
# 3 -0.001830 -0.009225 0.032102 0.000000 0.000000 0.000000
# 4 0.000000 0.000000 0.000000 0.024640 0.000000 0.000000
# 5 0.000000 0.000000 0.000000 0.000000 0.030710 0.000000
# 6 0.000000 0.000000 0.000000 0.000000 0.000000 0.067718
#
#
# Mechanical properties :
#
#
# Convention : Reuss Voigt Hill
#
# Bulk Modulus (GPa) = 30.54147 35.75583 33.14865
# Shear Modulus (GPa) = 23.04860 28.75045 25.89953
#
# Velocity S-wave (km/s) = 3.46441 3.86928 3.67243
# Velocity P-wave (km/s) = 5.64861 6.21136 5.93666
#
# Compressibility (1/GPa) = 0.03274236
#
# Stress axis : x y z
#
# Youngs Moduli (GPa) = 89.68400 68.51757 31.15087
#
# Poissons Ratio (x) = 0.10256 0.05702
# Poissons Ratio (y) = 0.13424 0.28737
# Poissons Ratio (z) = 0.16416 0.63208
#
# Static dielectric constant tensor:
#      x y z
#    x 1.652310 0.000000 0.000000 
#    y 0.000000 1.684890 0.000000 
#    z 0.000000 0.000000 1.681180 
# 
# From -- ./inp_files/6395.got.cif
#   From: 2010.05.17/outbox.cif.g08.bks.cpg/sg40_4_cif.got.tgz:6395.got - 2010.06.03 18:35:42.
