data_PCOD9364044
_publ_section_title
;
Structure prediction by ZEFSAII (Michael W. Deem and Ramdas Pophale) SiO2 
 PCOD9364044
Probable space group: A M A 2
;
_chemical_formula_sum "Si O2"
_cell_formula_units_Z 64
_cell_length_a 10.851474
_cell_length_b 32.774729
_cell_length_c 8.958295
_cell_angle_alpha 90.000000
_cell_angle_beta 90.000000
_cell_angle_gamma 90.000000
_cell_volume 3186.054521
_symmetry_space_group_name_H-M "A M A 2"
_symmetry_group_IT_number 40
_symmetry_cell_setting 'orthorhombic'
loop_
_space_group_symop_operation_xyz
x,y,z
-x,-y,z
1/2-x,y,z
1/2+x,-y,z
x,1/2+y,1/2+z
-x,1/2-y,1/2+z
1/2-x,1/2+y,1/2+z
1/2+x,1/2-y,1/2+z
loop_
_atom_site_type_symbol
_atom_site_label
_atom_site_fract_x
_atom_site_fract_y
_atom_site_fract_z
Si Si1 0.980652 0.382645 0.884790
Si Si2 0.884482 0.164749 0.150526
Si Si3 0.885888 0.972805 0.891857
Si Si4 0.108429 0.532386 0.749438
Si Si5 0.386261 0.173367 0.933017
Si Si6 0.886772 0.293566 0.956389
Si Si7 0.388161 0.105508 0.685639
Si Si8 0.036190 0.246875 0.744461
O O1 0.919837 0.422172 0.809020
O O2 0.906743 0.339655 0.900918
O O3 0.094021 0.367646 0.783610
O O4 0.990612 0.395144 0.058025
O O5 0.750000 0.158404 0.080750
O O6 0.892021 0.211151 0.211062
O O7 0.001544 0.161764 0.040774
O O8 0.750000 0.990969 0.862860
O O9 0.895058 0.931317 0.800647
O O10 0.894705 0.965549 0.069208
O O11 0.000000 0.000000 0.845397
O O12 0.250000 0.520637 0.792390
O O13 0.000000 0.500000 0.794442
O O14 0.250000 0.167390 0.001001
O O15 0.394018 0.145531 0.786029
O O16 0.401968 0.218797 0.870021
O O17 0.750000 0.289126 0.016968
O O18 0.910680 0.263402 0.818201
O O19 0.973185 0.279080 0.092653
O O20 0.250000 0.103681 0.615293
#
# Coordination Sequence:
#
# PCOD9364044 Si02
#       8
#     8   8   8   8   8   8   8   8
#     4  11  23  39  63  93 123 165 213 257 317 374
#     4  11  25  43  61  86 128 167 206 262 322 377
#     4   9  19  37  60  87 119 155 197 247 303 366
#     4  10  21  39  64  93 125 165 212 259 308 376
#     4  11  22  38  62  87 114 156 211 257 306 372
#     4  11  22  40  61  87 127 165 212 269 320 378
#     4  10  20  36  61  91 122 153 197 260 309 358
#     4  11  22  38  59  88 117 162 208 259 321 374
#
# _framework density 20.087540000000001
#
# number of rings (size 3 to 8) (size 9 to 14) (size 15 to 20)
#    0.000    1.500    2.500    3.000    0.000    5.000 
#    0.000    5.000    0.000    0.000    0.000    0.000 
#    0.000    0.000    0.000    0.000    0.000    0.000 
#
# Total GULP energy -178411.497380 kJ/mol
# GULP energy per Si atom -5575.359293 kJ/mol
# Density = 2.004182 g / cm^3
# Si number density = 20.087540 Si / 1000 Ang^3
#
#
#
# Elastic Constant Matrix: (Units=GPa)
#
#
# Indices 1 2 3 4 5 6 
#
# 1 111.7947 50.6345 40.9588 0.0000 0.0000 0.0000
# 2 50.6345 104.9260 27.0764 0.0000 0.0000 0.0000
# 3 40.9588 27.0764 48.0320 0.0000 0.0000 0.0000
# 4 0.0000 0.0000 0.0000 37.3298 0.0000 0.0000
# 5 0.0000 0.0000 0.0000 0.0000 52.9832 0.0000
# 6 0.0000 0.0000 0.0000 0.0000 0.0000 14.7556
#
#
#
# Elastic Compliance Matrix: (Units=1/GPa)
#
#
# Indices 1 2 3 4 5 6 
#
# 1 0.014619 -0.004491 -0.009934 0.000000 0.000000 0.000000
# 2 -0.004491 0.012533 -0.003235 0.000000 0.000000 0.000000
# 3 -0.009934 -0.003235 0.031115 0.000000 0.000000 0.000000
# 4 0.000000 0.000000 0.000000 0.026788 0.000000 0.000000
# 5 0.000000 0.000000 0.000000 0.000000 0.018874 0.000000
# 6 0.000000 0.000000 0.000000 0.000000 0.000000 0.067771
#
#
# Mechanical properties :
#
#
# Convention : Reuss Voigt Hill
#
# Bulk Modulus (GPa) = 43.58263 55.78802 49.68533
# Shear Modulus (GPa) = 23.29172 30.75257 27.02215
#
# Velocity S-wave (km/s) = 3.40885 3.91695 3.67170
# Velocity P-wave (km/s) = 6.10223 6.94906 6.53937
#
# Compressibility (1/GPa) = 0.02294492
#
# Stress axis : x y z
#
# Youngs Moduli (GPa) = 68.40519 79.79176 32.13926
#
# Poissons Ratio (x) = 0.35835 0.31928
# Poissons Ratio (y) = 0.30721 0.10397
# Poissons Ratio (z) = 0.67956 0.25814
#
# Static dielectric constant tensor:
#      x y z
#    x 1.688900 0.000000 0.000000 
#    y 0.000000 1.716520 0.000000 
#    z 0.000000 0.000000 1.731540 
# 
# From -- ./inp_files/5699.got.cif
#   From: 2010.05.17/outbox.cif.g08.bks.cpg/sg40_3_cif.got.tgz:5699.got - 2010.06.03 18:35:42.
