data_PCOD9364190
_publ_section_title
;
Structure prediction by ZEFSAII (Michael W. Deem and Ramdas Pophale) SiO2 
 PCOD9364190
Probable space group: A M A 2
;
_chemical_formula_sum "Si O2"
_cell_formula_units_Z 64
_cell_length_a 20.870784
_cell_length_b 16.751146
_cell_length_c 9.470784
_cell_angle_alpha 90.000000
_cell_angle_beta 90.000000
_cell_angle_gamma 90.000000
_cell_volume 3311.076532
_symmetry_space_group_name_H-M "A M A 2"
_symmetry_group_IT_number 40
_symmetry_cell_setting 'orthorhombic'
loop_
_space_group_symop_operation_xyz
x,y,z
-x,-y,z
1/2-x,y,z
1/2+x,-y,z
x,1/2+y,1/2+z
-x,1/2-y,1/2+z
1/2-x,1/2+y,1/2+z
1/2+x,1/2-y,1/2+z
loop_
_atom_site_type_symbol
_atom_site_label
_atom_site_fract_x
_atom_site_fract_y
_atom_site_fract_z
Si Si1 0.113804 0.220993 0.989630
Si Si2 0.622838 0.594353 0.042953
Si Si3 0.475000 0.417281 0.285240
Si Si4 0.172228 0.550839 0.542181
Si Si5 0.320613 0.531747 0.216675
Si Si6 0.569717 0.543072 0.741113
Si Si7 0.901626 0.324648 0.178907
Si Si8 0.962196 0.184991 0.037261
O O1 0.124846 0.218104 0.819912
O O2 0.129669 0.309975 0.041928
O O3 0.153677 0.145224 0.048048
O O4 0.037995 0.205287 0.023204
O O5 0.566031 0.567487 0.148040
O O6 0.678846 0.546876 0.121672
O O7 0.603713 0.562687 0.889390
O O8 0.500000 0.500000 0.349618
O O9 0.533947 0.365118 0.234331
O O10 0.440606 0.364126 0.400920
O O11 0.250000 0.539022 0.566629
O O12 0.156022 0.523394 0.379619
O O13 0.122214 0.504760 0.645286
O O14 0.250000 0.563409 0.236235
O O15 0.358597 0.601146 0.137394
O O16 0.500000 0.500000 0.756711
O O17 0.551119 0.626799 0.667730
O O18 0.920790 0.263706 0.058715
#
# Coordination Sequence:
#
# PCOD9364190 Si02
#       8
#     8   8   8   8   8   8   8   8
#     4  10  21  38  61  96 126 164 205 262 323 387
#     4  12  23  38  61  96 135 161 206 268 328 376
#     4  11  21  36  60  91 123 169 206 253 327 388
#     4  10  23  47  70  89 122 176 225 262 317 396
#     4  10  23  43  67  88 122 175 222 257 317 398
#     4  12  24  38  64 101 135 167 213 272 325 380
#     4  10  20  38  60  89 126 160 207 264 318 374
#     4  11  21  36  62  94 131 160 216 263 316 380
#
# _framework density 19.329060999999999
#
# number of rings (size 3 to 8) (size 9 to 14) (size 15 to 20)
#    0.000    1.250    5.000    1.500    1.750    1.000 
#    2.250    0.625    0.000    0.750    0.000    0.000 
#    0.000    0.000    0.000    0.000    0.000    0.000 
#
# Total GULP energy -178388.751431 kJ/mol
# GULP energy per Si atom -5574.648482 kJ/mol
# Density = 1.928507 g / cm^3
# Si number density = 19.329061 Si / 1000 Ang^3
#
#
#
# Elastic Constant Matrix: (Units=GPa)
#
#
# Indices 1 2 3 4 5 6 
#
# 1 70.7138 37.7001 30.3746 0.0000 0.0000 0.0000
# 2 37.7001 130.0454 53.1394 0.0000 0.0000 0.0000
# 3 30.3746 53.1394 94.4663 0.0000 0.0000 0.0000
# 4 0.0000 0.0000 0.0000 36.4589 0.0000 0.0000
# 5 0.0000 0.0000 0.0000 0.0000 18.5008 0.0000
# 6 0.0000 0.0000 0.0000 0.0000 0.0000 11.3262
#
#
#
# Elastic Compliance Matrix: (Units=1/GPa)
#
#
# Indices 1 2 3 4 5 6 
#
# 1 0.017635 -0.003630 -0.003629 0.000000 0.000000 0.000000
# 2 -0.003630 0.010732 -0.004870 0.000000 0.000000 0.000000
# 3 -0.003629 -0.004870 0.014492 0.000000 0.000000 0.000000
# 4 0.000000 0.000000 0.000000 0.027428 0.000000 0.000000
# 5 0.000000 0.000000 0.000000 0.000000 0.054052 0.000000
# 6 0.000000 0.000000 0.000000 0.000000 0.000000 0.088291
#
#
# Mechanical properties :
#
#
# Convention : Reuss Voigt Hill
#
# Bulk Modulus (GPa) = 53.75561 59.73930 56.74745
# Shear Modulus (GPa) = 20.56880 24.85795 22.71338
#
# Velocity S-wave (km/s) = 3.26565 3.59003 3.43168
# Velocity P-wave (km/s) = 6.48772 6.93960 6.71746
#
# Compressibility (1/GPa) = 0.01860271
#
# Stress axis : x y z
#
# Youngs Moduli (GPa) = 56.70443 93.18121 69.00412
#
# Poissons Ratio (x) = 0.33822 0.25039
# Poissons Ratio (y) = 0.20582 0.33603
# Poissons Ratio (z) = 0.20576 0.45377
#
# Static dielectric constant tensor:
#      x y z
#    x 1.728230 0.000000 0.000000 
#    y 0.000000 1.709420 0.000000 
#    z 0.000000 0.000000 1.683960 
# 
# From -- ./inp_files/8468.got.cif
#   From: 2010.05.17/outbox.cif.g08.bks.cpg/sg40_5_cif.got.tgz:8468.got - 2010.06.03 18:35:42.
