data_PCOD9364469
_publ_section_title
;
Structure prediction by ZEFSAII (Michael W. Deem and Ramdas Pophale) SiO2 
 PCOD9364469
Probable space group: A M A 2
;
_chemical_formula_sum "Si O2"
_cell_formula_units_Z 64
_cell_length_a 16.234822
_cell_length_b 16.421222
_cell_length_c 12.618694
_cell_angle_alpha 90.000000
_cell_angle_beta 90.000000
_cell_angle_gamma 90.000000
_cell_volume 3364.088502
_symmetry_space_group_name_H-M "A M A 2"
_symmetry_group_IT_number 40
_symmetry_cell_setting 'orthorhombic'
loop_
_space_group_symop_operation_xyz
x,y,z
-x,-y,z
1/2-x,y,z
1/2+x,-y,z
x,1/2+y,1/2+z
-x,1/2-y,1/2+z
1/2-x,1/2+y,1/2+z
1/2+x,1/2-y,1/2+z
loop_
_atom_site_type_symbol
_atom_site_label
_atom_site_fract_x
_atom_site_fract_y
_atom_site_fract_z
Si Si1 0.409599 0.861553 0.523120
Si Si2 0.402816 0.484384 0.193652
Si Si3 0.399440 0.504194 0.863392
Si Si4 0.608209 0.871826 0.539716
Si Si5 0.407463 0.465338 0.631280
Si Si6 0.150846 0.217325 0.890513
Si Si7 0.346747 0.533793 0.412839
Si Si8 0.153212 0.787591 0.159378
O O1 0.508869 0.862788 0.532290
O O2 0.380941 0.774152 0.484830
O O3 0.379063 0.902346 0.631897
O O4 0.378766 0.924610 0.432597
O O5 0.500000 0.500000 0.180693
O O6 0.366515 0.562923 0.131319
O O7 0.383364 0.482642 0.316447
O O8 0.500000 0.500000 0.861323
O O9 0.370914 0.497193 0.742997
O O10 0.370513 0.583156 0.929098
O O11 0.642769 0.784730 0.573876
O O12 0.500000 0.500000 0.625247
O O13 0.362799 0.497286 0.527278
O O14 0.399918 0.367595 0.635007
O O15 0.250000 0.216899 0.894069
O O16 0.119299 0.125567 0.903465
O O17 0.127745 0.252497 0.774831
O O18 0.250000 0.538168 0.393451
O O19 0.250000 0.810410 0.164113
#
# Coordination Sequence:
#
# PCOD9364469 Si02
#       8
#     8   8   8   8   8   8   8   8
#     4   9  17  34  59  86 113 144 194 241 288 340
#     4   9  18  35  58  86 113 147 192 240 290 341
#     4   8  16  34  57  85 113 144 185 241 291 338
#     4   9  18  34  61  87 114 144 187 250 287 332
#     4  11  23  39  60  86 115 155 198 237 297 355
#     4  10  21  36  56  83 117 153 193 237 285 346
#     4  11  23  39  55  78 119 157 190 241 293 351
#     4  11  22  39  59  86 118 153 195 239 288 350
#
# _framework density 19.024470000000001
#
# number of rings (size 3 to 8) (size 9 to 14) (size 15 to 20)
#    0.000    2.250    2.500    2.250    1.750    0.500 
#    0.000    4.375    0.000    1.500    0.000    0.000 
#    0.000    0.000    0.000    0.000    0.000    0.000 
#
# Total GULP energy -178427.173684 kJ/mol
# GULP energy per Si atom -5575.849178 kJ/mol
# Density = 1.898117 g / cm^3
# Si number density = 19.024470 Si / 1000 Ang^3
#
#
#
# Elastic Constant Matrix: (Units=GPa)
#
#
# Indices 1 2 3 4 5 6 
#
# 1 14.5483 4.8459 4.8895 0.0000 0.0000 0.0000
# 2 4.8459 82.9134 49.9114 0.0000 0.0000 0.0000
# 3 4.8895 49.9114 123.5373 0.0000 0.0000 0.0000
# 4 0.0000 0.0000 0.0000 36.6172 0.0000 0.0000
# 5 0.0000 0.0000 0.0000 0.0000 4.7486 0.0000
# 6 0.0000 0.0000 0.0000 0.0000 0.0000 24.9434
#
#
#
# Elastic Compliance Matrix: (Units=1/GPa)
#
#
# Indices 1 2 3 4 5 6 
#
# 1 0.070306 -0.003216 -0.001483 0.000000 0.000000 0.000000
# 2 -0.003216 0.016084 -0.006371 0.000000 0.000000 0.000000
# 3 -0.001483 -0.006371 0.010727 0.000000 0.000000 0.000000
# 4 0.000000 0.000000 0.000000 0.027310 0.000000 0.000000
# 5 0.000000 0.000000 0.000000 0.000000 0.210589 0.000000
# 6 0.000000 0.000000 0.000000 0.000000 0.000000 0.040091
#
#
# Mechanical properties :
#
#
# Convention : Reuss Voigt Hill
#
# Bulk Modulus (GPa) = 13.33742 37.81028 25.57385
# Shear Modulus (GPa) = 11.84160 24.01866 17.93013
#
# Velocity S-wave (km/s) = 2.49758 3.55704 3.07331
# Velocity P-wave (km/s) = 3.91703 6.06529 5.10543
#
# Compressibility (1/GPa) = 0.07497702
#
# Stress axis : x y z
#
# Youngs Moduli (GPa) = 14.22344 62.17422 93.21939
#
# Poissons Ratio (x) = 0.19997 0.13827
# Poissons Ratio (y) = 0.04575 0.59389
# Poissons Ratio (z) = 0.02110 0.39610
#
# Static dielectric constant tensor:
#      x y z
#    x 1.668930 0.000000 0.000000 
#    y 0.000000 1.659770 0.000000 
#    z 0.000000 0.000000 1.663670 
# 
# From -- ./inp_files/12449.got.cif
#   From: 2010.05.17/outbox.cif.g08.bks.cpg/sg40_7_cif.got.tgz:12449.got - 2010.06.03 18:35:42.
