data_PCOD9364225
_publ_section_title
;
Structure prediction by ZEFSAII (Michael W. Deem and Ramdas Pophale) SiO2 
 PCOD9364225
Probable space group: A M A 2
;
_chemical_formula_sum "Si O2"
_cell_formula_units_Z 64
_cell_length_a 16.072832
_cell_length_b 16.734431
_cell_length_c 12.166208
_cell_angle_alpha 90.000000
_cell_angle_beta 90.000000
_cell_angle_gamma 90.000000
_cell_volume 3272.341293
_symmetry_space_group_name_H-M "A M A 2"
_symmetry_group_IT_number 40
_symmetry_cell_setting 'orthorhombic'
loop_
_space_group_symop_operation_xyz
x,y,z
-x,-y,z
1/2-x,y,z
1/2+x,-y,z
x,1/2+y,1/2+z
-x,1/2-y,1/2+z
1/2-x,1/2+y,1/2+z
1/2+x,1/2-y,1/2+z
loop_
_atom_site_type_symbol
_atom_site_label
_atom_site_fract_x
_atom_site_fract_y
_atom_site_fract_z
Si Si1 0.091067 0.103267 0.085930
Si Si2 0.111206 0.782899 0.958912
Si Si3 0.891399 0.579957 0.608206
Si Si4 0.345442 0.871026 0.355998
Si Si5 0.406232 0.523138 0.985180
Si Si6 0.926061 0.298844 0.375692
Si Si7 0.650460 0.342649 0.143271
Si Si8 0.342230 0.643252 0.814943
O O1 0.128797 0.146924 0.190936
O O2 0.991016 0.096746 0.102067
O O3 0.123437 0.012709 0.085049
O O4 0.111431 0.150734 0.976012
O O5 0.159647 0.729261 0.871755
O O6 0.024640 0.802230 0.898336
O O7 0.146067 0.862874 0.014380
O O8 0.106504 0.722759 0.063854
O O9 0.862212 0.600635 0.730906
O O10 0.250000 0.846013 0.364169
O O11 0.363109 0.943481 0.439384
O O12 0.401224 0.793962 0.379613
O O13 0.500000 0.500000 0.014358
O O14 0.363326 0.571944 0.083927
O O15 0.403706 0.585706 0.883065
O O16 0.892714 0.334120 0.261189
O O17 0.750000 0.326150 0.148506
O O18 0.250000 0.606846 0.823945
#
# Coordination Sequence:
#
# PCOD9364225 Si02
#       8
#     8   8   8   8   8   8   8   8
#     4  10  22  40  62  90 127 163 208 260 327 380
#     4  10  21  38  65  91 125 165 220 262 318 381
#     4  10  20  38  63  92 116 162 213 269 303 378
#     4  12  22  36  62  95 123 157 212 269 313 366
#     4  11  22  40  64  93 123 164 218 265 318 385
#     4  11  24  40  64  94 130 171 213 263 322 393
#     4  11  23  43  66  96 135 174 214 268 335 394
#     4  11  22  37  62  94 130 165 208 267 333 386
#
# _framework density 19.557862
#
# number of rings (size 3 to 8) (size 9 to 14) (size 15 to 20)
#    0.000    1.250    2.500    5.625    1.750    1.500 
#    4.500    0.000    0.000    1.500    0.000    0.000 
#    0.000    0.000    0.000    0.000    0.000    0.000 
#
# Total GULP energy -178704.117254 kJ/mol
# GULP energy per Si atom -5584.503664 kJ/mol
# Density = 1.951335 g / cm^3
# Si number density = 19.557862 Si / 1000 Ang^3
#
#
#
# Elastic Constant Matrix: (Units=GPa)
#
#
# Indices 1 2 3 4 5 6 
#
# 1 52.3307 3.7668 26.2190 0.0000 0.0000 0.0000
# 2 3.7668 76.2124 55.8506 0.0000 0.0000 0.0000
# 3 26.2190 55.8506 151.9945 0.0000 0.0000 0.0000
# 4 0.0000 0.0000 0.0000 22.2612 0.0000 0.0000
# 5 0.0000 0.0000 0.0000 0.0000 -100.6220 0.0000
# 6 0.0000 0.0000 0.0000 0.0000 0.0000 3.3564
#
#
#
# Elastic Compliance Matrix: (Units=1/GPa)
#
#
# Indices 1 2 3 4 5 6 
#
# 1 0.021191 0.002233 -0.004476 0.000000 0.000000 0.000000
# 2 0.002233 0.018192 -0.007070 0.000000 0.000000 0.000000
# 3 -0.004476 -0.007070 0.009949 0.000000 0.000000 0.000000
# 4 0.000000 0.000000 0.000000 0.044921 0.000000 0.000000
# 5 0.000000 0.000000 0.000000 0.000000 -0.009938 0.000000
# 6 0.000000 0.000000 0.000000 0.000000 0.000000 0.297935
#
#
# Mechanical properties :
#
#
# Convention : Reuss Voigt Hill
#
# Bulk Modulus (GPa) = 32.56692 50.24561 41.40627
# Shear Modulus (GPa) = 12.16217 -2.02080 5.07069
#
# Velocity S-wave (km/s) = 2.49641 -1.01759 1.61192
# Velocity P-wave (km/s) = 4.99971 4.93618 4.96805
#
# Compressibility (1/GPa) = 0.03070601
#
# Stress axis : x y z
#
# Youngs Moduli (GPa) = 47.18981 54.96990 100.51214
#
# Poissons Ratio (x) = -0.12273 0.44987
# Poissons Ratio (y) = -0.10536 0.71059
# Poissons Ratio (z) = 0.21121 0.38862
#
# Static dielectric constant tensor:
#      x y z
#    x 1.563050 0.000000 0.000000 
#    y 0.000000 1.692590 0.000000 
#    z 0.000000 0.000000 1.652820 
# 
# From -- ./inp_files/12483.got.cif
#   From: 2010.05.17/outbox.cif.g08.bks.cpg/sg40_7_cif.got.tgz:12483.got - 2010.06.03 18:35:42.
