data_PCOD9364715
_publ_section_title
;
Structure prediction by ZEFSAII (Michael W. Deem and Ramdas Pophale) SiO2 
 PCOD9364715
Probable space group: A M A 2
;
_chemical_formula_sum "Si O2"
_cell_formula_units_Z 52
_cell_length_a 15.440534
_cell_length_b 7.326018
_cell_length_c 22.536898
_cell_angle_alpha 90.000000
_cell_angle_beta 90.000000
_cell_angle_gamma 90.000000
_cell_volume 2549.320490
_symmetry_space_group_name_H-M "A M A 2"
_symmetry_group_IT_number 40
_symmetry_cell_setting 'orthorhombic'
loop_
_space_group_symop_operation_xyz
x,y,z
-x,-y,z
1/2-x,y,z
1/2+x,-y,z
x,1/2+y,1/2+z
-x,1/2-y,1/2+z
1/2-x,1/2+y,1/2+z
1/2+x,1/2-y,1/2+z
loop_
_atom_site_type_symbol
_atom_site_label
_atom_site_fract_x
_atom_site_fract_y
_atom_site_fract_z
Si Si1 0.091886 0.899475 0.100260
Si Si2 0.646100 0.225463 0.972012
Si Si3 0.646032 0.143896 0.444796
Si Si4 0.906062 0.957586 0.675567
Si Si5 0.250000 0.501470 0.269733
Si Si6 0.652750 0.722294 0.076583
Si Si7 0.095553 0.544288 0.366611
O O1 0.101473 0.749097 0.151188
O O2 0.845184 0.926241 0.101980
O O3 0.105593 0.804186 0.036696
O O4 0.000000 0.000000 0.103305
O O5 0.750000 0.202648 0.977869
O O6 0.628899 0.429306 0.948736
O O7 0.611750 0.081951 0.924382
O O8 0.750000 0.171848 0.438013
O O9 0.620179 0.225905 0.508938
O O10 0.600829 0.249492 0.391575
O O11 0.826393 0.000095 0.718158
O O12 0.901162 0.091436 0.618622
O O13 0.000000 0.000000 0.702820
O O14 0.173177 0.510685 0.321095
O O15 0.750000 0.644618 0.073579
O O16 0.000000 0.500000 0.343510
#
# Coordination Sequence:
#
# PCOD9364715 Si02
#       7
#     8   8   8   8   4   8   8
#     4  12  24  39  67 112 146 179 223 283 359 426
#     4  11  22  39  70 107 147 182 218 274 356 427
#     4  10  21  39  69 106 142 178 219 280 355 416
#     4  12  26  47  71 102 139 183 238 289 350 421
#     4  12  28  52  74  90 130 198 244 294 338 406
#     4  11  22  39  67 105 145 176 218 280 355 425
#     4  12  25  47  72 100 137 180 234 294 349 413
#
# _framework density 20.397593000000001
#
# number of rings (size 3 to 8) (size 9 to 14) (size 15 to 20)
#    0.000    0.615    6.923    1.385    2.154    0.615 
#    0.000    3.077    0.000    0.000    0.000    0.000 
#    0.000    0.000    0.000    0.000    0.000    0.000 
#
# Total GULP energy -144840.869235 kJ/mol
# GULP energy per Si atom -5570.802663 kJ/mol
# Density = 2.035117 g / cm^3
# Si number density = 20.397593 Si / 1000 Ang^3
#
#
#
# Elastic Constant Matrix: (Units=GPa)
#
#
# Indices 1 2 3 4 5 6 
#
# 1 133.4759 8.3083 34.5249 0.0000 0.0000 0.0000
# 2 8.3083 81.6719 8.5749 0.0000 0.0000 0.0000
# 3 34.5249 8.5749 81.2144 0.0000 0.0000 0.0000
# 4 0.0000 0.0000 0.0000 -6.8972 0.0000 0.0000
# 5 0.0000 0.0000 0.0000 0.0000 -22.8998 0.0000
# 6 0.0000 0.0000 0.0000 0.0000 0.0000 27.2714
#
#
#
# Elastic Compliance Matrix: (Units=1/GPa)
#
#
# Indices 1 2 3 4 5 6 
#
# 1 0.008437 -0.000487 -0.003535 0.000000 0.000000 0.000000
# 2 -0.000487 0.012409 -0.001103 0.000000 0.000000 0.000000
# 3 -0.003535 -0.001103 0.013932 0.000000 0.000000 0.000000
# 4 0.000000 0.000000 0.000000 -0.144987 0.000000 0.000000
# 5 0.000000 0.000000 0.000000 0.000000 -0.043668 0.000000
# 6 0.000000 0.000000 0.000000 0.000000 0.000000 0.036668
#
#
# Mechanical properties :
#
#
# Convention : Reuss Voigt Hill
#
# Bulk Modulus (GPa) = 40.76997 44.35316 42.56156
# Shear Modulus (GPa) = -50.61650 15.82516 -17.39567
#
# Velocity S-wave (km/s) = -4.98686 2.78840 -2.92349
# Velocity P-wave (km/s) = 3.62317 5.67084 3.08472
#
# Compressibility (1/GPa) = 0.02452786
#
# Stress axis : x y z
#
# Youngs Moduli (GPa) = 118.52983 80.58354 71.77539
#
# Poissons Ratio (x) = 0.03925 0.25373
# Poissons Ratio (y) = 0.05774 0.07918
# Poissons Ratio (z) = 0.41901 0.08890
#
# Static dielectric constant tensor:
#      x y z
#    x 1.780440 0.000000 0.000000 
#    y 0.000000 1.733620 0.000000 
#    z 0.000000 0.000000 1.680440 
# 
# From -- ./inp_files/23040.got.cif
#   From: 2010.05.17/outbox.cif.g08.bks.cpg/sg40_12_cif.got.tgz:23040.got - 2010.06.03 18:35:42.
