data_PCOD9364861
_publ_section_title
;
Structure prediction by ZEFSAII (Michael W. Deem and Ramdas Pophale) SiO2 
 PCOD9364861
Probable space group: A M A 2
;
_chemical_formula_sum "Si O2"
_cell_formula_units_Z 44
_cell_length_a 14.619925
_cell_length_b 13.060797
_cell_length_c 8.775196
_cell_angle_alpha 90.000000
_cell_angle_beta 90.000000
_cell_angle_gamma 90.000000
_cell_volume 1675.605008
_symmetry_space_group_name_H-M "A M A 2"
_symmetry_group_IT_number 40
_symmetry_cell_setting 'orthorhombic'
loop_
_space_group_symop_operation_xyz
x,y,z
-x,-y,z
1/2-x,y,z
1/2+x,-y,z
x,1/2+y,1/2+z
-x,1/2-y,1/2+z
1/2-x,1/2+y,1/2+z
1/2+x,1/2-y,1/2+z
loop_
_atom_site_type_symbol
_atom_site_label
_atom_site_fract_x
_atom_site_fract_y
_atom_site_fract_z
Si Si1 0.147053 0.522935 0.487140
Si Si2 0.887556 0.103350 0.550479
Si Si3 0.374898 0.201018 0.230562
Si Si4 0.406304 0.107296 0.676845
Si Si5 0.750000 0.300332 0.029323
Si Si6 0.939952 0.603922 0.727960
O O1 0.250000 0.501692 0.433232
O O2 0.151001 0.606347 0.621899
O O3 0.087374 0.572215 0.352825
O O4 0.105948 0.421376 0.566075
O O5 0.848053 0.194390 0.649153
O O6 0.874048 0.114214 0.371153
O O7 0.996385 0.110897 0.592655
O O8 0.856497 0.991219 0.599428
O O9 0.329088 0.194114 0.393773
O O10 0.485333 0.193014 0.236767
O O11 0.332925 0.196586 0.657477
O O12 0.000000 0.500000 0.759510
#
# Coordination Sequence:
#
# PCOD9364861 Si02
#       6
#     8   8   8   8   4   8
#     4  11  24  44  67 101 136 183 232 293 352 414
#     4  11  24  43  68 103 132 185 235 280 349 421
#     4  11  25  41  70  99 140 179 235 287 351 420
#     4  11  24  43  73  96 139 182 236 287 351 426
#     4  12  22  48  68  98 140 186 228 292 354 416
#     4  10  21  44  67  95 135 188 225 281 355 426
#
# _framework density 26.259170999999998
#
# number of rings (size 3 to 8) (size 9 to 14) (size 15 to 20)
#    0.000    1.091    5.455    1.091   10.182    0.727 
#    1.636    0.000    0.000    0.000    0.000    0.000 
#    0.000    0.000    0.000    0.000    0.000    0.000 
#
# Total GULP energy -122717.305735 kJ/mol
# GULP energy per Si atom -5578.059352 kJ/mol
# Density = 2.619940 g / cm^3
# Si number density = 26.259171 Si / 1000 Ang^3
#
#
#
# Elastic Constant Matrix: (Units=GPa)
#
#
# Indices 1 2 3 4 5 6 
#
# 1 128.6819 -20.9203 22.1728 0.0000 0.0000 0.0000
# 2 -20.9203 78.1233 9.1085 0.0000 0.0000 0.0000
# 3 22.1728 9.1085 141.4238 0.0000 0.0000 0.0000
# 4 0.0000 0.0000 0.0000 32.4710 0.0000 0.0000
# 5 0.0000 0.0000 0.0000 0.0000 38.2692 0.0000
# 6 0.0000 0.0000 0.0000 0.0000 0.0000 -41.3920
#
#
#
# Elastic Compliance Matrix: (Units=1/GPa)
#
#
# Indices 1 2 3 4 5 6 
#
# 1 0.008420 0.002427 -0.001476 0.000000 0.000000 0.000000
# 2 0.002427 0.013597 -0.001256 0.000000 0.000000 0.000000
# 3 -0.001476 -0.001256 0.007383 0.000000 0.000000 0.000000
# 4 0.000000 0.000000 0.000000 0.030797 0.000000 0.000000
# 5 0.000000 0.000000 0.000000 0.000000 0.026131 0.000000
# 6 0.000000 0.000000 0.000000 0.000000 0.000000 -0.024159
#
#
# Mechanical properties :
#
#
# Convention : Reuss Voigt Hill
#
# Bulk Modulus (GPa) = 34.73598 40.99454 37.86526
# Shear Modulus (GPa) = 69.08391 28.39418 48.73904
#
# Velocity S-wave (km/s) = 5.13474 3.29189 4.31289
# Velocity P-wave (km/s) = 6.95780 5.48581 6.26519
#
# Compressibility (1/GPa) = 0.02878859
#
# Stress axis : x y z
#
# Youngs Moduli (GPa) = 118.76412 73.54764 135.44022
#
# Poissons Ratio (x) = -0.17849 0.19997
# Poissons Ratio (y) = -0.28823 0.17014
# Poissons Ratio (z) = 0.17535 0.09239
#
# Static dielectric constant tensor:
#      x y z
#    x 2.250860 0.000000 0.000000 
#    y 0.000000 2.215830 0.000000 
#    z 0.000000 0.000000 1.971110 
# 
# From -- ./inp_files/7344.got.cif
#   From: 2010.05.17/outbox.cif.g08.bks.cpg/sg40_4_cif.got.tgz:7344.got - 2010.06.03 18:35:42.
