data_PCOD9364127
_publ_section_title
;
Structure prediction by ZEFSAII (Michael W. Deem and Ramdas Pophale) SiO2 
 PCOD9364127
Probable space group: A M A 2
;
_chemical_formula_sum "Si O2"
_cell_formula_units_Z 56
_cell_length_a 19.275853
_cell_length_b 7.593725
_cell_length_c 17.390122
_cell_angle_alpha 90.000000
_cell_angle_beta 90.000000
_cell_angle_gamma 90.000000
_cell_volume 2545.488269
_symmetry_space_group_name_H-M "A M A 2"
_symmetry_group_IT_number 40
_symmetry_cell_setting 'orthorhombic'
loop_
_space_group_symop_operation_xyz
x,y,z
-x,-y,z
1/2-x,y,z
1/2+x,-y,z
x,1/2+y,1/2+z
-x,1/2-y,1/2+z
1/2-x,1/2+y,1/2+z
1/2+x,1/2-y,1/2+z
loop_
_atom_site_type_symbol
_atom_site_label
_atom_site_fract_x
_atom_site_fract_y
_atom_site_fract_z
Si Si1 0.879070 0.304616 0.670420
Si Si2 0.563878 0.726698 0.325570
Si Si3 0.332831 0.563571 0.109303
Si Si4 0.168391 0.078055 0.010671
Si Si5 0.088551 0.681622 0.362111
Si Si6 0.172153 0.349622 0.729510
Si Si7 0.330062 0.173980 0.450110
O O1 0.938367 0.286955 0.736177
O O2 0.880926 0.381616 0.583684
O O3 0.828430 0.446175 0.709155
O O4 0.851870 0.108478 0.656852
O O5 0.490680 0.743102 0.368591
O O6 0.583976 0.519303 0.329841
O O7 0.622152 0.824388 0.375604
O O8 0.250000 0.574281 0.101452
O O9 0.354325 0.736048 0.156624
O O10 0.358408 0.559777 0.021531
O O11 0.250000 0.127231 0.026403
O O12 0.134914 0.176110 0.938145
O O13 0.169590 0.872767 0.985888
O O14 0.124608 0.802345 0.299870
O O15 0.250000 0.288713 0.746136
O O16 0.250000 0.128920 0.431407
#
# Coordination Sequence:
#
# PCOD9364127 Si02
#       7
#     8   8   8   8   8   8   8
#     4  12  23  39  64 100 130 165 218 273 322 389
#     4  10  23  42  65  96 132 176 221 272 326 398
#     4  10  20  37  61  94 129 162 206 267 323 378
#     4  10  20  38  64  95 128 168 219 276 331 391
#     4  10  22  45  63  92 135 176 224 265 330 398
#     4  11  22  39  65  95 129 169 213 270 327 383
#     4   9  19  38  63  92 130 173 215 267 333 391
#
# _framework density 21.999708999999999
#
# number of rings (size 3 to 8) (size 9 to 14) (size 15 to 20)
#    0.000    1.714    2.857    1.714    0.000    4.000 
#    2.571    2.857    0.000    0.000    0.000    0.000 
#    0.000    0.000    0.000    0.000    0.000    0.000 
#
# Total GULP energy -156275.103985 kJ/mol
# GULP energy per Si atom -5581.253714 kJ/mol
# Density = 2.194964 g / cm^3
# Si number density = 21.999709 Si / 1000 Ang^3
#
#
#
# Elastic Constant Matrix: (Units=GPa)
#
#
# Indices 1 2 3 4 5 6 
#
# 1 50.6017 25.6333 38.2613 0.0000 0.0000 0.0000
# 2 25.6333 78.7669 25.5807 0.0000 0.0000 0.0000
# 3 38.2613 25.5807 121.3058 0.0000 0.0000 0.0000
# 4 0.0000 0.0000 0.0000 39.0903 0.0000 0.0000
# 5 0.0000 0.0000 0.0000 0.0000 5.2716 0.0000
# 6 0.0000 0.0000 0.0000 0.0000 0.0000 -13.5690
#
#
#
# Elastic Compliance Matrix: (Units=1/GPa)
#
#
# Indices 1 2 3 4 5 6 
#
# 1 0.029130 -0.006974 -0.007717 0.000000 0.000000 0.000000
# 2 -0.006974 0.015298 -0.001027 0.000000 0.000000 0.000000
# 3 -0.007717 -0.001027 0.010894 0.000000 0.000000 0.000000
# 4 0.000000 0.000000 0.000000 0.025582 0.000000 0.000000
# 5 0.000000 0.000000 0.000000 0.000000 0.189697 0.000000
# 6 0.000000 0.000000 0.000000 0.000000 0.000000 -0.073698
#
#
# Mechanical properties :
#
#
# Convention : Reuss Voigt Hill
#
# Bulk Modulus (GPa) = 41.86236 47.73613 44.79924
# Shear Modulus (GPa) = 21.15941 16.90519 19.03230
#
# Velocity S-wave (km/s) = 3.10466 2.77506 2.94448
# Velocity P-wave (km/s) = 5.64994 5.65805 5.65400
#
# Compressibility (1/GPa) = 0.02388781
#
# Stress axis : x y z
#
# Youngs Moduli (GPa) = 34.32869 65.36589 91.79127
#
# Poissons Ratio (x) = 0.45583 0.70839
# Poissons Ratio (y) = 0.23939 0.09423
# Poissons Ratio (z) = 0.26493 0.06710
#
# Static dielectric constant tensor:
#      x y z
#    x 1.762960 0.000000 0.000000 
#    y 0.000000 1.853570 0.000000 
#    z 0.000000 0.000000 1.833090 
# 
# From -- ./inp_files/18248.got.cif
#   From: 2010.05.17/outbox.cif.g08.bks.cpg/sg40_10_cif.got.tgz:18248.got - 2010.06.03 18:35:42.
