data_PCOD9364540
_publ_section_title
;
Structure prediction by ZEFSAII (Michael W. Deem and Ramdas Pophale) SiO2 
 PCOD9364540
Probable space group: A M A 2
;
_chemical_formula_sum "Si O2"
_cell_formula_units_Z 64
_cell_length_a 14.168112
_cell_length_b 8.838953
_cell_length_c 22.018532
_cell_angle_alpha 90.000000
_cell_angle_beta 90.000000
_cell_angle_gamma 90.000000
_cell_volume 2757.408859
_symmetry_space_group_name_H-M "A M A 2"
_symmetry_group_IT_number 40
_symmetry_cell_setting 'orthorhombic'
loop_
_space_group_symop_operation_xyz
x,y,z
-x,-y,z
1/2-x,y,z
1/2+x,-y,z
x,1/2+y,1/2+z
-x,1/2-y,1/2+z
1/2-x,1/2+y,1/2+z
1/2+x,1/2-y,1/2+z
loop_
_atom_site_type_symbol
_atom_site_label
_atom_site_fract_x
_atom_site_fract_y
_atom_site_fract_z
Si Si1 0.137442 0.084722 0.551310
Si Si2 0.104859 0.564332 0.270612
Si Si3 0.137206 0.421129 0.601972
Si Si4 0.851091 0.100723 0.891021
Si Si5 0.641036 0.857225 0.997405
Si Si6 0.974863 0.650043 0.719570
Si Si7 0.141887 0.357599 0.159985
Si Si8 0.984723 0.345841 0.934291
O O1 0.250000 0.073534 0.543824
O O2 0.116533 0.252273 0.577467
O O3 0.085509 0.094690 0.487295
O O4 0.112063 0.947141 0.597983
O O5 0.148410 0.507807 0.332992
O O6 0.090748 0.739503 0.258512
O O7 0.148850 0.488464 0.211060
O O8 0.000000 0.500000 0.273419
O O9 0.250000 0.431959 0.605400
O O10 0.107506 0.563192 0.559772
O O11 0.088089 0.419681 0.666018
O O12 0.750000 0.182191 0.892935
O O13 0.935536 0.218409 0.893614
O O14 0.858532 0.997458 0.950510
O O15 0.750000 0.804526 0.003627
O O16 0.572476 0.733863 0.968421
O O17 0.000000 0.500000 0.756196
O O18 0.062081 0.745492 0.688445
O O19 0.250000 0.295618 0.152474
O O20 0.000000 0.500000 0.898370
#
# Coordination Sequence:
#
# PCOD9364540 Si02
#       8
#     8   8   8   8   8   8   8   8
#     4  10  21  37  62  97 136 179 225 270 332 410
#     4  10  21  40  67  94 122 168 226 276 337 398
#     4  10  21  37  62  96 137 179 224 274 332 407
#     4  11  23  43  69  94 126 174 229 283 343 404
#     4  10  23  42  64  95 133 178 225 273 336 407
#     4  11  25  39  66 101 140 177 225 281 342 412
#     4  10  22  41  63  94 136 181 226 273 332 406
#     4  12  26  39  67  99 138 178 225 282 341 412
#
# _framework density 23.210196
#
# number of rings (size 3 to 8) (size 9 to 14) (size 15 to 20)
#    0.000    1.500    2.500    1.875    3.500    2.000 
#    0.000    8.125    0.000    1.500    0.000    0.000 
#    0.000    0.000    0.000    0.000    0.000    0.000 
#
# Total GULP energy -178879.495367 kJ/mol
# GULP energy per Si atom -5589.984230 kJ/mol
# Density = 2.315737 g / cm^3
# Si number density = 23.210196 Si / 1000 Ang^3
#
#
#
# Elastic Constant Matrix: (Units=GPa)
#
#
# Indices 1 2 3 4 5 6 
#
# 1 82.0225 39.7236 13.3174 0.0000 0.0000 0.0000
# 2 39.7236 161.3199 33.8863 0.0000 0.0000 0.0000
# 3 13.3174 33.8863 94.9983 0.0000 0.0000 0.0000
# 4 0.0000 0.0000 0.0000 15.7836 0.0000 0.0000
# 5 0.0000 0.0000 0.0000 0.0000 21.7955 0.0000
# 6 0.0000 0.0000 0.0000 0.0000 0.0000 14.2042
#
#
#
# Elastic Compliance Matrix: (Units=1/GPa)
#
#
# Indices 1 2 3 4 5 6 
#
# 1 0.013897 -0.003257 -0.000786 0.000000 0.000000 0.000000
# 2 -0.003257 0.007464 -0.002206 0.000000 0.000000 0.000000
# 3 -0.000786 -0.002206 0.011424 0.000000 0.000000 0.000000
# 4 0.000000 0.000000 0.000000 0.063357 0.000000 0.000000
# 5 0.000000 0.000000 0.000000 0.000000 0.045881 0.000000
# 6 0.000000 0.000000 0.000000 0.000000 0.000000 0.070402
#
#
# Mechanical properties :
#
#
# Convention : Reuss Voigt Hill
#
# Bulk Modulus (GPa) = 49.29444 56.91058 53.10251
# Shear Modulus (GPa) = 21.58107 27.11756 24.34932
#
# Velocity S-wave (km/s) = 3.05259 3.42182 3.24246
# Velocity P-wave (km/s) = 5.80592 6.33914 6.07838
#
# Compressibility (1/GPa) = 0.02028627
#
# Stress axis : x y z
#
# Youngs Moduli (GPa) = 71.95955 133.97317 87.53790
#
# Poissons Ratio (x) = 0.43632 0.06884
# Poissons Ratio (y) = 0.23435 0.19310
# Poissons Ratio (z) = 0.05659 0.29554
#
# Static dielectric constant tensor:
#      x y z
#    x 1.898550 0.000000 0.000000 
#    y 0.000000 2.016620 0.000000 
#    z 0.000000 0.000000 1.883780 
# 
# From -- ./inp_files/24792.got.cif
#   From: 2010.05.17/outbox.cif.g08.bks.cpg/sg40_13_cif.got.tgz:24792.got - 2010.06.03 18:35:42.
