data_PCOD9364124
_publ_section_title
;
Structure prediction by ZEFSAII (Michael W. Deem and Ramdas Pophale) SiO2 
 PCOD9364124
Probable space group: A M A 2
;
_chemical_formula_sum "Si O2"
_cell_formula_units_Z 64
_cell_length_a 15.743565
_cell_length_b 15.577612
_cell_length_c 12.683669
_cell_angle_alpha 90.000000
_cell_angle_beta 90.000000
_cell_angle_gamma 90.000000
_cell_volume 3110.633637
_symmetry_space_group_name_H-M "A M A 2"
_symmetry_group_IT_number 40
_symmetry_cell_setting 'orthorhombic'
loop_
_space_group_symop_operation_xyz
x,y,z
-x,-y,z
1/2-x,y,z
1/2+x,-y,z
x,1/2+y,1/2+z
-x,1/2-y,1/2+z
1/2-x,1/2+y,1/2+z
1/2+x,1/2-y,1/2+z
loop_
_atom_site_type_symbol
_atom_site_label
_atom_site_fract_x
_atom_site_fract_y
_atom_site_fract_z
Si Si1 0.852204 0.297630 0.232270
Si Si2 0.345219 0.327781 0.099107
Si Si3 0.094769 0.539459 0.349774
Si Si4 0.647515 0.635312 0.876505
Si Si5 0.613621 0.360076 0.565492
Si Si6 0.584772 0.678911 0.554082
Si Si7 0.399221 0.982848 0.189259
Si Si8 0.346881 0.353211 0.328373
O O1 0.750000 0.306679 0.237989
O O2 0.894615 0.387928 0.261233
O O3 0.878629 0.223536 0.317113
O O4 0.878548 0.258163 0.119890
O O5 0.250000 0.364779 0.113197
O O6 0.338071 0.228518 0.067565
O O7 0.386312 0.331068 0.214388
O O8 0.386239 0.370234 0.995905
O O9 0.119496 0.587326 0.457453
O O10 0.151880 0.456233 0.333303
O O11 0.000000 0.500000 0.358484
O O12 0.750000 0.638071 0.882757
O O13 0.622245 0.556810 0.801843
O O14 0.515148 0.331392 0.574199
O O15 0.639697 0.426269 0.656852
O O16 0.624305 0.591548 0.604777
O O17 0.603676 0.681010 0.430277
O O18 0.500000 0.000000 0.181319
O O19 0.250000 0.320730 0.333790
#
# Coordination Sequence:
#
# PCOD9364124 Si02
#       8
#     8   8   8   8   8   8   8   8
#     4  10  21  37  61  92 121 158 204 253 301 360
#     4  10  23  40  59  86 122 162 203 249 307 373
#     4  12  22  38  60  92 124 156 205 250 306 366
#     4   9  18  36  59  85 117 155 200 244 298 359
#     4  11  20  37  62  89 121 156 201 255 309 358
#     4  10  20  37  61  90 121 158 197 256 306 361
#     4   9  18  35  57  88 120 148 193 251 299 350
#     4  11  23  40  61  87 125 164 203 254 309 367
#
# _framework density 20.574586
#
# number of rings (size 3 to 8) (size 9 to 14) (size 15 to 20)
#    0.000    1.750    3.750    1.125    1.750    1.500 
#    2.250    1.875    0.000    3.000    0.000    0.000 
#    0.000    0.000    0.000    0.000    0.000    0.000 
#
# Total GULP energy -178608.496447 kJ/mol
# GULP energy per Si atom -5581.515514 kJ/mol
# Density = 2.052776 g / cm^3
# Si number density = 20.574586 Si / 1000 Ang^3
#
#
#
# Elastic Constant Matrix: (Units=GPa)
#
#
# Indices 1 2 3 4 5 6 
#
# 1 31.9099 5.1221 18.1867 0.0000 0.0000 0.0000
# 2 5.1221 74.5229 52.4464 0.0000 0.0000 0.0000
# 3 18.1867 52.4464 172.6974 0.0000 0.0000 0.0000
# 4 0.0000 0.0000 0.0000 41.1027 0.0000 0.0000
# 5 0.0000 0.0000 0.0000 0.0000 12.1071 0.0000
# 6 0.0000 0.0000 0.0000 0.0000 0.0000 17.1872
#
#
#
# Elastic Compliance Matrix: (Units=1/GPa)
#
#
# Indices 1 2 3 4 5 6 
#
# 1 0.033342 0.000228 -0.003581 0.000000 0.000000 0.000000
# 2 0.000228 0.017068 -0.005207 0.000000 0.000000 0.000000
# 3 -0.003581 -0.005207 0.007749 0.000000 0.000000 0.000000
# 4 0.000000 0.000000 0.000000 0.024329 0.000000 0.000000
# 5 0.000000 0.000000 0.000000 0.000000 0.082596 0.000000
# 6 0.000000 0.000000 0.000000 0.000000 0.000000 0.058183
#
#
# Mechanical properties :
#
#
# Convention : Reuss Voigt Hill
#
# Bulk Modulus (GPa) = 24.36672 47.84895 36.10784
# Shear Modulus (GPa) = 19.67991 27.63774 23.65882
#
# Velocity S-wave (km/s) = 3.09611 3.66907 3.39470
# Velocity P-wave (km/s) = 4.96488 6.42311 5.74049
#
# Compressibility (1/GPa) = 0.04103958
#
# Stress axis : x y z
#
# Youngs Moduli (GPa) = 29.99191 58.59009 129.04968
#
# Poissons Ratio (x) = -0.01337 0.46207
# Poissons Ratio (y) = -0.00684 0.67200
# Poissons Ratio (z) = 0.10739 0.30510
#
# Static dielectric constant tensor:
#      x y z
#    x 1.762400 0.000000 0.000000 
#    y 0.000000 1.711330 0.000000 
#    z 0.000000 0.000000 1.770840 
# 
# From -- ./inp_files/13094.got.cif
#   From: 2010.05.17/outbox.cif.g08.bks.cpg/sg40_7_cif.got.tgz:13094.got - 2010.06.03 18:35:42.
