data_PCOD9364439
_publ_section_title
;
Structure prediction by ZEFSAII (Michael W. Deem and Ramdas Pophale) SiO2 
 PCOD9364439
Probable space group: A M A 2
;
_chemical_formula_sum "Si O2"
_cell_formula_units_Z 48
_cell_length_a 13.667536
_cell_length_b 16.259591
_cell_length_c 11.370274
_cell_angle_alpha 90.000000
_cell_angle_beta 90.000000
_cell_angle_gamma 90.000000
_cell_volume 2526.799451
_symmetry_space_group_name_H-M "A M A 2"
_symmetry_group_IT_number 40
_symmetry_cell_setting 'orthorhombic'
loop_
_space_group_symop_operation_xyz
x,y,z
-x,-y,z
1/2-x,y,z
1/2+x,-y,z
x,1/2+y,1/2+z
-x,1/2-y,1/2+z
1/2-x,1/2+y,1/2+z
1/2+x,1/2-y,1/2+z
loop_
_atom_site_type_symbol
_atom_site_label
_atom_site_fract_x
_atom_site_fract_y
_atom_site_fract_z
Si Si1 0.866642 0.471875 0.959670
Si Si2 0.046663 0.614027 0.565885
Si Si3 0.132630 0.049503 0.730095
Si Si4 0.633752 0.287572 0.372368
Si Si5 0.365067 0.950138 0.955708
Si Si6 0.982313 0.120809 0.334891
O O1 0.750000 0.470763 0.947565
O O2 0.911579 0.547974 0.884803
O O3 0.919576 0.390502 0.911184
O O4 0.893570 0.473849 0.097786
O O5 0.111108 0.684747 0.506422
O O6 0.105427 0.530685 0.532279
O O7 0.942052 0.616508 0.498849
O O8 0.018885 0.612030 0.701456
O O9 0.250000 0.056250 0.730840
O O10 0.100735 0.136565 0.787202
O O11 0.110583 0.977549 0.822888
O O12 0.750000 0.275541 0.357426
O O13 0.574462 0.205695 0.346252
O O14 0.250000 0.932005 0.967292
#
# Coordination Sequence:
#
# PCOD9364439 Si02
#       6
#     8   8   8   8   8   8
#     4  10  21  38  59  88 121 154 198 252 302 357
#     4  10  21  35  55  87 114 151 201 244 298 362
#     4   8  17  35  60  84 112 155 196 236 294 353
#     4  10  22  41  61  82 118 165 204 249 308 365
#     4   9  17  34  60  86 113 149 194 246 298 354
#     4  11  24  36  58  89 118 159 204 244 305 367
#
# _framework density 18.996364
#
# number of rings (size 3 to 8) (size 9 to 14) (size 15 to 20)
#    0.000    2.333    0.000    4.000    2.333    9.333 
#    0.000    0.833    0.000    0.000    0.000    0.000 
#    0.000    0.000    0.000    0.000    0.000    0.000 
#
# Total GULP energy -133743.276131 kJ/mol
# GULP energy per Si atom -5572.636505 kJ/mol
# Density = 1.895313 g / cm^3
# Si number density = 18.996364 Si / 1000 Ang^3
#
#
#
# Elastic Constant Matrix: (Units=GPa)
#
#
# Indices 1 2 3 4 5 6 
#
# 1 101.6546 1.0673 16.1931 0.0000 0.0000 0.0000
# 2 1.0673 26.3128 10.3246 0.0000 0.0000 0.0000
# 3 16.1931 10.3246 138.7914 0.0000 0.0000 0.0000
# 4 0.0000 0.0000 0.0000 6.5937 0.0000 0.0000
# 5 0.0000 0.0000 0.0000 0.0000 18.7455 0.0000
# 6 0.0000 0.0000 0.0000 0.0000 0.0000 34.4860
#
#
#
# Elastic Compliance Matrix: (Units=1/GPa)
#
#
# Indices 1 2 3 4 5 6 
#
# 1 0.010024 0.000054 -0.001173 0.000000 0.000000 0.000000
# 2 0.000054 0.039147 -0.002918 0.000000 0.000000 0.000000
# 3 -0.001173 -0.002918 0.007559 0.000000 0.000000 0.000000
# 4 0.000000 0.000000 0.000000 0.151660 0.000000 0.000000
# 5 0.000000 0.000000 0.000000 0.000000 0.053346 0.000000
# 6 0.000000 0.000000 0.000000 0.000000 0.000000 0.028997
#
#
# Mechanical properties :
#
#
# Convention : Reuss Voigt Hill
#
# Bulk Modulus (GPa) = 20.55336 35.76987 28.16162
# Shear Modulus (GPa) = 15.87164 27.90995 21.89080
#
# Velocity S-wave (km/s) = 2.89365 3.83721 3.39834
# Velocity P-wave (km/s) = 4.69121 6.20507 5.50047
#
# Compressibility (1/GPa) = 0.04865384
#
# Stress axis : x y z
#
# Youngs Moduli (GPa) = 99.76459 25.54459 132.29136
#
# Poissons Ratio (x) = -0.00138 0.15524
# Poissons Ratio (y) = -0.00538 0.38608
# Poissons Ratio (z) = 0.11707 0.07455
#
# Static dielectric constant tensor:
#      x y z
#    x 1.705290 0.000000 0.000000 
#    y 0.000000 1.673610 0.000000 
#    z 0.000000 0.000000 1.691530 
# 
# From -- ./inp_files/6429.got.cif
#   From: 2010.05.17/outbox.cif.g08.bks.cpg/sg40_4_cif.got.tgz:6429.got - 2010.06.03 18:35:42.
