data_PCOD9364578
_publ_section_title
;
Structure prediction by ZEFSAII (Michael W. Deem and Ramdas Pophale) SiO2 
 PCOD9364578
Probable space group: A M A 2
;
_chemical_formula_sum "Si O2"
_cell_formula_units_Z 40
_cell_length_a 10.500328
_cell_length_b 23.815855
_cell_length_c 7.106901
_cell_angle_alpha 90.000000
_cell_angle_beta 90.000000
_cell_angle_gamma 90.000000
_cell_volume 1777.253215
_symmetry_space_group_name_H-M "A M A 2"
_symmetry_group_IT_number 40
_symmetry_cell_setting 'orthorhombic'
loop_
_space_group_symop_operation_xyz
x,y,z
-x,-y,z
1/2-x,y,z
1/2+x,-y,z
x,1/2+y,1/2+z
-x,1/2-y,1/2+z
1/2-x,1/2+y,1/2+z
1/2+x,1/2-y,1/2+z
loop_
_atom_site_type_symbol
_atom_site_label
_atom_site_fract_x
_atom_site_fract_y
_atom_site_fract_z
Si Si1 0.019834 0.161482 0.028690
Si Si2 0.388999 0.772287 0.355255
Si Si3 0.601431 0.953646 0.592624
Si Si4 0.886770 0.960917 0.043567
Si Si5 0.108964 0.864648 0.661020
O O1 0.091807 0.104768 0.085619
O O2 0.980699 0.196351 0.211274
O O3 0.091131 0.206978 0.898217
O O4 0.908797 0.141271 0.885536
O O5 0.250000 0.779627 0.269024
O O6 0.391831 0.805689 0.552217
O O7 0.750000 0.950748 0.525216
O O8 0.514080 0.897862 0.584083
O O9 0.500000 0.000000 0.519909
O O10 0.614015 0.964692 0.816695
O O11 0.750000 0.980489 0.113019
O O12 0.000000 0.000000 0.110748
O O13 0.250000 0.890727 0.623622
#
# Coordination Sequence:
#
# PCOD9364578 Si02
#       5
#     8   8   8   8   8
#     4  11  21  40  63  92 124 167 209 257 317 373
#     4  11  23  39  60  91 128 165 209 257 313 381
#     4   9  17  32  57  88 120 160 206 257 311 370
#     4   9  19  35  60  89 123 161 207 259 309 371
#     4  10  21  38  59  88 124 163 205 255 311 373
#
# _framework density 22.506641999999999
#
# number of rings (size 3 to 8) (size 9 to 14) (size 15 to 20)
#    0.000    2.000    2.000    1.800    0.000    6.400 
#    0.000    3.000    0.000    0.000    0.000    0.000 
#    0.000    0.000    0.000    0.000    0.000    0.000 
#
# Total GULP energy -111482.671479 kJ/mol
# GULP energy per Si atom -5574.133574 kJ/mol
# Density = 2.245542 g / cm^3
# Si number density = 22.506642 Si / 1000 Ang^3
#
#
#
# Elastic Constant Matrix: (Units=GPa)
#
#
# Indices 1 2 3 4 5 6 
#
# 1 196.2361 79.5849 10.3695 0.0000 0.0000 0.0000
# 2 79.5849 117.0190 -1.0611 0.0000 0.0000 0.0000
# 3 10.3695 -1.0611 65.3338 0.0000 0.0000 0.0000
# 4 0.0000 0.0000 0.0000 -0.6243 0.0000 0.0000
# 5 0.0000 0.0000 0.0000 0.0000 1.9232 0.0000
# 6 0.0000 0.0000 0.0000 0.0000 0.0000 20.9744
#
#
#
# Elastic Compliance Matrix: (Units=1/GPa)
#
#
# Indices 1 2 3 4 5 6 
#
# 1 0.007131 -0.004861 -0.001211 0.000000 0.000000 0.000000
# 2 -0.004861 0.011860 0.000964 0.000000 0.000000 0.000000
# 3 -0.001211 0.000964 0.015514 0.000000 0.000000 0.000000
# 4 0.000000 0.000000 0.000000 -1.601806 0.000000 0.000000
# 5 0.000000 0.000000 0.000000 0.000000 0.519958 0.000000
# 6 0.000000 0.000000 0.000000 0.000000 0.000000 0.047677
#
#
# Mechanical properties :
#
#
# Convention : Reuss Voigt Hill
#
# Bulk Modulus (GPa) = 41.16890 61.81952 51.49421
# Shear Modulus (GPa) = -5.09500 23.76771 9.33635
#
# Velocity S-wave (km/s) = -1.50622 3.25319 2.03894
# Velocity P-wave (km/s) = 3.91237 6.45274 5.33594
#
# Compressibility (1/GPa) = 0.02429018
#
# Stress axis : x y z
#
# Youngs Moduli (GPa) = 140.22715 84.31473 64.45852
#
# Poissons Ratio (x) = 0.40985 0.07805
# Poissons Ratio (y) = 0.68164 -0.06215
# Poissons Ratio (z) = 0.16979 -0.08129
#
# Static dielectric constant tensor:
#      x y z
#    x 1.885320 0.000000 0.000000 
#    y 0.000000 1.837330 0.000000 
#    z 0.000000 0.000000 1.816380 
# 
# From -- ./inp_files/4244.got.cif
#   From: 2010.05.17/outbox.cif.g08.bks.cpg/sg40_3_cif.got.tgz:4244.got - 2010.06.03 18:35:42.
