data_PCOD9364052
_publ_section_title
;
Structure prediction by ZEFSAII (Michael W. Deem and Ramdas Pophale) SiO2 
 PCOD9364052
Probable space group: A M A 2
;
_chemical_formula_sum "Si O2"
_cell_formula_units_Z 48
_cell_length_a 13.789511
_cell_length_b 25.883628
_cell_length_c 6.873682
_cell_angle_alpha 90.000000
_cell_angle_beta 90.000000
_cell_angle_gamma 90.000000
_cell_volume 2453.372266
_symmetry_space_group_name_H-M "A M A 2"
_symmetry_group_IT_number 40
_symmetry_cell_setting 'orthorhombic'
loop_
_space_group_symop_operation_xyz
x,y,z
-x,-y,z
1/2-x,y,z
1/2+x,-y,z
x,1/2+y,1/2+z
-x,1/2-y,1/2+z
1/2-x,1/2+y,1/2+z
1/2+x,1/2-y,1/2+z
loop_
_atom_site_type_symbol
_atom_site_label
_atom_site_fract_x
_atom_site_fract_y
_atom_site_fract_z
Si Si1 0.508190 0.185605 0.168850
Si Si2 0.637625 0.541661 0.195967
Si Si3 0.979160 0.570105 0.567972
Si Si4 0.856602 0.156265 0.522928
Si Si5 0.637551 0.996981 0.293403
Si Si6 0.138498 0.758632 0.857772
O O1 0.501338 0.130844 0.058022
O O2 0.564702 0.171834 0.366034
O O3 0.408325 0.211574 0.236811
O O4 0.570488 0.225416 0.038670
O O5 0.750000 0.532960 0.265465
O O6 0.558839 0.546830 0.365279
O O7 0.636521 0.597972 0.097278
O O8 0.617540 0.500367 0.024576
O O9 0.890279 0.553348 0.708435
O O10 0.070444 0.542310 0.672278
O O11 0.750000 0.163779 0.432825
O O12 0.862853 0.192977 0.710478
O O13 0.750000 0.986028 0.266027
O O14 0.250000 0.748904 0.915363
#
# Coordination Sequence:
#
# PCOD9364052 Si02
#       6
#     8   8   8   8   8   8
#     4  12  22  40  64  93 131 170 216 267 323 386
#     4  10  20  38  65  94 124 162 216 271 320 376
#     4  11  23  37  65  95 123 167 214 267 318 383
#     4  10  20  36  62  91 120 159 212 266 315 371
#     4  10  23  41  60  91 129 168 211 263 323 387
#     4  11  24  39  61  95 130 168 215 268 322 385
#
# _framework density 19.564907000000002
#
# number of rings (size 3 to 8) (size 9 to 14) (size 15 to 20)
#    0.000    1.333    5.000    1.000    0.000    4.667 
#    0.000    0.000    0.000    2.000    0.000    0.000 
#    0.000    0.000    0.000    0.000    0.000    0.000 
#
# Total GULP energy -133885.231278 kJ/mol
# GULP energy per Si atom -5578.551303 kJ/mol
# Density = 1.952038 g / cm^3
# Si number density = 19.564907 Si / 1000 Ang^3
#
#
#
# Elastic Constant Matrix: (Units=GPa)
#
#
# Indices 1 2 3 4 5 6 
#
# 1 129.2158 46.3857 53.1700 0.0000 0.0000 0.0000
# 2 46.3857 70.7303 29.2108 0.0000 0.0000 0.0000
# 3 53.1700 29.2108 85.6970 0.0000 0.0000 0.0000
# 4 0.0000 0.0000 0.0000 29.0135 0.0000 0.0000
# 5 0.0000 0.0000 0.0000 0.0000 25.8795 0.0000
# 6 0.0000 0.0000 0.0000 0.0000 0.0000 24.1975
#
#
#
# Elastic Compliance Matrix: (Units=1/GPa)
#
#
# Indices 1 2 3 4 5 6 
#
# 1 0.012036 -0.005597 -0.005560 0.000000 0.000000 0.000000
# 2 -0.005597 0.019057 -0.003023 0.000000 0.000000 0.000000
# 3 -0.005560 -0.003023 0.016149 0.000000 0.000000 0.000000
# 4 0.000000 0.000000 0.000000 0.034467 0.000000 0.000000
# 5 0.000000 0.000000 0.000000 0.000000 0.038641 0.000000
# 6 0.000000 0.000000 0.000000 0.000000 0.000000 0.041327
#
#
# Mechanical properties :
#
#
# Convention : Reuss Voigt Hill
#
# Bulk Modulus (GPa) = 52.96013 60.35288 56.65651
# Shear Modulus (GPa) = 25.46720 26.27654 25.87187
#
# Velocity S-wave (km/s) = 3.61179 3.66873 3.64037
# Velocity P-wave (km/s) = 6.67241 6.99004 6.83307
#
# Compressibility (1/GPa) = 0.01888213
#
# Stress axis : x y z
#
# Youngs Moduli (GPa) = 83.08394 52.47285 61.92320
#
# Poissons Ratio (x) = 0.29370 0.34428
# Poissons Ratio (y) = 0.46504 0.18721
# Poissons Ratio (z) = 0.46193 0.15864
#
# Static dielectric constant tensor:
#      x y z
#    x 1.701040 0.000000 0.000000 
#    y 0.000000 1.696110 0.000000 
#    z 0.000000 0.000000 1.719130 
# 
# From -- ./inp_files/1330.got.cif
#   From: 2010.05.17/outbox.cif.g08.bks.cpg/sg40_1_cif.got.tgz:1330.got - 2010.06.03 18:35:42.
