data_PCOD9364437
_publ_section_title
;
Structure prediction by ZEFSAII (Michael W. Deem and Ramdas Pophale) SiO2 
 PCOD9364437
Probable space group: A M A 2
;
_chemical_formula_sum "Si O2"
_cell_formula_units_Z 40
_cell_length_a 9.006232
_cell_length_b 29.735027
_cell_length_c 7.360045
_cell_angle_alpha 90.000000
_cell_angle_beta 90.000000
_cell_angle_gamma 90.000000
_cell_volume 1971.024111
_symmetry_space_group_name_H-M "A M A 2"
_symmetry_group_IT_number 40
_symmetry_cell_setting 'orthorhombic'
loop_
_space_group_symop_operation_xyz
x,y,z
-x,-y,z
1/2-x,y,z
1/2+x,-y,z
x,1/2+y,1/2+z
-x,1/2-y,1/2+z
1/2-x,1/2+y,1/2+z
1/2+x,1/2-y,1/2+z
loop_
_atom_site_type_symbol
_atom_site_label
_atom_site_fract_x
_atom_site_fract_y
_atom_site_fract_z
Si Si1 0.926912 0.548162 0.176300
Si Si2 0.916425 0.782778 0.015720
Si Si3 0.575047 0.606496 0.838537
Si Si4 0.571065 0.380649 0.448583
Si Si5 0.084351 0.692987 0.940061
O O1 0.750000 0.546752 0.207818
O O2 0.000000 0.500000 0.209309
O O3 0.000331 0.585334 0.306230
O O4 0.951554 0.564075 0.968480
O O5 0.750000 0.770885 0.950850
O O6 0.905538 0.798234 0.223942
O O7 0.970806 0.827978 0.914546
O O8 0.019102 0.739343 0.013677
O O9 0.750000 0.610498 0.800556
O O10 0.487152 0.605999 0.649301
O O11 0.520750 0.649965 0.952798
O O12 0.750000 0.382396 0.445624
O O13 0.250000 0.683420 0.010074
#
# Coordination Sequence:
#
# PCOD9364437 Si02
#       5
#     8   8   8   8   8
#     4  11  25  43  66  94 122 160 207 258 313 370
#     4   9  20  36  53  82 118 156 200 243 297 359
#     4  10  22  41  63  89 124 163 205 254 309 368
#     4  10  22  41  64  91 125 163 204 254 309 369
#     4  10  21  35  55  84 117 158 203 247 299 358
#
# _framework density 20.294018999999999
#
# number of rings (size 3 to 8) (size 9 to 14) (size 15 to 20)
#    0.000    2.000    0.000    3.600    2.800    8.800 
#    0.000    2.000    0.000    0.000    0.000    0.000 
#    0.000    0.000    0.000    0.000    0.000    0.000 
#
# Total GULP energy -111724.368933 kJ/mol
# GULP energy per Si atom -5586.218447 kJ/mol
# Density = 2.024783 g / cm^3
# Si number density = 20.294019 Si / 1000 Ang^3
#
#
#
# Elastic Constant Matrix: (Units=GPa)
#
#
# Indices 1 2 3 4 5 6 
#
# 1 71.4543 30.0002 24.0278 0.0000 0.0000 0.0000
# 2 30.0002 86.7676 17.1858 0.0000 0.0000 0.0000
# 3 24.0278 17.1858 53.5880 0.0000 0.0000 0.0000
# 4 0.0000 0.0000 0.0000 31.7975 0.0000 0.0000
# 5 0.0000 0.0000 0.0000 0.0000 30.7440 0.0000
# 6 0.0000 0.0000 0.0000 0.0000 0.0000 23.9144
#
#
#
# Elastic Compliance Matrix: (Units=1/GPa)
#
#
# Indices 1 2 3 4 5 6 
#
# 1 0.018327 -0.005028 -0.006605 0.000000 0.000000 0.000000
# 2 -0.005028 0.013686 -0.002135 0.000000 0.000000 0.000000
# 3 -0.006605 -0.002135 0.022307 0.000000 0.000000 0.000000
# 4 0.000000 0.000000 0.000000 0.031449 0.000000 0.000000
# 5 0.000000 0.000000 0.000000 0.000000 0.032527 0.000000
# 6 0.000000 0.000000 0.000000 0.000000 0.000000 0.041816
#
#
# Mechanical properties :
#
#
# Convention : Reuss Voigt Hill
#
# Bulk Modulus (GPa) = 37.33484 39.35973 38.34729
# Shear Modulus (GPa) = 25.43541 26.66425 26.04983
#
# Velocity S-wave (km/s) = 3.54410 3.62870 3.58665
# Velocity P-wave (km/s) = 5.93165 6.08223 6.00741
#
# Compressibility (1/GPa) = 0.02678463
#
# Stress axis : x y z
#
# Youngs Moduli (GPa) = 54.56377 73.06503 44.82907
#
# Poissons Ratio (x) = 0.36741 0.29609
# Poissons Ratio (y) = 0.27437 0.09569
# Poissons Ratio (z) = 0.36039 0.15596
#
# Static dielectric constant tensor:
#      x y z
#    x 1.688100 0.000000 0.000000 
#    y 0.000000 1.707910 0.000000 
#    z 0.000000 0.000000 1.759330 
# 
# From -- ./inp_files/4240.got.cif
#   From: 2010.05.17/outbox.cif.g08.bks.cpg/sg40_3_cif.got.tgz:4240.got - 2010.06.03 18:35:42.
