data_PCOD9364574
_publ_section_title
;
Structure prediction by ZEFSAII (Michael W. Deem and Ramdas Pophale) SiO2 
 PCOD9364574
Probable space group: A M A 2
;
_chemical_formula_sum "Si O2"
_cell_formula_units_Z 48
_cell_length_a 11.249018
_cell_length_b 23.364727
_cell_length_c 8.996649
_cell_angle_alpha 90.000000
_cell_angle_beta 90.000000
_cell_angle_gamma 90.000000
_cell_volume 2364.591367
_symmetry_space_group_name_H-M "A M A 2"
_symmetry_group_IT_number 40
_symmetry_cell_setting 'orthorhombic'
loop_
_space_group_symop_operation_xyz
x,y,z
-x,-y,z
1/2-x,y,z
1/2+x,-y,z
x,1/2+y,1/2+z
-x,1/2-y,1/2+z
1/2-x,1/2+y,1/2+z
1/2+x,1/2-y,1/2+z
loop_
_atom_site_type_symbol
_atom_site_label
_atom_site_fract_x
_atom_site_fract_y
_atom_site_fract_z
Si Si1 0.564714 0.351297 0.555170
Si Si2 0.950952 0.442623 0.996795
Si Si3 0.385331 0.856616 0.307382
Si Si4 0.612066 0.341867 0.211072
Si Si5 0.382731 0.278485 0.075793
Si Si6 0.874233 0.472022 0.679893
O O1 0.440606 0.351198 0.644529
O O2 0.574012 0.356023 0.378859
O O3 0.618436 0.289480 0.592780
O O4 0.625271 0.407321 0.621564
O O5 0.876774 0.467339 0.858510
O O6 0.000000 0.500000 0.074024
O O7 0.047478 0.403673 0.908233
O O8 0.890626 0.398965 0.109613
O O9 0.250000 0.873179 0.296917
O O10 0.394189 0.798183 0.403458
O O11 0.750000 0.319717 0.208157
O O12 0.502929 0.302729 0.150870
O O13 0.250000 0.300311 0.124575
O O14 0.750000 0.500252 0.631492
O O15 0.000000 0.500000 0.634175
#
# Coordination Sequence:
#
# PCOD9364574 Si02
#       6
#     8   8   8   8   8   8
#     4  11  22  36  59  86 118 155 190 235 292 347
#     4   9  20  37  61  85 112 152 197 239 285 341
#     4   9  20  38  60  86 117 152 195 241 287 340
#     4  11  23  39  59  89 122 153 192 242 293 344
#     4  10  21  40  61  84 116 156 197 239 286 344
#     4  10  21  38  59  84 112 150 195 238 283 340
#
# _framework density 20.299491
#
# number of rings (size 3 to 8) (size 9 to 14) (size 15 to 20)
#    0.000    2.000    0.000    3.000    0.000   10.000 
#    0.000    6.667    0.000    0.000    0.000    0.000 
#    0.000    0.000    0.000    0.000    0.000    0.000 
#
# Total GULP energy -133656.328991 kJ/mol
# GULP energy per Si atom -5569.013708 kJ/mol
# Density = 2.025329 g / cm^3
# Si number density = 20.299491 Si / 1000 Ang^3
#
#
#
# Elastic Constant Matrix: (Units=GPa)
#
#
# Indices 1 2 3 4 5 6 
#
# 1 188.6914 41.3380 48.8533 0.0000 0.0000 0.0000
# 2 41.3380 106.0013 13.4357 0.0000 0.0000 0.0000
# 3 48.8533 13.4357 80.4501 0.0000 0.0000 0.0000
# 4 0.0000 0.0000 0.0000 24.9870 0.0000 0.0000
# 5 0.0000 0.0000 0.0000 0.0000 -14.4262 0.0000
# 6 0.0000 0.0000 0.0000 0.0000 0.0000 -42.0936
#
#
#
# Elastic Compliance Matrix: (Units=1/GPa)
#
#
# Indices 1 2 3 4 5 6 
#
# 1 0.006738 -0.002155 -0.003732 0.000000 0.000000 0.000000
# 2 -0.002155 0.010327 -0.000416 0.000000 0.000000 0.000000
# 3 -0.003732 -0.000416 0.014766 0.000000 0.000000 0.000000
# 4 0.000000 0.000000 0.000000 0.040021 0.000000 0.000000
# 5 0.000000 0.000000 0.000000 0.000000 -0.069318 0.000000
# 6 0.000000 0.000000 0.000000 0.000000 0.000000 -0.023757
#
#
# Mechanical properties :
#
#
# Convention : Reuss Voigt Hill
#
# Bulk Modulus (GPa) = 52.01513 64.71077 58.36295
# Shear Modulus (GPa) = -2262.35389 11.79449 -1125.27970
#
# Velocity S-wave (km/s) = -33.42016 2.41306 -23.56994
# Velocity P-wave (km/s) = 38.25612 6.30167 26.68164
#
# Compressibility (1/GPa) = 0.01922518
#
# Stress axis : x y z
#
# Youngs Moduli (GPa) = 148.41530 96.83493 67.72468
#
# Poissons Ratio (x) = 0.20864 0.25273
# Poissons Ratio (y) = 0.31978 0.02819
# Poissons Ratio (z) = 0.55384 0.04031
#
# Static dielectric constant tensor:
#      x y z
#    x 1.833280 0.000000 0.000000 
#    y 0.000000 1.766560 0.000000 
#    z 0.000000 0.000000 1.698140 
# 
# From -- ./inp_files/5439.got.cif
#   From: 2010.05.17/outbox.cif.g08.bks.cpg/sg40_3_cif.got.tgz:5439.got - 2010.06.03 18:35:42.
