data_PCOD9364164
_publ_section_title
;
Structure prediction by ZEFSAII (Michael W. Deem and Ramdas Pophale) SiO2 
 PCOD9364164
Probable space group: A M A 2
;
_chemical_formula_sum "Si O2"
_cell_formula_units_Z 32
_cell_length_a 18.458833
_cell_length_b 15.126659
_cell_length_c 5.117504
_cell_angle_alpha 90.000000
_cell_angle_beta 90.000000
_cell_angle_gamma 90.000000
_cell_volume 1428.911884
_symmetry_space_group_name_H-M "A M A 2"
_symmetry_group_IT_number 40
_symmetry_cell_setting 'orthorhombic'
loop_
_space_group_symop_operation_xyz
x,y,z
-x,-y,z
1/2-x,y,z
1/2+x,-y,z
x,1/2+y,1/2+z
-x,1/2-y,1/2+z
1/2-x,1/2+y,1/2+z
1/2+x,1/2-y,1/2+z
loop_
_atom_site_type_symbol
_atom_site_label
_atom_site_fract_x
_atom_site_fract_y
_atom_site_fract_z
Si Si1 0.604853 0.214470 0.542000
Si Si2 0.608786 0.400907 0.356108
Si Si3 0.250000 0.507066 0.596925
Si Si4 0.250000 0.895245 0.609141
Si Si5 0.039966 0.131114 0.351593
O O1 0.618780 0.294923 0.342492
O O2 0.677533 0.160424 0.569893
O O3 0.539435 0.152322 0.453064
O O4 0.577047 0.272615 0.789854
O O5 0.679116 0.440739 0.495425
O O6 0.544893 0.412857 0.567476
O O7 0.584419 0.424838 0.065897
O O8 0.250000 0.476902 0.899383
O O9 0.250000 0.422129 0.411724
#
# Coordination Sequence:
#
# PCOD9364164 Si02
#       5
#     8   8   4   4   8
#     4  10  22  42  68 100 116 162 213 276 308 366
#     4  10  21  40  68  86 125 169 209 254 312 376
#     4  12  27  45  54  96 136 177 206 249 309 407
#     4  12  29  39  64  90 140 161 210 261 325 363
#     4  10  20  37  74  95 116 153 225 270 302 367
#
# _framework density 22.394660999999999
#
# number of rings (size 3 to 8) (size 9 to 14) (size 15 to 20)
#    1.500    0.000    2.500    2.250    3.500    1.000 
#    0.000    7.500    0.000    0.000    0.000    0.000 
#    0.000    0.000    0.000    0.000    0.000    0.000 
#
# Total GULP energy -89180.757080 kJ/mol
# GULP energy per Si atom -5573.797317 kJ/mol
# Density = 2.234369 g / cm^3
# Si number density = 22.394661 Si / 1000 Ang^3
#
#
#
# Elastic Constant Matrix: (Units=GPa)
#
#
# Indices 1 2 3 4 5 6 
#
# 1 145.4129 34.6959 24.9229 0.0000 0.0000 0.0000
# 2 34.6959 37.7339 -1.3400 0.0000 0.0000 0.0000
# 3 24.9229 -1.3400 72.1606 0.0000 0.0000 0.0000
# 4 0.0000 0.0000 0.0000 24.0004 0.0000 0.0000
# 5 0.0000 0.0000 0.0000 0.0000 43.9572 0.0000
# 6 0.0000 0.0000 0.0000 0.0000 0.0000 71.2975
#
#
#
# Elastic Compliance Matrix: (Units=1/GPa)
#
#
# Indices 1 2 3 4 5 6 
#
# 1 0.009613 -0.008963 -0.003487 0.000000 0.000000 0.000000
# 2 -0.008963 0.034876 0.003743 0.000000 0.000000 0.000000
# 3 -0.003487 0.003743 0.015132 0.000000 0.000000 0.000000
# 4 0.000000 0.000000 0.000000 0.041666 0.000000 0.000000
# 5 0.000000 0.000000 0.000000 0.000000 0.022749 0.000000
# 6 0.000000 0.000000 0.000000 0.000000 0.000000 0.014026
#
#
# Mechanical properties :
#
#
# Convention : Reuss Voigt Hill
#
# Bulk Modulus (GPa) = 23.69227 41.31833 32.50530
# Shear Modulus (GPa) = 29.49090 40.98624 35.23857
#
# Velocity S-wave (km/s) = 3.63281 4.28270 3.97107
# Velocity P-wave (km/s) = 5.31025 6.55328 5.96424
#
# Compressibility (1/GPa) = 0.04220785
#
# Stress axis : x y z
#
# Youngs Moduli (GPa) = 104.02405 28.67323 66.08633
#
# Poissons Ratio (x) = 0.25700 0.23042
# Poissons Ratio (y) = 0.93237 -0.24738
# Poissons Ratio (z) = 0.36270 -0.10733
#
# Static dielectric constant tensor:
#      x y z
#    x 1.522580 0.000000 0.000000 
#    y 0.000000 1.881800 0.000000 
#    z 0.000000 0.000000 1.840810 
# 
# From -- ./inp_files/1686.got.cif
#   From: 2010.05.17/outbox.cif.g08.bks.cpg/sg40_1_cif.got.tgz:1686.got - 2010.06.03 18:35:42.
