data_PCOD9364111
_publ_section_title
;
Structure prediction by ZEFSAII (Michael W. Deem and Ramdas Pophale) SiO2 
 PCOD9364111
Probable space group: A M A 2
;
_chemical_formula_sum "Si O2"
_cell_formula_units_Z 48
_cell_length_a 8.873813
_cell_length_b 18.133430
_cell_length_c 15.401983
_cell_angle_alpha 90.000000
_cell_angle_beta 90.000000
_cell_angle_gamma 90.000000
_cell_volume 2478.374160
_symmetry_space_group_name_H-M "A M A 2"
_symmetry_group_IT_number 40
_symmetry_cell_setting 'orthorhombic'
loop_
_space_group_symop_operation_xyz
x,y,z
-x,-y,z
1/2-x,y,z
1/2+x,-y,z
x,1/2+y,1/2+z
-x,1/2-y,1/2+z
1/2-x,1/2+y,1/2+z
1/2+x,1/2-y,1/2+z
loop_
_atom_site_type_symbol
_atom_site_label
_atom_site_fract_x
_atom_site_fract_y
_atom_site_fract_z
Si Si1 0.929936 0.695589 0.443360
Si Si2 0.571251 0.306775 0.627052
Si Si3 0.071257 0.630014 0.933008
Si Si4 0.430643 0.367657 0.116697
Si Si5 0.431297 0.424089 0.301902
Si Si6 0.070870 0.923103 0.257026
O O1 0.750000 0.687966 0.458114
O O2 0.957931 0.781843 0.424838
O O3 0.973588 0.644321 0.362962
O O4 0.016573 0.673090 0.530423
O O5 0.750000 0.317109 0.636854
O O6 0.539417 0.219240 0.634492
O O7 0.487634 0.355997 0.697847
O O8 0.250000 0.617421 0.925645
O O9 0.986128 0.590402 0.855029
O O10 0.012691 0.609044 0.028541
O O11 0.250000 0.375377 0.105281
O O12 0.480114 0.410224 0.202798
O O13 0.500000 0.500000 0.334974
O O14 0.250000 0.428210 0.301869
O O15 0.250000 0.927113 0.254569
O O16 0.000000 0.000000 0.225337
#
# Coordination Sequence:
#
# PCOD9364111 Si02
#       6
#     8   8   8   8   8   8
#     4   9  19  37  59  83 113 149 187 229 278 330
#     4  10  20  37  61  86 111 143 186 234 281 332
#     4  10  20  37  61  86 111 143 186 234 281 332
#     4   9  19  37  59  83 113 149 187 229 278 330
#     4  10  21  36  54  78 112 150 185 224 270 322
#     4  12  25  40  58  82 114 150 187 230 284 344
#
# _framework density 19.367536000000001
#
# number of rings (size 3 to 8) (size 9 to 14) (size 15 to 20)
#    0.000    2.000    0.000    3.500    0.000    6.667 
#    0.000    5.000    0.000    0.000    0.000    0.000 
#    0.000    0.000    0.000    0.000    0.000    0.000 
#
# Total GULP energy -134114.893484 kJ/mol
# GULP energy per Si atom -5588.120562 kJ/mol
# Density = 1.932345 g / cm^3
# Si number density = 19.367536 Si / 1000 Ang^3
#
#
#
# Elastic Constant Matrix: (Units=GPa)
#
#
# Indices 1 2 3 4 5 6 
#
# 1 60.4987 21.3908 26.0583 0.0000 0.0000 0.0000
# 2 21.3908 27.6528 13.8006 0.0000 0.0000 0.0000
# 3 26.0583 13.8006 65.4465 0.0000 0.0000 0.0000
# 4 0.0000 0.0000 0.0000 -16.7166 0.0000 0.0000
# 5 0.0000 0.0000 0.0000 0.0000 28.6385 0.0000
# 6 0.0000 0.0000 0.0000 0.0000 0.0000 26.8778
#
#
#
# Elastic Compliance Matrix: (Units=1/GPa)
#
#
# Indices 1 2 3 4 5 6 
#
# 1 0.025056 -0.016097 -0.006582 0.000000 0.000000 0.000000
# 2 -0.016097 0.050757 -0.004294 0.000000 0.000000 0.000000
# 3 -0.006582 -0.004294 0.018806 0.000000 0.000000 0.000000
# 4 0.000000 0.000000 0.000000 -0.059821 0.000000 0.000000
# 5 0.000000 0.000000 0.000000 0.000000 0.034918 0.000000
# 6 0.000000 0.000000 0.000000 0.000000 0.000000 0.037205
#
#
# Mechanical properties :
#
#
# Convention : Reuss Voigt Hill
#
# Bulk Modulus (GPa) = 24.58617 30.67748 27.63183
# Shear Modulus (GPa) = 28.66561 13.91650 21.29105
#
# Velocity S-wave (km/s) = 3.85136 2.68348 3.31919
# Velocity P-wave (km/s) = 5.70082 5.04732 5.38400
#
# Compressibility (1/GPa) = 0.04067327
#
# Stress axis : x y z
#
# Youngs Moduli (GPa) = 39.91098 19.70155 53.17513
#
# Poissons Ratio (x) = 0.31714 0.34999
# Poissons Ratio (y) = 0.64245 0.22833
# Poissons Ratio (z) = 0.26269 0.08460
#
# Static dielectric constant tensor:
#      x y z
#    x 1.646360 0.000000 0.000000 
#    y 0.000000 1.668470 0.000000 
#    z 0.000000 0.000000 1.657430 
# 
# From -- ./inp_files/15035.got.cif
#   From: 2010.05.17/outbox.cif.g08.bks.cpg/sg40_8_cif.got.tgz:15035.got - 2010.06.03 18:35:42.
