data_PCOD9364849
_publ_section_title
;
Structure prediction by ZEFSAII (Michael W. Deem and Ramdas Pophale) SiO2 
 PCOD9364849
Probable space group: A M A 2
;
_chemical_formula_sum "Si O2"
_cell_formula_units_Z 64
_cell_length_a 27.185302
_cell_length_b 8.970125
_cell_length_c 12.044823
_cell_angle_alpha 90.000000
_cell_angle_beta 90.000000
_cell_angle_gamma 90.000000
_cell_volume 2937.197023
_symmetry_space_group_name_H-M "A M A 2"
_symmetry_group_IT_number 40
_symmetry_cell_setting 'orthorhombic'
loop_
_space_group_symop_operation_xyz
x,y,z
-x,-y,z
1/2-x,y,z
1/2+x,-y,z
x,1/2+y,1/2+z
-x,1/2-y,1/2+z
1/2-x,1/2+y,1/2+z
1/2+x,1/2-y,1/2+z
loop_
_atom_site_type_symbol
_atom_site_label
_atom_site_fract_x
_atom_site_fract_y
_atom_site_fract_z
Si Si1 0.458330 0.891506 0.616620
Si Si2 0.844540 0.562505 0.062487
Si Si3 0.471559 0.356596 0.551633
Si Si4 0.804826 0.883354 0.017950
Si Si5 0.885775 0.493464 0.693062
Si Si6 0.073823 0.290545 0.332388
Si Si7 0.322809 0.407049 0.316539
Si Si8 0.305583 0.063280 0.356215
O O1 0.403696 0.913567 0.567859
O O2 0.483442 0.732519 0.602990
O O3 0.453410 0.901633 0.748943
O O4 0.500000 0.000000 0.572071
O O5 0.818248 0.709115 0.012345
O O6 0.825990 0.542405 0.188614
O O7 0.827937 0.432691 0.980310
O O8 0.500000 0.500000 0.505802
O O9 0.428444 0.402004 0.639828
O O10 0.451699 0.262444 0.448159
O O11 0.750000 0.899737 0.069822
O O12 0.849805 0.944073 0.092971
O O13 0.802331 0.972455 0.901989
O O14 0.910846 0.354452 0.759794
O O15 0.844146 0.536164 0.784825
O O16 0.122620 0.379937 0.360794
O O17 0.303357 0.236024 0.315574
O O18 0.250000 0.005396 0.355070
#
# Coordination Sequence:
#
# PCOD9364849 Si02
#       8
#     8   8   8   8   8   8   8   8
#     4  11  25  43  65 101 136 181 235 281 352 413
#     4  11  25  49  67 100 145 179 233 298 345 416
#     4  12  23  43  73  98 139 186 231 289 352 417
#     4  12  22  41  73 100 134 184 230 286 353 412
#     4  11  23  43  67 103 139 182 232 288 343 426
#     4  10  21  43  65  97 133 179 228 282 344 408
#     4  10  23  44  71  97 139 180 231 286 351 412
#     4  11  24  45  73 101 141 189 229 290 362 417
#
# _framework density 21.789482
#
# number of rings (size 3 to 8) (size 9 to 14) (size 15 to 20)
#    0.000    1.000    6.250    1.500    3.500    2.500 
#    6.750    0.000    0.000    0.000    0.000    0.000 
#    0.000    0.000    0.000    0.000    0.000    0.000 
#
# Total GULP energy -178250.235165 kJ/mol
# GULP energy per Si atom -5570.319849 kJ/mol
# Density = 2.173989 g / cm^3
# Si number density = 21.789482 Si / 1000 Ang^3
#
#
#
# Elastic Constant Matrix: (Units=GPa)
#
#
# Indices 1 2 3 4 5 6 
#
# 1 127.5394 23.8707 80.2841 0.0000 0.0000 0.0000
# 2 23.8707 37.6481 28.9599 0.0000 0.0000 0.0000
# 3 80.2841 28.9599 104.2755 0.0000 0.0000 0.0000
# 4 0.0000 0.0000 0.0000 44.6617 0.0000 0.0000
# 5 0.0000 0.0000 0.0000 0.0000 24.4683 0.0000
# 6 0.0000 0.0000 0.0000 0.0000 0.0000 13.0180
#
#
#
# Elastic Compliance Matrix: (Units=1/GPa)
#
#
# Indices 1 2 3 4 5 6 
#
# 1 0.015234 -0.000810 -0.011504 0.000000 0.000000 0.000000
# 2 -0.000810 0.033821 -0.008769 0.000000 0.000000 0.000000
# 3 -0.011504 -0.008769 0.020883 0.000000 0.000000 0.000000
# 4 0.000000 0.000000 0.000000 0.022391 0.000000 0.000000
# 5 0.000000 0.000000 0.000000 0.000000 0.040869 0.000000
# 6 0.000000 0.000000 0.000000 0.000000 0.000000 0.076817
#
#
# Mechanical properties :
#
#
# Convention : Reuss Voigt Hill
#
# Bulk Modulus (GPa) = 36.00887 59.52140 47.76514
# Shear Modulus (GPa) = 19.12505 25.51949 22.32227
#
# Velocity S-wave (km/s) = 2.96585 3.42597 3.20418
# Velocity P-wave (km/s) = 5.31884 6.55939 5.97141
#
# Compressibility (1/GPa) = 0.02777093
#
# Stress axis : x y z
#
# Youngs Moduli (GPa) = 65.64314 29.56755 47.88656
#
# Poissons Ratio (x) = 0.02394 0.55089
# Poissons Ratio (y) = 0.05316 0.41994
# Poissons Ratio (z) = 0.75516 0.25929
#
# Static dielectric constant tensor:
#      x y z
#    x 1.794180 0.000000 0.000000 
#    y 0.000000 1.621830 0.000000 
#    z 0.000000 0.000000 1.817640 
# 
# From -- ./inp_files/14410.got.cif
#   From: 2010.05.17/outbox.cif.g08.bks.cpg/sg40_8_cif.got.tgz:14410.got - 2010.06.03 18:35:42.
