data_PCOD9364154
_publ_section_title
;
Structure prediction by ZEFSAII (Michael W. Deem and Ramdas Pophale) SiO2 
 PCOD9364154
Probable space group: A M A 2
;
_chemical_formula_sum "Si O2"
_cell_formula_units_Z 40
_cell_length_a 13.885241
_cell_length_b 17.553585
_cell_length_c 8.309265
_cell_angle_alpha 90.000000
_cell_angle_beta 90.000000
_cell_angle_gamma 90.000000
_cell_volume 2025.265004
_symmetry_space_group_name_H-M "A M A 2"
_symmetry_group_IT_number 40
_symmetry_cell_setting 'orthorhombic'
loop_
_space_group_symop_operation_xyz
x,y,z
-x,-y,z
1/2-x,y,z
1/2+x,-y,z
x,1/2+y,1/2+z
-x,1/2-y,1/2+z
1/2-x,1/2+y,1/2+z
1/2+x,1/2-y,1/2+z
loop_
_atom_site_type_symbol
_atom_site_label
_atom_site_fract_x
_atom_site_fract_y
_atom_site_fract_z
Si Si1 0.862929 0.202399 0.609540
Si Si2 0.527612 0.231085 0.278538
Si Si3 0.494923 0.416197 0.570513
Si Si4 0.361474 0.454748 0.267639
Si Si5 0.136179 0.621435 0.298098
O O1 0.750000 0.222587 0.592588
O O2 0.926698 0.221422 0.454135
O O3 0.869223 0.111999 0.639224
O O4 0.915977 0.244510 0.758498
O O5 0.538977 0.152808 0.181425
O O6 0.584649 0.306388 0.218305
O O7 0.500000 0.500000 0.650565
O O8 0.423326 0.429899 0.420860
O O9 0.593473 0.391526 0.478774
O O10 0.250000 0.458786 0.318271
O O11 0.387399 0.540334 0.214582
O O12 0.250000 0.633362 0.301050
#
# Coordination Sequence:
#
# PCOD9364154 Si02
#       5
#     8   8   8   8   8
#     4  11  23  40  63  93 129 159 205 262 310 371
#     4  12  22  38  62  93 123 168 204 256 320 356
#     4  10  21  39  59  91 122 164 205 253 307 378
#     4   9  19  38  63  87 117 162 205 254 314 374
#     4  10  20  37  64  88 117 160 209 251 302 370
#
# _framework density 19.750501
#
# number of rings (size 3 to 8) (size 9 to 14) (size 15 to 20)
#    0.000    1.600    4.000    0.600    0.000    1.600 
#    3.600    2.000    0.000    0.000    0.000    0.000 
#    0.000    0.000    0.000    0.000    0.000    0.000 
#
# Total GULP energy -111478.042176 kJ/mol
# GULP energy per Si atom -5573.902109 kJ/mol
# Density = 1.970555 g / cm^3
# Si number density = 19.750501 Si / 1000 Ang^3
#
#
#
# Elastic Constant Matrix: (Units=GPa)
#
#
# Indices 1 2 3 4 5 6 
#
# 1 118.2094 51.7318 45.9441 0.0000 0.0000 0.0000
# 2 51.7318 174.3203 37.3905 0.0000 0.0000 0.0000
# 3 45.9441 37.3905 38.1987 0.0000 0.0000 0.0000
# 4 0.0000 0.0000 0.0000 38.2202 0.0000 0.0000
# 5 0.0000 0.0000 0.0000 0.0000 15.8784 0.0000
# 6 0.0000 0.0000 0.0000 0.0000 0.0000 29.7989
#
#
#
# Elastic Compliance Matrix: (Units=1/GPa)
#
#
# Indices 1 2 3 4 5 6 
#
# 1 0.015970 -0.000784 -0.018441 0.000000 0.000000 0.000000
# 2 -0.000784 0.007300 -0.006202 0.000000 0.000000 0.000000
# 3 -0.018441 -0.006202 0.054430 0.000000 0.000000 0.000000
# 4 0.000000 0.000000 0.000000 0.026164 0.000000 0.000000
# 5 0.000000 0.000000 0.000000 0.000000 0.062979 0.000000
# 6 0.000000 0.000000 0.000000 0.000000 0.000000 0.033558
#
#
# Mechanical properties :
#
#
# Convention : Reuss Voigt Hill
#
# Bulk Modulus (GPa) = 37.25027 66.76235 52.00631
# Shear Modulus (GPa) = 19.21578 29.82365 24.51972
#
# Velocity S-wave (km/s) = 3.12256 3.89011 3.52728
# Velocity P-wave (km/s) = 5.64817 7.35211 6.55574
#
# Compressibility (1/GPa) = 0.02684544
#
# Stress axis : x y z
#
# Youngs Moduli (GPa) = 62.61772 136.99514 18.37228
#
# Poissons Ratio (x) = 0.10738 0.33880
# Poissons Ratio (y) = 0.04908 0.11395
# Poissons Ratio (z) = 1.15472 0.84968
#
# Static dielectric constant tensor:
#      x y z
#    x 1.723530 0.000000 0.000000 
#    y 0.000000 1.773680 0.000000 
#    z 0.000000 0.000000 1.693590 
# 
# From -- ./inp_files/6297.got.cif
#   From: 2010.05.17/outbox.cif.g08.bks.cpg/sg40_4_cif.got.tgz:6297.got - 2010.06.03 18:35:42.
