data_PCOD9364691
_publ_section_title
;
Structure prediction by ZEFSAII (Michael W. Deem and Ramdas Pophale) SiO2 
 PCOD9364691
Probable space group: A M A 2
;
_chemical_formula_sum "Si O2"
_cell_formula_units_Z 56
_cell_length_a 13.539626
_cell_length_b 15.069086
_cell_length_c 11.998954
_cell_angle_alpha 90.000000
_cell_angle_beta 90.000000
_cell_angle_gamma 90.000000
_cell_volume 2448.144048
_symmetry_space_group_name_H-M "A M A 2"
_symmetry_group_IT_number 40
_symmetry_cell_setting 'orthorhombic'
loop_
_space_group_symop_operation_xyz
x,y,z
-x,-y,z
1/2-x,y,z
1/2+x,-y,z
x,1/2+y,1/2+z
-x,1/2-y,1/2+z
1/2-x,1/2+y,1/2+z
1/2+x,1/2-y,1/2+z
loop_
_atom_site_type_symbol
_atom_site_label
_atom_site_fract_x
_atom_site_fract_y
_atom_site_fract_z
Si Si1 0.130350 0.863556 0.714210
Si Si2 0.367426 0.666271 0.617174
Si Si3 0.863262 0.161173 0.289516
Si Si4 0.138876 0.724077 0.078188
Si Si5 0.629973 0.959294 0.323051
Si Si6 0.993542 0.807391 0.911135
Si Si7 0.131733 0.536157 0.077695
O O1 0.250000 0.869793 0.739343
O O2 0.116704 0.770021 0.649223
O O3 0.060573 0.860729 0.822987
O O4 0.098438 0.946659 0.637395
O O5 0.250000 0.653510 0.597866
O O6 0.398063 0.609525 0.726008
O O7 0.429592 0.643051 0.506564
O O8 0.750000 0.161614 0.331549
O O9 0.864015 0.195278 0.163470
O O10 0.922008 0.236402 0.353783
O O11 0.898523 0.060523 0.296285
O O12 0.250000 0.713799 0.035554
O O13 0.113928 0.630593 0.137146
O O14 0.070383 0.747553 0.977894
O O15 0.750000 0.954848 0.323285
O O16 0.598022 0.947151 0.451017
O O17 0.250000 0.523399 0.072917
#
# Coordination Sequence:
#
# PCOD9364691 Si02
#       7
#     8   8   8   8   8   8   8
#     4  10  21  39  64  95 131 171 218 272 329 390
#     4  10  21  39  64  95 131 171 218 272 329 390
#     4  10  22  41  62  86 122 166 209 255 313 382
#     4  10  22  41  62  86 122 166 209 255 313 382
#     4   9  18  37  66  92 115 155 211 265 317 377
#     4  12  22  38  62  94 132 168 210 270 334 384
#     4   9  18  37  66  92 115 155 211 265 317 377
#
# _framework density 22.874472999999998
#
# number of rings (size 3 to 8) (size 9 to 14) (size 15 to 20)
#    0.000    2.000    0.000    3.429    0.000    4.571 
#    0.000   16.429    0.000    6.857    0.000    4.000 
#    0.000    3.429    0.000    0.000    0.000    0.571 
#
# Total GULP energy -156578.667366 kJ/mol
# GULP energy per Si atom -5592.095263 kJ/mol
# Density = 2.282241 g / cm^3
# Si number density = 22.874473 Si / 1000 Ang^3
#
#
#
# Elastic Constant Matrix: (Units=GPa)
#
#
# Indices 1 2 3 4 5 6 
#
# 1 90.1471 12.6671 47.5871 0.0000 0.0000 0.0000
# 2 12.6671 115.5471 57.5484 0.0000 0.0000 0.0000
# 3 47.5871 57.5484 121.4072 0.0000 0.0000 0.0000
# 4 0.0000 0.0000 0.0000 34.9881 0.0000 0.0000
# 5 0.0000 0.0000 0.0000 0.0000 45.9715 0.0000
# 6 0.0000 0.0000 0.0000 0.0000 0.0000 10.2971
#
#
#
# Elastic Compliance Matrix: (Units=1/GPa)
#
#
# Indices 1 2 3 4 5 6 
#
# 1 0.014207 0.001592 -0.006323 0.000000 0.000000 0.000000
# 2 0.001592 0.011507 -0.006079 0.000000 0.000000 0.000000
# 3 -0.006323 -0.006079 0.013597 0.000000 0.000000 0.000000
# 4 0.000000 0.000000 0.000000 0.028581 0.000000 0.000000
# 5 0.000000 0.000000 0.000000 0.000000 0.021753 0.000000
# 6 0.000000 0.000000 0.000000 0.000000 0.000000 0.097115
#
#
# Mechanical properties :
#
#
# Convention : Reuss Voigt Hill
#
# Bulk Modulus (GPa) = 56.52543 62.52298 59.52420
# Shear Modulus (GPa) = 23.33428 32.20459 27.76943
#
# Velocity S-wave (km/s) = 3.19737 3.75625 3.48802
# Velocity P-wave (km/s) = 6.19642 6.79742 6.50387
#
# Compressibility (1/GPa) = 0.01769115
#
# Stress axis : x y z
#
# Youngs Moduli (GPa) = 70.38668 86.90048 73.54821
#
# Poissons Ratio (x) = -0.13833 0.46506
# Poissons Ratio (y) = -0.11204 0.44707
# Poissons Ratio (z) = 0.44507 0.52823
#
# Static dielectric constant tensor:
#      x y z
#    x 1.957400 0.000000 0.000000 
#    y 0.000000 1.828490 0.000000 
#    z 0.000000 0.000000 1.842260 
# 
# From -- ./inp_files/12250.got.cif
#   From: 2010.05.17/outbox.cif.g08.bks.cpg/sg40_7_cif.got.tgz:12250.got - 2010.06.03 18:35:42.
