data_PCOD9364911
_publ_section_title
;
Structure prediction by ZEFSAII (Michael W. Deem and Ramdas Pophale) SiO2 
 PCOD9364911
Probable space group: A M A 2
;
_chemical_formula_sum "Si O2"
_cell_formula_units_Z 48
_cell_length_a 19.278572
_cell_length_b 11.182342
_cell_length_c 10.809146
_cell_angle_alpha 90.000000
_cell_angle_beta 90.000000
_cell_angle_gamma 90.000000
_cell_volume 2330.231213
_symmetry_space_group_name_H-M "A M A 2"
_symmetry_group_IT_number 40
_symmetry_cell_setting 'orthorhombic'
loop_
_space_group_symop_operation_xyz
x,y,z
-x,-y,z
1/2-x,y,z
1/2+x,-y,z
x,1/2+y,1/2+z
-x,1/2-y,1/2+z
1/2-x,1/2+y,1/2+z
1/2+x,1/2-y,1/2+z
loop_
_atom_site_type_symbol
_atom_site_label
_atom_site_fract_x
_atom_site_fract_y
_atom_site_fract_z
Si Si1 0.437180 0.231525 0.431010
Si Si2 0.827842 0.110755 0.505812
Si Si3 0.170967 0.585555 0.788463
Si Si4 0.576929 0.022996 0.077541
Si Si5 0.087556 0.683841 0.375721
Si Si6 0.572211 0.954378 0.646913
O O1 0.378230 0.194332 0.332983
O O2 0.418372 0.345911 0.516523
O O3 0.511161 0.257430 0.368323
O O4 0.446547 0.119851 0.524072
O O5 0.750000 0.133860 0.549562
O O6 0.860259 0.223473 0.436757
O O7 0.825616 0.003903 0.405432
O O8 0.878826 0.064117 0.612137
O O9 0.250000 0.620502 0.757339
O O10 0.133981 0.512802 0.678292
O O11 0.500000 0.000000 0.133482
O O12 0.582209 0.929057 0.965961
O O13 0.108240 0.635365 0.242054
O O14 0.500000 0.000000 0.703695
#
# Coordination Sequence:
#
# PCOD9364911 Si02
#       6
#     8   8   8   8   8   8
#     4  10  22  38  62  92 126 165 210 264 314 370
#     4  10  23  42  62  92 125 163 211 258 320 384
#     4  10  23  40  64  91 122 165 210 256 316 381
#     4  10  23  39  58  93 125 162 209 260 312 372
#     4  11  23  38  62  92 126 164 213 262 314 376
#     4  11  21  38  64  92 125 167 213 265 316 372
#
# _framework density 20.598814999999998
#
# number of rings (size 3 to 8) (size 9 to 14) (size 15 to 20)
#    0.000    1.667    1.667    2.500    7.000    3.333 
#    0.000    3.333    0.000    0.000    0.000    0.000 
#    0.000    0.000    0.000    0.000    0.000    0.000 
#
# Total GULP energy -134145.065792 kJ/mol
# GULP energy per Si atom -5589.377741 kJ/mol
# Density = 2.055193 g / cm^3
# Si number density = 20.598815 Si / 1000 Ang^3
#
#
#
# Elastic Constant Matrix: (Units=GPa)
#
#
# Indices 1 2 3 4 5 6 
#
# 1 116.5832 35.4345 15.6792 0.0000 0.0000 0.0000
# 2 35.4345 84.9276 1.3554 0.0000 0.0000 0.0000
# 3 15.6792 1.3554 37.3005 0.0000 0.0000 0.0000
# 4 0.0000 0.0000 0.0000 34.6407 0.0000 0.0000
# 5 0.0000 0.0000 0.0000 0.0000 6.5311 0.0000
# 6 0.0000 0.0000 0.0000 0.0000 0.0000 7.2139
#
#
#
# Elastic Compliance Matrix: (Units=1/GPa)
#
#
# Indices 1 2 3 4 5 6 
#
# 1 0.010452 -0.004293 -0.004238 0.000000 0.000000 0.000000
# 2 -0.004293 0.013545 0.001313 0.000000 0.000000 0.000000
# 3 -0.004238 0.001313 0.028543 0.000000 0.000000 0.000000
# 4 0.000000 0.000000 0.000000 0.028868 0.000000 0.000000
# 5 0.000000 0.000000 0.000000 0.000000 0.153114 0.000000
# 6 0.000000 0.000000 0.000000 0.000000 0.000000 0.138622
#
#
# Mechanical properties :
#
#
# Convention : Reuss Voigt Hill
#
# Bulk Modulus (GPa) = 26.24444 38.19441 32.21943
# Shear Modulus (GPa) = 12.49120 22.09995 17.29558
#
# Velocity S-wave (km/s) = 2.46520 3.27903 2.90080
# Velocity P-wave (km/s) = 4.56852 5.73745 5.18602
#
# Compressibility (1/GPa) = 0.03810331
#
# Stress axis : x y z
#
# Youngs Moduli (GPa) = 95.67139 73.82718 35.03502
#
# Poissons Ratio (x) = 0.31697 0.14847
# Poissons Ratio (y) = 0.41076 -0.04598
# Poissons Ratio (z) = 0.40542 -0.09690
#
# Static dielectric constant tensor:
#      x y z
#    x 1.723720 0.000000 0.000000 
#    y 0.000000 1.740350 0.000000 
#    z 0.000000 0.000000 1.739920 
# 
# From -- ./inp_files/12897.got.cif
#   From: 2010.05.17/outbox.cif.g08.bks.cpg/sg40_7_cif.got.tgz:12897.got - 2010.06.03 18:35:42.
