data_PCOD9364542
_publ_section_title
;
Structure prediction by ZEFSAII (Michael W. Deem and Ramdas Pophale) SiO2 
 PCOD9364542
Probable space group: A M A 2
;
_chemical_formula_sum "Si O2"
_cell_formula_units_Z 60
_cell_length_a 14.910959
_cell_length_b 11.468274
_cell_length_c 16.772940
_cell_angle_alpha 90.000000
_cell_angle_beta 90.000000
_cell_angle_gamma 90.000000
_cell_volume 2868.222445
_symmetry_space_group_name_H-M "A M A 2"
_symmetry_group_IT_number 40
_symmetry_cell_setting 'orthorhombic'
loop_
_space_group_symop_operation_xyz
x,y,z
-x,-y,z
1/2-x,y,z
1/2+x,-y,z
x,1/2+y,1/2+z
-x,1/2-y,1/2+z
1/2-x,1/2+y,1/2+z
1/2+x,1/2-y,1/2+z
loop_
_atom_site_type_symbol
_atom_site_label
_atom_site_fract_x
_atom_site_fract_y
_atom_site_fract_z
Si Si1 0.350756 0.445411 0.731950
Si Si2 0.351019 0.700715 0.657329
Si Si3 0.576123 0.783745 0.412477
Si Si4 0.981229 0.254120 0.242476
Si Si5 0.599947 0.449506 0.333237
Si Si6 0.647357 0.530034 0.923428
Si Si7 0.093703 0.714106 0.479441
Si Si8 0.750000 0.642228 0.353718
O O1 0.250000 0.406822 0.709976
O O2 0.363105 0.574723 0.698066
O O3 0.425604 0.353397 0.706937
O O4 0.355027 0.455190 0.827596
O O5 0.250000 0.742073 0.678909
O O6 0.431183 0.780031 0.690217
O O7 0.363703 0.684543 0.563693
O O8 0.519259 0.782003 0.329826
O O9 0.514850 0.711886 0.474425
O O10 0.670811 0.727956 0.390642
O O11 0.589927 0.915626 0.441387
O O12 0.915218 0.361428 0.259706
O O13 0.500000 0.500000 0.348138
O O14 0.627356 0.371646 0.409917
O O15 0.670979 0.550912 0.323583
O O16 0.750000 0.508379 0.947112
O O17 0.617974 0.652174 0.960366
#
# Coordination Sequence:
#
# PCOD9364542 Si02
#       8
#     8   8   8   8   8   8   8   4
#     4  10  21  37  63 103 136 175 227 293 352 414
#     4  11  25  41  64 101 146 186 225 295 374 430
#     4  11  22  41  69  97 134 177 235 293 343 419
#     4  11  22  40  64  96 131 179 240 292 347 414
#     4  11  24  41  65  97 137 185 233 292 353 432
#     4  11  20  36  70 102 133 172 229 295 344 407
#     4  11  24  42  64 101 140 178 229 290 366 421
#     4  12  24  42  66 100 132 180 226 292 358 428
#
# _framework density 20.918880000000001
#
# number of rings (size 3 to 8) (size 9 to 14) (size 15 to 20)
#    0.000    1.067    7.333    1.200    3.733    1.067 
#    0.000    1.333    0.000    0.000    0.000    0.000 
#    0.000    0.000    0.000    0.000    0.000    0.000 
#
# Total GULP energy -167121.755550 kJ/mol
# GULP energy per Si atom -5570.725185 kJ/mol
# Density = 2.087127 g / cm^3
# Si number density = 20.918880 Si / 1000 Ang^3
#
#
#
# Elastic Constant Matrix: (Units=GPa)
#
#
# Indices 1 2 3 4 5 6 
#
# 1 117.8490 27.1717 4.5946 0.0000 0.0000 0.0000
# 2 27.1717 61.1837 0.8600 0.0000 0.0000 0.0000
# 3 4.5946 0.8600 36.1049 0.0000 0.0000 0.0000
# 4 0.0000 0.0000 0.0000 10.7172 0.0000 0.0000
# 5 0.0000 0.0000 0.0000 0.0000 19.9554 0.0000
# 6 0.0000 0.0000 0.0000 0.0000 0.0000 41.0618
#
#
#
# Elastic Compliance Matrix: (Units=1/GPa)
#
#
# Indices 1 2 3 4 5 6 
#
# 1 0.009498 -0.004202 -0.001109 0.000000 0.000000 0.000000
# 2 -0.004202 0.018209 0.000101 0.000000 0.000000 0.000000
# 3 -0.001109 0.000101 0.027836 0.000000 0.000000 0.000000
# 4 0.000000 0.000000 0.000000 0.093308 0.000000 0.000000
# 5 0.000000 0.000000 0.000000 0.000000 0.050112 0.000000
# 6 0.000000 0.000000 0.000000 0.000000 0.000000 0.024354
#
#
# Mechanical properties :
#
#
# Convention : Reuss Voigt Hill
#
# Bulk Modulus (GPa) = 22.16176 31.15446 26.65811
# Shear Modulus (GPa) = 20.09838 26.51429 23.30634
#
# Velocity S-wave (km/s) = 3.10300 3.56403 3.34148
# Velocity P-wave (km/s) = 4.84307 5.64462 5.25914
#
# Compressibility (1/GPa) = 0.04512277
#
# Stress axis : x y z
#
# Youngs Moduli (GPa) = 105.29037 54.91782 35.92506
#
# Poissons Ratio (x) = 0.23078 0.03982
# Poissons Ratio (y) = 0.44246 -0.00363
# Poissons Ratio (z) = 0.11672 -0.00555
#
# Static dielectric constant tensor:
#      x y z
#    x 1.797700 0.000000 0.000000 
#    y 0.000000 1.783120 0.000000 
#    z 0.000000 0.000000 1.755030 
# 
# From -- ./inp_files/20756.got.cif
#   From: 2010.05.17/outbox.cif.g08.bks.cpg/sg40_11_cif.got.tgz:20756.got - 2010.06.03 18:35:42.
