data_PCOD9364463
_publ_section_title
;
Structure prediction by ZEFSAII (Michael W. Deem and Ramdas Pophale) SiO2 
 PCOD9364463
Probable space group: A M A 2
;
_chemical_formula_sum "Si O2"
_cell_formula_units_Z 56
_cell_length_a 9.213037
_cell_length_b 20.118883
_cell_length_c 15.645613
_cell_angle_alpha 90.000000
_cell_angle_beta 90.000000
_cell_angle_gamma 90.000000
_cell_volume 2900.008454
_symmetry_space_group_name_H-M "A M A 2"
_symmetry_group_IT_number 40
_symmetry_cell_setting 'orthorhombic'
loop_
_space_group_symop_operation_xyz
x,y,z
-x,-y,z
1/2-x,y,z
1/2+x,-y,z
x,1/2+y,1/2+z
-x,1/2-y,1/2+z
1/2-x,1/2+y,1/2+z
1/2+x,1/2-y,1/2+z
loop_
_atom_site_type_symbol
_atom_site_label
_atom_site_fract_x
_atom_site_fract_y
_atom_site_fract_z
Si Si1 0.086576 0.807743 0.918250
Si Si2 0.919383 0.937967 0.637691
Si Si3 0.909651 0.180014 0.575941
Si Si4 0.913303 0.186421 0.369649
Si Si5 0.084883 0.442823 0.316382
Si Si6 0.574538 0.573354 0.733479
Si Si7 0.921137 0.831478 0.094480
O O1 0.250000 0.790200 0.947092
O O2 0.090719 0.873552 0.862827
O O3 0.022608 0.747847 0.861464
O O4 0.989051 0.827352 0.999740
O O5 0.750000 0.949197 0.638630
O O6 0.961299 0.868577 0.597244
O O7 0.990870 0.934144 0.731238
O O8 0.000000 0.000000 0.593268
O O9 0.750000 0.154472 0.604521
O O10 0.906352 0.180897 0.472707
O O11 0.929093 0.252714 0.617434
O O12 0.750000 0.204727 0.340410
O O13 0.952054 0.119194 0.318472
O O14 0.250000 0.463635 0.298318
O O15 0.000000 0.500000 0.367936
O O16 0.500000 0.500000 0.737163
O O17 0.750000 0.566145 0.723870
O O18 0.507101 0.618258 0.656393
O O19 0.750000 0.849006 0.092483
#
# Coordination Sequence:
#
# PCOD9364463 Si02
#       7
#     8   8   8   8   8   8   8
#     4  10  21  37  60  88 118 153 197 244 294 353
#     4  11  22  35  54  81 114 151 190 233 283 340
#     4   9  19  38  60  84 117 152 192 239 294 349
#     4   9  21  40  61  87 117 152 195 245 295 350
#     4  10  21  36  54  81 114 150 189 232 283 340
#     4  11  24  42  63  90 123 159 205 252 304 365
#     4  10  22  40  62  87 118 155 196 245 298 350
#
# _framework density 19.310289000000001
#
# number of rings (size 3 to 8) (size 9 to 14) (size 15 to 20)
#    0.000    2.000    0.000    4.714    2.000    7.429 
#    0.000    2.857    0.000    0.000    0.000    0.000 
#    0.000    0.000    0.000    0.000    0.000    0.000 
#
# Total GULP energy -155986.516110 kJ/mol
# GULP energy per Si atom -5570.947004 kJ/mol
# Density = 1.926634 g / cm^3
# Si number density = 19.310289 Si / 1000 Ang^3
#
#
#
# Elastic Constant Matrix: (Units=GPa)
#
#
# Indices 1 2 3 4 5 6 
#
# 1 160.0379 84.7587 32.6637 0.0000 0.0000 0.0000
# 2 84.7587 140.0430 45.3241 0.0000 0.0000 0.0000
# 3 32.6637 45.3241 43.6804 0.0000 0.0000 0.0000
# 4 0.0000 0.0000 0.0000 59.8457 0.0000 0.0000
# 5 0.0000 0.0000 0.0000 0.0000 36.4641 0.0000
# 6 0.0000 0.0000 0.0000 0.0000 0.0000 40.5895
#
#
#
# Elastic Compliance Matrix: (Units=1/GPa)
#
#
# Indices 1 2 3 4 5 6 
#
# 1 0.009277 -0.005073 -0.001673 0.000000 0.000000 0.000000
# 2 -0.005073 0.013526 -0.010241 0.000000 0.000000 0.000000
# 3 -0.001673 -0.010241 0.034771 0.000000 0.000000 0.000000
# 4 0.000000 0.000000 0.000000 0.016710 0.000000 0.000000
# 5 0.000000 0.000000 0.000000 0.000000 0.027424 0.000000
# 6 0.000000 0.000000 0.000000 0.000000 0.000000 0.024637
#
#
# Mechanical properties :
#
#
# Convention : Reuss Voigt Hill
#
# Bulk Modulus (GPa) = 42.37442 74.36160 58.36801
# Shear Modulus (GPa) = 29.72928 39.44752 34.58840
#
# Velocity S-wave (km/s) = 3.92798 4.52466 4.23684
# Velocity P-wave (km/s) = 6.52408 8.11722 7.36386
#
# Compressibility (1/GPa) = 0.02359914
#
# Stress axis : x y z
#
# Youngs Moduli (GPa) = 107.79552 73.93441 28.75972
#
# Poissons Ratio (x) = 0.37508 0.04812
# Poissons Ratio (y) = 0.54687 0.29452
# Poissons Ratio (z) = 0.18034 0.75715
#
# Static dielectric constant tensor:
#      x y z
#    x 1.708320 0.000000 0.000000 
#    y 0.000000 1.733380 0.000000 
#    z 0.000000 0.000000 1.685670 
# 
# From -- ./inp_files/15290.got.cif
#   From: 2010.05.17/outbox.cif.g08.bks.cpg/sg40_8_cif.got.tgz:15290.got - 2010.06.03 18:35:42.
