data_PCOD9364771
_publ_section_title
;
Structure prediction by ZEFSAII (Michael W. Deem and Ramdas Pophale) SiO2 
 PCOD9364771
Probable space group: A M A 2
;
_chemical_formula_sum "Si O2"
_cell_formula_units_Z 64
_cell_length_a 30.260171
_cell_length_b 7.187964
_cell_length_c 12.812156
_cell_angle_alpha 90.000000
_cell_angle_beta 90.000000
_cell_angle_gamma 90.000000
_cell_volume 2786.759493
_symmetry_space_group_name_H-M "A M A 2"
_symmetry_group_IT_number 40
_symmetry_cell_setting 'orthorhombic'
loop_
_space_group_symop_operation_xyz
x,y,z
-x,-y,z
1/2-x,y,z
1/2+x,-y,z
x,1/2+y,1/2+z
-x,1/2-y,1/2+z
1/2-x,1/2+y,1/2+z
1/2+x,1/2-y,1/2+z
loop_
_atom_site_type_symbol
_atom_site_label
_atom_site_fract_x
_atom_site_fract_y
_atom_site_fract_z
Si Si1 0.550264 0.047432 0.498290
Si Si2 0.824227 0.241208 0.789699
Si Si3 0.800079 0.234307 0.573398
Si Si4 0.645266 0.880881 0.505314
Si Si5 0.798790 0.337080 0.342788
Si Si6 0.120726 0.788521 0.205961
Si Si7 0.419652 0.886720 0.716114
Si Si8 0.954782 0.962857 0.269814
O O1 0.593022 0.911028 0.483710
O O2 0.543128 0.087386 0.375717
O O3 0.500000 0.000000 0.533248
O O4 0.568467 0.166266 0.595913
O O5 0.807121 0.335894 0.683854
O O6 0.873392 0.178119 0.762037
O O7 0.798761 0.046828 0.800869
O O8 0.827504 0.342248 0.900445
O O9 0.750000 0.160894 0.572768
O O10 0.805420 0.348767 0.467314
O O11 0.833697 0.062469 0.559758
O O12 0.644750 0.725599 0.594589
O O13 0.750000 0.252475 0.322945
O O14 0.840890 0.233433 0.292335
O O15 0.086898 0.610188 0.215515
O O16 0.089839 0.966255 0.216428
O O17 0.452841 0.760696 0.783786
O O18 0.000000 0.000000 0.209194
#
# Coordination Sequence:
#
# PCOD9364771 Si02
#       8
#     8   8   8   8   8   8   8   8
#     4  10  21  40  67  92 134 173 224 285 339 405
#     4  11  22  41  67  92 133 177 225 276 337 414
#     4  11  23  42  68  96 130 176 222 277 347 405
#     4  11  22  42  64  97 130 177 220 277 345 405
#     4  10  22  42  67  97 133 175 227 282 343 410
#     4  10  23  42  68 100 138 181 229 283 343 416
#     4  10  22  41  66  92 131 183 215 284 343 398
#     4  11  24  41  66 102 134 177 234 282 342 419
#
# _framework density 22.965741999999999
#
# number of rings (size 3 to 8) (size 9 to 14) (size 15 to 20)
#    0.000    1.500    5.000    1.125    3.500    2.000 
#    2.250    0.000    0.000    0.750    0.000    0.000 
#    0.000    0.000    0.000    0.000    0.000    0.000 
#
# Total GULP energy -178135.251551 kJ/mol
# GULP energy per Si atom -5566.726611 kJ/mol
# Density = 2.291347 g / cm^3
# Si number density = 22.965742 Si / 1000 Ang^3
#
#
#
# Elastic Constant Matrix: (Units=GPa)
#
#
# Indices 1 2 3 4 5 6 
#
# 1 110.3658 15.4813 34.0283 0.0000 0.0000 0.0000
# 2 15.4813 62.5021 21.3173 0.0000 0.0000 0.0000
# 3 34.0283 21.3173 145.9784 0.0000 0.0000 0.0000
# 4 0.0000 0.0000 0.0000 34.7280 0.0000 0.0000
# 5 0.0000 0.0000 0.0000 0.0000 -4.6023 0.0000
# 6 0.0000 0.0000 0.0000 0.0000 0.0000 24.7752
#
#
#
# Elastic Compliance Matrix: (Units=1/GPa)
#
#
# Indices 1 2 3 4 5 6 
#
# 1 0.009943 -0.001760 -0.002061 0.000000 0.000000 0.000000
# 2 -0.001760 0.017150 -0.002094 0.000000 0.000000 0.000000
# 3 -0.002061 -0.002094 0.007637 0.000000 0.000000 0.000000
# 4 0.000000 0.000000 0.000000 0.028795 0.000000 0.000000
# 5 0.000000 0.000000 0.000000 0.000000 -0.217284 0.000000
# 6 0.000000 0.000000 0.000000 0.000000 0.000000 0.040363
#
#
# Mechanical properties :
#
#
# Convention : Reuss Voigt Hill
#
# Bulk Modulus (GPa) = 43.66910 51.16668 47.41789
# Shear Modulus (GPa) = -53.22875 27.51482 -12.85696
#
# Velocity S-wave (km/s) = -4.81952 3.46509 -2.36864
# Velocity P-wave (km/s) = 3.45169 6.19169 3.63475
#
# Compressibility (1/GPa) = 0.02289949
#
# Stress axis : x y z
#
# Youngs Moduli (GPa) = 100.57296 58.31035 130.94992
#
# Poissons Ratio (x) = 0.10262 0.26986
# Poissons Ratio (y) = 0.17700 0.27422
# Poissons Ratio (z) = 0.20726 0.12211
#
# Static dielectric constant tensor:
#      x y z
#    x 1.937310 0.000000 0.000000 
#    y 0.000000 1.890460 0.000000 
#    z 0.000000 0.000000 1.907480 
# 
# From -- ./inp_files/14429.got.cif
#   From: 2010.05.17/outbox.cif.g08.bks.cpg/sg40_8_cif.got.tgz:14429.got - 2010.06.03 18:35:42.
