data_PCOD9364343
_publ_section_title
;
Structure prediction by ZEFSAII (Michael W. Deem and Ramdas Pophale) SiO2 
 PCOD9364343
Probable space group: A M A 2
;
_chemical_formula_sum "Si O2"
_cell_formula_units_Z 40
_cell_length_a 10.782014
_cell_length_b 12.014009
_cell_length_c 12.775981
_cell_angle_alpha 90.000000
_cell_angle_beta 90.000000
_cell_angle_gamma 90.000000
_cell_volume 1654.939423
_symmetry_space_group_name_H-M "A M A 2"
_symmetry_group_IT_number 40
_symmetry_cell_setting 'orthorhombic'
loop_
_space_group_symop_operation_xyz
x,y,z
-x,-y,z
1/2-x,y,z
1/2+x,-y,z
x,1/2+y,1/2+z
-x,1/2-y,1/2+z
1/2-x,1/2+y,1/2+z
1/2+x,1/2-y,1/2+z
loop_
_atom_site_type_symbol
_atom_site_label
_atom_site_fract_x
_atom_site_fract_y
_atom_site_fract_z
Si Si1 0.500000 0.500000 0.372780
Si Si2 0.250000 0.650514 0.088945
Si Si3 0.020890 0.297292 0.539633
Si Si4 0.011542 0.872691 0.277742
Si Si5 0.750000 0.290268 0.759913
Si Si6 0.750000 0.261327 0.325835
Si Si7 0.750000 0.527252 0.234727
Si Si8 0.750000 0.286192 0.544397
O O1 0.481442 0.392117 0.449334
O O2 0.621593 0.496529 0.297187
O O3 0.250000 0.685096 0.212234
O O4 0.250000 0.519807 0.114883
O O5 0.130753 0.707826 0.038021
O O6 0.032904 0.358504 0.652630
O O7 0.887570 0.236144 0.547826
O O8 0.881331 0.817230 0.308726
O O9 0.872156 0.186465 0.329482
O O10 0.000000 0.000000 0.305577
O O11 0.750000 0.360046 0.649546
O O12 0.750000 0.161013 0.732052
O O13 0.750000 0.338119 0.428704
#
# Coordination Sequence:
#
# PCOD9364343 Si02
#       8
#     4   4   8   8   4   4   4   4
#     4  12  24  42  72 110 142 182 250 312 364 416
#     4  10  23  43  64  96 138 182 222 281 374 431
#     4  10  21  39  67  99 131 171 225 295 358 420
#     4  10  20  40  67  96 134 175 233 291 362 413
#     4  10  25  43  64  97 140 193 226 287 372 451
#     4  10  21  37  64  92 126 172 223 291 335 419
#     4  12  29  42  70 103 156 190 237 302 379 430
#     4  10  22  39  62  88 132 173 228 279 350 423
#
# _framework density 24.170069999999999
#
# number of rings (size 3 to 8) (size 9 to 14) (size 15 to 20)
#    0.000    1.600    1.000    3.000   11.200    0.000 
#    0.000    2.000    0.000    0.000    0.000    0.000 
#    0.000    0.000    0.000    0.000    0.000    0.000 
#
# Total GULP energy -111577.785221 kJ/mol
# GULP energy per Si atom -5578.889261 kJ/mol
# Density = 2.411506 g / cm^3
# Si number density = 24.170070 Si / 1000 Ang^3
#
#
#
# Elastic Constant Matrix: (Units=GPa)
#
#
# Indices 1 2 3 4 5 6 
#
# 1 252.2056 60.1687 28.9054 0.0000 0.0000 0.0000
# 2 60.1687 119.6598 15.3773 0.0000 0.0000 0.0000
# 3 28.9054 15.3773 123.3762 0.0000 0.0000 0.0000
# 4 0.0000 0.0000 0.0000 22.2194 0.0000 0.0000
# 5 0.0000 0.0000 0.0000 0.0000 -27.2569 0.0000
# 6 0.0000 0.0000 0.0000 0.0000 0.0000 30.3402
#
#
#
# Elastic Compliance Matrix: (Units=1/GPa)
#
#
# Indices 1 2 3 4 5 6 
#
# 1 0.004582 -0.002201 -0.000799 0.000000 0.000000 0.000000
# 2 -0.002201 0.009551 -0.000675 0.000000 0.000000 0.000000
# 3 -0.000799 -0.000675 0.008377 0.000000 0.000000 0.000000
# 4 0.000000 0.000000 0.000000 0.045006 0.000000 0.000000
# 5 0.000000 0.000000 0.000000 0.000000 -0.036688 0.000000
# 6 0.000000 0.000000 0.000000 0.000000 0.000000 0.032960
#
#
# Mechanical properties :
#
#
# Convention : Reuss Voigt Hill
#
# Bulk Modulus (GPa) = 65.96713 78.23828 72.10270
# Shear Modulus (GPa) = 65.62615 31.11320 48.36968
#
# Velocity S-wave (km/s) = 5.21639 3.59174 4.47836
# Velocity P-wave (km/s) = 7.97704 7.04563 7.52576
#
# Compressibility (1/GPa) = 0.01515906
#
# Stress axis : x y z
#
# Youngs Moduli (GPa) = 218.25805 104.70624 119.38028
#
# Poissons Ratio (x) = 0.23047 0.09540
# Poissons Ratio (y) = 0.48042 0.08054
# Poissons Ratio (z) = 0.17441 0.07064
#
# Static dielectric constant tensor:
#      x y z
#    x 1.930660 0.000000 0.000000 
#    y 0.000000 2.040250 0.000000 
#    z 0.000000 0.000000 1.989860 
# 
# From -- ./inp_files/16245.got.cif
#   From: 2010.05.17/outbox.cif.g08.bks.cpg/sg40_9_cif.got.tgz:16245.got - 2010.06.03 18:35:42.
