data_PCOD9364096
_publ_section_title
;
Structure prediction by ZEFSAII (Michael W. Deem and Ramdas Pophale) SiO2 
 PCOD9364096
Probable space group: A M A 2
;
_chemical_formula_sum "Si O2"
_cell_formula_units_Z 48
_cell_length_a 18.995095
_cell_length_b 15.385776
_cell_length_c 8.601847
_cell_angle_alpha 90.000000
_cell_angle_beta 90.000000
_cell_angle_gamma 90.000000
_cell_volume 2513.926574
_symmetry_space_group_name_H-M "A M A 2"
_symmetry_group_IT_number 40
_symmetry_cell_setting 'orthorhombic'
loop_
_space_group_symop_operation_xyz
x,y,z
-x,-y,z
1/2-x,y,z
1/2+x,-y,z
x,1/2+y,1/2+z
-x,1/2-y,1/2+z
1/2-x,1/2+y,1/2+z
1/2+x,1/2-y,1/2+z
loop_
_atom_site_type_symbol
_atom_site_label
_atom_site_fract_x
_atom_site_fract_y
_atom_site_fract_z
Si Si1 0.833367 0.095178 0.335420
Si Si2 0.947503 0.767200 0.351910
Si Si3 0.426662 0.548176 0.682673
Si Si4 0.829143 0.196381 0.642312
Si Si5 0.829391 0.374480 0.436478
Si Si6 0.905341 0.766428 0.708793
O O1 0.750000 0.086238 0.307528
O O2 0.843115 0.121854 0.515705
O O3 0.864558 0.175885 0.236760
O O4 0.876443 0.010497 0.289659
O O5 0.941769 0.860650 0.267806
O O6 0.889223 0.706662 0.269713
O O7 0.931161 0.774314 0.533292
O O8 0.026025 0.733655 0.319704
O O9 0.500000 0.500000 0.656025
O O10 0.384341 0.564514 0.523675
O O11 0.750000 0.186310 0.707000
O O12 0.828663 0.285492 0.539949
O O13 0.750000 0.409085 0.434249
O O14 0.855366 0.343606 0.268185
#
# Coordination Sequence:
#
# PCOD9364096 Si02
#       6
#     8   8   8   8   8   8
#     4  10  20  37  60  85 117 157 198 243 296 354
#     4  11  22  36  59  88 120 154 201 248 299 355
#     4  11  21  36  60  89 120 159 194 234 302 366
#     4   8  17  34  57  82 114 154 197 237 282 345
#     4   9  19  37  58  82 114 154 196 237 291 350
#     4  11  21  37  60  86 116 155 203 252 294 351
#
# _framework density 19.093636
#
# number of rings (size 3 to 8) (size 9 to 14) (size 15 to 20)
#    0.000    2.000    1.667    5.000    0.000    2.000 
#    0.000    2.500    0.000    2.000    0.000    0.000 
#    0.000    0.000    0.000    0.000    0.000    0.000 
#
# Total GULP energy -134014.091212 kJ/mol
# GULP energy per Si atom -5583.920467 kJ/mol
# Density = 1.905018 g / cm^3
# Si number density = 19.093636 Si / 1000 Ang^3
#
#
#
# Elastic Constant Matrix: (Units=GPa)
#
#
# Indices 1 2 3 4 5 6 
#
# 1 124.5157 21.6647 40.0739 0.0000 0.0000 0.0000
# 2 21.6647 35.6450 -1.7044 0.0000 0.0000 0.0000
# 3 40.0739 -1.7044 69.3772 0.0000 0.0000 0.0000
# 4 0.0000 0.0000 0.0000 18.4847 0.0000 0.0000
# 5 0.0000 0.0000 0.0000 0.0000 30.8756 0.0000
# 6 0.0000 0.0000 0.0000 0.0000 0.0000 16.0661
#
#
#
# Elastic Compliance Matrix: (Units=1/GPa)
#
#
# Indices 1 2 3 4 5 6 
#
# 1 0.011500 -0.007316 -0.006822 0.000000 0.000000 0.000000
# 2 -0.007316 0.032741 0.005030 0.000000 0.000000 0.000000
# 3 -0.006822 0.005030 0.018478 0.000000 0.000000 0.000000
# 4 0.000000 0.000000 0.000000 0.054099 0.000000 0.000000
# 5 0.000000 0.000000 0.000000 0.000000 0.032388 0.000000
# 6 0.000000 0.000000 0.000000 0.000000 0.000000 0.062243
#
#
# Mechanical properties :
#
#
# Convention : Reuss Voigt Hill
#
# Bulk Modulus (GPa) = 22.47008 38.84515 30.65761
# Shear Modulus (GPa) = 20.44999 24.38552 22.41775
#
# Velocity S-wave (km/s) = 3.27622 3.57761 3.43023
# Velocity P-wave (km/s) = 5.10934 6.12000 5.63737
#
# Compressibility (1/GPa) = 0.04450362
#
# Stress axis : x y z
#
# Youngs Moduli (GPa) = 86.95952 30.54247 54.11793
#
# Poissons Ratio (x) = 0.22344 0.36920
# Poissons Ratio (y) = 0.63616 -0.27221
# Poissons Ratio (z) = 0.59325 -0.15363
#
# Static dielectric constant tensor:
#      x y z
#    x 1.658790 0.000000 0.000000 
#    y 0.000000 1.656720 0.000000 
#    z 0.000000 0.000000 1.646440 
# 
# From -- ./inp_files/7452.got.cif
#   From: 2010.05.17/outbox.cif.g08.bks.cpg/sg40_4_cif.got.tgz:7452.got - 2010.06.03 18:35:42.
