data_PCOD9364185
_publ_section_title
;
Structure prediction by ZEFSAII (Michael W. Deem and Ramdas Pophale) SiO2 
 PCOD9364185
Probable space group: A M A 2
;
_chemical_formula_sum "Si O2"
_cell_formula_units_Z 56
_cell_length_a 17.722698
_cell_length_b 17.725290
_cell_length_c 9.710653
_cell_angle_alpha 90.000000
_cell_angle_beta 90.000000
_cell_angle_gamma 90.000000
_cell_volume 3050.504161
_symmetry_space_group_name_H-M "A M A 2"
_symmetry_group_IT_number 40
_symmetry_cell_setting 'orthorhombic'
loop_
_space_group_symop_operation_xyz
x,y,z
-x,-y,z
1/2-x,y,z
1/2+x,-y,z
x,1/2+y,1/2+z
-x,1/2-y,1/2+z
1/2-x,1/2+y,1/2+z
1/2+x,1/2-y,1/2+z
loop_
_atom_site_type_symbol
_atom_site_label
_atom_site_fract_x
_atom_site_fract_y
_atom_site_fract_z
Si Si1 0.668926 0.573445 0.846170
Si Si2 0.336179 0.247822 0.342812
Si Si3 0.109883 0.816146 0.560976
Si Si4 0.514739 0.081550 0.197039
Si Si5 0.503326 0.694691 0.454375
Si Si6 0.484961 0.586818 0.204426
Si Si7 0.389332 0.586870 0.933630
O O1 0.750000 0.573385 0.777293
O O2 0.664154 0.639505 0.958762
O O3 0.600823 0.585743 0.742204
O O4 0.654155 0.491720 0.914597
O O5 0.250000 0.272854 0.376322
O O6 0.409384 0.284585 0.419743
O O7 0.343641 0.159617 0.382081
O O8 0.351501 0.266713 0.181276
O O9 0.060574 0.880547 0.635038
O O10 0.049786 0.766987 0.473868
O O11 0.462143 0.082930 0.332268
O O12 0.500000 0.000000 0.129018
O O13 0.497717 0.149543 0.096443
O O14 0.472275 0.640854 0.334103
O O15 0.500000 0.500000 0.241245
O O16 0.420114 0.593354 0.088835
#
# Coordination Sequence:
#
# PCOD9364185 Si02
#       7
#     8   8   8   8   8   8   8
#     4  11  22  35  60  90 118 155 199 250 301 354
#     4  11  23  37  59  89 125 158 193 254 314 352
#     4  11  21  38  60  89 121 157 197 245 298 365
#     4  10  20  38  60  85 116 157 202 247 289 361
#     4  11  23  36  62  90 119 155 206 246 296 358
#     4  11  20  37  61  88 114 153 201 247 287 348
#     4  11  19  39  61  85 114 157 210 241 291 361
#
# _framework density 18.357621000000002
#
# number of rings (size 3 to 8) (size 9 to 14) (size 15 to 20)
#    0.000    1.143    5.714    1.714    2.000    0.571 
#    0.000    0.000    0.000    2.571    0.000    0.000 
#    0.000    0.000    0.000    0.000    0.000    0.000 
#
# Total GULP energy -156248.583940 kJ/mol
# GULP energy per Si atom -5580.306569 kJ/mol
# Density = 1.831584 g / cm^3
# Si number density = 18.357621 Si / 1000 Ang^3
#
#
#
# Elastic Constant Matrix: (Units=GPa)
#
#
# Indices 1 2 3 4 5 6 
#
# 1 105.9342 29.9973 26.9789 0.0000 0.0000 0.0000
# 2 29.9973 115.0123 33.4496 0.0000 0.0000 0.0000
# 3 26.9789 33.4496 54.3546 0.0000 0.0000 0.0000
# 4 0.0000 0.0000 0.0000 23.1914 0.0000 0.0000
# 5 0.0000 0.0000 0.0000 0.0000 16.5777 0.0000
# 6 0.0000 0.0000 0.0000 0.0000 0.0000 11.5165
#
#
#
# Elastic Compliance Matrix: (Units=1/GPa)
#
#
# Indices 1 2 3 4 5 6 
#
# 1 0.011032 -0.001565 -0.004513 0.000000 0.000000 0.000000
# 2 -0.001565 0.010812 -0.005877 0.000000 0.000000 0.000000
# 3 -0.004513 -0.005877 0.024254 0.000000 0.000000 0.000000
# 4 0.000000 0.000000 0.000000 0.043120 0.000000 0.000000
# 5 0.000000 0.000000 0.000000 0.000000 0.060322 0.000000
# 6 0.000000 0.000000 0.000000 0.000000 0.000000 0.086832
#
#
# Mechanical properties :
#
#
# Convention : Reuss Voigt Hill
#
# Bulk Modulus (GPa) = 45.06690 50.68365 47.87527
# Shear Modulus (GPa) = 18.67917 22.58213 20.63065
#
# Velocity S-wave (km/s) = 3.19331 3.51112 3.35598
# Velocity P-wave (km/s) = 6.18054 6.64125 6.41503
#
# Compressibility (1/GPa) = 0.02218924
#
# Stress axis : x y z
#
# Youngs Moduli (GPa) = 90.64322 92.48876 41.22975
#
# Poissons Ratio (x) = 0.14474 0.18606
# Poissons Ratio (y) = 0.14185 0.24231
# Poissons Ratio (z) = 0.40906 0.54356
#
# Static dielectric constant tensor:
#      x y z
#    x 1.617760 0.000000 0.000000 
#    y 0.000000 1.673710 0.000000 
#    z 0.000000 0.000000 1.629910 
# 
# From -- ./inp_files/7739.got.cif
#   From: 2010.05.17/outbox.cif.g08.bks.cpg/sg40_4_cif.got.tgz:7739.got - 2010.06.03 18:35:42.
