data_PCOD9364163
_publ_section_title
;
Structure prediction by ZEFSAII (Michael W. Deem and Ramdas Pophale) SiO2 
 PCOD9364163
Probable space group: A M A 2
;
_chemical_formula_sum "Si O2"
_cell_formula_units_Z 48
_cell_length_a 14.566769
_cell_length_b 14.793702
_cell_length_c 10.467629
_cell_angle_alpha 90.000000
_cell_angle_beta 90.000000
_cell_angle_gamma 90.000000
_cell_volume 2255.736781
_symmetry_space_group_name_H-M "A M A 2"
_symmetry_group_IT_number 40
_symmetry_cell_setting 'orthorhombic'
loop_
_space_group_symop_operation_xyz
x,y,z
-x,-y,z
1/2-x,y,z
1/2+x,-y,z
x,1/2+y,1/2+z
-x,1/2-y,1/2+z
1/2-x,1/2+y,1/2+z
1/2+x,1/2-y,1/2+z
loop_
_atom_site_type_symbol
_atom_site_label
_atom_site_fract_x
_atom_site_fract_y
_atom_site_fract_z
Si Si1 0.750000 0.306425 0.763660
Si Si2 0.106432 0.840985 0.156016
Si Si3 0.750000 0.015153 0.255455
Si Si4 0.486620 0.606062 0.414193
Si Si5 0.750000 0.806424 0.564721
Si Si6 0.250000 0.484848 0.072930
Si Si7 0.606431 0.159015 0.672368
Si Si8 0.862900 0.742356 0.914193
O O1 0.750000 0.409783 0.717472
O O2 0.666043 0.243676 0.722452
O O3 0.750000 0.313628 0.914191
O O4 0.165014 0.930776 0.192206
O O5 0.166043 0.756325 0.105928
O O6 0.085110 0.803806 0.295870
O O7 0.035395 0.862274 0.045384
O O8 0.750000 0.022493 0.414192
O O9 0.500000 0.500000 0.414193
O O10 0.535394 0.637726 0.283002
O O11 0.386361 0.651640 0.414194
O O12 0.750000 0.909782 0.610911
O O13 0.334986 0.430777 0.136179
O O14 0.585108 0.196192 0.532513
O O15 0.750000 0.728200 0.914194
#
# Coordination Sequence:
#
# PCOD9364163 Si02
#       8
#     4   8   4   8   4   4   8   8
#     4  10  20  37  72 105 134 183 223 286 340 406
#     4  11  22  45  67 101 139 180 226 285 339 408
#     4  10  20  39  72 109 136 181 239 274 346 416
#     4  12  30  45  66 105 142 182 231 286 344 404
#     4  10  20  37  72 105 134 183 223 286 340 406
#     4  10  20  39  72 109 136 181 239 274 346 416
#     4  11  22  45  67 101 139 180 226 285 339 408
#     4  12  24  48  72  95 138 187 225 285 349 408
#
# _framework density 21.27908
#
# number of rings (size 3 to 8) (size 9 to 14) (size 15 to 20)
#    0.000    1.000    6.667    1.000    4.667    0.000 
#    3.000    0.833    0.000    0.000    0.000    0.000 
#    0.000    0.000    0.000    0.000    0.000    0.000 
#
# Total GULP energy -133719.467218 kJ/mol
# GULP energy per Si atom -5571.644467 kJ/mol
# Density = 2.123065 g / cm^3
# Si number density = 21.279080 Si / 1000 Ang^3
#
#
#
# Elastic Constant Matrix: (Units=GPa)
#
#
# Indices 1 2 3 4 5 6 
#
# 1 48.8803 38.6980 44.2934 0.0000 0.0000 0.0000
# 2 38.6980 204.0330 39.6204 0.0000 0.0000 0.0000
# 3 44.2934 39.6204 148.0582 0.0000 0.0000 0.0000
# 4 0.0000 0.0000 0.0000 32.1358 0.0000 0.0000
# 5 0.0000 0.0000 0.0000 0.0000 -67.3778 0.0000
# 6 0.0000 0.0000 0.0000 0.0000 0.0000 -4.9600
#
#
#
# Elastic Compliance Matrix: (Units=1/GPa)
#
#
# Indices 1 2 3 4 5 6 
#
# 1 0.031344 -0.004350 -0.008213 0.000000 0.000000 0.000000
# 2 -0.004350 0.005774 -0.000244 0.000000 0.000000 0.000000
# 3 -0.008213 -0.000244 0.009276 0.000000 0.000000 0.000000
# 4 0.000000 0.000000 0.000000 0.031118 0.000000 0.000000
# 5 0.000000 0.000000 0.000000 0.000000 -0.014842 0.000000
# 6 0.000000 0.000000 0.000000 0.000000 0.000000 -0.201612
#
#
# Mechanical properties :
#
#
# Convention : Reuss Voigt Hill
#
# Bulk Modulus (GPa) = 48.12125 71.79946 59.96036
# Shear Modulus (GPa) = -46.99184 10.51691 -18.23747
#
# Velocity S-wave (km/s) = -4.70442 2.22556 -2.93074
# Velocity P-wave (km/s) = 2.61635 6.35761 4.09719
#
# Compressibility (1/GPa) = 0.02078084
#
# Stress axis : x y z
#
# Youngs Moduli (GPa) = 31.90370 173.20403 107.80171
#
# Poissons Ratio (x) = 0.75345 0.88537
# Poissons Ratio (y) = 0.13878 0.02626
# Poissons Ratio (z) = 0.26202 0.04219
#
# Static dielectric constant tensor:
#      x y z
#    x 1.787000 0.000000 0.000000 
#    y 0.000000 1.775640 0.000000 
#    z 0.000000 0.000000 1.894570 
# 
# From -- ./inp_files/12204.got.cif
#   From: 2010.05.17/outbox.cif.g08.bks.cpg/sg40_7_cif.got.tgz:12204.got - 2010.06.03 18:35:42.
