data_PCOD9364102
_publ_section_title
;
Structure prediction by ZEFSAII (Michael W. Deem and Ramdas Pophale) SiO2 
 PCOD9364102
Probable space group: A M A 2
;
_chemical_formula_sum "Si O2"
_cell_formula_units_Z 48
_cell_length_a 8.675134
_cell_length_b 9.313287
_cell_length_c 31.247566
_cell_angle_alpha 90.000000
_cell_angle_beta 90.000000
_cell_angle_gamma 90.000000
_cell_volume 2524.616244
_symmetry_space_group_name_H-M "A M A 2"
_symmetry_group_IT_number 40
_symmetry_cell_setting 'orthorhombic'
loop_
_space_group_symop_operation_xyz
x,y,z
-x,-y,z
1/2-x,y,z
1/2+x,-y,z
x,1/2+y,1/2+z
-x,1/2-y,1/2+z
1/2-x,1/2+y,1/2+z
1/2+x,1/2-y,1/2+z
loop_
_atom_site_type_symbol
_atom_site_label
_atom_site_fract_x
_atom_site_fract_y
_atom_site_fract_z
Si Si1 0.435104 0.158710 0.768070
Si Si2 0.435286 0.839185 0.606465
Si Si3 0.564290 0.159901 0.447197
Si Si4 0.065677 0.158712 0.191144
Si Si5 0.565402 0.160830 0.026615
Si Si6 0.435389 0.157538 0.865792
O O1 0.250000 0.155139 0.765893
O O2 0.499133 0.270712 0.734053
O O3 0.482193 0.193452 0.817078
O O4 0.500000 0.000000 0.758311
O O5 0.250000 0.842339 0.602081
O O6 0.474608 0.759339 0.650808
O O7 0.506778 0.750040 0.567454
O O8 0.500000 0.000000 0.606478
O O9 0.750000 0.157933 0.449929
O O10 0.497844 0.259935 0.484507
O O11 0.517750 0.228103 0.401505
O O12 0.500000 0.000000 0.451847
O O13 0.250000 0.151787 0.194074
O O14 0.000000 0.000000 0.184631
O O15 0.750000 0.157307 0.025898
O O16 0.500000 0.000000 0.028598
O O17 0.250000 0.148900 0.866360
O O18 0.500000 0.000000 0.876281
#
# Coordination Sequence:
#
# PCOD9364102 Si02
#       6
#     8   8   8   8   8   8
#     4  10  20  37  60  87 119 155 197 243 293 348
#     4  11  24  42  64  90 120 155 195 239 290 346
#     4  11  23  40  60  86 120 157 198 242 292 346
#     4  11  24  40  60  87 119 156 197 242 293 348
#     4  12  25  42  64  90 120 154 194 240 292 348
#     4   9  20  37  59  86 116 153 196 242 292 348
#
# _framework density 19.012791
#
# number of rings (size 3 to 8) (size 9 to 14) (size 15 to 20)
#    0.000    1.333    0.000    5.500    0.000    9.333 
#    0.000    1.667    0.000    0.000    0.000    0.000 
#    0.000    0.000    0.000    0.000    0.000    0.000 
#
# Total GULP energy -134242.139044 kJ/mol
# GULP energy per Si atom -5593.422460 kJ/mol
# Density = 1.896952 g / cm^3
# Si number density = 19.012791 Si / 1000 Ang^3
#
#
#
# Elastic Constant Matrix: (Units=GPa)
#
#
# Indices 1 2 3 4 5 6 
#
# 1 80.8127 65.9562 59.1468 0.0000 0.0000 0.0000
# 2 65.9562 193.5655 107.4658 0.0000 0.0000 0.0000
# 3 59.1468 107.4658 127.3994 0.0000 0.0000 0.0000
# 4 0.0000 0.0000 0.0000 40.4118 0.0000 0.0000
# 5 0.0000 0.0000 0.0000 0.0000 28.2193 0.0000
# 6 0.0000 0.0000 0.0000 0.0000 0.0000 39.2026
#
#
#
# Elastic Compliance Matrix: (Units=1/GPa)
#
#
# Indices 1 2 3 4 5 6 
#
# 1 0.019667 -0.003070 -0.006541 0.000000 0.000000 0.000000
# 2 -0.003070 0.010196 -0.007175 0.000000 0.000000 0.000000
# 3 -0.006541 -0.007175 0.016939 0.000000 0.000000 0.000000
# 4 0.000000 0.000000 0.000000 0.024745 0.000000 0.000000
# 5 0.000000 0.000000 0.000000 0.000000 0.035437 0.000000
# 6 0.000000 0.000000 0.000000 0.000000 0.000000 0.025509
#
#
# Mechanical properties :
#
#
# Convention : Reuss Voigt Hill
#
# Bulk Modulus (GPa) = 75.59090 96.32390 85.95740
# Shear Modulus (GPa) = 29.32970 32.84733 31.08852
#
# Velocity S-wave (km/s) = 3.93189 4.16100 4.04807
# Velocity P-wave (km/s) = 7.77543 8.59406 8.19497
#
# Compressibility (1/GPa) = 0.01322911
#
# Stress axis : x y z
#
# Youngs Moduli (GPa) = 50.84562 98.07779 59.03566
#
# Poissons Ratio (x) = 0.30109 0.38617
# Poissons Ratio (y) = 0.15609 0.42361
# Poissons Ratio (z) = 0.33260 0.70375
#
# Static dielectric constant tensor:
#      x y z
#    x 1.638990 0.000000 0.000000 
#    y 0.000000 1.612220 0.000000 
#    z 0.000000 0.000000 1.653540 
# 
# From -- ./inp_files/26114.got.cif
#   From: 2010.05.17/outbox.cif.g08.bks.cpg/sg40_14_cif.got.tgz:26114.got - 2010.06.03 18:35:42.
