data_PCOD9364449
_publ_section_title
;
Structure prediction by ZEFSAII (Michael W. Deem and Ramdas Pophale) SiO2 
 PCOD9364449
Probable space group: A M A 2
;
_chemical_formula_sum "Si O2"
_cell_formula_units_Z 64
_cell_length_a 19.686443
_cell_length_b 16.317792
_cell_length_c 10.512949
_cell_angle_alpha 90.000000
_cell_angle_beta 90.000000
_cell_angle_gamma 90.000000
_cell_volume 3377.172189
_symmetry_space_group_name_H-M "A M A 2"
_symmetry_group_IT_number 40
_symmetry_cell_setting 'orthorhombic'
loop_
_space_group_symop_operation_xyz
x,y,z
-x,-y,z
1/2-x,y,z
1/2+x,-y,z
x,1/2+y,1/2+z
-x,1/2-y,1/2+z
1/2-x,1/2+y,1/2+z
1/2+x,1/2-y,1/2+z
loop_
_atom_site_type_symbol
_atom_site_label
_atom_site_fract_x
_atom_site_fract_y
_atom_site_fract_z
Si Si1 0.426837 0.175514 0.724120
Si Si2 0.675459 0.925658 0.584450
Si Si3 0.328047 0.430365 0.293802
Si Si4 0.070057 0.855605 0.330374
Si Si5 0.568997 0.463324 0.422913
Si Si6 0.171406 0.002842 0.305071
Si Si7 0.078408 0.813638 0.629983
Si Si8 0.069324 0.122328 0.185875
O O1 0.381087 0.142044 0.609625
O O2 0.415276 0.269274 0.761457
O O3 0.410716 0.117093 0.843388
O O4 0.504993 0.164084 0.686988
O O5 0.750000 0.886653 0.588852
O O6 0.672016 0.994440 0.693516
O O7 0.668618 0.973807 0.453611
O O8 0.250000 0.411611 0.327598
O O9 0.373522 0.466832 0.408840
O O10 0.365237 0.357441 0.217756
O O11 0.122790 0.924867 0.286317
O O12 0.078398 0.841704 0.482381
O O13 0.993171 0.879126 0.286610
O O14 0.500000 0.500000 0.364716
O O15 0.551744 0.431399 0.562523
O O16 0.250000 0.989066 0.269311
O O17 0.137237 0.080595 0.238076
O O18 0.082567 0.715526 0.643270
#
# Coordination Sequence:
#
# PCOD9364449 Si02
#       8
#     8   8   8   8   8   8   8   8
#     4  10  21  35  59  94 117 154 201 252 310 362
#     4   9  19  36  58  85 120 153 198 253 302 357
#     4  10  21  37  61  90 118 156 206 254 304 362
#     4  11  22  40  63  91 120 160 208 257 307 366
#     4  11  20  38  61  88 125 162 197 250 307 368
#     4  11  23  41  61  85 119 164 206 251 307 370
#     4  11  21  39  63  88 122 157 207 260 302 360
#     4  11  25  40  60  93 128 163 201 254 317 380
#
# _framework density 18.950766000000002
#
# number of rings (size 3 to 8) (size 9 to 14) (size 15 to 20)
#    0.000    1.500    3.750    1.875    0.000    1.500 
#    0.000    0.000    0.000    0.000    0.000    0.000 
#    0.000    0.000    0.000    0.000    0.000    0.000 
#
# Total GULP energy -178528.906097 kJ/mol
# GULP energy per Si atom -5579.028316 kJ/mol
# Density = 1.890763 g / cm^3
# Si number density = 18.950766 Si / 1000 Ang^3
#
#
#
# Elastic Constant Matrix: (Units=GPa)
#
#
# Indices 1 2 3 4 5 6 
#
# 1 129.8915 69.3798 18.9353 0.0000 0.0000 0.0000
# 2 69.3798 86.9921 38.2556 0.0000 0.0000 0.0000
# 3 18.9353 38.2556 22.9294 0.0000 0.0000 0.0000
# 4 0.0000 0.0000 0.0000 25.7284 0.0000 0.0000
# 5 0.0000 0.0000 0.0000 0.0000 18.9689 0.0000
# 6 0.0000 0.0000 0.0000 0.0000 0.0000 19.3604
#
#
#
# Elastic Compliance Matrix: (Units=1/GPa)
#
#
# Indices 1 2 3 4 5 6 
#
# 1 0.019006 -0.031001 0.036028 0.000000 0.000000 0.000000
# 2 -0.031001 0.093734 -0.130786 0.000000 0.000000 0.000000
# 3 0.036028 -0.130786 0.232064 0.000000 0.000000 0.000000
# 4 0.000000 0.000000 0.000000 0.038868 0.000000 0.000000
# 5 0.000000 0.000000 0.000000 0.000000 0.052718 0.000000
# 6 0.000000 0.000000 0.000000 0.000000 0.000000 0.051652
#
#
# Mechanical properties :
#
#
# Convention : Reuss Voigt Hill
#
# Bulk Modulus (GPa) = 10.71984 54.77270 32.74627
# Shear Modulus (GPa) = 6.48799 20.36104 13.42452
#
# Velocity S-wave (km/s) = 1.85231 3.28139 2.66445
# Velocity P-wave (km/s) = 3.20057 6.58195 5.17522
#
# Compressibility (1/GPa) = 0.09328496
#
# Stress axis : x y z
#
# Youngs Moduli (GPa) = 52.61601 10.66845 4.30916
#
# Poissons Ratio (x) = 0.33074 -0.15525
# Poissons Ratio (y) = 1.63116 0.56358
# Poissons Ratio (z) = -1.89563 1.39528
#
# Static dielectric constant tensor:
#      x y z
#    x 1.671130 0.000000 0.000000 
#    y 0.000000 1.638050 0.000000 
#    z 0.000000 0.000000 1.695770 
# 
# From -- ./inp_files/13158.got.cif
#   From: 2010.05.17/outbox.cif.g08.bks.cpg/sg40_7_cif.got.tgz:13158.got - 2010.06.03 18:35:42.
