data_PCOD9364763
_publ_section_title
;
Structure prediction by ZEFSAII (Michael W. Deem and Ramdas Pophale) SiO2 
 PCOD9364763
Probable space group: A M A 2
;
_chemical_formula_sum "Si O2"
_cell_formula_units_Z 48
_cell_length_a 16.195849
_cell_length_b 10.244622
_cell_length_c 14.602312
_cell_angle_alpha 90.000000
_cell_angle_beta 90.000000
_cell_angle_gamma 90.000000
_cell_volume 2422.820732
_symmetry_space_group_name_H-M "A M A 2"
_symmetry_group_IT_number 40
_symmetry_cell_setting 'orthorhombic'
loop_
_space_group_symop_operation_xyz
x,y,z
-x,-y,z
1/2-x,y,z
1/2+x,-y,z
x,1/2+y,1/2+z
-x,1/2-y,1/2+z
1/2-x,1/2+y,1/2+z
1/2+x,1/2-y,1/2+z
loop_
_atom_site_type_symbol
_atom_site_label
_atom_site_fract_x
_atom_site_fract_y
_atom_site_fract_z
Si Si1 0.995868 0.344663 0.100150
Si Si2 0.092590 0.736244 0.287723
Si Si3 0.100090 0.519188 0.763931
Si Si4 0.344919 0.504486 0.400753
Si Si5 0.153730 0.669006 0.583431
Si Si6 0.565948 0.268286 0.907640
O O1 0.087244 0.284824 0.087637
O O2 0.000000 0.500000 0.100450
O O3 0.956461 0.294875 0.194661
O O4 0.940471 0.297712 0.014756
O O5 0.142083 0.610032 0.320506
O O6 0.026108 0.762998 0.367332
O O7 0.137120 0.875046 0.277019
O O8 0.138171 0.586665 0.675314
O O9 0.109322 0.615820 0.850459
O O10 0.000000 0.500000 0.750046
O O11 0.250000 0.465160 0.404995
O O12 0.365324 0.577766 0.495895
O O13 0.397066 0.373902 0.388761
O O14 0.250000 0.709252 0.577117
#
# Coordination Sequence:
#
# PCOD9364763 Si02
#       6
#     8   8   8   8   8   8
#     4  12  23  40  66  99 128 169 224 269 321 390
#     4  11  22  39  67  95 124 168 220 260 320 384
#     4  10  21  40  65  97 120 168 215 260 318 386
#     4  11  25  42  62  94 130 170 211 268 334 386
#     4  11  24  41  65  94 129 167 214 272 332 382
#     4  11  22  39  66  92 128 165 217 268 314 393
#
# _framework density 19.811619
#
# number of rings (size 3 to 8) (size 9 to 14) (size 15 to 20)
#    0.000    1.000    5.000    4.000    0.000    1.333 
#    0.000    1.667    0.000    0.000    0.000    0.000 
#    0.000    0.000    0.000    0.000    0.000    0.000 
#
# Total GULP energy -134098.917117 kJ/mol
# GULP energy per Si atom -5587.454880 kJ/mol
# Density = 1.976653 g / cm^3
# Si number density = 19.811619 Si / 1000 Ang^3
#
#
#
# Elastic Constant Matrix: (Units=GPa)
#
#
# Indices 1 2 3 4 5 6 
#
# 1 30.6896 37.3449 14.6638 0.0000 0.0000 0.0000
# 2 37.3449 161.5570 24.2250 0.0000 0.0000 0.0000
# 3 14.6638 24.2250 98.8028 0.0000 0.0000 0.0000
# 4 0.0000 0.0000 0.0000 20.1724 0.0000 0.0000
# 5 0.0000 0.0000 0.0000 0.0000 21.2780 0.0000
# 6 0.0000 0.0000 0.0000 0.0000 0.0000 7.6935
#
#
#
# Elastic Compliance Matrix: (Units=1/GPa)
#
#
# Indices 1 2 3 4 5 6 
#
# 1 0.047184 -0.010233 -0.004494 0.000000 0.000000 0.000000
# 2 -0.010233 0.008645 -0.000601 0.000000 0.000000 0.000000
# 3 -0.004494 -0.000601 0.010935 0.000000 0.000000 0.000000
# 4 0.000000 0.000000 0.000000 0.049573 0.000000 0.000000
# 5 0.000000 0.000000 0.000000 0.000000 0.046997 0.000000
# 6 0.000000 0.000000 0.000000 0.000000 0.000000 0.129980
#
#
# Mechanical properties :
#
#
# Convention : Reuss Voigt Hill
#
# Bulk Modulus (GPa) = 27.69398 49.27961 38.48680
# Shear Modulus (GPa) = 14.88069 24.14982 19.51525
#
# Velocity S-wave (km/s) = 2.74361 3.49517 3.14194
# Velocity P-wave (km/s) = 4.90362 6.42000 5.71235
#
# Compressibility (1/GPa) = 0.03610893
#
# Stress axis : x y z
#
# Youngs Moduli (GPa) = 21.19385 115.67003 91.44562
#
# Poissons Ratio (x) = 1.18364 0.41093
# Poissons Ratio (y) = 0.21687 0.05496
# Poissons Ratio (z) = 0.09524 0.06952
#
# Static dielectric constant tensor:
#      x y z
#    x 1.687570 0.000000 0.000000 
#    y 0.000000 1.707230 0.000000 
#    z 0.000000 0.000000 1.682720 
# 
# From -- ./inp_files/17639.got.cif
#   From: 2010.05.17/outbox.cif.g08.bks.cpg/sg40_9_cif.got.tgz:17639.got - 2010.06.03 18:35:42.
