data_PCOD9364374
_publ_section_title
;
Structure prediction by ZEFSAII (Michael W. Deem and Ramdas Pophale) SiO2 
 PCOD9364374
Probable space group: A M A 2
;
_chemical_formula_sum "Si O2"
_cell_formula_units_Z 40
_cell_length_a 9.728458
_cell_length_b 7.233122
_cell_length_c 26.165799
_cell_angle_alpha 90.000000
_cell_angle_beta 90.000000
_cell_angle_gamma 90.000000
_cell_volume 1841.212012
_symmetry_space_group_name_H-M "A M A 2"
_symmetry_group_IT_number 40
_symmetry_cell_setting 'orthorhombic'
loop_
_space_group_symop_operation_xyz
x,y,z
-x,-y,z
1/2-x,y,z
1/2+x,-y,z
x,1/2+y,1/2+z
-x,1/2-y,1/2+z
1/2-x,1/2+y,1/2+z
1/2+x,1/2-y,1/2+z
loop_
_atom_site_type_symbol
_atom_site_label
_atom_site_fract_x
_atom_site_fract_y
_atom_site_fract_z
Si Si1 0.086435 0.837093 0.766130
Si Si2 0.500000 0.500000 0.836015
Si Si3 0.750000 0.001446 0.407037
Si Si4 0.750000 0.677912 0.478568
Si Si5 0.250000 0.261182 0.007970
Si Si6 0.413035 0.809089 0.172528
Si Si7 0.523772 0.721075 0.560042
O O1 0.250000 0.872567 0.758256
O O2 0.065783 0.655171 0.799999
O O3 0.998209 0.803654 0.714490
O O4 0.000000 0.000000 0.792936
O O5 0.620199 0.560305 0.873751
O O6 0.750000 0.109082 0.459687
O O7 0.750000 0.782454 0.423936
O O8 0.750000 0.452687 0.485721
O O9 0.621587 0.746849 0.511827
O O10 0.378840 0.299788 0.044051
O O11 0.250000 0.835065 0.185315
O O12 0.421129 0.724243 0.115536
O O13 0.500000 0.000000 0.171282
O O14 0.500000 0.500000 0.563633
#
# Coordination Sequence:
#
# PCOD9364374 Si02
#       7
#     8   4   4   4   4   8   8
#     4  12  28  49  76 106 144 186 241 305 368 437
#     4  12  28  50  74 104 144 184 246 308 366 422
#     4  12  26  44  74 102 132 192 242 294 366 418
#     4  10  20  42  63  95 141 177 230 290 344 423
#     4  10  22  40  65  97 139 183 236 292 348 431
#     4  11  22  39  70 105 146 191 237 289 358 432
#     4   9  19  36  63  97 140 186 227 281 355 422
#
# _framework density 21.724820999999999
#
# number of rings (size 3 to 8) (size 9 to 14) (size 15 to 20)
#    0.000    1.200    3.000    2.400    8.400    1.600 
#    3.600    0.000    0.000    0.000    0.000    0.000 
#    0.000    0.000    0.000    0.000    0.000    0.000 
#
# Total GULP energy -111651.730213 kJ/mol
# GULP energy per Si atom -5582.586511 kJ/mol
# Density = 2.167537 g / cm^3
# Si number density = 21.724821 Si / 1000 Ang^3
#
#
#
# Elastic Constant Matrix: (Units=GPa)
#
#
# Indices 1 2 3 4 5 6 
#
# 1 210.0755 16.9414 35.2444 0.0000 0.0000 0.0000
# 2 16.9414 67.7177 9.2393 0.0000 0.0000 0.0000
# 3 35.2444 9.2393 78.6043 0.0000 0.0000 0.0000
# 4 0.0000 0.0000 0.0000 -8.4706 0.0000 0.0000
# 5 0.0000 0.0000 0.0000 0.0000 36.8299 0.0000
# 6 0.0000 0.0000 0.0000 0.0000 0.0000 43.4049
#
#
#
# Elastic Compliance Matrix: (Units=1/GPa)
#
#
# Indices 1 2 3 4 5 6 
#
# 1 0.005213 -0.001001 -0.002220 0.000000 0.000000 0.000000
# 2 -0.001001 0.015200 -0.001338 0.000000 0.000000 0.000000
# 3 -0.002220 -0.001338 0.013875 0.000000 0.000000 0.000000
# 4 0.000000 0.000000 0.000000 -0.118055 0.000000 0.000000
# 5 0.000000 0.000000 0.000000 0.000000 0.027152 0.000000
# 6 0.000000 0.000000 0.000000 0.000000 0.000000 0.023039
#
#
# Mechanical properties :
#
#
# Convention : Reuss Voigt Hill
#
# Bulk Modulus (GPa) = 39.72937 53.24974 46.48956
# Shear Modulus (GPa) = -311.17014 34.01767 -138.57623
#
# Velocity S-wave (km/s) = -11.98096 3.96137 -7.99534
# Velocity P-wave (km/s) = 13.15538 6.74444 7.98676
#
# Compressibility (1/GPa) = 0.02517030
#
# Stress axis : x y z
#
# Youngs Moduli (GPa) = 191.81431 65.78856 72.07462
#
# Poissons Ratio (x) = 0.06588 0.16000
# Poissons Ratio (y) = 0.19208 0.09641
# Poissons Ratio (z) = 0.42580 0.08800
#
# Static dielectric constant tensor:
#      x y z
#    x 1.311060 0.000000 0.000000 
#    y 0.000000 1.934900 0.000000 
#    z 0.000000 0.000000 1.760680 
# 
# From -- ./inp_files/23875.got.cif
#   From: 2010.05.17/outbox.cif.g08.bks.cpg/sg40_12_cif.got.tgz:23875.got - 2010.06.03 18:35:42.
