data_PCOD9364495
_publ_section_title
;
Structure prediction by ZEFSAII (Michael W. Deem and Ramdas Pophale) SiO2 
 PCOD9364495
Probable space group: A M A 2
;
_chemical_formula_sum "Si O2"
_cell_formula_units_Z 48
_cell_length_a 14.551927
_cell_length_b 8.810698
_cell_length_c 18.791084
_cell_angle_alpha 90.000000
_cell_angle_beta 90.000000
_cell_angle_gamma 90.000000
_cell_volume 2409.254378
_symmetry_space_group_name_H-M "A M A 2"
_symmetry_group_IT_number 40
_symmetry_cell_setting 'orthorhombic'
loop_
_space_group_symop_operation_xyz
x,y,z
-x,-y,z
1/2-x,y,z
1/2+x,-y,z
x,1/2+y,1/2+z
-x,1/2-y,1/2+z
1/2-x,1/2+y,1/2+z
1/2+x,1/2-y,1/2+z
loop_
_atom_site_type_symbol
_atom_site_label
_atom_site_fract_x
_atom_site_fract_y
_atom_site_fract_z
Si Si1 0.250000 0.220240 0.594211
Si Si2 0.569711 0.129664 0.737602
Si Si3 0.250000 0.529395 0.397832
Si Si4 0.250000 0.070505 0.737526
Si Si5 0.048079 0.655529 0.608394
Si Si6 0.750000 0.423338 0.557407
Si Si7 0.354441 0.234814 0.371353
Si Si8 0.065385 0.641588 0.016273
O O1 0.250000 0.202924 0.679384
O O2 0.250000 0.393770 0.567405
O O3 0.158716 0.143039 0.562357
O O4 0.535612 0.215709 0.667895
O O5 0.590237 0.252169 0.798764
O O6 0.500000 0.000000 0.761739
O O7 0.663387 0.038315 0.724290
O O8 0.250000 0.613523 0.321623
O O9 0.250000 0.612946 0.472817
O O10 0.335370 0.410277 0.395708
O O11 0.155922 0.635541 0.592349
O O12 0.000000 0.500000 0.632081
O O13 0.993051 0.711466 0.539063
O O14 0.250000 0.176352 0.359621
O O15 0.404094 0.149606 0.434555
O O16 0.000000 0.500000 0.030033
#
# Coordination Sequence:
#
# PCOD9364495 Si02
#       8
#     4   8   4   4   8   4   8   8
#     4  12  20  42  63  97 136 182 218 287 352 389
#     4  11  23  41  67  99 129 171 228 282 330 411
#     4   8  16  38  61  89 117 170 218 262 331 401
#     4  10  21  36  66  90 130 169 220 280 337 401
#     4  12  25  40  63  99 133 177 228 276 336 410
#     4  12  23  40  68  90 143 183 216 287 338 403
#     4   9  19  42  65  89 127 175 211 270 349 396
#     4  12  24  41  69  98 135 175 231 282 340 409
#
# _framework density 19.923176000000002
#
# number of rings (size 3 to 8) (size 9 to 14) (size 15 to 20)
#    0.500    0.667    5.000    3.000    0.000    4.667 
#    0.000    0.000    3.667    1.000    0.000    0.000 
#    0.000    0.000    0.000    0.000    0.000    0.000 
#
# Total GULP energy -133958.428758 kJ/mol
# GULP energy per Si atom -5581.601198 kJ/mol
# Density = 1.987783 g / cm^3
# Si number density = 19.923176 Si / 1000 Ang^3
#
#
#
# Elastic Constant Matrix: (Units=GPa)
#
#
# Indices 1 2 3 4 5 6 
#
# 1 118.3875 29.4532 6.1560 0.0000 0.0000 0.0000
# 2 29.4532 39.6041 27.1731 0.0000 0.0000 0.0000
# 3 6.1560 27.1731 89.3737 0.0000 0.0000 0.0000
# 4 0.0000 0.0000 0.0000 22.3839 0.0000 0.0000
# 5 0.0000 0.0000 0.0000 0.0000 33.1188 0.0000
# 6 0.0000 0.0000 0.0000 0.0000 0.0000 14.5172
#
#
#
# Elastic Compliance Matrix: (Units=1/GPa)
#
#
# Indices 1 2 3 4 5 6 
#
# 1 0.010673 -0.009393 0.002121 0.000000 0.000000 0.000000
# 2 -0.009393 0.040171 -0.011567 0.000000 0.000000 0.000000
# 3 0.002121 -0.011567 0.014560 0.000000 0.000000 0.000000
# 4 0.000000 0.000000 0.000000 0.044675 0.000000 0.000000
# 5 0.000000 0.000000 0.000000 0.000000 0.030194 0.000000
# 6 0.000000 0.000000 0.000000 0.000000 0.000000 0.068884
#
#
# Mechanical properties :
#
#
# Convention : Reuss Voigt Hill
#
# Bulk Modulus (GPa) = 36.06627 41.43664 38.75146
# Shear Modulus (GPa) = 19.52541 26.30952 22.91746
#
# Velocity S-wave (km/s) = 3.13395 3.63788 3.39527
# Velocity P-wave (km/s) = 5.58905 6.20394 5.90451
#
# Compressibility (1/GPa) = 0.02772673
#
# Stress axis : x y z
#
# Youngs Moduli (GPa) = 93.69159 24.89350 68.68317
#
# Poissons Ratio (x) = 0.23381 -0.14565
# Poissons Ratio (y) = 0.88001 0.79443
# Poissons Ratio (z) = -0.19868 0.28793
#
# Static dielectric constant tensor:
#      x y z
#    x 1.675610 0.000000 0.000000 
#    y 0.000000 1.696540 0.000000 
#    z 0.000000 0.000000 1.732360 
# 
# From -- ./inp_files/20619.got.cif
#   From: 2010.05.17/outbox.cif.g08.bks.cpg/sg40_11_cif.got.tgz:20619.got - 2010.06.03 18:35:42.
