data_PCOD9364497
_publ_section_title
;
Structure prediction by ZEFSAII (Michael W. Deem and Ramdas Pophale) SiO2 
 PCOD9364497
Probable space group: A M A 2
;
_chemical_formula_sum "Si O2"
_cell_formula_units_Z 40
_cell_length_a 8.743521
_cell_length_b 13.852306
_cell_length_c 18.930183
_cell_angle_alpha 90.000000
_cell_angle_beta 90.000000
_cell_angle_gamma 90.000000
_cell_volume 2292.784549
_symmetry_space_group_name_H-M "A M A 2"
_symmetry_group_IT_number 40
_symmetry_cell_setting 'orthorhombic'
loop_
_space_group_symop_operation_xyz
x,y,z
-x,-y,z
1/2-x,y,z
1/2+x,-y,z
x,1/2+y,1/2+z
-x,1/2-y,1/2+z
1/2-x,1/2+y,1/2+z
1/2+x,1/2-y,1/2+z
loop_
_atom_site_type_symbol
_atom_site_label
_atom_site_fract_x
_atom_site_fract_y
_atom_site_fract_z
Si Si1 0.934097 0.803639 0.279970
Si Si2 0.565612 0.710253 0.069104
Si Si3 0.432501 0.896296 0.138703
Si Si4 0.066355 0.892437 0.422386
Si Si5 0.066937 0.396312 0.211922
O O1 0.750000 0.811410 0.278670
O O2 0.976633 0.692421 0.262951
O O3 0.001102 0.866287 0.215422
O O4 0.999082 0.840412 0.353620
O O5 0.750000 0.722623 0.073135
O O6 0.487656 0.812091 0.086037
O O7 0.521059 0.637968 0.132958
O O8 0.526263 0.665405 0.993720
O O9 0.250000 0.899983 0.141816
O O10 0.500000 0.000000 0.118868
O O11 0.250000 0.896981 0.417187
O O12 0.000000 0.000000 0.426391
O O13 0.250000 0.403319 0.212841
O O14 0.000000 0.500000 0.229766
#
# Coordination Sequence:
#
# PCOD9364497 Si02
#       5
#     8   8   8   8   8
#     4  10  21  37  54  77 110 143 180 222 265 315
#     4   9  20  37  54  78 110 140 174 217 264 316
#     4  11  21  35  57  81 106 139 179 222 268 316
#     4  11  22  36  56  81 110 142 176 218 267 317
#     4   9  18  33  54  77 103 136 172 215 262 310
#
# _framework density 17.446034999999998
#
# number of rings (size 3 to 8) (size 9 to 14) (size 15 to 20)
#    0.000    2.000    0.000    5.400    0.000    5.600 
#    0.000    1.000    0.000    2.400    0.000    0.000 
#    0.000    0.000    0.000    0.000    0.000    0.000 
#
# Total GULP energy -111691.791305 kJ/mol
# GULP energy per Si atom -5584.589565 kJ/mol
# Density = 1.740633 g / cm^3
# Si number density = 17.446035 Si / 1000 Ang^3
#
#
#
# Elastic Constant Matrix: (Units=GPa)
#
#
# Indices 1 2 3 4 5 6 
#
# 1 70.0351 61.8862 59.7952 0.0000 0.0000 0.0000
# 2 61.8862 165.6583 88.3233 0.0000 0.0000 0.0000
# 3 59.7952 88.3233 143.2072 0.0000 0.0000 0.0000
# 4 0.0000 0.0000 0.0000 13.5373 0.0000 0.0000
# 5 0.0000 0.0000 0.0000 0.0000 40.7283 0.0000
# 6 0.0000 0.0000 0.0000 0.0000 0.0000 34.7778
#
#
#
# Elastic Compliance Matrix: (Units=1/GPa)
#
#
# Indices 1 2 3 4 5 6 
#
# 1 0.025353 -0.005702 -0.007069 0.000000 0.000000 0.000000
# 2 -0.005702 0.010277 -0.003957 0.000000 0.000000 0.000000
# 3 -0.007069 -0.003957 0.012375 0.000000 0.000000 0.000000
# 4 0.000000 0.000000 0.000000 0.073870 0.000000 0.000000
# 5 0.000000 0.000000 0.000000 0.000000 0.024553 0.000000
# 6 0.000000 0.000000 0.000000 0.000000 0.000000 0.028754
#
#
# Mechanical properties :
#
#
# Convention : Reuss Voigt Hill
#
# Bulk Modulus (GPa) = 68.73987 88.76776 78.75381
# Shear Modulus (GPa) = 23.42058 29.06840 26.24449
#
# Velocity S-wave (km/s) = 3.66793 4.08633 3.88277
# Velocity P-wave (km/s) = 7.57795 8.55897 8.08335
#
# Compressibility (1/GPa) = 0.01454760
#
# Stress axis : x y z
#
# Youngs Moduli (GPa) = 39.44336 97.30866 80.80751
#
# Poissons Ratio (x) = 0.55488 0.57123
# Poissons Ratio (y) = 0.22492 0.31977
# Poissons Ratio (z) = 0.27883 0.38506
#
# Static dielectric constant tensor:
#      x y z
#    x 1.583820 0.000000 0.000000 
#    y 0.000000 1.576830 0.000000 
#    z 0.000000 0.000000 1.571810 
# 
# From -- ./inp_files/14797.got.cif
#   From: 2010.05.17/outbox.cif.g08.bks.cpg/sg40_8_cif.got.tgz:14797.got - 2010.06.03 18:35:42.
