data_PCOD9364526
_publ_section_title
;
Structure prediction by ZEFSAII (Michael W. Deem and Ramdas Pophale) SiO2 
 PCOD9364526
Probable space group: A M A 2
;
_chemical_formula_sum "Si O2"
_cell_formula_units_Z 60
_cell_length_a 27.568516
_cell_length_b 7.486476
_cell_length_c 12.563782
_cell_angle_alpha 90.000000
_cell_angle_beta 90.000000
_cell_angle_gamma 90.000000
_cell_volume 2593.051950
_symmetry_space_group_name_H-M "A M A 2"
_symmetry_group_IT_number 40
_symmetry_cell_setting 'orthorhombic'
loop_
_space_group_symop_operation_xyz
x,y,z
-x,-y,z
1/2-x,y,z
1/2+x,-y,z
x,1/2+y,1/2+z
-x,1/2-y,1/2+z
1/2-x,1/2+y,1/2+z
1/2+x,1/2-y,1/2+z
loop_
_atom_site_type_symbol
_atom_site_label
_atom_site_fract_x
_atom_site_fract_y
_atom_site_fract_z
Si Si1 0.307153 0.869939 0.822400
Si Si2 0.406518 0.921318 0.066721
Si Si3 0.695853 0.737165 0.558355
Si Si4 0.048454 0.285155 0.761948
Si Si5 0.194953 0.352985 0.095850
Si Si6 0.500000 0.500000 0.128634
Si Si7 0.367693 0.197936 0.912765
Si Si8 0.510526 0.714465 0.459177
O O1 0.250000 0.911231 0.806996
O O2 0.324294 0.786138 0.710510
O O3 0.336717 0.047434 0.851841
O O4 0.309642 0.753501 0.929781
O O5 0.351600 0.868149 0.096484
O O6 0.442289 0.923682 0.167187
O O7 0.432295 0.776696 0.988456
O O8 0.401747 0.095711 0.996874
O O9 0.750000 0.659275 0.578938
O O10 0.694909 0.933351 0.606156
O O11 0.096900 0.292047 0.831421
O O12 0.004411 0.291351 0.844933
O O13 0.040593 0.092063 0.703516
O O14 0.250000 0.288302 0.081822
O O15 0.166561 0.309138 0.989317
O O16 0.485720 0.337924 0.049732
O O17 0.500000 0.500000 0.460625
#
# Coordination Sequence:
#
# PCOD9364526 Si02
#       8
#     8   8   8   8   8   4   8   8
#     4   9  19  36  56  81 116 159 203 255 321 381
#     4  10  22  40  64  93 125 170 216 260 337 390
#     4   9  19  38  63  91 126 163 213 272 322 398
#     4  11  22  42  64  90 132 166 218 273 322 396
#     4  10  21  37  60  90 123 165 214 266 325 388
#     4  10  24  44  70  90 128 178 210 276 342 386
#     4  11  21  36  60  88 123 159 207 267 315 388
#     4  11  22  45  67  97 133 172 226 279 327 403
#
# _framework density 23.138755
#
# number of rings (size 3 to 8) (size 9 to 14) (size 15 to 20)
#    0.000    1.867    2.000    1.200    0.000    4.800 
#    4.800    4.667    2.933    6.400    0.000    0.000 
#    0.000    0.000    0.000    0.000    0.000    0.000 
#
# Total GULP energy -167349.424760 kJ/mol
# GULP energy per Si atom -5578.314159 kJ/mol
# Density = 2.308609 g / cm^3
# Si number density = 23.138755 Si / 1000 Ang^3
#
#
#
# Elastic Constant Matrix: (Units=GPa)
#
#
# Indices 1 2 3 4 5 6 
#
# 1 89.1110 9.5338 36.8354 0.0000 0.0000 0.0000
# 2 9.5338 40.5923 28.4402 0.0000 0.0000 0.0000
# 3 36.8354 28.4402 112.0900 0.0000 0.0000 0.0000
# 4 0.0000 0.0000 0.0000 33.8734 0.0000 0.0000
# 5 0.0000 0.0000 0.0000 0.0000 57.3113 0.0000
# 6 0.0000 0.0000 0.0000 0.0000 0.0000 43.7183
#
#
#
# Elastic Compliance Matrix: (Units=1/GPa)
#
#
# Indices 1 2 3 4 5 6 
#
# 1 0.012986 -0.000073 -0.004249 0.000000 0.000000 0.000000
# 2 -0.000073 0.029962 -0.007578 0.000000 0.000000 0.000000
# 3 -0.004249 -0.007578 0.012240 0.000000 0.000000 0.000000
# 4 0.000000 0.000000 0.000000 0.029522 0.000000 0.000000
# 5 0.000000 0.000000 0.000000 0.000000 0.017449 0.000000
# 6 0.000000 0.000000 0.000000 0.000000 0.000000 0.022874
#
#
# Mechanical properties :
#
#
# Convention : Reuss Voigt Hill
#
# Bulk Modulus (GPa) = 31.85918 43.49024 37.67471
# Shear Modulus (GPa) = 31.38822 38.11286 34.75054
#
# Velocity S-wave (km/s) = 3.68709 4.06290 3.87955
# Velocity P-wave (km/s) = 5.65021 6.39107 6.03203
#
# Compressibility (1/GPa) = 0.03138813
#
# Stress axis : x y z
#
# Youngs Moduli (GPa) = 77.00500 33.37587 81.69605
#
# Poissons Ratio (x) = 0.00244 0.34713
# Poissons Ratio (y) = 0.00562 0.61910
# Poissons Ratio (z) = 0.32720 0.25293
#
# Static dielectric constant tensor:
#      x y z
#    x 1.796440 0.000000 0.000000 
#    y 0.000000 1.869260 0.000000 
#    z 0.000000 0.000000 1.881860 
# 
# From -- ./inp_files/14363.got.cif
#   From: 2010.05.17/outbox.cif.g08.bks.cpg/sg40_8_cif.got.tgz:14363.got - 2010.06.03 18:35:42.
