data_PCOD9364304
_publ_section_title
;
Structure prediction by ZEFSAII (Michael W. Deem and Ramdas Pophale) SiO2 
 PCOD9364304
Probable space group: A M A 2
;
_chemical_formula_sum "Si O2"
_cell_formula_units_Z 40
_cell_length_a 20.123586
_cell_length_b 5.246705
_cell_length_c 18.074612
_cell_angle_alpha 90.000000
_cell_angle_beta 90.000000
_cell_angle_gamma 90.000000
_cell_volume 1908.363070
_symmetry_space_group_name_H-M "A M A 2"
_symmetry_group_IT_number 40
_symmetry_cell_setting 'orthorhombic'
loop_
_space_group_symop_operation_xyz
x,y,z
-x,-y,z
1/2-x,y,z
1/2+x,-y,z
x,1/2+y,1/2+z
-x,1/2-y,1/2+z
1/2-x,1/2+y,1/2+z
1/2+x,1/2-y,1/2+z
loop_
_atom_site_type_symbol
_atom_site_label
_atom_site_fract_x
_atom_site_fract_y
_atom_site_fract_z
Si Si1 0.670649 0.655659 0.943430
Si Si2 0.180445 0.201515 0.742147
Si Si3 0.673970 0.161325 0.617762
Si Si4 0.628838 0.142930 0.858159
Si Si5 0.928469 0.903423 0.232391
O O1 0.750000 0.701006 0.931704
O O2 0.651225 0.388863 0.904737
O O3 0.629888 0.895831 0.910753
O O4 0.659855 0.642854 0.031365
O O5 0.250000 0.336959 0.756661
O O6 0.116860 0.364523 0.760507
O O7 0.176776 0.113655 0.657582
O O8 0.178577 0.949479 0.792784
O O9 0.750000 0.266440 0.626374
O O10 0.615421 0.296727 0.664150
O O11 0.567390 0.219470 0.804403
O O12 0.000000 0.000000 0.208818
#
# Coordination Sequence:
#
# PCOD9364304 Si02
#       5
#     8   8   8   8   8
#     4  11  22  39  65 101 135 164 206 273 337 386
#     4  10  20  39  67  94 124 164 219 271 320 382
#     4   9  22  39  64  98 129 165 216 271 328 387
#     4  11  23  39  64  97 130 168 212 265 325 386
#     4  11  24  43  66  93 133 179 224 264 318 385
#
# _framework density 20.960370999999999
#
# number of rings (size 3 to 8) (size 9 to 14) (size 15 to 20)
#    0.000    1.600    2.000    2.400    2.800    6.400 
#    0.000    2.000    0.000    0.000    0.000    0.000 
#    0.000    0.000    0.000    0.000    0.000    0.000 
#
# Total GULP energy -111425.103242 kJ/mol
# GULP energy per Si atom -5571.255162 kJ/mol
# Density = 2.091266 g / cm^3
# Si number density = 20.960371 Si / 1000 Ang^3
#
#
#
# Elastic Constant Matrix: (Units=GPa)
#
#
# Indices 1 2 3 4 5 6 
#
# 1 100.7131 29.6001 22.1237 0.0000 0.0000 0.0000
# 2 29.6001 113.9640 53.6083 0.0000 0.0000 0.0000
# 3 22.1237 53.6083 177.9098 0.0000 0.0000 0.0000
# 4 0.0000 0.0000 0.0000 30.9495 0.0000 0.0000
# 5 0.0000 0.0000 0.0000 0.0000 8.7119 0.0000
# 6 0.0000 0.0000 0.0000 0.0000 0.0000 19.2239
#
#
#
# Elastic Compliance Matrix: (Units=1/GPa)
#
#
# Indices 1 2 3 4 5 6 
#
# 1 0.010801 -0.002533 -0.000580 0.000000 0.000000 0.000000
# 2 -0.002533 0.010818 -0.002945 0.000000 0.000000 0.000000
# 3 -0.000580 -0.002945 0.006580 0.000000 0.000000 0.000000
# 4 0.000000 0.000000 0.000000 0.032311 0.000000 0.000000
# 5 0.000000 0.000000 0.000000 0.000000 0.114786 0.000000
# 6 0.000000 0.000000 0.000000 0.000000 0.000000 0.052018
#
#
# Mechanical properties :
#
#
# Convention : Reuss Voigt Hill
#
# Bulk Modulus (GPa) = 62.17205 67.02790 64.59998
# Shear Modulus (GPa) = 20.42571 30.92739 25.67655
#
# Velocity S-wave (km/s) = 3.12507 3.84541 3.50380
# Velocity P-wave (km/s) = 6.53816 7.19473 6.87429
#
# Compressibility (1/GPa) = 0.01608440
#
# Stress axis : x y z
#
# Youngs Moduli (GPa) = 92.58467 92.44155 151.96982
#
# Poissons Ratio (x) = 0.23411 0.08815
# Poissons Ratio (y) = 0.23447 0.44750
# Poissons Ratio (z) = 0.05370 0.27221
#
# Static dielectric constant tensor:
#      x y z
#    x 1.699210 0.000000 0.000000 
#    y 0.000000 1.852840 0.000000 
#    z 0.000000 0.000000 1.767460 
# 
# From -- ./inp_files/20905.got.cif
#   From: 2010.05.17/outbox.cif.g08.bks.cpg/sg40_11_cif.got.tgz:20905.got - 2010.06.03 18:35:42.
