data_PCOD9364981
_publ_section_title
;
Structure prediction by ZEFSAII (Michael W. Deem and Ramdas Pophale) SiO2 
 PCOD9364981
Probable space group: A M A 2
;
_chemical_formula_sum "Si O2"
_cell_formula_units_Z 64
_cell_length_a 30.619450
_cell_length_b 11.580353
_cell_length_c 8.975226
_cell_angle_alpha 90.000000
_cell_angle_beta 90.000000
_cell_angle_gamma 90.000000
_cell_volume 3182.471892
_symmetry_space_group_name_H-M "A M A 2"
_symmetry_group_IT_number 40
_symmetry_cell_setting 'orthorhombic'
loop_
_space_group_symop_operation_xyz
x,y,z
-x,-y,z
1/2-x,y,z
1/2+x,-y,z
x,1/2+y,1/2+z
-x,1/2-y,1/2+z
1/2-x,1/2+y,1/2+z
1/2+x,1/2-y,1/2+z
loop_
_atom_site_type_symbol
_atom_site_label
_atom_site_fract_x
_atom_site_fract_y
_atom_site_fract_z
Si Si1 0.800839 0.057534 0.481190
Si Si2 0.448858 0.497258 0.354624
Si Si3 0.046536 0.961872 0.210968
Si Si4 0.124797 0.320171 0.419333
Si Si5 0.664380 0.804567 0.972309
Si Si6 0.363880 0.076126 0.268720
Si Si7 0.090427 0.233462 0.738391
Si Si8 0.199950 0.988792 0.809322
O O1 0.750000 0.040517 0.448714
O O2 0.810268 0.190798 0.519876
O O3 0.829096 0.007123 0.346765
O O4 0.812790 0.996942 0.636413
O O5 0.500000 0.500000 0.309819
O O6 0.450394 0.503836 0.537161
O O7 0.417293 0.384430 0.343614
O O8 0.426681 0.602537 0.262810
O O9 0.050870 0.824908 0.239252
O O10 0.088742 0.019125 0.284401
O O11 0.000000 0.000000 0.270492
O O12 0.135639 0.200464 0.343190
O O13 0.114347 0.281131 0.588946
O O14 0.165666 0.405268 0.392325
O O15 0.624045 0.758013 0.874736
O O16 0.695729 0.884560 0.876165
O O17 0.647170 0.890310 0.099694
O O18 0.250000 0.946343 0.817640
#
# Coordination Sequence:
#
# PCOD9364981 Si02
#       8
#     8   8   8   8   8   8   8   8
#     4  11  26  45  66  98 134 173 224 275 333 402
#     4  10  22  42  67  95 130 177 223 274 330 393
#     4  10  22  40  64  98 133 172 226 275 328 393
#     4  11  24  41  67  99 137 173 220 275 338 398
#     4  12  22  44  70  94 130 174 222 270 334 394
#     4  12  24  41  67  99 134 178 215 281 334 393
#     4  11  21  42  69  93 132 178 219 273 339 392
#     4  11  24  45  69  96 132 175 220 275 333 397
#
# _framework density 20.110154999999999
#
# number of rings (size 3 to 8) (size 9 to 14) (size 15 to 20)
#    0.000    1.000    5.000    1.875    1.750    1.500 
#    0.000    1.250    0.000    0.000    0.000    0.000 
#    0.000    0.000    0.000    0.000    0.000    0.000 
#
# Total GULP energy -178396.780503 kJ/mol
# GULP energy per Si atom -5574.899391 kJ/mol
# Density = 2.006438 g / cm^3
# Si number density = 20.110155 Si / 1000 Ang^3
#
#
#
# Elastic Constant Matrix: (Units=GPa)
#
#
# Indices 1 2 3 4 5 6 
#
# 1 94.5765 24.2827 36.3275 0.0000 0.0000 0.0000
# 2 24.2827 75.6287 15.7067 0.0000 0.0000 0.0000
# 3 36.3275 15.7067 63.0823 0.0000 0.0000 0.0000
# 4 0.0000 0.0000 0.0000 37.1269 0.0000 0.0000
# 5 0.0000 0.0000 0.0000 0.0000 4.6685 0.0000
# 6 0.0000 0.0000 0.0000 0.0000 0.0000 17.9259
#
#
#
# Elastic Compliance Matrix: (Units=1/GPa)
#
#
# Indices 1 2 3 4 5 6 
#
# 1 0.014201 -0.003017 -0.007427 0.000000 0.000000 0.000000
# 2 -0.003017 0.014585 -0.001894 0.000000 0.000000 0.000000
# 3 -0.007427 -0.001894 0.020601 0.000000 0.000000 0.000000
# 4 0.000000 0.000000 0.000000 0.026935 0.000000 0.000000
# 5 0.000000 0.000000 0.000000 0.000000 0.214200 0.000000
# 6 0.000000 0.000000 0.000000 0.000000 0.000000 0.055785
#
#
# Mechanical properties :
#
#
# Convention : Reuss Voigt Hill
#
# Bulk Modulus (GPa) = 40.46836 42.88014 41.67425
# Shear Modulus (GPa) = 13.18505 22.40899 17.79702
#
# Velocity S-wave (km/s) = 2.56333 3.34175 2.97808
# Velocity P-wave (km/s) = 5.37847 6.02152 5.70905
#
# Compressibility (1/GPa) = 0.02471066
#
# Stress axis : x y z
#
# Youngs Moduli (GPa) = 70.41894 68.56572 48.54222
#
# Poissons Ratio (x) = 0.20687 0.36050
# Poissons Ratio (y) = 0.21247 0.09193
# Poissons Ratio (z) = 0.52297 0.12985
#
# Static dielectric constant tensor:
#      x y z
#    x 1.761140 0.000000 0.000000 
#    y 0.000000 1.709420 0.000000 
#    z 0.000000 0.000000 1.762370 
# 
# From -- ./inp_files/9433.got.cif
#   From: 2010.05.17/outbox.cif.g08.bks.cpg/sg40_5_cif.got.tgz:9433.got - 2010.06.03 18:35:42.
