data_PCOD9364310
_publ_section_title
;
Structure prediction by ZEFSAII (Michael W. Deem and Ramdas Pophale) SiO2 
 PCOD9364310
Probable space group: A M A 2
;
_chemical_formula_sum "Si O2"
_cell_formula_units_Z 48
_cell_length_a 28.488449
_cell_length_b 5.182716
_cell_length_c 12.951244
_cell_angle_alpha 90.000000
_cell_angle_beta 90.000000
_cell_angle_gamma 90.000000
_cell_volume 1912.219322
_symmetry_space_group_name_H-M "A M A 2"
_symmetry_group_IT_number 40
_symmetry_cell_setting 'orthorhombic'
loop_
_space_group_symop_operation_xyz
x,y,z
-x,-y,z
1/2-x,y,z
1/2+x,-y,z
x,1/2+y,1/2+z
-x,1/2-y,1/2+z
1/2-x,1/2+y,1/2+z
1/2+x,1/2-y,1/2+z
loop_
_atom_site_type_symbol
_atom_site_label
_atom_site_fract_x
_atom_site_fract_y
_atom_site_fract_z
Si Si1 0.150653 0.913501 0.274900
Si Si2 0.500000 0.500000 0.834633
Si Si3 0.894862 0.030405 0.635345
Si Si4 0.750000 0.094769 0.931840
Si Si5 0.408234 0.227580 0.416969
Si Si6 0.000000 0.500000 0.203518
Si Si7 0.846466 0.360308 0.489604
Si Si8 0.750000 0.094630 0.296860
O O1 0.125648 0.680154 0.214754
O O2 0.164169 0.829239 0.393833
O O3 0.202733 0.957544 0.233526
O O4 0.116274 0.147054 0.308641
O O5 0.460668 0.634539 0.903048
O O6 0.484064 0.256848 0.765690
O O7 0.950473 0.083583 0.651597
O O8 0.861512 0.271877 0.604192
O O9 0.891466 0.898577 0.522687
O O10 0.799608 0.037111 0.988700
O O11 0.750000 0.382594 0.888528
O O12 0.750000 0.891873 0.835586
O O13 0.394523 0.517521 0.441823
#
# Coordination Sequence:
#
# PCOD9364310 Si02
#       8
#     8   4   8   4   8   4   8   4
#     4  10  21  43  66  98 141 189 239 298 371 442
#     4  12  27  46  75  98 138 192 246 303 381 454
#     4  11  25  43  68 105 140 186 246 311 372 455
#     4  10  20  41  69 104 139 192 242 296 374 445
#     4  11  23  43  68 100 140 190 239 305 373 453
#     4  12  27  48  71 102 140 188 244 313 371 456
#     4  10  23  41  72  97 146 190 242 307 373 449
#     4  10  20  39  71 100 141 192 242 294 370 455
#
# _framework density 25.101723
#
# number of rings (size 3 to 8) (size 9 to 14) (size 15 to 20)
#    0.000    1.333    3.333    1.500    4.667    2.000 
#    0.000    1.667    0.000    0.000    0.000    0.000 
#    0.000    0.000    0.000    0.000    0.000    0.000 
#
# Total GULP energy -133790.616481 kJ/mol
# GULP energy per Si atom -5574.609020 kJ/mol
# Density = 2.504459 g / cm^3
# Si number density = 25.101723 Si / 1000 Ang^3
#
#
#
# Elastic Constant Matrix: (Units=GPa)
#
#
# Indices 1 2 3 4 5 6 
#
# 1 175.1348 28.0522 44.9000 0.0000 0.0000 0.0000
# 2 28.0522 71.8884 9.7610 0.0000 0.0000 0.0000
# 3 44.9000 9.7610 109.2734 0.0000 0.0000 0.0000
# 4 0.0000 0.0000 0.0000 21.5581 0.0000 0.0000
# 5 0.0000 0.0000 0.0000 0.0000 20.0084 0.0000
# 6 0.0000 0.0000 0.0000 0.0000 0.0000 43.4006
#
#
#
# Elastic Compliance Matrix: (Units=1/GPa)
#
#
# Indices 1 2 3 4 5 6 
#
# 1 0.006732 -0.002279 -0.002563 0.000000 0.000000 0.000000
# 2 -0.002279 0.014853 -0.000390 0.000000 0.000000 0.000000
# 3 -0.002563 -0.000390 0.010239 0.000000 0.000000 0.000000
# 4 0.000000 0.000000 0.000000 0.046386 0.000000 0.000000
# 5 0.000000 0.000000 0.000000 0.000000 0.049979 0.000000
# 6 0.000000 0.000000 0.000000 0.000000 0.000000 0.023041
#
#
# Mechanical properties :
#
#
# Convention : Reuss Voigt Hill
#
# Bulk Modulus (GPa) = 46.81617 57.96922 52.39269
# Shear Modulus (GPa) = 29.61841 35.23232 32.42537
#
# Velocity S-wave (km/s) = 3.43875 3.75050 3.59800
# Velocity P-wave (km/s) = 5.87007 6.47294 6.17886
#
# Compressibility (1/GPa) = 0.02136014
#
# Stress axis : x y z
#
# Youngs Moduli (GPa) = 148.54677 67.32766 97.66431
#
# Poissons Ratio (x) = 0.15344 0.25027
# Poissons Ratio (y) = 0.33853 0.03812
# Poissons Ratio (z) = 0.38066 0.02628
#
# Static dielectric constant tensor:
#      x y z
#    x 2.122160 0.000000 0.000000 
#    y 0.000000 2.342430 0.000000 
#    z 0.000000 0.000000 2.018090 
# 
# From -- ./inp_files/18679.got.cif
#   From: 2010.05.17/outbox.cif.g08.bks.cpg/sg40_10_cif.got.tgz:18679.got - 2010.06.03 18:35:42.
