data_PCOD9364249
_publ_section_title
;
Structure prediction by ZEFSAII (Michael W. Deem and Ramdas Pophale) SiO2 
 PCOD9364249
Probable space group: A M A 2
;
_chemical_formula_sum "Si O2"
_cell_formula_units_Z 52
_cell_length_a 14.564283
_cell_length_b 5.197158
_cell_length_c 30.229984
_cell_angle_alpha 90.000000
_cell_angle_beta 90.000000
_cell_angle_gamma 90.000000
_cell_volume 2288.194549
_symmetry_space_group_name_H-M "A M A 2"
_symmetry_group_IT_number 40
_symmetry_cell_setting 'orthorhombic'
loop_
_space_group_symop_operation_xyz
x,y,z
-x,-y,z
1/2-x,y,z
1/2+x,-y,z
x,1/2+y,1/2+z
-x,1/2-y,1/2+z
1/2-x,1/2+y,1/2+z
1/2+x,1/2-y,1/2+z
loop_
_atom_site_type_symbol
_atom_site_label
_atom_site_fract_x
_atom_site_fract_y
_atom_site_fract_z
Si Si1 0.565026 0.748678 0.395980
Si Si2 0.063981 0.751213 0.992979
Si Si3 0.361870 0.633098 0.633718
Si Si4 0.358638 0.634511 0.086307
Si Si5 0.390988 0.557167 0.805903
Si Si6 0.250000 0.726720 0.261278
Si Si7 0.897453 0.088715 0.724412
O O1 0.500000 0.500000 0.388902
O O2 0.610298 0.725705 0.444409
O O3 0.624885 0.804052 0.352669
O O4 0.500000 0.000000 0.398312
O O5 0.125228 0.719511 0.036120
O O6 0.000000 0.500000 0.992307
O O7 0.000000 0.000000 0.997623
O O8 0.250000 0.624528 0.634312
O O9 0.396410 0.354037 0.619012
O O10 0.392270 0.739553 0.680916
O O11 0.392783 0.849820 0.598171
O O12 0.250000 0.624722 0.093647
O O13 0.500000 0.500000 0.801980
O O14 0.330795 0.307012 0.797215
O O15 0.361472 0.742571 0.765714
O O16 0.170304 0.651620 0.224450
O O17 0.000000 0.000000 0.732693
#
# Coordination Sequence:
#
# PCOD9364249 Si02
#       7
#     8   8   8   8   8   4   8
#     4   9  20  39  67  94 128 174 219 271 338 404
#     4  10  20  38  65  93 126 169 215 270 329 394
#     4  10  23  39  63  88 129 174 215 271 334 397
#     4  10  22  40  62  91 127 167 211 270 332 388
#     4  11  24  43  69  95 136 181 227 280 344 407
#     4  12  26  44  68  98 136 180 228 286 336 412
#     4  12  25  42  68  97 134 177 229 279 345 406
#
# _framework density 22.725341
#
# number of rings (size 3 to 8) (size 9 to 14) (size 15 to 20)
#    0.000    1.538    2.308    1.846    4.308    1.846 
#    1.385    0.000    0.000    0.000    0.000    0.000 
#    0.000    0.000    0.000    0.000    0.000    0.000 
#
# Total GULP energy -144869.098586 kJ/mol
# GULP energy per Si atom -5571.888407 kJ/mol
# Density = 2.267362 g / cm^3
# Si number density = 22.725341 Si / 1000 Ang^3
#
#
#
# Elastic Constant Matrix: (Units=GPa)
#
#
# Indices 1 2 3 4 5 6 
#
# 1 92.7346 11.2357 1.2883 0.0000 0.0000 0.0000
# 2 11.2357 99.3941 10.3452 0.0000 0.0000 0.0000
# 3 1.2883 10.3452 131.1341 0.0000 0.0000 0.0000
# 4 0.0000 0.0000 0.0000 41.4407 0.0000 0.0000
# 5 0.0000 0.0000 0.0000 0.0000 0.4613 0.0000
# 6 0.0000 0.0000 0.0000 0.0000 0.0000 -105.5956
#
#
#
# Elastic Compliance Matrix: (Units=1/GPa)
#
#
# Indices 1 2 3 4 5 6 
#
# 1 0.010933 -0.001235 -0.000010 0.000000 0.000000 0.000000
# 2 -0.001235 0.010284 -0.000799 0.000000 0.000000 0.000000
# 3 -0.000010 -0.000799 0.007689 0.000000 0.000000 0.000000
# 4 0.000000 0.000000 0.000000 0.024131 0.000000 0.000000
# 5 0.000000 0.000000 0.000000 0.000000 2.167589 0.000000
# 6 0.000000 0.000000 0.000000 0.000000 0.000000 -0.009470
#
#
# Mechanical properties :
#
#
# Convention : Reuss Voigt Hill
#
# Bulk Modulus (GPa) = 40.29360 41.00013 40.64687
# Shear Modulus (GPa) = 2.24869 7.28753 4.76811
#
# Velocity S-wave (km/s) = 0.99582 1.79269 1.45007
# Velocity P-wave (km/s) = 4.36937 4.72924 4.55286
#
# Compressibility (1/GPa) = 0.02481784
#
# Stress axis : x y z
#
# Youngs Moduli (GPa) = 91.46435 97.24096 130.05717
#
# Poissons Ratio (x) = 0.12008 0.00130
# Poissons Ratio (y) = 0.11295 0.10394
# Poissons Ratio (z) = 0.00091 0.07771
#
# Static dielectric constant tensor:
#      x y z
#    x 1.814400 0.000000 0.000000 
#    y 0.000000 1.978610 0.000000 
#    z 0.000000 0.000000 1.868860 
# 
# From -- ./inp_files/26599.got.cif
#   From: 2010.05.17/outbox.cif.g08.bks.cpg/sg40_14_cif.got.tgz:26599.got - 2010.06.03 18:35:42.
