data_PCOD9364824
_publ_section_title
;
Structure prediction by ZEFSAII (Michael W. Deem and Ramdas Pophale) SiO2 
 PCOD9364824
Probable space group: A M A 2
;
_chemical_formula_sum "Si O2"
_cell_formula_units_Z 56
_cell_length_a 14.075666
_cell_length_b 15.550297
_cell_length_c 12.196658
_cell_angle_alpha 90.000000
_cell_angle_beta 90.000000
_cell_angle_gamma 90.000000
_cell_volume 2669.614099
_symmetry_space_group_name_H-M "A M A 2"
_symmetry_group_IT_number 40
_symmetry_cell_setting 'orthorhombic'
loop_
_space_group_symop_operation_xyz
x,y,z
-x,-y,z
1/2-x,y,z
1/2+x,-y,z
x,1/2+y,1/2+z
-x,1/2-y,1/2+z
1/2-x,1/2+y,1/2+z
1/2+x,1/2-y,1/2+z
loop_
_atom_site_type_symbol
_atom_site_label
_atom_site_fract_x
_atom_site_fract_y
_atom_site_fract_z
Si Si1 0.136093 0.029067 0.265930
Si Si2 0.643016 0.534319 0.449266
Si Si3 0.996853 0.713569 0.106000
Si Si4 0.640421 0.924620 0.509626
Si Si5 0.135699 0.854269 0.149084
Si Si6 0.904304 0.052844 0.704460
Si Si7 0.364386 0.139087 0.052847
O O1 0.250000 0.024371 0.268087
O O2 0.107821 0.044230 0.390268
O O3 0.116147 0.102338 0.175795
O O4 0.105882 0.936350 0.221182
O O5 0.750000 0.522363 0.493236
O O6 0.611267 0.613573 0.524855
O O7 0.646194 0.550829 0.321145
O O8 0.601275 0.440218 0.475858
O O9 0.070016 0.773224 0.173639
O O10 0.929746 0.649937 0.174224
O O11 0.926656 0.775846 0.038787
O O12 0.067653 0.649979 0.042076
O O13 0.750000 0.893713 0.503781
O O14 0.638069 0.000863 0.600660
O O15 0.250000 0.837577 0.159181
O O16 0.000000 0.000000 0.726387
O O17 0.250000 0.155195 0.040366
#
# Coordination Sequence:
#
# PCOD9364824 Si02
#       7
#     8   8   8   8   8   8   8
#     4   8  17  38  65  88 117 163 207 246 304 371
#     4   9  19  38  64  86 116 164 206 247 305 372
#     4  11  23  38  57  99 125 158 200 258 312 352
#     4  10  21  42  64  84 124 171 206 244 302 375
#     4   9  19  38  64  96 122 153 204 254 307 362
#     4  10  23  39  54  83 123 167 207 242 301 370
#     4   9  20  39  62  93 123 155 205 259 309 355
#
# _framework density 20.976814999999998
#
# number of rings (size 3 to 8) (size 9 to 14) (size 15 to 20)
#    0.000    2.571    0.000    2.571    2.000    4.000 
#   12.857    2.857    0.000    6.857    0.000    0.000 
#    0.000    0.000    0.000    0.000    0.000    0.000 
#
# Total GULP energy -156115.955446 kJ/mol
# GULP energy per Si atom -5575.569837 kJ/mol
# Density = 2.092907 g / cm^3
# Si number density = 20.976815 Si / 1000 Ang^3
#
#
#
# Elastic Constant Matrix: (Units=GPa)
#
#
# Indices 1 2 3 4 5 6 
#
# 1 92.0841 37.3934 11.4048 0.0000 0.0000 0.0000
# 2 37.3934 121.4071 41.7711 0.0000 0.0000 0.0000
# 3 11.4048 41.7711 119.2088 0.0000 0.0000 0.0000
# 4 0.0000 0.0000 0.0000 6.1022 0.0000 0.0000
# 5 0.0000 0.0000 0.0000 0.0000 -5.2060 0.0000
# 6 0.0000 0.0000 0.0000 0.0000 0.0000 25.3364
#
#
#
# Elastic Compliance Matrix: (Units=1/GPa)
#
#
# Indices 1 2 3 4 5 6 
#
# 1 0.012415 -0.003883 0.000173 0.000000 0.000000 0.000000
# 2 -0.003883 0.010581 -0.003336 0.000000 0.000000 0.000000
# 3 0.000173 -0.003336 0.009541 0.000000 0.000000 0.000000
# 4 0.000000 0.000000 0.000000 0.163874 0.000000 0.000000
# 5 0.000000 0.000000 0.000000 0.000000 -0.192087 0.000000
# 6 0.000000 0.000000 0.000000 0.000000 0.000000 0.039469
#
#
# Mechanical properties :
#
#
# Convention : Reuss Voigt Hill
#
# Bulk Modulus (GPa) = 54.21795 57.09319 55.65557
# Shear Modulus (GPa) = 78.08411 21.38858 49.73634
#
# Velocity S-wave (km/s) = 6.10777 3.19663 4.87459
# Velocity P-wave (km/s) = 8.69727 6.39538 7.63359
#
# Compressibility (1/GPa) = 0.01844407
#
# Stress axis : x y z
#
# Youngs Moduli (GPa) = 80.54661 94.51264 104.81064
#
# Poissons Ratio (x) = 0.36703 -0.01813
# Poissons Ratio (y) = 0.31279 0.34964
# Poissons Ratio (z) = -0.01393 0.31529
#
# Static dielectric constant tensor:
#      x y z
#    x 1.809740 0.000000 0.000000 
#    y 0.000000 1.755810 0.000000 
#    z 0.000000 0.000000 1.755820 
# 
# From -- ./inp_files/12218.got.cif
#   From: 2010.05.17/outbox.cif.g08.bks.cpg/sg40_7_cif.got.tgz:12218.got - 2010.06.03 18:35:42.
