data_PCOD9364796
_publ_section_title
;
Structure prediction by ZEFSAII (Michael W. Deem and Ramdas Pophale) SiO2 
 PCOD9364796
Probable space group: A M A 2
;
_chemical_formula_sum "Si O2"
_cell_formula_units_Z 64
_cell_length_a 17.203104
_cell_length_b 9.693249
_cell_length_c 20.515415
_cell_angle_alpha 90.000000
_cell_angle_beta 90.000000
_cell_angle_gamma 90.000000
_cell_volume 3421.026911
_symmetry_space_group_name_H-M "A M A 2"
_symmetry_group_IT_number 40
_symmetry_cell_setting 'orthorhombic'
loop_
_space_group_symop_operation_xyz
x,y,z
-x,-y,z
1/2-x,y,z
1/2+x,-y,z
x,1/2+y,1/2+z
-x,1/2-y,1/2+z
1/2-x,1/2+y,1/2+z
1/2+x,1/2-y,1/2+z
loop_
_atom_site_type_symbol
_atom_site_label
_atom_site_fract_x
_atom_site_fract_y
_atom_site_fract_z
Si Si1 0.656188 0.715226 0.688350
Si Si2 0.553118 0.124717 0.931495
Si Si3 0.342871 0.283956 0.068690
Si Si4 0.910191 0.523575 0.575433
Si Si5 0.155149 0.466637 0.192254
Si Si6 0.156297 0.460547 0.816522
Si Si7 0.656942 0.217476 0.814229
Si Si8 0.561396 0.619390 0.946075
O O1 0.750000 0.716126 0.685277
O O2 0.626013 0.630886 0.626144
O O3 0.635201 0.634443 0.754774
O O4 0.629112 0.874377 0.689816
O O5 0.618263 0.169438 0.880971
O O6 0.492303 0.247450 0.939123
O O7 0.500000 0.000000 0.906418
O O8 0.588528 0.081503 0.001447
O O9 0.250000 0.287305 0.065275
O O10 0.368572 0.377475 0.129689
O O11 0.369032 0.125339 0.076904
O O12 0.379366 0.349178 0.004074
O O13 0.000000 0.500000 0.593146
O O14 0.250000 0.468983 0.192969
O O15 0.130237 0.382870 0.256275
O O16 0.250000 0.448514 0.827450
O O17 0.138966 0.621386 0.801569
O O18 0.108534 0.416593 0.880401
O O19 0.750000 0.207054 0.818819
O O20 0.500000 0.500000 0.961825
#
# Coordination Sequence:
#
# PCOD9364796 Si02
#       8
#     8   8   8   8   8   8   8   8
#     4  10  22  40  64  92 122 158 207 262 309 369
#     4  11  24  44  59  89 126 160 204 254 305 369
#     4  11  23  42  67  92 123 169 213 257 311 376
#     4  11  23  42  61  88 128 164 207 255 316 376
#     4   9  21  39  63  94 120 151 205 260 304 359
#     4  10  22  41  65  92 122 163 209 252 309 377
#     4  10  21  41  65  90 121 161 203 249 307 372
#     4  12  24  42  64  90 129 165 203 260 315 367
#
# _framework density 18.707832
#
# number of rings (size 3 to 8) (size 9 to 14) (size 15 to 20)
#    0.000    1.500    3.750    1.500    3.500    3.500 
#    2.250    0.625    0.000    0.000    0.000    0.000 
#    0.000    0.000    0.000    0.000    0.000    0.000 
#
# Total GULP energy -178730.048975 kJ/mol
# GULP energy per Si atom -5585.314030 kJ/mol
# Density = 1.866525 g / cm^3
# Si number density = 18.707832 Si / 1000 Ang^3
#
#
#
# Elastic Constant Matrix: (Units=GPa)
#
#
# Indices 1 2 3 4 5 6 
#
# 1 48.5095 59.4245 58.8432 0.0000 0.0000 0.0000
# 2 59.4245 177.1566 82.3180 0.0000 0.0000 0.0000
# 3 58.8432 82.3180 131.1488 0.0000 0.0000 0.0000
# 4 0.0000 0.0000 0.0000 38.0851 0.0000 0.0000
# 5 0.0000 0.0000 0.0000 0.0000 -56.0039 0.0000
# 6 0.0000 0.0000 0.0000 0.0000 0.0000 35.5646
#
#
#
# Elastic Compliance Matrix: (Units=1/GPa)
#
#
# Indices 1 2 3 4 5 6 
#
# 1 0.055318 -0.009914 -0.018597 0.000000 0.000000 0.000000
# 2 -0.009914 0.009746 -0.001669 0.000000 0.000000 0.000000
# 3 -0.018597 -0.001669 0.017016 0.000000 0.000000 0.000000
# 4 0.000000 0.000000 0.000000 0.026257 0.000000 0.000000
# 5 0.000000 0.000000 0.000000 0.000000 -0.017856 0.000000
# 6 0.000000 0.000000 0.000000 0.000000 0.000000 0.028118
#
#
# Mechanical properties :
#
#
# Convention : Reuss Voigt Hill
#
# Bulk Modulus (GPa) = 46.04020 84.22070 65.13045
# Shear Modulus (GPa) = 26.85288 13.94444 20.39866
#
# Velocity S-wave (km/s) = 3.79275 2.73313 3.30567
# Velocity P-wave (km/s) = 6.62144 7.42136 7.03279
#
# Compressibility (1/GPa) = 0.02172015
#
# Stress axis : x y z
#
# Youngs Moduli (GPa) = 18.07720 102.60866 58.76685
#
# Poissons Ratio (x) = 1.01730 1.09289
# Poissons Ratio (y) = 0.17922 0.09807
# Poissons Ratio (z) = 0.33618 0.17123
#
# Static dielectric constant tensor:
#      x y z
#    x 1.631070 0.000000 0.000000 
#    y 0.000000 1.619450 0.000000 
#    z 0.000000 0.000000 1.629790 
# 
# From -- ./inp_files/21387.got.cif
#   From: 2010.05.17/outbox.cif.g08.bks.cpg/sg40_11_cif.got.tgz:21387.got - 2010.06.03 18:35:42.
