data_PCOD9364485
_publ_section_title
;
Structure prediction by ZEFSAII (Michael W. Deem and Ramdas Pophale) SiO2 
 PCOD9364485
Probable space group: A M A 2
;
_chemical_formula_sum "Si O2"
_cell_formula_units_Z 48
_cell_length_a 20.957491
_cell_length_b 11.387880
_cell_length_c 8.981801
_cell_angle_alpha 90.000000
_cell_angle_beta 90.000000
_cell_angle_gamma 90.000000
_cell_volume 2143.609135
_symmetry_space_group_name_H-M "A M A 2"
_symmetry_group_IT_number 40
_symmetry_cell_setting 'orthorhombic'
loop_
_space_group_symop_operation_xyz
x,y,z
-x,-y,z
1/2-x,y,z
1/2+x,-y,z
x,1/2+y,1/2+z
-x,1/2-y,1/2+z
1/2-x,1/2+y,1/2+z
1/2+x,1/2-y,1/2+z
loop_
_atom_site_type_symbol
_atom_site_label
_atom_site_fract_x
_atom_site_fract_y
_atom_site_fract_z
Si Si1 0.177534 0.229144 0.639080
Si Si2 0.823537 0.515556 0.202495
Si Si3 0.677566 0.766907 0.301814
Si Si4 0.937867 0.069424 0.480788
Si Si5 0.935665 0.330822 0.572938
Si Si6 0.926647 0.074975 0.148570
O O1 0.250000 0.267416 0.661603
O O2 0.170823 0.184726 0.468297
O O3 0.130878 0.336155 0.652344
O O4 0.164322 0.119272 0.747438
O O5 0.750000 0.514617 0.144684
O O6 0.825395 0.624493 0.315000
O O7 0.876754 0.544903 0.081292
O O8 0.750000 0.795599 0.247650
O O9 0.620799 0.801351 0.190886
O O10 0.942584 0.212164 0.475540
O O11 0.929197 0.022254 0.314442
O O12 0.000000 0.000000 0.542345
O O13 0.920814 0.467533 0.531734
O O14 0.008236 0.352257 0.628166
#
# Coordination Sequence:
#
# PCOD9364485 Si02
#       6
#     8   8   8   8   8   8
#     4  10  21  36  59  85 118 156 191 245 300 349
#     4   9  19  36  59  87 112 146 200 246 290 355
#     4   9  19  37  60  83 111 150 200 247 293 355
#     4  11  21  38  61  81 114 159 192 244 300 345
#     4  10  22  37  57  83 112 155 192 245 299 343
#     4  11  23  37  54  84 123 151 195 249 287 361
#
# _framework density 22.392142
#
# number of rings (size 3 to 8) (size 9 to 14) (size 15 to 20)
#    0.000    2.000    1.667    2.000    2.333    2.667 
#    0.000    0.000    0.000    0.000    0.000    0.000 
#    0.000    0.000    0.000    0.000    0.000    0.000 
#
# Total GULP energy -133705.934543 kJ/mol
# GULP energy per Si atom -5571.080606 kJ/mol
# Density = 2.234118 g / cm^3
# Si number density = 22.392142 Si / 1000 Ang^3
#
#
#
# Elastic Constant Matrix: (Units=GPa)
#
#
# Indices 1 2 3 4 5 6 
#
# 1 101.4430 70.1026 14.8152 0.0000 0.0000 0.0000
# 2 70.1026 140.2666 7.7047 0.0000 0.0000 0.0000
# 3 14.8152 7.7047 22.1053 0.0000 0.0000 0.0000
# 4 0.0000 0.0000 0.0000 33.4808 0.0000 0.0000
# 5 0.0000 0.0000 0.0000 0.0000 24.1343 0.0000
# 6 0.0000 0.0000 0.0000 0.0000 0.0000 43.9492
#
#
#
# Elastic Compliance Matrix: (Units=1/GPa)
#
#
# Indices 1 2 3 4 5 6 
#
# 1 0.016430 -0.007755 -0.008309 0.000000 0.000000 0.000000
# 2 -0.007755 0.010929 0.001388 0.000000 0.000000 0.000000
# 3 -0.008309 0.001388 0.050323 0.000000 0.000000 0.000000
# 4 0.000000 0.000000 0.000000 0.029868 0.000000 0.000000
# 5 0.000000 0.000000 0.000000 0.000000 0.041435 0.000000
# 6 0.000000 0.000000 0.000000 0.000000 0.000000 0.022754
#
#
# Mechanical properties :
#
#
# Convention : Reuss Voigt Hill
#
# Bulk Modulus (GPa) = 20.69074 49.89555 35.29315
# Shear Modulus (GPa) = 23.02027 31.72570 27.37299
#
# Velocity S-wave (km/s) = 3.20980 3.76815 3.50013
# Velocity P-wave (km/s) = 4.79556 6.42363 5.66835
#
# Compressibility (1/GPa) = 0.04833079
#
# Stress axis : x y z
#
# Youngs Moduli (GPa) = 60.86243 91.50016 19.87176
#
# Poissons Ratio (x) = 0.70961 0.16511
# Poissons Ratio (y) = 0.47200 -0.02759
# Poissons Ratio (z) = 0.50569 -0.12704
#
# Static dielectric constant tensor:
#      x y z
#    x 1.814720 0.000000 0.000000 
#    y 0.000000 1.899770 0.000000 
#    z 0.000000 0.000000 1.793740 
# 
# From -- ./inp_files/13507.got.cif
#   From: 2010.05.17/outbox.cif.g08.bks.cpg/sg40_7_cif.got.tgz:13507.got - 2010.06.03 18:35:42.
