data_PCOD9364920
_publ_section_title
;
Structure prediction by ZEFSAII (Michael W. Deem and Ramdas Pophale) SiO2 
 PCOD9364920
Probable space group: A M A 2
;
_chemical_formula_sum "Si O2"
_cell_formula_units_Z 36
_cell_length_a 15.268539
_cell_length_b 7.886279
_cell_length_c 14.767599
_cell_angle_alpha 90.000000
_cell_angle_beta 90.000000
_cell_angle_gamma 90.000000
_cell_volume 1778.195518
_symmetry_space_group_name_H-M "A M A 2"
_symmetry_group_IT_number 40
_symmetry_cell_setting 'orthorhombic'
loop_
_space_group_symop_operation_xyz
x,y,z
-x,-y,z
1/2-x,y,z
1/2+x,-y,z
x,1/2+y,1/2+z
-x,1/2-y,1/2+z
1/2-x,1/2+y,1/2+z
1/2+x,1/2-y,1/2+z
loop_
_atom_site_type_symbol
_atom_site_label
_atom_site_fract_x
_atom_site_fract_y
_atom_site_fract_z
Si Si1 0.568932 0.357568 0.777820
Si Si2 0.058560 0.836039 0.961600
Si Si3 0.750000 0.392433 0.847010
Si Si4 0.250000 0.838963 0.511104
Si Si5 0.057320 0.349419 0.100211
Si Si6 0.250000 0.934864 0.964032
O O1 0.500000 0.500000 0.800169
O O2 0.562990 0.216571 0.856591
O O3 0.665271 0.431157 0.789453
O O4 0.557081 0.292831 0.676935
O O5 0.155436 0.874630 0.001518
O O6 0.000000 0.000000 0.970389
O O7 0.004994 0.696066 0.015930
O O8 0.750000 0.190298 0.874250
O O9 0.750000 0.513880 0.934725
O O10 0.158600 0.866414 0.566894
O O11 0.250000 0.643058 0.469771
O O12 0.000000 0.500000 0.144147
#
# Coordination Sequence:
#
# PCOD9364920 Si02
#       6
#     8   8   4   4   8   4
#     4  11  24  42  64  97 136 177 225 282 338 408
#     4  11  21  41  67  95 132 177 225 281 341 404
#     4  10  23  45  66 101 132 179 232 289 333 412
#     4  12  23  43  74 101 131 185 225 289 347 410
#     4  12  25  43  67 101 138 179 228 283 342 413
#     4  10  22  38  70  96 133 174 229 274 342 406
#
# _framework density 20.245242999999999
#
# number of rings (size 3 to 8) (size 9 to 14) (size 15 to 20)
#    0.000    0.889    2.222    6.667    0.000    0.000 
#    0.000    1.111    0.000    0.000    0.000    0.000 
#    0.000    0.000    0.000    0.000    0.000    0.000 
#
# Total GULP energy -100238.231148 kJ/mol
# GULP energy per Si atom -5568.790619 kJ/mol
# Density = 2.019916 g / cm^3
# Si number density = 20.245243 Si / 1000 Ang^3
#
#
#
# Elastic Constant Matrix: (Units=GPa)
#
#
# Indices 1 2 3 4 5 6 
#
# 1 200.8556 43.7138 15.9236 0.0000 0.0000 0.0000
# 2 43.7138 78.4153 7.1826 0.0000 0.0000 0.0000
# 3 15.9236 7.1826 54.2104 0.0000 0.0000 0.0000
# 4 0.0000 0.0000 0.0000 31.2494 0.0000 0.0000
# 5 0.0000 0.0000 0.0000 0.0000 -205.0387 0.0000
# 6 0.0000 0.0000 0.0000 0.0000 0.0000 32.3490
#
#
#
# Elastic Compliance Matrix: (Units=1/GPa)
#
#
# Indices 1 2 3 4 5 6 
#
# 1 0.005753 -0.003090 -0.001280 0.000000 0.000000 0.000000
# 2 -0.003090 0.014569 -0.001023 0.000000 0.000000 0.000000
# 3 -0.001280 -0.001023 0.018958 0.000000 0.000000 0.000000
# 4 0.000000 0.000000 0.000000 0.032001 0.000000 0.000000
# 5 0.000000 0.000000 0.000000 0.000000 -0.004877 0.000000
# 6 0.000000 0.000000 0.000000 0.000000 0.000000 0.030913
#
#
# Mechanical properties :
#
#
# Convention : Reuss Voigt Hill
#
# Bulk Modulus (GPa) = 35.09506 51.90237 43.49871
# Shear Modulus (GPa) = 42.51724 -10.51064 16.00330
#
# Velocity S-wave (km/s) = 4.58767 -2.28099 2.81458
# Velocity P-wave (km/s) = 6.74054 4.33073 5.66525
#
# Compressibility (1/GPa) = 0.02849404
#
# Stress axis : x y z
#
# Youngs Moduli (GPa) = 173.83370 68.64061 52.74743
#
# Poissons Ratio (x) = 0.21207 0.06754
# Poissons Ratio (y) = 0.53708 0.05395
# Poissons Ratio (z) = 0.22258 0.07020
#
# Static dielectric constant tensor:
#      x y z
#    x 1.740330 0.000000 0.000000 
#    y 0.000000 1.920480 0.000000 
#    z 0.000000 0.000000 1.674770 
# 
# From -- ./inp_files/16789.got.cif
#   From: 2010.05.17/outbox.cif.g08.bks.cpg/sg40_9_cif.got.tgz:16789.got - 2010.06.03 18:35:42.
