data_PCOD9364279
_publ_section_title
;
Structure prediction by ZEFSAII (Michael W. Deem and Ramdas Pophale) SiO2 
 PCOD9364279
Probable space group: A M A 2
;
_chemical_formula_sum "Si O2"
_cell_formula_units_Z 48
_cell_length_a 14.226877
_cell_length_b 17.585799
_cell_length_c 9.609804
_cell_angle_alpha 90.000000
_cell_angle_beta 90.000000
_cell_angle_gamma 90.000000
_cell_volume 2404.286466
_symmetry_space_group_name_H-M "A M A 2"
_symmetry_group_IT_number 40
_symmetry_cell_setting 'orthorhombic'
loop_
_space_group_symop_operation_xyz
x,y,z
-x,-y,z
1/2-x,y,z
1/2+x,-y,z
x,1/2+y,1/2+z
-x,1/2-y,1/2+z
1/2-x,1/2+y,1/2+z
1/2+x,1/2-y,1/2+z
loop_
_atom_site_type_symbol
_atom_site_label
_atom_site_fract_x
_atom_site_fract_y
_atom_site_fract_z
Si Si1 0.450068 0.923831 0.013430
Si Si2 0.044231 0.425884 0.078477
Si Si3 0.750000 0.220709 0.752349
Si Si4 0.453385 0.296208 0.312163
Si Si5 0.960294 0.877753 0.289661
Si Si6 0.250000 0.617651 0.665218
Si Si7 0.250000 0.446014 0.124926
Si Si8 0.750000 0.513750 0.436813
O O1 0.474121 0.916128 0.174414
O O2 0.341801 0.937847 0.977182
O O3 0.500000 0.000000 0.962138
O O4 0.489234 0.848411 0.937586
O O5 0.042009 0.352213 0.178744
O O6 0.151556 0.450836 0.046323
O O7 0.000000 0.500000 0.150011
O O8 0.985368 0.408317 0.941133
O O9 0.656069 0.222665 0.841275
O O10 0.750000 0.290847 0.644546
O O11 0.750000 0.140786 0.677151
O O12 0.490047 0.211773 0.288066
O O13 0.850454 0.892800 0.246290
O O14 0.250000 0.563088 0.530251
O O15 0.250000 0.495156 0.268504
#
# Coordination Sequence:
#
# PCOD9364279 Si02
#       8
#     8   8   4   8   8   4   4   4
#     4  12  22  38  66  97 121 165 219 263 308 371
#     4  11  23  40  62  92 127 166 203 256 322 371
#     4   8  16  36  58  87 121 168 197 249 314 364
#     4  10  20  39  63  89 126 169 212 250 307 381
#     4  11  24  40  62  95 129 167 207 260 316 370
#     4  10  22  37  62  91 131 159 208 258 313 364
#     4  10  22  42  64  88 126 171 208 254 317 383
#     4  12  22  39  66  96 126 164 213 269 308 373
#
# _framework density 19.964345000000002
#
# number of rings (size 3 to 8) (size 9 to 14) (size 15 to 20)
#    0.000    1.333    5.000    2.000    0.000    1.333 
#    0.000    0.000    0.000    4.000    0.000    0.000 
#    0.000    0.000    0.000    0.000    0.000    0.000 
#
# Total GULP energy -133728.310606 kJ/mol
# GULP energy per Si atom -5572.012942 kJ/mol
# Density = 1.991890 g / cm^3
# Si number density = 19.964345 Si / 1000 Ang^3
#
#
#
# Elastic Constant Matrix: (Units=GPa)
#
#
# Indices 1 2 3 4 5 6 
#
# 1 68.3653 5.9829 2.0377 0.0000 0.0000 0.0000
# 2 5.9829 125.5808 30.5330 0.0000 0.0000 0.0000
# 3 2.0377 30.5330 93.0030 0.0000 0.0000 0.0000
# 4 0.0000 0.0000 0.0000 32.2723 0.0000 0.0000
# 5 0.0000 0.0000 0.0000 0.0000 30.7969 0.0000
# 6 0.0000 0.0000 0.0000 0.0000 0.0000 18.1637
#
#
#
# Elastic Compliance Matrix: (Units=1/GPa)
#
#
# Indices 1 2 3 4 5 6 
#
# 1 0.014689 -0.000675 -0.000100 0.000000 0.000000 0.000000
# 2 -0.000675 0.008685 -0.002836 0.000000 0.000000 0.000000
# 3 -0.000100 -0.002836 0.011686 0.000000 0.000000 0.000000
# 4 0.000000 0.000000 0.000000 0.030986 0.000000 0.000000
# 5 0.000000 0.000000 0.000000 0.000000 0.032471 0.000000
# 6 0.000000 0.000000 0.000000 0.000000 0.000000 0.055055
#
#
# Mechanical properties :
#
#
# Convention : Reuss Voigt Hill
#
# Bulk Modulus (GPa) = 35.92476 40.45068 38.18772
# Shear Modulus (GPa) = 29.39888 32.80628 31.10258
#
# Velocity S-wave (km/s) = 3.84157 4.05809 3.95131
# Velocity P-wave (km/s) = 6.14088 6.50099 6.32350
#
# Compressibility (1/GPa) = 0.02783596
#
# Stress axis : x y z
#
# Youngs Moduli (GPa) = 68.07627 115.14349 85.57433
#
# Poissons Ratio (x) = 0.07778 0.00856
# Poissons Ratio (y) = 0.04599 0.24273
# Poissons Ratio (z) = 0.00681 0.32660
#
# Static dielectric constant tensor:
#      x y z
#    x 1.759630 0.000000 0.000000 
#    y 0.000000 1.731740 0.000000 
#    z 0.000000 0.000000 1.692540 
# 
# From -- ./inp_files/6495.got.cif
#   From: 2010.05.17/outbox.cif.g08.bks.cpg/sg40_4_cif.got.tgz:6495.got - 2010.06.03 18:35:42.
