data_PCOD9364326
_publ_section_title
;
Structure prediction by ZEFSAII (Michael W. Deem and Ramdas Pophale) SiO2 
 PCOD9364326
Probable space group: A M A 2
;
_chemical_formula_sum "Si O2"
_cell_formula_units_Z 60
_cell_length_a 8.708972
_cell_length_b 26.819246
_cell_length_c 12.483548
_cell_angle_alpha 90.000000
_cell_angle_beta 90.000000
_cell_angle_gamma 90.000000
_cell_volume 2915.758119
_symmetry_space_group_name_H-M "A M A 2"
_symmetry_group_IT_number 40
_symmetry_cell_setting 'orthorhombic'
loop_
_space_group_symop_operation_xyz
x,y,z
-x,-y,z
1/2-x,y,z
1/2+x,-y,z
x,1/2+y,1/2+z
-x,1/2-y,1/2+z
1/2-x,1/2+y,1/2+z
1/2+x,1/2-y,1/2+z
loop_
_atom_site_type_symbol
_atom_site_label
_atom_site_fract_x
_atom_site_fract_y
_atom_site_fract_z
Si Si1 0.922547 0.183895 0.000000
Si Si2 0.500000 0.000000 0.128006
Si Si3 0.075669 0.580568 0.449361
Si Si4 0.066478 0.553607 0.204846
Si Si5 0.572256 0.925827 0.295750
Si Si6 0.566945 0.615213 0.013734
Si Si7 0.080753 0.185562 0.207755
Si Si8 0.572149 0.721025 0.912623
O O1 0.750000 0.193377 0.963685
O O2 0.969040 0.126902 0.978991
O O3 0.040331 0.223730 0.952787
O O4 0.944228 0.192900 0.125620
O O5 0.460854 0.958250 0.219243
O O6 0.575950 0.962520 0.040292
O O7 0.250000 0.599481 0.442559
O O8 0.030134 0.561619 0.330980
O O9 0.250000 0.553389 0.194494
O O10 0.000000 0.500000 0.172111
O O11 0.997716 0.595275 0.126054
O O12 0.750000 0.945777 0.296159
O O13 0.510737 0.915602 0.415432
O O14 0.582070 0.872147 0.240385
O O15 0.750000 0.607465 0.009956
O O16 0.538306 0.674338 0.992510
O O17 0.250000 0.198495 0.164581
O O18 0.042641 0.214529 0.314486
O O19 0.750000 0.714777 0.881431
#
# Coordination Sequence:
#
# PCOD9364326 Si02
#       8
#     8   4   8   8   8   8   8   8
#     4  12  25  40  64  96 129 170 215 263 319 388
#     4  12  22  40  66  96 128 170 214 262 322 388
#     4  11  25  45  66  94 130 172 217 269 324 381
#     4  11  24  43  67  93 129 172 215 266 318 377
#     4  10  22  39  63  93 127 166 208 260 320 377
#     4  10  23  43  67  96 128 166 215 265 318 381
#     4  10  20  40  64  90 126 164 207 264 322 381
#     4  10  22  42  66  93 127 166 211 269 327 384
#
# _framework density 20.577839999999998
#
# number of rings (size 3 to 8) (size 9 to 14) (size 15 to 20)
#    0.000    1.333    2.000    3.200    0.933    6.400 
#    0.000    2.667    0.000    0.000    0.000    0.000 
#    0.000    0.000    0.000    0.000    0.000    0.000 
#
# Total GULP energy -167151.430020 kJ/mol
# GULP energy per Si atom -5571.714334 kJ/mol
# Density = 2.053100 g / cm^3
# Si number density = 20.577840 Si / 1000 Ang^3
#
#
#
# Elastic Constant Matrix: (Units=GPa)
#
#
# Indices 1 2 3 4 5 6 
#
# 1 64.9376 31.6019 20.9709 0.0000 0.0000 0.0000
# 2 31.6019 67.0490 17.9418 0.0000 0.0000 0.0000
# 3 20.9709 17.9418 42.4968 0.0000 0.0000 0.0000
# 4 0.0000 0.0000 0.0000 16.9691 0.0000 0.0000
# 5 0.0000 0.0000 0.0000 0.0000 17.0331 0.0000
# 6 0.0000 0.0000 0.0000 0.0000 0.0000 16.6542
#
#
#
# Elastic Compliance Matrix: (Units=1/GPa)
#
#
# Indices 1 2 3 4 5 6 
#
# 1 0.021792 -0.008335 -0.007235 0.000000 0.000000 0.000000
# 2 -0.008335 0.020002 -0.004332 0.000000 0.000000 0.000000
# 3 -0.007235 -0.004332 0.028930 0.000000 0.000000 0.000000
# 4 0.000000 0.000000 0.000000 0.058931 0.000000 0.000000
# 5 0.000000 0.000000 0.000000 0.000000 0.058709 0.000000
# 6 0.000000 0.000000 0.000000 0.000000 0.000000 0.060045
#
#
# Mechanical properties :
#
#
# Convention : Reuss Voigt Hill
#
# Bulk Modulus (GPa) = 32.34012 35.05696 33.69854
# Shear Modulus (GPa) = 16.74934 17.06253 16.90593
#
# Velocity S-wave (km/s) = 2.85608 2.88266 2.86940
# Velocity P-wave (km/s) = 5.16007 5.30593 5.23351
#
# Compressibility (1/GPa) = 0.03092134
#
# Stress axis : x y z
#
# Youngs Moduli (GPa) = 45.88814 49.99458 34.56620
#
# Poissons Ratio (x) = 0.41672 0.25008
# Poissons Ratio (y) = 0.38249 0.14972
# Poissons Ratio (z) = 0.33199 0.21655
#
# Static dielectric constant tensor:
#      x y z
#    x 1.718220 0.000000 0.000000 
#    y 0.000000 1.749780 0.000000 
#    z 0.000000 0.000000 1.755050 
# 
# From -- ./inp_files/10399.got.cif
#   From: 2010.05.17/outbox.cif.g08.bks.cpg/sg40_6_cif.got.tgz:10399.got - 2010.06.03 18:35:42.
