data_PCOD9364369
_publ_section_title
;
Structure prediction by ZEFSAII (Michael W. Deem and Ramdas Pophale) SiO2 
 PCOD9364369
Probable space group: A M A 2
;
_chemical_formula_sum "Si O2"
_cell_formula_units_Z 64
_cell_length_a 18.021009
_cell_length_b 12.565519
_cell_length_c 15.115506
_cell_angle_alpha 90.000000
_cell_angle_beta 90.000000
_cell_angle_gamma 90.000000
_cell_volume 3422.805528
_symmetry_space_group_name_H-M "A M A 2"
_symmetry_group_IT_number 40
_symmetry_cell_setting 'orthorhombic'
loop_
_space_group_symop_operation_xyz
x,y,z
-x,-y,z
1/2-x,y,z
1/2+x,-y,z
x,1/2+y,1/2+z
-x,1/2-y,1/2+z
1/2-x,1/2+y,1/2+z
1/2+x,1/2-y,1/2+z
loop_
_atom_site_type_symbol
_atom_site_label
_atom_site_fract_x
_atom_site_fract_y
_atom_site_fract_z
Si Si1 0.836769 0.866596 0.689980
Si Si2 0.021020 0.876090 0.988298
Si Si3 0.838668 0.080917 0.384095
Si Si4 0.948819 0.764321 0.159136
Si Si5 0.416566 0.460312 0.069240
Si Si6 0.163739 0.858512 0.086566
Si Si7 0.662523 0.443750 0.715643
Si Si8 0.060344 0.223407 0.820858
O O1 0.750000 0.888542 0.702577
O O2 0.842969 0.750605 0.642653
O O3 0.882296 0.862241 0.780974
O O4 0.875996 0.951584 0.627789
O O5 0.108746 0.860344 0.003613
O O6 0.986438 0.823279 0.076137
O O7 0.000000 0.000000 0.984798
O O8 0.987160 0.818668 0.902959
O O9 0.750000 0.104514 0.382927
O O10 0.868558 0.055065 0.481039
O O11 0.887965 0.178791 0.349843
O O12 0.851405 0.985012 0.315031
O O13 0.923623 0.649332 0.123749
O O14 0.882776 0.839864 0.191141
O O15 0.005809 0.752094 0.240152
O O16 0.500000 0.500000 0.047672
O O17 0.250000 0.869274 0.061814
O O18 0.143296 0.957738 0.150269
O O19 0.750000 0.425052 0.705981
#
# Coordination Sequence:
#
# PCOD9364369 Si02
#       8
#     8   8   8   8   8   8   8   8
#     4  11  23  43  70  94 129 179 220 263 330 402
#     4  12  24  42  67 101 129 174 225 271 329 391
#     4  11  24  43  69 102 133 172 228 281 336 402
#     4  12  25  44  67  98 136 176 222 277 338 395
#     4  12  25  44  65  99 138 178 223 275 336 400
#     4  10  20  41  69  97 129 169 220 270 329 397
#     4  10  22  41  68 101 133 171 223 284 338 392
#     4  12  25  42  68  98 136 175 222 279 322 401
#
# _framework density 18.698111000000001
#
# number of rings (size 3 to 8) (size 9 to 14) (size 15 to 20)
#    0.000    0.750    6.250    0.750    3.500    1.000 
#    0.000    3.125    0.000    0.000    0.000    0.000 
#    0.000    0.000    0.000    0.000    0.000    0.000 
#
# Total GULP energy -178871.274886 kJ/mol
# GULP energy per Si atom -5589.727340 kJ/mol
# Density = 1.865555 g / cm^3
# Si number density = 18.698111 Si / 1000 Ang^3
#
#
#
# Elastic Constant Matrix: (Units=GPa)
#
#
# Indices 1 2 3 4 5 6 
#
# 1 110.4322 39.5500 58.4905 0.0000 0.0000 0.0000
# 2 39.5500 75.8699 22.8495 0.0000 0.0000 0.0000
# 3 58.4905 22.8495 109.2539 0.0000 0.0000 0.0000
# 4 0.0000 0.0000 0.0000 26.6175 0.0000 0.0000
# 5 0.0000 0.0000 0.0000 0.0000 28.0716 0.0000
# 6 0.0000 0.0000 0.0000 0.0000 0.0000 29.4823
#
#
#
# Elastic Compliance Matrix: (Units=1/GPa)
#
#
# Indices 1 2 3 4 5 6 
#
# 1 0.014573 -0.005600 -0.006631 0.000000 0.000000 0.000000
# 2 -0.005600 0.016218 -0.000394 0.000000 0.000000 0.000000
# 3 -0.006631 -0.000394 0.012785 0.000000 0.000000 0.000000
# 4 0.000000 0.000000 0.000000 0.037569 0.000000 0.000000
# 5 0.000000 0.000000 0.000000 0.000000 0.035623 0.000000
# 6 0.000000 0.000000 0.000000 0.000000 0.000000 0.033919
#
#
# Mechanical properties :
#
#
# Convention : Reuss Voigt Hill
#
# Bulk Modulus (GPa) = 54.56281 59.70399 57.13340
# Shear Modulus (GPa) = 27.46579 28.47868 27.97224
#
# Velocity S-wave (km/s) = 3.83679 3.90690 3.87200
# Velocity P-wave (km/s) = 6.99087 7.23544 7.11421
#
# Compressibility (1/GPa) = 0.01832750
#
# Stress axis : x y z
#
# Youngs Moduli (GPa) = 68.62172 61.65933 78.21572
#
# Poissons Ratio (x) = 0.34527 0.51861
# Poissons Ratio (y) = 0.38426 0.03082
# Poissons Ratio (z) = 0.45500 0.02430
#
# Static dielectric constant tensor:
#      x y z
#    x 1.651300 0.000000 0.000000 
#    y 0.000000 1.637840 0.000000 
#    z 0.000000 0.000000 1.639070 
# 
# From -- ./inp_files/17884.got.cif
#   From: 2010.05.17/outbox.cif.g08.bks.cpg/sg40_9_cif.got.tgz:17884.got - 2010.06.03 18:35:42.
