data_PCOD9364823
_publ_section_title
;
Structure prediction by ZEFSAII (Michael W. Deem and Ramdas Pophale) SiO2 
 PCOD9364823
Probable space group: A M A 2
;
_chemical_formula_sum "Si O2"
_cell_formula_units_Z 48
_cell_length_a 15.251154
_cell_length_b 8.439706
_cell_length_c 18.771735
_cell_angle_alpha 90.000000
_cell_angle_beta 90.000000
_cell_angle_gamma 90.000000
_cell_volume 2416.208675
_symmetry_space_group_name_H-M "A M A 2"
_symmetry_group_IT_number 40
_symmetry_cell_setting 'orthorhombic'
loop_
_space_group_symop_operation_xyz
x,y,z
-x,-y,z
1/2-x,y,z
1/2+x,-y,z
x,1/2+y,1/2+z
-x,1/2-y,1/2+z
1/2-x,1/2+y,1/2+z
1/2+x,1/2-y,1/2+z
loop_
_atom_site_type_symbol
_atom_site_label
_atom_site_fract_x
_atom_site_fract_y
_atom_site_fract_z
Si Si1 0.902787 0.921624 0.961880
Si Si2 0.605242 0.000155 0.808021
Si Si3 0.528149 0.333959 0.971084
Si Si4 0.145261 0.341352 0.738893
Si Si5 0.854190 0.849103 0.328695
Si Si6 0.851056 0.637987 0.577236
O O1 0.859209 0.978620 0.889074
O O2 0.933267 0.743234 0.954620
O O3 0.000000 0.000000 0.964886
O O4 0.855637 0.972295 0.033811
O O5 0.627386 0.838350 0.765826
O O6 0.500000 0.000000 0.811494
O O7 0.633571 0.179496 0.787322
O O8 0.500000 0.500000 0.000826
O O9 0.585298 0.338383 0.898952
O O10 0.587816 0.248320 0.029397
O O11 0.250000 0.356534 0.737362
O O12 0.116498 0.491689 0.786757
O O13 0.114798 0.366268 0.657640
O O14 0.750000 0.862572 0.345488
O O15 0.750000 0.691705 0.577402
#
# Coordination Sequence:
#
# PCOD9364823 Si02
#       6
#     8   8   8   8   8   8
#     4   9  18  37  58  85 115 152 196 243 295 356
#     4  11  20  38  64  92 121 159 204 254 303 355
#     4  11  21  38  62  90 123 152 201 255 300 360
#     4  10  24  41  59  91 127 159 205 255 302 363
#     4  11  22  39  66  93 121 163 204 249 307 362
#     4  10  21  42  62  82 122 166 198 246 307 358
#
# _framework density 19.865832999999999
#
# number of rings (size 3 to 8) (size 9 to 14) (size 15 to 20)
#    0.000    1.667    5.000    2.000    0.000    1.333 
#   12.000    1.667    0.000    0.000    0.000    0.000 
#    0.000    0.000    0.000    0.000    0.000    0.000 
#
# Total GULP energy -133615.159033 kJ/mol
# GULP energy per Si atom -5567.298293 kJ/mol
# Density = 1.982062 g / cm^3
# Si number density = 19.865833 Si / 1000 Ang^3
#
#
#
# Elastic Constant Matrix: (Units=GPa)
#
#
# Indices 1 2 3 4 5 6 
#
# 1 48.7340 27.3457 21.5662 0.0000 0.0000 0.0000
# 2 27.3457 102.3407 60.8535 0.0000 0.0000 0.0000
# 3 21.5662 60.8535 141.9082 0.0000 0.0000 0.0000
# 4 0.0000 0.0000 0.0000 20.2056 0.0000 0.0000
# 5 0.0000 0.0000 0.0000 0.0000 8.0454 0.0000
# 6 0.0000 0.0000 0.0000 0.0000 0.0000 27.7361
#
#
#
# Elastic Compliance Matrix: (Units=1/GPa)
#
#
# Indices 1 2 3 4 5 6 
#
# 1 0.024295 -0.005767 -0.001219 0.000000 0.000000 0.000000
# 2 -0.005767 0.014484 -0.005335 0.000000 0.000000 0.000000
# 3 -0.001219 -0.005335 0.009520 0.000000 0.000000 0.000000
# 4 0.000000 0.000000 0.000000 0.049491 0.000000 0.000000
# 5 0.000000 0.000000 0.000000 0.000000 0.124295 0.000000
# 6 0.000000 0.000000 0.000000 0.000000 0.000000 0.036054
#
#
# Mechanical properties :
#
#
# Convention : Reuss Voigt Hill
#
# Bulk Modulus (GPa) = 42.26991 56.94596 49.60793
# Shear Modulus (GPa) = 17.20185 23.41192 20.30689
#
# Velocity S-wave (km/s) = 2.94581 3.43666 3.20066
# Velocity P-wave (km/s) = 5.73536 6.66896 6.21970
#
# Compressibility (1/GPa) = 0.02365749
#
# Stress axis : x y z
#
# Youngs Moduli (GPa) = 41.16086 69.04009 105.04414
#
# Poissons Ratio (x) = 0.39813 0.12808
# Poissons Ratio (y) = 0.23736 0.56039
# Poissons Ratio (z) = 0.05019 0.36832
#
# Static dielectric constant tensor:
#      x y z
#    x 1.649730 0.000000 0.000000 
#    y 0.000000 2.086070 0.000000 
#    z 0.000000 0.000000 1.722030 
# 
# From -- ./inp_files/20558.got.cif
#   From: 2010.05.17/outbox.cif.g08.bks.cpg/sg40_11_cif.got.tgz:20558.got - 2010.06.03 18:35:42.
