data_PCOD9364363
_publ_section_title
;
Structure prediction by ZEFSAII (Michael W. Deem and Ramdas Pophale) SiO2 
 PCOD9364363
Probable space group: A M A 2
;
_chemical_formula_sum "Si O2"
_cell_formula_units_Z 40
_cell_length_a 19.530739
_cell_length_b 10.491428
_cell_length_c 8.873119
_cell_angle_alpha 90.000000
_cell_angle_beta 90.000000
_cell_angle_gamma 90.000000
_cell_volume 1818.149483
_symmetry_space_group_name_H-M "A M A 2"
_symmetry_group_IT_number 40
_symmetry_cell_setting 'orthorhombic'
loop_
_space_group_symop_operation_xyz
x,y,z
-x,-y,z
1/2-x,y,z
1/2+x,-y,z
x,1/2+y,1/2+z
-x,1/2-y,1/2+z
1/2-x,1/2+y,1/2+z
1/2+x,1/2-y,1/2+z
loop_
_atom_site_type_symbol
_atom_site_label
_atom_site_fract_x
_atom_site_fract_y
_atom_site_fract_z
Si Si1 0.250000 0.584022 0.522861
Si Si2 0.636656 0.250577 0.673295
Si Si3 0.115441 0.841274 0.348404
Si Si4 0.750000 0.246249 0.222149
Si Si5 0.500000 0.000000 0.427799
Si Si6 0.250000 0.801641 0.913796
Si Si7 0.009248 0.644755 0.224026
O O1 0.318984 0.630193 0.609398
O O2 0.250000 0.651799 0.357975
O O3 0.250000 0.436949 0.492482
O O4 0.636443 0.160743 0.524261
O O5 0.683678 0.206626 0.810091
O O6 0.557978 0.235152 0.726649
O O7 0.182390 0.835726 0.250406
O O8 0.071026 0.716391 0.304756
O O9 0.064255 0.958334 0.330399
O O10 0.750000 0.298135 0.052163
O O11 0.520402 0.887398 0.545918
O O12 0.000000 0.500000 0.287793
#
# Coordination Sequence:
#
# PCOD9364363 Si02
#       7
#     4   8   8   4   4   4   8
#     4   9  21  41  66  86 130 169 199 265 314 372
#     4   9  21  39  60  93 125 161 215 255 309 381
#     4  10  20  41  65  96 124 168 212 258 319 378
#     4  10  24  38  64  96 122 156 222 248 310 388
#     4   8  20  38  64  90 130 162 206 266 316 376
#     4  11  23  41  60  94 126 167 211 255 320 366
#     4   9  20  37  63  94 121 168 210 256 317 378
#
# _framework density 22.000392999999999
#
# number of rings (size 3 to 8) (size 9 to 14) (size 15 to 20)
#    0.600    2.000    0.000    0.600    5.600    4.800 
#    0.000   11.000   11.000    0.000    0.000    0.000 
#    0.000    0.000    0.000    0.000    0.000    0.000 
#
# Total GULP energy -111441.996788 kJ/mol
# GULP energy per Si atom -5572.099839 kJ/mol
# Density = 2.195032 g / cm^3
# Si number density = 22.000393 Si / 1000 Ang^3
#
#
#
# Elastic Constant Matrix: (Units=GPa)
#
#
# Indices 1 2 3 4 5 6 
#
# 1 141.6878 32.4292 70.6977 0.0000 0.0000 0.0000
# 2 32.4292 71.6786 38.4286 0.0000 0.0000 0.0000
# 3 70.6977 38.4286 112.1325 0.0000 0.0000 0.0000
# 4 0.0000 0.0000 0.0000 16.6725 0.0000 0.0000
# 5 0.0000 0.0000 0.0000 0.0000 -192.3815 0.0000
# 6 0.0000 0.0000 0.0000 0.0000 0.0000 6.7239
#
#
#
# Elastic Compliance Matrix: (Units=1/GPa)
#
#
# Indices 1 2 3 4 5 6 
#
# 1 0.010420 -0.001461 -0.006069 0.000000 0.000000 0.000000
# 2 -0.001461 0.017296 -0.005007 0.000000 0.000000 0.000000
# 3 -0.006069 -0.005007 0.014460 0.000000 0.000000 0.000000
# 4 0.000000 0.000000 0.000000 0.059979 0.000000 0.000000
# 5 0.000000 0.000000 0.000000 0.000000 -0.005198 0.000000
# 6 0.000000 0.000000 0.000000 0.000000 0.000000 0.148723
#
#
# Mechanical properties :
#
#
# Convention : Reuss Voigt Hill
#
# Bulk Modulus (GPa) = 58.46615 67.62332 63.04473
# Shear Modulus (GPa) = 18.08606 -21.53414 -1.72404
#
# Velocity S-wave (km/s) = 2.87030 -3.13198 -0.88620
# Velocity P-wave (km/s) = 6.13332 4.21010 5.26035
#
# Compressibility (1/GPa) = 0.01710391
#
# Stress axis : x y z
#
# Youngs Moduli (GPa) = 95.96474 57.81634 69.15398
#
# Poissons Ratio (x) = 0.08444 0.41972
# Poissons Ratio (y) = 0.14016 0.34623
# Poissons Ratio (z) = 0.58245 0.28947
#
# Static dielectric constant tensor:
#      x y z
#    x 2.040030 0.000000 0.000000 
#    y 0.000000 1.843190 0.000000 
#    z 0.000000 0.000000 1.810290 
# 
# From -- ./inp_files/8136.got.cif
#   From: 2010.05.17/outbox.cif.g08.bks.cpg/sg40_5_cif.got.tgz:8136.got - 2010.06.03 18:35:42.
