data_PCOD9364536
_publ_section_title
;
Structure prediction by ZEFSAII (Michael W. Deem and Ramdas Pophale) SiO2 
 PCOD9364536
Probable space group: A M A 2
;
_chemical_formula_sum "Si O2"
_cell_formula_units_Z 48
_cell_length_a 13.891155
_cell_length_b 14.842450
_cell_length_c 10.899831
_cell_angle_alpha 90.000000
_cell_angle_beta 90.000000
_cell_angle_gamma 90.000000
_cell_volume 2247.313787
_symmetry_space_group_name_H-M "A M A 2"
_symmetry_group_IT_number 40
_symmetry_cell_setting 'orthorhombic'
loop_
_space_group_symop_operation_xyz
x,y,z
-x,-y,z
1/2-x,y,z
1/2+x,-y,z
x,1/2+y,1/2+z
-x,1/2-y,1/2+z
1/2-x,1/2+y,1/2+z
1/2+x,1/2-y,1/2+z
loop_
_atom_site_type_symbol
_atom_site_label
_atom_site_fract_x
_atom_site_fract_y
_atom_site_fract_z
Si Si1 0.939366 0.187011 0.362090
Si Si2 0.136029 0.470227 0.301939
Si Si3 0.642114 0.170455 0.100986
Si Si4 0.859042 0.527262 0.018432
Si Si5 0.854847 0.329837 0.902424
Si Si6 0.517072 0.377698 0.435365
O O1 0.871615 0.186833 0.244436
O O2 0.921341 0.102390 0.450574
O O3 0.931746 0.281666 0.432376
O O4 0.051052 0.182755 0.321323
O O5 0.250000 0.458053 0.318197
O O6 0.116703 0.491715 0.159965
O O7 0.092887 0.547418 0.391257
O O8 0.070112 0.384700 0.335182
O O9 0.750000 0.132232 0.079592
O O10 0.637078 0.262295 0.019951
O O11 0.549542 0.113059 0.056131
O O12 0.750000 0.563537 0.017479
O O13 0.858061 0.432284 0.949443
O O14 0.750000 0.312526 0.845545
#
# Coordination Sequence:
#
# PCOD9364536 Si02
#       6
#     8   8   8   8   8   8
#     4  11  22  35  64  93 127 160 214 261 319 379
#     4  10  22  41  64  89 125 164 210 263 315 374
#     4  10  21  40  62  90 129 171 208 261 324 383
#     4  10  21  37  62  94 123 160 207 262 312 371
#     4   9  20  38  59  87 125 165 207 251 315 377
#     4  10  23  38  65  90 124 166 219 255 315 378
#
# _framework density 21.358834000000002
#
# number of rings (size 3 to 8) (size 9 to 14) (size 15 to 20)
#    0.000    2.000    0.000    2.500    9.333    3.333 
#    6.000    0.833    0.000    0.000    0.000    0.000 
#    0.000    0.000    0.000    0.000    0.000    0.000 
#
# Total GULP energy -133785.678859 kJ/mol
# GULP energy per Si atom -5574.403286 kJ/mol
# Density = 2.131022 g / cm^3
# Si number density = 21.358834 Si / 1000 Ang^3
#
#
#
# Elastic Constant Matrix: (Units=GPa)
#
#
# Indices 1 2 3 4 5 6 
#
# 1 112.0267 19.1612 23.4721 0.0000 0.0000 0.0000
# 2 19.1612 87.5225 7.4751 0.0000 0.0000 0.0000
# 3 23.4721 7.4751 42.2376 0.0000 0.0000 0.0000
# 4 0.0000 0.0000 0.0000 16.5531 0.0000 0.0000
# 5 0.0000 0.0000 0.0000 0.0000 33.7209 0.0000
# 6 0.0000 0.0000 0.0000 0.0000 0.0000 24.1369
#
#
#
# Elastic Compliance Matrix: (Units=1/GPa)
#
#
# Indices 1 2 3 4 5 6 
#
# 1 0.010377 -0.001807 -0.005447 0.000000 0.000000 0.000000
# 2 -0.001807 0.011916 -0.001105 0.000000 0.000000 0.000000
# 3 -0.005447 -0.001105 0.026898 0.000000 0.000000 0.000000
# 4 0.000000 0.000000 0.000000 0.060412 0.000000 0.000000
# 5 0.000000 0.000000 0.000000 0.000000 0.029655 0.000000
# 6 0.000000 0.000000 0.000000 0.000000 0.000000 0.041430
#
#
# Mechanical properties :
#
#
# Convention : Reuss Voigt Hill
#
# Bulk Modulus (GPa) = 30.79405 38.00043 34.39724
# Shear Modulus (GPa) = 24.01212 27.66074 25.83643
#
# Velocity S-wave (km/s) = 3.35658 3.60258 3.48176
# Velocity P-wave (km/s) = 5.42872 5.92747 5.68357
#
# Compressibility (1/GPa) = 0.03247381
#
# Stress axis : x y z
#
# Youngs Moduli (GPa) = 96.37015 83.92423 37.17749
#
# Poissons Ratio (x) = 0.15161 0.20250
# Poissons Ratio (y) = 0.17410 0.04108
# Poissons Ratio (z) = 0.52491 0.09272
#
# Static dielectric constant tensor:
#      x y z
#    x 1.822580 0.000000 0.000000 
#    y 0.000000 1.806570 0.000000 
#    z 0.000000 0.000000 1.765380 
# 
# From -- ./inp_files/12139.got.cif
#   From: 2010.05.17/outbox.cif.g08.bks.cpg/sg40_7_cif.got.tgz:12139.got - 2010.06.03 18:35:42.
