data_PCOD9364228
_publ_section_title
;
Structure prediction by ZEFSAII (Michael W. Deem and Ramdas Pophale) SiO2 
 PCOD9364228
Probable space group: A M A 2
;
_chemical_formula_sum "Si O2"
_cell_formula_units_Z 44
_cell_length_a 14.515763
_cell_length_b 17.704688
_cell_length_c 8.738354
_cell_angle_alpha 90.000000
_cell_angle_beta 90.000000
_cell_angle_gamma 90.000000
_cell_volume 2245.731244
_symmetry_space_group_name_H-M "A M A 2"
_symmetry_group_IT_number 40
_symmetry_cell_setting 'orthorhombic'
loop_
_space_group_symop_operation_xyz
x,y,z
-x,-y,z
1/2-x,y,z
1/2+x,-y,z
x,1/2+y,1/2+z
-x,1/2-y,1/2+z
1/2-x,1/2+y,1/2+z
1/2+x,1/2-y,1/2+z
loop_
_atom_site_type_symbol
_atom_site_label
_atom_site_fract_x
_atom_site_fract_y
_atom_site_fract_z
Si Si1 0.750000 0.334967 0.946750
Si Si2 0.404571 0.739092 0.152404
Si Si3 0.250000 0.354447 0.713373
Si Si4 0.583351 0.800009 0.985856
Si Si5 0.750000 0.494714 0.793432
Si Si6 0.750000 0.721687 0.155797
Si Si7 0.893833 0.975404 0.025998
Si Si8 0.250000 0.424835 0.371657
O O1 0.750000 0.423036 0.902280
O O2 0.750000 0.282396 0.796040
O O3 0.660163 0.311875 0.044808
O O4 0.340023 0.804446 0.219883
O O5 0.435622 0.697984 0.305085
O O6 0.488760 0.775845 0.064648
O O7 0.250000 0.418325 0.843729
O O8 0.250000 0.380957 0.534720
O O9 0.613667 0.885347 0.018934
O O10 0.661297 0.743612 0.052868
O O11 0.839378 0.493299 0.682822
O O12 0.750000 0.638560 0.237938
O O13 0.838817 0.019891 0.891100
O O14 0.000000 0.000000 0.029199
#
# Coordination Sequence:
#
# PCOD9364228 Si02
#       8
#     4   8   4   8   4   4   8   4
#     4  11  21  41  63  92 128 163 207 275 317 383
#     4  11  24  39  64  92 131 167 214 263 326 377
#     4   9  19  39  62  90 125 166 205 259 312 382
#     4  12  24  40  64  96 125 171 216 268 320 389
#     4  10  20  38  63  95 119 168 211 260 313 380
#     4  12  21  40  67  93 129 160 216 271 327 379
#     4  10  21  37  65  93 129 171 222 250 312 395
#     4  10  21  38  63  96 123 171 207 263 315 386
#
# _framework density 19.592727
#
# number of rings (size 3 to 8) (size 9 to 14) (size 15 to 20)
#    0.000    1.455    3.636    4.909    2.545    0.000 
#    0.000    3.636    0.000    0.000    0.000    0.000 
#    0.000    0.000    0.000    0.000    0.000    0.000 
#
# Total GULP energy -122664.313667 kJ/mol
# GULP energy per Si atom -5575.650621 kJ/mol
# Density = 1.954813 g / cm^3
# Si number density = 19.592727 Si / 1000 Ang^3
#
#
#
# Elastic Constant Matrix: (Units=GPa)
#
#
# Indices 1 2 3 4 5 6 
#
# 1 115.4708 43.9617 24.9117 0.0000 0.0000 0.0000
# 2 43.9617 115.2017 20.6781 0.0000 0.0000 0.0000
# 3 24.9117 20.6781 85.6166 0.0000 0.0000 0.0000
# 4 0.0000 0.0000 0.0000 18.9614 0.0000 0.0000
# 5 0.0000 0.0000 0.0000 0.0000 69.8756 0.0000
# 6 0.0000 0.0000 0.0000 0.0000 0.0000 72.0482
#
#
#
# Elastic Compliance Matrix: (Units=1/GPa)
#
#
# Indices 1 2 3 4 5 6 
#
# 1 0.010509 -0.003618 -0.002184 0.000000 0.000000 0.000000
# 2 -0.003618 0.010320 -0.001440 0.000000 0.000000 0.000000
# 3 -0.002184 -0.001440 0.012663 0.000000 0.000000 0.000000
# 4 0.000000 0.000000 0.000000 0.052739 0.000000 0.000000
# 5 0.000000 0.000000 0.000000 0.000000 0.014311 0.000000
# 6 0.000000 0.000000 0.000000 0.000000 0.000000 0.013880
#
#
# Mechanical properties :
#
#
# Convention : Reuss Voigt Hill
#
# Bulk Modulus (GPa) = 52.60907 55.04358 53.82633
# Shear Modulus (GPa) = 36.97121 47.29289 42.13205
#
# Velocity S-wave (km/s) = 4.34866 4.91837 4.64226
# Velocity P-wave (km/s) = 7.21970 7.77230 7.50109
#
# Compressibility (1/GPa) = 0.01900813
#
# Stress axis : x y z
#
# Youngs Moduli (GPa) = 95.15762 96.90321 78.96963
#
# Poissons Ratio (x) = 0.35062 0.17246
# Poissons Ratio (y) = 0.34431 0.11368
# Poissons Ratio (z) = 0.20781 0.13950
#
# Static dielectric constant tensor:
#      x y z
#    x 1.654200 0.000000 0.000000 
#    y 0.000000 1.779020 0.000000 
#    z 0.000000 0.000000 1.679870 
# 
# From -- ./inp_files/6411.got.cif
#   From: 2010.05.17/outbox.cif.g08.bks.cpg/sg40_4_cif.got.tgz:6411.got - 2010.06.03 18:35:42.
