data_PCOD9364210
_publ_section_title
;
Structure prediction by ZEFSAII (Michael W. Deem and Ramdas Pophale) SiO2 
 PCOD9364210
Probable space group: A M A 2
;
_chemical_formula_sum "Si O2"
_cell_formula_units_Z 64
_cell_length_a 14.926228
_cell_length_b 12.109125
_cell_length_c 15.899617
_cell_angle_alpha 90.000000
_cell_angle_beta 90.000000
_cell_angle_gamma 90.000000
_cell_volume 2873.753389
_symmetry_space_group_name_H-M "A M A 2"
_symmetry_group_IT_number 40
_symmetry_cell_setting 'orthorhombic'
loop_
_space_group_symop_operation_xyz
x,y,z
-x,-y,z
1/2-x,y,z
1/2+x,-y,z
x,1/2+y,1/2+z
-x,1/2-y,1/2+z
1/2-x,1/2+y,1/2+z
1/2+x,1/2-y,1/2+z
loop_
_atom_site_type_symbol
_atom_site_label
_atom_site_fract_x
_atom_site_fract_y
_atom_site_fract_z
Si Si1 0.140364 0.064322 0.506270
Si Si2 0.115649 0.406375 0.623063
Si Si3 0.148386 0.165727 0.858563
Si Si4 0.908979 0.353292 0.663249
Si Si5 0.641546 0.190624 0.512171
Si Si6 0.141073 0.719253 0.849625
Si Si7 0.650412 0.828747 0.677693
Si Si8 0.902945 0.556678 0.432945
O O1 0.250000 0.067219 0.506703
O O2 0.114430 0.131671 0.422645
O O3 0.108572 0.123414 0.592330
O O4 0.112088 0.936523 0.509215
O O5 0.141085 0.529535 0.650436
O O6 0.159769 0.301786 0.665710
O O7 0.129665 0.402649 0.523393
O O8 0.011614 0.383501 0.644057
O O9 0.250000 0.207385 0.843188
O O10 0.103198 0.155338 0.767305
O O11 0.153146 0.044746 0.897683
O O12 0.107244 0.245270 0.929068
O O13 0.883180 0.260579 0.594876
O O14 0.891989 0.315488 0.757829
O O15 0.750000 0.191181 0.508974
O O16 0.250000 0.726589 0.849159
O O17 0.101719 0.838506 0.873144
O O18 0.750000 0.881232 0.683773
O O19 0.000000 0.500000 0.443957
#
# Coordination Sequence:
#
# PCOD9364210 Si02
#       8
#     8   8   8   8   8   8   8   8
#     4   9  20  39  61  91 130 166 209 264 321 382
#     4  11  23  44  65  92 131 172 226 271 338 403
#     4  10  22  38  62  94 125 169 221 267 325 394
#     4  11  24  43  62  94 131 171 215 279 331 401
#     4  10  20  38  62  90 126 166 209 264 324 387
#     4  11  25  43  67  99 133 179 230 278 334 401
#     4  10  22  39  63  91 127 170 216 271 325 392
#     4  12  23  43  67  94 132 174 218 285 336 406
#
# _framework density 22.270526
#
# number of rings (size 3 to 8) (size 9 to 14) (size 15 to 20)
#    0.000    1.500    3.750    0.750    5.250    1.500 
#    0.000    0.625    0.000    0.000    0.000    0.000 
#    0.000    0.000    0.000    0.000    0.000    0.000 
#
# Total GULP energy -178810.099285 kJ/mol
# GULP energy per Si atom -5587.815603 kJ/mol
# Density = 2.221984 g / cm^3
# Si number density = 22.270526 Si / 1000 Ang^3
#
#
#
# Elastic Constant Matrix: (Units=GPa)
#
#
# Indices 1 2 3 4 5 6 
#
# 1 45.7483 4.8160 5.0140 0.0000 0.0000 0.0000
# 2 4.8160 130.8660 51.1537 0.0000 0.0000 0.0000
# 3 5.0140 51.1537 183.8913 0.0000 0.0000 0.0000
# 4 0.0000 0.0000 0.0000 42.4237 0.0000 0.0000
# 5 0.0000 0.0000 0.0000 0.0000 65.6631 0.0000
# 6 0.0000 0.0000 0.0000 0.0000 0.0000 40.0728
#
#
#
# Elastic Compliance Matrix: (Units=1/GPa)
#
#
# Indices 1 2 3 4 5 6 
#
# 1 0.021973 -0.000645 -0.000420 0.000000 0.000000 0.000000
# 2 -0.000645 0.008593 -0.002373 0.000000 0.000000 0.000000
# 3 -0.000420 -0.002373 0.006109 0.000000 0.000000 0.000000
# 4 0.000000 0.000000 0.000000 0.023572 0.000000 0.000000
# 5 0.000000 0.000000 0.000000 0.000000 0.015229 0.000000
# 6 0.000000 0.000000 0.000000 0.000000 0.000000 0.024955
#
#
# Mechanical properties :
#
#
# Convention : Reuss Voigt Hill
#
# Bulk Modulus (GPa) = 33.55631 53.60811 43.58221
# Shear Modulus (GPa) = 42.64840 49.60005 46.12423
#
# Velocity S-wave (km/s) = 4.38084 4.72440 4.55586
# Velocity P-wave (km/s) = 6.37881 7.34054 6.87651
#
# Compressibility (1/GPa) = 0.02980065
#
# Stress axis : x y z
#
# Youngs Moduli (GPa) = 45.51122 116.37985 163.68092
#
# Poissons Ratio (x) = 0.07501 0.06872
# Poissons Ratio (y) = 0.02933 0.38836
# Poissons Ratio (z) = 0.01911 0.27613
#
# Static dielectric constant tensor:
#      x y z
#    x 1.802020 0.000000 0.000000 
#    y 0.000000 1.778520 0.000000 
#    z 0.000000 0.000000 1.796940 
# 
# From -- ./inp_files/17849.got.cif
#   From: 2010.05.17/outbox.cif.g08.bks.cpg/sg40_9_cif.got.tgz:17849.got - 2010.06.03 18:35:42.
