data_PCOD9364382
_publ_section_title
;
Structure prediction by ZEFSAII (Michael W. Deem and Ramdas Pophale) SiO2 
 PCOD9364382
Probable space group: A M A 2
;
_chemical_formula_sum "Si O2"
_cell_formula_units_Z 36
_cell_length_a 18.968053
_cell_length_b 7.591205
_cell_length_c 9.604558
_cell_angle_alpha 90.000000
_cell_angle_beta 90.000000
_cell_angle_gamma 90.000000
_cell_volume 1382.963944
_symmetry_space_group_name_H-M "A M A 2"
_symmetry_group_IT_number 40
_symmetry_cell_setting 'orthorhombic'
loop_
_space_group_symop_operation_xyz
x,y,z
-x,-y,z
1/2-x,y,z
1/2+x,-y,z
x,1/2+y,1/2+z
-x,1/2-y,1/2+z
1/2-x,1/2+y,1/2+z
1/2+x,1/2-y,1/2+z
loop_
_atom_site_type_symbol
_atom_site_label
_atom_site_fract_x
_atom_site_fract_y
_atom_site_fract_z
Si Si1 0.867065 0.817566 0.506080
Si Si2 0.493252 0.213637 0.677953
Si Si3 0.250000 0.825454 0.175450
Si Si4 0.750000 0.336036 0.494961
Si Si5 0.750000 0.803564 0.296350
Si Si6 0.403359 0.278459 0.954281
O O1 0.936842 0.725213 0.560792
O O2 0.815915 0.795802 0.638589
O O3 0.822005 0.755472 0.374155
O O4 0.888736 0.015128 0.472023
O O5 0.565222 0.282108 0.605410
O O6 0.500000 0.000000 0.680784
O O7 0.459412 0.261132 0.827271
O O8 0.250000 0.977276 0.294122
O O9 0.250000 0.966857 0.049940
O O10 0.750000 0.230279 0.641076
O O11 0.673660 0.305694 0.428371
#
# Coordination Sequence:
#
# PCOD9364382 Si02
#       6
#     8   8   4   4   4   8
#     4  10  20  42  67  95 137 186 233 283 356 424
#     4  10  25  44  70 105 143 188 237 301 364 430
#     4   9  20  37  63 105 136 178 231 288 350 419
#     4  10  24  41  65 103 139 178 233 301 352 419
#     4   9  20  36  66 100 137 178 236 283 358 416
#     4  11  24  46  71 100 143 187 241 295 361 430
#
# _framework density 26.031046
#
# number of rings (size 3 to 8) (size 9 to 14) (size 15 to 20)
#    0.667    1.333    0.000    2.667    3.111    3.556 
#   12.000    0.000    0.000    0.000    0.000    0.000 
#    0.000    0.000    0.000    0.000    0.000    0.000 
#
# Total GULP energy -100302.821032 kJ/mol
# GULP energy per Si atom -5572.378946 kJ/mol
# Density = 2.597180 g / cm^3
# Si number density = 26.031046 Si / 1000 Ang^3
#
#
#
# Elastic Constant Matrix: (Units=GPa)
#
#
# Indices 1 2 3 4 5 6 
#
# 1 130.0880 -2.1526 78.2235 0.0000 0.0000 0.0000
# 2 -2.1526 61.3880 14.0832 0.0000 0.0000 0.0000
# 3 78.2235 14.0832 182.9800 0.0000 0.0000 0.0000
# 4 0.0000 0.0000 0.0000 22.8035 0.0000 0.0000
# 5 0.0000 0.0000 0.0000 0.0000 30.2442 0.0000
# 6 0.0000 0.0000 0.0000 0.0000 0.0000 7.9180
#
#
#
# Elastic Compliance Matrix: (Units=1/GPa)
#
#
# Indices 1 2 3 4 5 6 
#
# 1 0.010467 0.001419 -0.004584 0.000000 0.000000 0.000000
# 2 0.001419 0.016775 -0.001898 0.000000 0.000000 0.000000
# 3 -0.004584 -0.001898 0.007571 0.000000 0.000000 0.000000
# 4 0.000000 0.000000 0.000000 0.043853 0.000000 0.000000
# 5 0.000000 0.000000 0.000000 0.000000 0.033064 0.000000
# 6 0.000000 0.000000 0.000000 0.000000 0.000000 0.126294
#
#
# Mechanical properties :
#
#
# Convention : Reuss Voigt Hill
#
# Bulk Modulus (GPa) = 40.50712 61.64046 51.07379
# Shear Modulus (GPa) = 19.50244 31.14660 25.32452
#
# Velocity S-wave (km/s) = 2.74012 3.46282 3.12245
# Velocity P-wave (km/s) = 5.06022 6.30232 5.71511
#
# Compressibility (1/GPa) = 0.02468702
#
# Stress axis : x y z
#
# Youngs Moduli (GPa) = 95.53992 59.61295 132.08900
#
# Poissons Ratio (x) = -0.08457 0.60546
# Poissons Ratio (y) = -0.13553 0.25064
# Poissons Ratio (z) = 0.43793 0.11312
#
# Static dielectric constant tensor:
#      x y z
#    x 2.078060 0.000000 0.000000 
#    y 0.000000 2.044440 0.000000 
#    z 0.000000 0.000000 2.202750 
# 
# From -- ./inp_files/7998.got.cif
#   From: 2010.05.17/outbox.cif.g08.bks.cpg/sg40_4_cif.got.tgz:7998.got - 2010.06.03 18:35:42.
