data_PCOD9364801
_publ_section_title
;
Structure prediction by ZEFSAII (Michael W. Deem and Ramdas Pophale) SiO2 
 PCOD9364801
Probable space group: A M A 2
;
_chemical_formula_sum "Si O2"
_cell_formula_units_Z 64
_cell_length_a 18.188414
_cell_length_b 11.939431
_cell_length_c 15.001989
_cell_angle_alpha 90.000000
_cell_angle_beta 90.000000
_cell_angle_gamma 90.000000
_cell_volume 3257.821639
_symmetry_space_group_name_H-M "A M A 2"
_symmetry_group_IT_number 40
_symmetry_cell_setting 'orthorhombic'
loop_
_space_group_symop_operation_xyz
x,y,z
-x,-y,z
1/2-x,y,z
1/2+x,-y,z
x,1/2+y,1/2+z
-x,1/2-y,1/2+z
1/2-x,1/2+y,1/2+z
1/2+x,1/2-y,1/2+z
loop_
_atom_site_type_symbol
_atom_site_label
_atom_site_fract_x
_atom_site_fract_y
_atom_site_fract_z
Si Si1 0.079455 0.950887 0.234890
Si Si2 0.077820 0.529934 0.174949
Si Si3 0.597169 0.181969 0.563559
Si Si4 0.437521 0.765575 0.084218
Si Si5 0.838970 0.195037 0.916676
Si Si6 0.162445 0.290764 0.873803
Si Si7 0.662229 0.316470 0.730540
Si Si8 0.663035 0.962559 0.843881
O O1 0.069314 0.875489 0.145943
O O2 0.116701 0.872760 0.309908
O O3 0.130335 0.059100 0.220605
O O4 0.000000 0.000000 0.261949
O O5 0.081976 0.445915 0.092046
O O6 0.077605 0.658021 0.146239
O O7 0.142920 0.507442 0.242976
O O8 0.000000 0.500000 0.220992
O O9 0.519905 0.245488 0.547784
O O10 0.647494 0.183321 0.476968
O O11 0.632307 0.241909 0.649451
O O12 0.379950 0.762948 0.003925
O O13 0.750000 0.200166 0.926025
O O14 0.858686 0.263068 0.826628
O O15 0.863031 0.065619 0.903531
O O16 0.250000 0.298505 0.853659
O O17 0.135758 0.162501 0.861163
O O18 0.750000 0.318626 0.726906
O O19 0.750000 0.958293 0.855689
#
# Coordination Sequence:
#
# PCOD9364801 Si02
#       8
#     8   8   8   8   8   8   8   8
#     4  12  26  44  69  97 137 181 218 270 332 404
#     4  10  22  41  66  92 123 164 214 268 325 384
#     4  11  24  42  69  98 131 173 222 278 333 398
#     4  11  25  43  65  99 132 173 223 271 337 396
#     4  10  24  42  67  98 132 175 225 279 334 395
#     4  11  26  44  67  99 134 178 224 272 335 396
#     4  11  24  44  67  96 133 175 222 275 335 399
#     4  10  21  41  66  93 123 165 218 270 323 381
#
# _framework density 19.645029000000001
#
# number of rings (size 3 to 8) (size 9 to 14) (size 15 to 20)
#    0.000    1.250    3.750    0.750    5.250    3.500 
#    0.000    0.000    0.000    0.000    0.000    0.000 
#    0.000    0.000    0.000    0.000    0.000    0.000 
#
# Total GULP energy -178718.232450 kJ/mol
# GULP energy per Si atom -5584.944764 kJ/mol
# Density = 1.960032 g / cm^3
# Si number density = 19.645029 Si / 1000 Ang^3
#
#
#
# Elastic Constant Matrix: (Units=GPa)
#
#
# Indices 1 2 3 4 5 6 
#
# 1 39.1432 24.1974 18.8447 0.0000 0.0000 0.0000
# 2 24.1974 100.9853 5.7103 0.0000 0.0000 0.0000
# 3 18.8447 5.7103 53.1846 0.0000 0.0000 0.0000
# 4 0.0000 0.0000 0.0000 15.0465 0.0000 0.0000
# 5 0.0000 0.0000 0.0000 0.0000 96.5145 0.0000
# 6 0.0000 0.0000 0.0000 0.0000 0.0000 30.9561
#
#
#
# Elastic Compliance Matrix: (Units=1/GPa)
#
#
# Indices 1 2 3 4 5 6 
#
# 1 0.036275 -0.008014 -0.011993 0.000000 0.000000 0.000000
# 2 -0.008014 0.011733 0.001580 0.000000 0.000000 0.000000
# 3 -0.011993 0.001580 0.022882 0.000000 0.000000 0.000000
# 4 0.000000 0.000000 0.000000 0.066461 0.000000 0.000000
# 5 0.000000 0.000000 0.000000 0.000000 0.010361 0.000000
# 6 0.000000 0.000000 0.000000 0.000000 0.000000 0.032304
#
#
# Mechanical properties :
#
#
# Convention : Reuss Voigt Hill
#
# Bulk Modulus (GPa) = 29.38003 32.31311 30.84657
# Shear Modulus (GPa) = 21.90918 38.14080 30.02499
#
# Velocity S-wave (km/s) = 3.34316 4.41102 3.91369
# Velocity P-wave (km/s) = 5.46720 6.51360 6.01321
#
# Compressibility (1/GPa) = 0.03403672
#
# Stress axis : x y z
#
# Youngs Moduli (GPa) = 27.56740 85.22752 43.70216
#
# Poissons Ratio (x) = 0.68299 0.52411
# Poissons Ratio (y) = 0.22092 -0.06904
# Poissons Ratio (z) = 0.33061 -0.13463
#
# Static dielectric constant tensor:
#      x y z
#    x 1.679730 0.000000 0.000000 
#    y 0.000000 1.682770 0.000000 
#    z 0.000000 0.000000 1.649120 
# 
# From -- ./inp_files/17822.got.cif
#   From: 2010.05.17/outbox.cif.g08.bks.cpg/sg40_9_cif.got.tgz:17822.got - 2010.06.03 18:35:42.
