data_PCOD9364996
_publ_section_title
;
Structure prediction by ZEFSAII (Michael W. Deem and Ramdas Pophale) SiO2 
 PCOD9364996
Probable space group: A M A 2
;
_chemical_formula_sum "Si O2"
_cell_formula_units_Z 52
_cell_length_a 12.428084
_cell_length_b 24.753461
_cell_length_c 8.616504
_cell_angle_alpha 90.000000
_cell_angle_beta 90.000000
_cell_angle_gamma 90.000000
_cell_volume 2650.764855
_symmetry_space_group_name_H-M "A M A 2"
_symmetry_group_IT_number 40
_symmetry_cell_setting 'orthorhombic'
loop_
_space_group_symop_operation_xyz
x,y,z
-x,-y,z
1/2-x,y,z
1/2+x,-y,z
x,1/2+y,1/2+z
-x,1/2-y,1/2+z
1/2-x,1/2+y,1/2+z
1/2+x,1/2-y,1/2+z
loop_
_atom_site_type_symbol
_atom_site_label
_atom_site_fract_x
_atom_site_fract_y
_atom_site_fract_z
Si Si1 0.524928 0.562564 0.996490
Si Si2 0.750000 0.143430 0.848273
Si Si3 0.129582 0.185313 0.016390
Si Si4 0.750000 0.124924 0.484799
Si Si5 0.250000 0.295139 0.682839
Si Si6 0.985220 0.625916 0.297449
Si Si7 0.632725 0.857398 0.362401
Si Si8 0.456756 0.727995 0.103104
O O1 0.500000 0.500000 0.977924
O O2 0.645627 0.586042 0.982789
O O3 0.454770 0.596418 0.875903
O O4 0.487777 0.582294 0.167463
O O5 0.750000 0.154993 0.656856
O O6 0.633592 0.114954 0.863912
O O7 0.750000 0.182233 0.001790
O O8 0.250000 0.199452 0.961701
O O9 0.136711 0.166350 0.192450
O O10 0.078241 0.136048 0.920742
O O11 0.044317 0.233824 0.023670
O O12 0.750000 0.163425 0.330930
O O13 0.362031 0.261591 0.686858
O O14 0.983627 0.684894 0.213151
O O15 0.750000 0.878436 0.408399
O O16 0.600881 0.808843 0.475551
#
# Coordination Sequence:
#
# PCOD9364996 Si02
#       8
#     8   4   8   4   4   8   8   8
#     4  10  23  44  70  89 116 161 212 273 325 373
#     4  10  22  42  62  82 130 164 204 268 304 366
#     4  11  23  36  58  90 131 167 203 251 313 378
#     4  10  24  44  67  99 123 166 219 258 320 382
#     4  12  22  40  67  91 135 172 213 250 318 382
#     4  10  23  40  59  90 124 161 215 257 316 377
#     4  10  22  41  61  88 127 160 210 261 312 374
#     4  11  22  37  57  93 128 176 207 247 307 378
#
# _framework density 19.616979000000001
#
# number of rings (size 3 to 8) (size 9 to 14) (size 15 to 20)
#    0.000    1.538    2.308    1.846    3.231    3.077 
#    1.385    0.769    0.000    0.000    0.000    0.000 
#    0.000    0.000    0.000    0.000    0.000    0.000 
#
# Total GULP energy -144979.564506 kJ/mol
# GULP energy per Si atom -5576.137096 kJ/mol
# Density = 1.957233 g / cm^3
# Si number density = 19.616979 Si / 1000 Ang^3
#
#
#
# Elastic Constant Matrix: (Units=GPa)
#
#
# Indices 1 2 3 4 5 6 
#
# 1 123.6363 24.9293 28.1678 0.0000 0.0000 0.0000
# 2 24.9293 79.2896 35.3404 0.0000 0.0000 0.0000
# 3 28.1678 35.3404 78.7721 0.0000 0.0000 0.0000
# 4 0.0000 0.0000 0.0000 9.8918 0.0000 0.0000
# 5 0.0000 0.0000 0.0000 0.0000 25.5226 0.0000
# 6 0.0000 0.0000 0.0000 0.0000 0.0000 17.4509
#
#
#
# Elastic Compliance Matrix: (Units=1/GPa)
#
#
# Indices 1 2 3 4 5 6 
#
# 1 0.008994 -0.001743 -0.002434 0.000000 0.000000 0.000000
# 2 -0.001743 0.016102 -0.006601 0.000000 0.000000 0.000000
# 3 -0.002434 -0.006601 0.016527 0.000000 0.000000 0.000000
# 4 0.000000 0.000000 0.000000 0.101094 0.000000 0.000000
# 5 0.000000 0.000000 0.000000 0.000000 0.039181 0.000000
# 6 0.000000 0.000000 0.000000 0.000000 0.000000 0.057304
#
#
# Mechanical properties :
#
#
# Convention : Reuss Voigt Hill
#
# Bulk Modulus (GPa) = 49.83293 50.95256 50.39274
# Shear Modulus (GPa) = 18.69536 23.45711 21.07623
#
# Velocity S-wave (km/s) = 3.09045 3.46172 3.28134
# Velocity P-wave (km/s) = 6.18002 6.48137 6.33248
#
# Compressibility (1/GPa) = 0.02006705
#
# Stress axis : x y z
#
# Youngs Moduli (GPa) = 111.18202 62.10398 60.50813
#
# Poissons Ratio (x) = 0.10824 0.14730
# Poissons Ratio (y) = 0.19378 0.39940
# Poissons Ratio (z) = 0.27065 0.40994
#
# Static dielectric constant tensor:
#      x y z
#    x 1.783860 0.000000 0.000000 
#    y 0.000000 1.661280 0.000000 
#    z 0.000000 0.000000 1.751270 
# 
# From -- ./inp_files/5569.got.cif
#   From: 2010.05.17/outbox.cif.g08.bks.cpg/sg40_3_cif.got.tgz:5569.got - 2010.06.03 18:35:42.
