data_PCOD9364570
_publ_section_title
;
Structure prediction by ZEFSAII (Michael W. Deem and Ramdas Pophale) SiO2 
 PCOD9364570
Probable space group: A M A 2
;
_chemical_formula_sum "Si O2"
_cell_formula_units_Z 28
_cell_length_a 13.909770
_cell_length_b 11.328880
_cell_length_c 9.048882
_cell_angle_alpha 90.000000
_cell_angle_beta 90.000000
_cell_angle_gamma 90.000000
_cell_volume 1425.941965
_symmetry_space_group_name_H-M "A M A 2"
_symmetry_group_IT_number 40
_symmetry_cell_setting 'orthorhombic'
loop_
_space_group_symop_operation_xyz
x,y,z
-x,-y,z
1/2-x,y,z
1/2+x,-y,z
x,1/2+y,1/2+z
-x,1/2-y,1/2+z
1/2-x,1/2+y,1/2+z
1/2+x,1/2-y,1/2+z
loop_
_atom_site_type_symbol
_atom_site_label
_atom_site_fract_x
_atom_site_fract_y
_atom_site_fract_z
Si Si1 0.361621 0.451703 0.824750
Si Si2 0.471048 0.663934 0.669088
Si Si3 0.137165 0.911489 0.664466
Si Si4 0.500000 0.500000 0.398183
O O1 0.250000 0.428864 0.794092
O O2 0.398300 0.569715 0.743892
O O3 0.430839 0.349189 0.762545
O O4 0.374196 0.464563 0.000524
O O5 0.423330 0.790646 0.667111
O O6 0.493551 0.612312 0.506726
O O7 0.250000 0.889349 0.688858
O O8 0.091809 0.991522 0.791940
#
# Coordination Sequence:
#
# PCOD9364570 Si02
#       4
#     8   8   8   4
#     4   9  19  36  57  81 111 147 184 224 271 324
#     4  10  21  38  59  80 112 147 182 227 271 324
#     4  11  22  37  58  82 111 146 183 225 275 326
#     4  10  22  36  56  86 112 140 184 230 270 322
#
# _framework density 19.636143000000001
#
# number of rings (size 3 to 8) (size 9 to 14) (size 15 to 20)
#    0.000    2.286    0.000    4.286    0.000    5.714 
#    0.000    1.429    0.000    5.143    0.000    0.000 
#    0.000    0.000    0.000    0.000    0.000    0.000 
#
# Total GULP energy -78195.681694 kJ/mol
# GULP energy per Si atom -5585.405835 kJ/mol
# Density = 1.959145 g / cm^3
# Si number density = 19.636143 Si / 1000 Ang^3
#
#
#
# Elastic Constant Matrix: (Units=GPa)
#
#
# Indices 1 2 3 4 5 6 
#
# 1 138.5969 2.4451 61.2393 0.0000 0.0000 0.0000
# 2 2.4451 13.4890 6.9413 0.0000 0.0000 0.0000
# 3 61.2393 6.9413 125.8364 0.0000 0.0000 0.0000
# 4 0.0000 0.0000 0.0000 18.1710 0.0000 0.0000
# 5 0.0000 0.0000 0.0000 0.0000 28.7675 0.0000
# 6 0.0000 0.0000 0.0000 0.0000 0.0000 22.4858
#
#
#
# Elastic Compliance Matrix: (Units=1/GPa)
#
#
# Indices 1 2 3 4 5 6 
#
# 1 0.009197 0.000655 -0.004512 0.000000 0.000000 0.000000
# 2 0.000655 0.076347 -0.004530 0.000000 0.000000 0.000000
# 3 -0.004512 -0.004530 0.010393 0.000000 0.000000 0.000000
# 4 0.000000 0.000000 0.000000 0.055033 0.000000 0.000000
# 5 0.000000 0.000000 0.000000 0.000000 0.034761 0.000000
# 6 0.000000 0.000000 0.000000 0.000000 0.000000 0.044473
#
#
# Mechanical properties :
#
#
# Convention : Reuss Voigt Hill
#
# Bulk Modulus (GPa) = 12.63236 46.57488 29.60362
# Shear Modulus (GPa) = 18.29054 27.70462 22.99758
#
# Velocity S-wave (km/s) = 3.05532 3.76027 3.42597
# Velocity P-wave (km/s) = 4.34670 6.52865 5.54604
#
# Compressibility (1/GPa) = 0.07916177
#
# Stress axis : x y z
#
# Youngs Moduli (GPa) = 108.72785 13.09815 96.22297
#
# Poissons Ratio (x) = -0.00858 0.43416
# Poissons Ratio (y) = -0.07118 0.43589
# Poissons Ratio (z) = 0.49058 0.05933
#
# Static dielectric constant tensor:
#      x y z
#    x 1.675120 0.000000 0.000000 
#    y 0.000000 1.680200 0.000000 
#    z 0.000000 0.000000 1.693440 
# 
# From -- ./inp_files/5814.got.cif
#   From: 2010.05.17/outbox.cif.g08.bks.cpg/sg40_3_cif.got.tgz:5814.got - 2010.06.03 18:35:42.
