data_PCOD9364897
_publ_section_title
;
Structure prediction by ZEFSAII (Michael W. Deem and Ramdas Pophale) SiO2 
 PCOD9364897
Probable space group: A M A 2
;
_chemical_formula_sum "Si O2"
_cell_formula_units_Z 64
_cell_length_a 8.971755
_cell_length_b 24.758306
_cell_length_c 14.192755
_cell_angle_alpha 90.000000
_cell_angle_beta 90.000000
_cell_angle_gamma 90.000000
_cell_volume 3152.572171
_symmetry_space_group_name_H-M "A M A 2"
_symmetry_group_IT_number 40
_symmetry_cell_setting 'orthorhombic'
loop_
_space_group_symop_operation_xyz
x,y,z
-x,-y,z
1/2-x,y,z
1/2+x,-y,z
x,1/2+y,1/2+z
-x,1/2-y,1/2+z
1/2-x,1/2+y,1/2+z
1/2+x,1/2-y,1/2+z
loop_
_atom_site_type_symbol
_atom_site_label
_atom_site_fract_x
_atom_site_fract_y
_atom_site_fract_z
Si Si1 0.070432 0.055820 0.301440
Si Si2 0.427954 0.055352 0.868843
Si Si3 0.421287 0.723747 0.967716
Si Si4 0.919573 0.271634 0.197538
Si Si5 0.926027 0.837341 0.191734
Si Si6 0.427911 0.665551 0.467453
Si Si7 0.927877 0.610036 0.975025
Si Si8 0.929664 0.890786 0.678400
O O1 0.250000 0.052578 0.301808
O O2 0.021227 0.107595 0.239838
O O3 0.007445 0.068510 0.405077
O O4 0.000000 0.000000 0.266698
O O5 0.250000 0.052260 0.880924
O O6 0.479084 0.109629 0.921444
O O7 0.458812 0.065425 0.758334
O O8 0.500000 0.000000 0.902151
O O9 0.250000 0.716744 0.937255
O O10 0.491419 0.779958 0.933694
O O11 0.515926 0.670234 0.946804
O O12 0.420593 0.727845 0.082561
O O13 0.750000 0.266842 0.230192
O O14 0.973999 0.331876 0.220221
O O15 0.006143 0.218602 0.228697
O O16 0.750000 0.834635 0.206764
O O17 0.952393 0.839358 0.079688
O O18 0.250000 0.671329 0.451035
O O19 0.750000 0.606535 0.969271
O O20 0.985034 0.600557 0.081300
O O21 0.750000 0.887967 0.660813
#
# Coordination Sequence:
#
# PCOD9364897 Si02
#       8
#     8   8   8   8   8   8   8   8
#     4  11  24  41  57  78 108 145 189 235 277 325
#     4  10  22  38  56  79 111 148 189 232 273 321
#     4   9  17  32  55  85 116 145 178 222 273 329
#     4   8  15  29  52  80 110 141 176 217 269 327
#     4   9  19  35  56  81 112 144 176 220 273 323
#     4   9  18  35  57  84 115 147 183 226 273 324
#     4  11  22  37  59  85 111 144 181 225 278 332
#     4   9  19  37  57  80 112 148 182 225 275 325
#
# _framework density 20.300882000000001
#
# number of rings (size 3 to 8) (size 9 to 14) (size 15 to 20)
#    0.000    2.500    0.000    2.625    0.000    7.000 
#    0.000    2.500    0.000    0.000    0.000    0.000 
#    0.000    0.000    0.000    0.000    0.000    0.000 
#
# Total GULP energy -178723.119691 kJ/mol
# GULP energy per Si atom -5585.097490 kJ/mol
# Density = 2.025468 g / cm^3
# Si number density = 20.300882 Si / 1000 Ang^3
#
#
#
# Elastic Constant Matrix: (Units=GPa)
#
#
# Indices 1 2 3 4 5 6 
#
# 1 49.5650 23.9869 16.7727 0.0000 0.0000 0.0000
# 2 23.9869 98.6672 16.5166 0.0000 0.0000 0.0000
# 3 16.7727 16.5166 32.8519 0.0000 0.0000 0.0000
# 4 0.0000 0.0000 0.0000 27.8070 0.0000 0.0000
# 5 0.0000 0.0000 0.0000 0.0000 8.3876 0.0000
# 6 0.0000 0.0000 0.0000 0.0000 0.0000 34.2987
#
#
#
# Elastic Compliance Matrix: (Units=1/GPa)
#
#
# Indices 1 2 3 4 5 6 
#
# 1 0.026093 -0.004491 -0.011064 0.000000 0.000000 0.000000
# 2 -0.004491 0.011840 -0.003659 0.000000 0.000000 0.000000
# 3 -0.011064 -0.003659 0.037928 0.000000 0.000000 0.000000
# 4 0.000000 0.000000 0.000000 0.035962 0.000000 0.000000
# 5 0.000000 0.000000 0.000000 0.000000 0.119224 0.000000
# 6 0.000000 0.000000 0.000000 0.000000 0.000000 0.029156
#
#
# Mechanical properties :
#
#
# Convention : Reuss Voigt Hill
#
# Bulk Modulus (GPa) = 26.71544 32.84851 29.78197
# Shear Modulus (GPa) = 16.07153 22.35252 19.21203
#
# Velocity S-wave (km/s) = 2.81671 3.32182 3.07964
# Velocity P-wave (km/s) = 4.87512 5.56135 5.22950
#
# Compressibility (1/GPa) = 0.03743154
#
# Stress axis : x y z
#
# Youngs Moduli (GPa) = 38.32429 84.46267 26.36570
#
# Poissons Ratio (x) = 0.37936 0.29171
# Poissons Ratio (y) = 0.17213 0.09648
# Poissons Ratio (z) = 0.42401 0.30908
#
# Static dielectric constant tensor:
#      x y z
#    x 1.684800 0.000000 0.000000 
#    y 0.000000 1.713060 0.000000 
#    z 0.000000 0.000000 1.764100 
# 
# From -- ./inp_files/15634.got.cif
#   From: 2010.05.17/outbox.cif.g08.bks.cpg/sg40_8_cif.got.tgz:15634.got - 2010.06.03 18:35:42.
