data_PCOD9364566
_publ_section_title
;
Structure prediction by ZEFSAII (Michael W. Deem and Ramdas Pophale) SiO2 
 PCOD9364566
Probable space group: A M A 2
;
_chemical_formula_sum "Si O2"
_cell_formula_units_Z 48
_cell_length_a 8.714296
_cell_length_b 9.648138
_cell_length_c 31.746172
_cell_angle_alpha 90.000000
_cell_angle_beta 90.000000
_cell_angle_gamma 90.000000
_cell_volume 2669.114344
_symmetry_space_group_name_H-M "A M A 2"
_symmetry_group_IT_number 40
_symmetry_cell_setting 'orthorhombic'
loop_
_space_group_symop_operation_xyz
x,y,z
-x,-y,z
1/2-x,y,z
1/2+x,-y,z
x,1/2+y,1/2+z
-x,1/2-y,1/2+z
1/2-x,1/2+y,1/2+z
1/2+x,1/2-y,1/2+z
loop_
_atom_site_type_symbol
_atom_site_label
_atom_site_fract_x
_atom_site_fract_y
_atom_site_fract_z
Si Si1 0.932873 0.655397 0.380340
Si Si2 0.065319 0.655251 0.200790
Si Si3 0.065915 0.156259 0.794016
Si Si4 0.566371 0.152887 0.452570
Si Si5 0.066414 0.346696 0.050344
Si Si6 0.065524 0.845601 0.122623
O O1 0.750000 0.648792 0.379276
O O2 0.000000 0.500000 0.383362
O O3 0.993926 0.719415 0.336187
O O4 0.991504 0.742259 0.419862
O O5 0.250000 0.643748 0.199386
O O6 0.025482 0.711940 0.247557
O O7 0.015633 0.756552 0.163512
O O8 0.000000 0.500000 0.195573
O O9 0.250000 0.153209 0.798297
O O10 0.000000 0.000000 0.792978
O O11 0.750000 0.152474 0.447519
O O12 0.531776 0.187320 0.501455
O O13 0.500000 0.000000 0.444851
O O14 0.250000 0.350095 0.055441
O O15 0.000000 0.500000 0.059120
O O16 0.993930 0.236357 0.081819
O O17 0.250000 0.850634 0.122055
O O18 0.000000 0.000000 0.124010
#
# Coordination Sequence:
#
# PCOD9364566 Si02
#       6
#     8   8   8   8   8   8
#     4  11  21  34  54  81 111 144 182 223 269 317
#     4   9  19  34  55  80 105 138 179 222 266 317
#     4   9  16  30  51  76 106 138 177 223 267 313
#     4  10  21  38  58  81 109 141 178 220 267 319
#     4  10  21  38  60  83 107 139 179 221 265 317
#     4  11  23  38  55  79 111 144 179 221 271 321
#
# _framework density 17.983492999999999
#
# number of rings (size 3 to 8) (size 9 to 14) (size 15 to 20)
#    0.000    2.000    0.000    5.000    0.000    6.000 
#    0.000    0.833    0.000    2.000    0.000    0.000 
#    0.000    0.000    0.000    0.000    0.000    0.000 
#
# Total GULP energy -133949.173980 kJ/mol
# GULP energy per Si atom -5581.215582 kJ/mol
# Density = 1.794256 g / cm^3
# Si number density = 17.983493 Si / 1000 Ang^3
#
#
#
# Elastic Constant Matrix: (Units=GPa)
#
#
# Indices 1 2 3 4 5 6 
#
# 1 89.2841 48.0844 72.8612 0.0000 0.0000 0.0000
# 2 48.0844 100.8142 103.1482 0.0000 0.0000 0.0000
# 3 72.8612 103.1482 164.9913 0.0000 0.0000 0.0000
# 4 0.0000 0.0000 0.0000 35.6698 0.0000 0.0000
# 5 0.0000 0.0000 0.0000 0.0000 31.2643 0.0000
# 6 0.0000 0.0000 0.0000 0.0000 0.0000 29.8728
#
#
#
# Elastic Compliance Matrix: (Units=1/GPa)
#
#
# Indices 1 2 3 4 5 6 
#
# 1 0.017565 -0.001225 -0.006991 0.000000 0.000000 0.000000
# 2 -0.001225 0.027612 -0.016721 0.000000 0.000000 0.000000
# 3 -0.006991 -0.016721 0.019602 0.000000 0.000000 0.000000
# 4 0.000000 0.000000 0.000000 0.028035 0.000000 0.000000
# 5 0.000000 0.000000 0.000000 0.000000 0.031985 0.000000
# 6 0.000000 0.000000 0.000000 0.000000 0.000000 0.033475
#
#
# Mechanical properties :
#
#
# Convention : Reuss Voigt Hill
#
# Bulk Modulus (GPa) = 67.09473 89.25302 78.17387
# Shear Modulus (GPa) = 23.46130 28.09442 25.77786
#
# Velocity S-wave (km/s) = 3.61585 3.95680 3.79016
# Velocity P-wave (km/s) = 7.40422 8.40317 7.91946
#
# Compressibility (1/GPa) = 0.01490430
#
# Stress axis : x y z
#
# Youngs Moduli (GPa) = 56.93146 36.21630 51.01552
#
# Poissons Ratio (x) = 0.04436 0.35665
# Poissons Ratio (y) = 0.06974 0.85304
# Poissons Ratio (z) = 0.39801 0.60558
#
# Static dielectric constant tensor:
#      x y z
#    x 1.601970 0.000000 0.000000 
#    y 0.000000 1.550630 0.000000 
#    z 0.000000 0.000000 1.650130 
# 
# From -- ./inp_files/26116.got.cif
#   From: 2010.05.17/outbox.cif.g08.bks.cpg/sg40_14_cif.got.tgz:26116.got - 2010.06.03 18:35:42.
