data_PCOD9364062
_publ_section_title
;
Structure prediction by ZEFSAII (Michael W. Deem and Ramdas Pophale) SiO2 
 PCOD9364062
Probable space group: A M A 2
;
_chemical_formula_sum "Si O2"
_cell_formula_units_Z 56
_cell_length_a 21.953374
_cell_length_b 9.523297
_cell_length_c 13.516388
_cell_angle_alpha 90.000000
_cell_angle_beta 90.000000
_cell_angle_gamma 90.000000
_cell_volume 2825.850975
_symmetry_space_group_name_H-M "A M A 2"
_symmetry_group_IT_number 40
_symmetry_cell_setting 'orthorhombic'
loop_
_space_group_symop_operation_xyz
x,y,z
-x,-y,z
1/2-x,y,z
1/2+x,-y,z
x,1/2+y,1/2+z
-x,1/2-y,1/2+z
1/2-x,1/2+y,1/2+z
1/2+x,1/2-y,1/2+z
loop_
_atom_site_type_symbol
_atom_site_label
_atom_site_fract_x
_atom_site_fract_y
_atom_site_fract_z
Si Si1 0.821233 0.803301 0.540470
Si Si2 0.319028 0.672213 0.669698
Si Si3 0.404348 0.728550 0.379299
Si Si4 0.320743 0.491239 0.863175
Si Si5 0.937388 0.667783 0.091032
Si Si6 0.317716 0.500553 0.472748
Si Si7 0.063363 0.653480 0.167231
O O1 0.750000 0.807200 0.573435
O O2 0.828055 0.664926 0.472579
O O3 0.871929 0.792763 0.625142
O O4 0.832898 0.936826 0.469513
O O5 0.250000 0.736175 0.667274
O O6 0.329525 0.604744 0.776591
O O7 0.375332 0.768809 0.637251
O O8 0.318136 0.549588 0.587231
O O9 0.360586 0.854891 0.345818
O O10 0.437115 0.797097 0.474354
O O11 0.365759 0.596377 0.417842
O O12 0.440116 0.672586 0.284765
O O13 0.250000 0.450875 0.862263
O O14 0.937562 0.506241 0.126469
O O15 0.002299 0.727594 0.127482
O O16 0.250000 0.529719 0.433010
#
# Coordination Sequence:
#
# PCOD9364062 Si02
#       7
#     8   8   8   8   8   8   8
#     4  10  21  38  61  94 132 168 211 269 321 381
#     4   9  19  37  62  89 126 166 209 267 322 382
#     4  11  22  41  66  92 121 176 212 263 330 383
#     4  10  20  36  63  97 130 167 215 264 325 389
#     4  10  24  45  60  96 132 162 218 271 324 388
#     4   9  19  36  59  92 129 160 208 267 318 381
#     4  11  24  43  65  92 129 172 216 266 329 387
#
# _framework density 19.817039000000001
#
# number of rings (size 3 to 8) (size 9 to 14) (size 15 to 20)
#    0.000    2.000    1.429    1.286    2.000    4.571 
#    2.571    5.000    0.000    0.000    0.000    0.000 
#    0.000    0.000    0.000    0.000    0.000    0.000 
#
# Total GULP energy -156102.684173 kJ/mol
# GULP energy per Si atom -5575.095863 kJ/mol
# Density = 1.977193 g / cm^3
# Si number density = 19.817039 Si / 1000 Ang^3
#
#
#
# Elastic Constant Matrix: (Units=GPa)
#
#
# Indices 1 2 3 4 5 6 
#
# 1 100.0704 24.5866 57.9392 0.0000 0.0000 0.0000
# 2 24.5866 47.9634 8.9977 0.0000 0.0000 0.0000
# 3 57.9392 8.9977 119.0786 0.0000 0.0000 0.0000
# 4 0.0000 0.0000 0.0000 13.6720 0.0000 0.0000
# 5 0.0000 0.0000 0.0000 0.0000 14.7230 0.0000
# 6 0.0000 0.0000 0.0000 0.0000 0.0000 18.4921
#
#
#
# Elastic Compliance Matrix: (Units=1/GPa)
#
#
# Indices 1 2 3 4 5 6 
#
# 1 0.015812 -0.006758 -0.007183 0.000000 0.000000 0.000000
# 2 -0.006758 0.024037 0.001472 0.000000 0.000000 0.000000
# 3 -0.007183 0.001472 0.011782 0.000000 0.000000 0.000000
# 4 0.000000 0.000000 0.000000 0.073142 0.000000 0.000000
# 5 0.000000 0.000000 0.000000 0.000000 0.067921 0.000000
# 6 0.000000 0.000000 0.000000 0.000000 0.000000 0.054077
#
#
# Mechanical properties :
#
#
# Convention : Reuss Voigt Hill
#
# Bulk Modulus (GPa) = 37.46310 50.01772 43.74041
# Shear Modulus (GPa) = 17.81849 21.08334 19.45091
#
# Velocity S-wave (km/s) = 3.00184 3.26529 3.13633
# Velocity P-wave (km/s) = 5.56419 6.28575 5.93595
#
# Compressibility (1/GPa) = 0.02669293
#
# Stress axis : x y z
#
# Youngs Moduli (GPa) = 63.24234 41.60190 84.87842
#
# Poissons Ratio (x) = 0.28115 0.60968
# Poissons Ratio (y) = 0.42739 -0.12493
# Poissons Ratio (z) = 0.45427 -0.06123
#
# Static dielectric constant tensor:
#      x y z
#    x 1.719730 0.000000 0.000000 
#    y 0.000000 1.698530 0.000000 
#    z 0.000000 0.000000 1.701040 
# 
# From -- ./inp_files/18215.got.cif
#   From: 2010.05.17/outbox.cif.g08.bks.cpg/sg40_10_cif.got.tgz:18215.got - 2010.06.03 18:35:42.
