data_PCOD9364960
_publ_section_title
;
Structure prediction by ZEFSAII (Michael W. Deem and Ramdas Pophale) SiO2 
 PCOD9364960
Probable space group: A M A 2
;
_chemical_formula_sum "Si O2"
_cell_formula_units_Z 32
_cell_length_a 15.133166
_cell_length_b 11.142516
_cell_length_c 9.822726
_cell_angle_alpha 90.000000
_cell_angle_beta 90.000000
_cell_angle_gamma 90.000000
_cell_volume 1656.323227
_symmetry_space_group_name_H-M "A M A 2"
_symmetry_group_IT_number 40
_symmetry_cell_setting 'orthorhombic'
loop_
_space_group_symop_operation_xyz
x,y,z
-x,-y,z
1/2-x,y,z
1/2+x,-y,z
x,1/2+y,1/2+z
-x,1/2-y,1/2+z
1/2-x,1/2+y,1/2+z
1/2+x,1/2-y,1/2+z
loop_
_atom_site_type_symbol
_atom_site_label
_atom_site_fract_x
_atom_site_fract_y
_atom_site_fract_z
Si Si1 0.353809 0.455399 0.120890
Si Si2 0.849428 0.763078 0.676027
Si Si3 0.522139 0.628659 0.873475
Si Si4 0.849584 0.211254 0.880764
O O1 0.250000 0.439348 0.078350
O O2 0.363321 0.390926 0.267727
O O3 0.368513 0.598164 0.137143
O O4 0.423586 0.400187 0.013279
O O5 0.750000 0.762005 0.731023
O O6 0.851156 0.680041 0.540840
O O7 0.915874 0.711687 0.783888
O O8 0.500000 0.500000 0.810168
O O9 0.428559 0.694937 0.875099
O O10 0.750000 0.261456 0.856917
#
# Coordination Sequence:
#
# PCOD9364960 Si02
#       4
#     8   8   8   8
#     4  10  22  44  67  90 123 165 210 261 314 369
#     4  10  22  43  65  90 124 163 208 261 314 370
#     4  12  23  38  64  95 125 163 207 256 312 375
#     4  10  22  40  62  88 125 165 206 256 309 365
#
# _framework density 19.319901999999999
#
# number of rings (size 3 to 8) (size 9 to 14) (size 15 to 20)
#    0.000    1.500    2.500    2.250    0.000    1.000 
#    9.000    0.000    0.000    0.000    0.000    0.000 
#    0.000    0.000    0.000    0.000    0.000    0.000 
#
# Total GULP energy -89175.561329 kJ/mol
# GULP energy per Si atom -5573.472583 kJ/mol
# Density = 1.927593 g / cm^3
# Si number density = 19.319902 Si / 1000 Ang^3
#
#
#
# Elastic Constant Matrix: (Units=GPa)
#
#
# Indices 1 2 3 4 5 6 
#
# 1 150.7748 65.6294 75.7315 0.0000 0.0000 0.0000
# 2 65.6294 67.9997 54.6939 0.0000 0.0000 0.0000
# 3 75.7315 54.6939 82.3912 0.0000 0.0000 0.0000
# 4 0.0000 0.0000 0.0000 27.6321 0.0000 0.0000
# 5 0.0000 0.0000 0.0000 0.0000 20.3219 0.0000
# 6 0.0000 0.0000 0.0000 0.0000 0.0000 31.0533
#
#
#
# Elastic Compliance Matrix: (Units=1/GPa)
#
#
# Indices 1 2 3 4 5 6 
#
# 1 0.013564 -0.006573 -0.008105 0.000000 0.000000 0.000000
# 2 -0.006573 0.034738 -0.017019 0.000000 0.000000 0.000000
# 3 -0.008105 -0.017019 0.030885 0.000000 0.000000 0.000000
# 4 0.000000 0.000000 0.000000 0.036190 0.000000 0.000000
# 5 0.000000 0.000000 0.000000 0.000000 0.049208 0.000000
# 6 0.000000 0.000000 0.000000 0.000000 0.000000 0.032203
#
#
# Mechanical properties :
#
#
# Convention : Reuss Voigt Hill
#
# Bulk Modulus (GPa) = 63.31356 77.03058 70.17207
# Shear Modulus (GPa) = 18.83629 22.80884 20.82256
#
# Velocity S-wave (km/s) = 3.12584 3.43970 3.28651
# Velocity P-wave (km/s) = 6.77275 7.46545 7.12752
#
# Compressibility (1/GPa) = 0.01579440
#
# Stress axis : x y z
#
# Youngs Moduli (GPa) = 73.72370 28.78672 32.37855
#
# Poissons Ratio (x) = 0.18920 0.26242
# Poissons Ratio (y) = 0.48455 0.55105
# Poissons Ratio (z) = 0.59751 0.48992
#
# Static dielectric constant tensor:
#      x y z
#    x 1.764930 0.000000 0.000000 
#    y 0.000000 1.655640 0.000000 
#    z 0.000000 0.000000 1.697850 
# 
# From -- ./inp_files/12759.got.cif
#   From: 2010.05.17/outbox.cif.g08.bks.cpg/sg40_7_cif.got.tgz:12759.got - 2010.06.03 18:35:42.
