data_PCOD9364603
_publ_section_title
;
Structure prediction by ZEFSAII (Michael W. Deem and Ramdas Pophale) SiO2 
 PCOD9364603
Probable space group: A M A 2
;
_chemical_formula_sum "Si O2"
_cell_formula_units_Z 56
_cell_length_a 16.471449
_cell_length_b 14.355791
_cell_length_c 10.510881
_cell_angle_alpha 90.000000
_cell_angle_beta 90.000000
_cell_angle_gamma 90.000000
_cell_volume 2485.410061
_symmetry_space_group_name_H-M "A M A 2"
_symmetry_group_IT_number 40
_symmetry_cell_setting 'orthorhombic'
loop_
_space_group_symop_operation_xyz
x,y,z
-x,-y,z
1/2-x,y,z
1/2+x,-y,z
x,1/2+y,1/2+z
-x,1/2-y,1/2+z
1/2-x,1/2+y,1/2+z
1/2+x,1/2-y,1/2+z
loop_
_atom_site_type_symbol
_atom_site_label
_atom_site_fract_x
_atom_site_fract_y
_atom_site_fract_z
Si Si1 0.072497 0.852862 0.698120
Si Si2 0.345759 0.668848 0.620434
Si Si3 0.845628 0.200098 0.137138
Si Si4 0.055768 0.679185 0.975977
Si Si5 0.594711 0.019957 0.254622
Si Si6 0.938034 0.802077 0.854017
Si Si7 0.155785 0.493420 0.015292
O O1 0.130937 0.762468 0.699398
O O2 0.006695 0.823733 0.592249
O O3 0.009952 0.873335 0.812900
O O4 0.121174 0.938345 0.636089
O O5 0.250000 0.670138 0.594094
O O6 0.367427 0.575986 0.699967
O O7 0.394856 0.672324 0.486222
O O8 0.750000 0.186462 0.139704
O O9 0.877194 0.243744 0.006011
O O10 0.872338 0.274200 0.247301
O O11 0.891389 0.102841 0.155770
O O12 0.102147 0.582981 0.982834
O O13 0.995610 0.709660 0.864915
O O14 0.641251 0.058707 0.381043
O O15 0.500000 0.000000 0.278197
O O16 0.250000 0.514709 0.032626
#
# Coordination Sequence:
#
# PCOD9364603 Si02
#       7
#     8   8   8   8   8   8   8
#     4  10  21  38  61  90 125 165 208 255 314 382
#     4  11  22  39  63  97 129 161 210 271 323 374
#     4  11  22  39  60  87 120 158 200 251 307 367
#     4  10  21  39  60  85 118 158 202 250 306 369
#     4  12  23  39  64  92 121 160 208 256 313 380
#     4  10  21  40  65  88 124 170 208 254 316 382
#     4  12  23  38  62  93 123 160 208 263 310 362
#
# _framework density 22.531495
#
# number of rings (size 3 to 8) (size 9 to 14) (size 15 to 20)
#    0.000    1.143    0.000    9.857    0.000    0.000 
#    0.000   10.714    0.000    0.000    0.000    0.000 
#    0.000    0.000    0.000    0.000    0.000    0.000 
#
# Total GULP energy -156288.708854 kJ/mol
# GULP energy per Si atom -5581.739602 kJ/mol
# Density = 2.248021 g / cm^3
# Si number density = 22.531495 Si / 1000 Ang^3
#
#
#
# Elastic Constant Matrix: (Units=GPa)
#
#
# Indices 1 2 3 4 5 6 
#
# 1 152.6825 28.0148 46.2108 0.0000 0.0000 0.0000
# 2 28.0148 72.9795 11.3782 0.0000 0.0000 0.0000
# 3 46.2108 11.3782 67.1936 0.0000 0.0000 0.0000
# 4 0.0000 0.0000 0.0000 26.8359 0.0000 0.0000
# 5 0.0000 0.0000 0.0000 0.0000 37.1410 0.0000
# 6 0.0000 0.0000 0.0000 0.0000 0.0000 33.7314
#
#
#
# Elastic Compliance Matrix: (Units=1/GPa)
#
#
# Indices 1 2 3 4 5 6 
#
# 1 0.008683 -0.002467 -0.005554 0.000000 0.000000 0.000000
# 2 -0.002467 0.014775 -0.000805 0.000000 0.000000 0.000000
# 3 -0.005554 -0.000805 0.018838 0.000000 0.000000 0.000000
# 4 0.000000 0.000000 0.000000 0.037264 0.000000 0.000000
# 5 0.000000 0.000000 0.000000 0.000000 0.026924 0.000000
# 6 0.000000 0.000000 0.000000 0.000000 0.000000 0.029646
#
#
# Mechanical properties :
#
#
# Convention : Reuss Voigt Hill
#
# Bulk Modulus (GPa) = 40.57784 51.56258 46.07021
# Shear Modulus (GPa) = 30.86464 33.35845 32.11154
#
# Velocity S-wave (km/s) = 3.70516 3.85193 3.77926
# Velocity P-wave (km/s) = 6.02932 6.53587 6.28770
#
# Compressibility (1/GPa) = 0.02464399
#
# Stress axis : x y z
#
# Youngs Moduli (GPa) = 115.16520 67.68123 53.08357
#
# Poissons Ratio (x) = 0.16699 0.29482
# Poissons Ratio (y) = 0.28415 0.04274
# Poissons Ratio (z) = 0.63961 0.05449
#
# Static dielectric constant tensor:
#      x y z
#    x 1.796510 0.000000 0.000000 
#    y 0.000000 1.948100 0.000000 
#    z 0.000000 0.000000 1.983700 
# 
# From -- ./inp_files/12225.got.cif
#   From: 2010.05.17/outbox.cif.g08.bks.cpg/sg40_7_cif.got.tgz:12225.got - 2010.06.03 18:35:42.
