data_PCOD9364487
_publ_section_title
;
Structure prediction by ZEFSAII (Michael W. Deem and Ramdas Pophale) SiO2 
 PCOD9364487
Probable space group: A M A 2
;
_chemical_formula_sum "Si O2"
_cell_formula_units_Z 44
_cell_length_a 20.264747
_cell_length_b 9.672601
_cell_length_c 11.710650
_cell_angle_alpha 90.000000
_cell_angle_beta 90.000000
_cell_angle_gamma 90.000000
_cell_volume 2295.437438
_symmetry_space_group_name_H-M "A M A 2"
_symmetry_group_IT_number 40
_symmetry_cell_setting 'orthorhombic'
loop_
_space_group_symop_operation_xyz
x,y,z
-x,-y,z
1/2-x,y,z
1/2+x,-y,z
x,1/2+y,1/2+z
-x,1/2-y,1/2+z
1/2-x,1/2+y,1/2+z
1/2+x,1/2-y,1/2+z
loop_
_atom_site_type_symbol
_atom_site_label
_atom_site_fract_x
_atom_site_fract_y
_atom_site_fract_z
Si Si1 0.000000 0.500000 0.028031
Si Si2 0.929335 0.551947 0.251205
Si Si3 0.410365 0.190568 0.404234
Si Si4 0.828175 0.577038 0.836360
Si Si5 0.327211 0.883266 0.069446
Si Si6 0.172289 0.621387 0.393777
O O1 0.940900 0.537875 0.115908
O O2 0.978518 0.370777 0.952065
O O3 0.917847 0.705540 0.298104
O O4 0.871820 0.454330 0.298598
O O5 0.000000 0.500000 0.300524
O O6 0.373569 0.277206 0.502721
O O7 0.368021 0.056634 0.372773
O O8 0.750000 0.550845 0.849290
O O9 0.841173 0.608545 0.703027
O O10 0.845179 0.717845 0.902991
O O11 0.250000 0.844598 0.054209
O O12 0.336197 0.032058 0.008531
O O13 0.250000 0.615009 0.361988
#
# Coordination Sequence:
#
# PCOD9364487 Si02
#       6
#     4   8   8   8   8   8
#     4  10  24  38  56  82 118 148 200 240 284 340
#     4   9  22  42  57  83 118 153 194 238 281 345
#     4  11  22  37  59  83 111 156 191 240 287 342
#     4  10  21  36  60  91 118 145 190 241 290 347
#     4   9  19  37  58  84 116 149 188 235 293 348
#     4   9  18  36  63  87 116 154 188 236 294 346
#
# _framework density 19.16846
#
# number of rings (size 3 to 8) (size 9 to 14) (size 15 to 20)
#    0.545    1.818    0.000    1.636    2.545    2.182 
#    3.273    0.909    0.000    8.727    0.000    0.000 
#    0.000    0.000    0.000    0.000    0.000    0.000 
#
# Total GULP energy -122729.201274 kJ/mol
# GULP energy per Si atom -5578.600058 kJ/mol
# Density = 1.912483 g / cm^3
# Si number density = 19.168460 Si / 1000 Ang^3
#
#
#
# Elastic Constant Matrix: (Units=GPa)
#
#
# Indices 1 2 3 4 5 6 
#
# 1 42.0333 39.3814 5.7722 0.0000 0.0000 0.0000
# 2 39.3814 137.0193 12.2724 0.0000 0.0000 0.0000
# 3 5.7722 12.2724 19.0968 0.0000 0.0000 0.0000
# 4 0.0000 0.0000 0.0000 14.3790 0.0000 0.0000
# 5 0.0000 0.0000 0.0000 0.0000 31.4488 0.0000
# 6 0.0000 0.0000 0.0000 0.0000 0.0000 16.5465
#
#
#
# Elastic Compliance Matrix: (Units=1/GPa)
#
#
# Indices 1 2 3 4 5 6 
#
# 1 0.032858 -0.009077 -0.004099 0.000000 0.000000 0.000000
# 2 -0.009077 0.010251 -0.003844 0.000000 0.000000 0.000000
# 3 -0.004099 -0.003844 0.056074 0.000000 0.000000 0.000000
# 4 0.000000 0.000000 0.000000 0.069546 0.000000 0.000000
# 5 0.000000 0.000000 0.000000 0.000000 0.031798 0.000000
# 6 0.000000 0.000000 0.000000 0.000000 0.000000 0.060436
#
#
# Mechanical properties :
#
#
# Convention : Reuss Voigt Hill
#
# Bulk Modulus (GPa) = 15.35067 34.77797 25.06432
# Shear Modulus (GPa) = 15.78701 21.85642 18.82171
#
# Velocity S-wave (km/s) = 2.87294 3.38039 3.13694
# Velocity P-wave (km/s) = 4.36243 5.78090 5.12101
#
# Compressibility (1/GPa) = 0.06514375
#
# Stress axis : x y z
#
# Youngs Moduli (GPa) = 30.43441 97.54817 17.83355
#
# Poissons Ratio (x) = 0.88541 0.07309
# Poissons Ratio (y) = 0.27624 0.06856
# Poissons Ratio (z) = 0.12474 0.37502
#
# Static dielectric constant tensor:
#      x y z
#    x 1.675610 0.000000 0.000000 
#    y 0.000000 1.639770 0.000000 
#    z 0.000000 0.000000 1.644480 
# 
# From -- ./inp_files/13856.got.cif
#   From: 2010.05.17/outbox.cif.g08.bks.cpg/sg40_7_cif.got.tgz:13856.got - 2010.06.03 18:35:42.
