data_PCOD9364018
_publ_section_title
;
Structure prediction by ZEFSAII (Michael W. Deem and Ramdas Pophale) SiO2 
 PCOD9364018
Probable space group: A M A 2
;
_chemical_formula_sum "Si O2"
_cell_formula_units_Z 32
_cell_length_a 18.079694
_cell_length_b 10.507173
_cell_length_c 9.264241
_cell_angle_alpha 90.000000
_cell_angle_beta 90.000000
_cell_angle_gamma 90.000000
_cell_volume 1759.895185
_symmetry_space_group_name_H-M "A M A 2"
_symmetry_group_IT_number 40
_symmetry_cell_setting 'orthorhombic'
loop_
_space_group_symop_operation_xyz
x,y,z
-x,-y,z
1/2-x,y,z
1/2+x,-y,z
x,1/2+y,1/2+z
-x,1/2-y,1/2+z
1/2-x,1/2+y,1/2+z
1/2+x,1/2-y,1/2+z
loop_
_atom_site_type_symbol
_atom_site_label
_atom_site_fract_x
_atom_site_fract_y
_atom_site_fract_z
Si Si1 0.337812 0.991831 0.250000
Si Si2 0.927065 0.251815 0.753557
Si Si3 0.588997 0.011212 0.942680
Si Si4 0.082711 0.270825 0.911081
O O1 0.250000 0.000600 0.245944
O O2 0.374171 0.128690 0.283207
O O3 0.364338 0.883372 0.360330
O O4 0.370436 0.958991 0.091888
O O5 0.932760 0.227592 0.582442
O O6 0.006938 0.283310 0.821313
O O7 0.899656 0.123913 0.830427
O O8 0.612934 0.872375 0.885568
O O9 0.500000 0.000000 0.969164
#
# Coordination Sequence:
#
# PCOD9364018 Si02
#       4
#     8   8   8   8
#     4  11  23  37  54  81 118 153 183 223 279 339
#     4  10  21  38  61  86 111 143 189 239 280 327
#     4   9  20  39  61  83 106 141 189 239 283 324
#     4  10  20  36  60  86 111 143 189 235 280 328
#
# _framework density 18.1829
#
# number of rings (size 3 to 8) (size 9 to 14) (size 15 to 20)
#    0.000    2.000    0.000    5.250    0.000   13.000 
#    0.000    0.000    0.000    0.000    0.000    0.000 
#    0.000    0.000    0.000    0.000    0.000    0.000 
#
# Total GULP energy -89325.239012 kJ/mol
# GULP energy per Si atom -5582.827438 kJ/mol
# Density = 1.814151 g / cm^3
# Si number density = 18.182900 Si / 1000 Ang^3
#
#
#
# Elastic Constant Matrix: (Units=GPa)
#
#
# Indices 1 2 3 4 5 6 
#
# 1 60.7108 54.0124 41.1378 0.0000 0.0000 0.0000
# 2 54.0124 128.9984 83.7874 0.0000 0.0000 0.0000
# 3 41.1378 83.7874 73.5707 0.0000 0.0000 0.0000
# 4 0.0000 0.0000 0.0000 38.8356 0.0000 0.0000
# 5 0.0000 0.0000 0.0000 0.0000 13.2499 0.0000
# 6 0.0000 0.0000 0.0000 0.0000 0.0000 0.5031
#
#
#
# Elastic Compliance Matrix: (Units=1/GPa)
#
#
# Indices 1 2 3 4 5 6 
#
# 1 0.027639 -0.005896 -0.008740 0.000000 0.000000 0.000000
# 2 -0.005896 0.031041 -0.032055 0.000000 0.000000 0.000000
# 3 -0.008740 -0.032055 0.054986 0.000000 0.000000 0.000000
# 4 0.000000 0.000000 0.000000 0.025750 0.000000 0.000000
# 5 0.000000 0.000000 0.000000 0.000000 0.075472 0.000000
# 6 0.000000 0.000000 0.000000 0.000000 0.000000 1.987735
#
#
# Mechanical properties :
#
#
# Convention : Reuss Voigt Hill
#
# Bulk Modulus (GPa) = 49.29938 69.01724 59.15831
# Shear Modulus (GPa) = 2.17130 16.14053 9.15592
#
# Velocity S-wave (km/s) = 1.09395 2.98262 2.24642
# Velocity P-wave (km/s) = 5.36354 7.06406 6.27170
#
# Compressibility (1/GPa) = 0.02028423
#
# Stress axis : x y z
#
# Youngs Moduli (GPa) = 36.18057 32.21525 18.18633
#
# Poissons Ratio (x) = 0.18993 0.15895
# Poissons Ratio (y) = 0.21331 0.58297
# Poissons Ratio (z) = 0.31623 1.03267
#
# Static dielectric constant tensor:
#      x y z
#    x 1.596880 0.000000 0.000000 
#    y 0.000000 1.643960 0.000000 
#    z 0.000000 0.000000 1.606980 
# 
# From -- ./inp_files/5880.got.cif
#   From: 2010.05.17/outbox.cif.g08.bks.cpg/sg40_3_cif.got.tgz:5880.got - 2010.06.03 18:35:42.
