data_PCOD9364040
_publ_section_title
;
Structure prediction by ZEFSAII (Michael W. Deem and Ramdas Pophale) SiO2 
 PCOD9364040
Probable space group: A M A 2
;
_chemical_formula_sum "Si O2"
_cell_formula_units_Z 60
_cell_length_a 9.366231
_cell_length_b 17.392403
_cell_length_c 19.086345
_cell_angle_alpha 90.000000
_cell_angle_beta 90.000000
_cell_angle_gamma 90.000000
_cell_volume 3109.189728
_symmetry_space_group_name_H-M "A M A 2"
_symmetry_group_IT_number 40
_symmetry_cell_setting 'orthorhombic'
loop_
_space_group_symop_operation_xyz
x,y,z
-x,-y,z
1/2-x,y,z
1/2+x,-y,z
x,1/2+y,1/2+z
-x,1/2-y,1/2+z
1/2-x,1/2+y,1/2+z
1/2+x,1/2-y,1/2+z
loop_
_atom_site_type_symbol
_atom_site_label
_atom_site_fract_x
_atom_site_fract_y
_atom_site_fract_z
Si Si1 0.913113 0.783707 0.994570
Si Si2 0.422938 0.357785 0.787140
Si Si3 0.085104 0.780883 0.860207
Si Si4 0.414044 0.796914 0.131068
Si Si5 0.912607 0.567346 0.267898
Si Si6 0.595884 0.097939 0.503434
Si Si7 0.587374 0.888857 0.633330
Si Si8 0.500000 0.000000 0.373130
O O1 0.750000 0.808701 0.983492
O O2 0.021742 0.807204 0.934106
O O3 0.912390 0.689929 0.990787
O O4 0.974293 0.811488 0.069011
O O5 0.250000 0.368820 0.797129
O O6 0.481844 0.284480 0.829365
O O7 0.445181 0.338498 0.704856
O O8 0.513921 0.429494 0.817658
O O9 0.250000 0.753681 0.866880
O O10 0.081894 0.852843 0.808589
O O11 0.250000 0.816000 0.110939
O O12 0.418335 0.704112 0.139249
O O13 0.750000 0.543663 0.260708
O O14 0.000000 0.500000 0.305094
O O15 0.984689 0.580720 0.193075
O O16 0.750000 0.083366 0.537530
O O17 0.467993 0.084630 0.557475
O O18 0.588945 0.048747 0.432154
O O19 0.750000 0.912281 0.643921
#
# Coordination Sequence:
#
# PCOD9364040 Si02
#       8
#     8   8   8   8   8   8   8   4
#     4  10  20  38  64  90 119 156 204 257 313 376
#     4  11  23  42  64  90 127 171 214 262 316 376
#     4  11  23  39  63  93 123 158 203 257 315 380
#     4   9  19  37  63  91 119 156 205 256 309 370
#     4  11  24  40  60  89 122 156 198 249 310 375
#     4  10  22  38  55  82 124 166 205 250 302 362
#     4  10  20  36  61  89 122 161 203 249 302 367
#     4  12  24  38  60  90 128 174 220 260 314 368
#
# _framework density 19.297630999999999
#
# number of rings (size 3 to 8) (size 9 to 14) (size 15 to 20)
#    0.000    1.600    2.667    2.000    0.933    5.333 
#    0.000    0.000    1.467    0.000    0.000    0.000 
#    0.000    0.000    0.000    0.000    0.000    0.000 
#
# Total GULP energy -167179.449836 kJ/mol
# GULP energy per Si atom -5572.648328 kJ/mol
# Density = 1.925371 g / cm^3
# Si number density = 19.297631 Si / 1000 Ang^3
#
#
#
# Elastic Constant Matrix: (Units=GPa)
#
#
# Indices 1 2 3 4 5 6 
#
# 1 97.4064 19.7117 47.2523 0.0000 0.0000 0.0000
# 2 19.7117 59.8105 26.4151 0.0000 0.0000 0.0000
# 3 47.2523 26.4151 113.1898 0.0000 0.0000 0.0000
# 4 0.0000 0.0000 0.0000 32.3990 0.0000 0.0000
# 5 0.0000 0.0000 0.0000 0.0000 14.3233 0.0000
# 6 0.0000 0.0000 0.0000 0.0000 0.0000 13.6860
#
#
#
# Elastic Compliance Matrix: (Units=1/GPa)
#
#
# Indices 1 2 3 4 5 6 
#
# 1 0.013111 -0.002122 -0.004978 0.000000 0.000000 0.000000
# 2 -0.002122 0.018984 -0.003544 0.000000 0.000000 0.000000
# 3 -0.004978 -0.003544 0.011740 0.000000 0.000000 0.000000
# 4 0.000000 0.000000 0.000000 0.030865 0.000000 0.000000
# 5 0.000000 0.000000 0.000000 0.000000 0.069816 0.000000
# 6 0.000000 0.000000 0.000000 0.000000 0.000000 0.073067
#
#
# Mechanical properties :
#
#
# Convention : Reuss Voigt Hill
#
# Bulk Modulus (GPa) = 44.35458 50.79612 47.57535
# Shear Modulus (GPa) = 20.29322 23.88351 22.08836
#
# Velocity S-wave (km/s) = 3.24634 3.52183 3.38689
# Velocity P-wave (km/s) = 6.08983 6.55113 6.32469
#
# Compressibility (1/GPa) = 0.02254559
#
# Stress axis : x y z
#
# Youngs Moduli (GPa) = 76.27454 52.67515 85.17951
#
# Poissons Ratio (x) = 0.11180 0.42401
# Poissons Ratio (y) = 0.16188 0.30191
# Poissons Ratio (z) = 0.37968 0.18670
#
# Static dielectric constant tensor:
#      x y z
#    x 1.661700 0.000000 0.000000 
#    y 0.000000 1.696210 0.000000 
#    z 0.000000 0.000000 1.672920 
# 
# From -- ./inp_files/19405.got.cif
#   From: 2010.05.17/outbox.cif.g08.bks.cpg/sg40_10_cif.got.tgz:19405.got - 2010.06.03 18:35:42.
