data_PCOD9364321
_publ_section_title
;
Structure prediction by ZEFSAII (Michael W. Deem and Ramdas Pophale) SiO2 
 PCOD9364321
Probable space group: A M A 2
;
_chemical_formula_sum "Si O2"
_cell_formula_units_Z 48
_cell_length_a 9.796630
_cell_length_b 8.932302
_cell_length_c 29.162472
_cell_angle_alpha 90.000000
_cell_angle_beta 90.000000
_cell_angle_gamma 90.000000
_cell_volume 2551.904624
_symmetry_space_group_name_H-M "A M A 2"
_symmetry_group_IT_number 40
_symmetry_cell_setting 'orthorhombic'
loop_
_space_group_symop_operation_xyz
x,y,z
-x,-y,z
1/2-x,y,z
1/2+x,-y,z
x,1/2+y,1/2+z
-x,1/2-y,1/2+z
1/2-x,1/2+y,1/2+z
1/2+x,1/2-y,1/2+z
loop_
_atom_site_type_symbol
_atom_site_label
_atom_site_fract_x
_atom_site_fract_y
_atom_site_fract_z
Si Si1 0.418617 0.840164 0.468910
Si Si2 0.507342 0.180900 0.570627
Si Si3 0.918433 0.841948 0.382798
Si Si4 0.250000 0.176970 0.126332
Si Si5 0.250000 0.334265 0.221424
Si Si6 0.505852 0.176529 0.789268
Si Si7 0.250000 0.320111 0.621762
Si Si8 0.250000 0.190475 0.724999
O O1 0.250000 0.851709 0.463720
O O2 0.455193 0.772649 0.518461
O O3 0.500254 0.767109 0.426060
O O4 0.500000 0.000000 0.471163
O O5 0.623737 0.244666 0.602490
O O6 0.374733 0.251688 0.593210
O O7 0.500000 0.000000 0.572341
O O8 0.750000 0.853635 0.388637
O O9 0.955465 0.758360 0.336002
O O10 0.000000 0.000000 0.378649
O O11 0.250000 0.228363 0.178334
O O12 0.250000 0.999474 0.120394
O O13 0.377117 0.300442 0.252725
O O14 0.250000 0.512992 0.211631
O O15 0.374447 0.221410 0.759641
O O16 0.500000 0.000000 0.799822
O O17 0.250000 0.272909 0.675786
#
# Coordination Sequence:
#
# PCOD9364321 Si02
#       8
#     8   8   8   4   4   8   4   4
#     4  10  21  38  65  96 124 161 216 268 309 371
#     4  11  23  41  68  93 124 172 222 260 308 386
#     4  11  23  39  64  96 130 165 207 263 321 375
#     4  12  24  42  63  94 137 161 206 275 329 382
#     4  10  20  40  63  86 123 167 218 263 303 384
#     4  10  22  40  63  90 124 164 213 260 310 373
#     4  12  26  40  63  98 133 169 208 267 337 372
#     4  10  22  38  63  92 119 171 220 257 309 382
#
# _framework density 18.809481000000002
#
# number of rings (size 3 to 8) (size 9 to 14) (size 15 to 20)
#    0.000    1.333    1.667    5.000    7.000    2.667 
#    0.000    1.667    0.000    0.000    0.000    0.000 
#    0.000    0.000    0.000    0.000    0.000    0.000 
#
# Total GULP energy -133634.760189 kJ/mol
# GULP energy per Si atom -5568.115008 kJ/mol
# Density = 1.876667 g / cm^3
# Si number density = 18.809481 Si / 1000 Ang^3
#
#
#
# Elastic Constant Matrix: (Units=GPa)
#
#
# Indices 1 2 3 4 5 6 
#
# 1 218.3581 54.2437 81.6334 0.0000 0.0000 0.0000
# 2 54.2437 75.2873 82.1395 0.0000 0.0000 0.0000
# 3 81.6334 82.1395 164.9567 0.0000 0.0000 0.0000
# 4 0.0000 0.0000 0.0000 -271.1349 0.0000 0.0000
# 5 0.0000 0.0000 0.0000 0.0000 47.8027 0.0000
# 6 0.0000 0.0000 0.0000 0.0000 0.0000 14.9603
#
#
#
# Elastic Compliance Matrix: (Units=1/GPa)
#
#
# Indices 1 2 3 4 5 6 
#
# 1 0.005794 -0.002291 -0.001727 0.000000 0.000000 0.000000
# 2 -0.002291 0.029987 -0.013798 0.000000 0.000000 0.000000
# 3 -0.001727 -0.013798 0.013788 0.000000 0.000000 0.000000
# 4 0.000000 0.000000 0.000000 -0.003688 0.000000 0.000000
# 5 0.000000 0.000000 0.000000 0.000000 0.020919 0.000000
# 6 0.000000 0.000000 0.000000 0.000000 0.000000 0.066844
#
#
# Mechanical properties :
#
#
# Convention : Reuss Voigt Hill
#
# Bulk Modulus (GPa) = 71.75042 99.40394 85.57718
# Shear Modulus (GPa) = 28.74869 -25.63535 1.55667
#
# Velocity S-wave (km/s) = 3.91374 -3.69575 0.91071
# Velocity P-wave (km/s) = 7.65845 5.89501 6.83385
#
# Compressibility (1/GPa) = 0.01393720
#
# Stress axis : x y z
#
# Youngs Moduli (GPa) = 172.58482 33.34773 72.52931
#
# Poissons Ratio (x) = 0.07639 0.12524
# Poissons Ratio (y) = 0.39535 1.00078
# Poissons Ratio (z) = 0.29801 0.46014
#
# Static dielectric constant tensor:
#      x y z
#    x 1.554990 0.000000 0.000000 
#    y 0.000000 1.894400 0.000000 
#    z 0.000000 0.000000 1.702430 
# 
# From -- ./inp_files/26235.got.cif
#   From: 2010.05.17/outbox.cif.g08.bks.cpg/sg40_14_cif.got.tgz:26235.got - 2010.06.03 18:35:42.
