data_PCOD9364532
_publ_section_title
;
Structure prediction by ZEFSAII (Michael W. Deem and Ramdas Pophale) SiO2 
 PCOD9364532
Probable space group: A M A 2
;
_chemical_formula_sum "Si O2"
_cell_formula_units_Z 48
_cell_length_a 8.940749
_cell_length_b 22.848901
_cell_length_c 11.684047
_cell_angle_alpha 90.000000
_cell_angle_beta 90.000000
_cell_angle_gamma 90.000000
_cell_volume 2386.890599
_symmetry_space_group_name_H-M "A M A 2"
_symmetry_group_IT_number 40
_symmetry_cell_setting 'orthorhombic'
loop_
_space_group_symop_operation_xyz
x,y,z
-x,-y,z
1/2-x,y,z
1/2+x,-y,z
x,1/2+y,1/2+z
-x,1/2-y,1/2+z
1/2-x,1/2+y,1/2+z
1/2+x,1/2-y,1/2+z
loop_
_atom_site_type_symbol
_atom_site_label
_atom_site_fract_x
_atom_site_fract_y
_atom_site_fract_z
Si Si1 0.420037 0.651899 0.970410
Si Si2 0.072124 0.268192 0.151545
Si Si3 0.927888 0.864230 0.104116
Si Si4 0.568661 0.851917 0.837820
Si Si5 0.071768 0.936272 0.292656
Si Si6 0.084189 0.055712 0.669070
O O1 0.250000 0.666614 0.932864
O O2 0.508289 0.615376 0.874722
O O3 0.500832 0.706047 0.033718
O O4 0.409159 0.605251 0.073662
O O5 0.250000 0.278373 0.146497
O O6 0.044683 0.199167 0.160512
O O7 0.003266 0.300936 0.261389
O O8 0.750000 0.877302 0.113222
O O9 0.020411 0.914332 0.167324
O O10 0.965012 0.854432 0.971069
O O11 0.750000 0.847827 0.824442
O O12 0.516608 0.912462 0.779122
O O13 0.250000 0.940238 0.303369
O O14 0.000000 0.000000 0.317952
O O15 0.250000 0.036238 0.699375
O O16 0.000000 0.000000 0.624477
#
# Coordination Sequence:
#
# PCOD9364532 Si02
#       6
#     8   8   8   8   8   8
#     4  10  21  39  62  89 123 162 204 253 310 368
#     4  10  21  37  61  94 124 156 205 260 315 371
#     4  10  23  42  62  87 122 164 207 255 311 374
#     4   9  20  39  58  81 118 159 198 246 307 369
#     4  12  26  43  64  91 126 168 214 260 314 376
#     4   9  18  32  54  82 111 149 190 238 294 348
#
# _framework density 20.109843999999999
#
# number of rings (size 3 to 8) (size 9 to 14) (size 15 to 20)
#    0.000    2.000    0.000    4.000    2.333    7.333 
#    0.000    1.667    0.000    0.000    0.000    0.000 
#    0.000    0.000    0.000    0.000    0.000    0.000 
#
# Total GULP energy -133944.022878 kJ/mol
# GULP energy per Si atom -5581.000953 kJ/mol
# Density = 2.006407 g / cm^3
# Si number density = 20.109844 Si / 1000 Ang^3
#
#
#
# Elastic Constant Matrix: (Units=GPa)
#
#
# Indices 1 2 3 4 5 6 
#
# 1 91.4946 36.0979 33.8890 0.0000 0.0000 0.0000
# 2 36.0979 54.9691 16.8776 0.0000 0.0000 0.0000
# 3 33.8890 16.8776 87.5549 0.0000 0.0000 0.0000
# 4 0.0000 0.0000 0.0000 17.7469 0.0000 0.0000
# 5 0.0000 0.0000 0.0000 0.0000 32.5524 0.0000
# 6 0.0000 0.0000 0.0000 0.0000 0.0000 24.6310
#
#
#
# Elastic Compliance Matrix: (Units=1/GPa)
#
#
# Indices 1 2 3 4 5 6 
#
# 1 0.016267 -0.009299 -0.004504 0.000000 0.000000 0.000000
# 2 -0.009299 0.024653 -0.001153 0.000000 0.000000 0.000000
# 3 -0.004504 -0.001153 0.013387 0.000000 0.000000 0.000000
# 4 0.000000 0.000000 0.000000 0.056348 0.000000 0.000000
# 5 0.000000 0.000000 0.000000 0.000000 0.030720 0.000000
# 6 0.000000 0.000000 0.000000 0.000000 0.000000 0.040599
#
#
# Mechanical properties :
#
#
# Convention : Reuss Voigt Hill
#
# Bulk Modulus (GPa) = 40.99249 45.30528 43.14888
# Shear Modulus (GPa) = 22.72558 24.79633 23.76095
#
# Velocity S-wave (km/s) = 3.36530 3.51528 3.44111
# Velocity P-wave (km/s) = 5.96061 6.24933 6.10668
#
# Compressibility (1/GPa) = 0.02439471
#
# Stress axis : x y z
#
# Youngs Moduli (GPa) = 61.47539 40.56321 74.70064
#
# Poissons Ratio (x) = 0.37722 0.33642
# Poissons Ratio (y) = 0.57169 0.08611
# Poissons Ratio (z) = 0.27686 0.04676
#
# Static dielectric constant tensor:
#      x y z
#    x 1.697330 0.000000 0.000000 
#    y 0.000000 1.720580 0.000000 
#    z 0.000000 0.000000 1.747410 
# 
# From -- ./inp_files/10241.got.cif
#   From: 2010.05.17/outbox.cif.g08.bks.cpg/sg40_6_cif.got.tgz:10241.got - 2010.06.03 18:35:42.
