data_PCOD9364440
_publ_section_title
;
Structure prediction by ZEFSAII (Michael W. Deem and Ramdas Pophale) SiO2 
 PCOD9364440
Probable space group: A M A 2
;
_chemical_formula_sum "Si O2"
_cell_formula_units_Z 64
_cell_length_a 18.750820
_cell_length_b 5.432185
_cell_length_c 29.363857
_cell_angle_alpha 90.000000
_cell_angle_beta 90.000000
_cell_angle_gamma 90.000000
_cell_volume 2990.941489
_symmetry_space_group_name_H-M "A M A 2"
_symmetry_group_IT_number 40
_symmetry_cell_setting 'orthorhombic'
loop_
_space_group_symop_operation_xyz
x,y,z
-x,-y,z
1/2-x,y,z
1/2+x,-y,z
x,1/2+y,1/2+z
-x,1/2-y,1/2+z
1/2-x,1/2+y,1/2+z
1/2+x,1/2-y,1/2+z
loop_
_atom_site_type_symbol
_atom_site_label
_atom_site_fract_x
_atom_site_fract_y
_atom_site_fract_z
Si Si1 0.427595 0.412979 0.002270
Si Si2 0.662649 0.723434 0.274276
Si Si3 0.671136 0.023474 0.641110
Si Si4 0.069550 0.649839 0.596401
Si Si5 0.663779 0.835461 0.930060
Si Si6 0.836134 0.333489 0.877298
Si Si7 0.671275 0.231794 0.049121
Si Si8 0.335439 0.281010 0.727252
O O1 0.500000 0.500000 0.978419
O O2 0.450412 0.309935 0.051828
O O3 0.375842 0.643896 0.010549
O O4 0.381327 0.213366 0.975481
O O5 0.750000 0.715603 0.273746
O O6 0.639802 0.786393 0.325606
O O7 0.638767 0.455313 0.256516
O O8 0.638631 0.951602 0.242627
O O9 0.750000 0.125381 0.654787
O O10 0.604879 0.205164 0.637976
O O11 0.677578 0.934623 0.589191
O O12 0.654929 0.799176 0.674904
O O13 0.131585 0.482784 0.575282
O O14 0.000000 0.500000 0.609896
O O15 0.750000 0.828168 0.937481
O O16 0.644668 0.599026 0.898208
O O17 0.644527 0.095274 0.907311
O O18 0.750000 0.334666 0.875919
O O19 0.750000 0.163650 0.033109
O O20 0.250000 0.291077 0.734350
#
# Coordination Sequence:
#
# PCOD9364440 Si02
#       8
#     8   8   8   8   8   8   8   8
#     4  11  23  39  55  81 115 152 202 253 305 366
#     4   9  16  28  49  77 115 154 186 230 294 352
#     4   9  20  34  51  82 118 153 199 249 300 358
#     4  11  22  37  58  78 110 158 203 252 306 363
#     4  10  21  35  56  83 116 153 197 249 300 359
#     4   9  18  33  52  81 117 153 191 237 297 362
#     4  10  21  37  58  80 112 154 196 246 303 359
#     4   9  17  28  48  79 115 153 190 236 290 350
#
# _framework density 21.397945
#
# number of rings (size 3 to 8) (size 9 to 14) (size 15 to 20)
#    0.000    2.250    1.250    1.500    3.500    4.500 
#    0.000    0.000    0.000    0.000    0.000    0.875 
#    3.750    0.000    0.000    0.000    0.000    0.000 
#
# Total GULP energy -178603.940891 kJ/mol
# GULP energy per Si atom -5581.373153 kJ/mol
# Density = 2.134924 g / cm^3
# Si number density = 21.397945 Si / 1000 Ang^3
#
#
#
# Elastic Constant Matrix: (Units=GPa)
#
#
# Indices 1 2 3 4 5 6 
#
# 1 69.7157 18.0008 8.4858 0.0000 0.0000 0.0000
# 2 18.0008 85.3834 15.4376 0.0000 0.0000 0.0000
# 3 8.4858 15.4376 76.1827 0.0000 0.0000 0.0000
# 4 0.0000 0.0000 0.0000 35.6173 0.0000 0.0000
# 5 0.0000 0.0000 0.0000 0.0000 -12.6652 0.0000
# 6 0.0000 0.0000 0.0000 0.0000 0.0000 8.6706
#
#
#
# Elastic Compliance Matrix: (Units=1/GPa)
#
#
# Indices 1 2 3 4 5 6 
#
# 1 0.015256 -0.003020 -0.001087 0.000000 0.000000 0.000000
# 2 -0.003020 0.012755 -0.002248 0.000000 0.000000 0.000000
# 3 -0.001087 -0.002248 0.013703 0.000000 0.000000 0.000000
# 4 0.000000 0.000000 0.000000 0.028076 0.000000 0.000000
# 5 0.000000 0.000000 0.000000 0.000000 -0.078956 0.000000
# 6 0.000000 0.000000 0.000000 0.000000 0.000000 0.115333
#
#
# Mechanical properties :
#
#
# Convention : Reuss Voigt Hill
#
# Bulk Modulus (GPa) = 34.47894 35.01448 34.74671
# Shear Modulus (GPa) = 38.89668 18.94836 28.92252
#
# Velocity S-wave (km/s) = 4.26816 2.97900 3.68047
# Velocity P-wave (km/s) = 6.35907 5.31334 5.85958
#
# Compressibility (1/GPa) = 0.02900321
#
# Stress axis : x y z
#
# Youngs Moduli (GPa) = 65.54782 78.40060 72.97638
#
# Poissons Ratio (x) = 0.23675 0.07936
# Poissons Ratio (y) = 0.19794 0.16407
# Poissons Ratio (z) = 0.07128 0.17627
#
# Static dielectric constant tensor:
#      x y z
#    x 1.777280 0.000000 0.000000 
#    y 0.000000 1.825580 0.000000 
#    z 0.000000 0.000000 1.801100 
# 
# From -- ./inp_files/26684.got.cif
#   From: 2010.05.17/outbox.cif.g08.bks.cpg/sg40_14_cif.got.tgz:26684.got - 2010.06.03 18:35:42.
