data_PCOD9364319
_publ_section_title
;
Structure prediction by ZEFSAII (Michael W. Deem and Ramdas Pophale) SiO2 
 PCOD9364319
Probable space group: A M A 2
;
_chemical_formula_sum "Si O2"
_cell_formula_units_Z 44
_cell_length_a 23.248924
_cell_length_b 11.630317
_cell_length_c 7.568493
_cell_angle_alpha 90.000000
_cell_angle_beta 90.000000
_cell_angle_gamma 90.000000
_cell_volume 2046.462654
_symmetry_space_group_name_H-M "A M A 2"
_symmetry_group_IT_number 40
_symmetry_cell_setting 'orthorhombic'
loop_
_space_group_symop_operation_xyz
x,y,z
-x,-y,z
1/2-x,y,z
1/2+x,-y,z
x,1/2+y,1/2+z
-x,1/2-y,1/2+z
1/2-x,1/2+y,1/2+z
1/2+x,1/2-y,1/2+z
loop_
_atom_site_type_symbol
_atom_site_label
_atom_site_fract_x
_atom_site_fract_y
_atom_site_fract_z
Si Si1 0.052007 0.687471 0.922340
Si Si2 0.750000 0.412663 0.299862
Si Si3 0.750000 0.612662 0.563688
Si Si4 0.623850 0.013006 0.391612
Si Si5 0.848664 0.741970 0.675800
Si Si6 0.043410 0.899752 0.667192
Si Si7 0.250000 0.503066 0.923480
O O1 0.076874 0.576445 0.819607
O O2 0.052385 0.802209 0.809935
O O3 0.096048 0.703253 0.085255
O O4 0.990251 0.657046 0.001297
O O5 0.750000 0.488567 0.475617
O O6 0.806814 0.332569 0.276377
O O7 0.750000 0.503327 0.135707
O O8 0.806778 0.685437 0.527010
O O9 0.750000 0.599146 0.778949
O O10 0.630274 0.132882 0.289634
O O11 0.601597 0.047706 0.586817
O O12 0.685921 0.949765 0.388312
O O13 0.000000 0.000000 0.729733
#
# Coordination Sequence:
#
# PCOD9364319 Si02
#       7
#     8   4   4   8   8   8   4
#     4  11  22  40  62  87 122 160 206 260 312 374
#     4  11  21  41  63  88 137 166 205 269 311 378
#     4   9  23  37  59  94 123 170 215 253 329 380
#     4  10  22  41  60  89 126 157 205 261 308 366
#     4  10  22  39  59  91 123 160 216 259 307 391
#     4  10  24  40  61  91 119 163 209 253 319 371
#     4  10  20  40  62  90 130 162 208 260 304 376
#
# _framework density 21.500515
#
# number of rings (size 3 to 8) (size 9 to 14) (size 15 to 20)
#    0.000    1.818    1.818    1.636    2.545    4.364 
#    0.000    2.727    0.000    0.000    0.000    0.000 
#    0.000    0.000    0.000    0.000    0.000    0.000 
#
# Total GULP energy -122548.293697 kJ/mol
# GULP energy per Si atom -5570.376986 kJ/mol
# Density = 2.145158 g / cm^3
# Si number density = 21.500515 Si / 1000 Ang^3
#
#
#
# Elastic Constant Matrix: (Units=GPa)
#
#
# Indices 1 2 3 4 5 6 
#
# 1 83.7195 32.2898 27.1425 0.0000 0.0000 0.0000
# 2 32.2898 136.4963 46.7160 0.0000 0.0000 0.0000
# 3 27.1425 46.7160 34.7861 0.0000 0.0000 0.0000
# 4 0.0000 0.0000 0.0000 44.8679 0.0000 0.0000
# 5 0.0000 0.0000 0.0000 0.0000 11.9273 0.0000
# 6 0.0000 0.0000 0.0000 0.0000 0.0000 31.9495
#
#
#
# Elastic Compliance Matrix: (Units=1/GPa)
#
#
# Indices 1 2 3 4 5 6 
#
# 1 0.016050 0.000905 -0.013739 0.000000 0.000000 0.000000
# 2 0.000905 0.013609 -0.018982 0.000000 0.000000 0.000000
# 3 -0.013739 -0.018982 0.064960 0.000000 0.000000 0.000000
# 4 0.000000 0.000000 0.000000 0.022288 0.000000 0.000000
# 5 0.000000 0.000000 0.000000 0.000000 0.083841 0.000000
# 6 0.000000 0.000000 0.000000 0.000000 0.000000 0.031299
#
#
# Mechanical properties :
#
#
# Convention : Reuss Voigt Hill
#
# Bulk Modulus (GPa) = 32.27243 51.92206 42.09725
# Shear Modulus (GPa) = 16.33949 27.67252 22.00601
#
# Velocity S-wave (km/s) = 2.75972 3.59146 3.20271
# Velocity P-wave (km/s) = 5.01970 6.43426 5.77049
#
# Compressibility (1/GPa) = 0.03098620
#
# Stress axis : x y z
#
# Youngs Moduli (GPa) = 62.30638 73.48211 15.39414
#
# Poissons Ratio (x) = -0.06654 0.21150
# Poissons Ratio (y) = -0.05642 0.29222
# Poissons Ratio (z) = 0.85603 1.39487
#
# Static dielectric constant tensor:
#      x y z
#    x 1.843150 0.000000 0.000000 
#    y 0.000000 1.822280 0.000000 
#    z 0.000000 0.000000 1.794120 
# 
# From -- ./inp_files/8689.got.cif
#   From: 2010.05.17/outbox.cif.g08.bks.cpg/sg40_5_cif.got.tgz:8689.got - 2010.06.03 18:35:42.
