data_PCOD9364405
_publ_section_title
;
Structure prediction by ZEFSAII (Michael W. Deem and Ramdas Pophale) SiO2 
 PCOD9364405
Probable space group: A M A 2
;
_chemical_formula_sum "Si O2"
_cell_formula_units_Z 64
_cell_length_a 19.074399
_cell_length_b 22.651433
_cell_length_c 7.828913
_cell_angle_alpha 90.000000
_cell_angle_beta 90.000000
_cell_angle_gamma 90.000000
_cell_volume 3382.579496
_symmetry_space_group_name_H-M "A M A 2"
_symmetry_group_IT_number 40
_symmetry_cell_setting 'orthorhombic'
loop_
_space_group_symop_operation_xyz
x,y,z
-x,-y,z
1/2-x,y,z
1/2+x,-y,z
x,1/2+y,1/2+z
-x,1/2-y,1/2+z
1/2-x,1/2+y,1/2+z
1/2+x,1/2-y,1/2+z
loop_
_atom_site_type_symbol
_atom_site_label
_atom_site_fract_x
_atom_site_fract_y
_atom_site_fract_z
Si Si1 0.886217 0.485702 0.504170
Si Si2 0.329535 0.141917 0.682497
Si Si3 0.538615 0.557672 0.015223
Si Si4 0.481594 0.679311 0.096539
Si Si5 0.668320 0.990762 0.618972
Si Si6 0.962513 0.302564 0.699376
Si Si7 0.521833 0.583037 0.618079
Si Si8 0.673766 0.873062 0.093951
O O1 0.853362 0.493854 0.318667
O O2 0.907385 0.550084 0.568711
O O3 0.839304 0.443010 0.622904
O O4 0.958583 0.447352 0.512389
O O5 0.250000 0.162780 0.636899
O O6 0.400286 0.179046 0.655067
O O7 0.327228 0.131205 0.886972
O O8 0.342068 0.079529 0.583817
O O9 0.500000 0.500000 0.087538
O O10 0.518126 0.615545 0.122421
O O11 0.512802 0.567815 0.820147
O O12 0.618964 0.536553 0.020166
O O13 0.479306 0.688261 0.895238
O O14 0.525588 0.734377 0.163604
O O15 0.750000 0.003457 0.597710
O O16 0.886526 0.330681 0.663023
O O17 0.014690 0.346896 0.596942
O O18 0.750000 0.855830 0.158437
#
# Coordination Sequence:
#
# PCOD9364405 Si02
#       8
#     8   8   8   8   8   8   8   8
#     4   9  16  30  53  80 111 143 178 223 274 321
#     4   9  18  33  54  80 111 140 173 225 282 331
#     4  11  20  35  57  83 111 142 186 231 281 329
#     4  11  22  36  57  80 108 147 186 233 271 326
#     4  10  21  33  51  84 118 145 179 226 284 338
#     4  10  22  36  53  80 109 142 190 230 271 325
#     4   9  19  33  53  81 110 142 184 230 275 324
#     4   9  18  33  53  79 112 145 180 223 274 331
#
# _framework density 18.920470999999999
#
# number of rings (size 3 to 8) (size 9 to 14) (size 15 to 20)
#    0.000    2.250    2.500    1.875    1.750    2.500 
#    0.000    3.125    0.000    6.000    0.000    0.000 
#    0.000    0.000    0.000    0.000    0.000    0.000 
#
# Total GULP energy -178262.514066 kJ/mol
# GULP energy per Si atom -5570.703565 kJ/mol
# Density = 1.887741 g / cm^3
# Si number density = 18.920471 Si / 1000 Ang^3
#
#
#
# Elastic Constant Matrix: (Units=GPa)
#
#
# Indices 1 2 3 4 5 6 
#
# 1 99.9443 44.5450 -1.1242 0.0000 0.0000 0.0000
# 2 44.5450 108.5134 -0.9360 0.0000 0.0000 0.0000
# 3 -1.1242 -0.9360 5.4098 0.0000 0.0000 0.0000
# 4 0.0000 0.0000 0.0000 20.2611 0.0000 0.0000
# 5 0.0000 0.0000 0.0000 0.0000 14.2056 0.0000
# 6 0.0000 0.0000 0.0000 0.0000 0.0000 19.2828
#
#
#
# Elastic Compliance Matrix: (Units=1/GPa)
#
#
# Indices 1 2 3 4 5 6 
#
# 1 0.012261 -0.005019 0.001680 0.000000 0.000000 0.000000
# 2 -0.005019 0.011284 0.000909 0.000000 0.000000 0.000000
# 3 0.001680 0.000909 0.185356 0.000000 0.000000 0.000000
# 4 0.000000 0.000000 0.000000 0.049356 0.000000 0.000000
# 5 0.000000 0.000000 0.000000 0.000000 0.070395 0.000000
# 6 0.000000 0.000000 0.000000 0.000000 0.000000 0.051860
#
#
# Mechanical properties :
#
#
# Convention : Reuss Voigt Hill
#
# Bulk Modulus (GPa) = 4.90098 33.20411 19.05254
# Shear Modulus (GPa) = 11.02818 22.17541 16.60179
#
# Velocity S-wave (km/s) = 2.41689 3.42721 2.96539
# Velocity P-wave (km/s) = 3.22248 5.76614 4.67080
#
# Compressibility (1/GPa) = 0.20404097
#
# Stress axis : x y z
#
# Youngs Moduli (GPa) = 81.55706 88.62468 5.39503
#
# Poissons Ratio (x) = 0.44479 -0.00906
# Poissons Ratio (y) = 0.40932 -0.00491
# Poissons Ratio (z) = -0.13699 -0.08059
#
# Static dielectric constant tensor:
#      x y z
#    x 1.709730 0.000000 0.000000 
#    y 0.000000 1.712570 0.000000 
#    z 0.000000 0.000000 1.693490 
# 
# From -- ./inp_files/7900.got.cif
#   From: 2010.05.17/outbox.cif.g08.bks.cpg/sg40_4_cif.got.tgz:7900.got - 2010.06.03 18:35:42.
