data_PCOD9364176
_publ_section_title
;
Structure prediction by ZEFSAII (Michael W. Deem and Ramdas Pophale) SiO2 
 PCOD9364176
Probable space group: A M A 2
;
_chemical_formula_sum "Si O2"
_cell_formula_units_Z 64
_cell_length_a 18.067637
_cell_length_b 18.101925
_cell_length_c 9.723061
_cell_angle_alpha 90.000000
_cell_angle_beta 90.000000
_cell_angle_gamma 90.000000
_cell_volume 3180.014704
_symmetry_space_group_name_H-M "A M A 2"
_symmetry_group_IT_number 40
_symmetry_cell_setting 'orthorhombic'
loop_
_space_group_symop_operation_xyz
x,y,z
-x,-y,z
1/2-x,y,z
1/2+x,-y,z
x,1/2+y,1/2+z
-x,1/2-y,1/2+z
1/2-x,1/2+y,1/2+z
1/2+x,1/2-y,1/2+z
loop_
_atom_site_type_symbol
_atom_site_label
_atom_site_fract_x
_atom_site_fract_y
_atom_site_fract_z
Si Si1 0.636041 0.892470 0.232720
Si Si2 0.585560 0.030140 0.379948
Si Si3 0.335858 0.208907 0.491820
Si Si4 0.833124 0.775567 0.002086
Si Si5 0.584742 0.142198 0.878831
Si Si6 0.663255 0.611649 0.119860
Si Si7 0.562170 0.800928 0.741391
Si Si8 0.467239 0.864224 0.167942
O O1 0.660310 0.846102 0.364610
O O2 0.549795 0.888001 0.196886
O O3 0.638827 0.975749 0.291961
O O4 0.668480 0.846807 0.103449
O O5 0.617958 0.055369 0.525064
O O6 0.581819 0.103987 0.289439
O O7 0.500000 0.000000 0.394118
O O8 0.250000 0.223841 0.529080
O O9 0.375943 0.282422 0.432469
O O10 0.382521 0.174675 0.619114
O O11 0.750000 0.765539 0.946249
O O12 0.890694 0.788374 0.879743
O O13 0.852196 0.698691 0.081665
O O14 0.641123 0.101885 0.778511
O O15 0.510740 0.155251 0.787855
O O16 0.559997 0.106118 0.021726
O O17 0.750000 0.600269 0.098422
O O18 0.533349 0.723494 0.680631
#
# Coordination Sequence:
#
# PCOD9364176 Si02
#       8
#     8   8   8   8   8   8   8   8
#     4  11  21  39  62  91 125 164 204 261 318 383
#     4  10  24  41  66  91 127 166 218 260 318 391
#     4  11  23  37  58  92 130 162 203 264 330 377
#     4  11  21  37  62  92 128 166 212 264 324 383
#     4  11  22  36  65  92 125 163 213 268 322 379
#     4  11  23  41  64  96 130 168 216 265 325 393
#     4  11  21  35  63  91 127 159 214 266 318 374
#     4  10  20  38  59  93 120 164 210 263 313 379
#
# _framework density 20.125693999999999
#
# number of rings (size 3 to 8) (size 9 to 14) (size 15 to 20)
#    0.000    1.250    5.000    1.125    5.250    1.000 
#    0.000    3.750    0.000    1.500    0.000    0.000 
#    0.000    0.000    0.000    0.000    0.000    0.000 
#
# Total GULP energy -178313.615527 kJ/mol
# GULP energy per Si atom -5572.300485 kJ/mol
# Density = 2.007989 g / cm^3
# Si number density = 20.125694 Si / 1000 Ang^3
#
#
#
# Elastic Constant Matrix: (Units=GPa)
#
#
# Indices 1 2 3 4 5 6 
#
# 1 78.1687 6.1774 23.5106 0.0000 0.0000 0.0000
# 2 6.1774 17.7910 -7.3450 0.0000 0.0000 0.0000
# 3 23.5106 -7.3450 93.6564 0.0000 0.0000 0.0000
# 4 0.0000 0.0000 0.0000 20.5309 0.0000 0.0000
# 5 0.0000 0.0000 0.0000 0.0000 28.8716 0.0000
# 6 0.0000 0.0000 0.0000 0.0000 0.0000 37.5561
#
#
#
# Elastic Compliance Matrix: (Units=1/GPa)
#
#
# Indices 1 2 3 4 5 6 
#
# 1 0.014592 -0.006799 -0.004196 0.000000 0.000000 0.000000
# 2 -0.006799 0.061257 0.006511 0.000000 0.000000 0.000000
# 3 -0.004196 0.006511 0.012241 0.000000 0.000000 0.000000
# 4 0.000000 0.000000 0.000000 0.048707 0.000000 0.000000
# 5 0.000000 0.000000 0.000000 0.000000 0.034636 0.000000
# 6 0.000000 0.000000 0.000000 0.000000 0.000000 0.026627
#
#
# Mechanical properties :
#
#
# Convention : Reuss Voigt Hill
#
# Bulk Modulus (GPa) = 12.63880 26.03356 19.33618
# Shear Modulus (GPa) = 21.42210 28.54325 24.98267
#
# Velocity S-wave (km/s) = 3.26608 3.77005 3.52708
# Velocity P-wave (km/s) = 4.52952 5.64930 5.12012
#
# Compressibility (1/GPa) = 0.07912145
#
# Stress axis : x y z
#
# Youngs Moduli (GPa) = 68.52938 16.32465 81.69036
#
# Poissons Ratio (x) = 0.11099 0.34280
# Poissons Ratio (y) = 0.46594 -0.53188
# Poissons Ratio (z) = 0.28757 -0.10629
#
# Static dielectric constant tensor:
#      x y z
#    x 1.750140 0.000000 0.000000 
#    y 0.000000 1.758330 0.000000 
#    z 0.000000 0.000000 1.726720 
# 
# From -- ./inp_files/7806.got.cif
#   From: 2010.05.17/outbox.cif.g08.bks.cpg/sg40_4_cif.got.tgz:7806.got - 2010.06.03 18:35:42.
