data_PCOD9364727
_publ_section_title
;
Structure prediction by ZEFSAII (Michael W. Deem and Ramdas Pophale) SiO2 
 PCOD9364727
Probable space group: A M A 2
;
_chemical_formula_sum "Si O2"
_cell_formula_units_Z 48
_cell_length_a 8.367302
_cell_length_b 14.157359
_cell_length_c 19.292430
_cell_angle_alpha 90.000000
_cell_angle_beta 90.000000
_cell_angle_gamma 90.000000
_cell_volume 2285.360003
_symmetry_space_group_name_H-M "A M A 2"
_symmetry_group_IT_number 40
_symmetry_cell_setting 'orthorhombic'
loop_
_space_group_symop_operation_xyz
x,y,z
-x,-y,z
1/2-x,y,z
1/2+x,-y,z
x,1/2+y,1/2+z
-x,1/2-y,1/2+z
1/2-x,1/2+y,1/2+z
1/2+x,1/2-y,1/2+z
loop_
_atom_site_type_symbol
_atom_site_label
_atom_site_fract_x
_atom_site_fract_y
_atom_site_fract_z
Si Si1 0.433868 0.899076 0.628300
Si Si2 0.942363 0.102974 0.004990
Si Si3 0.942445 0.607192 0.788974
Si Si4 0.936279 0.407875 0.280126
Si Si5 0.941387 0.193994 0.142598
Si Si6 0.558708 0.242801 0.884049
O O1 0.250000 0.891585 0.609208
O O2 0.456586 0.904431 0.711563
O O3 0.519560 0.799485 0.615368
O O4 0.500000 0.000000 0.601521
O O5 0.750000 0.100854 0.005601
O O6 0.987873 0.191586 0.955853
O O7 0.000986 0.123500 0.083035
O O8 0.000000 0.000000 0.981799
O O9 0.750000 0.611050 0.791159
O O10 0.998993 0.665128 0.719643
O O11 0.000000 0.500000 0.781265
O O12 0.010373 0.652593 0.860077
O O13 0.750000 0.414083 0.261124
O O14 0.000000 0.500000 0.319406
O O15 0.967618 0.318985 0.326895
O O16 0.750000 0.188018 0.146385
O O17 0.750000 0.233333 0.877224
#
# Coordination Sequence:
#
# PCOD9364727 Si02
#       6
#     8   8   8   8   8   8
#     4  11  21  34  56  86 119 156 198 247 301 356
#     4  10  23  41  63  91 125 164 202 250 303 365
#     4  11  23  39  63  90 120 158 203 254 307 366
#     4  11  20  32  52  81 116 153 192 240 296 351
#     4  10  21  40  62  89 125 162 203 249 305 362
#     4  11  22  38  59  87 121 157 202 250 302 360
#
# _framework density 21.003256
#
# number of rings (size 3 to 8) (size 9 to 14) (size 15 to 20)
#    0.000    1.333    1.667    6.000    0.000    4.000 
#    0.000    0.833    0.000    0.000    0.000    0.000 
#    0.000    0.000    0.000    0.000    0.000    0.000 
#
# Total GULP energy -133867.199449 kJ/mol
# GULP energy per Si atom -5577.799977 kJ/mol
# Density = 2.095545 g / cm^3
# Si number density = 21.003256 Si / 1000 Ang^3
#
#
#
# Elastic Constant Matrix: (Units=GPa)
#
#
# Indices 1 2 3 4 5 6 
#
# 1 38.7312 1.4259 11.5274 0.0000 0.0000 0.0000
# 2 1.4259 114.9856 35.6593 0.0000 0.0000 0.0000
# 3 11.5274 35.6593 81.3731 0.0000 0.0000 0.0000
# 4 0.0000 0.0000 0.0000 25.7760 0.0000 0.0000
# 5 0.0000 0.0000 0.0000 0.0000 14.8556 0.0000
# 6 0.0000 0.0000 0.0000 0.0000 0.0000 38.3013
#
#
#
# Elastic Compliance Matrix: (Units=1/GPa)
#
#
# Indices 1 2 3 4 5 6 
#
# 1 0.027052 0.000987 -0.004265 0.000000 0.000000 0.000000
# 2 0.000987 0.010101 -0.004566 0.000000 0.000000 0.000000
# 3 -0.004265 -0.004566 0.014894 0.000000 0.000000 0.000000
# 4 0.000000 0.000000 0.000000 0.038796 0.000000 0.000000
# 5 0.000000 0.000000 0.000000 0.000000 0.067315 0.000000
# 6 0.000000 0.000000 0.000000 0.000000 0.000000 0.026109
#
#
# Mechanical properties :
#
#
# Convention : Reuss Voigt Hill
#
# Bulk Modulus (GPa) = 27.50341 36.92390 32.21365
# Shear Modulus (GPa) = 23.57677 28.21839 25.89758
#
# Velocity S-wave (km/s) = 3.35405 3.66939 3.51526
# Velocity P-wave (km/s) = 5.30309 5.96413 5.64330
#
# Compressibility (1/GPa) = 0.03635913
#
# Stress axis : x y z
#
# Youngs Moduli (GPa) = 36.96595 99.00466 67.14030
#
# Poissons Ratio (x) = -0.09773 0.28634
# Poissons Ratio (y) = -0.03649 0.30657
# Poissons Ratio (z) = 0.15765 0.45206
#
# Static dielectric constant tensor:
#      x y z
#    x 1.712060 0.000000 0.000000 
#    y 0.000000 1.907470 0.000000 
#    z 0.000000 0.000000 1.785080 
# 
# From -- ./inp_files/19207.got.cif
#   From: 2010.05.17/outbox.cif.g08.bks.cpg/sg40_10_cif.got.tgz:19207.got - 2010.06.03 18:35:42.
