data_PCOD9364068
_publ_section_title
;
Structure prediction by ZEFSAII (Michael W. Deem and Ramdas Pophale) SiO2 
 PCOD9364068
Probable space group: A M A 2
;
_chemical_formula_sum "Si O2"
_cell_formula_units_Z 56
_cell_length_a 24.641247
_cell_length_b 12.088853
_cell_length_c 7.768857
_cell_angle_alpha 90.000000
_cell_angle_beta 90.000000
_cell_angle_gamma 90.000000
_cell_volume 2314.221405
_symmetry_space_group_name_H-M "A M A 2"
_symmetry_group_IT_number 40
_symmetry_cell_setting 'orthorhombic'
loop_
_space_group_symop_operation_xyz
x,y,z
-x,-y,z
1/2-x,y,z
1/2+x,-y,z
x,1/2+y,1/2+z
-x,1/2-y,1/2+z
1/2-x,1/2+y,1/2+z
1/2+x,1/2-y,1/2+z
loop_
_atom_site_type_symbol
_atom_site_label
_atom_site_fract_x
_atom_site_fract_y
_atom_site_fract_z
Si Si1 0.810188 0.622973 0.676350
Si Si2 0.187225 0.726803 0.859889
Si Si3 0.603616 0.454445 0.850737
Si Si4 0.420800 0.539239 0.495566
Si Si5 0.523246 0.664997 0.401778
Si Si6 0.155956 0.714925 0.457071
Si Si7 0.450811 0.849789 0.519410
O O1 0.750000 0.572589 0.681537
O O2 0.819911 0.665994 0.481760
O O3 0.852579 0.536753 0.757393
O O4 0.810679 0.730224 0.803413
O O5 0.250000 0.691485 0.886173
O O6 0.141429 0.640908 0.925765
O O7 0.178581 0.735485 0.651502
O O8 0.571142 0.410056 0.685804
O O9 0.563376 0.525496 0.966482
O O10 0.467445 0.595419 0.382029
O O11 0.437970 0.411413 0.517814
O O12 0.362616 0.586680 0.436492
O O13 0.505518 0.785855 0.463846
O O14 0.552552 0.661883 0.221945
O O15 0.099080 0.780024 0.444784
#
# Coordination Sequence:
#
# PCOD9364068 Si02
#       7
#     8   8   8   8   8   8   8
#     4  10  21  37  61  90 123 160 200 250 304 367
#     4  10  21  38  61  91 121 158 199 244 304 366
#     4  10  21  39  61  86 120 159 199 248 305 366
#     4   9  20  37  56  80 116 150 190 245 295 355
#     4  10  20  37  55  83 115 144 199 243 295 357
#     4   9  20  38  57  86 119 156 195 248 300 359
#     4  10  21  36  59  84 112 156 196 245 302 356
#
# _framework density 24.198202999999999
#
# number of rings (size 3 to 8) (size 9 to 14) (size 15 to 20)
#    0.000    2.286    0.000    1.714    4.000    0.000 
#    0.000    7.143    0.000    8.571    0.000    0.000 
#    0.000    0.000    0.000    0.000    0.000    0.000 
#
# Total GULP energy -156209.935295 kJ/mol
# GULP energy per Si atom -5578.926261 kJ/mol
# Density = 2.414313 g / cm^3
# Si number density = 24.198203 Si / 1000 Ang^3
#
#
#
# Elastic Constant Matrix: (Units=GPa)
#
#
# Indices 1 2 3 4 5 6 
#
# 1 70.2161 12.1078 3.5721 0.0000 0.0000 0.0000
# 2 12.1078 77.8932 6.5991 0.0000 0.0000 0.0000
# 3 3.5721 6.5991 42.3068 0.0000 0.0000 0.0000
# 4 0.0000 0.0000 0.0000 34.4514 0.0000 0.0000
# 5 0.0000 0.0000 0.0000 0.0000 33.6914 0.0000
# 6 0.0000 0.0000 0.0000 0.0000 0.0000 36.4338
#
#
#
# Elastic Compliance Matrix: (Units=1/GPa)
#
#
# Indices 1 2 3 4 5 6 
#
# 1 0.014667 -0.002204 -0.000895 0.000000 0.000000 0.000000
# 2 -0.002204 0.013341 -0.001895 0.000000 0.000000 0.000000
# 3 -0.000895 -0.001895 0.024008 0.000000 0.000000 0.000000
# 4 0.000000 0.000000 0.000000 0.029026 0.000000 0.000000
# 5 0.000000 0.000000 0.000000 0.000000 0.029681 0.000000
# 6 0.000000 0.000000 0.000000 0.000000 0.000000 0.027447
#
#
# Mechanical properties :
#
#
# Convention : Reuss Voigt Hill
#
# Bulk Modulus (GPa) = 23.79293 26.10823 24.95058
# Shear Modulus (GPa) = 30.83222 32.12448 31.47835
#
# Velocity S-wave (km/s) = 3.57340 3.64752 3.61065
# Velocity P-wave (km/s) = 5.18454 5.34340 5.26457
#
# Compressibility (1/GPa) = 0.04202929
#
# Stress axis : x y z
#
# Youngs Moduli (GPa) = 68.17879 74.95557 41.65288
#
# Poissons Ratio (x) = 0.16521 0.03726
# Poissons Ratio (y) = 0.15027 0.07893
# Poissons Ratio (z) = 0.06099 0.14203
#
# Static dielectric constant tensor:
#      x y z
#    x 1.946250 0.000000 0.000000 
#    y 0.000000 2.103720 0.000000 
#    z 0.000000 0.000000 1.928620 
# 
# From -- ./inp_files/3388.got.cif
#   From: 2010.05.17/outbox.cif.g08.bks.cpg/sg40_2_cif.got.tgz:3388.got - 2010.06.03 18:35:42.
