data_PCOD9364612
_publ_section_title
;
Structure prediction by ZEFSAII (Michael W. Deem and Ramdas Pophale) SiO2 
 PCOD9364612
Probable space group: A M A 2
;
_chemical_formula_sum "Si O2"
_cell_formula_units_Z 64
_cell_length_a 18.662326
_cell_length_b 15.764851
_cell_length_c 12.016028
_cell_angle_alpha 90.000000
_cell_angle_beta 90.000000
_cell_angle_gamma 90.000000
_cell_volume 3535.221043
_symmetry_space_group_name_H-M "A M A 2"
_symmetry_group_IT_number 40
_symmetry_cell_setting 'orthorhombic'
loop_
_space_group_symop_operation_xyz
x,y,z
-x,-y,z
1/2-x,y,z
1/2+x,-y,z
x,1/2+y,1/2+z
-x,1/2-y,1/2+z
1/2-x,1/2+y,1/2+z
1/2+x,1/2-y,1/2+z
loop_
_atom_site_type_symbol
_atom_site_label
_atom_site_fract_x
_atom_site_fract_y
_atom_site_fract_z
Si Si1 0.441758 0.621410 0.418360
Si Si2 0.606355 0.566779 0.447752
Si Si3 0.572894 0.049165 0.379500
Si Si4 0.332223 0.043915 0.559353
Si Si5 0.088500 0.695411 0.175694
Si Si6 0.940092 0.208428 0.546442
Si Si7 0.332108 0.379623 0.213534
Si Si8 0.664861 0.125610 0.183793
O O1 0.524069 0.598660 0.446808
O O2 0.397002 0.535383 0.436418
O O3 0.435357 0.651089 0.290584
O O4 0.419775 0.701677 0.492885
O O5 0.643039 0.608017 0.339717
O O6 0.645707 0.594215 0.560003
O O7 0.558176 0.135271 0.450992
O O8 0.620308 0.071071 0.272821
O O9 0.500000 0.000000 0.350640
O O10 0.618417 0.989007 0.460356
O O11 0.250000 0.051956 0.524195
O O12 0.362882 0.129969 0.608170
O O13 0.336029 0.971721 0.654517
O O14 0.134014 0.779563 0.197034
O O15 0.017685 0.714776 0.103908
O O16 0.884118 0.179228 0.640769
O O17 0.250000 0.350290 0.207856
O O18 0.750000 0.122386 0.203515
#
# Coordination Sequence:
#
# PCOD9364612 Si02
#       8
#     8   8   8   8   8   8   8   8
#     4  11  23  40  65  97 124 166 214 268 311 373
#     4  11  23  41  67  90 128 167 214 262 319 379
#     4  11  23  39  66  92 125 168 209 264 319 375
#     4  10  21  38  62  93 123 160 211 262 317 377
#     4  12  21  40  67  93 127 164 213 265 316 378
#     4  11  22  40  64  97 127 160 216 268 315 376
#     4  10  21  38  63  93 128 164 206 266 324 370
#     4  12  27  43  61  93 135 172 205 259 328 388
#
# _framework density 18.103535000000001
#
# number of rings (size 3 to 8) (size 9 to 14) (size 15 to 20)
#    0.000    1.000    6.250    1.125    1.750    0.500 
#    0.000    2.500    0.000    0.000    0.000    0.000 
#    0.000    0.000    0.000    0.000    0.000    0.000 
#
# Total GULP energy -178807.885014 kJ/mol
# GULP energy per Si atom -5587.746407 kJ/mol
# Density = 1.806233 g / cm^3
# Si number density = 18.103535 Si / 1000 Ang^3
#
#
#
# Elastic Constant Matrix: (Units=GPa)
#
#
# Indices 1 2 3 4 5 6 
#
# 1 123.5770 36.3809 51.0739 0.0000 0.0000 0.0000
# 2 36.3809 87.3847 31.6131 0.0000 0.0000 0.0000
# 3 51.0739 31.6131 96.7967 0.0000 0.0000 0.0000
# 4 0.0000 0.0000 0.0000 20.9658 0.0000 0.0000
# 5 0.0000 0.0000 0.0000 0.0000 -31.8403 0.0000
# 6 0.0000 0.0000 0.0000 0.0000 0.0000 -12.3026
#
#
#
# Elastic Compliance Matrix: (Units=1/GPa)
#
#
# Indices 1 2 3 4 5 6 
#
# 1 0.010918 -0.002791 -0.004849 0.000000 0.000000 0.000000
# 2 -0.002791 0.013690 -0.002998 0.000000 0.000000 0.000000
# 3 -0.004849 -0.002998 0.013869 0.000000 0.000000 0.000000
# 4 0.000000 0.000000 0.000000 0.047697 0.000000 0.000000
# 5 0.000000 0.000000 0.000000 0.000000 -0.031407 0.000000
# 6 0.000000 0.000000 0.000000 0.000000 0.000000 -0.081284
#
#
# Mechanical properties :
#
#
# Convention : Reuss Voigt Hill
#
# Bulk Modulus (GPa) = 58.14090 60.65491 59.39791
# Shear Modulus (GPa) = 10113.73222 7.94394 5060.83808
#
# Velocity S-wave (km/s) = 74.82469 2.09704 52.92982
# Velocity P-wave (km/s) = 86.58617 6.28018 61.38650
#
# Compressibility (1/GPa) = 0.01719959
#
# Stress axis : x y z
#
# Youngs Moduli (GPa) = 91.59180 73.04360 72.10409
#
# Poissons Ratio (x) = 0.20388 0.34965
# Poissons Ratio (y) = 0.25565 0.21620
# Poissons Ratio (z) = 0.44415 0.21902
#
# Static dielectric constant tensor:
#      x y z
#    x 1.602020 0.000000 0.000000 
#    y 0.000000 1.604070 0.000000 
#    z 0.000000 0.000000 1.600960 
# 
# From -- ./inp_files/13098.got.cif
#   From: 2010.05.17/outbox.cif.g08.bks.cpg/sg40_7_cif.got.tgz:13098.got - 2010.06.03 18:35:42.
