data_PCOD9364060
_publ_section_title
;
Structure prediction by ZEFSAII (Michael W. Deem and Ramdas Pophale) SiO2 
 PCOD9364060
Probable space group: A M A 2
;
_chemical_formula_sum "Si O2"
_cell_formula_units_Z 56
_cell_length_a 23.607055
_cell_length_b 17.319001
_cell_length_c 6.229610
_cell_angle_alpha 90.000000
_cell_angle_beta 90.000000
_cell_angle_gamma 90.000000
_cell_volume 2546.979843
_symmetry_space_group_name_H-M "A M A 2"
_symmetry_group_IT_number 40
_symmetry_cell_setting 'orthorhombic'
loop_
_space_group_symop_operation_xyz
x,y,z
-x,-y,z
1/2-x,y,z
1/2+x,-y,z
x,1/2+y,1/2+z
-x,1/2-y,1/2+z
1/2-x,1/2+y,1/2+z
1/2+x,1/2-y,1/2+z
loop_
_atom_site_type_symbol
_atom_site_label
_atom_site_fract_x
_atom_site_fract_y
_atom_site_fract_z
Si Si1 0.050642 0.268648 0.270170
Si Si2 0.106255 0.578358 0.466380
Si Si3 0.364383 0.715704 0.136948
Si Si4 0.184189 0.971836 0.683254
Si Si5 0.114186 0.352980 0.903207
Si Si6 0.986596 0.119483 0.102049
Si Si7 0.190694 0.608803 0.839483
O O1 0.088924 0.236155 0.460413
O O2 0.029677 0.350027 0.365971
O O3 0.009067 0.199008 0.212658
O O4 0.081671 0.292391 0.054288
O O5 0.111652 0.647975 0.292275
O O6 0.141477 0.506723 0.363953
O O7 0.140451 0.606422 0.673040
O O8 0.041930 0.566958 0.552291
O O9 0.350398 0.795942 0.251069
O O10 0.313989 0.680259 0.999627
O O11 0.250000 0.957590 0.754074
O O12 0.187668 0.036121 0.496641
O O13 0.153200 0.902113 0.561514
O O14 0.067924 0.399229 0.754058
O O15 0.250000 0.608805 0.717358
#
# Coordination Sequence:
#
# PCOD9364060 Si02
#       7
#     8   8   8   8   8   8   8
#     4  11  19  36  61  96 128 168 204 268 342 403
#     4  11  21  40  67  91 127 173 221 275 334 404
#     4  10  20  36  63  96 124 161 218 271 334 406
#     4  10  25  46  64  87 130 184 231 277 335 404
#     4  11  23  38  64  96 133 172 216 276 348 411
#     4  11  20  34  64  94 129 164 212 273 342 411
#     4  10  21  40  66  90 119 167 226 281 330 392
#
# _framework density 21.986823999999999
#
# number of rings (size 3 to 8) (size 9 to 14) (size 15 to 20)
#    0.000    1.429    4.286    1.286    0.000    3.429 
#    0.000    6.429    0.000    0.000    0.000    0.000 
#    0.000    0.000    0.000    0.000    0.000    0.000 
#
# Total GULP energy -156132.418709 kJ/mol
# GULP energy per Si atom -5576.157811 kJ/mol
# Density = 2.193678 g / cm^3
# Si number density = 21.986824 Si / 1000 Ang^3
#
#
#
# Elastic Constant Matrix: (Units=GPa)
#
#
# Indices 1 2 3 4 5 6 
#
# 1 100.5883 40.0591 22.0791 0.0000 0.0000 0.0000
# 2 40.0591 68.9271 25.7624 0.0000 0.0000 0.0000
# 3 22.0791 25.7624 71.9021 0.0000 0.0000 0.0000
# 4 0.0000 0.0000 0.0000 38.8106 0.0000 0.0000
# 5 0.0000 0.0000 0.0000 0.0000 22.0124 0.0000
# 6 0.0000 0.0000 0.0000 0.0000 0.0000 -11.7782
#
#
#
# Elastic Compliance Matrix: (Units=1/GPa)
#
#
# Indices 1 2 3 4 5 6 
#
# 1 0.013073 -0.007040 -0.001492 0.000000 0.000000 0.000000
# 2 -0.007040 0.020543 -0.005199 0.000000 0.000000 0.000000
# 3 -0.001492 -0.005199 0.016229 0.000000 0.000000 0.000000
# 4 0.000000 0.000000 0.000000 0.025766 0.000000 0.000000
# 5 0.000000 0.000000 0.000000 0.000000 0.045429 0.000000
# 6 0.000000 0.000000 0.000000 0.000000 0.000000 -0.084903
#
#
# Mechanical properties :
#
#
# Convention : Reuss Voigt Hill
#
# Bulk Modulus (GPa) = 44.67678 46.35763 45.51721
# Shear Modulus (GPa) = 70.36492 20.04342 45.20417
#
# Velocity S-wave (km/s) = 5.66328 3.02256 4.53920
# Velocity P-wave (km/s) = 7.94528 5.77159 6.94402
#
# Compressibility (1/GPa) = 0.02238299
#
# Stress axis : x y z
#
# Youngs Moduli (GPa) = 76.49574 48.67924 61.61984
#
# Poissons Ratio (x) = 0.34270 0.09193
# Poissons Ratio (y) = 0.53853 0.32034
# Poissons Ratio (z) = 0.11412 0.25306
#
# Static dielectric constant tensor:
#      x y z
#    x 1.846670 0.000000 0.000000 
#    y 0.000000 1.904260 0.000000 
#    z 0.000000 0.000000 1.799820 
# 
# From -- ./inp_files/2798.got.cif
#   From: 2010.05.17/outbox.cif.g08.bks.cpg/sg40_2_cif.got.tgz:2798.got - 2010.06.03 18:35:42.
