data_PCOD9364278
_publ_section_title
;
Structure prediction by ZEFSAII (Michael W. Deem and Ramdas Pophale) SiO2 
 PCOD9364278
Probable space group: A M A 2
;
_chemical_formula_sum "Si O2"
_cell_formula_units_Z 56
_cell_length_a 16.105797
_cell_length_b 5.015108
_cell_length_c 31.683208
_cell_angle_alpha 90.000000
_cell_angle_beta 90.000000
_cell_angle_gamma 90.000000
_cell_volume 2559.125942
_symmetry_space_group_name_H-M "A M A 2"
_symmetry_group_IT_number 40
_symmetry_cell_setting 'orthorhombic'
loop_
_space_group_symop_operation_xyz
x,y,z
-x,-y,z
1/2-x,y,z
1/2+x,-y,z
x,1/2+y,1/2+z
-x,1/2-y,1/2+z
1/2-x,1/2+y,1/2+z
1/2+x,1/2-y,1/2+z
loop_
_atom_site_type_symbol
_atom_site_label
_atom_site_fract_x
_atom_site_fract_y
_atom_site_fract_z
Si Si1 0.155210 0.620536 0.021040
Si Si2 0.592524 0.381962 0.568828
Si Si3 0.558258 0.247049 0.937002
Si Si4 0.649989 0.108082 0.850744
Si Si5 0.154214 0.622226 0.213423
Si Si6 0.906225 0.891202 0.165960
Si Si7 0.350352 0.897072 0.298587
O O1 0.250000 0.530440 0.018310
O O2 0.102480 0.382360 0.041371
O O3 0.148448 0.882304 0.050100
O O4 0.120053 0.691808 0.975236
O O5 0.500000 0.500000 0.566812
O O6 0.611170 0.315727 0.617537
O O7 0.500000 0.500000 0.929678
O O8 0.606918 0.176986 0.894390
O O9 0.500000 0.000000 0.949238
O O10 0.750000 0.133918 0.854788
O O11 0.622196 0.312387 0.813739
O O12 0.631412 0.809348 0.836036
O O13 0.250000 0.542013 0.221539
O O14 0.108207 0.362431 0.195957
O O15 0.118535 0.762980 0.255543
O O16 0.150022 0.859675 0.179533
O O17 0.000000 0.000000 0.168974
O O18 0.250000 0.912375 0.293388
#
# Coordination Sequence:
#
# PCOD9364278 Si02
#       7
#     8   8   8   8   8   8   8
#     4  12  25  42  66  95 123 158 209 260 308 369
#     4  11  24  43  65  89 125 168 206 252 317 380
#     4  12  25  42  63  90 126 161 198 245 308 371
#     4  10  20  39  63  87 118 158 205 251 298 357
#     4  11  22  39  64  92 123 164 214 261 308 369
#     4  11  24  41  61  90 128 167 205 254 319 379
#     4   9  19  36  61  89 119 158 202 251 305 357
#
# _framework density 21.882472
#
# number of rings (size 3 to 8) (size 9 to 14) (size 15 to 20)
#    0.000    1.143    0.000    6.857    0.000    8.000 
#    0.000   11.429    0.000    0.000    0.000    0.000 
#    0.000    0.000    0.000    0.000    0.000    0.000 
#
# Total GULP energy -156750.522749 kJ/mol
# GULP energy per Si atom -5598.232955 kJ/mol
# Density = 2.183267 g / cm^3
# Si number density = 21.882472 Si / 1000 Ang^3
#
#
#
# Elastic Constant Matrix: (Units=GPa)
#
#
# Indices 1 2 3 4 5 6 
#
# 1 40.6710 -3.9896 13.8542 0.0000 0.0000 0.0000
# 2 -3.9896 78.9265 -11.8459 0.0000 0.0000 0.0000
# 3 13.8542 -11.8459 78.4868 0.0000 0.0000 0.0000
# 4 0.0000 0.0000 0.0000 21.9349 0.0000 0.0000
# 5 0.0000 0.0000 0.0000 0.0000 6.3700 0.0000
# 6 0.0000 0.0000 0.0000 0.0000 0.0000 52.3934
#
#
#
# Elastic Compliance Matrix: (Units=1/GPa)
#
#
# Indices 1 2 3 4 5 6 
#
# 1 0.026193 0.000645 -0.004526 0.000000 0.000000 0.000000
# 2 0.000645 0.012980 0.001845 0.000000 0.000000 0.000000
# 3 -0.004526 0.001845 0.013818 0.000000 0.000000 0.000000
# 4 0.000000 0.000000 0.000000 0.045589 0.000000 0.000000
# 5 0.000000 0.000000 0.000000 0.000000 0.156985 0.000000
# 6 0.000000 0.000000 0.000000 0.000000 0.000000 0.019086
#
#
# Mechanical properties :
#
#
# Convention : Reuss Voigt Hill
#
# Bulk Modulus (GPa) = 20.44235 21.56908 21.00571
# Shear Modulus (GPa) = 16.94742 29.47736 23.21239
#
# Velocity S-wave (km/s) = 2.78596 3.67424 3.26049
# Velocity P-wave (km/s) = 4.43970 5.27998 4.87797
#
# Compressibility (1/GPa) = 0.04891805
#
# Stress axis : x y z
#
# Youngs Moduli (GPa) = 38.17873 77.04430 72.36721
#
# Poissons Ratio (x) = -0.04967 0.32754
# Poissons Ratio (y) = -0.02461 -0.13353
# Poissons Ratio (z) = 0.17280 -0.14216
#
# Static dielectric constant tensor:
#      x y z
#    x 1.809500 0.000000 0.000000 
#    y 0.000000 1.754950 0.000000 
#    z 0.000000 0.000000 1.783910 
# 
# From -- ./inp_files/26603.got.cif
#   From: 2010.05.17/outbox.cif.g08.bks.cpg/sg40_14_cif.got.tgz:26603.got - 2010.06.03 18:35:42.
