data_PCOD9364868
_publ_section_title
;
Structure prediction by ZEFSAII (Michael W. Deem and Ramdas Pophale) SiO2 
 PCOD9364868
Probable space group: A M A 2
;
_chemical_formula_sum "Si O2"
_cell_formula_units_Z 40
_cell_length_a 20.834338
_cell_length_b 8.234390
_cell_length_c 10.785389
_cell_angle_alpha 90.000000
_cell_angle_beta 90.000000
_cell_angle_gamma 90.000000
_cell_volume 1850.320462
_symmetry_space_group_name_H-M "A M A 2"
_symmetry_group_IT_number 40
_symmetry_cell_setting 'orthorhombic'
loop_
_space_group_symop_operation_xyz
x,y,z
-x,-y,z
1/2-x,y,z
1/2+x,-y,z
x,1/2+y,1/2+z
-x,1/2-y,1/2+z
1/2-x,1/2+y,1/2+z
1/2+x,1/2-y,1/2+z
loop_
_atom_site_type_symbol
_atom_site_label
_atom_site_fract_x
_atom_site_fract_y
_atom_site_fract_z
Si Si1 0.454025 0.345086 0.968920
Si Si2 0.250000 0.156980 0.987909
Si Si3 0.500000 0.000000 0.044784
Si Si4 0.644559 0.698536 0.172936
Si Si5 0.117685 0.460465 0.735699
Si Si6 0.750000 0.656260 0.613869
Si Si7 0.250000 0.548400 0.233043
O O1 0.500000 0.500000 0.954492
O O2 0.405231 0.362254 0.854586
O O3 0.485386 0.165557 0.969890
O O4 0.417991 0.360679 0.100923
O O5 0.310221 0.226425 0.063546
O O6 0.250000 0.960835 0.995969
O O7 0.250000 0.180443 0.842346
O O8 0.561341 0.037913 0.132516
O O9 0.686517 0.559911 0.235198
O O10 0.628966 0.848105 0.263172
O O11 0.183823 0.393501 0.681091
O O12 0.750000 0.849650 0.604757
#
# Coordination Sequence:
#
# PCOD9364868 Si02
#       7
#     8   4   4   8   8   4   4
#     4  11  23  43  67  92 128 176 217 270 333 390
#     4   9  19  41  58  84 128 166 197 268 333 375
#     4  10  24  46  66  98 136 170 228 278 318 404
#     4   9  22  40  60  89 132 157 214 272 316 396
#     4  10  21  46  65  93 134 176 213 279 336 381
#     4  10  22  36  68  96 128 170 222 270 330 404
#     4  11  21  37  64 100 122 170 213 264 333 397
#
# _framework density 21.617875999999999
#
# number of rings (size 3 to 8) (size 9 to 14) (size 15 to 20)
#    0.000    2.000    1.000    1.800    2.800    2.400 
#   12.600    2.000    0.000    0.000    0.000    0.000 
#    0.000    0.000    0.000    0.000    0.000    0.000 
#
# Total GULP energy -111631.244158 kJ/mol
# GULP energy per Si atom -5581.562208 kJ/mol
# Density = 2.156867 g / cm^3
# Si number density = 21.617876 Si / 1000 Ang^3
#
#
#
# Elastic Constant Matrix: (Units=GPa)
#
#
# Indices 1 2 3 4 5 6 
#
# 1 109.2708 36.7753 15.3966 0.0000 0.0000 0.0000
# 2 36.7753 82.9146 25.4641 0.0000 0.0000 0.0000
# 3 15.3966 25.4641 44.4445 0.0000 0.0000 0.0000
# 4 0.0000 0.0000 0.0000 27.0462 0.0000 0.0000
# 5 0.0000 0.0000 0.0000 0.0000 15.7911 0.0000
# 6 0.0000 0.0000 0.0000 0.0000 0.0000 34.5478
#
#
#
# Elastic Compliance Matrix: (Units=1/GPa)
#
#
# Indices 1 2 3 4 5 6 
#
# 1 0.010811 -0.004423 -0.001211 0.000000 0.000000 0.000000
# 2 -0.004423 0.016445 -0.007890 0.000000 0.000000 0.000000
# 3 -0.001211 -0.007890 0.027440 0.000000 0.000000 0.000000
# 4 0.000000 0.000000 0.000000 0.036974 0.000000 0.000000
# 5 0.000000 0.000000 0.000000 0.000000 0.063327 0.000000
# 6 0.000000 0.000000 0.000000 0.000000 0.000000 0.028945
#
#
# Mechanical properties :
#
#
# Convention : Reuss Voigt Hill
#
# Bulk Modulus (GPa) = 36.16876 43.54464 39.85670
# Shear Modulus (GPa) = 22.70600 26.07664 24.39132
#
# Velocity S-wave (km/s) = 3.24440 3.47688 3.36265
# Velocity P-wave (km/s) = 5.54997 6.02536 5.79254
#
# Compressibility (1/GPa) = 0.02764817
#
# Stress axis : x y z
#
# Youngs Moduli (GPa) = 92.50026 60.80697 36.44316
#
# Poissons Ratio (x) = 0.26895 0.04413
# Poissons Ratio (y) = 0.40913 0.28754
# Poissons Ratio (z) = 0.11201 0.47977
#
# Static dielectric constant tensor:
#      x y z
#    x 1.805920 0.000000 0.000000 
#    y 0.000000 1.801780 0.000000 
#    z 0.000000 0.000000 1.750530 
# 
# From -- ./inp_files/8629.got.cif
#   From: 2010.05.17/outbox.cif.g08.bks.cpg/sg40_5_cif.got.tgz:8629.got - 2010.06.03 18:35:42.
