data_PCOD9364985
_publ_section_title
;
Structure prediction by ZEFSAII (Michael W. Deem and Ramdas Pophale) SiO2 
 PCOD9364985
Probable space group: A M A 2
;
_chemical_formula_sum "Si O2"
_cell_formula_units_Z 32
_cell_length_a 14.279624
_cell_length_b 9.043165
_cell_length_c 11.711367
_cell_angle_alpha 90.000000
_cell_angle_beta 90.000000
_cell_angle_gamma 90.000000
_cell_volume 1512.323908
_symmetry_space_group_name_H-M "A M A 2"
_symmetry_group_IT_number 40
_symmetry_cell_setting 'orthorhombic'
loop_
_space_group_symop_operation_xyz
x,y,z
-x,-y,z
1/2-x,y,z
1/2+x,-y,z
x,1/2+y,1/2+z
-x,1/2-y,1/2+z
1/2-x,1/2+y,1/2+z
1/2+x,1/2-y,1/2+z
loop_
_atom_site_type_symbol
_atom_site_label
_atom_site_fract_x
_atom_site_fract_y
_atom_site_fract_z
Si Si1 0.894669 0.840620 0.815070
Si Si2 0.250000 0.893634 0.213693
Si Si3 0.038437 0.150127 0.427259
Si Si4 0.750000 0.830040 0.376784
Si Si5 0.250000 0.985248 0.950172
Si Si6 0.500000 0.000000 0.640240
O O1 0.837078 0.704782 0.759849
O O2 0.838187 0.912638 0.918956
O O3 0.995361 0.784757 0.858714
O O4 0.912477 0.961881 0.718221
O O5 0.250000 0.055197 0.272208
O O6 0.250000 0.919347 0.077613
O O7 0.149992 0.142653 0.438009
O O8 0.991934 0.136998 0.552675
O O9 0.000000 0.000000 0.369225
O O10 0.750000 0.653563 0.363147
#
# Coordination Sequence:
#
# PCOD9364985 Si02
#       6
#     8   4   8   4   4   4
#     4  11  23  44  64 100 138 173 224 273 326 397
#     4  11  23  43  70  96 138 179 215 277 334 388
#     4  10  23  43  68  97 131 177 217 272 328 397
#     4  12  22  46  68 100 134 174 226 272 330 398
#     4  11  27  39  68 106 136 171 225 273 324 402
#     4  10  22  40  66  94 132 182 208 276 334 376
#
# _framework density 21.159489000000001
#
# number of rings (size 3 to 8) (size 9 to 14) (size 15 to 20)
#    0.750    0.500    2.500    3.000    0.000    5.000 
#    0.000    3.750    0.000    0.000    0.000    0.000 
#    0.000    0.000    0.000    0.000    0.000    0.000 
#
# Total GULP energy -89108.572704 kJ/mol
# GULP energy per Si atom -5569.285794 kJ/mol
# Density = 2.111133 g / cm^3
# Si number density = 21.159489 Si / 1000 Ang^3
#
#
#
# Elastic Constant Matrix: (Units=GPa)
#
#
# Indices 1 2 3 4 5 6 
#
# 1 124.9646 46.9283 41.9450 0.0000 0.0000 0.0000
# 2 46.9283 93.9085 47.3167 0.0000 0.0000 0.0000
# 3 41.9450 47.3167 106.4877 0.0000 0.0000 0.0000
# 4 0.0000 0.0000 0.0000 12.8296 0.0000 0.0000
# 5 0.0000 0.0000 0.0000 0.0000 14.0362 0.0000
# 6 0.0000 0.0000 0.0000 0.0000 0.0000 27.0468
#
#
#
# Elastic Compliance Matrix: (Units=1/GPa)
#
#
# Indices 1 2 3 4 5 6 
#
# 1 0.010260 -0.003983 -0.002272 0.000000 0.000000 0.000000
# 2 -0.003983 0.015266 -0.005215 0.000000 0.000000 0.000000
# 3 -0.002272 -0.005215 0.012603 0.000000 0.000000 0.000000
# 4 0.000000 0.000000 0.000000 0.077944 0.000000 0.000000
# 5 0.000000 0.000000 0.000000 0.000000 0.071244 0.000000
# 6 0.000000 0.000000 0.000000 0.000000 0.000000 0.036973
#
#
# Mechanical properties :
#
#
# Convention : Reuss Voigt Hill
#
# Bulk Modulus (GPa) = 65.82823 66.41564 66.12194
# Shear Modulus (GPa) = 19.81818 23.39391 21.60604
#
# Velocity S-wave (km/s) = 3.06373 3.32866 3.19894
# Velocity P-wave (km/s) = 6.61009 6.79923 6.70533
#
# Compressibility (1/GPa) = 0.01519105
#
# Stress axis : x y z
#
# Youngs Moduli (GPa) = 97.46146 65.50339 79.34784
#
# Poissons Ratio (x) = 0.26088 0.18027
# Poissons Ratio (y) = 0.38816 0.41377
# Poissons Ratio (z) = 0.22142 0.34158
#
# Static dielectric constant tensor:
#      x y z
#    x 1.777900 0.000000 0.000000 
#    y 0.000000 1.761190 0.000000 
#    z 0.000000 0.000000 1.768740 
# 
# From -- ./inp_files/11763.got.cif
#   From: 2010.05.17/outbox.cif.g08.bks.cpg/sg40_6_cif.got.tgz:11763.got - 2010.06.03 18:35:42.
