data_PCOD9364614
_publ_section_title
;
Structure prediction by ZEFSAII (Michael W. Deem and Ramdas Pophale) SiO2 
 PCOD9364614
Probable space group: A M A 2
;
_chemical_formula_sum "Si O2"
_cell_formula_units_Z 64
_cell_length_a 27.037302
_cell_length_b 8.205610
_cell_length_c 12.962144
_cell_angle_alpha 90.000000
_cell_angle_beta 90.000000
_cell_angle_gamma 90.000000
_cell_volume 2875.749584
_symmetry_space_group_name_H-M "A M A 2"
_symmetry_group_IT_number 40
_symmetry_cell_setting 'orthorhombic'
loop_
_space_group_symop_operation_xyz
x,y,z
-x,-y,z
1/2-x,y,z
1/2+x,-y,z
x,1/2+y,1/2+z
-x,1/2-y,1/2+z
1/2-x,1/2+y,1/2+z
1/2+x,1/2-y,1/2+z
loop_
_atom_site_type_symbol
_atom_site_label
_atom_site_fract_x
_atom_site_fract_y
_atom_site_fract_z
Si Si1 0.139052 0.528136 0.858300
Si Si2 0.372239 0.004932 0.737865
Si Si3 0.434845 0.832317 0.246691
Si Si4 0.651526 0.104902 0.939009
Si Si5 0.448646 0.911208 0.015592
Si Si6 0.194220 0.534696 0.639809
Si Si7 0.468790 0.329043 0.305001
Si Si8 0.307837 0.400741 0.051303
O O1 0.084657 0.460321 0.830771
O O2 0.143047 0.705309 0.911895
O O3 0.162499 0.526946 0.743746
O O4 0.168913 0.414682 0.937652
O O5 0.332940 0.970070 0.829477
O O6 0.416737 0.867870 0.748228
O O7 0.343468 0.997665 0.630494
O O8 0.400667 0.172478 0.757815
O O9 0.428322 0.872775 0.126961
O O10 0.492996 0.794383 0.255668
O O11 0.599293 0.010844 0.961010
O O12 0.681846 0.081118 0.042704
O O13 0.500000 0.000000 0.031245
O O14 0.461664 0.783090 0.925264
O O15 0.250000 0.503042 0.672567
O O16 0.190360 0.716054 0.592820
O O17 0.500000 0.500000 0.305745
O O18 0.250000 0.453084 0.051544
#
# Coordination Sequence:
#
# PCOD9364614 Si02
#       8
#     8   8   8   8   8   8   8   8
#     4  12  25  45  71 105 142 183 244 295 359 434
#     4  10  21  43  69  99 144 185 236 298 359 431
#     4  11  22  40  66 101 139 188 240 293 360 430
#     4  11  23  45  71  97 139 192 232 299 357 421
#     4  10  21  38  62  94 135 182 236 282 348 414
#     4  11  25  46  71 101 137 185 236 295 364 425
#     4   8  19  37  61  93 132 182 232 282 348 416
#     4  11  25  44  70 105 142 184 238 299 363 431
#
# _framework density 22.255068000000001
#
# number of rings (size 3 to 8) (size 9 to 14) (size 15 to 20)
#    0.000    1.500    2.500    2.625    0.000    5.500 
#    0.000    1.875    0.000    0.000    0.000    0.000 
#    0.000    0.000    0.000    0.000    0.000    0.000 
#
# Total GULP energy -178393.149510 kJ/mol
# GULP energy per Si atom -5574.785922 kJ/mol
# Density = 2.220441 g / cm^3
# Si number density = 22.255068 Si / 1000 Ang^3
#
#
#
# Elastic Constant Matrix: (Units=GPa)
#
#
# Indices 1 2 3 4 5 6 
#
# 1 87.9893 15.8100 39.2998 0.0000 0.0000 0.0000
# 2 15.8100 51.0079 30.6107 0.0000 0.0000 0.0000
# 3 39.2998 30.6107 145.8128 0.0000 0.0000 0.0000
# 4 0.0000 0.0000 0.0000 30.8414 0.0000 0.0000
# 5 0.0000 0.0000 0.0000 0.0000 32.4607 0.0000
# 6 0.0000 0.0000 0.0000 0.0000 0.0000 20.3330
#
#
#
# Elastic Compliance Matrix: (Units=1/GPa)
#
#
# Indices 1 2 3 4 5 6 
#
# 1 0.013138 -0.002228 -0.003073 0.000000 0.000000 0.000000
# 2 -0.002228 0.022808 -0.004188 0.000000 0.000000 0.000000
# 3 -0.003073 -0.004188 0.008566 0.000000 0.000000 0.000000
# 4 0.000000 0.000000 0.000000 0.032424 0.000000 0.000000
# 5 0.000000 0.000000 0.000000 0.000000 0.030807 0.000000
# 6 0.000000 0.000000 0.000000 0.000000 0.000000 0.049181
#
#
# Mechanical properties :
#
#
# Convention : Reuss Voigt Hill
#
# Bulk Modulus (GPa) = 39.16306 50.69457 44.92881
# Shear Modulus (GPa) = 27.11310 29.99965 28.55638
#
# Velocity S-wave (km/s) = 3.49419 3.67548 3.58598
# Velocity P-wave (km/s) = 5.82363 6.39066 6.11373
#
# Compressibility (1/GPa) = 0.02553427
#
# Stress axis : x y z
#
# Youngs Moduli (GPa) = 76.11527 43.84338 116.74648
#
# Poissons Ratio (x) = 0.09767 0.35880
# Poissons Ratio (y) = 0.16957 0.48891
# Poissons Ratio (z) = 0.23392 0.18361
#
# Static dielectric constant tensor:
#      x y z
#    x 1.857040 0.000000 0.000000 
#    y 0.000000 1.902220 0.000000 
#    z 0.000000 0.000000 1.811040 
# 
# From -- ./inp_files/14418.got.cif
#   From: 2010.05.17/outbox.cif.g08.bks.cpg/sg40_8_cif.got.tgz:14418.got - 2010.06.03 18:35:42.
