data_PCOD9364829
_publ_section_title
;
Structure prediction by ZEFSAII (Michael W. Deem and Ramdas Pophale) SiO2 
 PCOD9364829
Probable space group: A M A 2
;
_chemical_formula_sum "Si O2"
_cell_formula_units_Z 64
_cell_length_a 17.557419
_cell_length_b 12.958488
_cell_length_c 15.178386
_cell_angle_alpha 90.000000
_cell_angle_beta 90.000000
_cell_angle_gamma 90.000000
_cell_volume 3453.350007
_symmetry_space_group_name_H-M "A M A 2"
_symmetry_group_IT_number 40
_symmetry_cell_setting 'orthorhombic'
loop_
_space_group_symop_operation_xyz
x,y,z
-x,-y,z
1/2-x,y,z
1/2+x,-y,z
x,1/2+y,1/2+z
-x,1/2-y,1/2+z
1/2-x,1/2+y,1/2+z
1/2+x,1/2-y,1/2+z
loop_
_atom_site_type_symbol
_atom_site_label
_atom_site_fract_x
_atom_site_fract_y
_atom_site_fract_z
Si Si1 0.838854 0.880773 0.714270
Si Si2 0.020801 0.879243 0.022000
Si Si3 0.839899 0.108601 0.408892
Si Si4 0.938821 0.776990 0.190762
Si Si5 0.339283 0.407785 0.117787
Si Si6 0.160663 0.843563 0.124764
Si Si7 0.592076 0.488798 0.759986
Si Si8 0.052766 0.205410 0.844805
O O1 0.750000 0.886038 0.740279
O O2 0.849054 0.772174 0.662958
O O3 0.894446 0.879184 0.797462
O O4 0.856758 0.978105 0.653240
O O5 0.110269 0.860943 0.038051
O O6 0.981666 0.817660 0.103069
O O7 0.000000 0.000000 0.030773
O O8 0.991256 0.837250 0.929246
O O9 0.750000 0.123294 0.389646
O O10 0.850179 0.096593 0.512895
O O11 0.889834 0.204631 0.375591
O O12 0.872149 0.011530 0.354883
O O13 0.889831 0.678223 0.164612
O O14 0.890925 0.875177 0.224295
O O15 0.996115 0.748021 0.269806
O O16 0.250000 0.387625 0.135111
O O17 0.250000 0.861305 0.111941
O O18 0.127336 0.925044 0.195403
O O19 0.500000 0.500000 0.761937
#
# Coordination Sequence:
#
# PCOD9364829 Si02
#       8
#     8   8   8   8   8   8   8   8
#     4  10  21  42  66  91 127 171 218 266 321 392
#     4  12  24  44  64 100 136 166 220 272 322 394
#     4  11  22  41  67  98 127 168 225 271 321 394
#     4  12  23  43  64  94 137 171 211 271 332 386
#     4  10  25  44  62  92 132 172 219 271 327 389
#     4  11  21  40  69  95 126 173 219 266 326 390
#     4  12  20  38  65  98 133 164 215 274 325 386
#     4  12  24  40  68  98 126 175 218 269 324 392
#
# _framework density 18.532729
#
# number of rings (size 3 to 8) (size 9 to 14) (size 15 to 20)
#    0.000    0.750    7.500    0.750    1.750    2.000 
#    2.250    1.875    0.000    0.000    0.000    0.000 
#    0.000    0.000    0.000    0.000    0.000    0.000 
#
# Total GULP energy -178812.800337 kJ/mol
# GULP energy per Si atom -5587.900011 kJ/mol
# Density = 1.849055 g / cm^3
# Si number density = 18.532729 Si / 1000 Ang^3
#
#
#
# Elastic Constant Matrix: (Units=GPa)
#
#
# Indices 1 2 3 4 5 6 
#
# 1 130.2033 79.5882 88.8540 0.0000 0.0000 0.0000
# 2 79.5882 129.5766 67.8448 0.0000 0.0000 0.0000
# 3 88.8540 67.8448 138.2725 0.0000 0.0000 0.0000
# 4 0.0000 0.0000 0.0000 35.2451 0.0000 0.0000
# 5 0.0000 0.0000 0.0000 0.0000 39.0987 0.0000
# 6 0.0000 0.0000 0.0000 0.0000 0.0000 13.2270
#
#
#
# Elastic Compliance Matrix: (Units=1/GPa)
#
#
# Indices 1 2 3 4 5 6 
#
# 1 0.016764 -0.006266 -0.007698 0.000000 0.000000 0.000000
# 2 -0.006266 0.012728 -0.002218 0.000000 0.000000 0.000000
# 3 -0.007698 -0.002218 0.013267 0.000000 0.000000 0.000000
# 4 0.000000 0.000000 0.000000 0.028373 0.000000 0.000000
# 5 0.000000 0.000000 0.000000 0.000000 0.025576 0.000000
# 6 0.000000 0.000000 0.000000 0.000000 0.000000 0.075603
#
#
# Mechanical properties :
#
#
# Convention : Reuss Voigt Hill
#
# Bulk Modulus (GPa) = 96.20943 96.73625 96.47284
# Shear Modulus (GPa) = 24.02228 28.29852 26.16040
#
# Velocity S-wave (km/s) = 3.60420 3.91186 3.76117
# Velocity P-wave (km/s) = 8.32744 8.52727 8.42795
#
# Compressibility (1/GPa) = 0.01039399
#
# Stress axis : x y z
#
# Youngs Moduli (GPa) = 59.65265 78.56887 75.37368
#
# Poissons Ratio (x) = 0.49232 0.58022
# Poissons Ratio (y) = 0.37379 0.16721
# Poissons Ratio (z) = 0.45920 0.17430
#
# Static dielectric constant tensor:
#      x y z
#    x 1.648300 0.000000 0.000000 
#    y 0.000000 1.635320 0.000000 
#    z 0.000000 0.000000 1.633690 
# 
# From -- ./inp_files/17901.got.cif
#   From: 2010.05.17/outbox.cif.g08.bks.cpg/sg40_9_cif.got.tgz:17901.got - 2010.06.03 18:35:42.
