data_PCOD9364317
_publ_section_title
;
Structure prediction by ZEFSAII (Michael W. Deem and Ramdas Pophale) SiO2 
 PCOD9364317
Probable space group: A M A 2
;
_chemical_formula_sum "Si O2"
_cell_formula_units_Z 48
_cell_length_a 10.281064
_cell_length_b 8.560451
_cell_length_c 27.792794
_cell_angle_alpha 90.000000
_cell_angle_beta 90.000000
_cell_angle_gamma 90.000000
_cell_volume 2446.058936
_symmetry_space_group_name_H-M "A M A 2"
_symmetry_group_IT_number 40
_symmetry_cell_setting 'orthorhombic'
loop_
_space_group_symop_operation_xyz
x,y,z
-x,-y,z
1/2-x,y,z
1/2+x,-y,z
x,1/2+y,1/2+z
-x,1/2-y,1/2+z
1/2-x,1/2+y,1/2+z
1/2+x,1/2-y,1/2+z
loop_
_atom_site_type_symbol
_atom_site_label
_atom_site_fract_x
_atom_site_fract_y
_atom_site_fract_z
Si Si1 0.017665 0.315321 0.870170
Si Si2 0.900159 0.859126 0.966976
Si Si3 0.750000 0.309681 0.193216
Si Si4 0.399037 0.358924 0.059906
Si Si5 0.750000 0.779001 0.320473
Si Si6 0.019642 0.184853 0.155484
Si Si7 0.250000 0.852188 0.297666
Si Si8 0.250000 0.326911 0.216213
O O1 0.878558 0.255816 0.851915
O O2 0.000000 0.500000 0.880853
O O3 0.067581 0.226579 0.916957
O O4 0.122620 0.301078 0.827412
O O5 0.750000 0.913280 0.966436
O O6 0.914042 0.737004 0.010606
O O7 0.000000 0.000000 0.973804
O O8 0.619553 0.261425 0.165778
O O9 0.750000 0.219214 0.244549
O O10 0.750000 0.495263 0.199141
O O11 0.500000 0.500000 0.061852
O O12 0.250000 0.415812 0.063067
O O13 0.425879 0.244904 0.104728
O O14 0.750000 0.673291 0.273589
O O15 0.750000 0.958251 0.300181
O O16 0.123122 0.239424 0.195627
O O17 0.000000 0.000000 0.156257
#
# Coordination Sequence:
#
# PCOD9364317 Si02
#       8
#     8   8   4   8   4   8   4   4
#     4  10  21  40  65  94 128 172 218 270 329 391
#     4  11  25  44  66  96 134 173 219 270 327 395
#     4  12  26  40  69  96 135 178 220 281 331 389
#     4  11  25  46  71 100 133 169 216 273 332 397
#     4  10  22  36  65  94 131 172 222 271 325 403
#     4  12  25  44  68  97 134 178 220 272 333 396
#     4  10  20  40  61  94 129 176 222 269 333 389
#     4  12  24  44  63 100 135 172 230 275 331 393
#
# _framework density 19.623403
#
# number of rings (size 3 to 8) (size 9 to 14) (size 15 to 20)
#    0.000    1.000    1.667    5.000    2.333    3.333 
#    0.000    0.000    0.000    0.000    0.000    0.000 
#    0.000    0.000    0.000    0.000    0.000    0.000 
#
# Total GULP energy -134322.586825 kJ/mol
# GULP energy per Si atom -5596.774451 kJ/mol
# Density = 1.957874 g / cm^3
# Si number density = 19.623403 Si / 1000 Ang^3
#
#
#
# Elastic Constant Matrix: (Units=GPa)
#
#
# Indices 1 2 3 4 5 6 
#
# 1 158.4534 50.2952 27.6584 0.0000 0.0000 0.0000
# 2 50.2952 88.2210 14.8651 0.0000 0.0000 0.0000
# 3 27.6584 14.8651 71.0264 0.0000 0.0000 0.0000
# 4 0.0000 0.0000 0.0000 23.3531 0.0000 0.0000
# 5 0.0000 0.0000 0.0000 0.0000 28.8721 0.0000
# 6 0.0000 0.0000 0.0000 0.0000 0.0000 29.7090
#
#
#
# Elastic Compliance Matrix: (Units=1/GPa)
#
#
# Indices 1 2 3 4 5 6 
#
# 1 0.008038 -0.004203 -0.002250 0.000000 0.000000 0.000000
# 2 -0.004203 0.013948 -0.001282 0.000000 0.000000 0.000000
# 3 -0.002250 -0.001282 0.015224 0.000000 0.000000 0.000000
# 4 0.000000 0.000000 0.000000 0.042821 0.000000 0.000000
# 5 0.000000 0.000000 0.000000 0.000000 0.034635 0.000000
# 6 0.000000 0.000000 0.000000 0.000000 0.000000 0.033660
#
#
# Mechanical properties :
#
#
# Convention : Reuss Voigt Hill
#
# Bulk Modulus (GPa) = 46.00323 55.92647 50.96485
# Shear Modulus (GPa) = 29.23233 31.37898 30.30566
#
# Velocity S-wave (km/s) = 3.86381 4.00316 3.93410
# Velocity P-wave (km/s) = 6.58781 7.06603 6.83111
#
# Compressibility (1/GPa) = 0.02173761
#
# Stress axis : x y z
#
# Youngs Moduli (GPa) = 124.40901 71.69714 65.68601
#
# Poissons Ratio (x) = 0.30137 0.14782
# Poissons Ratio (y) = 0.52293 0.08423
# Poissons Ratio (z) = 0.27997 0.09193
#
# Static dielectric constant tensor:
#      x y z
#    x 1.661220 0.000000 0.000000 
#    y 0.000000 1.662600 0.000000 
#    z 0.000000 0.000000 1.654300 
# 
# From -- ./inp_files/26221.got.cif
#   From: 2010.05.17/outbox.cif.g08.bks.cpg/sg40_14_cif.got.tgz:26221.got - 2010.06.03 18:35:42.
