data_PCOD9364781
_publ_section_title
;
Structure prediction by ZEFSAII (Michael W. Deem and Ramdas Pophale) SiO2 
 PCOD9364781
Probable space group: A M A 2
;
_chemical_formula_sum "Si O2"
_cell_formula_units_Z 48
_cell_length_a 22.874281
_cell_length_b 4.971120
_cell_length_c 18.895088
_cell_angle_alpha 90.000000
_cell_angle_beta 90.000000
_cell_angle_gamma 90.000000
_cell_volume 2148.575493
_symmetry_space_group_name_H-M "A M A 2"
_symmetry_group_IT_number 40
_symmetry_cell_setting 'orthorhombic'
loop_
_space_group_symop_operation_xyz
x,y,z
-x,-y,z
1/2-x,y,z
1/2+x,-y,z
x,1/2+y,1/2+z
-x,1/2-y,1/2+z
1/2-x,1/2+y,1/2+z
1/2+x,1/2-y,1/2+z
loop_
_atom_site_type_symbol
_atom_site_label
_atom_site_fract_x
_atom_site_fract_y
_atom_site_fract_z
Si Si1 0.250000 0.679690 0.793211
Si Si2 0.375493 0.031372 0.135014
Si Si3 0.819121 0.478599 0.481112
Si Si4 0.947218 0.640510 0.316367
Si Si5 0.149337 0.011338 0.388997
Si Si6 0.500000 0.000000 0.193087
Si Si7 0.850042 0.451152 0.224552
O O1 0.198045 0.492668 0.828276
O O2 0.200545 0.891486 0.763708
O O3 0.442905 0.939683 0.145674
O O4 0.338872 0.829032 0.185495
O O5 0.369422 0.334626 0.163779
O O6 0.349539 0.012374 0.057171
O O7 0.750000 0.408864 0.486776
O O8 0.824596 0.763210 0.442210
O O9 0.852311 0.262636 0.432396
O O10 0.910425 0.862316 0.358772
O O11 0.901290 0.430349 0.282794
O O12 0.000000 0.500000 0.357666
O O13 0.977333 0.775928 0.247877
#
# Coordination Sequence:
#
# PCOD9364781 Si02
#       7
#     4   8   8   8   8   4   8
#     4  10  22  40  64  96 132 162 218 286 328 406
#     4  11  24  42  66  95 131 177 217 275 338 405
#     4  12  25  45  65  93 138 184 229 275 325 418
#     4  10  21  40  69  97 136 168 221 288 356 411
#     4  11  25  43  66  95 132 186 223 274 346 401
#     4  10  22  44  66  98 136 164 216 294 348 394
#     4  10  23  37  66  99 127 164 219 273 352 392
#
# _framework density 22.340385000000001
#
# number of rings (size 3 to 8) (size 9 to 14) (size 15 to 20)
#    0.000    1.333    3.333    1.000    4.667    5.333 
#    1.500    0.000    0.000    0.000    0.000    0.000 
#    0.000    0.000    0.000    0.000    0.000    0.000 
#
# Total GULP energy -133738.826489 kJ/mol
# GULP energy per Si atom -5572.451104 kJ/mol
# Density = 2.228954 g / cm^3
# Si number density = 22.340385 Si / 1000 Ang^3
#
#
#
# Elastic Constant Matrix: (Units=GPa)
#
#
# Indices 1 2 3 4 5 6 
#
# 1 105.3466 -14.8239 30.9616 0.0000 0.0000 0.0000
# 2 -14.8239 73.8749 30.9439 0.0000 0.0000 0.0000
# 3 30.9616 30.9439 112.2883 0.0000 0.0000 0.0000
# 4 0.0000 0.0000 0.0000 -9.5847 0.0000 0.0000
# 5 0.0000 0.0000 0.0000 0.0000 112.2475 0.0000
# 6 0.0000 0.0000 0.0000 0.0000 0.0000 37.8021
#
#
#
# Elastic Compliance Matrix: (Units=1/GPa)
#
#
# Indices 1 2 3 4 5 6 
#
# 1 0.011304 0.004040 -0.004230 0.000000 0.000000 0.000000
# 2 0.004040 0.016747 -0.005729 0.000000 0.000000 0.000000
# 3 -0.004230 -0.005729 0.011651 0.000000 0.000000 0.000000
# 4 0.000000 0.000000 0.000000 -0.104333 0.000000 0.000000
# 5 0.000000 0.000000 0.000000 0.000000 0.008909 0.000000
# 6 0.000000 0.000000 0.000000 0.000000 0.000000 0.026454
#
#
# Mechanical properties :
#
#
# Convention : Reuss Voigt Hill
#
# Bulk Modulus (GPa) = 35.88881 42.85255 39.37068
# Shear Modulus (GPa) = -614.05140 44.38822 -284.83159
#
# Velocity S-wave (km/s) = -16.59694 4.46231 -11.30367
# Velocity P-wave (km/s) = 18.73975 6.76557 12.35729
#
# Compressibility (1/GPa) = 0.02786384
#
# Stress axis : x y z
#
# Youngs Moduli (GPa) = 88.46163 59.71263 85.83029
#
# Poissons Ratio (x) = -0.24126 0.36310
# Poissons Ratio (y) = -0.35742 0.49173
# Poissons Ratio (z) = 0.37423 0.34210
#
# Static dielectric constant tensor:
#      x y z
#    x 1.890330 0.000000 0.000000 
#    y 0.000000 1.944600 0.000000 
#    z 0.000000 0.000000 1.821130 
# 
# From -- ./inp_files/21512.got.cif
#   From: 2010.05.17/outbox.cif.g08.bks.cpg/sg40_11_cif.got.tgz:21512.got - 2010.06.03 18:35:42.
