data_PCOD9364655
_publ_section_title
;
Structure prediction by ZEFSAII (Michael W. Deem and Ramdas Pophale) SiO2 
 PCOD9364655
Probable space group: A M A 2
;
_chemical_formula_sum "Si O2"
_cell_formula_units_Z 48
_cell_length_a 9.537551
_cell_length_b 9.151649
_cell_length_c 27.714835
_cell_angle_alpha 90.000000
_cell_angle_beta 90.000000
_cell_angle_gamma 90.000000
_cell_volume 2419.070501
_symmetry_space_group_name_H-M "A M A 2"
_symmetry_group_IT_number 40
_symmetry_cell_setting 'orthorhombic'
loop_
_space_group_symop_operation_xyz
x,y,z
-x,-y,z
1/2-x,y,z
1/2+x,-y,z
x,1/2+y,1/2+z
-x,1/2-y,1/2+z
1/2-x,1/2+y,1/2+z
1/2+x,1/2-y,1/2+z
loop_
_atom_site_type_symbol
_atom_site_label
_atom_site_fract_x
_atom_site_fract_y
_atom_site_fract_z
Si Si1 0.076663 0.153191 0.333160
Si Si2 0.583056 0.350745 0.410222
Si Si3 0.405247 0.737375 0.727507
Si Si4 0.411790 0.352904 0.004246
Si Si5 0.900640 0.759491 0.589261
Si Si6 0.000000 0.500000 0.159205
Si Si7 0.000000 0.000000 0.155911
O O1 0.250000 0.143099 0.337076
O O2 0.027733 0.196003 0.278573
O O3 0.007117 0.270625 0.368742
O O4 0.000000 0.000000 0.344553
O O5 0.500000 0.500000 0.420355
O O6 0.750000 0.371739 0.398055
O O7 0.578957 0.249095 0.457565
O O8 0.250000 0.775571 0.742482
O O9 0.409034 0.598877 0.691961
O O10 0.451769 0.873366 0.695411
O O11 0.500000 0.500000 0.997024
O O12 0.250000 0.389633 0.013149
O O13 0.476264 0.272380 0.050716
O O14 0.750000 0.751216 0.564450
O O15 0.921098 0.617306 0.622629
O O16 0.905340 0.904814 0.622603
#
# Coordination Sequence:
#
# PCOD9364655 Si02
#       7
#     8   8   8   8   8   4   4
#     4  11  23  42  68  98 131 175 217 269 323 384
#     4  11  26  47  70 100 130 167 209 266 329 392
#     4  10  21  39  61  90 131 172 215 263 318 377
#     4  11  25  44  68  95 129 169 213 262 321 386
#     4  11  23  39  64  95 129 172 218 267 320 375
#     4  10  22  38  60  92 130 172 220 262 322 372
#     4  10  22  40  60  92 130 174 218 262 322 372
#
# _framework density 19.842331999999999
#
# number of rings (size 3 to 8) (size 9 to 14) (size 15 to 20)
#    0.000    1.333    1.667    3.000    2.333    7.333 
#    0.000    1.667    0.000    0.000    0.000    0.000 
#    0.000    0.000    0.000    0.000    0.000    0.000 
#
# Total GULP energy -133784.385049 kJ/mol
# GULP energy per Si atom -5574.349377 kJ/mol
# Density = 1.979717 g / cm^3
# Si number density = 19.842332 Si / 1000 Ang^3
#
#
#
# Elastic Constant Matrix: (Units=GPa)
#
#
# Indices 1 2 3 4 5 6 
#
# 1 136.1094 46.0810 52.6705 0.0000 0.0000 0.0000
# 2 46.0810 109.2037 46.2852 0.0000 0.0000 0.0000
# 3 52.6705 46.2852 93.7060 0.0000 0.0000 0.0000
# 4 0.0000 0.0000 0.0000 18.3550 0.0000 0.0000
# 5 0.0000 0.0000 0.0000 0.0000 30.5105 0.0000
# 6 0.0000 0.0000 0.0000 0.0000 0.0000 10.2233
#
#
#
# Elastic Compliance Matrix: (Units=1/GPa)
#
#
# Indices 1 2 3 4 5 6 
#
# 1 0.009819 -0.002282 -0.004392 0.000000 0.000000 0.000000
# 2 -0.002282 0.012112 -0.004700 0.000000 0.000000 0.000000
# 3 -0.004392 -0.004700 0.015462 0.000000 0.000000 0.000000
# 4 0.000000 0.000000 0.000000 0.054481 0.000000 0.000000
# 5 0.000000 0.000000 0.000000 0.000000 0.032776 0.000000
# 6 0.000000 0.000000 0.000000 0.000000 0.000000 0.097815
#
#
# Mechanical properties :
#
#
# Convention : Reuss Voigt Hill
#
# Bulk Modulus (GPa) = 68.28168 69.89917 69.09042
# Shear Modulus (GPa) = 19.99238 24.74994 22.37116
#
# Velocity S-wave (km/s) = 3.17765 3.53559 3.36139
# Velocity P-wave (km/s) = 6.92460 7.20909 7.06828
#
# Compressibility (1/GPa) = 0.01464522
#
# Stress axis : x y z
#
# Youngs Moduli (GPa) = 101.84143 82.56143 64.67489
#
# Poissons Ratio (x) = 0.18840 0.28406
# Poissons Ratio (y) = 0.23239 0.30398
# Poissons Ratio (z) = 0.44730 0.38805
#
# Static dielectric constant tensor:
#      x y z
#    x 1.725810 0.000000 0.000000 
#    y 0.000000 1.731160 0.000000 
#    z 0.000000 0.000000 1.730690 
# 
# From -- ./inp_files/26187.got.cif
#   From: 2010.05.17/outbox.cif.g08.bks.cpg/sg40_14_cif.got.tgz:26187.got - 2010.06.03 18:35:42.
