data_PCOD9364887
_publ_section_title
;
Structure prediction by ZEFSAII (Michael W. Deem and Ramdas Pophale) SiO2 
 PCOD9364887
Probable space group: A M A 2
;
_chemical_formula_sum "Si O2"
_cell_formula_units_Z 44
_cell_length_a 14.278348
_cell_length_b 5.388396
_cell_length_c 26.350793
_cell_angle_alpha 90.000000
_cell_angle_beta 90.000000
_cell_angle_gamma 90.000000
_cell_volume 2027.361323
_symmetry_space_group_name_H-M "A M A 2"
_symmetry_group_IT_number 40
_symmetry_cell_setting 'orthorhombic'
loop_
_space_group_symop_operation_xyz
x,y,z
-x,-y,z
1/2-x,y,z
1/2+x,-y,z
x,1/2+y,1/2+z
-x,1/2-y,1/2+z
1/2-x,1/2+y,1/2+z
1/2+x,1/2-y,1/2+z
loop_
_atom_site_type_symbol
_atom_site_label
_atom_site_fract_x
_atom_site_fract_y
_atom_site_fract_z
Si Si1 0.863093 0.679549 0.261410
Si Si2 0.114908 0.239099 0.480423
Si Si3 0.000000 0.500000 0.345023
Si Si4 0.638200 0.674644 0.699803
Si Si5 0.059452 0.253238 0.587643
Si Si6 0.094682 0.740305 0.438210
O O1 0.750000 0.689189 0.271132
O O2 0.926254 0.652097 0.311261
O O3 0.883624 0.426744 0.230213
O O4 0.890615 0.923139 0.229072
O O5 0.130042 0.219762 0.540383
O O6 0.147567 0.498275 0.457749
O O7 0.001950 0.246638 0.470790
O O8 0.144584 0.998071 0.449092
O O9 0.941185 0.316307 0.381625
O O10 0.750000 0.660284 0.696707
O O11 0.600809 0.697216 0.643004
O O12 0.000000 0.500000 0.575498
O O13 0.000000 0.000000 0.589661
#
# Coordination Sequence:
#
# PCOD9364887 Si02
#       6
#     8   8   4   8   8   8
#     4  10  23  42  59  83 122 158 197 255 305 347
#     4   9  15  30  47  79 112 139 176 232 289 335
#     4  10  22  36  64  90 108 160 208 244 296 372
#     4  10  24  41  55  81 124 157 189 247 302 349
#     4  12  20  32  59  90 106 152 200 233 283 359
#     4   9  17  30  49  79 113 139 180 238 291 330
#
# _framework density 21.703087
#
# number of rings (size 3 to 8) (size 9 to 14) (size 15 to 20)
#    0.000    2.182    3.636    1.091    3.818    5.818 
#    0.000    0.000    0.000    5.455    0.000    0.000 
#    0.000    0.000    0.000    0.000    0.000    0.000 
#
# Total GULP energy -122825.305361 kJ/mol
# GULP energy per Si atom -5582.968425 kJ/mol
# Density = 2.165369 g / cm^3
# Si number density = 21.703087 Si / 1000 Ang^3
#
#
#
# Elastic Constant Matrix: (Units=GPa)
#
#
# Indices 1 2 3 4 5 6 
#
# 1 75.8945 40.6433 46.8884 0.0000 0.0000 0.0000
# 2 40.6433 240.7532 89.4737 0.0000 0.0000 0.0000
# 3 46.8884 89.4737 193.3294 0.0000 0.0000 0.0000
# 4 0.0000 0.0000 0.0000 -15.9742 0.0000 0.0000
# 5 0.0000 0.0000 0.0000 0.0000 -92.9480 0.0000
# 6 0.0000 0.0000 0.0000 0.0000 0.0000 -6.6420
#
#
#
# Elastic Compliance Matrix: (Units=1/GPa)
#
#
# Indices 1 2 3 4 5 6 
#
# 1 0.015943 -0.001515 -0.003166 0.000000 0.000000 0.000000
# 2 -0.001515 0.005160 -0.002021 0.000000 0.000000 0.000000
# 3 -0.003166 -0.002021 0.006876 0.000000 0.000000 0.000000
# 4 0.000000 0.000000 0.000000 -0.062601 0.000000 0.000000
# 5 0.000000 0.000000 0.000000 0.000000 -0.010759 0.000000
# 6 0.000000 0.000000 0.000000 0.000000 0.000000 -0.150558
#
#
# Mechanical properties :
#
#
# Convention : Reuss Voigt Hill
#
# Bulk Modulus (GPa) = 68.60444 95.99865 82.30154
# Shear Modulus (GPa) = -28.14093 -0.91470 -14.52781
#
# Velocity S-wave (km/s) = -3.60478 -0.64990 -2.59006
# Velocity P-wave (km/s) = 3.78855 6.61556 5.39067
#
# Compressibility (1/GPa) = 0.01457632
#
# Stress axis : x y z
#
# Youngs Moduli (GPa) = 62.72255 193.78288 145.44382
#
# Poissons Ratio (x) = 0.29359 0.46041
# Poissons Ratio (y) = 0.09503 0.29392
# Poissons Ratio (z) = 0.19855 0.39160
#
# Static dielectric constant tensor:
#      x y z
#    x 1.813940 0.000000 0.000000 
#    y 0.000000 1.857150 0.000000 
#    z 0.000000 0.000000 1.781900 
# 
# From -- ./inp_files/24868.got.cif
#   From: 2010.05.17/outbox.cif.g08.bks.cpg/sg40_13_cif.got.tgz:24868.got - 2010.06.03 18:35:42.
