data_PCOD9364938
_publ_section_title
;
Structure prediction by ZEFSAII (Michael W. Deem and Ramdas Pophale) SiO2 
 PCOD9364938
Probable space group: A M A 2
;
_chemical_formula_sum "Si O2"
_cell_formula_units_Z 32
_cell_length_a 21.658201
_cell_length_b 14.975199
_cell_length_c 5.038314
_cell_angle_alpha 90.000000
_cell_angle_beta 90.000000
_cell_angle_gamma 90.000000
_cell_volume 1634.105954
_symmetry_space_group_name_H-M "A M A 2"
_symmetry_group_IT_number 40
_symmetry_cell_setting 'orthorhombic'
loop_
_space_group_symop_operation_xyz
x,y,z
-x,-y,z
1/2-x,y,z
1/2+x,-y,z
x,1/2+y,1/2+z
-x,1/2-y,1/2+z
1/2-x,1/2+y,1/2+z
1/2+x,1/2-y,1/2+z
loop_
_atom_site_type_symbol
_atom_site_label
_atom_site_fract_x
_atom_site_fract_y
_atom_site_fract_z
Si Si1 0.935008 0.472583 0.073760
Si Si2 0.374375 0.871722 0.296560
Si Si3 0.180750 0.941838 0.789178
Si Si4 0.538641 0.270745 0.029758
O O1 0.873131 0.484950 0.247125
O O2 0.940461 0.371633 0.979223
O O3 0.000000 0.500000 0.207291
O O4 0.923720 0.547979 0.848020
O O5 0.340706 0.865305 0.579920
O O6 0.409218 0.788402 0.171773
O O7 0.325423 0.906123 0.084145
O O8 0.250000 0.971848 0.730195
O O9 0.484361 0.271280 0.252960
#
# Coordination Sequence:
#
# PCOD9364938 Si02
#       4
#     8   8   8   8
#     4  10  22  40  65  93 128 160 213 267 321 379
#     4  10  22  39  62  90 123 167 213 256 329 373
#     4  10  22  42  65  86 129 173 215 263 326 387
#     4  12  23  38  64  98 133 164 213 266 330 389
#
# _framework density 19.582573
#
# number of rings (size 3 to 8) (size 9 to 14) (size 15 to 20)
#    1.500    0.000    2.500    3.750    3.500    1.000 
#    0.000    2.500    0.000    0.000    0.000    0.000 
#    0.000    0.000    0.000    0.000    0.000    0.000 
#
# Total GULP energy -89089.670194 kJ/mol
# GULP energy per Si atom -5568.104387 kJ/mol
# Density = 1.953800 g / cm^3
# Si number density = 19.582573 Si / 1000 Ang^3
#
#
#
# Elastic Constant Matrix: (Units=GPa)
#
#
# Indices 1 2 3 4 5 6 
#
# 1 134.7828 24.5920 9.3388 0.0000 0.0000 0.0000
# 2 24.5920 86.9034 -9.9339 0.0000 0.0000 0.0000
# 3 9.3388 -9.9339 64.2903 0.0000 0.0000 0.0000
# 4 0.0000 0.0000 0.0000 2.5492 0.0000 0.0000
# 5 0.0000 0.0000 0.0000 0.0000 26.3738 0.0000
# 6 0.0000 0.0000 0.0000 0.0000 0.0000 15.4314
#
#
#
# Elastic Compliance Matrix: (Units=1/GPa)
#
#
# Indices 1 2 3 4 5 6 
#
# 1 0.007969 -0.002430 -0.001533 0.000000 0.000000 0.000000
# 2 -0.002430 0.012455 0.002278 0.000000 0.000000 0.000000
# 3 -0.001533 0.002278 0.016129 0.000000 0.000000 0.000000
# 4 0.000000 0.000000 0.000000 0.392272 0.000000 0.000000
# 5 0.000000 0.000000 0.000000 0.000000 0.037916 0.000000
# 6 0.000000 0.000000 0.000000 0.000000 0.000000 0.064803
#
#
# Mechanical properties :
#
#
# Convention : Reuss Voigt Hill
#
# Bulk Modulus (GPa) = 30.13738 37.10783 33.62261
# Shear Modulus (GPa) = 9.15789 26.33619 17.74704
#
# Velocity S-wave (km/s) = 2.16488 3.67124 3.01369
# Velocity P-wave (km/s) = 4.65535 6.07957 5.41449
#
# Compressibility (1/GPa) = 0.03318139
#
# Stress axis : x y z
#
# Youngs Moduli (GPa) = 125.48628 80.28839 61.99991
#
# Poissons Ratio (x) = 0.19513 0.09505
# Poissons Ratio (y) = 0.30497 -0.14121
# Poissons Ratio (z) = 0.19238 -0.18286
#
# Static dielectric constant tensor:
#      x y z
#    x 1.725990 0.000000 0.000000 
#    y 0.000000 1.676670 0.000000 
#    z 0.000000 0.000000 1.695460 
# 
# From -- ./inp_files/1706.got.cif
#   From: 2010.05.17/outbox.cif.g08.bks.cpg/sg40_1_cif.got.tgz:1706.got - 2010.06.03 18:35:42.
