data_PCOD9364479
_publ_section_title
;
Structure prediction by ZEFSAII (Michael W. Deem and Ramdas Pophale) SiO2 
 PCOD9364479
Probable space group: A M A 2
;
_chemical_formula_sum "Si O2"
_cell_formula_units_Z 64
_cell_length_a 29.015423
_cell_length_b 7.596303
_cell_length_c 11.392165
_cell_angle_alpha 90.000000
_cell_angle_beta 90.000000
_cell_angle_gamma 90.000000
_cell_volume 2510.946459
_symmetry_space_group_name_H-M "A M A 2"
_symmetry_group_IT_number 40
_symmetry_cell_setting 'orthorhombic'
loop_
_space_group_symop_operation_xyz
x,y,z
-x,-y,z
1/2-x,y,z
1/2+x,-y,z
x,1/2+y,1/2+z
-x,1/2-y,1/2+z
1/2-x,1/2+y,1/2+z
1/2+x,1/2-y,1/2+z
loop_
_atom_site_type_symbol
_atom_site_label
_atom_site_fract_x
_atom_site_fract_y
_atom_site_fract_z
Si Si1 0.670571 0.718628 0.742780
Si Si2 0.051119 0.477465 0.180790
Si Si3 0.527537 0.716228 0.939322
Si Si4 0.198974 0.263508 0.001776
Si Si5 0.564371 0.572777 0.477704
Si Si6 0.571441 0.119309 0.217389
Si Si7 0.327303 0.358632 0.481882
Si Si8 0.351982 0.369441 0.237421
O O1 0.625257 0.595071 0.741111
O O2 0.689635 0.715697 0.608059
O O3 0.657820 0.923484 0.754964
O O4 0.693921 0.669132 0.867099
O O5 0.041618 0.385245 0.056297
O O6 0.067376 0.679192 0.168695
O O7 0.091813 0.363417 0.241703
O O8 0.000000 0.500000 0.234127
O O9 0.475834 0.791883 0.944561
O O10 0.560182 0.886220 0.913730
O O11 0.541494 0.596216 0.831127
O O12 0.250000 0.309830 0.044290
O O13 0.163997 0.318846 0.105891
O O14 0.193010 0.054262 0.987771
O O15 0.553274 0.507643 0.610311
O O16 0.616754 0.635017 0.485680
O O17 0.323476 0.284805 0.347443
#
# Coordination Sequence:
#
# PCOD9364479 Si02
#       8
#     8   8   8   8   8   8   8   8
#     4   9  21  42  65  91 127 165 204 256 319 378
#     4  11  21  37  57  88 126 171 214 251 303 364
#     4  11  22  35  54  83 122 165 213 258 291 345
#     4  11  24  44  69  95 122 158 206 265 331 394
#     4  10  21  36  57  85 119 162 210 251 302 354
#     4  10  21  39  58  82 122 164 208 253 300 357
#     4  10  22  42  64  93 126 164 203 257 317 377
#     4  10  22  39  65  95 130 168 212 265 314 377
#
# _framework density 25.488398
#
# number of rings (size 3 to 8) (size 9 to 14) (size 15 to 20)
#    0.000    1.750    1.250    3.750    3.500    3.500 
#    2.250    8.750    0.000    0.000    0.000    0.000 
#    0.000    0.000    0.000    0.000    0.000    0.000 
#
# Total GULP energy -178557.100315 kJ/mol
# GULP energy per Si atom -5579.909385 kJ/mol
# Density = 2.543039 g / cm^3
# Si number density = 25.488398 Si / 1000 Ang^3
#
#
#
# Elastic Constant Matrix: (Units=GPa)
#
#
# Indices 1 2 3 4 5 6 
#
# 1 87.3032 1.0735 29.8494 0.0000 0.0000 0.0000
# 2 1.0735 41.5934 16.0769 0.0000 0.0000 0.0000
# 3 29.8494 16.0769 192.6641 0.0000 0.0000 0.0000
# 4 0.0000 0.0000 0.0000 36.6203 0.0000 0.0000
# 5 0.0000 0.0000 0.0000 0.0000 10.3109 0.0000
# 6 0.0000 0.0000 0.0000 0.0000 0.0000 2.8416
#
#
#
# Elastic Compliance Matrix: (Units=1/GPa)
#
#
# Indices 1 2 3 4 5 6 
#
# 1 0.012102 0.000426 -0.001911 0.000000 0.000000 0.000000
# 2 0.000426 0.024859 -0.002140 0.000000 0.000000 0.000000
# 3 -0.001911 -0.002140 0.005665 0.000000 0.000000 0.000000
# 4 0.000000 0.000000 0.000000 0.027307 0.000000 0.000000
# 5 0.000000 0.000000 0.000000 0.000000 0.096984 0.000000
# 6 0.000000 0.000000 0.000000 0.000000 0.000000 0.351909
#
#
# Mechanical properties :
#
#
# Convention : Reuss Voigt Hill
#
# Bulk Modulus (GPa) = 28.26749 46.17335 37.22042
# Shear Modulus (GPa) = 9.29595 28.25863 18.77729
#
# Velocity S-wave (km/s) = 1.91182 3.33331 2.71717
# Velocity P-wave (km/s) = 3.99848 5.74189 4.94758
#
# Compressibility (1/GPa) = 0.03537632
#
# Stress axis : x y z
#
# Youngs Moduli (GPa) = 82.62872 40.22752 176.52296
#
# Poissons Ratio (x) = -0.01714 0.33726
# Poissons Ratio (y) = -0.03521 0.37782
# Poissons Ratio (z) = 0.15787 0.08610
#
# Static dielectric constant tensor:
#      x y z
#    x 2.027760 0.000000 0.000000 
#    y 0.000000 1.988230 0.000000 
#    z 0.000000 0.000000 2.150760 
# 
# From -- ./inp_files/14427.got.cif
#   From: 2010.05.17/outbox.cif.g08.bks.cpg/sg40_8_cif.got.tgz:14427.got - 2010.06.03 18:35:42.
