data_PCOD9364898
_publ_section_title
;
Structure prediction by ZEFSAII (Michael W. Deem and Ramdas Pophale) SiO2 
 PCOD9364898
Probable space group: A M A 2
;
_chemical_formula_sum "Si O2"
_cell_formula_units_Z 48
_cell_length_a 9.124678
_cell_length_b 23.291506
_cell_length_c 12.067352
_cell_angle_alpha 90.000000
_cell_angle_beta 90.000000
_cell_angle_gamma 90.000000
_cell_volume 2564.644060
_symmetry_space_group_name_H-M "A M A 2"
_symmetry_group_IT_number 40
_symmetry_cell_setting 'orthorhombic'
loop_
_space_group_symop_operation_xyz
x,y,z
-x,-y,z
1/2-x,y,z
1/2+x,-y,z
x,1/2+y,1/2+z
-x,1/2-y,1/2+z
1/2-x,1/2+y,1/2+z
1/2+x,1/2-y,1/2+z
loop_
_atom_site_type_symbol
_atom_site_label
_atom_site_fract_x
_atom_site_fract_y
_atom_site_fract_z
Si Si1 0.072680 0.562901 0.659120
Si Si2 0.571544 0.130386 0.961263
Si Si3 0.428285 0.269219 0.293299
Si Si4 0.086548 0.946093 0.757590
Si Si5 0.925679 0.357702 0.860272
Si Si6 0.916762 0.659147 0.089668
O O1 0.250000 0.558999 0.648501
O O2 0.035484 0.589508 0.780066
O O3 0.000000 0.500000 0.643317
O O4 0.008959 0.609552 0.571702
O O5 0.750000 0.130465 0.975148
O O6 0.530648 0.190212 0.898512
O O7 0.529784 0.082113 0.870338
O O8 0.250000 0.273495 0.288779
O O9 0.470781 0.203557 0.308058
O O10 0.480694 0.293620 0.174818
O O11 0.250000 0.965622 0.782490
O O12 0.090465 0.896490 0.667496
O O13 0.000000 0.000000 0.716517
O O14 0.750000 0.357247 0.868956
O O15 0.993771 0.356526 0.981614
O O16 0.750000 0.675525 0.058263
#
# Coordination Sequence:
#
# PCOD9364898 Si02
#       6
#     8   8   8   8   8   8
#     4  11  24  39  56  81 116 155 194 235 278 329
#     4   9  18  35  59  84 111 144 181 227 282 336
#     4   8  17  36  59  82 112 144 177 226 288 340
#     4   9  18  32  52  79 107 139 176 220 273 321
#     4  10  22  38  56  80 111 147 185 230 278 329
#     4   9  19  36  56  78 106 141 180 221 273 335
#
# _framework density 18.716049000000002
#
# number of rings (size 3 to 8) (size 9 to 14) (size 15 to 20)
#    0.000    2.667    0.000    3.000    2.333    4.667 
#    0.000    6.667    0.000    0.000    0.000    0.000 
#    0.000    0.000    0.000    0.000    0.000    0.000 
#
# Total GULP energy -133691.431280 kJ/mol
# GULP energy per Si atom -5570.476303 kJ/mol
# Density = 1.867345 g / cm^3
# Si number density = 18.716049 Si / 1000 Ang^3
#
#
#
# Elastic Constant Matrix: (Units=GPa)
#
#
# Indices 1 2 3 4 5 6 
#
# 1 16.8744 15.2259 21.9515 0.0000 0.0000 0.0000
# 2 15.2259 46.7342 10.5526 0.0000 0.0000 0.0000
# 3 21.9515 10.5526 104.3678 0.0000 0.0000 0.0000
# 4 0.0000 0.0000 0.0000 -2.4338 0.0000 0.0000
# 5 0.0000 0.0000 0.0000 0.0000 30.1187 0.0000
# 6 0.0000 0.0000 0.0000 0.0000 0.0000 31.6201
#
#
#
# Elastic Compliance Matrix: (Units=1/GPa)
#
#
# Indices 1 2 3 4 5 6 
#
# 1 0.116917 -0.033299 -0.021224 0.000000 0.000000 0.000000
# 2 -0.033299 0.031381 0.003831 0.000000 0.000000 0.000000
# 3 -0.021224 0.003831 0.013658 0.000000 0.000000 0.000000
# 4 0.000000 0.000000 0.000000 -0.410872 0.000000 0.000000
# 5 0.000000 0.000000 0.000000 0.000000 0.033202 0.000000
# 6 0.000000 0.000000 0.000000 0.000000 0.000000 0.031625
#
#
# Mechanical properties :
#
#
# Convention : Reuss Voigt Hill
#
# Bulk Modulus (GPa) = 16.50929 29.27072 22.89001
# Shear Modulus (GPa) = -79.98387 19.87741 -30.05323
#
# Velocity S-wave (km/s) = -6.54433 3.26245 -4.01152
# Velocity P-wave (km/s) = 6.94725 5.46487 3.03311
#
# Compressibility (1/GPa) = 0.06057197
#
# Stress axis : x y z
#
# Youngs Moduli (GPa) = 8.55306 31.86605 73.21596
#
# Poissons Ratio (x) = 1.06111 1.55395
# Poissons Ratio (y) = 0.28481 -0.28047
# Poissons Ratio (z) = 0.18153 -0.12207
#
# Static dielectric constant tensor:
#      x y z
#    x 1.656160 0.000000 0.000000 
#    y 0.000000 1.661510 0.000000 
#    z 0.000000 0.000000 1.653700 
# 
# From -- ./inp_files/10236.got.cif
#   From: 2010.05.17/outbox.cif.g08.bks.cpg/sg40_6_cif.got.tgz:10236.got - 2010.06.03 18:35:42.
