data_PCOD9364862
_publ_section_title
;
Structure prediction by ZEFSAII (Michael W. Deem and Ramdas Pophale) SiO2 
 PCOD9364862
Probable space group: A M A 2
;
_chemical_formula_sum "Si O2"
_cell_formula_units_Z 48
_cell_length_a 22.375635
_cell_length_b 8.045810
_cell_length_c 11.986363
_cell_angle_alpha 90.000000
_cell_angle_beta 90.000000
_cell_angle_gamma 90.000000
_cell_volume 2157.906223
_symmetry_space_group_name_H-M "A M A 2"
_symmetry_group_IT_number 40
_symmetry_cell_setting 'orthorhombic'
loop_
_space_group_symop_operation_xyz
x,y,z
-x,-y,z
1/2-x,y,z
1/2+x,-y,z
x,1/2+y,1/2+z
-x,1/2-y,1/2+z
1/2-x,1/2+y,1/2+z
1/2+x,1/2-y,1/2+z
loop_
_atom_site_type_symbol
_atom_site_label
_atom_site_fract_x
_atom_site_fract_y
_atom_site_fract_z
Si Si1 0.376798 0.462721 0.414260
Si Si2 0.179195 0.956412 0.135103
Si Si3 0.508188 0.244567 0.886385
Si Si4 0.818342 0.394422 0.875567
Si Si5 0.579600 0.041287 0.489019
Si Si6 0.410971 0.165924 0.708817
O O1 0.347597 0.539564 0.524225
O O2 0.446437 0.403281 0.416263
O O3 0.341496 0.289832 0.400109
O O4 0.373666 0.575784 0.305747
O O5 0.250000 0.911335 0.122160
O O6 0.132340 0.805783 0.157710
O O7 0.174812 0.068576 0.244831
O O8 0.549793 0.408172 0.901434
O O9 0.455385 0.287710 0.973833
O O10 0.472228 0.226421 0.770054
O O11 0.750000 0.403819 0.906356
O O12 0.853343 0.532819 0.946851
O O13 0.573714 0.961836 0.610205
#
# Coordination Sequence:
#
# PCOD9364862 Si02
#       6
#     8   8   8   8   8   8
#     4  11  25  40  65  98 132 172 218 276 329 395
#     4  11  24  45  67  92 133 177 222 274 333 398
#     4  10  22  39  60  97 134 170 213 263 325 403
#     4  10  21  44  69  93 128 175 222 269 331 395
#     4  10  22  41  66  95 132 174 214 271 330 397
#     4  12  24  42  68 101 128 175 224 272 337 389
#
# _framework density 22.243784999999999
#
# number of rings (size 3 to 8) (size 9 to 14) (size 15 to 20)
#    0.000    1.333    5.000    1.000    4.667    2.667 
#    3.000    0.000    0.000    0.000    0.000    0.000 
#    0.000    0.000    0.000    0.000    0.000    0.000 
#
# Total GULP energy -133977.690657 kJ/mol
# GULP energy per Si atom -5582.403777 kJ/mol
# Density = 2.219316 g / cm^3
# Si number density = 22.243785 Si / 1000 Ang^3
#
#
#
# Elastic Constant Matrix: (Units=GPa)
#
#
# Indices 1 2 3 4 5 6 
#
# 1 139.7609 12.8219 60.0786 0.0000 0.0000 0.0000
# 2 12.8219 27.7641 21.4063 0.0000 0.0000 0.0000
# 3 60.0786 21.4063 142.5111 0.0000 0.0000 0.0000
# 4 0.0000 0.0000 0.0000 38.9220 0.0000 0.0000
# 5 0.0000 0.0000 0.0000 0.0000 32.2001 0.0000
# 6 0.0000 0.0000 0.0000 0.0000 0.0000 29.4687
#
#
#
# Elastic Compliance Matrix: (Units=1/GPa)
#
#
# Indices 1 2 3 4 5 6 
#
# 1 0.008784 -0.001359 -0.003499 0.000000 0.000000 0.000000
# 2 -0.001359 0.040946 -0.005578 0.000000 0.000000 0.000000
# 3 -0.003499 -0.005578 0.009330 0.000000 0.000000 0.000000
# 4 0.000000 0.000000 0.000000 0.025692 0.000000 0.000000
# 5 0.000000 0.000000 0.000000 0.000000 0.031056 0.000000
# 6 0.000000 0.000000 0.000000 0.000000 0.000000 0.033934
#
#
# Mechanical properties :
#
#
# Convention : Reuss Voigt Hill
#
# Bulk Modulus (GPa) = 26.18576 55.40554 40.79565
# Shear Modulus (GPa) = 27.27149 34.50012 30.88580
#
# Velocity S-wave (km/s) = 3.50527 3.94255 3.73032
# Velocity P-wave (km/s) = 5.30851 6.75924 6.07732
#
# Compressibility (1/GPa) = 0.03818870
#
# Stress axis : x y z
#
# Youngs Moduli (GPa) = 113.84606 24.42268 107.18329
#
# Poissons Ratio (x) = 0.03319 0.37502
# Poissons Ratio (y) = 0.15470 0.59782
# Poissons Ratio (z) = 0.39833 0.13622
#
# Static dielectric constant tensor:
#      x y z
#    x 1.897180 0.000000 0.000000 
#    y 0.000000 1.882030 0.000000 
#    z 0.000000 0.000000 1.815580 
# 
# From -- ./inp_files/13920.got.cif
#   From: 2010.05.17/outbox.cif.g08.bks.cpg/sg40_7_cif.got.tgz:13920.got - 2010.06.03 18:35:42.
