data_PCOD9364401
_publ_section_title
;
Structure prediction by ZEFSAII (Michael W. Deem and Ramdas Pophale) SiO2 
 PCOD9364401
Probable space group: A M A 2
;
_chemical_formula_sum "Si O2"
_cell_formula_units_Z 24
_cell_length_a 10.761131
_cell_length_b 11.613462
_cell_length_c 8.373565
_cell_angle_alpha 90.000000
_cell_angle_beta 90.000000
_cell_angle_gamma 90.000000
_cell_volume 1046.477795
_symmetry_space_group_name_H-M "A M A 2"
_symmetry_group_IT_number 40
_symmetry_cell_setting 'orthorhombic'
loop_
_space_group_symop_operation_xyz
x,y,z
-x,-y,z
1/2-x,y,z
1/2+x,-y,z
x,1/2+y,1/2+z
-x,1/2-y,1/2+z
1/2-x,1/2+y,1/2+z
1/2+x,1/2-y,1/2+z
loop_
_atom_site_type_symbol
_atom_site_label
_atom_site_fract_x
_atom_site_fract_y
_atom_site_fract_z
Si Si1 0.250000 0.240035 0.983450
Si Si2 0.250000 0.497973 0.041121
Si Si3 0.250000 0.231674 0.624860
Si Si4 0.501374 0.630170 0.558772
Si Si5 0.500000 0.500000 0.245469
O O1 0.250000 0.183740 0.806902
O O2 0.250000 0.377122 0.949584
O O3 0.372974 0.198890 0.076893
O O4 0.250000 0.631680 0.989374
O O5 0.377698 0.495390 0.140406
O O6 0.375543 0.304198 0.608772
O O7 0.500000 0.500000 0.630608
O O8 0.509247 0.605887 0.368632
#
# Coordination Sequence:
#
# PCOD9364401 Si02
#       5
#     4   4   4   8   4
#     4  12  25  41  67 105 132 180 233 276 341 411
#     4  12  23  41  67  97 137 173 227 284 339 401
#     4  12  22  46  62 102 143 167 234 290 324 418
#     4  10  22  43  69  90 131 184 224 279 342 395
#     4  10  20  44  66  94 122 184 230 258 350 406
#
# _framework density 22.934073999999999
#
# number of rings (size 3 to 8) (size 9 to 14) (size 15 to 20)
#    1.000    0.000    3.333    4.000    0.000    0.000 
#    9.000    0.000    0.000    0.000    0.000    0.000 
#    0.000    0.000    0.000    0.000    0.000    0.000 
#
# Total GULP energy -66919.448755 kJ/mol
# GULP energy per Si atom -5576.620730 kJ/mol
# Density = 2.288188 g / cm^3
# Si number density = 22.934074 Si / 1000 Ang^3
#
#
#
# Elastic Constant Matrix: (Units=GPa)
#
#
# Indices 1 2 3 4 5 6 
#
# 1 223.5448 54.1250 23.8596 0.0000 0.0000 0.0000
# 2 54.1250 151.8613 -6.2495 0.0000 0.0000 0.0000
# 3 23.8596 -6.2495 24.4434 0.0000 0.0000 0.0000
# 4 0.0000 0.0000 0.0000 34.2109 0.0000 0.0000
# 5 0.0000 0.0000 0.0000 0.0000 27.0548 0.0000
# 6 0.0000 0.0000 0.0000 0.0000 0.0000 37.9604
#
#
#
# Elastic Compliance Matrix: (Units=1/GPa)
#
#
# Indices 1 2 3 4 5 6 
#
# 1 0.005678 -0.002276 -0.006124 0.000000 0.000000 0.000000
# 2 -0.002276 0.007567 0.004156 0.000000 0.000000 0.000000
# 3 -0.006124 0.004156 0.047951 0.000000 0.000000 0.000000
# 4 0.000000 0.000000 0.000000 0.029230 0.000000 0.000000
# 5 0.000000 0.000000 0.000000 0.000000 0.036962 0.000000
# 6 0.000000 0.000000 0.000000 0.000000 0.000000 0.026343
#
#
# Mechanical properties :
#
#
# Convention : Reuss Voigt Hill
#
# Bulk Modulus (GPa) = 18.97221 60.36887 39.67054
# Shear Modulus (GPa) = 27.81026 41.71951 34.76489
#
# Velocity S-wave (km/s) = 3.48604 4.26972 3.89763
# Velocity P-wave (km/s) = 4.94912 7.11950 6.13111
#
# Compressibility (1/GPa) = 0.05270868
#
# Stress axis : x y z
#
# Youngs Moduli (GPa) = 176.11695 132.15124 20.85443
#
# Poissons Ratio (x) = 0.30074 0.12772
# Poissons Ratio (y) = 0.40080 -0.08667
# Poissons Ratio (z) = 1.07859 -0.54923
#
# Static dielectric constant tensor:
#      x y z
#    x 1.790700 0.000000 0.000000 
#    y 0.000000 1.980820 0.000000 
#    z 0.000000 0.000000 1.837440 
# 
# From -- ./inp_files/4849.got.cif
#   From: 2010.05.17/outbox.cif.g08.bks.cpg/sg40_3_cif.got.tgz:4849.got - 2010.06.03 18:35:42.
