data_PCOD9364926
_publ_section_title
;
Structure prediction by ZEFSAII (Michael W. Deem and Ramdas Pophale) SiO2 
 PCOD9364926
Probable space group: A M A 2
;
_chemical_formula_sum "Si O2"
_cell_formula_units_Z 60
_cell_length_a 9.211166
_cell_length_b 12.126546
_cell_length_c 25.963752
_cell_angle_alpha 90.000000
_cell_angle_beta 90.000000
_cell_angle_gamma 90.000000
_cell_volume 2900.141445
_symmetry_space_group_name_H-M "A M A 2"
_symmetry_group_IT_number 40
_symmetry_cell_setting 'orthorhombic'
loop_
_space_group_symop_operation_xyz
x,y,z
-x,-y,z
1/2-x,y,z
1/2+x,-y,z
x,1/2+y,1/2+z
-x,1/2-y,1/2+z
1/2-x,1/2+y,1/2+z
1/2+x,1/2-y,1/2+z
loop_
_atom_site_type_symbol
_atom_site_label
_atom_site_fract_x
_atom_site_fract_y
_atom_site_fract_z
Si Si1 0.416399 0.694006 0.451900
Si Si2 0.500000 0.000000 0.024596
Si Si3 0.083497 0.837469 0.848125
Si Si4 0.089731 0.591242 0.808448
Si Si5 0.922604 0.394086 0.243307
Si Si6 0.576668 0.814764 0.200415
Si Si7 0.088960 0.318160 0.601570
Si Si8 0.074212 0.622687 0.021614
O O1 0.250000 0.724047 0.439262
O O2 0.415425 0.588676 0.489874
O O3 0.505003 0.652306 0.402291
O O4 0.498824 0.798993 0.477970
O O5 0.409772 0.916458 0.060145
O O6 0.250000 0.880402 0.847138
O O7 0.091381 0.707086 0.836494
O O8 0.987701 0.881672 0.800976
O O9 0.250000 0.546390 0.803542
O O10 0.036784 0.612835 0.750234
O O11 0.000000 0.500000 0.837333
O O12 0.750000 0.400712 0.244222
O O13 0.000000 0.500000 0.220260
O O14 0.983549 0.293848 0.210533
O O15 0.750000 0.795377 0.203727
O O16 0.528578 0.851735 0.144288
O O17 0.250000 0.309313 0.624894
O O18 0.055824 0.201826 0.572475
O O19 0.250000 0.612542 0.013420
O O20 0.000000 0.500000 0.024737
#
# Coordination Sequence:
#
# PCOD9364926 Si02
#       8
#     8   4   8   8   8   8   8   8
#     4  11  23  40  64  92 123 164 209 256 316 376
#     4  10  24  42  62  92 130 162 212 268 314 376
#     4  10  22  40  59  86 123 159 203 253 304 364
#     4   9  20  37  57  83 116 155 195 245 297 353
#     4  11  22  39  62  88 120 159 202 251 304 366
#     4  10  22  39  58  87 122 157 199 249 305 364
#     4  10  22  40  62  89 121 162 207 256 315 376
#     4  10  22  41  63  88 120 157 203 258 313 371
#
# _framework density 20.688645000000001
#
# number of rings (size 3 to 8) (size 9 to 14) (size 15 to 20)
#    0.000    1.867    0.000    4.000    1.867    9.067 
#    0.000    2.667    0.000    0.000    0.000    0.000 
#    0.000    0.000    0.000    0.000    0.000    0.000 
#
# Total GULP energy -167289.379557 kJ/mol
# GULP energy per Si atom -5576.312652 kJ/mol
# Density = 2.064156 g / cm^3
# Si number density = 20.688645 Si / 1000 Ang^3
#
#
#
# Elastic Constant Matrix: (Units=GPa)
#
#
# Indices 1 2 3 4 5 6 
#
# 1 107.5418 37.3722 19.3555 0.0000 0.0000 0.0000
# 2 37.3722 108.3129 3.2763 0.0000 0.0000 0.0000
# 3 19.3555 3.2763 66.9468 0.0000 0.0000 0.0000
# 4 0.0000 0.0000 0.0000 -112.4104 0.0000 0.0000
# 5 0.0000 0.0000 0.0000 0.0000 70.1906 0.0000
# 6 0.0000 0.0000 0.0000 0.0000 0.0000 17.9637
#
#
#
# Elastic Compliance Matrix: (Units=1/GPa)
#
#
# Indices 1 2 3 4 5 6 
#
# 1 0.011151 -0.003756 -0.003040 0.000000 0.000000 0.000000
# 2 -0.003756 0.010511 0.000571 0.000000 0.000000 0.000000
# 3 -0.003040 0.000571 0.015788 0.000000 0.000000 0.000000
# 4 0.000000 0.000000 0.000000 -0.008896 0.000000 0.000000
# 5 0.000000 0.000000 0.000000 0.000000 0.014247 0.000000
# 6 0.000000 0.000000 0.000000 0.000000 0.000000 0.055668
#
#
# Mechanical properties :
#
#
# Convention : Reuss Voigt Hill
#
# Bulk Modulus (GPa) = 39.99738 44.75659 42.37698
# Shear Modulus (GPa) = 41.92815 10.00194 25.96504
#
# Velocity S-wave (km/s) = 4.50669 2.20114 3.54650
# Velocity P-wave (km/s) = 6.81581 5.30475 6.10720
#
# Compressibility (1/GPa) = 0.02500164
#
# Stress axis : x y z
#
# Youngs Moduli (GPa) = 89.67811 95.13796 63.33830
#
# Poissons Ratio (x) = 0.35730 0.19256
# Poissons Ratio (y) = 0.33679 -0.03619
# Poissons Ratio (z) = 0.27263 -0.05436
#
# Static dielectric constant tensor:
#      x y z
#    x 1.701160 0.000000 0.000000 
#    y 0.000000 1.663420 0.000000 
#    z 0.000000 0.000000 1.759870 
# 
# From -- ./inp_files/25390.got.cif
#   From: 2010.05.17/outbox.cif.g08.bks.cpg/sg40_13_cif.got.tgz:25390.got - 2010.06.03 18:35:42.
