data_PCOD9364282
_publ_section_title
;
Structure prediction by ZEFSAII (Michael W. Deem and Ramdas Pophale) SiO2 
 PCOD9364282
Probable space group: A M A 2
;
_chemical_formula_sum "Si O2"
_cell_formula_units_Z 48
_cell_length_a 14.527645
_cell_length_b 8.358941
_cell_length_c 18.216566
_cell_angle_alpha 90.000000
_cell_angle_beta 90.000000
_cell_angle_gamma 90.000000
_cell_volume 2212.141943
_symmetry_space_group_name_H-M "A M A 2"
_symmetry_group_IT_number 40
_symmetry_cell_setting 'orthorhombic'
loop_
_space_group_symop_operation_xyz
x,y,z
-x,-y,z
1/2-x,y,z
1/2+x,-y,z
x,1/2+y,1/2+z
-x,1/2-y,1/2+z
1/2-x,1/2+y,1/2+z
1/2+x,1/2-y,1/2+z
loop_
_atom_site_type_symbol
_atom_site_label
_atom_site_fract_x
_atom_site_fract_y
_atom_site_fract_z
Si Si1 0.643233 0.294090 0.768920
Si Si2 0.648595 0.128024 0.560404
Si Si3 0.141573 0.042554 0.713275
Si Si4 0.529297 0.663816 0.537603
Si Si5 0.097447 0.078602 0.425821
Si Si6 0.862221 0.609452 0.685333
O O1 0.750000 0.279493 0.746159
O O2 0.603010 0.116536 0.753441
O O3 0.641322 0.353337 0.852532
O O4 0.606100 0.444274 0.722479
O O5 0.750000 0.200621 0.572217
O O6 0.634578 0.999094 0.625980
O O7 0.562780 0.246107 0.564516
O O8 0.646221 0.048684 0.479649
O O9 0.250000 0.050539 0.731961
O O10 0.107750 0.224097 0.725266
O O11 0.500000 0.500000 0.499917
O O12 0.578947 0.776021 0.480344
O O13 0.594629 0.621240 0.605111
O O14 0.000000 0.000000 0.404856
O O15 0.750000 0.610635 0.682759
#
# Coordination Sequence:
#
# PCOD9364282 Si02
#       6
#     8   8   8   8   8   8
#     4  10  21  38  61  91 126 164 210 262 318 378
#     4  10  20  39  64  88 120 165 213 261 316 379
#     4   9  18  35  61  89 117 158 210 255 307 374
#     4  11  23  39  63  93 128 161 217 263 317 386
#     4  10  22  40  59  84 123 168 208 257 322 383
#     4  10  21  39  65  95 127 166 212 262 315 382
#
# _framework density 21.698428
#
# number of rings (size 3 to 8) (size 9 to 14) (size 15 to 20)
#    0.000    2.000    1.667    1.500    0.000    4.667 
#    6.000    0.000    0.000    0.000    0.000    0.000 
#    0.000    0.000    0.000    0.000    0.000    0.000 
#
# Total GULP energy -133973.841681 kJ/mol
# GULP energy per Si atom -5582.243403 kJ/mol
# Density = 2.164904 g / cm^3
# Si number density = 21.698428 Si / 1000 Ang^3
#
#
#
# Elastic Constant Matrix: (Units=GPa)
#
#
# Indices 1 2 3 4 5 6 
#
# 1 53.2435 7.2640 6.6887 0.0000 0.0000 0.0000
# 2 7.2640 134.4541 36.0242 0.0000 0.0000 0.0000
# 3 6.6887 36.0242 87.4269 0.0000 0.0000 0.0000
# 4 0.0000 0.0000 0.0000 27.4692 0.0000 0.0000
# 5 0.0000 0.0000 0.0000 0.0000 20.6738 0.0000
# 6 0.0000 0.0000 0.0000 0.0000 0.0000 13.2698
#
#
#
# Elastic Compliance Matrix: (Units=1/GPa)
#
#
# Indices 1 2 3 4 5 6 
#
# 1 0.019025 -0.000717 -0.001160 0.000000 0.000000 0.000000
# 2 -0.000717 0.008388 -0.003401 0.000000 0.000000 0.000000
# 3 -0.001160 -0.003401 0.012928 0.000000 0.000000 0.000000
# 4 0.000000 0.000000 0.000000 0.036404 0.000000 0.000000
# 5 0.000000 0.000000 0.000000 0.000000 0.048370 0.000000
# 6 0.000000 0.000000 0.000000 0.000000 0.000000 0.075359
#
#
# Mechanical properties :
#
#
# Convention : Reuss Voigt Hill
#
# Bulk Modulus (GPa) = 33.57465 41.67536 37.62501
# Shear Modulus (GPa) = 22.62853 27.29238 24.96045
#
# Velocity S-wave (km/s) = 3.23285 3.55040 3.39534
# Velocity P-wave (km/s) = 5.42604 6.00462 5.72265
#
# Compressibility (1/GPa) = 0.02978438
#
# Stress axis : x y z
#
# Youngs Moduli (GPa) = 52.56191 119.22497 77.34940
#
# Poissons Ratio (x) = 0.08549 0.08973
# Poissons Ratio (y) = 0.03769 0.26308
# Poissons Ratio (z) = 0.06098 0.40551
#
# Static dielectric constant tensor:
#      x y z
#    x 1.793040 0.000000 0.000000 
#    y 0.000000 1.836680 0.000000 
#    z 0.000000 0.000000 1.758060 
# 
# From -- ./inp_files/20550.got.cif
#   From: 2010.05.17/outbox.cif.g08.bks.cpg/sg40_11_cif.got.tgz:20550.got - 2010.06.03 18:35:42.
