data_PCOD9364117
_publ_section_title
;
Structure prediction by ZEFSAII (Michael W. Deem and Ramdas Pophale) SiO2 
 PCOD9364117
Probable space group: A M A 2
;
_chemical_formula_sum "Si O2"
_cell_formula_units_Z 36
_cell_length_a 9.995264
_cell_length_b 22.392714
_cell_length_c 7.400637
_cell_angle_alpha 90.000000
_cell_angle_beta 90.000000
_cell_angle_gamma 90.000000
_cell_volume 1656.418626
_symmetry_space_group_name_H-M "A M A 2"
_symmetry_group_IT_number 40
_symmetry_cell_setting 'orthorhombic'
loop_
_space_group_symop_operation_xyz
x,y,z
-x,-y,z
1/2-x,y,z
1/2+x,-y,z
x,1/2+y,1/2+z
-x,1/2-y,1/2+z
1/2-x,1/2+y,1/2+z
1/2+x,1/2-y,1/2+z
loop_
_atom_site_type_symbol
_atom_site_label
_atom_site_fract_x
_atom_site_fract_y
_atom_site_fract_z
Si Si1 0.750000 0.408406 0.383950
Si Si2 0.250000 0.725162 0.995387
Si Si3 0.540632 0.680930 0.925442
Si Si4 0.250000 0.222230 0.939194
Si Si5 0.250000 0.462998 0.439395
Si Si6 0.984336 0.564904 0.158936
Si Si7 0.750000 0.655734 0.626112
O O1 0.750000 0.346719 0.491872
O O2 0.750000 0.468721 0.501384
O O3 0.620843 0.414129 0.255160
O O4 0.250000 0.718498 0.216573
O O5 0.250000 0.796806 0.962879
O O6 0.384863 0.696078 0.922214
O O7 0.621736 0.738944 0.998328
O O8 0.615702 0.669667 0.737588
O O9 0.561771 0.620648 0.039745
O O10 0.122242 0.449964 0.314212
O O11 0.250000 0.413490 0.589431
O O12 0.000000 0.500000 0.062285
#
# Coordination Sequence:
#
# PCOD9364117 Si02
#       7
#     4   4   8   4   4   8   4
#     4  10  20  39  63  91 119 158 210 256 288 366
#     4  10  20  37  61  88 125 157 205 245 302 367
#     4  10  20  39  63  92 125 163 198 259 304 359
#     4  10  21  36  61  96 125 153 207 258 297 358
#     4  10  22  38  63  89 124 159 204 255 306 365
#     4  10  20  38  68  93 114 164 214 247 296 368
#     4  10  25  38  58  94 131 155 198 254 317 360
#
# _framework density 21.733635
#
# number of rings (size 3 to 8) (size 9 to 14) (size 15 to 20)
#    0.000    2.222    2.222    1.333    3.111    0.000 
#    0.000   13.333    0.000    0.000    0.000    0.000 
#    0.000    0.000    0.000    0.000    0.000    0.000 
#
# Total GULP energy -100490.365720 kJ/mol
# GULP energy per Si atom -5582.798096 kJ/mol
# Density = 2.168417 g / cm^3
# Si number density = 21.733635 Si / 1000 Ang^3
#
#
#
# Elastic Constant Matrix: (Units=GPa)
#
#
# Indices 1 2 3 4 5 6 
#
# 1 161.0193 55.4509 19.6407 0.0000 0.0000 0.0000
# 2 55.4509 243.3126 33.0787 0.0000 0.0000 0.0000
# 3 19.6407 33.0787 26.9024 0.0000 0.0000 0.0000
# 4 0.0000 0.0000 0.0000 42.0187 0.0000 0.0000
# 5 0.0000 0.0000 0.0000 0.0000 13.8301 0.0000
# 6 0.0000 0.0000 0.0000 0.0000 0.0000 32.9030
#
#
#
# Elastic Compliance Matrix: (Units=1/GPa)
#
#
# Indices 1 2 3 4 5 6 
#
# 1 0.007050 -0.001089 -0.003808 0.000000 0.000000 0.000000
# 2 -0.001089 0.005103 -0.005480 0.000000 0.000000 0.000000
# 3 -0.003808 -0.005480 0.046689 0.000000 0.000000 0.000000
# 4 0.000000 0.000000 0.000000 0.023799 0.000000 0.000000
# 5 0.000000 0.000000 0.000000 0.000000 0.072306 0.000000
# 6 0.000000 0.000000 0.000000 0.000000 0.000000 0.030392
#
#
# Mechanical properties :
#
#
# Convention : Reuss Voigt Hill
#
# Bulk Modulus (GPa) = 26.25428 71.95275 49.10352
# Shear Modulus (GPa) = 22.85307 39.28796 31.07052
#
# Velocity S-wave (km/s) = 3.24621 4.25632 3.78511
# Velocity P-wave (km/s) = 5.11437 7.57189 6.46105
#
# Compressibility (1/GPa) = 0.03808902
#
# Stress axis : x y z
#
# Youngs Moduli (GPa) = 141.84519 195.96016 21.41826
#
# Poissons Ratio (x) = 0.21340 0.08156
# Poissons Ratio (y) = 0.15447 0.11736
# Poissons Ratio (z) = 0.54014 1.07379
#
# Static dielectric constant tensor:
#      x y z
#    x 1.761710 0.000000 0.000000 
#    y 0.000000 1.882040 0.000000 
#    z 0.000000 0.000000 1.812340 
# 
# From -- ./inp_files/4167.got.cif
#   From: 2010.05.17/outbox.cif.g08.bks.cpg/sg40_3_cif.got.tgz:4167.got - 2010.06.03 18:35:42.
