data_PCOD9364071
_publ_section_title
;
Structure prediction by ZEFSAII (Michael W. Deem and Ramdas Pophale) SiO2 
 PCOD9364071
Probable space group: A M A 2
;
_chemical_formula_sum "Si O2"
_cell_formula_units_Z 48
_cell_length_a 16.816150
_cell_length_b 12.581684
_cell_length_c 9.784772
_cell_angle_alpha 90.000000
_cell_angle_beta 90.000000
_cell_angle_gamma 90.000000
_cell_volume 2070.217885
_symmetry_space_group_name_H-M "A M A 2"
_symmetry_group_IT_number 40
_symmetry_cell_setting 'orthorhombic'
loop_
_space_group_symop_operation_xyz
x,y,z
-x,-y,z
1/2-x,y,z
1/2+x,-y,z
x,1/2+y,1/2+z
-x,1/2-y,1/2+z
1/2-x,1/2+y,1/2+z
1/2+x,1/2-y,1/2+z
loop_
_atom_site_type_symbol
_atom_site_label
_atom_site_fract_x
_atom_site_fract_y
_atom_site_fract_z
Si Si1 0.250000 0.282065 0.143580
Si Si2 0.750000 0.531220 0.329671
Si Si3 0.921430 0.872336 0.572959
Si Si4 0.250000 0.629489 0.066951
Si Si5 0.250000 0.544743 0.755291
Si Si6 0.416071 0.243601 0.068426
Si Si7 0.418328 0.051287 0.270705
Si Si8 0.417200 0.050928 0.872343
O O1 0.250000 0.347111 0.283530
O O2 0.250000 0.155332 0.169274
O O3 0.333521 0.308710 0.071202
O O4 0.750000 0.457958 0.190313
O O5 0.667088 0.504716 0.403881
O O6 0.835442 0.812911 0.578140
O O7 0.920431 0.938304 0.433518
O O8 0.922514 0.941955 0.709133
O O9 0.001680 0.805262 0.570106
O O10 0.250000 0.577387 0.915954
O O11 0.335977 0.493617 0.730425
O O12 0.415207 0.168053 0.202659
O O13 0.413287 0.167098 0.937951
O O14 0.500000 0.000000 0.224593
O O15 0.500000 0.000000 0.920285
#
# Coordination Sequence:
#
# PCOD9364071 Si02
#       8
#     4   4   8   4   4   8   8   8
#     4  10  21  37  58  81 111 152 189 226 286 349
#     4  10  21  37  60  85 111 148 195 238 280 333
#     4  10  20  37  58  80 110 151 189 229 279 336
#     4   8  18  35  55  79 107 138 182 230 268 317
#     4   8  18  35  55  77 107 142 180 222 274 335
#     4  11  22  37  56  84 116 147 184 233 285 337
#     4  10  20  37  57  79 109 148 186 227 276 334
#     4  11  22  37  57  86 117 148 189 241 287 336
#
# _framework density 23.185964999999999
#
# number of rings (size 3 to 8) (size 9 to 14) (size 15 to 20)
#    0.000    2.000    0.000    3.500    0.000    5.333 
#    0.000    0.833    0.000    0.000    0.000    0.000 
#    0.000    0.000    0.000    0.000    0.000    0.000 
#
# Total GULP energy -133944.106251 kJ/mol
# GULP energy per Si atom -5581.004427 kJ/mol
# Density = 2.313319 g / cm^3
# Si number density = 23.185965 Si / 1000 Ang^3
#
#
#
# Elastic Constant Matrix: (Units=GPa)
#
#
# Indices 1 2 3 4 5 6 
#
# 1 328.0605 49.1022 11.0641 0.0000 0.0000 0.0000
# 2 49.1022 17.5195 -5.8650 0.0000 0.0000 0.0000
# 3 11.0641 -5.8650 110.3822 0.0000 0.0000 0.0000
# 4 0.0000 0.0000 0.0000 38.0385 0.0000 0.0000
# 5 0.0000 0.0000 0.0000 0.0000 8.1727 0.0000
# 6 0.0000 0.0000 0.0000 0.0000 0.0000 39.0213
#
#
#
# Elastic Compliance Matrix: (Units=1/GPa)
#
#
# Indices 1 2 3 4 5 6 
#
# 1 0.005451 -0.015740 -0.001383 0.000000 0.000000 0.000000
# 2 -0.015740 0.103563 0.007080 0.000000 0.000000 0.000000
# 3 -0.001383 0.007080 0.009574 0.000000 0.000000 0.000000
# 4 0.000000 0.000000 0.000000 0.026289 0.000000 0.000000
# 5 0.000000 0.000000 0.000000 0.000000 0.122358 0.000000
# 6 0.000000 0.000000 0.000000 0.000000 0.000000 0.025627
#
#
# Mechanical properties :
#
#
# Convention : Reuss Voigt Hill
#
# Bulk Modulus (GPa) = 10.15184 62.72941 36.44062
# Shear Modulus (GPa) = 14.46003 43.82390 29.14196
#
# Velocity S-wave (km/s) = 2.50002 4.35225 3.54910
# Velocity P-wave (km/s) = 3.56671 7.23669 5.70487
#
# Compressibility (1/GPa) = 0.09850433
#
# Stress axis : x y z
#
# Youngs Moduli (GPa) = 183.46451 9.65595 104.44704
#
# Poissons Ratio (x) = 0.15198 0.14441
# Poissons Ratio (y) = 2.88764 -0.73952
# Poissons Ratio (z) = 0.25367 -0.06837
#
# Static dielectric constant tensor:
#      x y z
#    x 1.957510 0.000000 0.000000 
#    y 0.000000 0.590350 0.000000 
#    z 0.000000 0.000000 1.851900 
# 
# From -- ./inp_files/12208.got.cif
#   From: 2010.05.17/outbox.cif.g08.bks.cpg/sg40_7_cif.got.tgz:12208.got - 2010.06.03 18:35:42.
