data_PCOD9364670
_publ_section_title
;
Structure prediction by ZEFSAII (Michael W. Deem and Ramdas Pophale) SiO2 
 PCOD9364670
Probable space group: A M A 2
;
_chemical_formula_sum "Si O2"
_cell_formula_units_Z 64
_cell_length_a 31.632343
_cell_length_b 10.894172
_cell_length_c 7.875827
_cell_angle_alpha 90.000000
_cell_angle_beta 90.000000
_cell_angle_gamma 90.000000
_cell_volume 2714.074451
_symmetry_space_group_name_H-M "A M A 2"
_symmetry_group_IT_number 40
_symmetry_cell_setting 'orthorhombic'
loop_
_space_group_symop_operation_xyz
x,y,z
-x,-y,z
1/2-x,y,z
1/2+x,-y,z
x,1/2+y,1/2+z
-x,1/2-y,1/2+z
1/2-x,1/2+y,1/2+z
1/2+x,1/2-y,1/2+z
loop_
_atom_site_type_symbol
_atom_site_label
_atom_site_fract_x
_atom_site_fract_y
_atom_site_fract_z
Si Si1 0.461829 0.347271 0.602270
Si Si2 0.171137 0.895899 0.896439
Si Si3 0.588819 0.750570 0.307667
Si Si4 0.202962 0.392182 0.037437
Si Si5 0.382939 0.494461 0.668074
Si Si6 0.452434 0.222992 0.962229
Si Si7 0.299077 0.150612 0.575287
Si Si8 0.638538 0.263685 0.352742
O O1 0.437421 0.248423 0.482560
O O2 0.429949 0.461682 0.597707
O O3 0.466034 0.304579 0.798609
O O4 0.507190 0.357478 0.513535
O O5 0.126060 0.846854 0.828856
O O6 0.199589 0.925193 0.735749
O O7 0.155997 0.996059 0.034306
O O8 0.193628 0.779626 0.982402
O O9 0.610018 0.882356 0.273008
O O10 0.560342 0.715457 0.143862
O O11 0.250000 0.353951 0.988392
O O12 0.194280 0.528108 0.961287
O O13 0.170369 0.285242 0.996027
O O14 0.373877 0.368092 0.769593
O O15 0.405712 0.176308 0.905998
O O16 0.250000 0.147576 0.631379
O O17 0.335035 0.158540 0.719099
#
# Coordination Sequence:
#
# PCOD9364670 Si02
#       8
#     8   8   8   8   8   8   8   8
#     4  10  22  41  62  88 124 167 211 257 316 365
#     4  10  21  39  62  92 124 159 204 251 312 369
#     4  11  21  41  65  89 129 162 206 266 307 370
#     4  11  22  36  61  91 119 157 203 248 305 377
#     4   9  22  39  63  89 117 164 206 255 307 372
#     4  11  21  38  64  86 124 169 205 263 314 367
#     4  10  22  40  62  89 122 158 199 254 311 369
#     4  10  21  40  59  84 122 159 202 252 312 365
#
# _framework density 23.580781000000002
#
# number of rings (size 3 to 8) (size 9 to 14) (size 15 to 20)
#    0.000    1.750    2.500    2.250    1.750    0.500 
#    0.000    0.000    8.250    6.000    0.000    0.000 
#    0.000    0.000    0.000    0.000    0.000    0.000 
#
# Total GULP energy -178511.696445 kJ/mol
# GULP energy per Si atom -5578.490514 kJ/mol
# Density = 2.352711 g / cm^3
# Si number density = 23.580781 Si / 1000 Ang^3
#
#
#
# Elastic Constant Matrix: (Units=GPa)
#
#
# Indices 1 2 3 4 5 6 
#
# 1 129.7881 29.1635 24.3177 0.0000 0.0000 0.0000
# 2 29.1635 79.7484 17.9416 0.0000 0.0000 0.0000
# 3 24.3177 17.9416 77.7635 0.0000 0.0000 0.0000
# 4 0.0000 0.0000 0.0000 24.6772 0.0000 0.0000
# 5 0.0000 0.0000 0.0000 0.0000 22.4787 0.0000
# 6 0.0000 0.0000 0.0000 0.0000 0.0000 23.1759
#
#
#
# Elastic Compliance Matrix: (Units=1/GPa)
#
#
# Indices 1 2 3 4 5 6 
#
# 1 0.008707 -0.002712 -0.002097 0.000000 0.000000 0.000000
# 2 -0.002712 0.014071 -0.002398 0.000000 0.000000 0.000000
# 3 -0.002097 -0.002398 0.014069 0.000000 0.000000 0.000000
# 4 0.000000 0.000000 0.000000 0.040523 0.000000 0.000000
# 5 0.000000 0.000000 0.000000 0.000000 0.044487 0.000000
# 6 0.000000 0.000000 0.000000 0.000000 0.000000 0.043148
#
#
# Mechanical properties :
#
#
# Convention : Reuss Voigt Hill
#
# Bulk Modulus (GPa) = 44.58045 47.79395 46.18720
# Shear Modulus (GPa) = 26.75265 28.45817 27.60541
#
# Velocity S-wave (km/s) = 3.37190 3.47773 3.42522
# Velocity P-wave (km/s) = 5.84004 6.03641 5.93904
#
# Compressibility (1/GPa) = 0.02243136
#
# Stress axis : x y z
#
# Youngs Moduli (GPa) = 114.84661 71.06876 71.08021
#
# Poissons Ratio (x) = 0.19277 0.14906
# Poissons Ratio (y) = 0.31151 0.17047
# Poissons Ratio (z) = 0.24084 0.17044
#
# Static dielectric constant tensor:
#      x y z
#    x 1.893010 0.000000 0.000000 
#    y 0.000000 1.934700 0.000000 
#    z 0.000000 0.000000 1.999090 
# 
# From -- ./inp_files/9439.got.cif
#   From: 2010.05.17/outbox.cif.g08.bks.cpg/sg40_5_cif.got.tgz:9439.got - 2010.06.03 18:35:42.
