data_PCOD9364007
_publ_section_title
;
Structure prediction by ZEFSAII (Michael W. Deem and Ramdas Pophale) SiO2 
 PCOD9364007
Probable space group: A M A 2
;
_chemical_formula_sum "Si O2"
_cell_formula_units_Z 64
_cell_length_a 9.039759
_cell_length_b 25.424851
_cell_length_c 15.241723
_cell_angle_alpha 90.000000
_cell_angle_beta 90.000000
_cell_angle_gamma 90.000000
_cell_volume 3503.074176
_symmetry_space_group_name_H-M "A M A 2"
_symmetry_group_IT_number 40
_symmetry_cell_setting 'orthorhombic'
loop_
_space_group_symop_operation_xyz
x,y,z
-x,-y,z
1/2-x,y,z
1/2+x,-y,z
x,1/2+y,1/2+z
-x,1/2-y,1/2+z
1/2-x,1/2+y,1/2+z
1/2+x,1/2-y,1/2+z
loop_
_atom_site_type_symbol
_atom_site_label
_atom_site_fract_x
_atom_site_fract_y
_atom_site_fract_z
Si Si1 0.425567 0.353400 0.414530
Si Si2 0.074282 0.331176 0.211396
Si Si3 0.073748 0.634199 0.044687
Si Si4 0.927111 0.885904 0.205116
Si Si5 0.926126 0.721142 0.738322
Si Si6 0.428187 0.557088 0.886563
Si Si7 0.925877 0.944129 0.026283
Si Si8 0.573587 0.266001 0.925942
O O1 0.250000 0.362171 0.426317
O O2 0.456655 0.351052 0.310153
O O3 0.514400 0.398617 0.462796
O O4 0.459683 0.294460 0.449531
O O5 0.250000 0.324219 0.204006
O O6 0.013076 0.368487 0.135434
O O7 0.994539 0.274915 0.201463
O O8 0.250000 0.630217 0.060098
O O9 0.031163 0.590992 0.972212
O O10 0.045459 0.691061 0.000088
O O11 0.750000 0.876306 0.206979
O O12 0.970244 0.911624 0.298091
O O13 0.960022 0.925144 0.125449
O O14 0.010217 0.830894 0.193122
O O15 0.750000 0.722680 0.733222
O O16 0.982640 0.719508 0.839112
O O17 0.500000 0.500000 0.887562
O O18 0.250000 0.731638 0.903950
O O19 0.750000 0.948713 0.017885
O O20 0.000000 0.000000 0.008151
O O21 0.750000 0.447576 0.885446
#
# Coordination Sequence:
#
# PCOD9364007 Si02
#       8
#     8   8   8   8   8   8   8   8
#     4   9  20  39  61  83 114 154 193 240 298 349
#     4  10  22  39  59  84 119 158 193 243 299 350
#     4  10  20  36  59  87 119 158 197 240 292 345
#     4  10  21  39  58  83 119 158 192 236 295 348
#     4  11  21  33  55  87 119 155 197 236 282 347
#     4  10  21  38  60  83 118 158 195 238 289 346
#     4  11  24  40  62  87 115 151 196 247 293 349
#     4   9  18  36  58  82 119 157 189 232 292 348
#
# _framework density 18.269667999999999
#
# number of rings (size 3 to 8) (size 9 to 14) (size 15 to 20)
#    0.000    2.000    1.250    3.000    1.750    5.000 
#    0.000    0.625    0.000    1.500    0.000    0.000 
#    0.000    0.000    0.000    0.000    0.000    0.000 
#
# Total GULP energy -178739.579653 kJ/mol
# GULP energy per Si atom -5585.611864 kJ/mol
# Density = 1.822809 g / cm^3
# Si number density = 18.269668 Si / 1000 Ang^3
#
#
#
# Elastic Constant Matrix: (Units=GPa)
#
#
# Indices 1 2 3 4 5 6 
#
# 1 42.5405 44.6158 34.3393 0.0000 0.0000 0.0000
# 2 44.6158 110.8327 43.9233 0.0000 0.0000 0.0000
# 3 34.3393 43.9233 65.0977 0.0000 0.0000 0.0000
# 4 0.0000 0.0000 0.0000 22.5555 0.0000 0.0000
# 5 0.0000 0.0000 0.0000 0.0000 25.5593 0.0000
# 6 0.0000 0.0000 0.0000 0.0000 0.0000 33.2712
#
#
#
# Elastic Compliance Matrix: (Units=1/GPa)
#
#
# Indices 1 2 3 4 5 6 
#
# 1 0.053300 -0.014078 -0.018617 0.000000 0.000000 0.000000
# 2 -0.014078 0.016034 -0.003393 0.000000 0.000000 0.000000
# 3 -0.018617 -0.003393 0.027471 0.000000 0.000000 0.000000
# 4 0.000000 0.000000 0.000000 0.044335 0.000000 0.000000
# 5 0.000000 0.000000 0.000000 0.000000 0.039125 0.000000
# 6 0.000000 0.000000 0.000000 0.000000 0.000000 0.030056
#
#
# Mechanical properties :
#
#
# Convention : Reuss Voigt Hill
#
# Bulk Modulus (GPa) = 40.60090 51.58088 46.09089
# Shear Modulus (GPa) = 17.19950 22.65001 19.92476
#
# Velocity S-wave (km/s) = 3.07159 3.52484 3.30599
# Velocity P-wave (km/s) = 5.90347 6.69779 6.31313
#
# Compressibility (1/GPa) = 0.02462999
#
# Stress axis : x y z
#
# Youngs Moduli (GPa) = 18.76183 62.36682 36.40175
#
# Poissons Ratio (x) = 0.87799 0.67769
# Poissons Ratio (y) = 0.26413 0.12350
# Poissons Ratio (z) = 0.34929 0.21159
#
# Static dielectric constant tensor:
#      x y z
#    x 1.606400 0.000000 0.000000 
#    y 0.000000 1.603390 0.000000 
#    z 0.000000 0.000000 1.637360 
# 
# From -- ./inp_files/15569.got.cif
#   From: 2010.05.17/outbox.cif.g08.bks.cpg/sg40_8_cif.got.tgz:15569.got - 2010.06.03 18:35:42.
