data_PCOD9364729
_publ_section_title
;
Structure prediction by ZEFSAII (Michael W. Deem and Ramdas Pophale) SiO2 
 PCOD9364729
Probable space group: A M A 2
;
_chemical_formula_sum "Si O2"
_cell_formula_units_Z 48
_cell_length_a 16.505250
_cell_length_b 24.984606
_cell_length_c 5.490021
_cell_angle_alpha 90.000000
_cell_angle_beta 90.000000
_cell_angle_gamma 90.000000
_cell_volume 2263.959313
_symmetry_space_group_name_H-M "A M A 2"
_symmetry_group_IT_number 40
_symmetry_cell_setting 'orthorhombic'
loop_
_space_group_symop_operation_xyz
x,y,z
-x,-y,z
1/2-x,y,z
1/2+x,-y,z
x,1/2+y,1/2+z
-x,1/2-y,1/2+z
1/2-x,1/2+y,1/2+z
1/2+x,1/2-y,1/2+z
loop_
_atom_site_type_symbol
_atom_site_label
_atom_site_fract_x
_atom_site_fract_y
_atom_site_fract_z
Si Si1 0.160741 0.112265 0.952220
Si Si2 0.446682 0.347219 0.028472
Si Si3 0.661178 0.712817 0.330756
Si Si4 0.376946 0.172498 0.438883
Si Si5 0.341183 0.396736 0.643496
Si Si6 0.994916 0.059569 0.896067
O O1 0.250000 0.086278 0.940761
O O2 0.146401 0.140628 0.687225
O O3 0.083676 0.073764 0.000437
O O4 0.161509 0.151537 0.186712
O O5 0.413529 0.293552 0.149734
O O6 0.477616 0.393500 0.206454
O O7 0.526968 0.332699 0.882554
O O8 0.369210 0.373077 0.899868
O O9 0.750000 0.716849 0.213803
O O10 0.647477 0.766155 0.483687
O O11 0.658919 0.656901 0.477120
O O12 0.250000 0.419126 0.640662
O O13 0.415817 0.435182 0.569063
O O14 0.000000 0.000000 0.792221
#
# Coordination Sequence:
#
# PCOD9364729 Si02
#       6
#     8   8   8   8   8   8
#     4  11  23  43  65  96 133 170 216 269 323 385
#     4  10  22  38  61  91 125 168 211 270 317 384
#     4  10  22  36  58  91 128 172 213 254 311 384
#     4  11  24  40  65  95 134 176 216 260 318 381
#     4  10  21  40  62  92 127 164 213 266 320 386
#     4  10  23  43  65  89 123 164 215 275 332 389
#
# _framework density 21.201792999999999
#
# number of rings (size 3 to 8) (size 9 to 14) (size 15 to 20)
#    0.000    1.667    1.667    2.000    4.667    2.000 
#    0.000    0.000    0.000    0.000    0.000    0.000 
#    0.000    0.000    0.000    0.000    0.000    0.000 
#
# Total GULP energy -133652.236436 kJ/mol
# GULP energy per Si atom -5568.843185 kJ/mol
# Density = 2.115354 g / cm^3
# Si number density = 21.201793 Si / 1000 Ang^3
#
#
#
# Elastic Constant Matrix: (Units=GPa)
#
#
# Indices 1 2 3 4 5 6 
#
# 1 184.3994 39.2940 15.9129 0.0000 0.0000 0.0000
# 2 39.2940 55.3205 -4.0316 0.0000 0.0000 0.0000
# 3 15.9129 -4.0316 53.6030 0.0000 0.0000 0.0000
# 4 0.0000 0.0000 0.0000 1.7698 0.0000 0.0000
# 5 0.0000 0.0000 0.0000 0.0000 -35.5140 0.0000
# 6 0.0000 0.0000 0.0000 0.0000 0.0000 31.9723
#
#
#
# Elastic Compliance Matrix: (Units=1/GPa)
#
#
# Indices 1 2 3 4 5 6 
#
# 1 0.006672 -0.004911 -0.002350 0.000000 0.000000 0.000000
# 2 -0.004911 0.021790 0.003097 0.000000 0.000000 0.000000
# 3 -0.002350 0.003097 0.019586 0.000000 0.000000 0.000000
# 4 0.000000 0.000000 0.000000 0.565048 0.000000 0.000000
# 5 0.000000 0.000000 0.000000 0.000000 -0.028158 0.000000
# 6 0.000000 0.000000 0.000000 0.000000 0.000000 0.031277
#
#
# Mechanical properties :
#
#
# Convention : Reuss Voigt Hill
#
# Bulk Modulus (GPa) = 25.17581 43.96371 34.56976
# Shear Modulus (GPa) = 7.83965 15.78879 11.81422
#
# Velocity S-wave (km/s) = 1.92501 2.73186 2.36313
# Velocity P-wave (km/s) = 4.10378 5.54361 4.87712
#
# Compressibility (1/GPa) = 0.03972067
#
# Stress axis : x y z
#
# Youngs Moduli (GPa) = 149.87546 45.89241 51.05625
#
# Poissons Ratio (x) = 0.22536 0.11999
# Poissons Ratio (y) = 0.73597 -0.15810
# Poissons Ratio (z) = 0.35222 -0.14211
#
# Static dielectric constant tensor:
#      x y z
#    x 1.915320 0.000000 0.000000 
#    y 0.000000 1.730890 0.000000 
#    z 0.000000 0.000000 1.859930 
# 
# From -- ./inp_files/1870.got.cif
#   From: 2010.05.17/outbox.cif.g08.bks.cpg/sg40_1_cif.got.tgz:1870.got - 2010.06.03 18:35:42.
