data_PCOD9364387
_publ_section_title
;
Structure prediction by ZEFSAII (Michael W. Deem and Ramdas Pophale) SiO2 
 PCOD9364387
Probable space group: A M A 2
;
_chemical_formula_sum "Si O2"
_cell_formula_units_Z 52
_cell_length_a 15.288386
_cell_length_b 8.913191
_cell_length_c 21.001192
_cell_angle_alpha 90.000000
_cell_angle_beta 90.000000
_cell_angle_gamma 90.000000
_cell_volume 2861.796826
_symmetry_space_group_name_H-M "A M A 2"
_symmetry_group_IT_number 40
_symmetry_cell_setting 'orthorhombic'
loop_
_space_group_symop_operation_xyz
x,y,z
-x,-y,z
1/2-x,y,z
1/2+x,-y,z
x,1/2+y,1/2+z
-x,1/2-y,1/2+z
1/2-x,1/2+y,1/2+z
1/2+x,1/2-y,1/2+z
loop_
_atom_site_type_symbol
_atom_site_label
_atom_site_fract_x
_atom_site_fract_y
_atom_site_fract_z
Si Si1 0.911284 0.923544 0.672670
Si Si2 0.416138 0.903084 0.952273
Si Si3 0.489433 0.837549 0.088117
Si Si4 0.250000 0.575972 0.405144
Si Si5 0.250000 0.897960 0.357174
Si Si6 0.647500 0.623490 0.053244
Si Si7 0.250000 0.141775 0.763787
Si Si8 0.596960 0.443129 0.923858
O O1 0.944332 0.776136 0.636070
O O2 0.836693 0.891024 0.723687
O O3 0.871170 0.028484 0.617211
O O4 0.000000 0.000000 0.699102
O O5 0.333734 0.004719 0.937212
O O6 0.404554 0.736873 0.924142
O O7 0.500000 0.000000 0.930304
O O8 0.429739 0.870884 0.026862
O O9 0.578105 0.760518 0.059744
O O10 0.500000 0.000000 0.119417
O O11 0.250000 0.756320 0.406290
O O12 0.250000 0.545763 0.329095
O O13 0.250000 0.813095 0.289894
O O14 0.334657 0.994619 0.372874
O O15 0.750000 0.665413 0.050841
O O16 0.623742 0.517474 0.992486
O O17 0.500000 0.500000 0.910452
#
# Coordination Sequence:
#
# PCOD9364387 Si02
#       8
#     8   8   8   4   4   8   4   8
#     4  10  20  42  69  90 124 167 218 258 309 381
#     4  11  22  38  62  96 133 156 201 261 325 389
#     4  10  22  37  60 101 131 156 198 260 332 385
#     4  10  25  40  57  90 122 168 216 249 316 362
#     4  10  25  40  59  92 124 162 226 256 302 380
#     4  11  20  36  65  98 125 166 206 252 320 394
#     4  10  24  44  64  90 118 176 226 263 298 360
#     4  12  20  37  63  93 127 166 199 255 324 388
#
# _framework density 18.170403
#
# number of rings (size 3 to 8) (size 9 to 14) (size 15 to 20)
#    0.462    0.923    4.615    1.846    2.154    1.231 
#    1.385    0.769   10.154    0.000    0.000    0.000 
#    0.000    0.000    0.000    0.000    0.000    0.000 
#
# Total GULP energy -145042.556205 kJ/mol
# GULP energy per Si atom -5578.559854 kJ/mol
# Density = 1.812905 g / cm^3
# Si number density = 18.170403 Si / 1000 Ang^3
#
#
#
# Elastic Constant Matrix: (Units=GPa)
#
#
# Indices 1 2 3 4 5 6 
#
# 1 168.6057 51.0786 58.9610 0.0000 0.0000 0.0000
# 2 51.0786 122.7265 28.3838 0.0000 0.0000 0.0000
# 3 58.9610 28.3838 74.6549 0.0000 0.0000 0.0000
# 4 0.0000 0.0000 0.0000 23.5522 0.0000 0.0000
# 5 0.0000 0.0000 0.0000 0.0000 -40.6021 0.0000
# 6 0.0000 0.0000 0.0000 0.0000 0.0000 35.6080
#
#
#
# Elastic Compliance Matrix: (Units=1/GPa)
#
#
# Indices 1 2 3 4 5 6 
#
# 1 0.008718 -0.002232 -0.006037 0.000000 0.000000 0.000000
# 2 -0.002232 0.009505 -0.001851 0.000000 0.000000 0.000000
# 3 -0.006037 -0.001851 0.018866 0.000000 0.000000 0.000000
# 4 0.000000 0.000000 0.000000 0.042459 0.000000 0.000000
# 5 0.000000 0.000000 0.000000 0.000000 -0.024629 0.000000
# 6 0.000000 0.000000 0.000000 0.000000 0.000000 0.028084
#
#
# Mechanical properties :
#
#
# Convention : Reuss Voigt Hill
#
# Bulk Modulus (GPa) = 59.34709 71.42598 65.38654
# Shear Modulus (GPa) = 45.93053 18.88255 32.40654
#
# Velocity S-wave (km/s) = 5.03314 3.22715 4.22771
# Velocity P-wave (km/s) = 8.15531 7.29933 7.73916
#
# Compressibility (1/GPa) = 0.01685003
#
# Stress axis : x y z
#
# Youngs Moduli (GPa) = 114.70046 105.20364 53.00421
#
# Poissons Ratio (x) = 0.23486 0.31998
# Poissons Ratio (y) = 0.25606 0.09810
# Poissons Ratio (z) = 0.69243 0.19472
#
# Static dielectric constant tensor:
#      x y z
#    x 1.650270 0.000000 0.000000 
#    y 0.000000 1.661330 0.000000 
#    z 0.000000 0.000000 1.614940 
# 
# From -- ./inp_files/23093.got.cif
#   From: 2010.05.17/outbox.cif.g08.bks.cpg/sg40_12_cif.got.tgz:23093.got - 2010.06.03 18:35:42.
