data_PCOD9364717
_publ_section_title
;
Structure prediction by ZEFSAII (Michael W. Deem and Ramdas Pophale) SiO2 
 PCOD9364717
Probable space group: A M A 2
;
_chemical_formula_sum "Si O2"
_cell_formula_units_Z 32
_cell_length_a 23.005570
_cell_length_b 12.967245
_cell_length_c 4.837200
_cell_angle_alpha 90.000000
_cell_angle_beta 90.000000
_cell_angle_gamma 90.000000
_cell_volume 1443.028002
_symmetry_space_group_name_H-M "A M A 2"
_symmetry_group_IT_number 40
_symmetry_cell_setting 'orthorhombic'
loop_
_space_group_symop_operation_xyz
x,y,z
-x,-y,z
1/2-x,y,z
1/2+x,-y,z
x,1/2+y,1/2+z
-x,1/2-y,1/2+z
1/2-x,1/2+y,1/2+z
1/2+x,1/2-y,1/2+z
loop_
_atom_site_type_symbol
_atom_site_label
_atom_site_fract_x
_atom_site_fract_y
_atom_site_fract_z
Si Si1 0.250000 0.489062 0.005510
Si Si2 0.250000 0.136143 0.006651
Si Si3 0.927082 0.199819 0.895388
Si Si4 0.688017 0.687837 0.736476
Si Si5 0.511235 0.616347 0.895644
O O1 0.250000 0.536248 0.308285
O O2 0.304335 0.415004 0.923379
O O3 0.250000 0.589114 0.808857
O O4 0.304477 0.210418 0.928283
O O5 0.864186 0.191042 0.026566
O O6 0.968474 0.126749 0.080403
O O7 0.954426 0.313183 0.934896
O O8 0.937677 0.166538 0.581426
O O9 0.750000 0.688182 0.574289
O O10 0.500000 0.500000 0.972984
#
# Coordination Sequence:
#
# PCOD9364717 Si02
#       5
#     4   4   8   8   8
#     4   9  20  35  52  78 110 149 182 225 274 340
#     4   9  20  37  54  80 114 147 188 219 280 334
#     4  10  21  40  56  88 115 147 192 241 280 344
#     4   8  22  37  58  86 117 150 187 236 286 343
#     4  10  22  38  62  83 114 152 195 236 289 328
#
# _framework density 22.175591000000001
#
# number of rings (size 3 to 8) (size 9 to 14) (size 15 to 20)
#    1.500    1.000    0.000    0.750    0.000   12.000 
#    0.000    0.000    0.000    0.000    0.000    0.000 
#    0.000    0.000    0.000    0.000    0.000    0.000 
#
# Total GULP energy -89280.828034 kJ/mol
# GULP energy per Si atom -5580.051752 kJ/mol
# Density = 2.212512 g / cm^3
# Si number density = 22.175591 Si / 1000 Ang^3
#
#
#
# Elastic Constant Matrix: (Units=GPa)
#
#
# Indices 1 2 3 4 5 6 
#
# 1 45.6885 16.4787 -16.0980 0.0000 0.0000 0.0000
# 2 16.4787 137.9902 10.4058 0.0000 0.0000 0.0000
# 3 -16.0980 10.4058 62.0739 0.0000 0.0000 0.0000
# 4 0.0000 0.0000 0.0000 24.0889 0.0000 0.0000
# 5 0.0000 0.0000 0.0000 0.0000 11.2999 0.0000
# 6 0.0000 0.0000 0.0000 0.0000 0.0000 5.1635
#
#
#
# Elastic Compliance Matrix: (Units=1/GPa)
#
#
# Indices 1 2 3 4 5 6 
#
# 1 0.025764 -0.003626 0.007289 0.000000 0.000000 0.000000
# 2 -0.003626 0.007850 -0.002256 0.000000 0.000000 0.000000
# 3 0.007289 -0.002256 0.018378 0.000000 0.000000 0.000000
# 4 0.000000 0.000000 0.000000 0.041513 0.000000 0.000000
# 5 0.000000 0.000000 0.000000 0.000000 0.088496 0.000000
# 6 0.000000 0.000000 0.000000 0.000000 0.000000 0.193668
#
#
# Mechanical properties :
#
#
# Convention : Reuss Voigt Hill
#
# Bulk Modulus (GPa) = 18.24639 29.70284 23.97461
# Shear Modulus (GPa) = 12.78365 23.77486 18.27926
#
# Velocity S-wave (km/s) = 2.40359 3.27787 2.87417
# Velocity P-wave (km/s) = 3.99362 5.26777 4.67431
#
# Compressibility (1/GPa) = 0.05480536
#
# Stress axis : x y z
#
# Youngs Moduli (GPa) = 38.81442 127.38690 54.41147
#
# Poissons Ratio (x) = 0.46195 -0.39662
# Poissons Ratio (y) = 0.14075 0.12277
# Poissons Ratio (z) = -0.28293 0.28744
#
# Static dielectric constant tensor:
#      x y z
#    x 1.848710 0.000000 0.000000 
#    y 0.000000 1.801650 0.000000 
#    z 0.000000 0.000000 1.795600 
# 
# From -- ./inp_files/2129.got.cif
#   From: 2010.05.17/outbox.cif.g08.bks.cpg/sg40_2_cif.got.tgz:2129.got - 2010.06.03 18:35:42.
