data_PCOD9364384
_publ_section_title
;
Structure prediction by ZEFSAII (Michael W. Deem and Ramdas Pophale) SiO2 
 PCOD9364384
Probable space group: A M A 2
;
_chemical_formula_sum "Si O2"
_cell_formula_units_Z 48
_cell_length_a 22.537212
_cell_length_b 11.043320
_cell_length_c 8.139416
_cell_angle_alpha 90.000000
_cell_angle_beta 90.000000
_cell_angle_gamma 90.000000
_cell_volume 2025.783793
_symmetry_space_group_name_H-M "A M A 2"
_symmetry_group_IT_number 40
_symmetry_cell_setting 'orthorhombic'
loop_
_space_group_symop_operation_xyz
x,y,z
-x,-y,z
1/2-x,y,z
1/2+x,-y,z
x,1/2+y,1/2+z
-x,1/2-y,1/2+z
1/2-x,1/2+y,1/2+z
1/2+x,1/2-y,1/2+z
loop_
_atom_site_type_symbol
_atom_site_label
_atom_site_fract_x
_atom_site_fract_y
_atom_site_fract_z
Si Si1 0.750000 0.971682 0.683430
Si Si2 0.750000 0.430263 0.577302
Si Si3 0.047083 0.606563 0.311067
Si Si4 0.000000 0.000000 0.398072
Si Si5 0.342675 0.211719 0.297061
Si Si6 0.250000 0.804054 0.036463
Si Si7 0.125923 0.007567 0.563230
Si Si8 0.036650 0.719717 0.660953
O O1 0.750000 0.829407 0.621016
O O2 0.807817 0.040286 0.605913
O O3 0.750000 0.951412 0.880838
O O4 0.694750 0.354063 0.652687
O O5 0.750000 0.571685 0.639693
O O6 0.108690 0.564898 0.238765
O O7 0.050478 0.675118 0.480664
O O8 0.000000 0.500000 0.337652
O O9 0.019022 0.692550 0.172244
O O10 0.939668 0.038017 0.498733
O O11 0.981269 0.891350 0.278184
O O12 0.305623 0.300261 0.412824
O O13 0.360366 0.103700 0.420136
O O14 0.402426 0.273472 0.232496
#
# Coordination Sequence:
#
# PCOD9364384 Si02
#       8
#     4   4   8   4   8   4   8   8
#     4  10  22  42  66  96 134 172 231 274 335 409
#     4  11  21  43  70  96 132 181 232 278 340 414
#     4  12  25  43  68  99 135 181 232 284 351 413
#     4  10  20  42  68 100 134 182 222 278 346 402
#     4   9  21  41  65  94 136 172 229 285 337 408
#     4   9  21  43  62  94 132 181 221 282 341 397
#     4  10  21  43  67  94 137 176 222 285 335 405
#     4  11  23  42  65 100 138 177 228 289 343 415
#
# _framework density 23.694533
#
# number of rings (size 3 to 8) (size 9 to 14) (size 15 to 20)
#    0.000    1.667    1.667    3.500    0.000    2.667 
#   12.000    8.333    0.000    0.000    0.000    0.000 
#    0.000    0.000    0.000    0.000    0.000    0.000 
#
# Total GULP energy -133947.203556 kJ/mol
# GULP energy per Si atom -5581.133481 kJ/mol
# Density = 2.364060 g / cm^3
# Si number density = 23.694533 Si / 1000 Ang^3
#
#
#
# Elastic Constant Matrix: (Units=GPa)
#
#
# Indices 1 2 3 4 5 6 
#
# 1 159.0041 16.2381 32.0549 0.0000 0.0000 0.0000
# 2 16.2381 62.9021 4.1610 0.0000 0.0000 0.0000
# 3 32.0549 4.1610 113.9336 0.0000 0.0000 0.0000
# 4 0.0000 0.0000 0.0000 37.5149 0.0000 0.0000
# 5 0.0000 0.0000 0.0000 0.0000 31.9356 0.0000
# 6 0.0000 0.0000 0.0000 0.0000 0.0000 23.9801
#
#
#
# Elastic Compliance Matrix: (Units=1/GPa)
#
#
# Indices 1 2 3 4 5 6 
#
# 1 0.006832 -0.001641 -0.001862 0.000000 0.000000 0.000000
# 2 -0.001641 0.016330 -0.000135 0.000000 0.000000 0.000000
# 3 -0.001862 -0.000135 0.009306 0.000000 0.000000 0.000000
# 4 0.000000 0.000000 0.000000 0.026656 0.000000 0.000000
# 5 0.000000 0.000000 0.000000 0.000000 0.031313 0.000000
# 6 0.000000 0.000000 0.000000 0.000000 0.000000 0.041701
#
#
# Mechanical properties :
#
#
# Convention : Reuss Voigt Hill
#
# Bulk Modulus (GPa) = 39.69374 48.97198 44.33286
# Shear Modulus (GPa) = 33.82686 37.57849 35.70268
#
# Velocity S-wave (km/s) = 3.78249 3.98673 3.88595
# Velocity P-wave (km/s) = 5.98873 6.47340 6.23578
#
# Compressibility (1/GPa) = 0.02519289
#
# Stress axis : x y z
#
# Youngs Moduli (GPa) = 146.36764 61.23650 107.45854
#
# Poissons Ratio (x) = 0.10046 0.20012
# Poissons Ratio (y) = 0.24012 0.01449
# Poissons Ratio (z) = 0.27258 0.00826
#
# Static dielectric constant tensor:
#      x y z
#    x 1.906850 0.000000 0.000000 
#    y 0.000000 1.961820 0.000000 
#    z 0.000000 0.000000 1.868200 
# 
# From -- ./inp_files/8784.got.cif
#   From: 2010.05.17/outbox.cif.g08.bks.cpg/sg40_5_cif.got.tgz:8784.got - 2010.06.03 18:35:42.
