data_PCOD9364793
_publ_section_title
;
Structure prediction by ZEFSAII (Michael W. Deem and Ramdas Pophale) SiO2 
 PCOD9364793
Probable space group: A M A 2
;
_chemical_formula_sum "Si O2"
_cell_formula_units_Z 64
_cell_length_a 8.712505
_cell_length_b 24.335958
_cell_length_c 15.826436
_cell_angle_alpha 90.000000
_cell_angle_beta 90.000000
_cell_angle_gamma 90.000000
_cell_volume 3355.634211
_symmetry_space_group_name_H-M "A M A 2"
_symmetry_group_IT_number 40
_symmetry_cell_setting 'orthorhombic'
loop_
_space_group_symop_operation_xyz
x,y,z
-x,-y,z
1/2-x,y,z
1/2+x,-y,z
x,1/2+y,1/2+z
-x,1/2-y,1/2+z
1/2-x,1/2+y,1/2+z
1/2+x,1/2-y,1/2+z
loop_
_atom_site_type_symbol
_atom_site_label
_atom_site_fract_x
_atom_site_fract_y
_atom_site_fract_z
Si Si1 0.933330 0.749494 0.268910
Si Si2 0.934164 0.061081 0.360275
Si Si3 0.065370 0.369372 0.194936
Si Si4 0.567593 0.746699 0.956994
Si Si5 0.067653 0.131273 0.514267
Si Si6 0.565469 0.138457 0.014254
Si Si7 0.434208 0.361833 0.703814
Si Si8 0.064837 0.438999 0.359706
O O1 0.750000 0.749693 0.282848
O O2 0.972329 0.693580 0.219603
O O3 0.016244 0.750265 0.359338
O O4 0.984521 0.803737 0.219660
O O5 0.750000 0.059142 0.363076
O O6 0.980055 0.095932 0.277186
O O7 0.994713 0.092960 0.442409
O O8 0.000000 0.000000 0.356917
O O9 0.250000 0.372636 0.184933
O O10 0.019857 0.407448 0.273870
O O11 0.986423 0.385295 0.107661
O O12 0.750000 0.741112 0.963317
O O13 0.490287 0.693197 0.997480
O O14 0.511489 0.802605 0.000201
O O15 0.250000 0.129187 0.507504
O O16 0.750000 0.145556 0.006371
O O17 0.532335 0.118218 0.108982
O O18 0.515475 0.096885 0.940753
O O19 0.250000 0.353515 0.710434
O O20 0.250000 0.441180 0.361079
O O21 0.000000 0.500000 0.362396
#
# Coordination Sequence:
#
# PCOD9364793 Si02
#       8
#     8   8   8   8   8   8   8   8
#     4  11  21  37  63  91 124 163 201 245 306 368
#     4  11  24  43  64  90 122 163 209 259 307 359
#     4  10  22  41  63  90 125 163 203 253 306 363
#     4  12  23  37  61  93 127 162 201 250 307 368
#     4  12  25  41  64  93 124 163 204 252 309 370
#     4  10  21  41  64  91 125 163 205 250 303 363
#     4  10  22  39  63  92 124 160 200 249 304 361
#     4  10  22  41  63  88 122 162 206 255 304 356
#
# _framework density 19.072399999999998
#
# number of rings (size 3 to 8) (size 9 to 14) (size 15 to 20)
#    0.000    1.250    2.500    3.750    0.000    6.000 
#    0.000    1.250    0.000    0.000    0.000    0.000 
#    0.000    0.000    0.000    0.000    0.000    0.000 
#
# Total GULP energy -178957.061694 kJ/mol
# GULP energy per Si atom -5592.408178 kJ/mol
# Density = 1.902899 g / cm^3
# Si number density = 19.072400 Si / 1000 Ang^3
#
#
#
# Elastic Constant Matrix: (Units=GPa)
#
#
# Indices 1 2 3 4 5 6 
#
# 1 53.0278 40.0962 49.7917 0.0000 0.0000 0.0000
# 2 40.0962 145.7392 72.1580 0.0000 0.0000 0.0000
# 3 49.7917 72.1580 163.8897 0.0000 0.0000 0.0000
# 4 0.0000 0.0000 0.0000 -1.6352 0.0000 0.0000
# 5 0.0000 0.0000 0.0000 0.0000 -0.8397 0.0000
# 6 0.0000 0.0000 0.0000 0.0000 0.0000 34.4541
#
#
#
# Elastic Compliance Matrix: (Units=1/GPa)
#
#
# Indices 1 2 3 4 5 6 
#
# 1 0.028569 -0.004556 -0.006674 0.000000 0.000000 0.000000
# 2 -0.004556 0.009501 -0.002799 0.000000 0.000000 0.000000
# 3 -0.006674 -0.002799 0.009362 0.000000 0.000000 0.000000
# 4 0.000000 0.000000 0.000000 -0.611528 0.000000 0.000000
# 5 0.000000 0.000000 0.000000 0.000000 -1.190925 0.000000
# 6 0.000000 0.000000 0.000000 0.000000 0.000000 0.029024
#
#
# Mechanical properties :
#
#
# Convention : Reuss Voigt Hill
#
# Bulk Modulus (GPa) = 51.61396 76.30538 63.95967
# Shear Modulus (GPa) = -2.95599 19.76989 8.40695
#
# Velocity S-wave (km/s) = -1.24629 3.22307 2.10178
# Velocity P-wave (km/s) = 5.00499 7.34480 6.28474
#
# Compressibility (1/GPa) = 0.01937460
#
# Stress axis : x y z
#
# Youngs Moduli (GPa) = 35.00249 105.25467 106.81915
#
# Poissons Ratio (x) = 0.47951 0.71290
# Poissons Ratio (y) = 0.15946 0.29898
# Poissons Ratio (z) = 0.23360 0.29460
#
# Static dielectric constant tensor:
#      x y z
#    x 1.640100 0.000000 0.000000 
#    y 0.000000 1.625110 0.000000 
#    z 0.000000 0.000000 1.667670 
# 
# From -- ./inp_files/15605.got.cif
#   From: 2010.05.17/outbox.cif.g08.bks.cpg/sg40_8_cif.got.tgz:15605.got - 2010.06.03 18:35:42.
