data_PCOD9364874
_publ_section_title
;
Structure prediction by ZEFSAII (Michael W. Deem and Ramdas Pophale) SiO2 
 PCOD9364874
Probable space group: A M A 2
;
_chemical_formula_sum "Si O2"
_cell_formula_units_Z 24
_cell_length_a 9.730294
_cell_length_b 10.664527
_cell_length_c 9.169187
_cell_angle_alpha 90.000000
_cell_angle_beta 90.000000
_cell_angle_gamma 90.000000
_cell_volume 951.477211
_symmetry_space_group_name_H-M "A M A 2"
_symmetry_group_IT_number 40
_symmetry_cell_setting 'orthorhombic'
loop_
_space_group_symop_operation_xyz
x,y,z
-x,-y,z
1/2-x,y,z
1/2+x,-y,z
x,1/2+y,1/2+z
-x,1/2-y,1/2+z
1/2-x,1/2+y,1/2+z
1/2+x,1/2-y,1/2+z
loop_
_atom_site_type_symbol
_atom_site_label
_atom_site_fract_x
_atom_site_fract_y
_atom_site_fract_z
Si Si1 0.054262 0.197335 0.929950
Si Si2 0.750000 0.415497 0.656092
Si Si3 0.250000 0.925490 0.431039
Si Si4 0.250000 0.581348 0.211570
Si Si5 0.250000 0.316284 0.499159
O O1 0.119446 0.334813 0.903458
O O2 0.121203 0.099678 0.817540
O O3 0.892698 0.194638 0.916087
O O4 0.116874 0.155650 0.088176
O O5 0.750000 0.453759 0.825372
O O6 0.750000 0.551906 0.581483
O O7 0.250000 0.968533 0.598993
O O8 0.250000 0.705460 0.114536
#
# Coordination Sequence:
#
# PCOD9364874 Si02
#       5
#     8   4   4   4   4
#     4  10  25  49  74 112 150 192 244 306 367 436
#     4  10  21  50  80 101 148 197 242 303 367 436
#     4  10  22  52  76 111 145 188 257 295 369 438
#     4  10  24  50  75 110 144 195 249 300 361 439
#     4  12  23  48  77 106 151 194 240 304 373 435
#
# _framework density 25.223935000000001
#
# number of rings (size 3 to 8) (size 9 to 14) (size 15 to 20)
#    0.000    2.000    3.333    1.000    0.000    4.000 
#   42.000    1.667    0.000    0.000    0.000    0.000 
#    0.000    0.000    0.000    0.000    0.000    0.000 
#
# Total GULP energy -67234.766839 kJ/mol
# GULP energy per Si atom -5602.897237 kJ/mol
# Density = 2.516652 g / cm^3
# Si number density = 25.223935 Si / 1000 Ang^3
#
#
#
# Elastic Constant Matrix: (Units=GPa)
#
#
# Indices 1 2 3 4 5 6 
#
# 1 249.7399 33.5008 69.7851 0.0000 0.0000 0.0000
# 2 33.5008 98.2751 39.3082 0.0000 0.0000 0.0000
# 3 69.7851 39.3082 150.3435 0.0000 0.0000 0.0000
# 4 0.0000 0.0000 0.0000 62.0746 0.0000 0.0000
# 5 0.0000 0.0000 0.0000 0.0000 -11.4094 0.0000
# 6 0.0000 0.0000 0.0000 0.0000 0.0000 24.2482
#
#
#
# Elastic Compliance Matrix: (Units=1/GPa)
#
#
# Indices 1 2 3 4 5 6 
#
# 1 0.004658 -0.000807 -0.001951 0.000000 0.000000 0.000000
# 2 -0.000807 0.011504 -0.002633 0.000000 0.000000 0.000000
# 3 -0.001951 -0.002633 0.008245 0.000000 0.000000 0.000000
# 4 0.000000 0.000000 0.000000 0.016110 0.000000 0.000000
# 5 0.000000 0.000000 0.000000 0.000000 -0.087647 0.000000
# 6 0.000000 0.000000 0.000000 0.000000 0.000000 0.041240
#
#
# Mechanical properties :
#
#
# Convention : Reuss Voigt Hill
#
# Bulk Modulus (GPa) = 73.39767 87.06073 80.22920
# Shear Modulus (GPa) = 530.01060 38.70031 284.35545
#
# Velocity S-wave (km/s) = 14.51131 3.92122 10.62907
# Velocity P-wave (km/s) = 17.60490 7.42236 13.50970
#
# Compressibility (1/GPa) = 0.01362441
#
# Stress axis : x y z
#
# Youngs Moduli (GPa) = 214.70316 86.92703 121.28046
#
# Poissons Ratio (x) = 0.07019 0.23660
# Poissons Ratio (y) = 0.17336 0.31933
# Poissons Ratio (z) = 0.41885 0.22888
#
# Static dielectric constant tensor:
#      x y z
#    x 1.978270 0.000000 0.000000 
#    y 0.000000 1.947570 0.000000 
#    z 0.000000 0.000000 2.046140 
# 
# From -- ./inp_files/4847.got.cif
#   From: 2010.05.17/outbox.cif.g08.bks.cpg/sg40_3_cif.got.tgz:4847.got - 2010.06.03 18:35:42.
