data_PCOD9364026
_publ_section_title
;
Structure prediction by ZEFSAII (Michael W. Deem and Ramdas Pophale) SiO2 
 PCOD9364026
Probable space group: A M A 2
;
_chemical_formula_sum "Si O2"
_cell_formula_units_Z 40
_cell_length_a 8.898294
_cell_length_b 19.221120
_cell_length_c 10.989638
_cell_angle_alpha 90.000000
_cell_angle_beta 90.000000
_cell_angle_gamma 90.000000
_cell_volume 1879.614678
_symmetry_space_group_name_H-M "A M A 2"
_symmetry_group_IT_number 40
_symmetry_cell_setting 'orthorhombic'
loop_
_space_group_symop_operation_xyz
x,y,z
-x,-y,z
1/2-x,y,z
1/2+x,-y,z
x,1/2+y,1/2+z
-x,1/2-y,1/2+z
1/2-x,1/2+y,1/2+z
1/2+x,1/2-y,1/2+z
loop_
_atom_site_type_symbol
_atom_site_label
_atom_site_fract_x
_atom_site_fract_y
_atom_site_fract_z
Si Si1 0.573577 0.425077 0.788960
Si Si2 0.429356 0.422881 0.541683
Si Si3 0.072265 0.218762 0.399721
Si Si4 0.570523 0.076628 0.768309
Si Si5 0.430029 0.208998 0.666701
O O1 0.500000 0.500000 0.816388
O O2 0.750000 0.436697 0.768686
O O3 0.502582 0.394478 0.664237
O O4 0.555557 0.364977 0.888321
O O5 0.500000 0.500000 0.537371
O O6 0.250000 0.424662 0.557003
O O7 0.459798 0.395307 0.406392
O O8 0.250000 0.235182 0.385785
O O9 0.023837 0.240150 0.535471
O O10 0.986868 0.251205 0.285857
O O11 0.750000 0.072422 0.753898
O O12 0.497206 0.131724 0.678794
O O13 0.500000 0.000000 0.756741
O O14 0.250000 0.206530 0.666634
#
# Coordination Sequence:
#
# PCOD9364026 Si02
#       5
#     8   8   8   8   8
#     4  10  20  36  60  89 125 161 204 258 311 371
#     4   9  17  30  52  85 122 158 198 245 299 360
#     4  10  25  46  64  92 129 166 213 265 318 384
#     4  10  21  38  62  93 130 166 210 264 315 376
#     4  11  25  44  67  93 126 169 215 264 322 383
#
# _framework density 21.280957999999998
#
# number of rings (size 3 to 8) (size 9 to 14) (size 15 to 20)
#    0.000    2.000    0.000    3.600    2.800    6.400 
#    0.000    2.000    0.000    0.000    0.000    0.000 
#    0.000    0.000    0.000    0.000    0.000    0.000 
#
# Total GULP energy -111691.625987 kJ/mol
# GULP energy per Si atom -5584.581299 kJ/mol
# Density = 2.123252 g / cm^3
# Si number density = 21.280958 Si / 1000 Ang^3
#
#
#
# Elastic Constant Matrix: (Units=GPa)
#
#
# Indices 1 2 3 4 5 6 
#
# 1 84.5484 33.0959 61.8583 0.0000 0.0000 0.0000
# 2 33.0959 82.5232 41.5503 0.0000 0.0000 0.0000
# 3 61.8583 41.5503 141.6519 0.0000 0.0000 0.0000
# 4 0.0000 0.0000 0.0000 37.2785 0.0000 0.0000
# 5 0.0000 0.0000 0.0000 0.0000 27.8486 0.0000
# 6 0.0000 0.0000 0.0000 0.0000 0.0000 17.3784
#
#
#
# Elastic Compliance Matrix: (Units=1/GPa)
#
#
# Indices 1 2 3 4 5 6 
#
# 1 0.018397 -0.003911 -0.006887 0.000000 0.000000 0.000000
# 2 -0.003911 0.015049 -0.002707 0.000000 0.000000 0.000000
# 3 -0.006887 -0.002707 0.010861 0.000000 0.000000 0.000000
# 4 0.000000 0.000000 0.000000 0.026825 0.000000 0.000000
# 5 0.000000 0.000000 0.000000 0.000000 0.035909 0.000000
# 6 0.000000 0.000000 0.000000 0.000000 0.000000 0.057543
#
#
# Mechanical properties :
#
#
# Convention : Reuss Voigt Hill
#
# Bulk Modulus (GPa) = 57.80703 64.63696 61.22200
# Shear Modulus (GPa) = 25.33483 27.98234 26.65858
#
# Velocity S-wave (km/s) = 3.45409 3.63009 3.54319
# Velocity P-wave (km/s) = 6.56737 6.92886 6.75054
#
# Compressibility (1/GPa) = 0.01729893
#
# Stress axis : x y z
#
# Youngs Moduli (GPa) = 54.35715 66.45010 92.07415
#
# Poissons Ratio (x) = 0.25986 0.63408
# Poissons Ratio (y) = 0.21257 0.24920
# Poissons Ratio (z) = 0.37434 0.17985
#
# Static dielectric constant tensor:
#      x y z
#    x 1.701650 0.000000 0.000000 
#    y 0.000000 1.793960 0.000000 
#    z 0.000000 0.000000 1.805220 
# 
# From -- ./inp_files/10131.got.cif
#   From: 2010.05.17/outbox.cif.g08.bks.cpg/sg40_6_cif.got.tgz:10131.got - 2010.06.03 18:35:42.
