data_PCOD9364195
_publ_section_title
;
Structure prediction by ZEFSAII (Michael W. Deem and Ramdas Pophale) SiO2 
 PCOD9364195
Probable space group: A M A 2
;
_chemical_formula_sum "Si O2"
_cell_formula_units_Z 36
_cell_length_a 16.412029
_cell_length_b 13.552763
_cell_length_c 7.261019
_cell_angle_alpha 90.000000
_cell_angle_beta 90.000000
_cell_angle_gamma 90.000000
_cell_volume 1615.056398
_symmetry_space_group_name_H-M "A M A 2"
_symmetry_group_IT_number 40
_symmetry_cell_setting 'orthorhombic'
loop_
_space_group_symop_operation_xyz
x,y,z
-x,-y,z
1/2-x,y,z
1/2+x,-y,z
x,1/2+y,1/2+z
-x,1/2-y,1/2+z
1/2-x,1/2+y,1/2+z
1/2+x,1/2-y,1/2+z
loop_
_atom_site_type_symbol
_atom_site_label
_atom_site_fract_x
_atom_site_fract_y
_atom_site_fract_z
Si Si1 0.406674 0.321450 0.763120
Si Si2 0.750000 0.015230 0.746954
Si Si3 0.750000 0.302572 0.211396
Si Si4 0.750000 0.752365 0.141804
Si Si5 0.912075 0.548550 0.460790
Si Si6 0.080290 0.268542 0.190064
O O1 0.334522 0.255048 0.674620
O O2 0.392972 0.427782 0.673246
O O3 0.496754 0.290025 0.699328
O O4 0.407651 0.312353 0.983565
O O5 0.750000 0.128964 0.665395
O O6 0.832429 0.002945 0.866771
O O7 0.750000 0.913231 0.632382
O O8 0.750000 0.293269 0.435027
O O9 0.834938 0.787348 0.226844
O O10 0.924087 0.647441 0.341707
O O11 0.000000 0.500000 0.447099
#
# Coordination Sequence:
#
# PCOD9364195 Si02
#       6
#     8   4   4   4   8   8
#     4  11  21  38  63  92 122 168 207 255 318 382
#     4  10  21  39  63  92 120 172 211 262 328 370
#     4  10  21  39  67  88 123 170 212 258 324 384
#     4   8  20  36  60  86 125 158 207 264 304 376
#     4  11  23  39  62  90 129 161 209 267 313 380
#     4  10  20  38  61  85 124 161 207 253 313 372
#
# _framework density 22.290244000000001
#
# number of rings (size 3 to 8) (size 9 to 14) (size 15 to 20)
#    0.000    1.778    2.222    2.000    3.111    0.889 
#    0.000    2.222    0.000   13.333    0.000    0.000 
#    0.000    0.000    0.000    0.000    0.000    0.000 
#
# Total GULP energy -100276.030093 kJ/mol
# GULP energy per Si atom -5570.890561 kJ/mol
# Density = 2.223951 g / cm^3
# Si number density = 22.290244 Si / 1000 Ang^3
#
#
#
# Elastic Constant Matrix: (Units=GPa)
#
#
# Indices 1 2 3 4 5 6 
#
# 1 191.3543 28.9514 5.6536 0.0000 0.0000 0.0000
# 2 28.9514 34.1710 0.4979 0.0000 0.0000 0.0000
# 3 5.6536 0.4979 86.9864 0.0000 0.0000 0.0000
# 4 0.0000 0.0000 0.0000 25.0797 0.0000 0.0000
# 5 0.0000 0.0000 0.0000 0.0000 131.2878 0.0000
# 6 0.0000 0.0000 0.0000 0.0000 0.0000 -114.0498
#
#
#
# Elastic Compliance Matrix: (Units=1/GPa)
#
#
# Indices 1 2 3 4 5 6 
#
# 1 0.006006 -0.005083 -0.000361 0.000000 0.000000 0.000000
# 2 -0.005083 0.033569 0.000138 0.000000 0.000000 0.000000
# 3 -0.000361 0.000138 0.011519 0.000000 0.000000 0.000000
# 4 0.000000 0.000000 0.000000 0.039873 0.000000 0.000000
# 5 0.000000 0.000000 0.000000 0.000000 0.007617 0.000000
# 6 0.000000 0.000000 0.000000 0.000000 0.000000 -0.008768
#
#
# Mechanical properties :
#
#
# Convention : Reuss Voigt Hill
#
# Bulk Modulus (GPa) = 24.70267 42.52417 33.61342
# Shear Modulus (GPa) = 43.89008 26.95746 35.42377
#
# Velocity S-wave (km/s) = 4.44219 3.48139 3.99081
# Velocity P-wave (km/s) = 6.11695 5.93961 6.02893
#
# Compressibility (1/GPa) = 0.04048145
#
# Stress axis : x y z
#
# Youngs Moduli (GPa) = 166.51058 29.78929 86.81506
#
# Poissons Ratio (x) = 0.15142 0.03136
# Poissons Ratio (y) = 0.84637 -0.01200
# Poissons Ratio (z) = 0.06015 -0.00412
#
# Static dielectric constant tensor:
#      x y z
#    x 1.870840 0.000000 0.000000 
#    y 0.000000 1.885650 0.000000 
#    z 0.000000 0.000000 1.844130 
# 
# From -- ./inp_files/6088.got.cif
#   From: 2010.05.17/outbox.cif.g08.bks.cpg/sg40_4_cif.got.tgz:6088.got - 2010.06.03 18:35:42.
