data_PCOD9364356
_publ_section_title
;
Structure prediction by ZEFSAII (Michael W. Deem and Ramdas Pophale) SiO2 
 PCOD9364356
Probable space group: A M A 2
;
_chemical_formula_sum "Si O2"
_cell_formula_units_Z 60
_cell_length_a 28.764398
_cell_length_b 11.953071
_cell_length_c 7.946988
_cell_angle_alpha 90.000000
_cell_angle_beta 90.000000
_cell_angle_gamma 90.000000
_cell_volume 2732.356393
_symmetry_space_group_name_H-M "A M A 2"
_symmetry_group_IT_number 40
_symmetry_cell_setting 'orthorhombic'
loop_
_space_group_symop_operation_xyz
x,y,z
-x,-y,z
1/2-x,y,z
1/2+x,-y,z
x,1/2+y,1/2+z
-x,1/2-y,1/2+z
1/2-x,1/2+y,1/2+z
1/2+x,1/2-y,1/2+z
loop_
_atom_site_type_symbol
_atom_site_label
_atom_site_fract_x
_atom_site_fract_y
_atom_site_fract_z
Si Si1 0.052626 0.987675 0.396620
Si Si2 0.554391 0.716304 0.150041
Si Si3 0.334432 0.494501 0.378250
Si Si4 0.869143 0.397926 0.710397
Si Si5 0.750000 0.373443 0.200804
Si Si6 0.335210 0.743106 0.014366
Si Si7 0.501177 0.369158 0.443978
Si Si8 0.086663 0.131323 0.697454
O O1 0.092858 0.007894 0.261247
O O2 0.060829 0.086252 0.532347
O O3 0.057673 0.876982 0.507382
O O4 0.000000 0.000000 0.337021
O O5 0.599920 0.791684 0.156945
O O6 0.542533 0.664083 0.330690
O O7 0.510354 0.795273 0.106298
O O8 0.338502 0.558620 0.557392
O O9 0.290715 0.542062 0.276792
O O10 0.332785 0.362900 0.422234
O O11 0.379538 0.534311 0.271659
O O12 0.841198 0.354927 0.873178
O O13 0.709321 0.289365 0.123752
O O14 0.380030 0.731116 0.136679
O O15 0.500000 0.500000 0.473652
O O16 0.547731 0.346683 0.334757
#
# Coordination Sequence:
#
# PCOD9364356 Si02
#       8
#     8   8   8   8   4   8   8   8
#     4  11  21  41  57  85 132 174 221 265 304 362
#     4  12  24  38  60  85 128 177 217 266 314 356
#     4  11  23  45  68  97 132 159 215 273 329 410
#     4  11  26  40  63 102 128 169 223 264 316 389
#     4  10  24  48  74 100 124 164 210 266 348 428
#     4  10  24  43  71  95 129 167 203 271 345 393
#     4  12  25  39  59  91 131 181 231 270 307 369
#     4  10  20  41  61  90 129 171 217 264 318 377
#
# _framework density 21.959069
#
# number of rings (size 3 to 8) (size 9 to 14) (size 15 to 20)
#    0.000    1.067    4.000    2.000    3.733    2.133 
#    0.000    1.333    0.000    0.000    0.000    0.000 
#    0.000    0.000    0.000    0.000    0.000    0.000 
#
# Total GULP energy -167355.657880 kJ/mol
# GULP energy per Si atom -5578.521929 kJ/mol
# Density = 2.190909 g / cm^3
# Si number density = 21.959069 Si / 1000 Ang^3
#
#
#
# Elastic Constant Matrix: (Units=GPa)
#
#
# Indices 1 2 3 4 5 6 
#
# 1 100.8746 33.5186 20.2292 0.0000 0.0000 0.0000
# 2 33.5186 121.5219 24.9281 0.0000 0.0000 0.0000
# 3 20.2292 24.9281 58.3731 0.0000 0.0000 0.0000
# 4 0.0000 0.0000 0.0000 42.5457 0.0000 0.0000
# 5 0.0000 0.0000 0.0000 0.0000 -5.9617 0.0000
# 6 0.0000 0.0000 0.0000 0.0000 0.0000 -22.2000
#
#
#
# Elastic Compliance Matrix: (Units=1/GPa)
#
#
# Indices 1 2 3 4 5 6 
#
# 1 0.011327 -0.002542 -0.002840 0.000000 0.000000 0.000000
# 2 -0.002542 0.009589 -0.003214 0.000000 0.000000 0.000000
# 3 -0.002840 -0.003214 0.019488 0.000000 0.000000 0.000000
# 4 0.000000 0.000000 0.000000 0.023504 0.000000 0.000000
# 5 0.000000 0.000000 0.000000 0.000000 -0.167737 0.000000
# 6 0.000000 0.000000 0.000000 0.000000 0.000000 -0.045045
#
#
# Mechanical properties :
#
#
# Convention : Reuss Voigt Hill
#
# Bulk Modulus (GPa) = 43.07997 48.68015 45.88006
# Shear Modulus (GPa) = -40.34113 16.34970 -11.99571
#
# Velocity S-wave (km/s) = -4.29080 2.73161 -2.33979
# Velocity P-wave (km/s) = 2.21066 5.67148 3.69314
#
# Compressibility (1/GPa) = 0.02321265
#
# Stress axis : x y z
#
# Youngs Moduli (GPa) = 88.28138 104.28170 51.31346
#
# Poissons Ratio (x) = 0.26506 0.14573
# Poissons Ratio (y) = 0.22439 0.16494
# Poissons Ratio (z) = 0.25072 0.33519
#
# Static dielectric constant tensor:
#      x y z
#    x 1.781900 0.000000 0.000000 
#    y 0.000000 1.820240 0.000000 
#    z 0.000000 0.000000 1.849380 
# 
# From -- ./inp_files/9159.got.cif
#   From: 2010.05.17/outbox.cif.g08.bks.cpg/sg40_5_cif.got.tgz:9159.got - 2010.06.03 18:35:42.
