data_PCOD9364331
_publ_section_title
;
Structure prediction by ZEFSAII (Michael W. Deem and Ramdas Pophale) SiO2 
 PCOD9364331
Probable space group: A M A 2
;
_chemical_formula_sum "Si O2"
_cell_formula_units_Z 36
_cell_length_a 19.095979
_cell_length_b 12.224327
_cell_length_c 6.669104
_cell_angle_alpha 90.000000
_cell_angle_beta 90.000000
_cell_angle_gamma 90.000000
_cell_volume 1556.805571
_symmetry_space_group_name_H-M "A M A 2"
_symmetry_group_IT_number 40
_symmetry_cell_setting 'orthorhombic'
loop_
_space_group_symop_operation_xyz
x,y,z
-x,-y,z
1/2-x,y,z
1/2+x,-y,z
x,1/2+y,1/2+z
-x,1/2-y,1/2+z
1/2-x,1/2+y,1/2+z
1/2+x,1/2-y,1/2+z
loop_
_atom_site_type_symbol
_atom_site_label
_atom_site_fract_x
_atom_site_fract_y
_atom_site_fract_z
Si Si1 0.750000 0.974613 0.018590
Si Si2 0.371991 0.516439 0.842326
Si Si3 0.597113 0.720634 0.748434
Si Si4 0.250000 0.757640 0.301016
Si Si5 0.750000 0.032812 0.594936
Si Si6 0.527756 0.879446 0.051239
O O1 0.682261 0.988728 0.155949
O O2 0.750000 0.854339 0.923663
O O3 0.750000 0.053896 0.828885
O O4 0.404904 0.395864 0.867448
O O5 0.430150 0.599464 0.760220
O O6 0.320113 0.532566 0.029168
O O7 0.677482 0.732726 0.682451
O O8 0.538540 0.699419 0.582946
O O9 0.576705 0.821364 0.889352
O O10 0.250000 0.856716 0.463490
O O11 0.500000 0.000000 0.989904
#
# Coordination Sequence:
#
# PCOD9364331 Si02
#       6
#     4   8   8   4   4   8
#     4  11  19  39  69  92 133 176 219 269 325 388
#     4   9  20  41  63  93 137 168 218 279 317 386
#     4  10  21  41  66  91 130 173 211 270 331 379
#     4  10  20  40  64  94 132 162 218 270 308 394
#     4   9  21  37  63 100 125 176 223 261 329 388
#     4  10  21  41  62  92 131 173 216 272 330 385
#
# _framework density 23.124275000000001
#
# number of rings (size 3 to 8) (size 9 to 14) (size 15 to 20)
#    0.000    2.222    2.222    0.667    0.000    1.778 
#   16.000   10.000    0.000    0.000    0.000    0.000 
#    0.000    0.000    0.000    0.000    0.000    0.000 
#
# Total GULP energy -100479.391437 kJ/mol
# GULP energy per Si atom -5582.188413 kJ/mol
# Density = 2.307164 g / cm^3
# Si number density = 23.124275 Si / 1000 Ang^3
#
#
#
# Elastic Constant Matrix: (Units=GPa)
#
#
# Indices 1 2 3 4 5 6 
#
# 1 167.3774 20.2296 29.1497 0.0000 0.0000 0.0000
# 2 20.2296 109.5341 11.0387 0.0000 0.0000 0.0000
# 3 29.1497 11.0387 45.6840 0.0000 0.0000 0.0000
# 4 0.0000 0.0000 0.0000 36.9697 0.0000 0.0000
# 5 0.0000 0.0000 0.0000 0.0000 -0.0293 0.0000
# 6 0.0000 0.0000 0.0000 0.0000 0.0000 -15.4690
#
#
#
# Elastic Compliance Matrix: (Units=1/GPa)
#
#
# Indices 1 2 3 4 5 6 
#
# 1 0.006796 -0.000839 -0.004134 0.000000 0.000000 0.000000
# 2 -0.000839 0.009461 -0.001751 0.000000 0.000000 0.000000
# 3 -0.004134 -0.001751 0.024950 0.000000 0.000000 0.000000
# 4 0.000000 0.000000 0.000000 0.027049 0.000000 0.000000
# 5 0.000000 0.000000 0.000000 0.000000-34.151128 0.000000
# 6 0.000000 0.000000 0.000000 0.000000 0.000000 -0.064645
#
#
# Mechanical properties :
#
#
# Convention : Reuss Voigt Hill
#
# Bulk Modulus (GPa) = 36.02231 49.27017 42.64624
# Shear Modulus (GPa) = -0.14652 21.77278 10.81313
#
# Velocity S-wave (km/s) = -0.25199 3.07181 2.16477
# Velocity P-wave (km/s) = 3.94041 5.82531 4.97298
#
# Compressibility (1/GPa) = 0.02776057
#
# Stress axis : x y z
#
# Youngs Moduli (GPa) = 147.15076 105.69816 40.07996
#
# Poissons Ratio (x) = 0.08863 0.16567
# Poissons Ratio (y) = 0.12339 0.07018
# Poissons Ratio (z) = 0.60826 0.18508
#
# Static dielectric constant tensor:
#      x y z
#    x 1.938910 0.000000 0.000000 
#    y 0.000000 1.888130 0.000000 
#    z 0.000000 0.000000 1.826350 
# 
# From -- ./inp_files/2221.got.cif
#   From: 2010.05.17/outbox.cif.g08.bks.cpg/sg40_2_cif.got.tgz:2221.got - 2010.06.03 18:35:42.
