data_PCOD9364288
_publ_section_title
;
Structure prediction by ZEFSAII (Michael W. Deem and Ramdas Pophale) SiO2 
 PCOD9364288
Probable space group: A M A 2
;
_chemical_formula_sum "Si O2"
_cell_formula_units_Z 52
_cell_length_a 17.862897
_cell_length_b 7.644408
_cell_length_c 17.130336
_cell_angle_alpha 90.000000
_cell_angle_beta 90.000000
_cell_angle_gamma 90.000000
_cell_volume 2339.169183
_symmetry_space_group_name_H-M "A M A 2"
_symmetry_group_IT_number 40
_symmetry_cell_setting 'orthorhombic'
loop_
_space_group_symop_operation_xyz
x,y,z
-x,-y,z
1/2-x,y,z
1/2+x,-y,z
x,1/2+y,1/2+z
-x,1/2-y,1/2+z
1/2-x,1/2+y,1/2+z
1/2+x,1/2-y,1/2+z
loop_
_atom_site_type_symbol
_atom_site_label
_atom_site_fract_x
_atom_site_fract_y
_atom_site_fract_z
Si Si1 0.094444 0.796657 0.533350
Si Si2 0.333249 0.446271 0.896249
Si Si3 0.532869 0.799728 0.264151
Si Si4 0.839105 0.059441 0.061526
Si Si5 0.500000 0.000000 0.645548
Si Si6 0.556755 0.241201 0.935925
Si Si7 0.163036 0.468773 0.726631
O O1 0.158159 0.817862 0.468032
O O2 0.125251 0.630323 0.578307
O O3 0.017325 0.754265 0.488041
O O4 0.071070 0.957663 0.589053
O O5 0.250000 0.525950 0.896497
O O6 0.399297 0.579033 0.918223
O O7 0.345779 0.369444 0.809912
O O8 0.497736 0.672072 0.199865
O O9 0.531260 0.701600 0.347463
O O10 0.382187 0.147392 0.242950
O O11 0.500000 0.000000 0.265932
O O12 0.750000 0.063624 0.046732
O O13 0.854383 0.139420 0.148021
O O14 0.884773 0.131249 0.987530
O O15 0.250000 0.513341 0.718127
#
# Coordination Sequence:
#
# PCOD9364288 Si02
#       7
#     8   8   8   8   4   8   8
#     4  12  23  42  61  98 138 171 229 286 340 407
#     4  10  20  39  65  90 129 178 219 273 342 408
#     4  11  25  45  70 100 139 180 229 291 349 409
#     4  11  24  41  65  97 132 177 227 283 349 410
#     4  12  26  42  68 104 134 184 234 290 346 414
#     4  11  23  42  65  98 133 176 228 284 343 414
#     4   9  20  39  64  93 128 175 221 271 339 406
#
# _framework density 22.230114
#
# number of rings (size 3 to 8) (size 9 to 14) (size 15 to 20)
#    0.000    1.231    3.077    3.231    4.308    0.615 
#    0.000    0.000    0.000    1.846    0.000    0.000 
#    0.000    0.000    0.000    0.000    0.000    0.000 
#
# Total GULP energy -144786.389943 kJ/mol
# GULP energy per Si atom -5568.707306 kJ/mol
# Density = 2.217952 g / cm^3
# Si number density = 22.230114 Si / 1000 Ang^3
#
#
#
# Elastic Constant Matrix: (Units=GPa)
#
#
# Indices 1 2 3 4 5 6 
#
# 1 103.8101 27.0610 38.4009 0.0000 0.0000 0.0000
# 2 27.0610 48.7374 51.1803 0.0000 0.0000 0.0000
# 3 38.4009 51.1803 171.5466 0.0000 0.0000 0.0000
# 4 0.0000 0.0000 0.0000 29.9440 0.0000 0.0000
# 5 0.0000 0.0000 0.0000 0.0000 21.3588 0.0000
# 6 0.0000 0.0000 0.0000 0.0000 0.0000 26.4405
#
#
#
# Elastic Compliance Matrix: (Units=1/GPa)
#
#
# Indices 1 2 3 4 5 6 
#
# 1 0.011372 -0.005302 -0.000964 0.000000 0.000000 0.000000
# 2 -0.005302 0.032351 -0.008465 0.000000 0.000000 0.000000
# 3 -0.000964 -0.008465 0.008571 0.000000 0.000000 0.000000
# 4 0.000000 0.000000 0.000000 0.033396 0.000000 0.000000
# 5 0.000000 0.000000 0.000000 0.000000 0.046819 0.000000
# 6 0.000000 0.000000 0.000000 0.000000 0.000000 0.037821
#
#
# Mechanical properties :
#
#
# Convention : Reuss Voigt Hill
#
# Bulk Modulus (GPa) = 43.79808 61.93094 52.86451
# Shear Modulus (GPa) = 24.10786 29.37878 26.74332
#
# Velocity S-wave (km/s) = 3.29670 3.63929 3.47222
# Velocity P-wave (km/s) = 5.85114 6.75121 6.31722
#
# Compressibility (1/GPa) = 0.02283205
#
# Stress axis : x y z
#
# Youngs Moduli (GPa) = 87.93856 30.91056 116.67820
#
# Poissons Ratio (x) = 0.16389 0.11245
# Poissons Ratio (y) = 0.46625 0.98769
# Poissons Ratio (z) = 0.08475 0.26166
#
# Static dielectric constant tensor:
#      x y z
#    x 1.843230 0.000000 0.000000 
#    y 0.000000 1.840490 0.000000 
#    z 0.000000 0.000000 1.985240 
# 
# From -- ./inp_files/21087.got.cif
#   From: 2010.05.17/outbox.cif.g08.bks.cpg/sg40_11_cif.got.tgz:21087.got - 2010.06.03 18:35:42.
