data_PCOD9364065
_publ_section_title
;
Structure prediction by ZEFSAII (Michael W. Deem and Ramdas Pophale) SiO2 
 PCOD9364065
Probable space group: A M A 2
;
_chemical_formula_sum "Si O2"
_cell_formula_units_Z 56
_cell_length_a 26.275477
_cell_length_b 5.151138
_cell_length_c 19.869715
_cell_angle_alpha 90.000000
_cell_angle_beta 90.000000
_cell_angle_gamma 90.000000
_cell_volume 2689.338267
_symmetry_space_group_name_H-M "A M A 2"
_symmetry_group_IT_number 40
_symmetry_cell_setting 'orthorhombic'
loop_
_space_group_symop_operation_xyz
x,y,z
-x,-y,z
1/2-x,y,z
1/2+x,-y,z
x,1/2+y,1/2+z
-x,1/2-y,1/2+z
1/2-x,1/2+y,1/2+z
1/2+x,1/2-y,1/2+z
loop_
_atom_site_type_symbol
_atom_site_label
_atom_site_fract_x
_atom_site_fract_y
_atom_site_fract_z
Si Si1 0.944622 0.597579 0.740470
Si Si2 0.809278 0.787895 0.061893
Si Si3 0.946031 0.891200 0.596299
Si Si4 0.810517 0.348782 0.863335
Si Si5 0.370521 0.794366 0.678075
Si Si6 0.643115 0.280492 0.003931
Si Si7 0.351300 0.658177 0.289116
O O1 0.951581 0.722062 0.665281
O O2 0.903938 0.366890 0.730474
O O3 0.912701 0.787155 0.789767
O O4 0.000000 0.500000 0.762644
O O5 0.750000 0.811822 0.054874
O O6 0.828071 0.858029 0.137109
O O7 0.825693 0.491412 0.048042
O O8 0.834939 0.992226 0.011789
O O9 0.913328 0.771503 0.535795
O O10 0.912038 0.129056 0.622520
O O11 0.000000 0.000000 0.574800
O O12 0.750000 0.344590 0.879806
O O13 0.821960 0.584738 0.812245
O O14 0.828403 0.076340 0.832166
O O15 0.845983 0.380280 0.928995
O O16 0.346738 0.047577 0.713022
#
# Coordination Sequence:
#
# PCOD9364065 Si02
#       7
#     8   8   8   8   8   8   8
#     4  11  20  40  71  97 133 170 209 265 343 401
#     4  11  22  38  62  95 131 165 207 273 338 385
#     4  10  20  36  67 100 131 167 206 264 334 397
#     4  12  25  45  67  89 130 186 230 273 325 388
#     4  10  21  39  62 100 130 162 211 268 326 403
#     4  11  24  42  65  94 129 169 227 270 315 402
#     4  11  25  43  64  97 128 168 232 273 320 398
#
# _framework density 20.822966000000001
#
# number of rings (size 3 to 8) (size 9 to 14) (size 15 to 20)
#    0.000    1.143    4.286    2.571    0.000    1.143 
#    0.000    0.714    0.000    0.000    0.000    0.000 
#    0.000    0.000    0.000    0.000    0.000    0.000 
#
# Total GULP energy -156096.586754 kJ/mol
# GULP energy per Si atom -5574.878098 kJ/mol
# Density = 2.077557 g / cm^3
# Si number density = 20.822966 Si / 1000 Ang^3
#
#
#
# Elastic Constant Matrix: (Units=GPa)
#
#
# Indices 1 2 3 4 5 6 
#
# 1 95.8775 14.4904 31.8864 0.0000 0.0000 0.0000
# 2 14.4904 81.5587 7.6995 0.0000 0.0000 0.0000
# 3 31.8864 7.6995 43.5106 0.0000 0.0000 0.0000
# 4 0.0000 0.0000 0.0000 98.5104 0.0000 0.0000
# 5 0.0000 0.0000 0.0000 0.0000 18.4195 0.0000
# 6 0.0000 0.0000 0.0000 0.0000 0.0000 29.4739
#
#
#
# Elastic Compliance Matrix: (Units=1/GPa)
#
#
# Indices 1 2 3 4 5 6 
#
# 1 0.013979 -0.001542 -0.009972 0.000000 0.000000 0.000000
# 2 -0.001542 0.012640 -0.001106 0.000000 0.000000 0.000000
# 3 -0.009972 -0.001106 0.030486 0.000000 0.000000 0.000000
# 4 0.000000 0.000000 0.000000 0.010151 0.000000 0.000000
# 5 0.000000 0.000000 0.000000 0.000000 0.054290 0.000000
# 6 0.000000 0.000000 0.000000 0.000000 0.000000 0.033928
#
#
# Mechanical properties :
#
#
# Convention : Reuss Voigt Hill
#
# Bulk Modulus (GPa) = 31.38294 36.56660 33.97477
# Shear Modulus (GPa) = 26.13178 40.40546 33.26862
#
# Velocity S-wave (km/s) = 3.54637 4.40981 4.00145
# Velocity P-wave (km/s) = 5.64562 6.59753 6.14005
#
# Compressibility (1/GPa) = 0.03186445
#
# Stress axis : x y z
#
# Youngs Moduli (GPa) = 71.53362 79.11661 32.80144
#
# Poissons Ratio (x) = 0.12202 0.32709
# Poissons Ratio (y) = 0.11033 0.03629
# Poissons Ratio (z) = 0.71332 0.08753
#
# Static dielectric constant tensor:
#      x y z
#    x 1.739160 0.000000 0.000000 
#    y 0.000000 1.715680 0.000000 
#    z 0.000000 0.000000 1.789060 
# 
# From -- ./inp_files/23633.got.cif
#   From: 2010.05.17/outbox.cif.g08.bks.cpg/sg40_12_cif.got.tgz:23633.got - 2010.06.03 18:35:42.
