data_PCOD9364606
_publ_section_title
;
Structure prediction by ZEFSAII (Michael W. Deem and Ramdas Pophale) SiO2 
 PCOD9364606
Probable space group: A M A 2
;
_chemical_formula_sum "Si O2"
_cell_formula_units_Z 64
_cell_length_a 29.388691
_cell_length_b 8.258919
_cell_length_c 11.270475
_cell_angle_alpha 90.000000
_cell_angle_beta 90.000000
_cell_angle_gamma 90.000000
_cell_volume 2735.556376
_symmetry_space_group_name_H-M "A M A 2"
_symmetry_group_IT_number 40
_symmetry_cell_setting 'orthorhombic'
loop_
_space_group_symop_operation_xyz
x,y,z
-x,-y,z
1/2-x,y,z
1/2+x,-y,z
x,1/2+y,1/2+z
-x,1/2-y,1/2+z
1/2-x,1/2+y,1/2+z
1/2+x,1/2-y,1/2+z
loop_
_atom_site_type_symbol
_atom_site_label
_atom_site_fract_x
_atom_site_fract_y
_atom_site_fract_z
Si Si1 0.338768 0.968484 0.399110
Si Si2 0.631416 0.991985 0.768088
Si Si3 0.199225 0.308510 0.417365
Si Si4 0.196957 0.769004 0.175536
Si Si5 0.975754 0.671102 0.886811
Si Si6 0.579657 0.970167 0.230040
Si Si7 0.033211 0.362507 0.238791
Si Si8 0.109484 0.700302 0.507445
O O1 0.314509 0.873339 0.291875
O O2 0.353217 0.844184 0.503387
O O3 0.307151 0.116786 0.431978
O O4 0.385571 0.040970 0.341314
O O5 0.583900 0.067474 0.728336
O O6 0.659455 0.873519 0.682769
O O7 0.664955 0.127390 0.819493
O O8 0.618448 0.890087 0.884622
O O9 0.250000 0.352094 0.381164
O O10 0.191796 0.367078 0.552487
O O11 0.250000 0.715791 0.180563
O O12 0.946244 0.635892 0.764871
O O13 0.000000 0.500000 0.912507
O O14 0.008930 0.822997 0.866598
O O15 0.939525 0.714567 0.987698
O O16 0.542014 0.829453 0.216853
O O17 0.607996 0.930461 0.112213
O O18 0.000000 0.500000 0.185472
#
# Coordination Sequence:
#
# PCOD9364606 Si02
#       8
#     8   8   8   8   8   8   8   8
#     4  10  21  39  64  92 126 158 203 259 308 368
#     4  11  22  41  63  87 128 163 205 258 311 369
#     4  11  23  40  66  97 123 162 208 252 318 379
#     4  10  23  42  65  94 127 162 206 257 314 379
#     4   9  20  39  57  81 124 157 201 261 301 351
#     4  10  21  39  60  88 122 162 209 253 310 364
#     4  11  21  39  59  87 125 162 206 261 306 363
#     4  10  21  38  62  87 118 167 205 250 312 365
#
# _framework density 23.395605
#
# number of rings (size 3 to 8) (size 9 to 14) (size 15 to 20)
#    0.000    1.750    2.500    1.500    1.750    0.500 
#    6.750    0.000    0.000    6.000    0.000    0.000 
#    0.000    0.000    0.000    0.000    0.000    0.000 
#
# Total GULP energy -178325.593831 kJ/mol
# GULP energy per Si atom -5572.674807 kJ/mol
# Density = 2.334236 g / cm^3
# Si number density = 23.395605 Si / 1000 Ang^3
#
#
#
# Elastic Constant Matrix: (Units=GPa)
#
#
# Indices 1 2 3 4 5 6 
#
# 1 139.9942 30.6212 24.0568 0.0000 0.0000 0.0000
# 2 30.6212 54.4649 8.2158 0.0000 0.0000 0.0000
# 3 24.0568 8.2158 62.2764 0.0000 0.0000 0.0000
# 4 0.0000 0.0000 0.0000 31.8812 0.0000 0.0000
# 5 0.0000 0.0000 0.0000 0.0000 15.9309 0.0000
# 6 0.0000 0.0000 0.0000 0.0000 0.0000 24.6904
#
#
#
# Elastic Compliance Matrix: (Units=1/GPa)
#
#
# Indices 1 2 3 4 5 6 
#
# 1 0.008577 -0.004410 -0.002731 0.000000 0.000000 0.000000
# 2 -0.004410 0.021001 -0.001067 0.000000 0.000000 0.000000
# 3 -0.002731 -0.001067 0.017253 0.000000 0.000000 0.000000
# 4 0.000000 0.000000 0.000000 0.031366 0.000000 0.000000
# 5 0.000000 0.000000 0.000000 0.000000 0.062771 0.000000
# 6 0.000000 0.000000 0.000000 0.000000 0.000000 0.040502
#
#
# Mechanical properties :
#
#
# Convention : Reuss Voigt Hill
#
# Bulk Modulus (GPa) = 32.87939 42.50258 37.69098
# Shear Modulus (GPa) = 24.03548 27.42327 25.72937
#
# Velocity S-wave (km/s) = 3.20871 3.42739 3.31985
# Velocity P-wave (km/s) = 5.27370 5.81971 5.55342
#
# Compressibility (1/GPa) = 0.03041419
#
# Stress axis : x y z
#
# Youngs Moduli (GPa) = 116.58829 47.61702 57.95983
#
# Poissons Ratio (x) = 0.21000 0.15832
# Poissons Ratio (y) = 0.51418 0.06184
# Poissons Ratio (z) = 0.31846 0.05080
#
# Static dielectric constant tensor:
#      x y z
#    x 1.959980 0.000000 0.000000 
#    y 0.000000 1.919040 0.000000 
#    z 0.000000 0.000000 1.959460 
# 
# From -- ./inp_files/14393.got.cif
#   From: 2010.05.17/outbox.cif.g08.bks.cpg/sg40_8_cif.got.tgz:14393.got - 2010.06.03 18:35:42.
