data_PCOD9364077
_publ_section_title
;
Structure prediction by ZEFSAII (Michael W. Deem and Ramdas Pophale) SiO2 
 PCOD9364077
Probable space group: A M A 2
;
_chemical_formula_sum "Si O2"
_cell_formula_units_Z 64
_cell_length_a 7.470840
_cell_length_b 26.772668
_cell_length_c 13.639425
_cell_angle_alpha 90.000000
_cell_angle_beta 90.000000
_cell_angle_gamma 90.000000
_cell_volume 2728.080303
_symmetry_space_group_name_H-M "A M A 2"
_symmetry_group_IT_number 40
_symmetry_cell_setting 'orthorhombic'
loop_
_space_group_symop_operation_xyz
x,y,z
-x,-y,z
1/2-x,y,z
1/2+x,-y,z
x,1/2+y,1/2+z
-x,1/2-y,1/2+z
1/2-x,1/2+y,1/2+z
1/2+x,1/2-y,1/2+z
loop_
_atom_site_type_symbol
_atom_site_label
_atom_site_fract_x
_atom_site_fract_y
_atom_site_fract_z
Si Si1 0.468377 0.729710 0.732540
Si Si2 0.550187 0.185721 0.610102
Si Si3 0.964258 0.944315 0.758867
Si Si4 0.964094 0.442146 0.828497
Si Si5 0.546751 0.920205 0.545501
Si Si6 0.531167 0.874510 0.146771
Si Si7 0.534458 0.370736 0.428389
Si Si8 0.959803 0.746214 0.441285
O O1 0.250000 0.732245 0.728265
O O2 0.534513 0.784385 0.700045
O O3 0.526285 0.682422 0.669456
O O4 0.516400 0.723363 0.845233
O O5 0.750000 0.168283 0.634905
O O6 0.450720 0.139142 0.564422
O O7 0.559720 0.230556 0.532397
O O8 0.750000 0.936670 0.751094
O O9 0.035505 0.940523 0.647084
O O10 0.032010 0.903130 0.836167
O O11 0.000000 0.000000 0.796229
O O12 0.750000 0.433200 0.832647
O O13 0.029783 0.408663 0.737578
O O14 0.000000 0.500000 0.807942
O O15 0.034852 0.430520 0.938511
O O16 0.750000 0.940123 0.540551
O O17 0.750000 0.874764 0.147200
O O18 0.474692 0.889135 0.036800
O O19 0.750000 0.374166 0.427255
O O20 0.487004 0.312352 0.424310
O O21 0.750000 0.754815 0.458289
#
# Coordination Sequence:
#
# PCOD9364077 Si02
#       8
#     8   8   8   8   8   8   8   8
#     4   9  18  33  54  78 108 148 187 220 270 339
#     4  11  21  35  57  84 112 148 188 227 276 337
#     4  10  22  38  59  85 113 149 190 242 297 344
#     4  10  21  37  59  81 107 146 187 233 284 335
#     4  10  21  38  57  82 116 148 185 234 289 344
#     4   9  17  34  57  77 105 147 187 223 273 336
#     4  10  20  37  58  80 112 151 191 233 282 341
#     4  11  21  34  55  83 114 149 188 232 280 334
#
# _framework density 23.459720999999998
#
# number of rings (size 3 to 8) (size 9 to 14) (size 15 to 20)
#    0.000    2.000    1.250    2.625    0.000    4.000 
#    0.000    2.500    0.000    0.000    0.000    0.000 
#    0.000    0.000    0.000    0.000    0.000    0.000 
#
# Total GULP energy -178751.917402 kJ/mol
# GULP energy per Si atom -5585.997419 kJ/mol
# Density = 2.340633 g / cm^3
# Si number density = 23.459721 Si / 1000 Ang^3
#
#
#
# Elastic Constant Matrix: (Units=GPa)
#
#
# Indices 1 2 3 4 5 6 
#
# 1 72.0292 -10.1998 11.9372 0.0000 0.0000 0.0000
# 2 -10.1998 98.6991 23.1067 0.0000 0.0000 0.0000
# 3 11.9372 23.1067 123.0421 0.0000 0.0000 0.0000
# 4 0.0000 0.0000 0.0000 31.8391 0.0000 0.0000
# 5 0.0000 0.0000 0.0000 0.0000 -8.4034 0.0000
# 6 0.0000 0.0000 0.0000 0.0000 0.0000 22.1930
#
#
#
# Elastic Compliance Matrix: (Units=1/GPa)
#
#
# Indices 1 2 3 4 5 6 
#
# 1 0.014444 0.001905 -0.001759 0.000000 0.000000 0.000000
# 2 0.001905 0.010849 -0.002222 0.000000 0.000000 0.000000
# 3 -0.001759 -0.002222 0.008715 0.000000 0.000000 0.000000
# 4 0.000000 0.000000 0.000000 0.031408 0.000000 0.000000
# 5 0.000000 0.000000 0.000000 0.000000 -0.119000 0.000000
# 6 0.000000 0.000000 0.000000 0.000000 0.000000 0.045059
#
#
# Mechanical properties :
#
#
# Convention : Reuss Voigt Hill
#
# Bulk Modulus (GPa) = 33.49486 38.16207 35.82847
# Shear Modulus (GPa) = 895.91771 27.05418 461.48595
#
# Velocity S-wave (km/s) = 19.56336 3.39959 14.04070
# Velocity P-wave (km/s) = 22.90434 5.63134 16.67814
#
# Compressibility (1/GPa) = 0.02985532
#
# Stress axis : x y z
#
# Youngs Moduli (GPa) = 69.23070 92.17569 114.74125
#
# Poissons Ratio (x) = -0.17555 0.20183
# Poissons Ratio (y) = -0.13185 0.25497
# Poissons Ratio (z) = 0.12178 0.20483
#
# Static dielectric constant tensor:
#      x y z
#    x 1.874960 0.000000 0.000000 
#    y 0.000000 1.844670 0.000000 
#    z 0.000000 0.000000 1.909010 
# 
# From -- ./inp_files/10607.got.cif
#   From: 2010.05.17/outbox.cif.g08.bks.cpg/sg40_6_cif.got.tgz:10607.got - 2010.06.03 18:35:42.
