data_PCOD9364316
_publ_section_title
;
Structure prediction by ZEFSAII (Michael W. Deem and Ramdas Pophale) SiO2 
 PCOD9364316
Probable space group: A M A 2
;
_chemical_formula_sum "Si O2"
_cell_formula_units_Z 64
_cell_length_a 27.961546
_cell_length_b 11.534271
_cell_length_c 7.742036
_cell_angle_alpha 90.000000
_cell_angle_beta 90.000000
_cell_angle_gamma 90.000000
_cell_volume 2496.930863
_symmetry_space_group_name_H-M "A M A 2"
_symmetry_group_IT_number 40
_symmetry_cell_setting 'orthorhombic'
loop_
_space_group_symop_operation_xyz
x,y,z
-x,-y,z
1/2-x,y,z
1/2+x,-y,z
x,1/2+y,1/2+z
-x,1/2-y,1/2+z
1/2-x,1/2+y,1/2+z
1/2+x,1/2-y,1/2+z
loop_
_atom_site_type_symbol
_atom_site_label
_atom_site_fract_x
_atom_site_fract_y
_atom_site_fract_z
Si Si1 0.966362 0.152696 0.753050
Si Si2 0.803499 0.118695 0.070435
Si Si3 0.370598 0.049112 0.484590
Si Si4 0.989394 0.131913 0.344510
Si Si5 0.193149 0.143914 0.191936
Si Si6 0.928042 0.921753 0.798255
Si Si7 0.110839 0.805067 0.295462
Si Si8 0.697013 0.108917 0.663569
O O1 0.973291 0.141921 0.545775
O O2 0.965555 0.286792 0.800372
O O3 0.017270 0.112238 0.832284
O O4 0.926769 0.061389 0.819348
O O5 0.750000 0.148592 0.137369
O O6 0.845527 0.190168 0.161848
O O7 0.810842 0.980800 0.100316
O O8 0.803187 0.133042 0.866321
O O9 0.381887 0.924563 0.399309
O O10 0.332783 0.004992 0.626404
O O11 0.344203 0.129566 0.348675
O O12 0.414899 0.093456 0.595068
O O13 0.943899 0.173517 0.230486
O O14 0.000000 0.000000 0.305820
O O15 0.250000 0.152038 0.242198
O O16 0.182885 0.264070 0.091075
O O17 0.895479 0.822486 0.882291
O O18 0.750000 0.084778 0.597288
#
# Coordination Sequence:
#
# PCOD9364316 Si02
#       8
#     8   8   8   8   8   8   8   8
#     4  10  21  42  66  84 123 163 194 251 311 362
#     4   9  19  38  59  87 124 162 204 251 307 366
#     4  11  20  36  58  88 115 153 201 251 295 360
#     4  11  21  44  64  93 123 163 207 257 309 373
#     4   9  19  36  57  80 116 158 195 245 297 349
#     4  10  20  40  59  85 124 158 192 250 306 357
#     4  10  21  38  64  91 123 163 210 252 308 375
#     4  10  21  37  58  85 117 156 203 249 305 364
#
# _framework density 25.631464000000001
#
# number of rings (size 3 to 8) (size 9 to 14) (size 15 to 20)
#    0.000    2.000    2.500    1.125    0.000    1.500 
#   15.750    0.625    0.000    6.000    0.000    0.000 
#    0.000    0.000    0.000    0.000    0.000    0.000 
#
# Total GULP energy -178678.969325 kJ/mol
# GULP energy per Si atom -5583.717791 kJ/mol
# Density = 2.557313 g / cm^3
# Si number density = 25.631464 Si / 1000 Ang^3
#
#
#
# Elastic Constant Matrix: (Units=GPa)
#
#
# Indices 1 2 3 4 5 6 
#
# 1 70.0739 28.4391 13.6536 0.0000 0.0000 0.0000
# 2 28.4391 140.5103 1.0214 0.0000 0.0000 0.0000
# 3 13.6536 1.0214 19.2397 0.0000 0.0000 0.0000
# 4 0.0000 0.0000 0.0000 38.3810 0.0000 0.0000
# 5 0.0000 0.0000 0.0000 0.0000 26.9431 0.0000
# 6 0.0000 0.0000 0.0000 0.0000 0.0000 44.2447
#
#
#
# Elastic Compliance Matrix: (Units=1/GPa)
#
#
# Indices 1 2 3 4 5 6 
#
# 1 0.018210 -0.003593 -0.012732 0.000000 0.000000 0.000000
# 2 -0.003593 0.007829 0.002134 0.000000 0.000000 0.000000
# 3 -0.012732 0.002134 0.060898 0.000000 0.000000 0.000000
# 4 0.000000 0.000000 0.000000 0.026055 0.000000 0.000000
# 5 0.000000 0.000000 0.000000 0.000000 0.037115 0.000000
# 6 0.000000 0.000000 0.000000 0.000000 0.000000 0.022602
#
#
# Mechanical properties :
#
#
# Convention : Reuss Voigt Hill
#
# Bulk Modulus (GPa) = 17.07806 35.11690 26.09748
# Shear Modulus (GPa) = 22.66476 34.36110 28.51293
#
# Velocity S-wave (km/s) = 2.97687 3.66537 3.33891
# Velocity P-wave (km/s) = 4.30036 5.62527 5.00683
#
# Compressibility (1/GPa) = 0.05855466
#
# Stress axis : x y z
#
# Youngs Moduli (GPa) = 54.91601 127.73621 16.42099
#
# Poissons Ratio (x) = 0.45896 0.20907
# Poissons Ratio (y) = 0.19732 -0.03505
# Poissons Ratio (z) = 0.69918 -0.27262
#
# Static dielectric constant tensor:
#      x y z
#    x 2.095700 0.000000 0.000000 
#    y 0.000000 2.072260 0.000000 
#    z 0.000000 0.000000 2.040530 
# 
# From -- ./inp_files/9415.got.cif
#   From: 2010.05.17/outbox.cif.g08.bks.cpg/sg40_5_cif.got.tgz:9415.got - 2010.06.03 18:35:42.
