data_PCOD9364427
_publ_section_title
;
Structure prediction by ZEFSAII (Michael W. Deem and Ramdas Pophale) SiO2 
 PCOD9364427
Probable space group: A M A 2
;
_chemical_formula_sum "Si O2"
_cell_formula_units_Z 64
_cell_length_a 13.583567
_cell_length_b 13.613990
_cell_length_c 20.344519
_cell_angle_alpha 90.000000
_cell_angle_beta 90.000000
_cell_angle_gamma 90.000000
_cell_volume 3762.241615
_symmetry_space_group_name_H-M "A M A 2"
_symmetry_group_IT_number 40
_symmetry_cell_setting 'orthorhombic'
loop_
_space_group_symop_operation_xyz
x,y,z
-x,-y,z
1/2-x,y,z
1/2+x,-y,z
x,1/2+y,1/2+z
-x,1/2-y,1/2+z
1/2-x,1/2+y,1/2+z
1/2+x,1/2-y,1/2+z
loop_
_atom_site_type_symbol
_atom_site_label
_atom_site_fract_x
_atom_site_fract_y
_atom_site_fract_z
Si Si1 0.133997 0.782836 0.091330
Si Si2 0.633997 0.217165 0.470743
Si Si3 0.023814 0.386100 0.471487
Si Si4 0.521008 0.612813 0.858487
Si Si5 0.634774 0.218212 0.703823
Si Si6 0.021008 0.387187 0.703586
Si Si7 0.976186 0.113900 0.590586
Si Si8 0.634774 0.218212 0.858251
O O1 0.250000 0.769885 0.085402
O O2 0.103868 0.839550 0.157923
O O3 0.074973 0.680027 0.090543
O O4 0.090132 0.846478 0.031397
O O5 0.750000 0.230115 0.476671
O O6 0.574973 0.319973 0.471530
O O7 0.603868 0.160450 0.404150
O O8 0.590132 0.153523 0.530676
O O9 0.082539 0.360592 0.404830
O O10 0.000000 0.500000 0.477766
O O11 0.500000 0.500000 0.875961
O O12 0.545989 0.617028 0.781037
O O13 0.423796 0.679705 0.868974
O O14 0.750000 0.227980 0.688180
O O15 0.576204 0.320295 0.693099
O O16 0.582539 0.139409 0.657243
O O17 0.625373 0.193566 0.781037
O O18 0.000000 0.500000 0.686112
O O19 0.000000 0.000000 0.584307
O O20 0.750000 0.227981 0.873894
#
# Coordination Sequence:
#
# PCOD9364427 Si02
#       8
#     8   8   8   8   8   8   8   8
#     4  10  21  35  52  77 105 133 169 211 253 300
#     4  10  21  35  52  77 105 133 169 211 253 300
#     4  10  21  37  55  75 102 135 169 209 255 302
#     4   9  18  33  52  76 107 139 170 207 252 301
#     4   9  18  33  53  77 104 135 172 211 250 296
#     4   9  18  33  52  76 107 139 170 207 252 301
#     4  10  21  37  55  75 102 135 169 209 255 302
#     4   9  18  33  53  77 104 135 172 211 250 296
#
# _framework density 17.011134999999999
#
# number of rings (size 3 to 8) (size 9 to 14) (size 15 to 20)
#    0.000    2.500    0.000    1.500    0.000    4.000 
#    0.000    2.500    0.000    0.000    0.000    0.000 
#    0.000    0.000    0.000    0.000    0.000    0.000 
#
# Total GULP energy -178523.659786 kJ/mol
# GULP energy per Si atom -5578.864368 kJ/mol
# Density = 1.697242 g / cm^3
# Si number density = 17.011135 Si / 1000 Ang^3
#
#
#
# Elastic Constant Matrix: (Units=GPa)
#
#
# Indices 1 2 3 4 5 6 
#
# 1 160.4657 65.6831 63.9436 0.0000 0.0000 0.0000
# 2 65.6831 135.4076 56.2187 0.0000 0.0000 0.0000
# 3 63.9436 56.2187 61.7313 0.0000 0.0000 0.0000
# 4 0.0000 0.0000 0.0000 13.8355 0.0000 0.0000
# 5 0.0000 0.0000 0.0000 0.0000 21.4727 0.0000
# 6 0.0000 0.0000 0.0000 0.0000 0.0000 5.6909
#
#
#
# Elastic Compliance Matrix: (Units=1/GPa)
#
#
# Indices 1 2 3 4 5 6 
#
# 1 0.010687 -0.000945 -0.010209 0.000000 0.000000 0.000000
# 2 -0.000945 0.011959 -0.009912 0.000000 0.000000 0.000000
# 3 -0.010209 -0.009912 0.035801 0.000000 0.000000 0.000000
# 4 0.000000 0.000000 0.000000 0.072278 0.000000 0.000000
# 5 0.000000 0.000000 0.000000 0.000000 0.046571 0.000000
# 6 0.000000 0.000000 0.000000 0.000000 0.000000 0.175718
#
#
# Mechanical properties :
#
#
# Convention : Reuss Voigt Hill
#
# Bulk Modulus (GPa) = 61.29564 81.03282 71.16423
# Shear Modulus (GPa) = 12.48181 19.65046 16.06613
#
# Velocity S-wave (km/s) = 2.71171 3.40244 3.07652
# Velocity P-wave (km/s) = 6.77609 7.94821 7.38544
#
# Compressibility (1/GPa) = 0.01631437
#
# Stress axis : x y z
#
# Youngs Moduli (GPa) = 93.57159 83.62023 27.93254
#
# Poissons Ratio (x) = 0.07906 0.28516
# Poissons Ratio (y) = 0.08847 0.27686
# Poissons Ratio (z) = 0.95527 0.82881
#
# Static dielectric constant tensor:
#      x y z
#    x 1.545760 0.000000 0.000000 
#    y 0.000000 1.540800 0.000000 
#    z 0.000000 0.000000 1.593930 
# 
# From -- ./inp_files/24622.got.cif
#   From: 2010.05.17/outbox.cif.g08.bks.cpg/sg40_13_cif.got.tgz:24622.got - 2010.06.03 18:35:42.
