data_PCOD9364312
_publ_section_title
;
Structure prediction by ZEFSAII (Michael W. Deem and Ramdas Pophale) SiO2 
 PCOD9364312
Probable space group: A M A 2
;
_chemical_formula_sum "Si O2"
_cell_formula_units_Z 44
_cell_length_a 14.465206
_cell_length_b 16.242148
_cell_length_c 8.672593
_cell_angle_alpha 90.000000
_cell_angle_beta 90.000000
_cell_angle_gamma 90.000000
_cell_volume 2037.591180
_symmetry_space_group_name_H-M "A M A 2"
_symmetry_group_IT_number 40
_symmetry_cell_setting 'orthorhombic'
loop_
_space_group_symop_operation_xyz
x,y,z
-x,-y,z
1/2-x,y,z
1/2+x,-y,z
x,1/2+y,1/2+z
-x,1/2-y,1/2+z
1/2-x,1/2+y,1/2+z
1/2+x,1/2-y,1/2+z
loop_
_atom_site_type_symbol
_atom_site_label
_atom_site_fract_x
_atom_site_fract_y
_atom_site_fract_z
Si Si1 0.750000 0.420910 0.043010
Si Si2 0.250000 0.732422 0.823377
Si Si3 0.250000 0.952105 0.256651
Si Si4 0.500000 0.500000 0.530363
Si Si5 0.560585 0.649353 0.710847
Si Si6 0.750000 0.888328 0.040883
Si Si7 0.050718 0.783948 0.875961
Si Si8 0.398109 0.087463 0.805922
O O1 0.659354 0.428018 0.152263
O O2 0.750000 0.329171 0.970824
O O3 0.750000 0.490189 0.909633
O O4 0.250000 0.670016 0.683743
O O5 0.154827 0.781681 0.813969
O O6 0.341537 0.894093 0.249694
O O7 0.250000 0.018854 0.114621
O O8 0.497101 0.576211 0.644032
O O9 0.417359 0.505310 0.406979
O O10 0.506833 0.701095 0.838900
O O11 0.565757 0.705991 0.558887
O O12 0.665922 0.866460 0.928692
O O13 0.990178 0.857682 0.801397
#
# Coordination Sequence:
#
# PCOD9364312 Si02
#       8
#     4   4   4   4   8   4   8   8
#     4  10  24  40  64 104 143 179 233 305 344 403
#     4  11  21  40  62 101 136 182 237 286 356 412
#     4  11  23  45  71 106 135 181 240 292 330 432
#     4  10  20  40  72  94 138 188 236 272 340 438
#     4  11  24  44  68 105 135 185 230 287 352 415
#     4  10  20  39  71  95 136 180 228 277 354 415
#     4  11  24  41  69 101 141 185 229 295 355 418
#     4  10  21  43  66  99 138 185 226 283 358 411
#
# _framework density 21.594125999999999
#
# number of rings (size 3 to 8) (size 9 to 14) (size 15 to 20)
#    0.000    1.455    1.818    3.818    2.545    1.455 
#    9.818    0.909    0.000    0.000    0.000    0.000 
#    0.000    0.000    0.000    0.000    0.000    0.000 
#
# Total GULP energy -122612.278929 kJ/mol
# GULP energy per Si atom -5573.285406 kJ/mol
# Density = 2.154498 g / cm^3
# Si number density = 21.594126 Si / 1000 Ang^3
#
#
#
# Elastic Constant Matrix: (Units=GPa)
#
#
# Indices 1 2 3 4 5 6 
#
# 1 163.1980 63.0222 55.1507 0.0000 0.0000 0.0000
# 2 63.0222 98.6038 48.0466 0.0000 0.0000 0.0000
# 3 55.1507 48.0466 102.4791 0.0000 0.0000 0.0000
# 4 0.0000 0.0000 0.0000 30.1481 0.0000 0.0000
# 5 0.0000 0.0000 0.0000 0.0000 43.6606 0.0000
# 6 0.0000 0.0000 0.0000 0.0000 0.0000 97.9197
#
#
#
# Elastic Compliance Matrix: (Units=1/GPa)
#
#
# Indices 1 2 3 4 5 6 
#
# 1 0.008668 -0.004235 -0.002680 0.000000 0.000000 0.000000
# 2 -0.004235 0.015213 -0.004854 0.000000 0.000000 0.000000
# 3 -0.002680 -0.004854 0.013476 0.000000 0.000000 0.000000
# 4 0.000000 0.000000 0.000000 0.033170 0.000000 0.000000
# 5 0.000000 0.000000 0.000000 0.000000 0.022904 0.000000
# 6 0.000000 0.000000 0.000000 0.000000 0.000000 0.010212
#
#
# Mechanical properties :
#
#
# Convention : Reuss Voigt Hill
#
# Bulk Modulus (GPa) = 72.35121 77.41330 74.88226
# Shear Modulus (GPa) = 37.94022 47.54978 42.74500
#
# Velocity S-wave (km/s) = 4.19617 4.69761 4.45395
# Velocity P-wave (km/s) = 7.55347 8.08397 7.82322
#
# Compressibility (1/GPa) = 0.01382147
#
# Stress axis : x y z
#
# Youngs Moduli (GPa) = 115.36201 65.73250 74.20725
#
# Poissons Ratio (x) = 0.27835 0.19885
# Poissons Ratio (y) = 0.48852 0.36018
# Poissons Ratio (z) = 0.30913 0.31904
#
# Static dielectric constant tensor:
#      x y z
#    x 1.882840 0.000000 0.000000 
#    y 0.000000 1.862180 0.000000 
#    z 0.000000 0.000000 1.766330 
# 
# From -- ./inp_files/6403.got.cif
#   From: 2010.05.17/outbox.cif.g08.bks.cpg/sg40_4_cif.got.tgz:6403.got - 2010.06.03 18:35:42.
