data_PCOD9364908
_publ_section_title
;
Structure prediction by ZEFSAII (Michael W. Deem and Ramdas Pophale) SiO2 
 PCOD9364908
Probable space group: A M A 2
;
_chemical_formula_sum "Si O2"
_cell_formula_units_Z 56
_cell_length_a 22.209701
_cell_length_b 9.390382
_cell_length_c 12.485005
_cell_angle_alpha 90.000000
_cell_angle_beta 90.000000
_cell_angle_gamma 90.000000
_cell_volume 2603.842385
_symmetry_space_group_name_H-M "A M A 2"
_symmetry_group_IT_number 40
_symmetry_cell_setting 'orthorhombic'
loop_
_space_group_symop_operation_xyz
x,y,z
-x,-y,z
1/2-x,y,z
1/2+x,-y,z
x,1/2+y,1/2+z
-x,1/2-y,1/2+z
1/2-x,1/2+y,1/2+z
1/2+x,1/2-y,1/2+z
loop_
_atom_site_type_symbol
_atom_site_label
_atom_site_fract_x
_atom_site_fract_y
_atom_site_fract_z
Si Si1 0.814664 0.931695 0.409760
Si Si2 0.563419 0.416318 0.398764
Si Si3 0.845147 0.494636 0.676334
Si Si4 0.815977 0.092159 0.942405
Si Si5 0.051815 0.782563 0.198458
Si Si6 0.934882 0.469066 0.035082
Si Si7 0.926212 0.762986 0.126980
O O1 0.750000 0.969561 0.461958
O O2 0.818982 0.759602 0.415251
O O3 0.876141 0.983417 0.463512
O O4 0.813858 0.994870 0.290389
O O5 0.500000 0.500000 0.389037
O O6 0.622929 0.515756 0.402727
O O7 0.569792 0.308151 0.301120
O O8 0.561233 0.327146 0.509137
O O9 0.815926 0.561835 0.570783
O O10 0.907658 0.579990 0.686886
O O11 0.862936 0.330156 0.657897
O O12 0.750000 0.040060 0.901801
O O13 0.062325 0.682669 0.093794
O O14 0.980832 0.810824 0.202234
O O15 0.928731 0.593160 0.123582
O O16 0.000000 0.500000 0.981689
#
# Coordination Sequence:
#
# PCOD9364908 Si02
#       7
#     8   8   8   8   8   8   8
#     4  11  24  42  67  97 130 174 221 271 334 399
#     4  11  23  38  64  94 132 170 219 268 331 393
#     4  11  22  40  66  94 128 171 223 266 333 396
#     4  10  23  45  65  94 134 173 217 274 331 396
#     4  11  22  39  62  97 132 172 214 277 330 393
#     4  10  22  40  64  94 132 169 216 270 328 389
#     4  10  22  38  61  97 129 165 214 269 328 390
#
# _framework density 21.506678000000001
#
# number of rings (size 3 to 8) (size 9 to 14) (size 15 to 20)
#    0.000    1.429    1.429    4.714    6.000    1.143 
#    0.000    8.571    0.000    0.000    0.000    0.000 
#    0.000    0.000    0.000    0.000    0.000    0.000 
#
# Total GULP energy -156350.026227 kJ/mol
# GULP energy per Si atom -5583.929508 kJ/mol
# Density = 2.145773 g / cm^3
# Si number density = 21.506678 Si / 1000 Ang^3
#
#
#
# Elastic Constant Matrix: (Units=GPa)
#
#
# Indices 1 2 3 4 5 6 
#
# 1 143.4343 37.0280 33.7569 0.0000 0.0000 0.0000
# 2 37.0280 60.0057 -8.7829 0.0000 0.0000 0.0000
# 3 33.7569 -8.7829 56.3550 0.0000 0.0000 0.0000
# 4 0.0000 0.0000 0.0000 21.5806 0.0000 0.0000
# 5 0.0000 0.0000 0.0000 0.0000 8.9075 0.0000
# 6 0.0000 0.0000 0.0000 0.0000 0.0000 -706.1437
#
#
#
# Elastic Compliance Matrix: (Units=1/GPa)
#
#
# Indices 1 2 3 4 5 6 
#
# 1 0.010786 -0.007779 -0.007673 0.000000 0.000000 0.000000
# 2 -0.007779 0.022664 0.008192 0.000000 0.000000 0.000000
# 3 -0.007673 0.008192 0.023617 0.000000 0.000000 0.000000
# 4 0.000000 0.000000 0.000000 0.046338 0.000000 0.000000
# 5 0.000000 0.000000 0.000000 0.000000 0.112265 0.000000
# 6 0.000000 0.000000 0.000000 0.000000 0.000000 -0.001416
#
#
# Mechanical properties :
#
#
# Convention : Reuss Voigt Hill
#
# Bulk Modulus (GPa) = 23.50333 42.64433 33.07383
# Shear Modulus (GPa) = 20.57985 -121.94492 -50.68253
#
# Velocity S-wave (km/s) = 3.09674 -7.53817 -4.85974
# Velocity P-wave (km/s) = 4.87222 7.47622 4.00970
#
# Compressibility (1/GPa) = 0.04254716
#
# Stress axis : x y z
#
# Youngs Moduli (GPa) = 92.71505 44.12269 42.34160
#
# Poissons Ratio (x) = 0.34322 0.32489
# Poissons Ratio (y) = 0.72120 -0.34685
# Poissons Ratio (z) = 0.71140 -0.36144
#
# Static dielectric constant tensor:
#      x y z
#    x 1.780230 0.000000 0.000000 
#    y 0.000000 1.773100 0.000000 
#    z 0.000000 0.000000 1.782860 
# 
# From -- ./inp_files/18242.got.cif
#   From: 2010.05.17/outbox.cif.g08.bks.cpg/sg40_10_cif.got.tgz:18242.got - 2010.06.03 18:35:42.
