data_PCOD9364002
_publ_section_title
;
Structure prediction by ZEFSAII (Michael W. Deem and Ramdas Pophale) SiO2 
 PCOD9364002
Probable space group: A M A 2
;
_chemical_formula_sum "Si O2"
_cell_formula_units_Z 64
_cell_length_a 8.317454
_cell_length_b 15.945006
_cell_length_c 24.577777
_cell_angle_alpha 90.000000
_cell_angle_beta 90.000000
_cell_angle_gamma 90.000000
_cell_volume 3259.550351
_symmetry_space_group_name_H-M "A M A 2"
_symmetry_group_IT_number 40
_symmetry_cell_setting 'orthorhombic'
loop_
_space_group_symop_operation_xyz
x,y,z
-x,-y,z
1/2-x,y,z
1/2+x,-y,z
x,1/2+y,1/2+z
-x,1/2-y,1/2+z
1/2-x,1/2+y,1/2+z
1/2+x,1/2-y,1/2+z
loop_
_atom_site_type_symbol
_atom_site_label
_atom_site_fract_x
_atom_site_fract_y
_atom_site_fract_z
Si Si1 0.942022 0.408949 0.222480
Si Si2 0.443908 0.408794 0.722110
Si Si3 0.943964 0.091557 0.955997
Si Si4 0.055661 0.845752 0.339066
Si Si5 0.444402 0.749064 0.026506
Si Si6 0.557283 0.153407 0.838343
Si Si7 0.553347 0.750530 0.651481
Si Si8 0.942301 0.591735 0.956301
O O1 0.750000 0.407652 0.221897
O O2 0.000256 0.332931 0.184330
O O3 0.000000 0.500000 0.204190
O O4 0.997642 0.391675 0.284050
O O5 0.500000 0.500000 0.704022
O O6 0.250000 0.407558 0.722596
O O7 0.500700 0.390447 0.783825
O O8 0.498253 0.332891 0.683522
O O9 0.750000 0.092588 0.955972
O O10 0.999478 0.109935 0.894168
O O11 0.999582 0.167955 0.994168
O O12 0.000000 0.000000 0.973821
O O13 0.250000 0.847244 0.338908
O O14 0.998543 0.888789 0.394734
O O15 0.002000 0.749250 0.338137
O O16 0.250000 0.750227 0.026453
O O17 0.499181 0.749117 0.088985
O O18 0.498522 0.666121 0.994935
O O19 0.750000 0.153058 0.838356
O O20 0.750000 0.750882 0.651822
O O21 0.750000 0.592682 0.955608
O O22 0.000000 0.500000 0.973502
#
# Coordination Sequence:
#
# PCOD9364002 Si02
#       8
#     8   8   8   8   8   8   8   8
#     4  11  22  39  60  86 116 152 191 237 289 347
#     4  10  20  37  58  86 116 150 189 229 283 342
#     4  10  22  37  57  85 117 151 189 232 285 342
#     4  10  20  36  59  85 118 154 187 230 288 345
#     4  10  21  41  62  83 113 154 198 245 289 338
#     4  11  21  35  58  89 117 151 190 233 288 346
#     4   9  20  39  62  81 112 155 194 237 292 339
#     4  11  23  38  60  89 119 155 191 237 292 347
#
# _framework density 19.634609999999999
#
# number of rings (size 3 to 8) (size 9 to 14) (size 15 to 20)
#    0.000    1.750    2.500    1.875    0.000    4.500 
#    0.000    3.125    0.000    0.000    0.000    0.000 
#    0.000    0.000    0.000    0.000    0.000    0.000 
#
# Total GULP energy -178813.654817 kJ/mol
# GULP energy per Si atom -5587.926713 kJ/mol
# Density = 1.958992 g / cm^3
# Si number density = 19.634610 Si / 1000 Ang^3
#
#
#
# Elastic Constant Matrix: (Units=GPa)
#
#
# Indices 1 2 3 4 5 6 
#
# 1 6.5573 11.3414 20.3203 0.0000 0.0000 0.0000
# 2 11.3414 203.1671 97.6643 0.0000 0.0000 0.0000
# 3 20.3203 97.6643 168.2959 0.0000 0.0000 0.0000
# 4 0.0000 0.0000 0.0000 4.0797 0.0000 0.0000
# 5 0.0000 0.0000 0.0000 0.0000 19.5988 0.0000
# 6 0.0000 0.0000 0.0000 0.0000 0.0000 33.6281
#
#
#
# Elastic Compliance Matrix: (Units=1/GPa)
#
#
# Indices 1 2 3 4 5 6 
#
# 1 0.243762 0.000750 -0.029867 0.000000 0.000000 0.000000
# 2 0.000750 0.006829 -0.004053 0.000000 0.000000 0.000000
# 3 -0.029867 -0.004053 0.011900 0.000000 0.000000 0.000000
# 4 0.000000 0.000000 0.000000 0.245114 0.000000 0.000000
# 5 0.000000 0.000000 0.000000 0.000000 0.051023 0.000000
# 6 0.000000 0.000000 0.000000 0.000000 0.000000 0.029737
#
#
# Mechanical properties :
#
#
# Convention : Reuss Voigt Hill
#
# Bulk Modulus (GPa) = 5.09815 70.74137 37.91976
# Shear Modulus (GPa) = 6.94358 28.04095 17.49226
#
# Velocity S-wave (km/s) = 1.88257 3.78317 2.98801
# Velocity P-wave (km/s) = 2.70695 7.42902 5.59097
#
# Compressibility (1/GPa) = 0.19614958
#
# Stress axis : x y z
#
# Youngs Moduli (GPa) = 4.10236 146.44177 84.03120
#
# Poissons Ratio (x) = -0.10983 2.50980
# Poissons Ratio (y) = -0.00308 0.34060
# Poissons Ratio (z) = 0.12253 0.59357
#
# Static dielectric constant tensor:
#      x y z
#    x 1.687390 0.000000 0.000000 
#    y 0.000000 1.660210 0.000000 
#    z 0.000000 0.000000 1.685300 
# 
# From -- ./inp_files/24228.got.cif
#   From: 2010.05.17/outbox.cif.g08.bks.cpg/sg40_13_cif.got.tgz:24228.got - 2010.06.03 18:35:42.
