data_PCOD9364732
_publ_section_title
;
Structure prediction by ZEFSAII (Michael W. Deem and Ramdas Pophale) SiO2 
 PCOD9364732
Probable space group: A M A 2
;
_chemical_formula_sum "Si O2"
_cell_formula_units_Z 40
_cell_length_a 14.515914
_cell_length_b 5.254986
_cell_length_c 21.644286
_cell_angle_alpha 90.000000
_cell_angle_beta 90.000000
_cell_angle_gamma 90.000000
_cell_volume 1651.046154
_symmetry_space_group_name_H-M "A M A 2"
_symmetry_group_IT_number 40
_symmetry_cell_setting 'orthorhombic'
loop_
_space_group_symop_operation_xyz
x,y,z
-x,-y,z
1/2-x,y,z
1/2+x,-y,z
x,1/2+y,1/2+z
-x,1/2-y,1/2+z
1/2-x,1/2+y,1/2+z
1/2+x,1/2-y,1/2+z
loop_
_atom_site_type_symbol
_atom_site_label
_atom_site_fract_x
_atom_site_fract_y
_atom_site_fract_z
Si Si1 0.750000 0.228252 0.511600
Si Si2 0.250000 0.276605 0.433155
Si Si3 0.965669 0.756097 0.421026
Si Si4 0.649547 0.904361 0.678202
Si Si5 0.948282 0.746535 0.787138
Si Si6 0.402106 0.610293 0.608249
O O1 0.750000 0.433532 0.456233
O O2 0.661555 0.292068 0.552923
O O3 0.750000 0.940818 0.486114
O O4 0.144493 0.242579 0.404707
O O5 0.000000 0.500000 0.451881
O O6 0.035202 0.765721 0.360629
O O7 0.000000 0.000000 0.458327
O O8 0.750000 0.016437 0.669094
O O9 0.642681 0.800614 0.749052
O O10 0.640071 0.643889 0.639724
O O11 0.589482 0.144568 0.653959
O O12 0.000000 0.500000 0.762015
O O13 0.000000 0.000000 0.769740
O O14 0.500000 0.500000 0.589013
#
# Coordination Sequence:
#
# PCOD9364732 Si02
#       6
#     4   4   8   8   8   8
#     4  12  26  46  70 111 134 183 254 292 356 442
#     4  12  26  46  78  99 144 189 238 310 372 406
#     4  10  23  46  70 102 143 180 242 301 355 434
#     4  12  22  41  67 102 147 191 231 288 351 427
#     4  10  21  40  62  97 137 180 234 277 337 433
#     4  12  25  44  70  98 146 187 232 299 356 421
#
# _framework density 24.227063000000001
#
# number of rings (size 3 to 8) (size 9 to 14) (size 15 to 20)
#    0.000    0.800    2.000    6.000    0.000    2.400 
#   14.400    0.000    0.000    0.000    0.000    0.000 
#    0.000    0.000    0.000    0.000    0.000    0.000 
#
# Total GULP energy -111384.680268 kJ/mol
# GULP energy per Si atom -5569.234013 kJ/mol
# Density = 2.417192 g / cm^3
# Si number density = 24.227063 Si / 1000 Ang^3
#
#
#
# Elastic Constant Matrix: (Units=GPa)
#
#
# Indices 1 2 3 4 5 6 
#
# 1 136.4071 24.0022 32.5483 0.0000 0.0000 0.0000
# 2 24.0022 179.7797 13.2195 0.0000 0.0000 0.0000
# 3 32.5483 13.2195 73.4598 0.0000 0.0000 0.0000
# 4 0.0000 0.0000 0.0000 39.0722 0.0000 0.0000
# 5 0.0000 0.0000 0.0000 0.0000 19.4855 0.0000
# 6 0.0000 0.0000 0.0000 0.0000 0.0000 38.2006
#
#
#
# Elastic Compliance Matrix: (Units=1/GPa)
#
#
# Indices 1 2 3 4 5 6 
#
# 1 0.008324 -0.000851 -0.003535 0.000000 0.000000 0.000000
# 2 -0.000851 0.005724 -0.000653 0.000000 0.000000 0.000000
# 3 -0.003535 -0.000653 0.015297 0.000000 0.000000 0.000000
# 4 0.000000 0.000000 0.000000 0.025594 0.000000 0.000000
# 5 0.000000 0.000000 0.000000 0.000000 0.051320 0.000000
# 6 0.000000 0.000000 0.000000 0.000000 0.000000 0.026178
#
#
# Mechanical properties :
#
#
# Convention : Reuss Voigt Hill
#
# Bulk Modulus (GPa) = 51.90397 58.79853 55.35125
# Shear Modulus (GPa) = 33.57117 40.67677 37.12397
#
# Velocity S-wave (km/s) = 3.72652 4.10198 3.91875
# Velocity P-wave (km/s) = 6.32348 6.83794 6.58574
#
# Compressibility (1/GPa) = 0.01926635
#
# Stress axis : x y z
#
# Youngs Moduli (GPa) = 120.12978 174.70174 65.37359
#
# Poissons Ratio (x) = 0.14875 0.23110
# Poissons Ratio (y) = 0.10228 0.04268
# Poissons Ratio (z) = 0.42467 0.11405
#
# Static dielectric constant tensor:
#      x y z
#    x 1.959390 0.000000 0.000000 
#    y 0.000000 2.055330 0.000000 
#    z 0.000000 0.000000 2.018600 
# 
# From -- ./inp_files/24702.got.cif
#   From: 2010.05.17/outbox.cif.g08.bks.cpg/sg40_13_cif.got.tgz:24702.got - 2010.06.03 18:35:42.
