data_PCOD9364594
_publ_section_title
;
Structure prediction by ZEFSAII (Michael W. Deem and Ramdas Pophale) SiO2 
 PCOD9364594
Probable space group: A M A 2
;
_chemical_formula_sum "Si O2"
_cell_formula_units_Z 64
_cell_length_a 8.061583
_cell_length_b 31.566326
_cell_length_c 12.301242
_cell_angle_alpha 90.000000
_cell_angle_beta 90.000000
_cell_angle_gamma 90.000000
_cell_volume 3130.353109
_symmetry_space_group_name_H-M "A M A 2"
_symmetry_group_IT_number 40
_symmetry_cell_setting 'orthorhombic'
loop_
_space_group_symop_operation_xyz
x,y,z
-x,-y,z
1/2-x,y,z
1/2+x,-y,z
x,1/2+y,1/2+z
-x,1/2-y,1/2+z
1/2-x,1/2+y,1/2+z
1/2+x,1/2-y,1/2+z
loop_
_atom_site_type_symbol
_atom_site_label
_atom_site_fract_x
_atom_site_fract_y
_atom_site_fract_z
Si Si1 0.449622 0.373057 0.657600
Si Si2 0.448988 0.045858 0.774423
Si Si3 0.555588 0.160078 0.531070
Si Si4 0.943468 0.934698 0.535814
Si Si5 0.547637 0.703733 0.808959
Si Si6 0.446579 0.702045 0.251018
Si Si7 0.551763 0.954233 0.297425
Si Si8 0.051978 0.871861 0.909373
O O1 0.250000 0.370771 0.654313
O O2 0.508736 0.331282 0.721750
O O3 0.493957 0.414930 0.725168
O O4 0.509524 0.374563 0.533479
O O5 0.250000 0.049066 0.771307
O O6 0.516114 0.049550 0.650196
O O7 0.513141 0.085056 0.844707
O O8 0.500000 0.000000 0.818421
O O9 0.750000 0.149631 0.515768
O O10 0.458669 0.116034 0.536705
O O11 0.498608 0.187501 0.428134
O O12 0.532603 0.185192 0.642384
O O13 0.750000 0.947018 0.535910
O O14 0.016998 0.950008 0.421169
O O15 0.750000 0.704357 0.807431
O O16 0.492480 0.751258 0.783472
O O17 0.250000 0.704283 0.229270
O O18 0.476381 0.667828 0.345362
O O19 0.750000 0.952078 0.302708
O O20 0.500000 0.000000 0.253260
O O21 0.250000 0.866100 0.910453
#
# Coordination Sequence:
#
# PCOD9364594 Si02
#       8
#     8   8   8   8   8   8   8   8
#     4  10  22  43  64  85 118 160 204 253 302 354
#     4  11  23  40  63  89 123 159 199 248 304 361
#     4  11  21  37  64  92 121 158 204 249 299 358
#     4  10  21  38  60  91 125 158 195 244 304 357
#     4   9  21  40  62  89 121 161 199 245 304 357
#     4  11  23  40  62  89 127 163 199 248 306 360
#     4  11  23  39  62  92 123 158 201 246 299 362
#     4  11  24  41  63  89 119 159 209 253 300 359
#
# _framework density 20.444977000000002
#
# number of rings (size 3 to 8) (size 9 to 14) (size 15 to 20)
#    0.000    1.500    2.500    2.250    1.750    2.500 
#    0.000    3.125    0.000    0.000    0.000    0.000 
#    0.000    0.000    0.000    0.000    0.000    0.000 
#
# Total GULP energy -178863.200992 kJ/mol
# GULP energy per Si atom -5589.475031 kJ/mol
# Density = 2.039844 g / cm^3
# Si number density = 20.444977 Si / 1000 Ang^3
#
#
#
# Elastic Constant Matrix: (Units=GPa)
#
#
# Indices 1 2 3 4 5 6 
#
# 1 22.1636 -14.4276 -1.6045 0.0000 0.0000 0.0000
# 2 -14.4276 163.8968 64.0052 0.0000 0.0000 0.0000
# 3 -1.6045 64.0052 141.1252 0.0000 0.0000 0.0000
# 4 0.0000 0.0000 0.0000 31.2930 0.0000 0.0000
# 5 0.0000 0.0000 0.0000 0.0000 29.9658 0.0000
# 6 0.0000 0.0000 0.0000 0.0000 0.0000 19.5784
#
#
#
# Elastic Compliance Matrix: (Units=1/GPa)
#
#
# Indices 1 2 3 4 5 6 
#
# 1 0.048184 0.004895 -0.001672 0.000000 0.000000 0.000000
# 2 0.004895 0.007912 -0.003533 0.000000 0.000000 0.000000
# 3 -0.001672 -0.003533 0.008669 0.000000 0.000000 0.000000
# 4 0.000000 0.000000 0.000000 0.031956 0.000000 0.000000
# 5 0.000000 0.000000 0.000000 0.000000 0.033371 0.000000
# 6 0.000000 0.000000 0.000000 0.000000 0.000000 0.051077
#
#
# Mechanical properties :
#
#
# Convention : Reuss Voigt Hill
#
# Bulk Modulus (GPa) = 15.58976 47.01467 31.30222
# Shear Modulus (GPa) = 24.60981 34.78160 29.69571
#
# Velocity S-wave (km/s) = 3.47322 4.12907 3.81526
# Velocity P-wave (km/s) = 4.87094 6.76594 5.89508
#
# Compressibility (1/GPa) = 0.06414469
#
# Stress axis : x y z
#
# Youngs Moduli (GPa) = 20.75374 126.39303 115.35254
#
# Poissons Ratio (x) = -0.61863 0.19287
# Poissons Ratio (y) = -0.10158 0.40750
# Poissons Ratio (z) = 0.03470 0.44650
#
# Static dielectric constant tensor:
#      x y z
#    x 1.726770 0.000000 0.000000 
#    y 0.000000 1.689390 0.000000 
#    z 0.000000 0.000000 1.725470 
# 
# From -- ./inp_files/10564.got.cif
#   From: 2010.05.17/outbox.cif.g08.bks.cpg/sg40_6_cif.got.tgz:10564.got - 2010.06.03 18:35:42.
