data_PCOD9364360
_publ_section_title
;
Structure prediction by ZEFSAII (Michael W. Deem and Ramdas Pophale) SiO2 
 PCOD9364360
Probable space group: A M A 2
;
_chemical_formula_sum "Si O2"
_cell_formula_units_Z 56
_cell_length_a 19.565680
_cell_length_b 8.369313
_cell_length_c 17.211956
_cell_angle_alpha 90.000000
_cell_angle_beta 90.000000
_cell_angle_gamma 90.000000
_cell_volume 2818.480170
_symmetry_space_group_name_H-M "A M A 2"
_symmetry_group_IT_number 40
_symmetry_cell_setting 'orthorhombic'
loop_
_space_group_symop_operation_xyz
x,y,z
-x,-y,z
1/2-x,y,z
1/2+x,-y,z
x,1/2+y,1/2+z
-x,1/2-y,1/2+z
1/2-x,1/2+y,1/2+z
1/2+x,1/2-y,1/2+z
loop_
_atom_site_type_symbol
_atom_site_label
_atom_site_fract_x
_atom_site_fract_y
_atom_site_fract_z
Si Si1 0.066548 0.592688 0.323830
Si Si2 0.512208 0.185905 0.462894
Si Si3 0.631786 0.701550 0.531517
Si Si4 0.823839 0.162092 0.870858
Si Si5 0.570268 0.391003 0.592887
Si Si6 0.172186 0.737455 0.203238
Si Si7 0.827492 0.381843 0.724284
O O1 0.039038 0.721903 0.386450
O O2 0.115654 0.465514 0.366290
O O3 0.113666 0.660622 0.255722
O O4 0.000000 0.500000 0.293569
O O5 0.440270 0.245598 0.496484
O O6 0.559502 0.244174 0.534414
O O7 0.500000 0.000000 0.448121
O O8 0.679132 0.726249 0.458035
O O9 0.622678 0.515522 0.553504
O O10 0.653706 0.780986 0.612207
O O11 0.750000 0.088047 0.852027
O O12 0.836089 0.301010 0.808118
O O13 0.500000 0.500000 0.605531
O O14 0.608428 0.334100 0.670482
O O15 0.250000 0.680148 0.216180
O O16 0.171183 0.926002 0.224479
O O17 0.750000 0.336918 0.696578
#
# Coordination Sequence:
#
# PCOD9364360 Si02
#       7
#     8   8   8   8   8   8   8
#     4  12  24  42  65  93 131 168 219 271 323 388
#     4  11  23  40  62  95 129 165 218 274 323 376
#     4  10  20  41  64  90 128 168 213 257 320 390
#     4  11  22  39  66  91 126 173 214 261 318 385
#     4   9  18  39  64  89 129 167 211 261 317 389
#     4  10  23  42  66  97 132 173 218 267 322 387
#     4   9  21  39  63  97 130 164 215 264 318 384
#
# _framework density 19.868866000000001
#
# number of rings (size 3 to 8) (size 9 to 14) (size 15 to 20)
#    0.000    1.714    2.857    1.286    2.000    5.714 
#    0.000    0.000    0.000    0.857    0.000    0.000 
#    0.000    0.000    0.000    0.000    0.000    0.000 
#
# Total GULP energy -156043.043706 kJ/mol
# GULP energy per Si atom -5572.965847 kJ/mol
# Density = 1.982364 g / cm^3
# Si number density = 19.868866 Si / 1000 Ang^3
#
#
#
# Elastic Constant Matrix: (Units=GPa)
#
#
# Indices 1 2 3 4 5 6 
#
# 1 128.6261 42.5982 89.3409 0.0000 0.0000 0.0000
# 2 42.5982 62.6789 66.2643 0.0000 0.0000 0.0000
# 3 89.3409 66.2643 169.1285 0.0000 0.0000 0.0000
# 4 0.0000 0.0000 0.0000 29.2984 0.0000 0.0000
# 5 0.0000 0.0000 0.0000 0.0000 12.1847 0.0000
# 6 0.0000 0.0000 0.0000 0.0000 0.0000 34.1693
#
#
#
# Elastic Compliance Matrix: (Units=1/GPa)
#
#
# Indices 1 2 3 4 5 6 
#
# 1 0.012522 -0.002590 -0.005600 0.000000 0.000000 0.000000
# 2 -0.002590 0.027771 -0.009513 0.000000 0.000000 0.000000
# 3 -0.005600 -0.009513 0.012598 0.000000 0.000000 0.000000
# 4 0.000000 0.000000 0.000000 0.034132 0.000000 0.000000
# 5 0.000000 0.000000 0.000000 0.000000 0.082070 0.000000
# 6 0.000000 0.000000 0.000000 0.000000 0.000000 0.029266
#
#
# Mechanical properties :
#
#
# Convention : Reuss Voigt Hill
#
# Bulk Modulus (GPa) = 57.18853 84.09336 70.64094
# Shear Modulus (GPa) = 20.86880 25.94581 23.40731
#
# Velocity S-wave (km/s) = 3.24439 3.61758 3.43605
# Velocity P-wave (km/s) = 6.54830 7.73726 7.16748
#
# Compressibility (1/GPa) = 0.01748602
#
# Stress axis : x y z
#
# Youngs Moduli (GPa) = 79.86156 36.00830 79.37958
#
# Poissons Ratio (x) = 0.09326 0.44450
# Poissons Ratio (y) = 0.20684 0.75511
# Poissons Ratio (z) = 0.44720 0.34253
#
# Static dielectric constant tensor:
#      x y z
#    x 1.881150 0.000000 0.000000 
#    y 0.000000 1.729300 0.000000 
#    z 0.000000 0.000000 1.725380 
# 
# From -- ./inp_files/18249.got.cif
#   From: 2010.05.17/outbox.cif.g08.bks.cpg/sg40_10_cif.got.tgz:18249.got - 2010.06.03 18:35:42.
