data_PCOD9364983
_publ_section_title
;
Structure prediction by ZEFSAII (Michael W. Deem and Ramdas Pophale) SiO2 
 PCOD9364983
Probable space group: A M A 2
;
_chemical_formula_sum "Si O2"
_cell_formula_units_Z 56
_cell_length_a 20.885998
_cell_length_b 9.018369
_cell_length_c 14.118982
_cell_angle_alpha 90.000000
_cell_angle_beta 90.000000
_cell_angle_gamma 90.000000
_cell_volume 2659.418085
_symmetry_space_group_name_H-M "A M A 2"
_symmetry_group_IT_number 40
_symmetry_cell_setting 'orthorhombic'
loop_
_space_group_symop_operation_xyz
x,y,z
-x,-y,z
1/2-x,y,z
1/2+x,-y,z
x,1/2+y,1/2+z
-x,1/2-y,1/2+z
1/2-x,1/2+y,1/2+z
1/2+x,1/2-y,1/2+z
loop_
_atom_site_type_symbol
_atom_site_label
_atom_site_fract_x
_atom_site_fract_y
_atom_site_fract_z
Si Si1 0.416805 0.781399 0.669790
Si Si2 0.427138 0.954906 0.145032
Si Si3 0.326880 0.304203 0.504558
Si Si4 0.026319 0.835622 0.468513
Si Si5 0.094974 0.714115 0.306519
Si Si6 0.928397 0.621618 0.368832
Si Si7 0.823926 0.444892 0.154976
O O1 0.398355 0.610922 0.679812
O O2 0.459110 0.810355 0.577779
O O3 0.450530 0.820785 0.767166
O O4 0.361414 0.902205 0.659532
O O5 0.375896 0.906982 0.065353
O O6 0.432231 0.828630 0.225811
O O7 0.500000 0.000000 0.115706
O O8 0.250000 0.336191 0.508702
O O9 0.357064 0.325397 0.400248
O O10 0.336780 0.146596 0.557855
O O11 0.088590 0.810833 0.402122
O O12 0.973792 0.713114 0.439405
O O13 0.000000 0.000000 0.452571
O O14 0.071099 0.554980 0.351393
O O15 0.155158 0.655164 0.245217
O O16 0.750000 0.473530 0.159846
#
# Coordination Sequence:
#
# PCOD9364983 Si02
#       7
#     8   8   8   8   8   8   8
#     4  11  24  39  62  94 128 170 215 273 340 407
#     4  11  22  40  66 100 137 172 219 281 342 408
#     4  10  22  43  69  95 129 177 229 278 336 409
#     4  12  24  39  61  96 137 175 221 281 347 418
#     4  10  22  40  65  95 128 174 225 276 342 410
#     4  11  23  40  63  91 127 172 223 275 340 409
#     4   9  21  43  69  97 132 176 230 286 339 405
#
# _framework density 21.057237000000001
#
# number of rings (size 3 to 8) (size 9 to 14) (size 15 to 20)
#    0.000    1.429    0.000    5.143    0.000    9.714 
#    0.000    0.714    0.000    6.000    0.000    0.000 
#    0.000    0.000    0.000    0.000    0.000    0.000 
#
# Total GULP energy -155891.577948 kJ/mol
# GULP energy per Si atom -5567.556355 kJ/mol
# Density = 2.100931 g / cm^3
# Si number density = 21.057237 Si / 1000 Ang^3
#
#
#
# Elastic Constant Matrix: (Units=GPa)
#
#
# Indices 1 2 3 4 5 6 
#
# 1 103.1430 57.3872 45.8624 0.0000 0.0000 0.0000
# 2 57.3872 95.9985 38.4295 0.0000 0.0000 0.0000
# 3 45.8624 38.4295 133.9350 0.0000 0.0000 0.0000
# 4 0.0000 0.0000 0.0000 33.6809 0.0000 0.0000
# 5 0.0000 0.0000 0.0000 0.0000 22.2014 0.0000
# 6 0.0000 0.0000 0.0000 0.0000 0.0000 20.8382
#
#
#
# Elastic Compliance Matrix: (Units=1/GPa)
#
#
# Indices 1 2 3 4 5 6 
#
# 1 0.015524 -0.008080 -0.002997 0.000000 0.000000 0.000000
# 2 -0.008080 0.015974 -0.001817 0.000000 0.000000 0.000000
# 3 -0.002997 -0.001817 0.009014 0.000000 0.000000 0.000000
# 4 0.000000 0.000000 0.000000 0.029690 0.000000 0.000000
# 5 0.000000 0.000000 0.000000 0.000000 0.045042 0.000000
# 6 0.000000 0.000000 0.000000 0.000000 0.000000 0.047989
#
#
# Mechanical properties :
#
#
# Convention : Reuss Voigt Hill
#
# Bulk Modulus (GPa) = 67.91707 68.49274 68.20491
# Shear Modulus (GPa) = 25.78264 28.10394 26.94329
#
# Velocity S-wave (km/s) = 3.50295 3.65724 3.58093
# Velocity P-wave (km/s) = 6.97742 7.10151 7.03974
#
# Compressibility (1/GPa) = 0.01472384
#
# Stress axis : x y z
#
# Youngs Moduli (GPa) = 64.41794 62.60067 110.94008
#
# Poissons Ratio (x) = 0.50582 0.33252
# Poissons Ratio (y) = 0.52050 0.20154
# Poissons Ratio (z) = 0.19308 0.11372
#
# Static dielectric constant tensor:
#      x y z
#    x 1.785070 0.000000 0.000000 
#    y 0.000000 1.785320 0.000000 
#    z 0.000000 0.000000 1.818150 
# 
# From -- ./inp_files/18230.got.cif
#   From: 2010.05.17/outbox.cif.g08.bks.cpg/sg40_10_cif.got.tgz:18230.got - 2010.06.03 18:35:42.
