data_PCOD9364242
_publ_section_title
;
Structure prediction by ZEFSAII (Michael W. Deem and Ramdas Pophale) SiO2 
 PCOD9364242
Probable space group: A M A 2
;
_chemical_formula_sum "Si O2"
_cell_formula_units_Z 64
_cell_length_a 16.940510
_cell_length_b 13.561840
_cell_length_c 14.636645
_cell_angle_alpha 90.000000
_cell_angle_beta 90.000000
_cell_angle_gamma 90.000000
_cell_volume 3362.688484
_symmetry_space_group_name_H-M "A M A 2"
_symmetry_group_IT_number 40
_symmetry_cell_setting 'orthorhombic'
loop_
_space_group_symop_operation_xyz
x,y,z
-x,-y,z
1/2-x,y,z
1/2+x,-y,z
x,1/2+y,1/2+z
-x,1/2-y,1/2+z
1/2-x,1/2+y,1/2+z
1/2+x,1/2-y,1/2+z
loop_
_atom_site_type_symbol
_atom_site_label
_atom_site_fract_x
_atom_site_fract_y
_atom_site_fract_z
Si Si1 0.492126 0.881626 0.655670
Si Si2 0.156536 0.589395 0.817381
Si Si3 0.603229 0.897806 0.001682
Si Si4 0.443346 0.688650 0.958740
Si Si5 0.158159 0.883834 0.226448
Si Si6 0.077423 0.219365 0.829708
Si Si7 0.841413 0.751614 0.159441
Si Si8 0.414578 0.383179 0.534058
O O1 0.527348 0.845441 0.558255
O O2 0.536288 0.832396 0.742701
O O3 0.403138 0.837918 0.657025
O O4 0.500000 0.000000 0.661634
O O5 0.250000 0.583996 0.835073
O O6 0.132802 0.488280 0.768270
O O7 0.142275 0.680087 0.748084
O O8 0.108055 0.607026 0.908724
O O9 0.644665 0.824860 0.073158
O O10 0.509252 0.891834 0.023602
O O11 0.624572 0.012375 0.010698
O O12 0.612693 0.860528 0.898959
O O13 0.393005 0.789091 0.973185
O O14 0.514330 0.719380 0.890887
O O15 0.250000 0.890922 0.201605
O O16 0.142285 0.796250 0.296199
O O17 0.106701 0.862366 0.137885
O O18 0.750000 0.720755 0.160937
#
# Coordination Sequence:
#
# PCOD9364242 Si02
#       8
#     8   8   8   8   8   8   8   8
#     4  12  26  44  63  97 128 166 215 264 317 381
#     4  10  23  39  64  96 126 166 212 264 320 377
#     4  10  21  36  66  97 121 163 209 260 318 373
#     4  11  23  40  64  92 125 167 213 262 316 376
#     4  11  23  40  62  92 128 167 210 267 321 367
#     4  11  23  41  62  90 128 165 210 260 314 380
#     4  11  21  41  66  96 131 163 210 267 322 382
#     4  10  20  38  64  95 121 156 216 264 312 369
#
# _framework density 19.032389999999999
#
# number of rings (size 3 to 8) (size 9 to 14) (size 15 to 20)
#    0.000    1.250    6.250    0.000    5.250    1.000 
#    0.000    1.250    0.000    0.000    0.000    0.000 
#    0.000    0.000    0.000    0.000    0.000    0.000 
#
# Total GULP energy -178673.317671 kJ/mol
# GULP energy per Si atom -5583.541177 kJ/mol
# Density = 1.898907 g / cm^3
# Si number density = 19.032390 Si / 1000 Ang^3
#
#
#
# Elastic Constant Matrix: (Units=GPa)
#
#
# Indices 1 2 3 4 5 6 
#
# 1 31.9438 26.7966 18.1593 0.0000 0.0000 0.0000
# 2 26.7966 82.3370 5.4807 0.0000 0.0000 0.0000
# 3 18.1593 5.4807 88.9949 0.0000 0.0000 0.0000
# 4 0.0000 0.0000 0.0000 34.9681 0.0000 0.0000
# 5 0.0000 0.0000 0.0000 0.0000 1.0330 0.0000
# 6 0.0000 0.0000 0.0000 0.0000 0.0000 23.7678
#
#
#
# Elastic Compliance Matrix: (Units=1/GPa)
#
#
# Indices 1 2 3 4 5 6 
#
# 1 0.049512 -0.015505 -0.009148 0.000000 0.000000 0.000000
# 2 -0.015505 0.017050 0.002114 0.000000 0.000000 0.000000
# 3 -0.009148 0.002114 0.012973 0.000000 0.000000 0.000000
# 4 0.000000 0.000000 0.000000 0.028597 0.000000 0.000000
# 5 0.000000 0.000000 0.000000 0.000000 0.968010 0.000000
# 6 0.000000 0.000000 0.000000 0.000000 0.000000 0.042074
#
#
# Mechanical properties :
#
#
# Convention : Reuss Voigt Hill
#
# Bulk Modulus (GPa) = 29.02138 33.79431 31.40785
# Shear Modulus (GPa) = 4.25612 22.14308 13.19960
#
# Velocity S-wave (km/s) = 1.49703 3.41463 2.63636
# Velocity P-wave (km/s) = 4.27430 5.77417 5.07989
#
# Compressibility (1/GPa) = 0.03445735
#
# Stress axis : x y z
#
# Youngs Moduli (GPa) = 20.19727 58.64937 77.08278
#
# Poissons Ratio (x) = 0.90934 0.70515
# Poissons Ratio (y) = 0.31315 -0.16293
# Poissons Ratio (z) = 0.18476 -0.12396
#
# Static dielectric constant tensor:
#      x y z
#    x 1.668330 0.000000 0.000000 
#    y 0.000000 1.673120 0.000000 
#    z 0.000000 0.000000 1.648950 
# 
# From -- ./inp_files/13088.got.cif
#   From: 2010.05.17/outbox.cif.g08.bks.cpg/sg40_7_cif.got.tgz:13088.got - 2010.06.03 18:35:42.
