data_PCOD9364419
_publ_section_title
;
Structure prediction by ZEFSAII (Michael W. Deem and Ramdas Pophale) SiO2 
 PCOD9364419
Probable space group: A M A 2
;
_chemical_formula_sum "Si O2"
_cell_formula_units_Z 56
_cell_length_a 25.249861
_cell_length_b 10.094137
_cell_length_c 11.147391
_cell_angle_alpha 90.000000
_cell_angle_beta 90.000000
_cell_angle_gamma 90.000000
_cell_volume 2841.197481
_symmetry_space_group_name_H-M "A M A 2"
_symmetry_group_IT_number 40
_symmetry_cell_setting 'orthorhombic'
loop_
_space_group_symop_operation_xyz
x,y,z
-x,-y,z
1/2-x,y,z
1/2+x,-y,z
x,1/2+y,1/2+z
-x,1/2-y,1/2+z
1/2-x,1/2+y,1/2+z
1/2+x,1/2-y,1/2+z
loop_
_atom_site_type_symbol
_atom_site_label
_atom_site_fract_x
_atom_site_fract_y
_atom_site_fract_z
Si Si1 0.058938 0.940901 0.823850
Si Si2 0.864577 0.824157 0.741676
Si Si3 0.869453 0.211168 0.492658
Si Si4 0.690047 0.461470 0.030998
Si Si5 0.441972 0.170797 0.172401
Si Si6 0.582300 0.957492 0.413867
Si Si7 0.555072 0.709196 0.562006
O O1 0.060098 0.813011 0.738973
O O2 0.072599 0.888505 0.956257
O O3 0.098594 0.051106 0.775847
O O4 0.000000 0.000000 0.825130
O O5 0.846870 0.762391 0.866996
O O6 0.820542 0.876134 0.650005
O O7 0.902424 0.724945 0.667470
O O8 0.894835 0.322501 0.575772
O O9 0.827083 0.114329 0.554965
O O10 0.917592 0.109201 0.457165
O O11 0.750000 0.450807 0.990220
O O12 0.644600 0.419852 0.935247
O O13 0.434676 0.065331 0.278290
O O14 0.498465 0.163224 0.109259
O O15 0.551504 0.855854 0.500323
#
# Coordination Sequence:
#
# PCOD9364419 Si02
#       7
#     8   8   8   8   8   8   8
#     4  11  20  34  55  83 120 159 191 231 279 343
#     4  11  21  38  58  88 115 151 192 248 289 351
#     4  10  22  36  60  84 114 148 192 240 290 353
#     4   9  20  43  64  82 112 151 196 255 305 345
#     4  11  19  36  58  82 123 161 188 235 284 345
#     4   8  21  38  55  86 113 153 198 235 283 355
#     4  10  21  34  56  83 119 160 196 223 287 345
#
# _framework density 19.710000000000001
#
# number of rings (size 3 to 8) (size 9 to 14) (size 15 to 20)
#    0.857    1.143    2.857    0.857    2.000    2.857 
#    0.000    0.714    0.000    0.000    0.000    0.000 
#    0.000    0.000    0.000    0.000    0.000    0.000 
#
# Total GULP energy -156260.464521 kJ/mol
# GULP energy per Si atom -5580.730876 kJ/mol
# Density = 1.966514 g / cm^3
# Si number density = 19.710000 Si / 1000 Ang^3
#
#
#
# Elastic Constant Matrix: (Units=GPa)
#
#
# Indices 1 2 3 4 5 6 
#
# 1 76.8449 -4.6832 19.5107 0.0000 0.0000 0.0000
# 2 -4.6832 48.8102 5.8979 0.0000 0.0000 0.0000
# 3 19.5107 5.8979 98.9516 0.0000 0.0000 0.0000
# 4 0.0000 0.0000 0.0000 27.4708 0.0000 0.0000
# 5 0.0000 0.0000 0.0000 0.0000 12.1926 0.0000
# 6 0.0000 0.0000 0.0000 0.0000 0.0000 4.5028
#
#
#
# Elastic Compliance Matrix: (Units=1/GPa)
#
#
# Indices 1 2 3 4 5 6 
#
# 1 0.013833 0.001669 -0.002827 0.000000 0.000000 0.000000
# 2 0.001669 0.020837 -0.001571 0.000000 0.000000 0.000000
# 3 -0.002827 -0.001571 0.010757 0.000000 0.000000 0.000000
# 4 0.000000 0.000000 0.000000 0.036402 0.000000 0.000000
# 5 0.000000 0.000000 0.000000 0.000000 0.082017 0.000000
# 6 0.000000 0.000000 0.000000 0.000000 0.000000 0.222083
#
#
# Mechanical properties :
#
#
# Convention : Reuss Voigt Hill
#
# Bulk Modulus (GPa) = 25.01952 29.56194 27.29073
# Shear Modulus (GPa) = 12.35451 22.42532 17.38991
#
# Velocity S-wave (km/s) = 2.50634 3.37673 2.97356
# Velocity P-wave (km/s) = 4.59315 5.49856 5.06612
#
# Compressibility (1/GPa) = 0.03996880
#
# Stress axis : x y z
#
# Youngs Moduli (GPa) = 72.29258 47.99048 92.96282
#
# Poissons Ratio (x) = -0.08009 0.26280
# Poissons Ratio (y) = -0.12064 0.14605
# Poissons Ratio (z) = 0.20436 0.07539
#
# Static dielectric constant tensor:
#      x y z
#    x 1.647390 0.000000 0.000000 
#    y 0.000000 1.742860 0.000000 
#    z 0.000000 0.000000 1.716640 
# 
# From -- ./inp_files/14251.got.cif
#   From: 2010.05.17/outbox.cif.g08.bks.cpg/sg40_8_cif.got.tgz:14251.got - 2010.06.03 18:35:42.
