data_PCOD9364261
_publ_section_title
;
Structure prediction by ZEFSAII (Michael W. Deem and Ramdas Pophale) SiO2 
 PCOD9364261
Probable space group: A M A 2
;
_chemical_formula_sum "Si O2"
_cell_formula_units_Z 44
_cell_length_a 17.654018
_cell_length_b 5.393032
_cell_length_c 19.235303
_cell_angle_alpha 90.000000
_cell_angle_beta 90.000000
_cell_angle_gamma 90.000000
_cell_volume 1831.367885
_symmetry_space_group_name_H-M "A M A 2"
_symmetry_group_IT_number 40
_symmetry_cell_setting 'orthorhombic'
loop_
_space_group_symop_operation_xyz
x,y,z
-x,-y,z
1/2-x,y,z
1/2+x,-y,z
x,1/2+y,1/2+z
-x,1/2-y,1/2+z
1/2-x,1/2+y,1/2+z
1/2+x,1/2-y,1/2+z
loop_
_atom_site_type_symbol
_atom_site_label
_atom_site_fract_x
_atom_site_fract_y
_atom_site_fract_z
Si Si1 0.500000 0.500000 0.551560
Si Si2 0.162422 0.375940 0.599597
Si Si3 0.660880 0.157740 0.261165
Si Si4 0.664457 0.454946 0.965585
Si Si5 0.470973 0.251713 0.919588
Si Si6 0.158971 0.844874 0.829191
O O1 0.417797 0.522812 0.588130
O O2 0.509550 0.724576 0.496474
O O3 0.250000 0.486187 0.592198
O O4 0.156355 0.291811 0.679324
O O5 0.160361 0.155823 0.542837
O O6 0.750000 0.142754 0.278445
O O7 0.628463 0.389909 0.303770
O O8 0.630880 0.887258 0.282735
O O9 0.750000 0.535599 0.953553
O O10 0.613554 0.685828 0.943194
O O11 0.648403 0.237373 0.909084
O O12 0.500000 0.500000 0.884072
O O13 0.500000 0.000000 0.885502
O O14 0.250000 0.861594 0.819030
#
# Coordination Sequence:
#
# PCOD9364261 Si02
#       6
#     4   8   8   8   8   8
#     4  10  22  38  64  92 142 176 216 282 358 396
#     4  10  21  39  68 103 135 176 236 287 339 413
#     4   9  19  37  58  91 133 174 209 264 337 399
#     4  10  20  38  68 103 129 168 234 289 333 411
#     4  10  21  39  57  89 132 178 202 266 351 400
#     4   9  19  36  61  92 134 171 208 266 338 397
#
# _framework density 24.025755
#
# number of rings (size 3 to 8) (size 9 to 14) (size 15 to 20)
#    0.545    1.818    1.818    0.000    0.000    5.091 
#    0.000   10.000    2.000    0.000    4.727    0.000 
#    0.000    0.000    0.000    0.182    0.000    0.000 
#
# Total GULP energy -122585.867923 kJ/mol
# GULP energy per Si atom -5572.084906 kJ/mol
# Density = 2.397107 g / cm^3
# Si number density = 24.025755 Si / 1000 Ang^3
#
#
#
# Elastic Constant Matrix: (Units=GPa)
#
#
# Indices 1 2 3 4 5 6 
#
# 1 154.3549 4.9057 4.2053 0.0000 0.0000 0.0000
# 2 4.9057 129.3663 22.3707 0.0000 0.0000 0.0000
# 3 4.2053 22.3707 106.8098 0.0000 0.0000 0.0000
# 4 0.0000 0.0000 0.0000 19.4738 0.0000 0.0000
# 5 0.0000 0.0000 0.0000 0.0000 21.4428 0.0000
# 6 0.0000 0.0000 0.0000 0.0000 0.0000 27.2726
#
#
#
# Elastic Compliance Matrix: (Units=1/GPa)
#
#
# Indices 1 2 3 4 5 6 
#
# 1 0.006491 -0.000210 -0.000212 0.000000 0.000000 0.000000
# 2 -0.000210 0.008027 -0.001673 0.000000 0.000000 0.000000
# 3 -0.000212 -0.001673 0.009721 0.000000 0.000000 0.000000
# 4 0.000000 0.000000 0.000000 0.051351 0.000000 0.000000
# 5 0.000000 0.000000 0.000000 0.000000 0.046636 0.000000
# 6 0.000000 0.000000 0.000000 0.000000 0.000000 0.036667
#
#
# Mechanical properties :
#
#
# Convention : Reuss Voigt Hill
#
# Bulk Modulus (GPa) = 49.87292 50.38827 50.13060
# Shear Modulus (GPa) = 29.45244 37.57446 33.51345
#
# Velocity S-wave (km/s) = 3.50504 3.95894 3.73888
# Velocity P-wave (km/s) = 6.09783 6.47424 6.28885
#
# Compressibility (1/GPa) = 0.02005096
#
# Stress axis : x y z
#
# Youngs Moduli (GPa) = 154.05943 124.57580 102.86824
#
# Poissons Ratio (x) = 0.02610 0.02177
# Poissons Ratio (y) = 0.03228 0.17210
# Poissons Ratio (z) = 0.03261 0.20842
#
# Static dielectric constant tensor:
#      x y z
#    x 2.040800 0.000000 0.000000 
#    y 0.000000 1.974380 0.000000 
#    z 0.000000 0.000000 1.871040 
# 
# From -- ./inp_files/23470.got.cif
#   From: 2010.05.17/outbox.cif.g08.bks.cpg/sg40_12_cif.got.tgz:23470.got - 2010.06.03 18:35:42.
