data_PCOD9364944
_publ_section_title
;
Structure prediction by ZEFSAII (Michael W. Deem and Ramdas Pophale) SiO2 
 PCOD9364944
Probable space group: A M A 2
;
_chemical_formula_sum "Si O2"
_cell_formula_units_Z 56
_cell_length_a 13.941195
_cell_length_b 8.040446
_cell_length_c 22.179755
_cell_angle_alpha 90.000000
_cell_angle_beta 90.000000
_cell_angle_gamma 90.000000
_cell_volume 2486.204716
_symmetry_space_group_name_H-M "A M A 2"
_symmetry_group_IT_number 40
_symmetry_cell_setting 'orthorhombic'
loop_
_space_group_symop_operation_xyz
x,y,z
-x,-y,z
1/2-x,y,z
1/2+x,-y,z
x,1/2+y,1/2+z
-x,1/2-y,1/2+z
1/2-x,1/2+y,1/2+z
1/2+x,1/2-y,1/2+z
loop_
_atom_site_type_symbol
_atom_site_label
_atom_site_fract_x
_atom_site_fract_y
_atom_site_fract_z
Si Si1 0.643456 0.192108 0.696820
Si Si2 0.862336 0.259229 0.056829
Si Si3 0.858759 0.549222 0.329852
Si Si4 0.640992 0.087952 0.183460
Si Si5 0.000000 0.000000 0.277064
Si Si6 0.524141 0.685626 0.438937
Si Si7 0.000000 0.000000 0.617223
Si Si8 0.136722 0.835105 0.367295
O O1 0.750000 0.131692 0.677129
O O2 0.627477 0.117757 0.763124
O O3 0.647763 0.390880 0.695348
O O4 0.557642 0.130645 0.656498
O O5 0.750000 0.276575 0.053394
O O6 0.879208 0.129117 0.113150
O O7 0.917474 0.418796 0.079124
O O8 0.903061 0.237641 0.990132
O O9 0.750000 0.584525 0.348479
O O10 0.926464 0.649125 0.374835
O O11 0.869581 0.349056 0.335545
O O12 0.750000 0.156841 0.197509
O O13 0.552199 0.128077 0.228568
O O14 0.087706 0.978457 0.326222
O O15 0.500000 0.500000 0.460650
O O16 0.431508 0.800898 0.425649
O O17 0.250000 0.867155 0.378327
#
# Coordination Sequence:
#
# PCOD9364944 Si02
#       8
#     8   8   8   8   4   8   4   8
#     4  10  22  39  63  96 131 168 217 274 334 396
#     4  11  26  47  68  95 132 178 225 279 336 395
#     4   9  19  38  66 100 132 168 217 280 341 400
#     4  10  23  40  63  97 134 174 223 274 329 396
#     4  12  22  37  66  95 136 176 218 262 344 410
#     4  10  22  40  70  94 126 173 228 274 333 401
#     4  12  26  39  66  91 134 174 222 264 332 406
#     4  10  23  41  63  98 136 174 224 281 340 398
#
# _framework density 22.524291000000002
#
# number of rings (size 3 to 8) (size 9 to 14) (size 15 to 20)
#    0.000    1.714    0.000    3.000   10.000    1.143 
#    0.000    5.000    0.000    0.857    0.000    0.000 
#    0.000    0.000    0.000    0.000    0.000    0.000 
#
# Total GULP energy -155979.136382 kJ/mol
# GULP energy per Si atom -5570.683442 kJ/mol
# Density = 2.247303 g / cm^3
# Si number density = 22.524291 Si / 1000 Ang^3
#
#
#
# Elastic Constant Matrix: (Units=GPa)
#
#
# Indices 1 2 3 4 5 6 
#
# 1 185.6453 28.3499 75.7505 0.0000 0.0000 0.0000
# 2 28.3499 50.0429 12.1935 0.0000 0.0000 0.0000
# 3 75.7505 12.1935 52.2529 0.0000 0.0000 0.0000
# 4 0.0000 0.0000 0.0000 5.9509 0.0000 0.0000
# 5 0.0000 0.0000 0.0000 0.0000-1132.7397 0.0000
# 6 0.0000 0.0000 0.0000 0.0000 0.0000 35.4461
#
#
#
# Elastic Compliance Matrix: (Units=1/GPa)
#
#
# Indices 1 2 3 4 5 6 
#
# 1 0.013621 -0.003080 -0.019027 0.000000 0.000000 0.000000
# 2 -0.003080 0.021884 -0.000641 0.000000 0.000000 0.000000
# 3 -0.019027 -0.000641 0.046871 0.000000 0.000000 0.000000
# 4 0.000000 0.000000 0.000000 0.168041 0.000000 0.000000
# 5 0.000000 0.000000 0.000000 0.000000 -0.000883 0.000000
# 6 0.000000 0.000000 0.000000 0.000000 0.000000 0.028212
#
#
# Mechanical properties :
#
#
# Convention : Reuss Voigt Hill
#
# Bulk Modulus (GPa) = 27.11631 57.83653 42.47642
# Shear Modulus (GPa) = 14.90152 -206.82538 -95.96193
#
# Velocity S-wave (km/s) = 2.57490 -9.59284 -6.53424
# Velocity P-wave (km/s) = 4.57220 9.84701 6.16679
#
# Compressibility (1/GPa) = 0.03687818
#
# Stress axis : x y z
#
# Youngs Moduli (GPa) = 73.41704 45.69526 21.33520
#
# Poissons Ratio (x) = 0.14075 0.40595
# Poissons Ratio (y) = 0.22614 0.01369
# Poissons Ratio (z) = 1.39692 0.02931
#
# Static dielectric constant tensor:
#      x y z
#    x 3.022030 0.000000 0.000000 
#    y 0.000000 1.882430 0.000000 
#    z 0.000000 0.000000 1.874770 
# 
# From -- ./inp_files/23162.got.cif
#   From: 2010.05.17/outbox.cif.g08.bks.cpg/sg40_12_cif.got.tgz:23162.got - 2010.06.03 18:35:42.
