data_PCOD9364442
_publ_section_title
;
Structure prediction by ZEFSAII (Michael W. Deem and Ramdas Pophale) SiO2 
 PCOD9364442
Probable space group: A M A 2
;
_chemical_formula_sum "Si O2"
_cell_formula_units_Z 64
_cell_length_a 21.687170
_cell_length_b 18.020745
_cell_length_c 8.976184
_cell_angle_alpha 90.000000
_cell_angle_beta 90.000000
_cell_angle_gamma 90.000000
_cell_volume 3508.062899
_symmetry_space_group_name_H-M "A M A 2"
_symmetry_group_IT_number 40
_symmetry_cell_setting 'orthorhombic'
loop_
_space_group_symop_operation_xyz
x,y,z
-x,-y,z
1/2-x,y,z
1/2+x,-y,z
x,1/2+y,1/2+z
-x,1/2-y,1/2+z
1/2-x,1/2+y,1/2+z
1/2+x,1/2-y,1/2+z
loop_
_atom_site_type_symbol
_atom_site_label
_atom_site_fract_x
_atom_site_fract_y
_atom_site_fract_z
Si Si1 0.466521 0.157438 0.759020
Si Si2 0.529390 0.919261 0.232928
Si Si3 0.179322 0.923135 0.586926
Si Si4 0.100196 0.190255 0.058742
Si Si5 0.681553 0.217022 0.365770
Si Si6 0.932848 0.962904 0.558500
Si Si7 0.573961 0.198238 0.129942
Si Si8 0.101373 0.327685 0.289740
O O1 0.423718 0.092395 0.697588
O O2 0.460908 0.223702 0.641690
O O3 0.536674 0.131183 0.759469
O O4 0.448982 0.189981 0.920990
O O5 0.585839 0.889092 0.132305
O O6 0.555074 0.920857 0.401398
O O7 0.473516 0.862336 0.196782
O O8 0.500000 0.000000 0.201109
O O9 0.250000 0.951125 0.598069
O O10 0.178726 0.857908 0.463586
O O11 0.156775 0.879114 0.734275
O O12 0.125693 0.982373 0.548894
O O13 0.097261 0.252393 0.189838
O O14 0.161725 0.214094 0.971076
O O15 0.750000 0.227515 0.307923
O O16 0.631919 0.206956 0.237958
O O17 0.000000 0.000000 0.580411
O O18 0.598813 0.185776 0.964840
#
# Coordination Sequence:
#
# PCOD9364442 Si02
#       8
#     8   8   8   8   8   8   8   8
#     4  11  20  33  58  88 118 154 184 245 303 344
#     4  11  22  33  54  86 119 150 193 248 305 353
#     4  10  22  41  62  86 120 162 203 243 298 363
#     4  10  21  35  56  87 120 146 194 243 294 353
#     4   9  20  39  62  84 116 160 197 238 294 356
#     4  11  22  36  58  86 119 156 199 245 298 355
#     4  11  22  35  59  91 120 150 196 250 297 351
#     4  11  19  35  60  87 121 154 194 246 299 353
#
# _framework density 18.243687000000001
#
# number of rings (size 3 to 8) (size 9 to 14) (size 15 to 20)
#    0.000    1.500    3.750    2.250    3.500    2.000 
#    0.000    3.125    0.000    2.250    0.000    0.000 
#    0.000    0.000    0.000    0.000    0.000    0.000 
#
# Total GULP energy -178138.130813 kJ/mol
# GULP energy per Si atom -5566.816588 kJ/mol
# Density = 1.820216 g / cm^3
# Si number density = 18.243687 Si / 1000 Ang^3
#
#
#
# Elastic Constant Matrix: (Units=GPa)
#
#
# Indices 1 2 3 4 5 6 
#
# 1 118.5542 32.7501 36.1002 0.0000 0.0000 0.0000
# 2 32.7501 60.9753 31.2186 0.0000 0.0000 0.0000
# 3 36.1002 31.2186 117.9331 0.0000 0.0000 0.0000
# 4 0.0000 0.0000 0.0000 23.4400 0.0000 0.0000
# 5 0.0000 0.0000 0.0000 0.0000 19.8600 0.0000
# 6 0.0000 0.0000 0.0000 0.0000 0.0000 25.3662
#
#
#
# Elastic Compliance Matrix: (Units=1/GPa)
#
#
# Indices 1 2 3 4 5 6 
#
# 1 0.010278 -0.004522 -0.001949 0.000000 0.000000 0.000000
# 2 -0.004522 0.020961 -0.004164 0.000000 0.000000 0.000000
# 3 -0.001949 -0.004164 0.010178 0.000000 0.000000 0.000000
# 4 0.000000 0.000000 0.000000 0.042662 0.000000 0.000000
# 5 0.000000 0.000000 0.000000 0.000000 0.050352 0.000000
# 6 0.000000 0.000000 0.000000 0.000000 0.000000 0.039422
#
#
# Mechanical properties :
#
#
# Convention : Reuss Voigt Hill
#
# Bulk Modulus (GPa) = 49.63811 55.28896 52.46353
# Shear Modulus (GPa) = 24.77196 26.89282 25.83239
#
# Velocity S-wave (km/s) = 3.68888 3.84355 3.76701
# Velocity P-wave (km/s) = 6.73879 7.07593 6.90941
#
# Compressibility (1/GPa) = 0.02014581
#
# Stress axis : x y z
#
# Youngs Moduli (GPa) = 97.29796 47.70718 98.24768
#
# Poissons Ratio (x) = 0.21575 0.19148
# Poissons Ratio (y) = 0.44002 0.40914
# Poissons Ratio (z) = 0.18963 0.19867
#
# Static dielectric constant tensor:
#      x y z
#    x 1.625950 0.000000 0.000000 
#    y 0.000000 1.658770 0.000000 
#    z 0.000000 0.000000 1.656210 
# 
# From -- ./inp_files/8472.got.cif
#   From: 2010.05.17/outbox.cif.g08.bks.cpg/sg40_5_cif.got.tgz:8472.got - 2010.06.03 18:35:42.
