data_PCOD9364472
_publ_section_title
;
Structure prediction by ZEFSAII (Michael W. Deem and Ramdas Pophale) SiO2 
 PCOD9364472
Probable space group: A M A 2
;
_chemical_formula_sum "Si O2"
_cell_formula_units_Z 56
_cell_length_a 14.002363
_cell_length_b 12.168913
_cell_length_c 17.050527
_cell_angle_alpha 90.000000
_cell_angle_beta 90.000000
_cell_angle_gamma 90.000000
_cell_volume 2905.299606
_symmetry_space_group_name_H-M "A M A 2"
_symmetry_group_IT_number 40
_symmetry_cell_setting 'orthorhombic'
loop_
_space_group_symop_operation_xyz
x,y,z
-x,-y,z
1/2-x,y,z
1/2+x,-y,z
x,1/2+y,1/2+z
-x,1/2-y,1/2+z
1/2-x,1/2+y,1/2+z
1/2+x,1/2-y,1/2+z
loop_
_atom_site_type_symbol
_atom_site_label
_atom_site_fract_x
_atom_site_fract_y
_atom_site_fract_z
Si Si1 0.637900 0.119096 0.762790
Si Si2 0.519003 0.622279 0.104890
Si Si3 0.862301 0.832756 0.362909
Si Si4 0.361909 0.088541 0.857819
Si Si5 0.634940 0.577872 0.815253
Si Si6 0.361189 0.240006 0.701586
Si Si7 0.456205 0.771944 0.449349
O O1 0.750000 0.099175 0.748592
O O2 0.581574 0.104622 0.682787
O O3 0.624499 0.240534 0.796459
O O4 0.608816 0.032628 0.830040
O O5 0.500000 0.500000 0.072266
O O6 0.425416 0.686366 0.134920
O O7 0.567141 0.694942 0.037650
O O8 0.750000 0.835363 0.384577
O O9 0.932303 0.797052 0.432717
O O10 0.890635 0.951148 0.328106
O O11 0.250000 0.087401 0.881577
O O12 0.368034 0.160190 0.777690
O O13 0.423817 0.151097 0.922609
O O14 0.750000 0.584554 0.815092
O O15 0.604739 0.642251 0.736185
O O16 0.597495 0.646786 0.889085
O O17 0.250000 0.246514 0.678822
#
# Coordination Sequence:
#
# PCOD9364472 Si02
#       7
#     8   8   8   8   8   8   8
#     4  10  21  37  61  86 112 152 201 247 292 346
#     4  12  23  33  53  89 125 151 185 249 315 351
#     4  10  21  36  57  83 111 150 196 240 287 348
#     4   9  18  37  61  82 106 151 201 237 280 350
#     4   9  18  36  60  82 105 145 197 241 284 350
#     4   9  18  34  57  80 107 151 198 234 280 349
#     4  11  22  34  55  85 119 150 185 238 300 350
#
# _framework density 19.275120999999999
#
# number of rings (size 3 to 8) (size 9 to 14) (size 15 to 20)
#    0.000    2.000    1.429    4.286    0.000    1.714 
#    0.000    0.000    6.286    0.000    0.000    0.000 
#    0.000    0.000    0.000    0.000    0.000    0.000 
#
# Total GULP energy -156314.948533 kJ/mol
# GULP energy per Si atom -5582.676733 kJ/mol
# Density = 1.923125 g / cm^3
# Si number density = 19.275121 Si / 1000 Ang^3
#
#
#
# Elastic Constant Matrix: (Units=GPa)
#
#
# Indices 1 2 3 4 5 6 
#
# 1 57.2081 34.2590 24.6201 0.0000 0.0000 0.0000
# 2 34.2590 104.6428 43.2659 0.0000 0.0000 0.0000
# 3 24.6201 43.2659 70.8997 0.0000 0.0000 0.0000
# 4 0.0000 0.0000 0.0000 20.7158 0.0000 0.0000
# 5 0.0000 0.0000 0.0000 0.0000 7.4863 0.0000
# 6 0.0000 0.0000 0.0000 0.0000 0.0000 23.8973
#
#
#
# Elastic Compliance Matrix: (Units=1/GPa)
#
#
# Indices 1 2 3 4 5 6 
#
# 1 0.022763 -0.005596 -0.004490 0.000000 0.000000 0.000000
# 2 -0.005596 0.014157 -0.006696 0.000000 0.000000 0.000000
# 3 -0.004490 -0.006696 0.019750 0.000000 0.000000 0.000000
# 4 0.000000 0.000000 0.000000 0.048272 0.000000 0.000000
# 5 0.000000 0.000000 0.000000 0.000000 0.133577 0.000000
# 6 0.000000 0.000000 0.000000 0.000000 0.000000 0.041846
#
#
# Mechanical properties :
#
#
# Convention : Reuss Voigt Hill
#
# Bulk Modulus (GPa) = 43.27774 48.56007 45.91891
# Shear Modulus (GPa) = 15.54575 19.12691 17.33633
#
# Velocity S-wave (km/s) = 2.84301 3.15351 3.00228
# Velocity P-wave (km/s) = 5.76874 6.20543 5.99106
#
# Compressibility (1/GPa) = 0.02310657
#
# Stress axis : x y z
#
# Youngs Moduli (GPa) = 43.92998 70.63669 50.63402
#
# Poissons Ratio (x) = 0.39530 0.22733
# Poissons Ratio (y) = 0.24584 0.33904
# Poissons Ratio (z) = 0.19723 0.47297
#
# Static dielectric constant tensor:
#      x y z
#    x 1.731260 0.000000 0.000000 
#    y 0.000000 1.708040 0.000000 
#    z 0.000000 0.000000 1.627610 
# 
# From -- ./inp_files/17076.got.cif
#   From: 2010.05.17/outbox.cif.g08.bks.cpg/sg40_9_cif.got.tgz:17076.got - 2010.06.03 18:35:42.
