data_PCOD9364095
_publ_section_title
;
Structure prediction by ZEFSAII (Michael W. Deem and Ramdas Pophale) SiO2 
 PCOD9364095
Probable space group: A M A 2
;
_chemical_formula_sum "Si O2"
_cell_formula_units_Z 64
_cell_length_a 8.600192
_cell_length_b 33.640334
_cell_length_c 12.113401
_cell_angle_alpha 90.000000
_cell_angle_beta 90.000000
_cell_angle_gamma 90.000000
_cell_volume 3504.568397
_symmetry_space_group_name_H-M "A M A 2"
_symmetry_group_IT_number 40
_symmetry_cell_setting 'orthorhombic'
loop_
_space_group_symop_operation_xyz
x,y,z
-x,-y,z
1/2-x,y,z
1/2+x,-y,z
x,1/2+y,1/2+z
-x,1/2-y,1/2+z
1/2-x,1/2+y,1/2+z
1/2+x,1/2-y,1/2+z
loop_
_atom_site_type_symbol
_atom_site_label
_atom_site_fract_x
_atom_site_fract_y
_atom_site_fract_z
Si Si1 0.936786 0.455142 0.921830
Si Si2 0.561166 0.814681 0.474108
Si Si3 0.071572 0.602162 0.359770
Si Si4 0.572563 0.815960 0.724991
Si Si5 0.435245 0.774907 0.928139
Si Si6 0.936697 0.647542 0.559164
Si Si7 0.938157 0.955664 0.671807
Si Si8 0.563383 0.620968 0.802011
O O1 0.750000 0.456384 0.916794
O O2 0.000000 0.500000 0.904238
O O3 0.999111 0.422077 0.837928
O O4 0.982229 0.442194 0.047594
O O5 0.750000 0.817139 0.465692
O O6 0.517057 0.822203 0.601055
O O7 0.508609 0.769611 0.449373
O O8 0.490803 0.846666 0.391499
O O9 0.250000 0.591712 0.388281
O O10 0.075294 0.642041 0.286527
O O11 0.004303 0.569662 0.275910
O O12 0.982521 0.613922 0.470424
O O13 0.750000 0.800451 0.719109
O O14 0.475114 0.787470 0.803632
O O15 0.250000 0.774140 0.942276
O O16 0.495564 0.809965 0.009951
O O17 0.750000 0.650257 0.562927
O O18 0.991647 0.635735 0.681091
O O19 0.750000 0.954477 0.675309
O O20 0.000000 0.000000 0.682158
O O21 0.750000 0.618961 0.800425
#
# Coordination Sequence:
#
# PCOD9364095 Si02
#       8
#     8   8   8   8   8   8   8   8
#     4  10  20  37  60  85 117 149 182 226 278 331
#     4  10  21  35  54  78 107 142 179 223 276 329
#     4   9  17  32  53  76 101 134 175 214 258 318
#     4   9  18  33  53  74  99 134 173 215 266 320
#     4   9  19  35  53  75 104 139 178 223 275 326
#     4   9  20  37  54  74 105 144 182 225 274 324
#     4   9  18  32  53  82 111 138 170 214 268 322
#     4  11  23  37  56  82 111 146 190 232 276 330
#
# _framework density 18.261879
#
# number of rings (size 3 to 8) (size 9 to 14) (size 15 to 20)
#    0.000    2.500    0.000    1.500    1.750    5.000 
#    0.000    3.125    0.000    1.500    0.000    0.000 
#    0.000    0.000    0.000    0.000    0.000    0.000 
#
# Total GULP energy -178391.934137 kJ/mol
# GULP energy per Si atom -5574.747942 kJ/mol
# Density = 1.822031 g / cm^3
# Si number density = 18.261879 Si / 1000 Ang^3
#
#
#
# Elastic Constant Matrix: (Units=GPa)
#
#
# Indices 1 2 3 4 5 6 
#
# 1 15.8708 22.4161 23.1431 0.0000 0.0000 0.0000
# 2 22.4161 85.5816 67.9388 0.0000 0.0000 0.0000
# 3 23.1431 67.9388 152.0914 0.0000 0.0000 0.0000
# 4 0.0000 0.0000 0.0000 18.5428 0.0000 0.0000
# 5 0.0000 0.0000 0.0000 0.0000 22.7995 0.0000
# 6 0.0000 0.0000 0.0000 0.0000 0.0000 23.6956
#
#
#
# Elastic Compliance Matrix: (Units=1/GPa)
#
#
# Indices 1 2 3 4 5 6 
#
# 1 0.103008 -0.022525 -0.005612 0.000000 0.000000 0.000000
# 2 -0.022525 0.023031 -0.006860 0.000000 0.000000 0.000000
# 3 -0.005612 -0.006860 0.010493 0.000000 0.000000 0.000000
# 4 0.000000 0.000000 0.000000 0.053929 0.000000 0.000000
# 5 0.000000 0.000000 0.000000 0.000000 0.043861 0.000000
# 6 0.000000 0.000000 0.000000 0.000000 0.000000 0.042202
#
#
# Mechanical properties :
#
#
# Convention : Reuss Voigt Hill
#
# Bulk Modulus (GPa) = 15.02932 53.39333 34.21133
# Shear Modulus (GPa) = 13.56124 22.34397 17.95261
#
# Velocity S-wave (km/s) = 2.72802 3.50170 3.13879
# Velocity P-wave (km/s) = 4.26269 6.75649 5.64893
#
# Compressibility (1/GPa) = 0.06653659
#
# Stress axis : x y z
#
# Youngs Moduli (GPa) = 9.70800 43.42050 95.29782
#
# Poissons Ratio (x) = 0.97805 0.53485
# Poissons Ratio (y) = 0.21867 0.65376
# Poissons Ratio (z) = 0.05448 0.29787
#
# Static dielectric constant tensor:
#      x y z
#    x 1.638750 0.000000 0.000000 
#    y 0.000000 1.623080 0.000000 
#    z 0.000000 0.000000 1.628770 
# 
# From -- ./inp_files/10705.got.cif
#   From: 2010.05.17/outbox.cif.g08.bks.cpg/sg40_6_cif.got.tgz:10705.got - 2010.06.03 18:35:42.
