data_PCOD9364992
_publ_section_title
;
Structure prediction by ZEFSAII (Michael W. Deem and Ramdas Pophale) SiO2 
 PCOD9364992
Probable space group: A M A 2
;
_chemical_formula_sum "Si O2"
_cell_formula_units_Z 64
_cell_length_a 15.334575
_cell_length_b 18.013214
_cell_length_c 11.587709
_cell_angle_alpha 90.000000
_cell_angle_beta 90.000000
_cell_angle_gamma 90.000000
_cell_volume 3200.814699
_symmetry_space_group_name_H-M "A M A 2"
_symmetry_group_IT_number 40
_symmetry_cell_setting 'orthorhombic'
loop_
_space_group_symop_operation_xyz
x,y,z
-x,-y,z
1/2-x,y,z
1/2+x,-y,z
x,1/2+y,1/2+z
-x,1/2-y,1/2+z
1/2-x,1/2+y,1/2+z
1/2+x,1/2-y,1/2+z
loop_
_atom_site_type_symbol
_atom_site_label
_atom_site_fract_x
_atom_site_fract_y
_atom_site_fract_z
Si Si1 0.147253 0.366166 0.212520
Si Si2 0.650796 0.629423 0.769325
Si Si3 0.151039 0.200747 0.741884
Si Si4 0.079151 0.209858 0.484670
Si Si5 0.998982 0.637385 0.391879
Si Si6 0.943598 0.574599 0.990770
Si Si7 0.151093 0.693512 0.736914
Si Si8 0.007754 0.583633 0.632595
O O1 0.250000 0.374201 0.235657
O O2 0.130796 0.277295 0.192557
O O3 0.085241 0.387145 0.319110
O O4 0.117003 0.412410 0.101905
O O5 0.750000 0.610132 0.741722
O O6 0.647368 0.717058 0.798084
O O7 0.614669 0.582355 0.876256
O O8 0.585839 0.618088 0.663285
O O9 0.250000 0.172676 0.753410
O O10 0.127337 0.211121 0.607200
O O11 0.078110 0.151746 0.804133
O O12 0.142392 0.198067 0.375397
O O13 0.027097 0.284922 0.453843
O O14 0.011444 0.142489 0.487386
O O15 0.024219 0.584620 0.496493
O O16 0.000000 0.500000 0.995669
O O17 0.250000 0.674793 0.703270
O O18 0.081216 0.634209 0.692256
O O19 0.000000 0.500000 0.676915
#
# Coordination Sequence:
#
# PCOD9364992 Si02
#       8
#     8   8   8   8   8   8   8   8
#     4  10  22  42  69  96 122 164 218 269 323 383
#     4  11  23  40  63  93 125 165 213 264 318 383
#     4  11  22  39  67  97 125 163 216 275 325 375
#     4  11  20  40  65  93 127 158 213 265 317 377
#     4  11  22  40  66  90 127 169 213 265 318 378
#     4  12  23  39  64  92 129 172 208 261 330 382
#     4  10  22  40  68  97 126 163 214 273 321 377
#     4  12  25  42  61  90 129 173 213 254 318 387
#
# _framework density 19.994910999999998
#
# number of rings (size 3 to 8) (size 9 to 14) (size 15 to 20)
#    0.000    1.000    5.000    2.625    0.000    2.500 
#    0.000    1.875    0.000    0.000    0.000    0.000 
#    0.000    0.000    0.000    0.000    0.000    0.000 
#
# Total GULP energy -178823.148425 kJ/mol
# GULP energy per Si atom -5588.223388 kJ/mol
# Density = 1.994940 g / cm^3
# Si number density = 19.994911 Si / 1000 Ang^3
#
#
#
# Elastic Constant Matrix: (Units=GPa)
#
#
# Indices 1 2 3 4 5 6 
#
# 1 130.8721 24.6178 46.6512 0.0000 0.0000 0.0000
# 2 24.6178 30.4022 21.8268 0.0000 0.0000 0.0000
# 3 46.6512 21.8268 117.2850 0.0000 0.0000 0.0000
# 4 0.0000 0.0000 0.0000 -7.3989 0.0000 0.0000
# 5 0.0000 0.0000 0.0000 0.0000 1.9105 0.0000
# 6 0.0000 0.0000 0.0000 0.0000 0.0000 23.2350
#
#
#
# Elastic Compliance Matrix: (Units=1/GPa)
#
#
# Indices 1 2 3 4 5 6 
#
# 1 0.009739 -0.005892 -0.002777 0.000000 0.000000 0.000000
# 2 -0.005892 0.041530 -0.005385 0.000000 0.000000 0.000000
# 3 -0.002777 -0.005385 0.010633 0.000000 0.000000 0.000000
# 4 0.000000 0.000000 0.000000 -0.135155 0.000000 0.000000
# 5 0.000000 0.000000 0.000000 0.000000 0.523410 0.000000
# 6 0.000000 0.000000 0.000000 0.000000 0.000000 0.043039
#
#
# Mechanical properties :
#
#
# Convention : Reuss Voigt Hill
#
# Bulk Modulus (GPa) = 29.59208 51.63897 40.61553
# Shear Modulus (GPa) = 9.38844 15.91356 12.65100
#
# Velocity S-wave (km/s) = 2.16924 2.82420 2.51810
# Velocity P-wave (km/s) = 4.59414 6.04292 5.36763
#
# Compressibility (1/GPa) = 0.03379282
#
# Stress axis : x y z
#
# Youngs Moduli (GPa) = 102.67483 24.07913 94.04586
#
# Poissons Ratio (x) = 0.14188 0.26120
# Poissons Ratio (y) = 0.60501 0.50643
# Poissons Ratio (z) = 0.28517 0.12966
#
# Static dielectric constant tensor:
#      x y z
#    x 1.677970 0.000000 0.000000 
#    y 0.000000 1.737490 0.000000 
#    z 0.000000 0.000000 1.719730 
# 
# From -- ./inp_files/12470.got.cif
#   From: 2010.05.17/outbox.cif.g08.bks.cpg/sg40_7_cif.got.tgz:12470.got - 2010.06.03 18:35:42.
