data_PCOD9364903
_publ_section_title
;
Structure prediction by ZEFSAII (Michael W. Deem and Ramdas Pophale) SiO2 
 PCOD9364903
Probable space group: A M A 2
;
_chemical_formula_sum "Si O2"
_cell_formula_units_Z 40
_cell_length_a 19.746456
_cell_length_b 19.508879
_cell_length_c 5.117594
_cell_angle_alpha 90.000000
_cell_angle_beta 90.000000
_cell_angle_gamma 90.000000
_cell_volume 1971.456984
_symmetry_space_group_name_H-M "A M A 2"
_symmetry_group_IT_number 40
_symmetry_cell_setting 'orthorhombic'
loop_
_space_group_symop_operation_xyz
x,y,z
-x,-y,z
1/2-x,y,z
1/2+x,-y,z
x,1/2+y,1/2+z
-x,1/2-y,1/2+z
1/2-x,1/2+y,1/2+z
1/2+x,1/2-y,1/2+z
loop_
_atom_site_type_symbol
_atom_site_label
_atom_site_fract_x
_atom_site_fract_y
_atom_site_fract_z
Si Si1 0.605946 0.617967 0.941800
Si Si2 0.750000 0.577109 0.823531
Si Si3 0.100761 0.025236 0.729860
Si Si4 0.750000 0.986406 0.825029
Si Si5 0.460378 0.095009 0.221114
Si Si6 0.953923 0.255732 0.595032
O O1 0.677905 0.614131 0.795280
O O2 0.540768 0.607478 0.754303
O O3 0.601774 0.554805 0.147361
O O4 0.596535 0.691991 0.072914
O O5 0.750000 0.514657 0.619219
O O6 0.750000 0.549393 0.119824
O O7 0.178515 0.049006 0.769319
O O8 0.066134 0.064026 0.490432
O O9 0.061142 0.044748 0.990333
O O10 0.427456 0.169404 0.169895
O O11 0.991275 0.263203 0.316775
#
# Coordination Sequence:
#
# PCOD9364903 Si02
#       6
#     8   4   8   4   8   8
#     4  10  23  40  62  89 120 157 205 245 296 356
#     4  10  22  38  60  86 118 160 199 248 291 352
#     4  11  23  39  62  89 118 157 202 251 293 356
#     4  10  22  40  56  86 126 158 193 246 315 348
#     4  11  23  38  61  93 121 153 198 251 303 351
#     4  10  22  39  59  84 121 156 188 244 306 354
#
# _framework density 20.289562
#
# number of rings (size 3 to 8) (size 9 to 14) (size 15 to 20)
#    0.000    1.600    0.000    5.400    0.000   19.200 
#    0.000    2.000    0.000    0.000    0.000    1.400 
#    0.000    0.000    0.000    0.000    0.000    0.000 
#
# Total GULP energy -111729.940014 kJ/mol
# GULP energy per Si atom -5586.497001 kJ/mol
# Density = 2.024338 g / cm^3
# Si number density = 20.289562 Si / 1000 Ang^3
#
#
#
# Elastic Constant Matrix: (Units=GPa)
#
#
# Indices 1 2 3 4 5 6 
#
# 1 162.9135 38.8893 45.7124 0.0000 0.0000 0.0000
# 2 38.8893 72.2434 2.9353 0.0000 0.0000 0.0000
# 3 45.7124 2.9353 56.0826 0.0000 0.0000 0.0000
# 4 0.0000 0.0000 0.0000 9.3280 0.0000 0.0000
# 5 0.0000 0.0000 0.0000 0.0000 18.5991 0.0000
# 6 0.0000 0.0000 0.0000 0.0000 0.0000 12.0101
#
#
#
# Elastic Compliance Matrix: (Units=1/GPa)
#
#
# Indices 1 2 3 4 5 6 
#
# 1 0.009330 -0.004724 -0.007358 0.000000 0.000000 0.000000
# 2 -0.004724 0.016263 0.002999 0.000000 0.000000 0.000000
# 3 -0.007358 0.002999 0.023671 0.000000 0.000000 0.000000
# 4 0.000000 0.000000 0.000000 0.107204 0.000000 0.000000
# 5 0.000000 0.000000 0.000000 0.000000 0.053766 0.000000
# 6 0.000000 0.000000 0.000000 0.000000 0.000000 0.083263
#
#
# Mechanical properties :
#
#
# Convention : Reuss Voigt Hill
#
# Bulk Modulus (GPa) = 32.15476 51.81263 41.98369
# Shear Modulus (GPa) = 15.52650 21.56759 18.54704
#
# Velocity S-wave (km/s) = 2.76931 3.26389 3.02672
# Velocity P-wave (km/s) = 5.10958 6.30841 5.74037
#
# Compressibility (1/GPa) = 0.03109959
#
# Stress axis : x y z
#
# Youngs Moduli (GPa) = 107.17663 61.48911 42.24538
#
# Poissons Ratio (x) = 0.29046 0.31084
# Poissons Ratio (y) = 0.50627 -0.12670
# Poissons Ratio (z) = 0.78859 -0.18441
#
# Static dielectric constant tensor:
#      x y z
#    x 1.768600 0.000000 0.000000 
#    y 0.000000 1.742660 0.000000 
#    z 0.000000 0.000000 1.710160 
# 
# From -- ./inp_files/1763.got.cif
#   From: 2010.05.17/outbox.cif.g08.bks.cpg/sg40_1_cif.got.tgz:1763.got - 2010.06.03 18:35:42.
