data_PCOD9364677
_publ_section_title
;
Structure prediction by ZEFSAII (Michael W. Deem and Ramdas Pophale) SiO2 
 PCOD9364677
Probable space group: A M A 2
;
_chemical_formula_sum "Si O2"
_cell_formula_units_Z 60
_cell_length_a 8.755281
_cell_length_b 27.166441
_cell_length_c 12.546084
_cell_angle_alpha 90.000000
_cell_angle_beta 90.000000
_cell_angle_gamma 90.000000
_cell_volume 2984.083880
_symmetry_space_group_name_H-M "A M A 2"
_symmetry_group_IT_number 40
_symmetry_cell_setting 'orthorhombic'
loop_
_space_group_symop_operation_xyz
x,y,z
-x,-y,z
1/2-x,y,z
1/2+x,-y,z
x,1/2+y,1/2+z
-x,1/2-y,1/2+z
1/2-x,1/2+y,1/2+z
1/2+x,1/2-y,1/2+z
loop_
_atom_site_type_symbol
_atom_site_label
_atom_site_fract_x
_atom_site_fract_y
_atom_site_fract_z
Si Si1 0.932798 0.384291 0.234250
Si Si2 0.000000 0.000000 0.341495
Si Si3 0.568380 0.782895 0.628100
Si Si4 0.074083 0.184983 0.209600
Si Si5 0.077655 0.583153 0.000992
Si Si6 0.565209 0.947828 0.931839
Si Si7 0.424256 0.823468 0.420899
Si Si8 0.073059 0.920240 0.160151
O O1 0.750000 0.385315 0.243697
O O2 0.973213 0.327317 0.210463
O O3 0.988889 0.407469 0.344838
O O4 0.966253 0.416685 0.126944
O O5 0.915245 0.965233 0.428113
O O6 0.064984 0.959961 0.256604
O O7 0.750000 0.787248 0.607840
O O8 0.527928 0.727838 0.660290
O O9 0.464062 0.794786 0.527195
O O10 0.250000 0.189539 0.177917
O O11 0.047784 0.192074 0.334673
O O12 0.014257 0.130087 0.187595
O O13 0.250000 0.604944 0.998196
O O14 0.956733 0.619596 0.947351
O O15 0.750000 0.948732 0.936589
O O16 0.500000 0.000000 0.894116
O O17 0.501342 0.939474 0.050635
O O18 0.250000 0.816240 0.385026
O O19 0.250000 0.909293 0.141401
#
# Coordination Sequence:
#
# PCOD9364677 Si02
#       8
#     8   4   8   8   8   8   8   8
#     4   8  19  40  65  93 126 165 210 262 319 379
#     4  12  24  36  68  94 132 164 218 260 330 380
#     4  10  21  42  68  93 126 166 212 269 328 384
#     4  12  25  42  65  94 129 168 213 266 327 391
#     4  10  21  39  63  92 127 166 211 265 324 381
#     4  11  23  41  64  91 129 172 216 266 320 381
#     4  11  22  39  62  92 128 165 210 261 318 384
#     4  12  26  43  63  93 130 170 220 270 323 388
#
# _framework density 20.106674000000002
#
# number of rings (size 3 to 8) (size 9 to 14) (size 15 to 20)
#    0.000    1.333    2.000    4.800    0.933    2.667 
#    0.000   10.667    0.000    0.000    0.000    0.000 
#    0.000    0.000    0.000    0.000    0.000    0.000 
#
# Total GULP energy -167195.366383 kJ/mol
# GULP energy per Si atom -5573.178879 kJ/mol
# Density = 2.006091 g / cm^3
# Si number density = 20.106674 Si / 1000 Ang^3
#
#
#
# Elastic Constant Matrix: (Units=GPa)
#
#
# Indices 1 2 3 4 5 6 
#
# 1 75.3277 12.2677 6.8383 0.0000 0.0000 0.0000
# 2 12.2677 94.1505 30.7970 0.0000 0.0000 0.0000
# 3 6.8383 30.7970 58.8814 0.0000 0.0000 0.0000
# 4 0.0000 0.0000 0.0000 23.5772 0.0000 0.0000
# 5 0.0000 0.0000 0.0000 0.0000 18.2490 0.0000
# 6 0.0000 0.0000 0.0000 0.0000 0.0000 21.2605
#
#
#
# Elastic Compliance Matrix: (Units=1/GPa)
#
#
# Indices 1 2 3 4 5 6 
#
# 1 0.013593 -0.001514 -0.000787 0.000000 0.000000 0.000000
# 2 -0.001514 0.012982 -0.006614 0.000000 0.000000 0.000000
# 3 -0.000787 -0.006614 0.020534 0.000000 0.000000 0.000000
# 4 0.000000 0.000000 0.000000 0.042414 0.000000 0.000000
# 5 0.000000 0.000000 0.000000 0.000000 0.054798 0.000000
# 6 0.000000 0.000000 0.000000 0.000000 0.000000 0.047036
#
#
# Mechanical properties :
#
#
# Convention : Reuss Voigt Hill
#
# Bulk Modulus (GPa) = 34.15346 36.46284 35.30815
# Shear Modulus (GPa) = 22.83664 24.51445 23.67555
#
# Velocity S-wave (km/s) = 3.37378 3.49552 3.43519
# Velocity P-wave (km/s) = 5.67446 5.87074 5.77344
#
# Compressibility (1/GPa) = 0.02927961
#
# Stress axis : x y z
#
# Youngs Moduli (GPa) = 73.56571 77.02911 48.69924
#
# Poissons Ratio (x) = 0.11661 0.03832
# Poissons Ratio (y) = 0.11136 0.32211
# Poissons Ratio (z) = 0.05789 0.50949
#
# Static dielectric constant tensor:
#      x y z
#    x 1.715910 0.000000 0.000000 
#    y 0.000000 1.750370 0.000000 
#    z 0.000000 0.000000 1.745010 
# 
# From -- ./inp_files/10444.got.cif
#   From: 2010.05.17/outbox.cif.g08.bks.cpg/sg40_6_cif.got.tgz:10444.got - 2010.06.03 18:35:42.
