data_PCOD9364114
_publ_section_title
;
Structure prediction by ZEFSAII (Michael W. Deem and Ramdas Pophale) SiO2 
 PCOD9364114
Probable space group: A M A 2
;
_chemical_formula_sum "Si O2"
_cell_formula_units_Z 64
_cell_length_a 16.983917
_cell_length_b 18.143140
_cell_length_c 10.053228
_cell_angle_alpha 90.000000
_cell_angle_beta 90.000000
_cell_angle_gamma 90.000000
_cell_volume 3097.817599
_symmetry_space_group_name_H-M "A M A 2"
_symmetry_group_IT_number 40
_symmetry_cell_setting 'orthorhombic'
loop_
_space_group_symop_operation_xyz
x,y,z
-x,-y,z
1/2-x,y,z
1/2+x,-y,z
x,1/2+y,1/2+z
-x,1/2-y,1/2+z
1/2-x,1/2+y,1/2+z
1/2+x,1/2-y,1/2+z
loop_
_atom_site_type_symbol
_atom_site_label
_atom_site_fract_x
_atom_site_fract_y
_atom_site_fract_z
Si Si1 0.410990 0.014808 0.320450
Si Si2 0.845909 0.992299 0.748432
Si Si3 0.160239 0.008652 0.051491
Si Si4 0.659056 0.593364 0.012778
Si Si5 0.930864 0.732421 0.888931
Si Si6 0.390755 0.687644 0.867606
Si Si7 0.834517 0.815168 0.088921
Si Si8 0.657442 0.825120 0.668750
O O1 0.395610 0.984576 0.171705
O O2 0.399927 0.101335 0.334913
O O3 0.500000 0.000000 0.363341
O O4 0.347999 0.975719 0.413885
O O5 0.750000 0.992140 0.744307
O O6 0.869512 0.909916 0.699538
O O7 0.871718 0.058621 0.651581
O O8 0.868511 0.004682 0.901855
O O9 0.250000 0.979342 0.066106
O O10 0.166296 0.096842 0.072662
O O11 0.750000 0.615806 0.027829
O O12 0.607682 0.656542 0.943040
O O13 0.889572 0.767078 0.759283
O O14 0.023019 0.722862 0.868172
O O15 0.908602 0.787812 0.007026
O O16 0.341736 0.713505 0.739635
O O17 0.353960 0.693041 0.013443
O O18 0.750000 0.789492 0.032887
O O19 0.750000 0.821664 0.702015
#
# Coordination Sequence:
#
# PCOD9364114 Si02
#       8
#     8   8   8   8   8   8   8   8
#     4  11  21  38  56  85 123 161 200 246 304 367
#     4   9  18  35  60  88 111 148 209 258 290 350
#     4   9  18  35  61  85 108 149 207 256 291 354
#     4  11  22  37  61  89 122 161 202 249 310 371
#     4  12  23  39  59  91 128 162 193 255 330 373
#     4  11  23  38  61  88 123 160 205 255 311 370
#     4  10  20  37  61  87 116 156 208 256 305 364
#     4  11  21  38  63  89 118 158 214 259 298 367
#
# _framework density 20.659706
#
# number of rings (size 3 to 8) (size 9 to 14) (size 15 to 20)
#    0.000    1.500    3.750    2.625    0.000    1.000 
#    0.000    3.125    0.000    1.500    0.000    0.000 
#    0.000    0.000    0.000    0.000    0.000    0.000 
#
# Total GULP energy -178555.454988 kJ/mol
# GULP energy per Si atom -5579.857968 kJ/mol
# Density = 2.061268 g / cm^3
# Si number density = 20.659706 Si / 1000 Ang^3
#
#
#
# Elastic Constant Matrix: (Units=GPa)
#
#
# Indices 1 2 3 4 5 6 
#
# 1 52.4692 9.6274 4.1707 0.0000 0.0000 0.0000
# 2 9.6274 23.3920 -1.2632 0.0000 0.0000 0.0000
# 3 4.1707 -1.2632 131.6761 0.0000 0.0000 0.0000
# 4 0.0000 0.0000 0.0000 28.7915 0.0000 0.0000
# 5 0.0000 0.0000 0.0000 0.0000 17.2682 0.0000
# 6 0.0000 0.0000 0.0000 0.0000 0.0000 -2.1128
#
#
#
# Elastic Compliance Matrix: (Units=1/GPa)
#
#
# Indices 1 2 3 4 5 6 
#
# 1 0.020687 -0.008554 -0.000737 0.000000 0.000000 0.000000
# 2 -0.008554 0.046309 0.000715 0.000000 0.000000 0.000000
# 3 -0.000737 0.000715 0.007625 0.000000 0.000000 0.000000
# 4 0.000000 0.000000 0.000000 0.034732 0.000000 0.000000
# 5 0.000000 0.000000 0.000000 0.000000 0.057910 0.000000
# 6 0.000000 0.000000 0.000000 0.000000 0.000000 -0.473308
#
#
# Mechanical properties :
#
#
# Convention : Reuss Voigt Hill
#
# Bulk Modulus (GPa) = 17.40090 25.84523 21.62307
# Shear Modulus (GPa) = -18.53653 21.78955 1.62651
#
# Velocity S-wave (km/s) = -2.99863 3.25112 0.88825
# Velocity P-wave (km/s) = 1.88365 5.16044 3.39721
#
# Compressibility (1/GPa) = 0.05746829
#
# Stress axis : x y z
#
# Youngs Moduli (GPa) = 48.33975 21.59421 131.15426
#
# Poissons Ratio (x) = 0.18471 0.09670
# Poissons Ratio (y) = 0.41349 -0.09380
# Poissons Ratio (z) = 0.03564 -0.01544
#
# Static dielectric constant tensor:
#      x y z
#    x 1.747120 0.000000 0.000000 
#    y 0.000000 1.769530 0.000000 
#    z 0.000000 0.000000 1.775020 
# 
# From -- ./inp_files/7816.got.cif
#   From: 2010.05.17/outbox.cif.g08.bks.cpg/sg40_4_cif.got.tgz:7816.got - 2010.06.03 18:35:42.
