data_PCOD9364094
_publ_section_title
;
Structure prediction by ZEFSAII (Michael W. Deem and Ramdas Pophale) SiO2 
 PCOD9364094
Probable space group: A M A 2
;
_chemical_formula_sum "Si O2"
_cell_formula_units_Z 48
_cell_length_a 8.676523
_cell_length_b 15.493581
_cell_length_c 18.571269
_cell_angle_alpha 90.000000
_cell_angle_beta 90.000000
_cell_angle_gamma 90.000000
_cell_volume 2496.543341
_symmetry_space_group_name_H-M "A M A 2"
_symmetry_group_IT_number 40
_symmetry_cell_setting 'orthorhombic'
loop_
_space_group_symop_operation_xyz
x,y,z
-x,-y,z
1/2-x,y,z
1/2+x,-y,z
x,1/2+y,1/2+z
-x,1/2-y,1/2+z
1/2-x,1/2+y,1/2+z
1/2+x,1/2-y,1/2+z
loop_
_atom_site_type_symbol
_atom_site_label
_atom_site_fract_x
_atom_site_fract_y
_atom_site_fract_z
Si Si1 0.065755 0.235976 0.378230
Si Si2 0.064391 0.092098 0.659750
Si Si3 0.064100 0.771999 0.226237
Si Si4 0.566489 0.406346 0.441638
Si Si5 0.935088 0.093449 0.100799
Si Si6 0.564176 0.907281 0.492913
O O1 0.250000 0.244169 0.381970
O O2 0.014716 0.169803 0.440755
O O3 0.014326 0.201999 0.300566
O O4 0.990507 0.329022 0.391657
O O5 0.250000 0.088531 0.661104
O O6 0.015781 0.174756 0.705494
O O7 0.016580 0.105824 0.576173
O O8 0.000000 0.000000 0.684133
O O9 0.250000 0.773259 0.234607
O O10 0.025934 0.835157 0.160147
O O11 0.500000 0.500000 0.420911
O O12 0.750000 0.410895 0.442344
O O13 0.504788 0.387177 0.522343
O O14 0.750000 0.089490 0.093731
O O15 0.000000 0.000000 0.122557
O O16 0.750000 0.910262 0.491610
O O17 0.500000 0.000000 0.469381
#
# Coordination Sequence:
#
# PCOD9364094 Si02
#       6
#     8   8   8   8   8   8
#     4  11  23  38  56  81 115 151 187 229 279 334
#     4   9  18  35  57  79 104 136 176 221 269 319
#     4  10  22  38  55  78 113 152 185 223 275 333
#     4  11  22  38  61  86 112 144 187 235 284 339
#     4  10  20  37  60  84 112 146 187 234 282 333
#     4   9  19  36  58  82 108 141 181 226 274 324
#
# _framework density 19.226585
#
# number of rings (size 3 to 8) (size 9 to 14) (size 15 to 20)
#    0.000    2.000    0.000    4.500    0.000    7.333 
#    0.000    8.333    0.000    0.000    0.000    0.000 
#    0.000    0.000    0.000    0.000    0.000    0.000 
#
# Total GULP energy -134083.648058 kJ/mol
# GULP energy per Si atom -5586.818669 kJ/mol
# Density = 1.918282 g / cm^3
# Si number density = 19.226585 Si / 1000 Ang^3
#
#
#
# Elastic Constant Matrix: (Units=GPa)
#
#
# Indices 1 2 3 4 5 6 
#
# 1 47.0511 13.5219 9.3088 0.0000 0.0000 0.0000
# 2 13.5219 53.0684 12.0343 0.0000 0.0000 0.0000
# 3 9.3088 12.0343 20.0919 0.0000 0.0000 0.0000
# 4 0.0000 0.0000 0.0000 -14.2671 0.0000 0.0000
# 5 0.0000 0.0000 0.0000 0.0000 30.4504 0.0000
# 6 0.0000 0.0000 0.0000 0.0000 0.0000 7.6458
#
#
#
# Elastic Compliance Matrix: (Units=1/GPa)
#
#
# Indices 1 2 3 4 5 6 
#
# 1 0.024177 -0.004189 -0.008692 0.000000 0.000000 0.000000
# 2 -0.004189 0.022531 -0.011554 0.000000 0.000000 0.000000
# 3 -0.008692 -0.011554 0.060719 0.000000 0.000000 0.000000
# 4 0.000000 0.000000 0.000000 -0.070091 0.000000 0.000000
# 5 0.000000 0.000000 0.000000 0.000000 0.032840 0.000000
# 6 0.000000 0.000000 0.000000 0.000000 0.000000 0.130791
#
#
# Mechanical properties :
#
#
# Convention : Reuss Voigt Hill
#
# Bulk Modulus (GPa) = 17.07782 21.10461 19.09121
# Shear Modulus (GPa) = 18.56267 10.45558 14.50912
#
# Velocity S-wave (km/s) = 3.11057 2.33450 2.75005
# Velocity P-wave (km/s) = 4.66932 4.27401 4.47603
#
# Compressibility (1/GPa) = 0.05855550
#
# Stress axis : x y z
#
# Youngs Moduli (GPa) = 41.36143 44.38284 16.46927
#
# Poissons Ratio (x) = 0.18593 0.14316
# Poissons Ratio (y) = 0.17327 0.19029
# Poissons Ratio (z) = 0.35953 0.51282
#
# Static dielectric constant tensor:
#      x y z
#    x 1.648770 0.000000 0.000000 
#    y 0.000000 1.657960 0.000000 
#    z 0.000000 0.000000 1.659920 
# 
# From -- ./inp_files/15059.got.cif
#   From: 2010.05.17/outbox.cif.g08.bks.cpg/sg40_8_cif.got.tgz:15059.got - 2010.06.03 18:35:42.
