data_PCOD9364811
_publ_section_title
;
Structure prediction by ZEFSAII (Michael W. Deem and Ramdas Pophale) SiO2 
 PCOD9364811
Probable space group: A M A 2
;
_chemical_formula_sum "Si O2"
_cell_formula_units_Z 56
_cell_length_a 14.935523
_cell_length_b 5.573107
_cell_length_c 31.063645
_cell_angle_alpha 90.000000
_cell_angle_beta 90.000000
_cell_angle_gamma 90.000000
_cell_volume 2585.652937
_symmetry_space_group_name_H-M "A M A 2"
_symmetry_group_IT_number 40
_symmetry_cell_setting 'orthorhombic'
loop_
_space_group_symop_operation_xyz
x,y,z
-x,-y,z
1/2-x,y,z
1/2+x,-y,z
x,1/2+y,1/2+z
-x,1/2-y,1/2+z
1/2-x,1/2+y,1/2+z
1/2+x,1/2-y,1/2+z
loop_
_atom_site_type_symbol
_atom_site_label
_atom_site_fract_x
_atom_site_fract_y
_atom_site_fract_z
Si Si1 0.500000 0.000000 0.851440
Si Si2 0.152835 0.667284 0.830647
Si Si3 0.651867 0.289134 0.673518
Si Si4 0.443189 0.247195 0.088595
Si Si5 0.849575 0.712870 0.902356
Si Si6 0.000000 0.500000 0.217576
Si Si7 0.444355 0.751468 0.489184
Si Si8 0.600551 0.608003 0.749319
O O1 0.436008 0.822094 0.825790
O O2 0.570474 0.857281 0.880382
O O3 0.250000 0.788225 0.826314
O O4 0.147491 0.542586 0.877580
O O5 0.148310 0.471436 0.792576
O O6 0.750000 0.179276 0.682513
O O7 0.637272 0.291097 0.622393
O O8 0.646852 0.521144 0.705077
O O9 0.558766 0.166900 0.687279
O O10 0.500000 0.500000 0.094863
O O11 0.500000 0.000000 0.094200
O O12 0.413353 0.249849 0.038727
O O13 0.750000 0.808851 0.893890
O O14 0.868983 0.723257 0.952830
O O15 0.078600 0.614971 0.245626
O O16 0.500000 0.500000 0.482551
O O17 0.500000 0.000000 0.483798
O O18 0.500000 0.500000 0.750332
#
# Coordination Sequence:
#
# PCOD9364811 Si02
#       8
#     4   8   8   8   8   4   8   8
#     4  12  22  43  66  88 130 176 216 270 337 396
#     4  11  25  42  64  97 131 169 224 277 330 401
#     4  11  23  38  63  97 132 175 223 275 334 401
#     4  10  21  41  67  96 136 178 225 280 343 415
#     4  11  24  40  64  96 130 172 222 275 334 407
#     4  10  22  43  66  90 128 174 218 274 335 400
#     4  10  21  41  68  98 133 179 222 279 349 411
#     4  10  22  41  63  89 126 169 217 271 329 392
#
# _framework density 21.657972999999998
#
# number of rings (size 3 to 8) (size 9 to 14) (size 15 to 20)
#    0.000    1.429    1.429    4.286    0.000    6.857 
#    0.000    1.429    0.000    6.000    0.000    0.000 
#    0.000    0.000    0.000    0.000    0.000    0.000 
#
# Total GULP energy -155992.779461 kJ/mol
# GULP energy per Si atom -5571.170695 kJ/mol
# Density = 2.160868 g / cm^3
# Si number density = 21.657973 Si / 1000 Ang^3
#
#
#
# Elastic Constant Matrix: (Units=GPa)
#
#
# Indices 1 2 3 4 5 6 
#
# 1 140.2354 32.2112 47.8347 0.0000 0.0000 0.0000
# 2 32.2112 72.1128 38.3669 0.0000 0.0000 0.0000
# 3 47.8347 38.3669 130.2763 0.0000 0.0000 0.0000
# 4 0.0000 0.0000 0.0000 19.3399 0.0000 0.0000
# 5 0.0000 0.0000 0.0000 0.0000 189.4708 0.0000
# 6 0.0000 0.0000 0.0000 0.0000 0.0000 49.7164
#
#
#
# Elastic Compliance Matrix: (Units=1/GPa)
#
#
# Indices 1 2 3 4 5 6 
#
# 1 0.008527 -0.002541 -0.002383 0.000000 0.000000 0.000000
# 2 -0.002541 0.017201 -0.004133 0.000000 0.000000 0.000000
# 3 -0.002383 -0.004133 0.009768 0.000000 0.000000 0.000000
# 4 0.000000 0.000000 0.000000 0.051707 0.000000 0.000000
# 5 0.000000 0.000000 0.000000 0.000000 0.005278 0.000000
# 6 0.000000 0.000000 0.000000 0.000000 0.000000 0.020114
#
#
# Mechanical properties :
#
#
# Convention : Reuss Voigt Hill
#
# Bulk Modulus (GPa) = 57.52713 64.38334 60.95524
# Shear Modulus (GPa) = 36.62941 66.65288 51.64114
#
# Velocity S-wave (km/s) = 4.11696 5.55356 4.88832
# Velocity P-wave (km/s) = 7.01559 8.42108 7.75026
#
# Compressibility (1/GPa) = 0.01738310
#
# Stress axis : x y z
#
# Youngs Moduli (GPa) = 117.27035 58.13592 102.37586
#
# Poissons Ratio (x) = 0.14774 0.24392
# Poissons Ratio (y) = 0.29802 0.42309
# Poissons Ratio (z) = 0.27941 0.24026
#
# Static dielectric constant tensor:
#      x y z
#    x 1.811660 0.000000 0.000000 
#    y 0.000000 2.000650 0.000000 
#    z 0.000000 0.000000 1.829890 
# 
# From -- ./inp_files/26645.got.cif
#   From: 2010.05.17/outbox.cif.g08.bks.cpg/sg40_14_cif.got.tgz:26645.got - 2010.06.03 18:35:42.
