data_PCOD9364632
_publ_section_title
;
Structure prediction by ZEFSAII (Michael W. Deem and Ramdas Pophale) SiO2 
 PCOD9364632
Probable space group: A M A 2
;
_chemical_formula_sum "Si O2"
_cell_formula_units_Z 48
_cell_length_a 17.071320
_cell_length_b 26.349081
_cell_length_c 5.093273
_cell_angle_alpha 90.000000
_cell_angle_beta 90.000000
_cell_angle_gamma 90.000000
_cell_volume 2291.023431
_symmetry_space_group_name_H-M "A M A 2"
_symmetry_group_IT_number 40
_symmetry_cell_setting 'orthorhombic'
loop_
_space_group_symop_operation_xyz
x,y,z
-x,-y,z
1/2-x,y,z
1/2+x,-y,z
x,1/2+y,1/2+z
-x,1/2-y,1/2+z
1/2-x,1/2+y,1/2+z
1/2+x,1/2-y,1/2+z
loop_
_atom_site_type_symbol
_atom_site_label
_atom_site_fract_x
_atom_site_fract_y
_atom_site_fract_z
Si Si1 0.464483 0.368687 0.589220
Si Si2 0.026748 0.778996 0.422994
Si Si3 0.661713 0.674740 0.225700
Si Si4 0.160902 0.038068 0.312539
Si Si5 0.666919 0.577609 0.871497
Si Si6 0.558778 0.451008 0.292828
O O1 0.504842 0.331825 0.799437
O O2 0.398393 0.332192 0.462324
O O3 0.412659 0.411896 0.723138
O O4 0.515756 0.399542 0.385418
O O5 0.982836 0.761182 0.687388
O O6 0.115701 0.790235 0.517671
O O7 0.750000 0.691318 0.285425
O O8 0.666035 0.617941 0.104995
O O9 0.250000 0.058202 0.299012
O O10 0.167147 0.981194 0.431789
O O11 0.101901 0.062081 0.521039
O O12 0.121019 0.036642 0.025967
O O13 0.750000 0.587898 0.724256
O O14 0.500000 0.500000 0.266196
#
# Coordination Sequence:
#
# PCOD9364632 Si02
#       6
#     8   8   8   8   8   8
#     4  11  22  37  66  96 131 165 209 270 322 385
#     4  11  23  43  66  94 127 165 209 256 326 393
#     4  10  21  38  66  99 131 160 203 267 343 395
#     4  11  24  41  59  85 132 183 222 264 313 373
#     4   9  19  34  55  90 130 168 206 258 325 381
#     4  12  24  38  64  95 131 168 227 263 318 378
#
# _framework density 20.951333999999999
#
# number of rings (size 3 to 8) (size 9 to 14) (size 15 to 20)
#    0.000    1.333    3.333    2.500    4.667    0.667 
#    0.000    0.000    0.000    6.000    0.000    0.000 
#    0.000    0.000    0.000    0.000    0.000    0.000 
#
# Total GULP energy -133842.245957 kJ/mol
# GULP energy per Si atom -5576.760248 kJ/mol
# Density = 2.090365 g / cm^3
# Si number density = 20.951334 Si / 1000 Ang^3
#
#
#
# Elastic Constant Matrix: (Units=GPa)
#
#
# Indices 1 2 3 4 5 6 
#
# 1 76.1389 18.0760 21.0532 0.0000 0.0000 0.0000
# 2 18.0760 51.0247 3.5130 0.0000 0.0000 0.0000
# 3 21.0532 3.5130 72.0176 0.0000 0.0000 0.0000
# 4 0.0000 0.0000 0.0000 27.6692 0.0000 0.0000
# 5 0.0000 0.0000 0.0000 0.0000 24.0617 0.0000
# 6 0.0000 0.0000 0.0000 0.0000 0.0000 18.1222
#
#
#
# Elastic Compliance Matrix: (Units=1/GPa)
#
#
# Indices 1 2 3 4 5 6 
#
# 1 0.015560 -0.005217 -0.004294 0.000000 0.000000 0.000000
# 2 -0.005217 0.021413 0.000480 0.000000 0.000000 0.000000
# 3 -0.004294 0.000480 0.015117 0.000000 0.000000 0.000000
# 4 0.000000 0.000000 0.000000 0.036141 0.000000 0.000000
# 5 0.000000 0.000000 0.000000 0.000000 0.041560 0.000000
# 6 0.000000 0.000000 0.000000 0.000000 0.000000 0.055181
#
#
# Mechanical properties :
#
#
# Convention : Reuss Voigt Hill
#
# Bulk Modulus (GPa) = 29.38595 31.60728 30.49661
# Shear Modulus (GPa) = 23.32350 24.40658 23.86504
#
# Velocity S-wave (km/s) = 3.34012 3.41679 3.37867
# Velocity P-wave (km/s) = 5.37880 5.53938 5.45968
#
# Compressibility (1/GPa) = 0.03402987
#
# Stress axis : x y z
#
# Youngs Moduli (GPa) = 64.26848 46.69995 66.14901
#
# Poissons Ratio (x) = 0.24361 0.28406
# Poissons Ratio (y) = 0.33526 -0.03178
# Poissons Ratio (z) = 0.27598 -0.02244
#
# Static dielectric constant tensor:
#      x y z
#    x 1.824000 0.000000 0.000000 
#    y 0.000000 1.813400 0.000000 
#    z 0.000000 0.000000 1.828450 
# 
# From -- ./inp_files/1422.got.cif
#   From: 2010.05.17/outbox.cif.g08.bks.cpg/sg40_1_cif.got.tgz:1422.got - 2010.06.03 18:35:42.
