data_PCOD9364857
_publ_section_title
;
Structure prediction by ZEFSAII (Michael W. Deem and Ramdas Pophale) SiO2 
 PCOD9364857
Probable space group: A M A 2
;
_chemical_formula_sum "Si O2"
_cell_formula_units_Z 40
_cell_length_a 17.833068
_cell_length_b 10.246589
_cell_length_c 10.473722
_cell_angle_alpha 90.000000
_cell_angle_beta 90.000000
_cell_angle_gamma 90.000000
_cell_volume 1913.843514
_symmetry_space_group_name_H-M "A M A 2"
_symmetry_group_IT_number 40
_symmetry_cell_setting 'orthorhombic'
loop_
_space_group_symop_operation_xyz
x,y,z
-x,-y,z
1/2-x,y,z
1/2+x,-y,z
x,1/2+y,1/2+z
-x,1/2-y,1/2+z
1/2-x,1/2+y,1/2+z
1/2+x,1/2-y,1/2+z
loop_
_atom_site_type_symbol
_atom_site_label
_atom_site_fract_x
_atom_site_fract_y
_atom_site_fract_z
Si Si1 0.019843 0.348325 0.117190
Si Si2 0.338111 0.507937 0.471941
Si Si3 0.337129 0.781432 0.767728
Si Si4 0.338905 0.482546 0.768496
Si Si5 0.435119 0.747262 0.367268
O O1 0.106666 0.325000 0.156459
O O2 0.000000 0.500000 0.108009
O O3 0.974393 0.287812 0.234709
O O4 0.008114 0.278325 0.982306
O O5 0.250000 0.544278 0.472567
O O6 0.346685 0.381142 0.383926
O O7 0.359318 0.479043 0.618015
O O8 0.385754 0.624613 0.412097
O O9 0.250000 0.785901 0.725709
O O10 0.352631 0.632363 0.807660
O O11 0.250000 0.455552 0.780328
O O12 0.385771 0.376363 0.844624
#
# Coordination Sequence:
#
# PCOD9364857 Si02
#       5
#     8   8   8   8   8
#     4  12  28  44  67 102 137 183 230 279 345 405
#     4  10  21  43  72 100 133 178 225 278 340 406
#     4  10  22  45  70  96 134 174 222 279 337 403
#     4  10  23  43  71 104 133 175 230 284 340 401
#     4  12  27  43  70  97 144 179 231 280 341 408
#
# _framework density 20.900351000000001
#
# number of rings (size 3 to 8) (size 9 to 14) (size 15 to 20)
#    0.000    1.200    4.000    0.600    5.600    0.800 
#    0.000    0.000    0.000    0.000    0.000    0.000 
#    0.000    0.000    0.000    0.000    0.000    0.000 
#
# Total GULP energy -111919.287217 kJ/mol
# GULP energy per Si atom -5595.964361 kJ/mol
# Density = 2.085278 g / cm^3
# Si number density = 20.900351 Si / 1000 Ang^3
#
#
#
# Elastic Constant Matrix: (Units=GPa)
#
#
# Indices 1 2 3 4 5 6 
#
# 1 45.7005 12.1858 30.7992 0.0000 0.0000 0.0000
# 2 12.1858 77.5245 46.1777 0.0000 0.0000 0.0000
# 3 30.7992 46.1777 121.9611 0.0000 0.0000 0.0000
# 4 0.0000 0.0000 0.0000 38.2207 0.0000 0.0000
# 5 0.0000 0.0000 0.0000 0.0000 32.7631 0.0000
# 6 0.0000 0.0000 0.0000 0.0000 0.0000 17.3375
#
#
#
# Elastic Compliance Matrix: (Units=1/GPa)
#
#
# Indices 1 2 3 4 5 6 
#
# 1 0.026373 -0.000230 -0.006573 0.000000 0.000000 0.000000
# 2 -0.000230 0.016657 -0.006249 0.000000 0.000000 0.000000
# 3 -0.006573 -0.006249 0.012225 0.000000 0.000000 0.000000
# 4 0.000000 0.000000 0.000000 0.026164 0.000000 0.000000
# 5 0.000000 0.000000 0.000000 0.000000 0.030522 0.000000
# 6 0.000000 0.000000 0.000000 0.000000 0.000000 0.057679
#
#
# Mechanical properties :
#
#
# Convention : Reuss Voigt Hill
#
# Bulk Modulus (GPa) = 34.30362 47.05686 40.68024
# Shear Modulus (GPa) = 24.33792 28.06581 26.20187
#
# Velocity S-wave (km/s) = 3.41614 3.66845 3.54454
# Velocity P-wave (km/s) = 5.65761 6.36452 6.02145
#
# Compressibility (1/GPa) = 0.02915144
#
# Stress axis : x y z
#
# Youngs Moduli (GPa) = 37.91810 60.03317 81.79873
#
# Poissons Ratio (x) = 0.01383 0.53764
# Poissons Ratio (y) = 0.00873 0.51114
# Poissons Ratio (z) = 0.24923 0.37513
#
# Static dielectric constant tensor:
#      x y z
#    x 1.763110 0.000000 0.000000 
#    y 0.000000 1.703370 0.000000 
#    z 0.000000 0.000000 1.751240 
# 
# From -- ./inp_files/12706.got.cif
#   From: 2010.05.17/outbox.cif.g08.bks.cpg/sg40_7_cif.got.tgz:12706.got - 2010.06.03 18:35:42.
