data_PCOD9364726
_publ_section_title
;
Structure prediction by ZEFSAII (Michael W. Deem and Ramdas Pophale) SiO2 
 PCOD9364726
Probable space group: A M A 2
;
_chemical_formula_sum "Si O2"
_cell_formula_units_Z 40
_cell_length_a 11.532578
_cell_length_b 18.255281
_cell_length_c 8.979293
_cell_angle_alpha 90.000000
_cell_angle_beta 90.000000
_cell_angle_gamma 90.000000
_cell_volume 1890.414614
_symmetry_space_group_name_H-M "A M A 2"
_symmetry_group_IT_number 40
_symmetry_cell_setting 'orthorhombic'
loop_
_space_group_symop_operation_xyz
x,y,z
-x,-y,z
1/2-x,y,z
1/2+x,-y,z
x,1/2+y,1/2+z
-x,1/2-y,1/2+z
1/2-x,1/2+y,1/2+z
1/2+x,1/2-y,1/2+z
loop_
_atom_site_type_symbol
_atom_site_label
_atom_site_fract_x
_atom_site_fract_y
_atom_site_fract_z
Si Si1 0.046348 0.682342 0.883320
Si Si2 0.374916 0.525222 0.933559
Si Si3 0.114368 0.451044 0.336879
Si Si4 0.879026 0.197862 0.655058
Si Si5 0.621551 0.589550 0.677609
O O1 0.123152 0.612725 0.930889
O O2 0.106747 0.746894 0.793367
O O3 0.961628 0.643615 0.764311
O O4 0.973779 0.708614 0.026323
O O5 0.500000 0.500000 0.996371
O O6 0.250000 0.500921 0.999560
O O7 0.376608 0.486992 0.770146
O O8 0.250000 0.480629 0.335571
O O9 0.111176 0.383211 0.223395
O O10 0.095644 0.423158 0.506063
O O11 0.000000 0.500000 0.309508
O O12 0.750000 0.206772 0.590509
O O13 0.750000 0.621162 0.687457
#
# Coordination Sequence:
#
# PCOD9364726 Si02
#       5
#     8   8   8   8   8
#     4  11  21  38  61  87 121 161 208 253 310 373
#     4   9  18  33  58  89 117 151 198 247 297 359
#     4  10  21  40  62  88 123 160 203 255 310 368
#     4  11  25  42  61  88 124 163 207 263 316 368
#     4   9  18  35  61  90 122 161 203 252 307 362
#
# _framework density 21.159381
#
# number of rings (size 3 to 8) (size 9 to 14) (size 15 to 20)
#    0.000    2.000    0.000    4.200    0.000    3.200 
#    0.000   16.000    0.000    0.000    0.000    0.000 
#    0.000    0.000    0.000    0.000    0.000    0.000 
#
# Total GULP energy -111534.908862 kJ/mol
# GULP energy per Si atom -5576.745443 kJ/mol
# Density = 2.111122 g / cm^3
# Si number density = 21.159381 Si / 1000 Ang^3
#
#
#
# Elastic Constant Matrix: (Units=GPa)
#
#
# Indices 1 2 3 4 5 6 
#
# 1 163.7197 43.8148 26.5960 0.0000 0.0000 0.0000
# 2 43.8148 78.2423 2.4580 0.0000 0.0000 0.0000
# 3 26.5960 2.4580 102.2195 0.0000 0.0000 0.0000
# 4 0.0000 0.0000 0.0000 21.5812 0.0000 0.0000
# 5 0.0000 0.0000 0.0000 0.0000 -49.3801 0.0000
# 6 0.0000 0.0000 0.0000 0.0000 0.0000 -4.8037
#
#
#
# Elastic Compliance Matrix: (Units=1/GPa)
#
#
# Indices 1 2 3 4 5 6 
#
# 1 0.007521 -0.004153 -0.001857 0.000000 0.000000 0.000000
# 2 -0.004153 0.015084 0.000718 0.000000 0.000000 0.000000
# 3 -0.001857 0.000718 0.010249 0.000000 0.000000 0.000000
# 4 0.000000 0.000000 0.000000 0.046337 0.000000 0.000000
# 5 0.000000 0.000000 0.000000 0.000000 -0.020251 0.000000
# 6 0.000000 0.000000 0.000000 0.000000 0.000000 -0.208174
#
#
# Mechanical properties :
#
#
# Convention : Reuss Voigt Hill
#
# Bulk Modulus (GPa) = 44.90535 54.43544 49.67039
# Shear Modulus (GPa) = -38.10220 11.56701 -13.26760
#
# Velocity S-wave (km/s) = -4.24810 2.34061 -2.50678
# Velocity P-wave (km/s) = 1.67131 5.75212 3.89189
#
# Compressibility (1/GPa) = 0.02226906
#
# Stress axis : x y z
#
# Youngs Moduli (GPa) = 132.95706 66.29482 97.57259
#
# Poissons Ratio (x) = 0.27535 0.18120
# Poissons Ratio (y) = 0.55223 -0.07005
# Poissons Ratio (z) = 0.24691 -0.04760
#
# Static dielectric constant tensor:
#      x y z
#    x 1.881720 0.000000 0.000000 
#    y 0.000000 1.761910 0.000000 
#    z 0.000000 0.000000 1.745010 
# 
# From -- ./inp_files/5127.got.cif
#   From: 2010.05.17/outbox.cif.g08.bks.cpg/sg40_3_cif.got.tgz:5127.got - 2010.06.03 18:35:42.
