data_PCOD9364982
_publ_section_title
;
Structure prediction by ZEFSAII (Michael W. Deem and Ramdas Pophale) SiO2 
 PCOD9364982
Probable space group: A M A 2
;
_chemical_formula_sum "Si O2"
_cell_formula_units_Z 64
_cell_length_a 24.284052
_cell_length_b 12.770075
_cell_length_c 8.427149
_cell_angle_alpha 90.000000
_cell_angle_beta 90.000000
_cell_angle_gamma 90.000000
_cell_volume 2613.336143
_symmetry_space_group_name_H-M "A M A 2"
_symmetry_group_IT_number 40
_symmetry_cell_setting 'orthorhombic'
loop_
_space_group_symop_operation_xyz
x,y,z
-x,-y,z
1/2-x,y,z
1/2+x,-y,z
x,1/2+y,1/2+z
-x,1/2-y,1/2+z
1/2-x,1/2+y,1/2+z
1/2+x,1/2-y,1/2+z
loop_
_atom_site_type_symbol
_atom_site_label
_atom_site_fract_x
_atom_site_fract_y
_atom_site_fract_z
Si Si1 0.043520 0.111381 0.493010
Si Si2 0.635579 0.235894 0.103829
Si Si3 0.074744 0.587029 0.497119
Si Si4 0.512388 0.204492 0.801254
Si Si5 0.689290 0.564276 0.012625
Si Si6 0.310144 0.196182 0.910760
Si Si7 0.089989 0.448100 0.800418
Si Si8 0.378198 0.401195 0.316847
O O1 0.102697 0.170386 0.520018
O O2 0.015821 0.147865 0.654903
O O3 0.055138 0.990306 0.451612
O O4 0.013063 0.174071 0.351160
O O5 0.680300 0.282304 0.223041
O O6 0.595256 0.166939 0.221100
O O7 0.652057 0.151886 0.968295
O O8 0.020812 0.653252 0.451553
O O9 0.133725 0.644621 0.475830
O O10 0.073148 0.527919 0.663413
O O11 0.081383 0.492880 0.372936
O O12 0.577031 0.184372 0.766220
O O13 0.750000 0.518472 0.008056
O O14 0.660623 0.553341 0.182692
O O15 0.692296 0.689940 0.990863
O O16 0.651592 0.530581 0.865723
O O17 0.250000 0.144390 0.936472
#
# Coordination Sequence:
#
# PCOD9364982 Si02
#       8
#     8   8   8   8   8   8   8   8
#     4  11  22  39  65  96 127 180 221 272 340 405
#     4   9  21  42  62  90 129 161 218 272 329 406
#     4  11  22  41  64  95 132 172 217 277 333 407
#     4  11  23  38  64  96 136 172 217 273 338 419
#     4  10  23  43  65  94 130 173 225 285 339 403
#     4  10  22  40  65  91 124 166 214 271 338 399
#     4  10  23  41  65  91 129 174 221 271 335 401
#     4  10  23  40  64  94 129 169 217 272 332 405
#
# _framework density 24.489768999999999
#
# number of rings (size 3 to 8) (size 9 to 14) (size 15 to 20)
#    0.000    1.750    1.250    1.875    5.250    1.500 
#    0.000   10.625    0.000    0.000    0.000    0.000 
#    0.000    0.000    0.000    0.000    0.000    0.000 
#
# Total GULP energy -178627.099588 kJ/mol
# GULP energy per Si atom -5582.096862 kJ/mol
# Density = 2.443403 g / cm^3
# Si number density = 24.489769 Si / 1000 Ang^3
#
#
#
# Elastic Constant Matrix: (Units=GPa)
#
#
# Indices 1 2 3 4 5 6 
#
# 1 85.1173 -0.0545 6.9614 0.0000 0.0000 0.0000
# 2 -0.0545 85.8238 14.5816 0.0000 0.0000 0.0000
# 3 6.9614 14.5816 73.2889 0.0000 0.0000 0.0000
# 4 0.0000 0.0000 0.0000 6.3233 0.0000 0.0000
# 5 0.0000 0.0000 0.0000 0.0000 15.4275 0.0000
# 6 0.0000 0.0000 0.0000 0.0000 0.0000 25.3504
#
#
#
# Elastic Compliance Matrix: (Units=1/GPa)
#
#
# Indices 1 2 3 4 5 6 
#
# 1 0.011844 0.000206 -0.001166 0.000000 0.000000 0.000000
# 2 0.000206 0.012063 -0.002420 0.000000 0.000000 0.000000
# 3 -0.001166 -0.002420 0.014237 0.000000 0.000000 0.000000
# 4 0.000000 0.000000 0.000000 0.158145 0.000000 0.000000
# 5 0.000000 0.000000 0.000000 0.000000 0.064819 0.000000
# 6 0.000000 0.000000 0.000000 0.000000 0.000000 0.039447
#
#
# Mechanical properties :
#
#
# Convention : Reuss Voigt Hill
#
# Bulk Modulus (GPa) = 31.86340 31.91188 31.88764
# Shear Modulus (GPa) = 15.73435 24.26965 20.00200
#
# Velocity S-wave (km/s) = 2.53748 3.15145 2.86098
# Velocity P-wave (km/s) = 4.65019 5.12847 4.89517
#
# Compressibility (1/GPa) = 0.03138397
#
# Stress axis : x y z
#
# Youngs Moduli (GPa) = 84.43104 82.89808 70.24058
#
# Poissons Ratio (x) = -0.01704 0.08189
# Poissons Ratio (y) = -0.01736 0.16995
# Poissons Ratio (z) = 0.09844 0.20058
#
# Static dielectric constant tensor:
#      x y z
#    x 2.042570 0.000000 0.000000 
#    y 0.000000 1.971840 0.000000 
#    z 0.000000 0.000000 1.979080 
# 
# From -- ./inp_files/8943.got.cif
#   From: 2010.05.17/outbox.cif.g08.bks.cpg/sg40_5_cif.got.tgz:8943.got - 2010.06.03 18:35:42.
