data_PCOD9364103
_publ_section_title
;
Structure prediction by ZEFSAII (Michael W. Deem and Ramdas Pophale) SiO2 
 PCOD9364103
Probable space group: A M A 2
;
_chemical_formula_sum "Si O2"
_cell_formula_units_Z 64
_cell_length_a 8.444070
_cell_length_b 31.853195
_cell_length_c 12.255785
_cell_angle_alpha 90.000000
_cell_angle_beta 90.000000
_cell_angle_gamma 90.000000
_cell_volume 3296.445947
_symmetry_space_group_name_H-M "A M A 2"
_symmetry_group_IT_number 40
_symmetry_cell_setting 'orthorhombic'
loop_
_space_group_symop_operation_xyz
x,y,z
-x,-y,z
1/2-x,y,z
1/2+x,-y,z
x,1/2+y,1/2+z
-x,1/2-y,1/2+z
1/2-x,1/2+y,1/2+z
1/2+x,1/2-y,1/2+z
loop_
_atom_site_type_symbol
_atom_site_label
_atom_site_fract_x
_atom_site_fract_y
_atom_site_fract_z
Si Si1 0.941548 0.374076 0.288630
Si Si2 0.559915 0.297260 0.686014
Si Si3 0.558217 0.375336 0.540571
Si Si4 0.941771 0.702685 0.145154
Si Si5 0.561454 0.955402 0.653025
Si Si6 0.060228 0.955332 0.175787
Si Si7 0.059402 0.931690 0.417447
Si Si8 0.559450 0.666739 0.911697
O O1 0.750000 0.374325 0.286867
O O2 0.992930 0.376342 0.414544
O O3 0.997873 0.414756 0.220020
O O4 0.998070 0.331500 0.231200
O O5 0.750000 0.296049 0.675827
O O6 0.502623 0.332863 0.601391
O O7 0.501372 0.250043 0.665858
O O8 0.515126 0.312023 0.806525
O O9 0.750000 0.375565 0.542500
O O10 0.500089 0.415908 0.606540
O O11 0.750000 0.702274 0.148758
O O12 0.990790 0.687936 0.024559
O O13 0.750000 0.955517 0.659362
O O14 0.511897 0.950891 0.526747
O O15 0.500000 0.000000 0.695765
O O16 0.250000 0.954636 0.175785
O O17 0.005208 0.950438 0.301913
O O18 0.000000 0.000000 0.132977
O O19 0.250000 0.935802 0.423835
O O20 0.018931 0.882382 0.415224
O O21 0.750000 0.669867 0.902982
#
# Coordination Sequence:
#
# PCOD9364103 Si02
#       8
#     8   8   8   8   8   8   8   8
#     4  10  23  41  61  86 116 155 198 241 291 345
#     4  10  22  38  59  88 119 154 196 241 290 344
#     4  10  22  41  61  83 117 156 196 242 291 343
#     4  10  22  39  60  88 120 156 196 240 292 345
#     4  11  23  38  59  87 117 151 194 239 290 348
#     4  11  23  39  60  88 118 151 194 239 291 349
#     4  10  20  37  60  88 119 152 191 236 289 346
#     4  10  20  37  62  88 119 155 192 238 291 344
#
# _framework density 19.414847999999999
#
# number of rings (size 3 to 8) (size 9 to 14) (size 15 to 20)
#    0.000    1.750    2.500    1.125    1.750    5.000 
#    0.000    1.250    0.000    0.000    0.000    0.000 
#    0.000    0.000    0.000    0.000    0.000    0.000 
#
# Total GULP energy -178783.622790 kJ/mol
# GULP energy per Si atom -5586.988212 kJ/mol
# Density = 1.937066 g / cm^3
# Si number density = 19.414848 Si / 1000 Ang^3
#
#
#
# Elastic Constant Matrix: (Units=GPa)
#
#
# Indices 1 2 3 4 5 6 
#
# 1 9.1257 25.9323 19.6278 0.0000 0.0000 0.0000
# 2 25.9323 194.2044 86.3910 0.0000 0.0000 0.0000
# 3 19.6278 86.3910 149.4764 0.0000 0.0000 0.0000
# 4 0.0000 0.0000 0.0000 54.7596 0.0000 0.0000
# 5 0.0000 0.0000 0.0000 0.0000 61.5304 0.0000
# 6 0.0000 0.0000 0.0000 0.0000 0.0000 23.2407
#
#
#
# Elastic Compliance Matrix: (Units=1/GPa)
#
#
# Indices 1 2 3 4 5 6 
#
# 1 0.197110 -0.019931 -0.014363 0.000000 0.000000 0.000000
# 2 -0.019931 0.008947 -0.002554 0.000000 0.000000 0.000000
# 3 -0.014363 -0.002554 0.010052 0.000000 0.000000 0.000000
# 4 0.000000 0.000000 0.000000 0.018262 0.000000 0.000000
# 5 0.000000 0.000000 0.000000 0.000000 0.016252 0.000000
# 6 0.000000 0.000000 0.000000 0.000000 0.000000 0.043028
#
#
# Mechanical properties :
#
#
# Convention : Reuss Voigt Hill
#
# Bulk Modulus (GPa) = 7.02184 68.52322 37.77253
# Shear Modulus (GPa) = 12.05351 42.62984 27.34167
#
# Velocity S-wave (km/s) = 2.49437 4.69095 3.75679
# Velocity P-wave (km/s) = 3.45260 8.04431 6.18996
#
# Compressibility (1/GPa) = 0.14241281
#
# Stress axis : x y z
#
# Youngs Moduli (GPa) = 5.07331 111.77483 99.48290
#
# Poissons Ratio (x) = 2.22776 1.42892
# Poissons Ratio (y) = 0.10112 0.25404
# Poissons Ratio (z) = 0.07287 0.28543
#
# Static dielectric constant tensor:
#      x y z
#    x 1.673880 0.000000 0.000000 
#    y 0.000000 1.668930 0.000000 
#    z 0.000000 0.000000 1.651730 
# 
# From -- ./inp_files/10554.got.cif
#   From: 2010.05.17/outbox.cif.g08.bks.cpg/sg40_6_cif.got.tgz:10554.got - 2010.06.03 18:35:42.
