data_PCOD9364671
_publ_section_title
;
Structure prediction by ZEFSAII (Michael W. Deem and Ramdas Pophale) SiO2 
 PCOD9364671
Probable space group: A M A 2
;
_chemical_formula_sum "Si O2"
_cell_formula_units_Z 56
_cell_length_a 17.356131
_cell_length_b 6.994054
_cell_length_c 17.174610
_cell_angle_alpha 90.000000
_cell_angle_beta 90.000000
_cell_angle_gamma 90.000000
_cell_volume 2084.821055
_symmetry_space_group_name_H-M "A M A 2"
_symmetry_group_IT_number 40
_symmetry_cell_setting 'orthorhombic'
loop_
_space_group_symop_operation_xyz
x,y,z
-x,-y,z
1/2-x,y,z
1/2+x,-y,z
x,1/2+y,1/2+z
-x,1/2-y,1/2+z
1/2-x,1/2+y,1/2+z
1/2+x,1/2-y,1/2+z
loop_
_atom_site_type_symbol
_atom_site_label
_atom_site_fract_x
_atom_site_fract_y
_atom_site_fract_z
Si Si1 0.662838 0.123907 0.023370
Si Si2 0.662592 0.135231 0.260992
Si Si3 0.956972 0.676882 0.631233
Si Si4 0.437228 0.383848 0.907538
Si Si5 0.612539 0.709308 0.082701
Si Si6 0.441762 0.366194 0.376321
Si Si7 0.331761 0.412845 0.241069
O O1 0.750000 0.184137 0.024412
O O2 0.608843 0.257307 0.076338
O O3 0.651135 0.916626 0.063360
O O4 0.626642 0.115888 0.939078
O O5 0.750000 0.064610 0.242476
O O6 0.587846 0.090826 0.205517
O O7 0.633993 0.097711 0.347844
O O8 0.666692 0.361188 0.250569
O O9 0.000000 0.500000 0.586964
O O10 0.031549 0.804966 0.631869
O O11 0.535148 0.372956 0.900721
O O12 0.460711 0.125666 0.880421
O O13 0.409160 0.361491 0.996289
O O14 0.666191 0.627672 0.149767
O O15 0.403704 0.339239 0.291427
O O16 0.250000 0.342918 0.274315
#
# Coordination Sequence:
#
# PCOD9364671 Si02
#       7
#     8   8   8   8   8   8   8
#     4  11  21  39  68  99 132 171 222 282 334 402
#     4  11  24  43  65  93 132 177 223 279 345 403
#     4  10  21  39  62  94 123 170 221 266 334 406
#     4  12  26  43  68  99 133 179 232 280 339 406
#     4  11  23  40  66  95 137 171 224 279 339 401
#     4  12  21  44  68  94 128 177 232 270 334 414
#     4  11  25  40  66 100 131 177 230 284 342 404
#
# _framework density 26.860818999999999
#
# number of rings (size 3 to 8) (size 9 to 14) (size 15 to 20)
#    0.000    0.857    4.286    3.000    2.000    3.429 
#    0.000    4.286    0.000    0.000    0.000    0.000 
#    0.000    0.000    0.000    0.000    0.000    0.000 
#
# Total GULP energy -156179.593024 kJ/mol
# GULP energy per Si atom -5577.842608 kJ/mol
# Density = 2.679968 g / cm^3
# Si number density = 26.860819 Si / 1000 Ang^3
#
#
#
# Elastic Constant Matrix: (Units=GPa)
#
#
# Indices 1 2 3 4 5 6 
#
# 1 209.4005 5.5596 74.9463 0.0000 0.0000 0.0000
# 2 5.5596 103.3892 9.3728 0.0000 0.0000 0.0000
# 3 74.9463 9.3728 197.8198 0.0000 0.0000 0.0000
# 4 0.0000 0.0000 0.0000 43.0628 0.0000 0.0000
# 5 0.0000 0.0000 0.0000 0.0000 32.5264 0.0000
# 6 0.0000 0.0000 0.0000 0.0000 0.0000 10.7956
#
#
#
# Elastic Compliance Matrix: (Units=1/GPa)
#
#
# Indices 1 2 3 4 5 6 
#
# 1 0.005526 -0.000108 -0.002088 0.000000 0.000000 0.000000
# 2 -0.000108 0.009716 -0.000420 0.000000 0.000000 0.000000
# 3 -0.002088 -0.000420 0.005866 0.000000 0.000000 0.000000
# 4 0.000000 0.000000 0.000000 0.023222 0.000000 0.000000
# 5 0.000000 0.000000 0.000000 0.000000 0.030744 0.000000
# 6 0.000000 0.000000 0.000000 0.000000 0.000000 0.092630
#
#
# Mechanical properties :
#
#
# Convention : Reuss Voigt Hill
#
# Bulk Modulus (GPa) = 62.98578 76.70743 69.84660
# Shear Modulus (GPa) = 28.05390 45.32567 36.68979
#
# Velocity S-wave (km/s) = 3.23525 4.11229 3.69985
# Velocity P-wave (km/s) = 6.12010 7.15313 6.65668
#
# Compressibility (1/GPa) = 0.01587660
#
# Stress axis : x y z
#
# Youngs Moduli (GPa) = 180.96709 102.92278 170.46789
#
# Poissons Ratio (x) = 0.01110 0.35601
# Poissons Ratio (y) = 0.01951 0.07151
# Poissons Ratio (z) = 0.37794 0.04318
#
# Static dielectric constant tensor:
#      x y z
#    x 2.028090 0.000000 0.000000 
#    y 0.000000 4.690960 0.000000 
#    z 0.000000 0.000000 2.010390 
# 
# From -- ./inp_files/21175.got.cif
#   From: 2010.05.17/outbox.cif.g08.bks.cpg/sg40_11_cif.got.tgz:21175.got - 2010.06.03 18:35:42.
