data_PCOD9364446
_publ_section_title
;
Structure prediction by ZEFSAII (Michael W. Deem and Ramdas Pophale) SiO2 
 PCOD9364446
Probable space group: A M A 2
;
_chemical_formula_sum "Si O2"
_cell_formula_units_Z 48
_cell_length_a 9.764644
_cell_length_b 7.212332
_cell_length_c 32.582610
_cell_angle_alpha 90.000000
_cell_angle_beta 90.000000
_cell_angle_gamma 90.000000
_cell_volume 2294.658147
_symmetry_space_group_name_H-M "A M A 2"
_symmetry_group_IT_number 40
_symmetry_cell_setting 'orthorhombic'
loop_
_space_group_symop_operation_xyz
x,y,z
-x,-y,z
1/2-x,y,z
1/2+x,-y,z
x,1/2+y,1/2+z
-x,1/2-y,1/2+z
1/2-x,1/2+y,1/2+z
1/2+x,1/2-y,1/2+z
loop_
_atom_site_type_symbol
_atom_site_label
_atom_site_fract_x
_atom_site_fract_y
_atom_site_fract_z
Si Si1 0.595850 0.324861 0.371410
Si Si2 0.500000 0.000000 0.603171
Si Si3 0.750000 0.002321 0.660933
Si Si4 0.916911 0.194869 0.037333
Si Si5 0.750000 0.740643 0.242816
Si Si6 0.416722 0.196718 0.959716
Si Si7 0.476330 0.784227 0.281431
Si Si8 0.250000 0.815436 0.218855
O O1 0.500000 0.500000 0.369506
O O2 0.750000 0.392821 0.376028
O O3 0.568877 0.216636 0.414109
O O4 0.580261 0.233970 0.327152
O O5 0.621382 0.054847 0.633380
O O6 0.554009 0.833586 0.574609
O O7 0.750000 0.783394 0.674553
O O8 0.750000 0.118303 0.702501
O O9 0.750000 0.172114 0.031799
O O10 0.000000 0.000000 0.044248
O O11 0.996298 0.278927 0.997361
O O12 0.621502 0.695939 0.271894
O O13 0.750000 0.958821 0.226104
O O14 0.250000 0.181453 0.968230
O O15 0.500000 0.000000 0.955747
O O16 0.377296 0.735857 0.244346
O O17 0.500000 0.000000 0.276417
#
# Coordination Sequence:
#
# PCOD9364446 Si02
#       8
#     8   4   4   8   4   8   8   4
#     4  10  21  35  57  92 129 166 215 269 312 380
#     4  12  28  46  68 104 138 166 222 290 336 412
#     4  12  26  44  68  96 130 168 220 278 338 402
#     4  11  24  44  73 100 134 181 218 273 342 404
#     4  10  24  40  64  93 123 171 221 268 326 398
#     4   9  18  35  61  92 129 171 217 263 322 390
#     4  10  21  38  58  86 126 170 215 264 320 380
#     4  10  22  42  64  87 127 171 215 270 324 392
#
# _framework density 20.918149
#
# number of rings (size 3 to 8) (size 9 to 14) (size 15 to 20)
#    0.000    1.667    1.667    3.000    5.833    2.000 
#    1.500    0.000    0.000    0.000    0.000    0.000 
#    0.000    0.000    0.000    0.000    0.000    0.000 
#
# Total GULP energy -133624.626966 kJ/mol
# GULP energy per Si atom -5567.692790 kJ/mol
# Density = 2.087054 g / cm^3
# Si number density = 20.918149 Si / 1000 Ang^3
#
#
#
# Elastic Constant Matrix: (Units=GPa)
#
#
# Indices 1 2 3 4 5 6 
#
# 1 170.5690 16.8675 44.9562 0.0000 0.0000 0.0000
# 2 16.8675 56.2404 9.9566 0.0000 0.0000 0.0000
# 3 44.9562 9.9566 117.3988 0.0000 0.0000 0.0000
# 4 0.0000 0.0000 0.0000 76.9953 0.0000 0.0000
# 5 0.0000 0.0000 0.0000 0.0000 52.6834 0.0000
# 6 0.0000 0.0000 0.0000 0.0000 0.0000 74.6556
#
#
#
# Elastic Compliance Matrix: (Units=1/GPa)
#
#
# Indices 1 2 3 4 5 6 
#
# 1 0.006654 -0.001568 -0.002415 0.000000 0.000000 0.000000
# 2 -0.001568 0.018421 -0.000962 0.000000 0.000000 0.000000
# 3 -0.002415 -0.000962 0.009524 0.000000 0.000000 0.000000
# 4 0.000000 0.000000 0.000000 0.012988 0.000000 0.000000
# 5 0.000000 0.000000 0.000000 0.000000 0.018981 0.000000
# 6 0.000000 0.000000 0.000000 0.000000 0.000000 0.013395
#
#
# Mechanical properties :
#
#
# Convention : Reuss Voigt Hill
#
# Bulk Modulus (GPa) = 40.46975 54.19653 47.33314
# Shear Modulus (GPa) = 50.97302 59.02872 55.00087
#
# Velocity S-wave (km/s) = 4.94173 5.31791 5.13327
# Velocity P-wave (km/s) = 7.20761 7.97947 7.60334
#
# Compressibility (1/GPa) = 0.02470981
#
# Stress axis : x y z
#
# Youngs Moduli (GPa) = 150.27710 54.28468 104.99340
#
# Poissons Ratio (x) = 0.08513 0.25358
# Poissons Ratio (y) = 0.23566 0.10098
# Poissons Ratio (z) = 0.36295 0.05221
#
# Static dielectric constant tensor:
#      x y z
#    x 1.697380 0.000000 0.000000 
#    y 0.000000 1.777220 0.000000 
#    z 0.000000 0.000000 1.807520 
# 
# From -- ./inp_files/26231.got.cif
#   From: 2010.05.17/outbox.cif.g08.bks.cpg/sg40_14_cif.got.tgz:26231.got - 2010.06.03 18:35:42.
