data_PCOD9364917
_publ_section_title
;
Structure prediction by ZEFSAII (Michael W. Deem and Ramdas Pophale) SiO2 
 PCOD9364917
Probable space group: A M A 2
;
_chemical_formula_sum "Si O2"
_cell_formula_units_Z 56
_cell_length_a 14.938793
_cell_length_b 12.102506
_cell_length_c 14.708424
_cell_angle_alpha 90.000000
_cell_angle_beta 90.000000
_cell_angle_gamma 90.000000
_cell_volume 2659.236462
_symmetry_space_group_name_H-M "A M A 2"
_symmetry_group_IT_number 40
_symmetry_cell_setting 'orthorhombic'
loop_
_space_group_symop_operation_xyz
x,y,z
-x,-y,z
1/2-x,y,z
1/2+x,-y,z
x,1/2+y,1/2+z
-x,1/2-y,1/2+z
1/2-x,1/2+y,1/2+z
1/2+x,1/2-y,1/2+z
loop_
_atom_site_type_symbol
_atom_site_label
_atom_site_fract_x
_atom_site_fract_y
_atom_site_fract_z
Si Si1 0.021366 0.262473 0.262000
Si Si2 0.983508 0.872002 0.941907
Si Si3 0.851828 0.927762 0.300644
Si Si4 0.393108 0.497946 0.994768
Si Si5 0.151242 0.867459 0.205170
Si Si6 0.144461 0.262999 0.077633
Si Si7 0.845833 0.253371 0.015143
O O1 0.084193 0.174389 0.312287
O O2 0.077956 0.272856 0.166821
O O3 0.991694 0.359637 0.331296
O O4 0.928309 0.200884 0.247002
O O5 0.901062 0.817849 0.000552
O O6 0.000000 0.000000 0.966079
O O7 0.067196 0.797485 0.971032
O O8 0.750000 0.891862 0.295081
O O9 0.866833 0.002973 0.388793
O O10 0.872515 0.003127 0.213262
O O11 0.500000 0.500000 0.003352
O O12 0.356286 0.387873 0.039747
O O13 0.358012 0.615684 0.032093
O O14 0.250000 0.857315 0.249266
O O15 0.159672 0.817527 0.106265
O O16 0.250000 0.232901 0.096512
O O17 0.750000 0.239459 0.965962
#
# Coordination Sequence:
#
# PCOD9364917 Si02
#       7
#     8   8   8   8   8   8   8
#     4  12  24  44  67 100 141 189 235 297 359 435
#     4  12  28  48  70 103 146 195 240 299 369 434
#     4  11  22  37  65 101 135 177 231 288 350 421
#     4  12  21  42  71 102 138 182 229 296 357 428
#     4  10  22  38  64  99 132 175 232 290 347 418
#     4  12  27  47  73 109 146 187 243 303 366 433
#     4  11  23  43  69  98 135 181 232 286 353 425
#
# _framework density 21.058675000000001
#
# number of rings (size 3 to 8) (size 9 to 14) (size 15 to 20)
#    0.000    0.571    4.286    3.857    2.000    4.571 
#    0.000    0.000    0.000    0.000    0.000    0.000 
#    0.000    0.000    0.000    0.000    0.000    0.000 
#
# Total GULP energy -156051.929382 kJ/mol
# GULP energy per Si atom -5573.283192 kJ/mol
# Density = 2.101074 g / cm^3
# Si number density = 21.058675 Si / 1000 Ang^3
#
#
#
# Elastic Constant Matrix: (Units=GPa)
#
#
# Indices 1 2 3 4 5 6 
#
# 1 124.1794 19.3400 22.4507 0.0000 0.0000 0.0000
# 2 19.3400 115.3600 48.8575 0.0000 0.0000 0.0000
# 3 22.4507 48.8575 83.5629 0.0000 0.0000 0.0000
# 4 0.0000 0.0000 0.0000 39.9220 0.0000 0.0000
# 5 0.0000 0.0000 0.0000 0.0000 23.6821 0.0000
# 6 0.0000 0.0000 0.0000 0.0000 0.0000 49.1757
#
#
#
# Elastic Compliance Matrix: (Units=1/GPa)
#
#
# Indices 1 2 3 4 5 6 
#
# 1 0.008496 -0.000608 -0.001927 0.000000 0.000000 0.000000
# 2 -0.000608 0.011565 -0.006598 0.000000 0.000000 0.000000
# 3 -0.001927 -0.006598 0.016343 0.000000 0.000000 0.000000
# 4 0.000000 0.000000 0.000000 0.025049 0.000000 0.000000
# 5 0.000000 0.000000 0.000000 0.000000 0.042226 0.000000
# 6 0.000000 0.000000 0.000000 0.000000 0.000000 0.020335
#
#
# Mechanical properties :
#
#
# Convention : Reuss Voigt Hill
#
# Bulk Modulus (GPa) = 55.13754 56.04430 55.59092
# Shear Modulus (GPa) = 33.70937 38.05288 35.88112
#
# Velocity S-wave (km/s) = 4.00526 4.25549 4.13227
# Velocity P-wave (km/s) = 6.90139 7.12859 7.01591
#
# Compressibility (1/GPa) = 0.01813646
#
# Stress axis : x y z
#
# Youngs Moduli (GPa) = 117.70280 86.46733 61.18932
#
# Poissons Ratio (x) = 0.05259 0.11791
# Poissons Ratio (y) = 0.07159 0.40375
# Poissons Ratio (z) = 0.22681 0.57055
#
# Static dielectric constant tensor:
#      x y z
#    x 1.795700 0.000000 0.000000 
#    y 0.000000 1.740560 0.000000 
#    z 0.000000 0.000000 1.873900 
# 
# From -- ./inp_files/17062.got.cif
#   From: 2010.05.17/outbox.cif.g08.bks.cpg/sg40_9_cif.got.tgz:17062.got - 2010.06.03 18:35:42.
