data_PCOD9364274
_publ_section_title
;
Structure prediction by ZEFSAII (Michael W. Deem and Ramdas Pophale) SiO2 
 PCOD9364274
Probable space group: A M A 2
;
_chemical_formula_sum "Si O2"
_cell_formula_units_Z 56
_cell_length_a 19.006204
_cell_length_b 5.871735
_cell_length_c 22.005800
_cell_angle_alpha 90.000000
_cell_angle_beta 90.000000
_cell_angle_gamma 90.000000
_cell_volume 2455.833928
_symmetry_space_group_name_H-M "A M A 2"
_symmetry_group_IT_number 40
_symmetry_cell_setting 'orthorhombic'
loop_
_space_group_symop_operation_xyz
x,y,z
-x,-y,z
1/2-x,y,z
1/2+x,-y,z
x,1/2+y,1/2+z
-x,1/2-y,1/2+z
1/2-x,1/2+y,1/2+z
1/2+x,1/2-y,1/2+z
loop_
_atom_site_type_symbol
_atom_site_label
_atom_site_fract_x
_atom_site_fract_y
_atom_site_fract_z
Si Si1 0.329132 0.268769 0.976460
Si Si2 0.606282 0.135313 0.604490
Si Si3 0.672460 0.401009 0.860521
Si Si4 0.592966 0.642570 0.645002
Si Si5 0.930250 0.649052 0.786128
Si Si6 0.575573 0.509681 0.393876
Si Si7 0.250000 0.376445 0.686308
Si Si8 0.750000 0.620049 0.184053
O O1 0.250000 0.213414 0.995699
O O2 0.326008 0.452388 0.922167
O O3 0.367153 0.063371 0.942934
O O4 0.372972 0.343107 0.034294
O O5 0.572031 0.382108 0.624559
O O6 0.678507 0.120763 0.644264
O O7 0.572891 0.880973 0.611992
O O8 0.750000 0.297425 0.853191
O O9 0.646236 0.545588 0.803115
O O10 0.606471 0.239090 0.868576
O O11 0.570879 0.690646 0.714612
O O12 0.678751 0.628959 0.645837
O O13 0.933289 0.851414 0.834671
O O14 0.000000 0.500000 0.796945
O O15 0.500000 0.500000 0.424742
O O16 0.250000 0.630873 0.714981
O O17 0.250000 0.125132 0.718678
#
# Coordination Sequence:
#
# PCOD9364274 Si02
#       8
#     8   8   8   8   8   8   4   4
#     4  10  22  40  68 101 141 181 231 297 361 425
#     4  10  20  39  61  99 134 179 223 285 343 418
#     4  10  23  43  68 105 133 171 237 301 351 413
#     4  10  23  37  64  96 135 176 233 279 342 420
#     4  11  24  44  69  95 138 191 231 288 361 432
#     4  11  23  43  71  97 134 186 239 294 357 428
#     4   8  16  32  50  85 120 163 206 268 320 378
#     4   8  14  30  52  79 122 163 210 252 326 392
#
# _framework density 22.802845999999999
#
# number of rings (size 3 to 8) (size 9 to 14) (size 15 to 20)
#    0.000    2.000    2.143    0.429    5.000    0.571 
#    0.000    0.714    3.143    0.000    0.000    0.000 
#    0.000    0.000    0.000    0.000    0.000    0.000 
#
# Total GULP energy -156004.426749 kJ/mol
# GULP energy per Si atom -5571.586670 kJ/mol
# Density = 2.275095 g / cm^3
# Si number density = 22.802846 Si / 1000 Ang^3
#
#
#
# Elastic Constant Matrix: (Units=GPa)
#
#
# Indices 1 2 3 4 5 6 
#
# 1 47.9514 14.1377 -6.7896 0.0000 0.0000 0.0000
# 2 14.1377 128.1777 21.9619 0.0000 0.0000 0.0000
# 3 -6.7896 21.9619 106.5647 0.0000 0.0000 0.0000
# 4 0.0000 0.0000 0.0000 -3.5676 0.0000 0.0000
# 5 0.0000 0.0000 0.0000 0.0000 23.9559 0.0000
# 6 0.0000 0.0000 0.0000 0.0000 0.0000 36.0997
#
#
#
# Elastic Compliance Matrix: (Units=1/GPa)
#
#
# Indices 1 2 3 4 5 6 
#
# 1 0.021946 -0.002758 0.001967 0.000000 0.000000 0.000000
# 2 -0.002758 0.008434 -0.001914 0.000000 0.000000 0.000000
# 3 0.001967 -0.001914 0.009904 0.000000 0.000000 0.000000
# 4 0.000000 0.000000 0.000000 -0.280304 0.000000 0.000000
# 5 0.000000 0.000000 0.000000 0.000000 0.041743 0.000000
# 6 0.000000 0.000000 0.000000 0.000000 0.000000 0.027701
#
#
# Mechanical properties :
#
#
# Convention : Reuss Voigt Hill
#
# Bulk Modulus (GPa) = 28.67485 37.92374 33.29929
# Shear Modulus (GPa) = -32.56431 28.18986 -2.18722
#
# Velocity S-wave (km/s) = -3.78310 3.51984 -0.98044
# Velocity P-wave (km/s) = 2.54558 5.76075 3.65419
#
# Compressibility (1/GPa) = 0.03487377
#
# Stress axis : x y z
#
# Youngs Moduli (GPa) = 45.56658 118.57153 100.97259
#
# Poissons Ratio (x) = 0.32696 -0.19857
# Poissons Ratio (y) = 0.12565 0.19324
# Poissons Ratio (z) = -0.08961 0.22692
#
# Static dielectric constant tensor:
#      x y z
#    x 1.854900 0.000000 0.000000 
#    y 0.000000 1.886090 0.000000 
#    z 0.000000 0.000000 1.781270 
# 
# From -- ./inp_files/24978.got.cif
#   From: 2010.05.17/outbox.cif.g08.bks.cpg/sg40_13_cif.got.tgz:24978.got - 2010.06.03 18:35:42.
