data_PCOD9364737
_publ_section_title
;
Structure prediction by ZEFSAII (Michael W. Deem and Ramdas Pophale) SiO2 
 PCOD9364737
Probable space group: A M A 2
;
_chemical_formula_sum "Si O2"
_cell_formula_units_Z 48
_cell_length_a 15.524720
_cell_length_b 8.692767
_cell_length_c 19.187880
_cell_angle_alpha 90.000000
_cell_angle_beta 90.000000
_cell_angle_gamma 90.000000
_cell_volume 2589.457627
_symmetry_space_group_name_H-M "A M A 2"
_symmetry_group_IT_number 40
_symmetry_cell_setting 'orthorhombic'
loop_
_space_group_symop_operation_xyz
x,y,z
-x,-y,z
1/2-x,y,z
1/2+x,-y,z
x,1/2+y,1/2+z
-x,1/2-y,1/2+z
1/2-x,1/2+y,1/2+z
1/2+x,1/2-y,1/2+z
loop_
_atom_site_type_symbol
_atom_site_label
_atom_site_fract_x
_atom_site_fract_y
_atom_site_fract_z
Si Si1 0.094504 0.435150 0.272380
Si Si2 0.250000 0.071698 0.025385
Si Si3 0.750000 0.562556 0.862484
Si Si4 0.092340 0.567471 0.774411
Si Si5 0.750000 0.061150 0.526579
Si Si6 0.750000 0.431134 0.361553
Si Si7 0.594114 0.937936 0.617729
Si Si8 0.348242 0.898690 0.136264
O O1 0.091865 0.251205 0.272979
O O2 0.166401 0.498569 0.324360
O O3 0.114822 0.493683 0.194201
O O4 0.000000 0.500000 0.290051
O O5 0.250000 0.254455 0.035496
O O6 0.330879 0.996597 0.066373
O O7 0.250000 0.035130 0.943994
O O8 0.833618 0.492328 0.825597
O O9 0.750000 0.746776 0.853031
O O10 0.750000 0.527759 0.944523
O O11 0.114179 0.501584 0.697743
O O12 0.000000 0.500000 0.795434
O O13 0.666452 0.990841 0.563801
O O14 0.596769 0.753535 0.624270
O O15 0.500000 0.000000 0.598291
O O16 0.250000 0.849371 0.157185
#
# Coordination Sequence:
#
# PCOD9364737 Si02
#       8
#     8   4   4   8   4   4   8   8
#     4  11  24  39  61  93 121 157 205 253 305 364
#     4   9  22  39  62  87 117 165 204 247 310 361
#     4  11  24  41  60  91 125 165 200 255 310 359
#     4  12  23  40  65  92 123 158 207 255 307 370
#     4  11  22  41  62  87 125 163 208 251 302 375
#     4  11  22  41  64  81 125 165 200 247 308 373
#     4  11  22  39  63  91 123 162 204 255 308 363
#     4  10  21  40  63  89 125 158 202 257 310 356
#
# _framework density 18.536701000000001
#
# number of rings (size 3 to 8) (size 9 to 14) (size 15 to 20)
#    0.500    0.667    1.667    6.000    0.000    3.333 
#    0.000    4.167    0.000    0.000    0.000    0.000 
#    0.000    0.000    0.000    0.000    0.000    0.000 
#
# Total GULP energy -134138.407984 kJ/mol
# GULP energy per Si atom -5589.100333 kJ/mol
# Density = 1.849451 g / cm^3
# Si number density = 18.536701 Si / 1000 Ang^3
#
#
#
# Elastic Constant Matrix: (Units=GPa)
#
#
# Indices 1 2 3 4 5 6 
#
# 1 142.7753 73.4320 91.8698 0.0000 0.0000 0.0000
# 2 73.4320 160.5730 94.4564 0.0000 0.0000 0.0000
# 3 91.8698 94.4564 148.7259 0.0000 0.0000 0.0000
# 4 0.0000 0.0000 0.0000 28.0571 0.0000 0.0000
# 5 0.0000 0.0000 0.0000 0.0000 -6.4385 0.0000
# 6 0.0000 0.0000 0.0000 0.0000 0.0000 33.9989
#
#
#
# Elastic Compliance Matrix: (Units=1/GPa)
#
#
# Indices 1 2 3 4 5 6 
#
# 1 0.011938 -0.001790 -0.006237 0.000000 0.000000 0.000000
# 2 -0.001790 0.010211 -0.005379 0.000000 0.000000 0.000000
# 3 -0.006237 -0.005379 0.013993 0.000000 0.000000 0.000000
# 4 0.000000 0.000000 0.000000 0.035642 0.000000 0.000000
# 5 0.000000 0.000000 0.000000 0.000000 -0.155316 0.000000
# 6 0.000000 0.000000 0.000000 0.000000 0.000000 0.029413
#
#
# Mechanical properties :
#
#
# Convention : Reuss Voigt Hill
#
# Bulk Modulus (GPa) = 107.19847 107.95452 107.57650
# Shear Modulus (GPa) = -206.63585 23.94455 -91.34565
#
# Velocity S-wave (km/s) = -10.56957 3.59797 -7.02746
# Velocity P-wave (km/s) = 9.53932 8.69628 2.77249
#
# Compressibility (1/GPa) = 0.00932849
#
# Stress axis : x y z
#
# Youngs Moduli (GPa) = 83.76380 97.93812 71.46575
#
# Poissons Ratio (x) = 0.17536 0.44575
# Poissons Ratio (y) = 0.14998 0.38440
# Poissons Ratio (z) = 0.52246 0.52678
#
# Static dielectric constant tensor:
#      x y z
#    x 1.631500 0.000000 0.000000 
#    y 0.000000 1.619040 0.000000 
#    z 0.000000 0.000000 1.612520 
# 
# From -- ./inp_files/23011.got.cif
#   From: 2010.05.17/outbox.cif.g08.bks.cpg/sg40_12_cif.got.tgz:23011.got - 2010.06.03 18:35:42.
