data_PCOD9364402
_publ_section_title
;
Structure prediction by ZEFSAII (Michael W. Deem and Ramdas Pophale) SiO2 
 PCOD9364402
Probable space group: A M A 2
;
_chemical_formula_sum "Si O2"
_cell_formula_units_Z 60
_cell_length_a 24.505557
_cell_length_b 5.249965
_cell_length_c 19.661936
_cell_angle_alpha 90.000000
_cell_angle_beta 90.000000
_cell_angle_gamma 90.000000
_cell_volume 2529.573276
_symmetry_space_group_name_H-M "A M A 2"
_symmetry_group_IT_number 40
_symmetry_cell_setting 'orthorhombic'
loop_
_space_group_symop_operation_xyz
x,y,z
-x,-y,z
1/2-x,y,z
1/2+x,-y,z
x,1/2+y,1/2+z
-x,1/2-y,1/2+z
1/2-x,1/2+y,1/2+z
1/2+x,1/2-y,1/2+z
loop_
_atom_site_type_symbol
_atom_site_label
_atom_site_fract_x
_atom_site_fract_y
_atom_site_fract_z
Si Si1 0.815029 0.704852 0.439100
Si Si2 0.250000 0.035300 0.776033
Si Si3 0.055717 0.617124 0.278271
Si Si4 0.371943 0.047772 0.562151
Si Si5 0.845841 0.707384 0.860984
Si Si6 0.532677 0.755138 0.031915
Si Si7 0.351134 0.297904 0.202660
Si Si8 0.931967 0.565179 0.652730
O O1 0.750000 0.694230 0.431695
O O2 0.832972 0.792092 0.513805
O O3 0.836539 0.927487 0.390065
O O4 0.836776 0.432542 0.415840
O O5 0.201220 0.223202 0.806395
O O6 0.297875 0.844249 0.745746
O O7 0.093479 0.763308 0.331579
O O8 0.097064 0.414103 0.243629
O O9 0.040211 0.800128 0.215845
O O10 0.000000 0.500000 0.306237
O O11 0.404536 0.830489 0.519733
O O12 0.343835 0.932964 0.629033
O O13 0.417751 0.235931 0.593263
O O14 0.500000 0.500000 0.015851
O O15 0.540313 0.829980 0.112617
O O16 0.500000 0.000000 0.002425
O O17 0.372992 0.020501 0.182550
#
# Coordination Sequence:
#
# PCOD9364402 Si02
#       8
#     8   4   8   8   8   8   8   8
#     4  12  26  49  75  97 133 187 236 294 343 409
#     4  10  20  46  66  98 138 178 228 288 352 408
#     4  10  24  41  69 101 140 181 227 285 342 416
#     4  10  24  41  65 104 139 175 231 283 347 417
#     4  11  26  48  73  99 132 184 245 281 342 405
#     4  11  22  38  65  97 141 183 219 268 338 425
#     4   9  22  38  65 106 141 174 220 284 359 420
#     4  10  22  39  66 104 144 177 221 281 353 417
#
# _framework density 23.719417
#
# number of rings (size 3 to 8) (size 9 to 14) (size 15 to 20)
#    0.000    1.600    2.667    0.000   14.000    0.000 
#    3.600    2.000    0.000    0.000    0.000    0.000 
#    0.000    0.000    0.000    0.000    0.000    0.000 
#
# Total GULP energy -167118.945808 kJ/mol
# GULP energy per Si atom -5570.631527 kJ/mol
# Density = 2.366543 g / cm^3
# Si number density = 23.719417 Si / 1000 Ang^3
#
#
#
# Elastic Constant Matrix: (Units=GPa)
#
#
# Indices 1 2 3 4 5 6 
#
# 1 126.3221 40.2399 32.2048 0.0000 0.0000 0.0000
# 2 40.2399 94.6365 17.5294 0.0000 0.0000 0.0000
# 3 32.2048 17.5294 47.2268 0.0000 0.0000 0.0000
# 4 0.0000 0.0000 0.0000 51.6488 0.0000 0.0000
# 5 0.0000 0.0000 0.0000 0.0000 25.1594 0.0000
# 6 0.0000 0.0000 0.0000 0.0000 0.0000 10.5305
#
#
#
# Elastic Compliance Matrix: (Units=1/GPa)
#
#
# Indices 1 2 3 4 5 6 
#
# 1 0.010495 -0.003369 -0.005906 0.000000 0.000000 0.000000
# 2 -0.003369 0.012428 -0.002316 0.000000 0.000000 0.000000
# 3 -0.005906 -0.002316 0.026062 0.000000 0.000000 0.000000
# 4 0.000000 0.000000 0.000000 0.019362 0.000000 0.000000
# 5 0.000000 0.000000 0.000000 0.000000 0.039747 0.000000
# 6 0.000000 0.000000 0.000000 0.000000 0.000000 0.094962
#
#
# Mechanical properties :
#
#
# Convention : Reuss Voigt Hill
#
# Bulk Modulus (GPa) = 38.75508 49.79260 44.27384
# Shear Modulus (GPa) = 21.29128 29.34851 25.31990
#
# Velocity S-wave (km/s) = 2.99930 3.52137 3.27077
# Velocity P-wave (km/s) = 5.32624 6.12955 5.74196
#
# Compressibility (1/GPa) = 0.02580307
#
# Stress axis : x y z
#
# Youngs Moduli (GPa) = 95.28230 80.46327 38.37036
#
# Poissons Ratio (x) = 0.27104 0.22663
# Poissons Ratio (y) = 0.32096 0.08886
# Poissons Ratio (z) = 0.56278 0.18635
#
# Static dielectric constant tensor:
#      x y z
#    x 1.950110 0.000000 0.000000 
#    y 0.000000 1.953670 0.000000 
#    z 0.000000 0.000000 1.938970 
# 
# From -- ./inp_files/23672.got.cif
#   From: 2010.05.17/outbox.cif.g08.bks.cpg/sg40_12_cif.got.tgz:23672.got - 2010.06.03 18:35:42.
