data_PCOD9364475
_publ_section_title
;
Structure prediction by ZEFSAII (Michael W. Deem and Ramdas Pophale) SiO2 
 PCOD9364475
Probable space group: A M A 2
;
_chemical_formula_sum "Si O2"
_cell_formula_units_Z 56
_cell_length_a 15.891738
_cell_length_b 5.087829
_cell_length_c 31.620354
_cell_angle_alpha 90.000000
_cell_angle_beta 90.000000
_cell_angle_gamma 90.000000
_cell_volume 2556.646188
_symmetry_space_group_name_H-M "A M A 2"
_symmetry_group_IT_number 40
_symmetry_cell_setting 'orthorhombic'
loop_
_space_group_symop_operation_xyz
x,y,z
-x,-y,z
1/2-x,y,z
1/2+x,-y,z
x,1/2+y,1/2+z
-x,1/2-y,1/2+z
1/2-x,1/2+y,1/2+z
1/2+x,1/2-y,1/2+z
loop_
_atom_site_type_symbol
_atom_site_label
_atom_site_fract_x
_atom_site_fract_y
_atom_site_fract_z
Si Si1 0.599750 0.452506 0.340250
Si Si2 0.600618 0.455944 0.883066
Si Si3 0.905572 0.386601 0.524774
Si Si4 0.653389 0.885645 0.476555
Si Si5 0.851302 0.160661 0.254694
Si Si6 0.059569 0.248737 0.115037
Si Si7 0.851126 0.162643 0.703399
O O1 0.500000 0.500000 0.344830
O O2 0.634749 0.248191 0.374975
O O3 0.614109 0.297116 0.296840
O O4 0.634000 0.745129 0.348618
O O5 0.500000 0.500000 0.879156
O O6 0.620192 0.345937 0.929131
O O7 0.853312 0.620729 0.503779
O O8 0.885723 0.312407 0.573262
O O9 0.000000 0.500000 0.524817
O O10 0.897979 0.122192 0.497814
O O11 0.750000 0.970475 0.474484
O O12 0.750000 0.150495 0.259579
O O13 0.872382 0.369574 0.218072
O O14 0.881108 0.875864 0.238532
O O15 0.111996 0.288697 0.157421
O O16 0.000000 0.500000 0.106401
O O17 0.000000 0.000000 0.121931
O O18 0.750000 0.186199 0.702047
#
# Coordination Sequence:
#
# PCOD9364475 Si02
#       7
#     8   8   8   8   8   8   8
#     4  10  21  36  57  84 114 153 204 251 295 353
#     4  10  21  38  58  83 117 159 201 247 306 365
#     4  11  23  43  65  88 124 167 203 248 313 378
#     4  12  25  40  63  96 125 157 208 260 308 367
#     4  10  21  37  57  83 117 158 198 239 298 361
#     4  11  23  41  64  92 119 153 204 250 294 355
#     4  10  22  39  59  86 121 159 195 239 301 361
#
# _framework density 21.903696
#
# number of rings (size 3 to 8) (size 9 to 14) (size 15 to 20)
#    0.000    1.429    0.000    6.000    0.000    5.143 
#    0.000    1.429    0.000    0.000    0.000    0.000 
#    0.000    0.000    0.000    0.000    0.000    0.000 
#
# Total GULP energy -156468.013053 kJ/mol
# GULP energy per Si atom -5588.143323 kJ/mol
# Density = 2.185384 g / cm^3
# Si number density = 21.903696 Si / 1000 Ang^3
#
#
#
# Elastic Constant Matrix: (Units=GPa)
#
#
# Indices 1 2 3 4 5 6 
#
# 1 11.0444 15.3247 -2.4538 0.0000 0.0000 0.0000
# 2 15.3247 108.9510 17.0090 0.0000 0.0000 0.0000
# 3 -2.4538 17.0090 83.3300 0.0000 0.0000 0.0000
# 4 0.0000 0.0000 0.0000 77.3265 0.0000 0.0000
# 5 0.0000 0.0000 0.0000 0.0000 49.6697 0.0000
# 6 0.0000 0.0000 0.0000 0.0000 0.0000 20.3803
#
#
#
# Elastic Compliance Matrix: (Units=1/GPa)
#
#
# Indices 1 2 3 4 5 6 
#
# 1 0.116310 -0.017451 0.006987 0.000000 0.000000 0.000000
# 2 -0.017451 0.012099 -0.002983 0.000000 0.000000 0.000000
# 3 0.006987 -0.002983 0.012815 0.000000 0.000000 0.000000
# 4 0.000000 0.000000 0.000000 0.012932 0.000000 0.000000
# 5 0.000000 0.000000 0.000000 0.000000 0.020133 0.000000
# 6 0.000000 0.000000 0.000000 0.000000 0.000000 0.049067
#
#
# Mechanical properties :
#
#
# Convention : Reuss Voigt Hill
#
# Bulk Modulus (GPa) = 8.74665 29.23169 18.98917
# Shear Modulus (GPa) = 17.33945 41.03833 29.18889
#
# Velocity S-wave (km/s) = 2.81663 4.33318 3.65444
# Velocity P-wave (km/s) = 3.81835 6.19757 5.14731
#
# Compressibility (1/GPa) = 0.11432944
#
# Stress axis : x y z
#
# Youngs Moduli (GPa) = 8.59774 82.65323 78.03246
#
# Poissons Ratio (x) = 1.44234 -0.54520
# Poissons Ratio (y) = 0.15004 0.23280
# Poissons Ratio (z) = -0.06007 0.24659
#
# Static dielectric constant tensor:
#      x y z
#    x 1.789810 0.000000 0.000000 
#    y 0.000000 1.795830 0.000000 
#    z 0.000000 0.000000 1.813290 
# 
# From -- ./inp_files/26600.got.cif
#   From: 2010.05.17/outbox.cif.g08.bks.cpg/sg40_14_cif.got.tgz:26600.got - 2010.06.03 18:35:42.
