data_PCOD9364993
_publ_section_title
;
Structure prediction by ZEFSAII (Michael W. Deem and Ramdas Pophale) SiO2 
 PCOD9364993
Probable space group: A M A 2
;
_chemical_formula_sum "Si O2"
_cell_formula_units_Z 48
_cell_length_a 29.550659
_cell_length_b 14.312852
_cell_length_c 4.965418
_cell_angle_alpha 90.000000
_cell_angle_beta 90.000000
_cell_angle_gamma 90.000000
_cell_volume 2100.144441
_symmetry_space_group_name_H-M "A M A 2"
_symmetry_group_IT_number 40
_symmetry_cell_setting 'orthorhombic'
loop_
_space_group_symop_operation_xyz
x,y,z
-x,-y,z
1/2-x,y,z
1/2+x,-y,z
x,1/2+y,1/2+z
-x,1/2-y,1/2+z
1/2-x,1/2+y,1/2+z
1/2+x,1/2-y,1/2+z
loop_
_atom_site_type_symbol
_atom_site_label
_atom_site_fract_x
_atom_site_fract_y
_atom_site_fract_z
Si Si1 0.701516 0.993194 0.082650
Si Si2 0.827872 0.900029 0.588223
Si Si3 0.058113 0.229489 0.807759
Si Si4 0.381771 0.242032 0.280479
Si Si5 0.884022 0.554003 0.298313
Si Si6 0.479664 0.904014 0.638825
O O1 0.750000 0.038946 0.016972
O O2 0.701816 0.960319 0.386042
O O3 0.653643 0.045108 0.032895
O O4 0.695040 0.904740 0.878946
O O5 0.840799 0.807042 0.433344
O O6 0.873453 0.962871 0.621337
O O7 0.080060 0.244426 0.515112
O O8 0.018118 0.154640 0.791205
O O9 0.096067 0.193719 0.020578
O O10 0.039652 0.327871 0.926223
O O11 0.370482 0.345503 0.178158
O O12 0.937697 0.562984 0.326600
O O13 0.500000 0.000000 0.521250
#
# Coordination Sequence:
#
# PCOD9364993 Si02
#       6
#     8   8   8   8   8   8
#     4  10  22  43  67  95 131 163 215 279 331 401
#     4  10  22  40  69  92 125 171 212 268 336 394
#     4  11  25  43  62 100 139 177 228 288 313 385
#     4  11  23  44  67  92 137 173 223 274 329 388
#     4   9  24  39  66  94 126 172 217 262 328 389
#     4  11  23  43  66  97 137 184 225 271 331 394
#
# _framework density 22.85557
#
# number of rings (size 3 to 8) (size 9 to 14) (size 15 to 20)
#    1.000    0.667    0.000    4.500    7.000    0.000 
#    0.000   13.333    0.000    0.000    0.000    0.000 
#    0.000    0.000    0.000    0.000    0.000    0.000 
#
# Total GULP energy -133659.891097 kJ/mol
# GULP energy per Si atom -5569.162129 kJ/mol
# Density = 2.280355 g / cm^3
# Si number density = 22.855570 Si / 1000 Ang^3
#
#
#
# Elastic Constant Matrix: (Units=GPa)
#
#
# Indices 1 2 3 4 5 6 
#
# 1 69.0061 13.8407 2.3548 0.0000 0.0000 0.0000
# 2 13.8407 82.1868 2.9631 0.0000 0.0000 0.0000
# 3 2.3548 2.9631 78.1914 0.0000 0.0000 0.0000
# 4 0.0000 0.0000 0.0000 23.4216 0.0000 0.0000
# 5 0.0000 0.0000 0.0000 0.0000 17.6410 0.0000
# 6 0.0000 0.0000 0.0000 0.0000 0.0000 2.5011
#
#
#
# Elastic Compliance Matrix: (Units=1/GPa)
#
#
# Indices 1 2 3 4 5 6 
#
# 1 0.015008 -0.002515 -0.000357 0.000000 0.000000 0.000000
# 2 -0.002515 0.012605 -0.000402 0.000000 0.000000 0.000000
# 3 -0.000357 -0.000402 0.012815 0.000000 0.000000 0.000000
# 4 0.000000 0.000000 0.000000 0.042696 0.000000 0.000000
# 5 0.000000 0.000000 0.000000 0.000000 0.056686 0.000000
# 6 0.000000 0.000000 0.000000 0.000000 0.000000 0.399822
#
#
# Mechanical properties :
#
#
# Convention : Reuss Voigt Hill
#
# Bulk Modulus (GPa) = 29.51416 29.74461 29.62939
# Shear Modulus (GPa) = 8.96904 22.72777 15.84841
#
# Velocity S-wave (km/s) = 1.98312 3.15685 2.63614
# Velocity P-wave (km/s) = 4.26439 5.13127 4.71779
#
# Compressibility (1/GPa) = 0.03388204
#
# Stress axis : x y z
#
# Youngs Moduli (GPa) = 66.63113 79.33128 78.03288
#
# Poissons Ratio (x) = 0.19948 0.02783
# Poissons Ratio (y) = 0.16755 0.03137
# Poissons Ratio (z) = 0.02377 0.03189
#
# Static dielectric constant tensor:
#      x y z
#    x 1.947450 0.000000 0.000000 
#    y 0.000000 1.869760 0.000000 
#    z 0.000000 0.000000 1.840090 
# 
# From -- ./inp_files/2774.got.cif
#   From: 2010.05.17/outbox.cif.g08.bks.cpg/sg40_2_cif.got.tgz:2774.got - 2010.06.03 18:35:42.
