data_PCOD9364758
_publ_section_title
;
Structure prediction by ZEFSAII (Michael W. Deem and Ramdas Pophale) SiO2 
 PCOD9364758
Probable space group: A M A 2
;
_chemical_formula_sum "Si O2"
_cell_formula_units_Z 48
_cell_length_a 15.824412
_cell_length_b 9.755880
_cell_length_c 15.223341
_cell_angle_alpha 90.000000
_cell_angle_beta 90.000000
_cell_angle_gamma 90.000000
_cell_volume 2350.195589
_symmetry_space_group_name_H-M "A M A 2"
_symmetry_group_IT_number 40
_symmetry_cell_setting 'orthorhombic'
loop_
_space_group_symop_operation_xyz
x,y,z
-x,-y,z
1/2-x,y,z
1/2+x,-y,z
x,1/2+y,1/2+z
-x,1/2-y,1/2+z
1/2-x,1/2+y,1/2+z
1/2+x,1/2-y,1/2+z
loop_
_atom_site_type_symbol
_atom_site_label
_atom_site_fract_x
_atom_site_fract_y
_atom_site_fract_z
Si Si1 0.882471 0.933042 0.522610
Si Si2 0.156623 0.248667 0.677313
Si Si3 0.970077 0.343634 0.330692
Si Si4 0.437308 0.769768 0.522420
Si Si5 0.914337 0.903880 0.330592
Si Si6 0.151425 0.547659 0.640857
O O1 0.836061 0.865401 0.603063
O O2 0.862348 0.912312 0.420279
O O3 0.972572 0.849258 0.530090
O O4 0.879473 0.096502 0.533515
O O5 0.250000 0.277270 0.714795
O O6 0.094106 0.198527 0.753332
O O7 0.128908 0.387866 0.626893
O O8 0.934000 0.299288 0.426049
O O9 0.000000 0.500000 0.328158
O O10 0.051544 0.248532 0.318304
O O11 0.409908 0.653444 0.591213
O O12 0.862746 0.941290 0.245028
O O13 0.000000 0.000000 0.338710
O O14 0.250000 0.571170 0.617090
#
# Coordination Sequence:
#
# PCOD9364758 Si02
#       6
#     8   8   8   8   8   8
#     4  10  21  40  65  93 120 156 207 258 305 361
#     4  11  25  42  61  91 130 166 201 251 312 370
#     4  11  24  40  66  95 119 161 208 261 307 359
#     4  10  22  40  64  94 119 157 210 256 304 362
#     4  11  20  42  66  91 119 158 213 254 304 363
#     4  11  25  41  62  92 128 167 203 249 310 373
#
# _framework density 20.423832000000001
#
# number of rings (size 3 to 8) (size 9 to 14) (size 15 to 20)
#    0.000    1.333    5.000    1.000    9.333    2.000 
#    0.000    0.000    0.000    0.000    0.000    0.000 
#    0.000    0.000    0.000    0.000    0.000    0.000 
#
# Total GULP energy -133816.362751 kJ/mol
# GULP energy per Si atom -5575.681781 kJ/mol
# Density = 2.037735 g / cm^3
# Si number density = 20.423832 Si / 1000 Ang^3
#
#
#
# Elastic Constant Matrix: (Units=GPa)
#
#
# Indices 1 2 3 4 5 6 
#
# 1 40.8140 35.0070 31.5363 0.0000 0.0000 0.0000
# 2 35.0070 170.5389 32.0138 0.0000 0.0000 0.0000
# 3 31.5363 32.0138 98.8231 0.0000 0.0000 0.0000
# 4 0.0000 0.0000 0.0000 34.5557 0.0000 0.0000
# 5 0.0000 0.0000 0.0000 0.0000 17.1430 0.0000
# 6 0.0000 0.0000 0.0000 0.0000 0.0000 11.0371
#
#
#
# Elastic Compliance Matrix: (Units=1/GPa)
#
#
# Indices 1 2 3 4 5 6 
#
# 1 0.037157 -0.005751 -0.009994 0.000000 0.000000 0.000000
# 2 -0.005751 0.007134 -0.000476 0.000000 0.000000 0.000000
# 3 -0.009994 -0.000476 0.013463 0.000000 0.000000 0.000000
# 4 0.000000 0.000000 0.000000 0.028939 0.000000 0.000000
# 5 0.000000 0.000000 0.000000 0.000000 0.058333 0.000000
# 6 0.000000 0.000000 0.000000 0.000000 0.000000 0.090603
#
#
# Mechanical properties :
#
#
# Convention : Reuss Voigt Hill
#
# Bulk Modulus (GPa) = 39.50902 56.36556 47.93729
# Shear Modulus (GPa) = 18.08276 26.65509 22.36893
#
# Velocity S-wave (km/s) = 2.97875 3.61653 3.31303
# Velocity P-wave (km/s) = 5.58724 6.71542 6.17714
#
# Compressibility (1/GPa) = 0.02531067
#
# Stress axis : x y z
#
# Youngs Moduli (GPa) = 26.91312 140.18167 74.28017
#
# Poissons Ratio (x) = 0.80620 0.74238
# Poissons Ratio (y) = 0.15478 0.03533
# Poissons Ratio (z) = 0.26898 0.06668
#
# Static dielectric constant tensor:
#      x y z
#    x 1.806470 0.000000 0.000000 
#    y 0.000000 1.767430 0.000000 
#    z 0.000000 0.000000 1.721020 
# 
# From -- ./inp_files/17651.got.cif
#   From: 2010.05.17/outbox.cif.g08.bks.cpg/sg40_9_cif.got.tgz:17651.got - 2010.06.03 18:35:42.
