data_PCOD9364819
_publ_section_title
;
Structure prediction by ZEFSAII (Michael W. Deem and Ramdas Pophale) SiO2 
 PCOD9364819
Probable space group: A M A 2
;
_chemical_formula_sum "Si O2"
_cell_formula_units_Z 56
_cell_length_a 14.427805
_cell_length_b 12.973724
_cell_length_c 12.696497
_cell_angle_alpha 90.000000
_cell_angle_beta 90.000000
_cell_angle_gamma 90.000000
_cell_volume 2376.560272
_symmetry_space_group_name_H-M "A M A 2"
_symmetry_group_IT_number 40
_symmetry_cell_setting 'orthorhombic'
loop_
_space_group_symop_operation_xyz
x,y,z
-x,-y,z
1/2-x,y,z
1/2+x,-y,z
x,1/2+y,1/2+z
-x,1/2-y,1/2+z
1/2-x,1/2+y,1/2+z
1/2+x,1/2-y,1/2+z
loop_
_atom_site_type_symbol
_atom_site_label
_atom_site_fract_x
_atom_site_fract_y
_atom_site_fract_z
Si Si1 0.640807 0.452938 0.035740
Si Si2 0.858634 0.639414 0.869250
Si Si3 0.491277 0.233860 0.483554
Si Si4 0.859266 0.529909 0.263514
Si Si5 0.361870 0.248446 0.173112
Si Si6 0.148442 0.521441 0.709534
Si Si7 0.906987 0.547144 0.495373
O O1 0.750000 0.421801 0.036034
O O2 0.609305 0.474585 0.156339
O O3 0.636883 0.558458 0.967654
O O4 0.572957 0.367179 0.989097
O O5 0.750000 0.673491 0.858654
O O6 0.895536 0.573246 0.770558
O O7 0.934202 0.727719 0.888963
O O8 0.563595 0.240833 0.580563
O O9 0.423196 0.331458 0.485927
O O10 0.750000 0.512418 0.266451
O O11 0.873283 0.652098 0.245874
O O12 0.893958 0.501411 0.379080
O O13 0.250000 0.246782 0.141612
O O14 0.383701 0.137713 0.222731
O O15 0.250000 0.523278 0.761595
O O16 0.158524 0.491017 0.587618
O O17 0.000000 0.500000 0.540989
#
# Coordination Sequence:
#
# PCOD9364819 Si02
#       7
#     8   8   8   8   8   8   8
#     4  10  23  43  68 100 132 172 226 277 337 392
#     4  10  22  43  71 101 131 173 224 280 333 393
#     4  12  24  41  69 103 134 171 219 290 333 400
#     4  10  23  44  67  92 132 177 224 274 327 402
#     4  10  21  41  70  99 130 179 225 266 329 403
#     4  10  23  46  68  92 135 179 224 275 331 400
#     4  12  27  42  60  97 135 177 222 272 341 404
#
# _framework density 23.563466999999999
#
# number of rings (size 3 to 8) (size 9 to 14) (size 15 to 20)
#    0.000    1.429    2.857    1.286    4.000    3.429 
#    0.000    0.000    0.000    0.000    0.000    0.000 
#    0.000    0.000    0.000    0.000    0.000    0.000 
#
# Total GULP energy -156294.429565 kJ/mol
# GULP energy per Si atom -5581.943913 kJ/mol
# Density = 2.350984 g / cm^3
# Si number density = 23.563467 Si / 1000 Ang^3
#
#
#
# Elastic Constant Matrix: (Units=GPa)
#
#
# Indices 1 2 3 4 5 6 
#
# 1 90.7159 13.0512 6.4897 0.0000 0.0000 0.0000
# 2 13.0512 58.0518 -14.2168 0.0000 0.0000 0.0000
# 3 6.4897 -14.2168 84.5628 0.0000 0.0000 0.0000
# 4 0.0000 0.0000 0.0000 -2.9532 0.0000 0.0000
# 5 0.0000 0.0000 0.0000 0.0000 -104.4289 0.0000
# 6 0.0000 0.0000 0.0000 0.0000 0.0000 -4.6804
#
#
#
# Elastic Compliance Matrix: (Units=1/GPa)
#
#
# Indices 1 2 3 4 5 6 
#
# 1 0.011544 -0.002933 -0.001379 0.000000 0.000000 0.000000
# 2 -0.002933 0.018711 0.003371 0.000000 0.000000 0.000000
# 3 -0.001379 0.003371 0.012498 0.000000 0.000000 0.000000
# 4 0.000000 0.000000 0.000000 -0.338610 0.000000 0.000000
# 5 0.000000 0.000000 0.000000 0.000000 -0.009576 0.000000
# 6 0.000000 0.000000 0.000000 0.000000 0.000000 -0.213659
#
#
# Mechanical properties :
#
#
# Convention : Reuss Voigt Hill
#
# Bulk Modulus (GPa) = 24.46758 27.10875 25.78816
# Shear Modulus (GPa) = -9.92879 -7.21208 -8.57044
#
# Velocity S-wave (km/s) = -2.05494 -1.75138 -1.90921
# Velocity P-wave (km/s) = 2.18537 2.72759 2.47140
#
# Compressibility (1/GPa) = 0.04087041
#
# Stress axis : x y z
#
# Youngs Moduli (GPa) = 86.62465 53.44474 80.01233
#
# Poissons Ratio (x) = 0.15676 0.11034
# Poissons Ratio (y) = 0.25408 -0.26971
# Poissons Ratio (z) = 0.11946 -0.18015
#
# Static dielectric constant tensor:
#      x y z
#    x 2.975330 0.000000 0.000000 
#    y 0.000000 1.914830 0.000000 
#    z 0.000000 0.000000 1.943990 
# 
# From -- ./inp_files/12237.got.cif
#   From: 2010.05.17/outbox.cif.g08.bks.cpg/sg40_7_cif.got.tgz:12237.got - 2010.06.03 18:35:42.
