data_PCOD9364213
_publ_section_title
;
Structure prediction by ZEFSAII (Michael W. Deem and Ramdas Pophale) SiO2 
 PCOD9364213
Probable space group: A M A 2
;
_chemical_formula_sum "Si O2"
_cell_formula_units_Z 64
_cell_length_a 21.178470
_cell_length_b 14.806895
_cell_length_c 10.285293
_cell_angle_alpha 90.000000
_cell_angle_beta 90.000000
_cell_angle_gamma 90.000000
_cell_volume 3225.338100
_symmetry_space_group_name_H-M "A M A 2"
_symmetry_group_IT_number 40
_symmetry_cell_setting 'orthorhombic'
loop_
_space_group_symop_operation_xyz
x,y,z
-x,-y,z
1/2-x,y,z
1/2+x,-y,z
x,1/2+y,1/2+z
-x,1/2-y,1/2+z
1/2-x,1/2+y,1/2+z
1/2+x,1/2-y,1/2+z
loop_
_atom_site_type_symbol
_atom_site_label
_atom_site_fract_x
_atom_site_fract_y
_atom_site_fract_z
Si Si1 0.051863 0.579763 0.325860
Si Si2 0.676181 0.169697 0.199734
Si Si3 0.559108 0.776170 0.635050
Si Si4 0.675529 0.022895 0.409276
Si Si5 0.677561 0.005813 0.709243
Si Si6 0.523094 0.897623 0.116096
Si Si7 0.680081 0.169041 0.908802
Si Si8 0.596566 0.843429 0.372572
O O1 0.027017 0.668550 0.251186
O O2 0.117968 0.552733 0.257655
O O3 0.059719 0.598997 0.478906
O O4 0.000000 0.500000 0.314379
O O5 0.750000 0.192043 0.224667
O O6 0.630553 0.255332 0.183671
O O7 0.652701 0.101416 0.311292
O O8 0.672407 0.128674 0.053978
O O9 0.531236 0.677904 0.602852
O O10 0.556335 0.837092 0.505674
O O11 0.750000 0.016167 0.384119
O O12 0.643985 0.926955 0.384740
O O13 0.666417 0.040136 0.562320
O O14 0.750000 0.966356 0.712246
O O15 0.677406 0.090330 0.805509
O O16 0.560586 0.862319 0.240262
O O17 0.500000 0.000000 0.140193
O O18 0.750000 0.211117 0.907881
O O19 0.631655 0.247565 0.875974
#
# Coordination Sequence:
#
# PCOD9364213 Si02
#       8
#     8   8   8   8   8   8   8   8
#     4  11  26  44  65  92 130 172 212 266 326 383
#     4   9  20  37  65  93 125 162 207 259 315 379
#     4  11  23  43  62  93 124 170 211 260 322 382
#     4  10  20  38  62  93 126 161 205 260 314 373
#     4  10  22  41  64  91 126 167 211 259 316 376
#     4  11  26  42  63  88 126 166 213 269 316 379
#     4   9  20  37  62  90 121 161 202 252 312 374
#     4  11  22  38  63  90 121 159 208 259 311 378
#
# _framework density 19.842880999999998
#
# number of rings (size 3 to 8) (size 9 to 14) (size 15 to 20)
#    0.000    1.750    1.250    1.875   10.500    2.500 
#    2.250    0.625    0.000    0.000    0.000    0.000 
#    0.000    0.000    0.000    0.000    0.000    0.000 
#
# Total GULP energy -178478.742369 kJ/mol
# GULP energy per Si atom -5577.460699 kJ/mol
# Density = 1.979772 g / cm^3
# Si number density = 19.842881 Si / 1000 Ang^3
#
#
#
# Elastic Constant Matrix: (Units=GPa)
#
#
# Indices 1 2 3 4 5 6 
#
# 1 50.0176 24.8960 57.6655 0.0000 0.0000 0.0000
# 2 24.8960 73.3319 58.9271 0.0000 0.0000 0.0000
# 3 57.6655 58.9271 149.0914 0.0000 0.0000 0.0000
# 4 0.0000 0.0000 0.0000 37.1504 0.0000 0.0000
# 5 0.0000 0.0000 0.0000 0.0000 28.8438 0.0000
# 6 0.0000 0.0000 0.0000 0.0000 0.0000 25.4920
#
#
#
# Elastic Compliance Matrix: (Units=1/GPa)
#
#
# Indices 1 2 3 4 5 6 
#
# 1 0.036199 -0.001522 -0.013399 0.000000 0.000000 0.000000
# 2 -0.001522 0.020047 -0.007335 0.000000 0.000000 0.000000
# 3 -0.013399 -0.007335 0.014789 0.000000 0.000000 0.000000
# 4 0.000000 0.000000 0.000000 0.026918 0.000000 0.000000
# 5 0.000000 0.000000 0.000000 0.000000 0.034670 0.000000
# 6 0.000000 0.000000 0.000000 0.000000 0.000000 0.039228
#
#
# Mechanical properties :
#
#
# Convention : Reuss Voigt Hill
#
# Bulk Modulus (GPa) = 37.70389 61.71314 49.70851
# Shear Modulus (GPa) = 22.20214 27.02740 24.61477
#
# Velocity S-wave (km/s) = 3.34862 3.69463 3.52587
# Velocity P-wave (km/s) = 5.83039 7.02629 6.45609
#
# Compressibility (1/GPa) = 0.02652246
#
# Stress axis : x y z
#
# Youngs Moduli (GPa) = 27.62529 49.88170 67.61832
#
# Poissons Ratio (x) = 0.07593 0.90604
# Poissons Ratio (y) = 0.04205 0.49597
# Poissons Ratio (z) = 0.37016 0.36587
#
# Static dielectric constant tensor:
#      x y z
#    x 1.766510 0.000000 0.000000 
#    y 0.000000 1.681370 0.000000 
#    z 0.000000 0.000000 1.705340 
# 
# From -- ./inp_files/8913.got.cif
#   From: 2010.05.17/outbox.cif.g08.bks.cpg/sg40_5_cif.got.tgz:8913.got - 2010.06.03 18:35:42.
