data_PCOD9364848
_publ_section_title
;
Structure prediction by ZEFSAII (Michael W. Deem and Ramdas Pophale) SiO2 
 PCOD9364848
Probable space group: A M A 2
;
_chemical_formula_sum "Si O2"
_cell_formula_units_Z 60
_cell_length_a 21.223248
_cell_length_b 8.881786
_cell_length_c 17.913350
_cell_angle_alpha 90.000000
_cell_angle_beta 90.000000
_cell_angle_gamma 90.000000
_cell_volume 3376.672690
_symmetry_space_group_name_H-M "A M A 2"
_symmetry_group_IT_number 40
_symmetry_cell_setting 'orthorhombic'
loop_
_space_group_symop_operation_xyz
x,y,z
-x,-y,z
1/2-x,y,z
1/2+x,-y,z
x,1/2+y,1/2+z
-x,1/2-y,1/2+z
1/2-x,1/2+y,1/2+z
1/2+x,1/2-y,1/2+z
loop_
_atom_site_type_symbol
_atom_site_label
_atom_site_fract_x
_atom_site_fract_y
_atom_site_fract_z
Si Si1 0.896579 0.546232 0.420830
Si Si2 0.000000 0.500000 0.044050
Si Si3 0.175713 0.415407 0.265821
Si Si4 0.601018 0.365261 0.155714
Si Si5 0.445854 0.387847 0.762403
Si Si6 0.823020 0.933776 0.222636
Si Si7 0.323617 0.895389 0.073336
Si Si8 0.480587 0.250232 0.920500
O O1 0.853782 0.557278 0.347325
O O2 0.858202 0.571932 0.496374
O O3 0.930684 0.385012 0.426062
O O4 0.951166 0.671856 0.414940
O O5 0.056897 0.550769 0.097024
O O6 0.019541 0.362135 0.990468
O O7 0.250000 0.450155 0.266139
O O8 0.139655 0.520009 0.206935
O O9 0.168311 0.240585 0.242599
O O10 0.559863 0.258402 0.210173
O O11 0.646960 0.252020 0.111804
O O12 0.500000 0.500000 0.732984
O O13 0.377642 0.469016 0.762024
O O14 0.465411 0.339337 0.845010
O O15 0.750000 0.975848 0.241605
O O16 0.831096 0.971876 0.134807
O O17 0.250000 0.873706 0.059966
#
# Coordination Sequence:
#
# PCOD9364848 Si02
#       8
#     8   4   8   8   8   8   8   8
#     4  11  23  41  63  90 123 167 204 253 314 373
#     4  12  26  40  62  90 128 162 206 256 316 366
#     4  11  23  41  65  94 125 160 206 258 309 372
#     4  11  25  39  63  97 119 164 205 262 309 366
#     4  11  22  40  65  90 124 166 207 255 313 369
#     4   9  22  40  63  91 127 165 208 258 310 371
#     4  10  21  43  64  88 124 165 207 249 306 374
#     4  11  24  41  59  89 129 159 205 260 310 365
#
# _framework density 17.768969999999999
#
# number of rings (size 3 to 8) (size 9 to 14) (size 15 to 20)
#    0.000    1.333    3.333    1.600    5.600    1.600 
#    0.000    0.000    0.000    0.800    0.000    0.000 
#    0.000    0.000    0.000    0.000    0.000    0.000 
#
# Total GULP energy -167604.700818 kJ/mol
# GULP energy per Si atom -5586.823361 kJ/mol
# Density = 1.772853 g / cm^3
# Si number density = 17.768970 Si / 1000 Ang^3
#
#
#
# Elastic Constant Matrix: (Units=GPa)
#
#
# Indices 1 2 3 4 5 6 
#
# 1 121.4309 70.4242 85.5386 0.0000 0.0000 0.0000
# 2 70.4242 109.4389 73.8661 0.0000 0.0000 0.0000
# 3 85.5386 73.8661 143.9258 0.0000 0.0000 0.0000
# 4 0.0000 0.0000 0.0000 163.5084 0.0000 0.0000
# 5 0.0000 0.0000 0.0000 0.0000 29.6834 0.0000
# 6 0.0000 0.0000 0.0000 0.0000 0.0000 27.1069
#
#
#
# Elastic Compliance Matrix: (Units=1/GPa)
#
#
# Indices 1 2 3 4 5 6 
#
# 1 0.016459 -0.006103 -0.006650 0.000000 0.000000 0.000000
# 2 -0.006103 0.016243 -0.004709 0.000000 0.000000 0.000000
# 3 -0.006650 -0.004709 0.013317 0.000000 0.000000 0.000000
# 4 0.000000 0.000000 0.000000 0.006116 0.000000 0.000000
# 5 0.000000 0.000000 0.000000 0.000000 0.033689 0.000000
# 6 0.000000 0.000000 0.000000 0.000000 0.000000 0.036891
#
#
# Mechanical properties :
#
#
# Convention : Reuss Voigt Hill
#
# Bulk Modulus (GPa) = 90.12911 92.71704 91.42307
# Shear Modulus (GPa) = 30.99098 53.72417 42.35757
#
# Velocity S-wave (km/s) = 4.18078 5.50459 4.88771
# Velocity P-wave (km/s) = 8.61035 9.62772 9.13321
#
# Compressibility (1/GPa) = 0.01109519
#
# Stress axis : x y z
#
# Youngs Moduli (GPa) = 60.75791 61.56336 75.09214
#
# Poissons Ratio (x) = 0.37573 0.49933
# Poissons Ratio (y) = 0.37081 0.35363
# Poissons Ratio (z) = 0.40402 0.28992
#
# Static dielectric constant tensor:
#      x y z
#    x 1.594540 0.000000 0.000000 
#    y 0.000000 1.571330 0.000000 
#    z 0.000000 0.000000 1.573330 
# 
# From -- ./inp_files/21115.got.cif
#   From: 2010.05.17/outbox.cif.g08.bks.cpg/sg40_11_cif.got.tgz:21115.got - 2010.06.03 18:35:42.
