data_PCOD9364690
_publ_section_title
;
Structure prediction by ZEFSAII (Michael W. Deem and Ramdas Pophale) SiO2 
 PCOD9364690
Probable space group: A M A 2
;
_chemical_formula_sum "Si O2"
_cell_formula_units_Z 64
_cell_length_a 15.581528
_cell_length_b 18.435589
_cell_length_c 11.016241
_cell_angle_alpha 90.000000
_cell_angle_beta 90.000000
_cell_angle_gamma 90.000000
_cell_volume 3164.466411
_symmetry_space_group_name_H-M "A M A 2"
_symmetry_group_IT_number 40
_symmetry_cell_setting 'orthorhombic'
loop_
_space_group_symop_operation_xyz
x,y,z
-x,-y,z
1/2-x,y,z
1/2+x,-y,z
x,1/2+y,1/2+z
-x,1/2-y,1/2+z
1/2-x,1/2+y,1/2+z
1/2+x,1/2-y,1/2+z
loop_
_atom_site_type_symbol
_atom_site_label
_atom_site_fract_x
_atom_site_fract_y
_atom_site_fract_z
Si Si1 0.844586 0.578387 0.706420
Si Si2 0.344461 0.345136 0.066551
Si Si3 0.896450 0.311049 0.597273
Si Si4 0.983925 0.076056 0.413517
Si Si5 0.598569 0.473607 0.498885
Si Si6 0.348327 0.166276 0.377035
Si Si7 0.092786 0.802069 0.035606
Si Si8 0.650375 0.092048 0.837399
O O1 0.750000 0.573429 0.763596
O O2 0.927212 0.565641 0.791574
O O3 0.850341 0.518116 0.601479
O O4 0.855364 0.656717 0.641535
O O5 0.250000 0.371873 0.030340
O O6 0.346682 0.258699 0.048951
O O7 0.358278 0.375705 0.203036
O O8 0.423272 0.373502 0.990501
O O9 0.888038 0.388577 0.528681
O O10 0.864468 0.313414 0.736363
O O11 0.997406 0.291299 0.587100
O O12 0.077516 0.108092 0.395601
O O13 0.000000 0.000000 0.476594
O O14 0.500000 0.500000 0.513321
O O15 0.629013 0.508238 0.370026
O O16 0.250000 0.142272 0.390933
O O17 0.366825 0.231497 0.472189
O O18 0.091210 0.860373 0.925914
O O19 0.750000 0.104857 0.872107
#
# Coordination Sequence:
#
# PCOD9364690 Si02
#       8
#     8   8   8   8   8   8   8   8
#     4  11  22  39  65  96 134 171 213 276 340 400
#     4  11  25  44  65  93 135 186 229 279 348 420
#     4  12  22  38  66 101 134 172 224 278 341 412
#     4  12  26  44  65  94 127 177 234 277 337 409
#     4  11  20  36  62  99 131 168 221 285 342 399
#     4  12  24  41  67  99 136 173 218 279 340 410
#     4  11  20  38  65  98 131 170 220 268 332 409
#     4  10  21  39  64  93 130 178 225 272 339 413
#
# _framework density 20.22458
#
# number of rings (size 3 to 8) (size 9 to 14) (size 15 to 20)
#    0.000    0.750    6.250    4.125    0.000    4.500 
#    0.000    0.000    0.000    0.000    0.000    0.000 
#    0.000    0.000    0.000    0.000    0.000    0.000 
#
# Total GULP energy -178476.013060 kJ/mol
# GULP energy per Si atom -5577.375408 kJ/mol
# Density = 2.017855 g / cm^3
# Si number density = 20.224580 Si / 1000 Ang^3
#
#
#
# Elastic Constant Matrix: (Units=GPa)
#
#
# Indices 1 2 3 4 5 6 
#
# 1 156.9489 32.5501 25.9038 0.0000 0.0000 0.0000
# 2 32.5501 113.8892 21.6106 0.0000 0.0000 0.0000
# 3 25.9038 21.6106 34.4002 0.0000 0.0000 0.0000
# 4 0.0000 0.0000 0.0000 -29.1257 0.0000 0.0000
# 5 0.0000 0.0000 0.0000 0.0000 21.0394 0.0000
# 6 0.0000 0.0000 0.0000 0.0000 0.0000 -15.6656
#
#
#
# Elastic Compliance Matrix: (Units=1/GPa)
#
#
# Indices 1 2 3 4 5 6 
#
# 1 0.007418 -0.001204 -0.004830 0.000000 0.000000 0.000000
# 2 -0.001204 0.010164 -0.005479 0.000000 0.000000 0.000000
# 3 -0.004830 -0.005479 0.036148 0.000000 0.000000 0.000000
# 4 0.000000 0.000000 0.000000 -0.034334 0.000000 0.000000
# 5 0.000000 0.000000 0.000000 0.000000 0.047530 0.000000
# 6 0.000000 0.000000 0.000000 0.000000 0.000000 -0.063834
#
#
# Mechanical properties :
#
#
# Convention : Reuss Voigt Hill
#
# Bulk Modulus (GPa) = 32.56693 51.70749 42.13721
# Shear Modulus (GPa) = 137.54030 10.26118 73.90074
#
# Velocity S-wave (km/s) = 8.25555 2.25491 6.05140
# Velocity P-wave (km/s) = 10.34455 5.69225 8.34900
#
# Compressibility (1/GPa) = 0.03070600
#
# Stress axis : x y z
#
# Youngs Moduli (GPa) = 134.80182 98.38550 27.66373
#
# Poissons Ratio (x) = 0.11843 0.13361
# Poissons Ratio (y) = 0.16226 0.15156
# Poissons Ratio (z) = 0.65108 0.53903
#
# Static dielectric constant tensor:
#      x y z
#    x 1.723430 0.000000 0.000000 
#    y 0.000000 1.900770 0.000000 
#    z 0.000000 0.000000 1.730080 
# 
# From -- ./inp_files/12420.got.cif
#   From: 2010.05.17/outbox.cif.g08.bks.cpg/sg40_7_cif.got.tgz:12420.got - 2010.06.03 18:35:42.
