data_PCOD9364571
_publ_section_title
;
Structure prediction by ZEFSAII (Michael W. Deem and Ramdas Pophale) SiO2 
 PCOD9364571
Probable space group: A M A 2
;
_chemical_formula_sum "Si O2"
_cell_formula_units_Z 40
_cell_length_a 8.751265
_cell_length_b 9.771903
_cell_length_c 25.790050
_cell_angle_alpha 90.000000
_cell_angle_beta 90.000000
_cell_angle_gamma 90.000000
_cell_volume 2205.475139
_symmetry_space_group_name_H-M "A M A 2"
_symmetry_group_IT_number 40
_symmetry_cell_setting 'orthorhombic'
loop_
_space_group_symop_operation_xyz
x,y,z
-x,-y,z
1/2-x,y,z
1/2+x,-y,z
x,1/2+y,1/2+z
-x,1/2-y,1/2+z
1/2-x,1/2+y,1/2+z
1/2+x,1/2-y,1/2+z
loop_
_atom_site_type_symbol
_atom_site_label
_atom_site_fract_x
_atom_site_fract_y
_atom_site_fract_z
Si Si1 0.067023 0.847807 0.192240
Si Si2 0.567390 0.651150 0.399304
Si Si3 0.567182 0.150201 0.485158
Si Si4 0.066482 0.151318 0.788266
Si Si5 0.932500 0.650767 0.105869
O O1 0.250000 0.855468 0.188698
O O2 0.027947 0.758167 0.243141
O O3 0.002745 0.763698 0.143441
O O4 0.000000 0.000000 0.194802
O O5 0.500000 0.500000 0.407508
O O6 0.750000 0.646483 0.397533
O O7 0.509331 0.746521 0.445306
O O8 0.502720 0.696620 0.343355
O O9 0.750000 0.150159 0.478498
O O10 0.533967 0.183013 0.545507
O O11 0.500000 0.000000 0.475450
O O12 0.250000 0.140647 0.792519
O O13 0.000000 0.000000 0.776691
O O14 0.750000 0.645555 0.112384
O O15 0.000000 0.500000 0.117298
#
# Coordination Sequence:
#
# PCOD9364571 Si02
#       5
#     8   8   8   8   8
#     4  11  24  39  58  84 115 149 187 233 284 333
#     4  11  22  37  59  85 114 150 189 233 280 331
#     4  10  21  38  59  85 115 149 188 231 279 333
#     4  10  21  38  59  83 111 147 189 232 279 336
#     4  10  21  38  61  85 113 149 189 231 277 333
#
# _framework density 18.136682
#
# number of rings (size 3 to 8) (size 9 to 14) (size 15 to 20)
#    0.000    1.600    0.000    6.000    0.000    8.800 
#    0.000    2.000    0.000    0.000    0.000    0.000 
#    0.000    0.000    0.000    0.000    0.000    0.000 
#
# Total GULP energy -111788.414825 kJ/mol
# GULP energy per Si atom -5589.420741 kJ/mol
# Density = 1.809540 g / cm^3
# Si number density = 18.136682 Si / 1000 Ang^3
#
#
#
# Elastic Constant Matrix: (Units=GPa)
#
#
# Indices 1 2 3 4 5 6 
#
# 1 104.4551 72.0579 83.7746 0.0000 0.0000 0.0000
# 2 72.0579 130.5657 120.3875 0.0000 0.0000 0.0000
# 3 83.7746 120.3875 149.0633 0.0000 0.0000 0.0000
# 4 0.0000 0.0000 0.0000 44.0631 0.0000 0.0000
# 5 0.0000 0.0000 0.0000 0.0000 38.0846 0.0000
# 6 0.0000 0.0000 0.0000 0.0000 0.0000 37.4166
#
#
#
# Elastic Compliance Matrix: (Units=1/GPa)
#
#
# Indices 1 2 3 4 5 6 
#
# 1 0.017608 -0.002324 -0.008019 0.000000 0.000000 0.000000
# 2 -0.002324 0.030303 -0.023168 0.000000 0.000000 0.000000
# 3 -0.008019 -0.023168 0.029926 0.000000 0.000000 0.000000
# 4 0.000000 0.000000 0.000000 0.022695 0.000000 0.000000
# 5 0.000000 0.000000 0.000000 0.000000 0.026257 0.000000
# 6 0.000000 0.000000 0.000000 0.000000 0.000000 0.026726
#
#
# Mechanical properties :
#
#
# Convention : Reuss Voigt Hill
#
# Bulk Modulus (GPa) = 92.45310 104.05825 98.25568
# Shear Modulus (GPa) = 22.30737 31.10377 26.70557
#
# Velocity S-wave (km/s) = 3.51088 4.14571 3.84143
# Velocity P-wave (km/s) = 8.21714 8.96743 8.60047
#
# Compressibility (1/GPa) = 0.01081629
#
# Stress axis : x y z
#
# Youngs Moduli (GPa) = 56.79266 33.00016 33.41563
#
# Poissons Ratio (x) = 0.07668 0.26797
# Poissons Ratio (y) = 0.13196 0.77416
# Poissons Ratio (z) = 0.45543 0.76453
#
# Static dielectric constant tensor:
#      x y z
#    x 1.604330 0.000000 0.000000 
#    y 0.000000 1.564590 0.000000 
#    z 0.000000 0.000000 1.616130 
# 
# From -- ./inp_files/23804.got.cif
#   From: 2010.05.17/outbox.cif.g08.bks.cpg/sg40_12_cif.got.tgz:23804.got - 2010.06.03 18:35:42.
