data_PCOD9364747
_publ_section_title
;
Structure prediction by ZEFSAII (Michael W. Deem and Ramdas Pophale) SiO2 
 PCOD9364747
Probable space group: A M A 2
;
_chemical_formula_sum "Si O2"
_cell_formula_units_Z 64
_cell_length_a 19.052271
_cell_length_b 8.890219
_cell_length_c 20.262480
_cell_angle_alpha 90.000000
_cell_angle_beta 90.000000
_cell_angle_gamma 90.000000
_cell_volume 3432.035796
_symmetry_space_group_name_H-M "A M A 2"
_symmetry_group_IT_number 40
_symmetry_cell_setting 'orthorhombic'
loop_
_space_group_symop_operation_xyz
x,y,z
-x,-y,z
1/2-x,y,z
1/2+x,-y,z
x,1/2+y,1/2+z
-x,1/2-y,1/2+z
1/2-x,1/2+y,1/2+z
1/2+x,1/2-y,1/2+z
loop_
_atom_site_type_symbol
_atom_site_label
_atom_site_fract_x
_atom_site_fract_y
_atom_site_fract_z
Si Si1 0.547044 0.732590 0.799790
Si Si2 0.832055 0.245795 0.070340
Si Si3 0.927285 0.931229 0.670612
Si Si4 0.668211 0.235741 0.918436
Si Si5 0.423614 0.558316 0.425256
Si Si6 0.667495 0.717254 0.182560
Si Si7 0.332252 0.108190 0.048677
Si Si8 0.108329 0.090269 0.300060
O O1 0.553928 0.831959 0.734315
O O2 0.565070 0.832191 0.863564
O O3 0.468141 0.668640 0.804536
O O4 0.596906 0.587317 0.795239
O O5 0.750000 0.278146 0.086098
O O6 0.884444 0.332242 0.118140
O O7 0.841790 0.064988 0.072244
O O8 0.844907 0.286889 0.993665
O O9 0.878083 0.068875 0.692595
O O10 0.000000 0.000000 0.643552
O O11 0.750000 0.194185 0.914427
O O12 0.649705 0.361155 0.865344
O O13 0.621783 0.087910 0.905226
O O14 0.500000 0.500000 0.447346
O O15 0.382054 0.632296 0.486107
O O16 0.750000 0.684679 0.187741
O O17 0.653124 0.782868 0.109696
O O18 0.646552 0.840934 0.236568
O O19 0.250000 0.123119 0.030042
#
# Coordination Sequence:
#
# PCOD9364747 Si02
#       8
#     8   8   8   8   8   8   8   8
#     4  11  24  40  59  87 126 152 198 256 299 345
#     4   9  20  40  62  88 122 157 196 247 298 357
#     4  12  23  40  61  89 122 158 201 249 302 357
#     4  10  21  40  64  89 121 160 200 246 301 359
#     4  11  20  38  64  92 122 158 200 245 298 357
#     4  11  23  40  63  89 120 159 202 250 302 358
#     4   9  21  41  62  89 123 157 197 247 298 356
#     4  11  22  42  61  86 118 164 198 247 303 357
#
# _framework density 18.647822999999999
#
# number of rings (size 3 to 8) (size 9 to 14) (size 15 to 20)
#    0.000    1.500    2.500    3.750    0.000    3.000 
#    4.500    7.500    0.000    0.000    0.000    0.000 
#    0.000    0.000    0.000    0.000    0.000    0.000 
#
# Total GULP energy -178817.816695 kJ/mol
# GULP energy per Si atom -5588.056772 kJ/mol
# Density = 1.860538 g / cm^3
# Si number density = 18.647823 Si / 1000 Ang^3
#
#
#
# Elastic Constant Matrix: (Units=GPa)
#
#
# Indices 1 2 3 4 5 6 
#
# 1 86.2676 37.0140 46.4134 0.0000 0.0000 0.0000
# 2 37.0140 50.2526 39.4403 0.0000 0.0000 0.0000
# 3 46.4134 39.4403 77.3718 0.0000 0.0000 0.0000
# 4 0.0000 0.0000 0.0000 34.6414 0.0000 0.0000
# 5 0.0000 0.0000 0.0000 0.0000 38.5686 0.0000
# 6 0.0000 0.0000 0.0000 0.0000 0.0000 30.6838
#
#
#
# Elastic Compliance Matrix: (Units=1/GPa)
#
#
# Indices 1 2 3 4 5 6 
#
# 1 0.019044 -0.008436 -0.007124 0.000000 0.000000 0.000000
# 2 -0.008436 0.036907 -0.013753 0.000000 0.000000 0.000000
# 3 -0.007124 -0.013753 0.024208 0.000000 0.000000 0.000000
# 4 0.000000 0.000000 0.000000 0.028867 0.000000 0.000000
# 5 0.000000 0.000000 0.000000 0.000000 0.025928 0.000000
# 6 0.000000 0.000000 0.000000 0.000000 0.000000 0.032590
#
#
# Mechanical properties :
#
#
# Convention : Reuss Voigt Hill
#
# Bulk Modulus (GPa) = 46.43764 51.06971 48.75368
# Shear Modulus (GPa) = 21.42722 26.84705 24.13714
#
# Velocity S-wave (km/s) = 3.39344 3.79844 3.60163
# Velocity P-wave (km/s) = 6.34905 6.83252 6.59522
#
# Compressibility (1/GPa) = 0.02153426
#
# Stress axis : x y z
#
# Youngs Moduli (GPa) = 52.50952 27.09529 41.30793
#
# Poissons Ratio (x) = 0.22858 0.29427
# Poissons Ratio (y) = 0.44298 0.56809
# Poissons Ratio (z) = 0.37407 0.37263
#
# Static dielectric constant tensor:
#      x y z
#    x 1.631070 0.000000 0.000000 
#    y 0.000000 1.627800 0.000000 
#    z 0.000000 0.000000 1.620280 
# 
# From -- ./inp_files/23338.got.cif
#   From: 2010.05.17/outbox.cif.g08.bks.cpg/sg40_12_cif.got.tgz:23338.got - 2010.06.03 18:35:42.
