data_PCOD9364386
_publ_section_title
;
Structure prediction by ZEFSAII (Michael W. Deem and Ramdas Pophale) SiO2 
 PCOD9364386
Probable space group: A M A 2
;
_chemical_formula_sum "Si O2"
_cell_formula_units_Z 48
_cell_length_a 18.192665
_cell_length_b 8.510394
_cell_length_c 12.922040
_cell_angle_alpha 90.000000
_cell_angle_beta 90.000000
_cell_angle_gamma 90.000000
_cell_volume 2000.677419
_symmetry_space_group_name_H-M "A M A 2"
_symmetry_group_IT_number 40
_symmetry_cell_setting 'orthorhombic'
loop_
_space_group_symop_operation_xyz
x,y,z
-x,-y,z
1/2-x,y,z
1/2+x,-y,z
x,1/2+y,1/2+z
-x,1/2-y,1/2+z
1/2-x,1/2+y,1/2+z
1/2+x,1/2-y,1/2+z
loop_
_atom_site_type_symbol
_atom_site_label
_atom_site_fract_x
_atom_site_fract_y
_atom_site_fract_z
Si Si1 0.361162 0.679400 0.242460
Si Si2 0.542063 0.204672 0.986472
Si Si3 0.080110 0.986152 0.200839
Si Si4 0.374022 0.220581 0.055127
Si Si5 0.171106 0.573795 0.018517
Si Si6 0.250000 0.087121 0.920666
Si Si7 0.500000 0.000000 0.802353
O O1 0.369360 0.865814 0.262654
O O2 0.326627 0.650954 0.131685
O O3 0.313543 0.601963 0.330566
O O4 0.442965 0.604170 0.238464
O O5 0.545846 0.107148 0.881305
O O6 0.565310 0.102895 0.088771
O O7 0.455187 0.234959 0.004125
O O8 0.597399 0.349661 0.973150
O O9 0.111142 0.155732 0.170580
O O10 0.000000 0.000000 0.250668
O O11 0.337912 0.389306 0.038029
O O12 0.315663 0.099239 0.007766
O O13 0.250000 0.606283 0.965238
#
# Coordination Sequence:
#
# PCOD9364386 Si02
#       7
#     8   8   8   8   8   4   4
#     4  11  25  41  65  97 136 170 220 283 344 389
#     4  10  20  42  68  94 125 172 230 263 330 410
#     4   9  20  41  66  94 122 174 227 264 326 410
#     4  11  21  42  70  92 128 175 227 271 332 410
#     4  11  24  43  65  99 130 177 226 275 336 416
#     4  12  22  42  62  96 138 168 218 288 330 396
#     4  12  22  44  66 100 132 178 230 282 344 404
#
# _framework density 23.991872999999998
#
# number of rings (size 3 to 8) (size 9 to 14) (size 15 to 20)
#    0.000    1.333    5.833    0.500    7.000    0.667 
#   12.000    0.000    0.000    0.000    0.000    0.000 
#    0.000    0.000    0.000    0.000    0.000    0.000 
#
# Total GULP energy -133606.891533 kJ/mol
# GULP energy per Si atom -5566.953814 kJ/mol
# Density = 2.393727 g / cm^3
# Si number density = 23.991873 Si / 1000 Ang^3
#
#
#
# Elastic Constant Matrix: (Units=GPa)
#
#
# Indices 1 2 3 4 5 6 
#
# 1 174.7925 33.5063 15.0262 0.0000 0.0000 0.0000
# 2 33.5063 47.1386 -0.4598 0.0000 0.0000 0.0000
# 3 15.0262 -0.4598 15.9758 0.0000 0.0000 0.0000
# 4 0.0000 0.0000 0.0000 7.8165 0.0000 0.0000
# 5 0.0000 0.0000 0.0000 0.0000 74.6748 0.0000
# 6 0.0000 0.0000 0.0000 0.0000 0.0000 -3.4476
#
#
#
# Elastic Compliance Matrix: (Units=1/GPa)
#
#
# Indices 1 2 3 4 5 6 
#
# 1 0.007341 -0.005287 -0.007057 0.000000 0.000000 0.000000
# 2 -0.005287 0.025028 0.005693 0.000000 0.000000 0.000000
# 3 -0.007057 0.005693 0.069396 0.000000 0.000000 0.000000
# 4 0.000000 0.000000 0.000000 0.127934 0.000000 0.000000
# 5 0.000000 0.000000 0.000000 0.000000 0.013391 0.000000
# 6 0.000000 0.000000 0.000000 0.000000 0.000000 -0.290057
#
#
# Mechanical properties :
#
#
# Convention : Reuss Voigt Hill
#
# Bulk Modulus (GPa) = 11.30419 37.11694 24.21057
# Shear Modulus (GPa) = -1197.20628 28.46435 -584.37097
#
# Velocity S-wave (km/s) = -22.36265 3.44818 -15.62367
# Velocity P-wave (km/s) = 25.73057 5.59977 17.75817
#
# Compressibility (1/GPa) = 0.08846274
#
# Stress axis : x y z
#
# Youngs Moduli (GPa) = 136.21731 39.95587 14.41007
#
# Poissons Ratio (x) = 0.21125 0.10169
# Poissons Ratio (y) = 0.72018 -0.08204
# Poissons Ratio (z) = 0.96129 -0.22747
#
# Static dielectric constant tensor:
#      x y z
#    x 1.925630 0.000000 0.000000 
#    y 0.000000 2.036570 0.000000 
#    z 0.000000 0.000000 1.914110 
# 
# From -- ./inp_files/17661.got.cif
#   From: 2010.05.17/outbox.cif.g08.bks.cpg/sg40_9_cif.got.tgz:17661.got - 2010.06.03 18:35:42.
