data_PCOD9364836
_publ_section_title
;
Structure prediction by ZEFSAII (Michael W. Deem and Ramdas Pophale) SiO2 
 PCOD9364836
Probable space group: A M A 2
;
_chemical_formula_sum "Si O2"
_cell_formula_units_Z 60
_cell_length_a 25.009355
_cell_length_b 18.081682
_cell_length_c 6.300965
_cell_angle_alpha 90.000000
_cell_angle_beta 90.000000
_cell_angle_gamma 90.000000
_cell_volume 2849.366970
_symmetry_space_group_name_H-M "A M A 2"
_symmetry_group_IT_number 40
_symmetry_cell_setting 'orthorhombic'
loop_
_space_group_symop_operation_xyz
x,y,z
-x,-y,z
1/2-x,y,z
1/2+x,-y,z
x,1/2+y,1/2+z
-x,1/2-y,1/2+z
1/2-x,1/2+y,1/2+z
1/2+x,1/2-y,1/2+z
loop_
_atom_site_type_symbol
_atom_site_label
_atom_site_fract_x
_atom_site_fract_y
_atom_site_fract_z
Si Si1 0.058486 0.247762 0.514200
Si Si2 0.639612 0.669424 0.817800
Si Si3 0.000000 0.500000 0.281610
Si Si4 0.538144 0.348455 0.375942
Si Si5 0.809417 0.063210 0.000531
Si Si6 0.384857 0.469591 0.110113
Si Si7 0.864615 0.295095 0.635358
Si Si8 0.189872 0.068871 0.342962
O O1 0.090497 0.294619 0.690046
O O2 0.046612 0.169458 0.626940
O O3 0.097017 0.241394 0.312479
O O4 0.003041 0.286426 0.456307
O O5 0.680265 0.635201 0.646603
O O6 0.620369 0.599342 0.952297
O O7 0.659589 0.732101 0.982248
O O8 0.011228 0.573257 0.414921
O O9 0.053676 0.487145 0.149582
O O10 0.594686 0.342815 0.491277
O O11 0.750000 0.067205 0.903346
O O12 0.811334 0.991599 0.153523
O O13 0.855216 0.054349 0.826325
O O14 0.352676 0.538945 0.012822
O O15 0.824863 0.351092 0.750904
O O16 0.250000 0.068692 0.432218
#
# Coordination Sequence:
#
# PCOD9364836 Si02
#       8
#     8   8   4   8   8   8   8   8
#     4  11  22  40  61  88 129 180 216 259 330 401
#     4  10  23  39  62  90 125 165 217 268 322 397
#     4  12  24  36  64  98 126 162 216 270 320 394
#     4  11  23  38  61  90 130 174 220 265 333 395
#     4  10  21  42  68  91 123 167 216 270 331 397
#     4  11  23  42  63  94 130 166 213 273 333 398
#     4  11  22  39  62  91 131 169 217 277 329 403
#     4  10  23  42  65  92 126 170 217 271 337 399
#
# _framework density 21.057307999999999
#
# number of rings (size 3 to 8) (size 9 to 14) (size 15 to 20)
#    0.000    1.333    1.333    4.400    1.867    4.267 
#    0.000    5.333    0.000    0.000    0.000    0.000 
#    0.000    0.000    0.000    0.000    0.000    0.000 
#
# Total GULP energy -167706.073017 kJ/mol
# GULP energy per Si atom -5590.202434 kJ/mol
# Density = 2.100938 g / cm^3
# Si number density = 21.057308 Si / 1000 Ang^3
#
#
#
# Elastic Constant Matrix: (Units=GPa)
#
#
# Indices 1 2 3 4 5 6 
#
# 1 117.3261 33.2118 25.2198 0.0000 0.0000 0.0000
# 2 33.2118 90.4978 23.6575 0.0000 0.0000 0.0000
# 3 25.2198 23.6575 69.9912 0.0000 0.0000 0.0000
# 4 0.0000 0.0000 0.0000 19.6576 0.0000 0.0000
# 5 0.0000 0.0000 0.0000 0.0000 11.6036 0.0000
# 6 0.0000 0.0000 0.0000 0.0000 0.0000 16.9381
#
#
#
# Elastic Compliance Matrix: (Units=1/GPa)
#
#
# Indices 1 2 3 4 5 6 
#
# 1 0.009916 -0.002967 -0.002570 0.000000 0.000000 0.000000
# 2 -0.002967 0.013009 -0.003328 0.000000 0.000000 0.000000
# 3 -0.002570 -0.003328 0.016338 0.000000 0.000000 0.000000
# 4 0.000000 0.000000 0.000000 0.050871 0.000000 0.000000
# 5 0.000000 0.000000 0.000000 0.000000 0.086180 0.000000
# 6 0.000000 0.000000 0.000000 0.000000 0.000000 0.059038
#
#
# Mechanical properties :
#
#
# Convention : Reuss Voigt Hill
#
# Bulk Modulus (GPa) = 46.44073 49.11039 47.77556
# Shear Modulus (GPa) = 19.21154 22.68825 20.94989
#
# Velocity S-wave (km/s) = 3.02378 3.28602 3.15762
# Velocity P-wave (km/s) = 5.85605 6.14574 6.00264
#
# Compressibility (1/GPa) = 0.02153282
#
# Stress axis : x y z
#
# Youngs Moduli (GPa) = 100.85136 76.87068 61.20541
#
# Poissons Ratio (x) = 0.22808 0.15730
# Poissons Ratio (y) = 0.29924 0.20369
# Poissons Ratio (z) = 0.25919 0.25582
#
# Static dielectric constant tensor:
#      x y z
#    x 1.725630 0.000000 0.000000 
#    y 0.000000 1.769660 0.000000 
#    z 0.000000 0.000000 1.766640 
# 
# From -- ./inp_files/3164.got.cif
#   From: 2010.05.17/outbox.cif.g08.bks.cpg/sg40_2_cif.got.tgz:3164.got - 2010.06.03 18:35:42.
