data_PCOD9364292
_publ_section_title
;
Structure prediction by ZEFSAII (Michael W. Deem and Ramdas Pophale) SiO2 
 PCOD9364292
Probable space group: A M A 2
;
_chemical_formula_sum "Si O2"
_cell_formula_units_Z 64
_cell_length_a 22.744531
_cell_length_b 9.102023
_cell_length_c 15.799774
_cell_angle_alpha 90.000000
_cell_angle_beta 90.000000
_cell_angle_gamma 90.000000
_cell_volume 3270.888873
_symmetry_space_group_name_H-M "A M A 2"
_symmetry_group_IT_number 40
_symmetry_cell_setting 'orthorhombic'
loop_
_space_group_symop_operation_xyz
x,y,z
-x,-y,z
1/2-x,y,z
1/2+x,-y,z
x,1/2+y,1/2+z
-x,1/2-y,1/2+z
1/2-x,1/2+y,1/2+z
1/2+x,1/2-y,1/2+z
loop_
_atom_site_type_symbol
_atom_site_label
_atom_site_fract_x
_atom_site_fract_y
_atom_site_fract_z
Si Si1 0.489822 0.258628 0.444290
Si Si2 0.596099 0.967263 0.948223
Si Si3 0.432630 0.643715 0.110660
Si Si4 0.683784 0.439806 0.299757
Si Si5 0.884473 0.155627 0.682504
Si Si6 0.494060 0.172042 0.250471
Si Si7 0.318196 0.092194 0.094582
Si Si8 0.315377 0.790682 0.152396
O O1 0.548102 0.345588 0.472898
O O2 0.439937 0.384073 0.431915
O O3 0.467514 0.160722 0.522665
O O4 0.503104 0.191089 0.351747
O O5 0.632512 0.919827 0.866831
O O6 0.644930 0.979924 0.019585
O O7 0.421262 0.476676 0.139459
O O8 0.463365 0.733305 0.188282
O O9 0.368474 0.718556 0.100597
O O10 0.750000 0.461909 0.333440
O O11 0.662618 0.577363 0.243448
O O12 0.684546 0.298806 0.239264
O O13 0.929957 0.261492 0.730329
O O14 0.848589 0.256519 0.618451
O O15 0.500000 0.000000 0.228366
O O16 0.250000 0.114334 0.074349
O O17 0.322929 0.964785 0.165519
O O18 0.250000 0.771093 0.113382
#
# Coordination Sequence:
#
# PCOD9364292 Si02
#       8
#     8   8   8   8   8   8   8   8
#     4  11  24  41  63  97 133 169 214 269 328 388
#     4  11  22  38  63  95 129 165 216 260 323 394
#     4  11  23  42  67  91 129 173 214 267 334 390
#     4  10  20  39  65  92 126 171 214 266 324 387
#     4  11  23  40  62  93 127 168 218 268 324 394
#     4  12  26  41  65  95 131 168 217 274 332 398
#     4  11  22  39  63  94 127 166 216 265 316 384
#     4   9  19  36  61  91 121 159 210 258 314 381
#
# _framework density 19.566547
#
# number of rings (size 3 to 8) (size 9 to 14) (size 15 to 20)
#    0.000    1.250    2.500    4.125    3.500    2.500 
#    0.000    0.000    0.000    0.000    0.000    0.000 
#    0.000    0.000    0.000    0.000    0.000    0.000 
#
# Total GULP energy -178609.552289 kJ/mol
# GULP energy per Si atom -5581.548509 kJ/mol
# Density = 1.952201 g / cm^3
# Si number density = 19.566547 Si / 1000 Ang^3
#
#
#
# Elastic Constant Matrix: (Units=GPa)
#
#
# Indices 1 2 3 4 5 6 
#
# 1 97.7837 45.7907 38.5631 0.0000 0.0000 0.0000
# 2 45.7907 122.7147 30.5256 0.0000 0.0000 0.0000
# 3 38.5631 30.5256 68.3430 0.0000 0.0000 0.0000
# 4 0.0000 0.0000 0.0000 21.6872 0.0000 0.0000
# 5 0.0000 0.0000 0.0000 0.0000 27.1519 0.0000
# 6 0.0000 0.0000 0.0000 0.0000 0.0000 25.4027
#
#
#
# Elastic Compliance Matrix: (Units=1/GPa)
#
#
# Indices 1 2 3 4 5 6 
#
# 1 0.014589 -0.003821 -0.006526 0.000000 0.000000 0.000000
# 2 -0.003821 0.010168 -0.002386 0.000000 0.000000 0.000000
# 3 -0.006526 -0.002386 0.019380 0.000000 0.000000 0.000000
# 4 0.000000 0.000000 0.000000 0.046110 0.000000 0.000000
# 5 0.000000 0.000000 0.000000 0.000000 0.036830 0.000000
# 6 0.000000 0.000000 0.000000 0.000000 0.000000 0.039366
#
#
# Mechanical properties :
#
#
# Convention : Reuss Voigt Hill
#
# Bulk Modulus (GPa) = 53.55292 57.62221 55.58756
# Shear Modulus (GPa) = 25.23573 26.44584 25.84078
#
# Velocity S-wave (km/s) = 3.59519 3.68038 3.63803
# Velocity P-wave (km/s) = 6.68303 6.89736 6.79104
#
# Compressibility (1/GPa) = 0.01867312
#
# Stress axis : x y z
#
# Youngs Moduli (GPa) = 68.54311 98.34644 51.60009
#
# Poissons Ratio (x) = 0.37575 0.33672
# Poissons Ratio (y) = 0.26188 0.12311
# Poissons Ratio (z) = 0.44729 0.23463
#
# Static dielectric constant tensor:
#      x y z
#    x 1.705970 0.000000 0.000000 
#    y 0.000000 1.684870 0.000000 
#    z 0.000000 0.000000 1.718060 
# 
# From -- ./inp_files/18539.got.cif
#   From: 2010.05.17/outbox.cif.g08.bks.cpg/sg40_10_cif.got.tgz:18539.got - 2010.06.03 18:35:42.
