data_PCOD9364641
_publ_section_title
;
Structure prediction by ZEFSAII (Michael W. Deem and Ramdas Pophale) SiO2 
 PCOD9364641
Probable space group: A M A 2
;
_chemical_formula_sum "Si O2"
_cell_formula_units_Z 48
_cell_length_a 26.474763
_cell_length_b 5.186391
_cell_length_c 14.165058
_cell_angle_alpha 90.000000
_cell_angle_beta 90.000000
_cell_angle_gamma 90.000000
_cell_volume 1944.982478
_symmetry_space_group_name_H-M "A M A 2"
_symmetry_group_IT_number 40
_symmetry_cell_setting 'orthorhombic'
loop_
_space_group_symop_operation_xyz
x,y,z
-x,-y,z
1/2-x,y,z
1/2+x,-y,z
x,1/2+y,1/2+z
-x,1/2-y,1/2+z
1/2-x,1/2+y,1/2+z
1/2+x,1/2-y,1/2+z
loop_
_atom_site_type_symbol
_atom_site_label
_atom_site_fract_x
_atom_site_fract_y
_atom_site_fract_z
Si Si1 0.409256 0.486785 0.793290
Si Si2 0.693438 0.297480 0.886158
Si Si3 0.693636 0.310149 0.108060
Si Si4 0.531221 0.263256 0.950335
Si Si5 0.384038 0.578956 0.426064
Si Si6 0.132877 0.712470 0.620490
O O1 0.352197 0.566207 0.829511
O O2 0.453427 0.636833 0.846587
O O3 0.412028 0.198606 0.835677
O O4 0.408873 0.581737 0.686722
O O5 0.750000 0.317597 0.846511
O O6 0.671581 0.006219 0.895251
O O7 0.696310 0.379130 0.996236
O O8 0.750000 0.331165 0.147238
O O9 0.657026 0.520505 0.155776
O O10 0.674445 0.016462 0.114606
O O11 0.500000 0.500000 0.995365
O O12 0.500000 0.000000 0.955544
O O13 0.587586 0.164351 0.975343
O O14 0.385543 0.768151 0.514431
#
# Coordination Sequence:
#
# PCOD9364641 Si02
#       6
#     8   8   8   8   8   8
#     4  11  23  41  68  95 128 174 213 270 333 388
#     4   9  20  37  61  93 131 176 221 261 314 382
#     4  10  21  39  59  88 131 178 222 268 314 371
#     4  11  23  43  74  93 124 164 208 267 334 397
#     4  10  22  43  66  94 130 173 213 268 332 390
#     4  11  24  39  64  93 130 169 216 272 320 388
#
# _framework density 24.678888000000001
#
# number of rings (size 3 to 8) (size 9 to 14) (size 15 to 20)
#    0.000    1.667    3.333    0.500    4.667    2.667 
#    0.000    0.833    7.333    0.000    0.000    0.000 
#    0.000    0.000    0.000    0.000    0.000    0.000 
#
# Total GULP energy -133693.988570 kJ/mol
# GULP energy per Si atom -5570.582857 kJ/mol
# Density = 2.462272 g / cm^3
# Si number density = 24.678888 Si / 1000 Ang^3
#
#
#
# Elastic Constant Matrix: (Units=GPa)
#
#
# Indices 1 2 3 4 5 6 
#
# 1 82.1773 23.8226 -16.9340 0.0000 0.0000 0.0000
# 2 23.8226 124.5026 -2.6974 0.0000 0.0000 0.0000
# 3 -16.9340 -2.6974 52.8147 0.0000 0.0000 0.0000
# 4 0.0000 0.0000 0.0000 23.6268 0.0000 0.0000
# 5 0.0000 0.0000 0.0000 0.0000 17.6008 0.0000
# 6 0.0000 0.0000 0.0000 0.0000 0.0000 30.8693
#
#
#
# Elastic Compliance Matrix: (Units=1/GPa)
#
#
# Indices 1 2 3 4 5 6 
#
# 1 0.013791 -0.002546 0.004292 0.000000 0.000000 0.000000
# 2 -0.002546 0.008511 -0.000382 0.000000 0.000000 0.000000
# 3 0.004292 -0.000382 0.020291 0.000000 0.000000 0.000000
# 4 0.000000 0.000000 0.000000 0.042325 0.000000 0.000000
# 5 0.000000 0.000000 0.000000 0.000000 0.056815 0.000000
# 6 0.000000 0.000000 0.000000 0.000000 0.000000 0.032395
#
#
# Mechanical properties :
#
#
# Convention : Reuss Voigt Hill
#
# Bulk Modulus (GPa) = 22.06453 29.76411 25.91432
# Shear Modulus (GPa) = 26.80875 31.43960 29.12418
#
# Velocity S-wave (km/s) = 3.29949 3.57311 3.43902
# Velocity P-wave (km/s) = 4.84516 5.39533 5.12763
#
# Compressibility (1/GPa) = 0.04532162
#
# Stress axis : x y z
#
# Youngs Moduli (GPa) = 72.50976 117.49749 49.28356
#
# Poissons Ratio (x) = 0.29913 -0.21152
# Poissons Ratio (y) = 0.18460 0.01881
# Poissons Ratio (z) = -0.31120 0.04484
#
# Static dielectric constant tensor:
#      x y z
#    x 2.022840 0.000000 0.000000 
#    y 0.000000 2.110690 0.000000 
#    z 0.000000 0.000000 2.033610 
# 
# From -- ./inp_files/18639.got.cif
#   From: 2010.05.17/outbox.cif.g08.bks.cpg/sg40_10_cif.got.tgz:18639.got - 2010.06.03 18:35:42.
