data_PCOD9364869
_publ_section_title
;
Structure prediction by ZEFSAII (Michael W. Deem and Ramdas Pophale) SiO2 
 PCOD9364869
Probable space group: A M A 2
;
_chemical_formula_sum "Si O2"
_cell_formula_units_Z 32
_cell_length_a 11.373141
_cell_length_b 12.686193
_cell_length_c 9.847807
_cell_angle_alpha 90.000000
_cell_angle_beta 90.000000
_cell_angle_gamma 90.000000
_cell_volume 1420.859928
_symmetry_space_group_name_H-M "A M A 2"
_symmetry_group_IT_number 40
_symmetry_cell_setting 'orthorhombic'
loop_
_space_group_symop_operation_xyz
x,y,z
-x,-y,z
1/2-x,y,z
1/2+x,-y,z
x,1/2+y,1/2+z
-x,1/2-y,1/2+z
1/2-x,1/2+y,1/2+z
1/2+x,1/2-y,1/2+z
loop_
_atom_site_type_symbol
_atom_site_label
_atom_site_fract_x
_atom_site_fract_y
_atom_site_fract_z
Si Si1 0.016870 0.271905 0.908830
Si Si2 0.250000 0.500977 0.067076
Si Si3 0.250000 0.051532 0.243770
Si Si4 0.250000 0.758821 0.584392
Si Si5 0.000000 0.000000 0.272631
Si Si6 0.120837 0.190502 0.655696
O O1 0.023990 0.209945 0.768538
O O2 0.012661 0.394307 0.862489
O O3 0.134306 0.244177 0.992183
O O4 0.912938 0.255188 0.014615
O O5 0.250000 0.382633 0.115422
O O6 0.140776 0.567800 0.124603
O O7 0.250000 0.519644 0.903920
O O8 0.250000 0.175608 0.207309
O O9 0.376389 0.009540 0.192642
O O10 0.250000 0.230333 0.701305
#
# Coordination Sequence:
#
# PCOD9364869 Si02
#       6
#     8   4   4   4   4   8
#     4  12  21  41  73 101 143 188 240 305 374 447
#     4  10  21  46  67 102 142 187 249 315 371 450
#     4  12  24  41  76 111 140 195 264 304 380 462
#     4  12  23  41  75 109 136 200 251 299 383 464
#     4  12  22  44  70 110 138 196 252 308 372 460
#     4  10  23  41  68 104 139 185 238 305 368 445
#
# _framework density 22.521573
#
# number of rings (size 3 to 8) (size 9 to 14) (size 15 to 20)
#    0.750    0.000    6.250    1.500    0.000    0.000 
#    0.000    0.000   16.500    1.500    0.000    0.000 
#    0.000    0.000    0.000    0.000    0.000    0.000 
#
# Total GULP energy -89283.402614 kJ/mol
# GULP energy per Si atom -5580.212663 kJ/mol
# Density = 2.247031 g / cm^3
# Si number density = 22.521573 Si / 1000 Ang^3
#
#
#
# Elastic Constant Matrix: (Units=GPa)
#
#
# Indices 1 2 3 4 5 6 
#
# 1 113.4592 23.1232 23.4057 0.0000 0.0000 0.0000
# 2 23.1232 78.6503 36.1950 0.0000 0.0000 0.0000
# 3 23.4057 36.1950 78.7689 0.0000 0.0000 0.0000
# 4 0.0000 0.0000 0.0000 31.7273 0.0000 0.0000
# 5 0.0000 0.0000 0.0000 0.0000 25.4939 0.0000
# 6 0.0000 0.0000 0.0000 0.0000 0.0000 34.1350
#
#
#
# Elastic Compliance Matrix: (Units=1/GPa)
#
#
# Indices 1 2 3 4 5 6 
#
# 1 0.009612 -0.001917 -0.001975 0.000000 0.000000 0.000000
# 2 -0.001917 0.016507 -0.007015 0.000000 0.000000 0.000000
# 3 -0.001975 -0.007015 0.016506 0.000000 0.000000 0.000000
# 4 0.000000 0.000000 0.000000 0.031519 0.000000 0.000000
# 5 0.000000 0.000000 0.000000 0.000000 0.039225 0.000000
# 6 0.000000 0.000000 0.000000 0.000000 0.000000 0.029295
#
#
# Mechanical properties :
#
#
# Convention : Reuss Voigt Hill
#
# Bulk Modulus (GPa) = 48.05526 48.48071 48.26799
# Shear Modulus (GPa) = 29.16900 30.81488 29.99194
#
# Velocity S-wave (km/s) = 3.60274 3.70298 3.65320
# Velocity P-wave (km/s) = 6.22013 6.31315 6.26681
#
# Compressibility (1/GPa) = 0.02080937
#
# Stress axis : x y z
#
# Youngs Moduli (GPa) = 104.03782 60.58209 60.58429
#
# Poissons Ratio (x) = 0.11613 0.11967
# Poissons Ratio (y) = 0.19943 0.42502
# Poissons Ratio (z) = 0.20551 0.42500
#
# Static dielectric constant tensor:
#      x y z
#    x 1.908810 0.000000 0.000000 
#    y 0.000000 1.814580 0.000000 
#    z 0.000000 0.000000 1.795700 
# 
# From -- ./inp_files/5043.got.cif
#   From: 2010.05.17/outbox.cif.g08.bks.cpg/sg40_3_cif.got.tgz:5043.got - 2010.06.03 18:35:42.
