data_PCOD9364509
_publ_section_title
;
Structure prediction by ZEFSAII (Michael W. Deem and Ramdas Pophale) SiO2 
 PCOD9364509
Probable space group: A M A 2
;
_chemical_formula_sum "Si O2"
_cell_formula_units_Z 56
_cell_length_a 7.792422
_cell_length_b 24.136835
_cell_length_c 14.485111
_cell_angle_alpha 90.000000
_cell_angle_beta 90.000000
_cell_angle_gamma 90.000000
_cell_volume 2724.423470
_symmetry_space_group_name_H-M "A M A 2"
_symmetry_group_IT_number 40
_symmetry_cell_setting 'orthorhombic'
loop_
_space_group_symop_operation_xyz
x,y,z
-x,-y,z
1/2-x,y,z
1/2+x,-y,z
x,1/2+y,1/2+z
-x,1/2-y,1/2+z
1/2-x,1/2+y,1/2+z
1/2+x,1/2-y,1/2+z
loop_
_atom_site_type_symbol
_atom_site_label
_atom_site_fract_x
_atom_site_fract_y
_atom_site_fract_z
Si Si1 0.950188 0.937158 0.417390
Si Si2 0.456884 0.436397 0.336373
Si Si3 0.954591 0.663186 0.215917
Si Si4 0.949715 0.174681 0.512583
Si Si5 0.457693 0.882155 0.229367
Si Si6 0.958144 0.229435 0.328713
Si Si7 0.043495 0.435908 0.543293
O O1 0.750000 0.929957 0.434462
O O2 0.041812 0.888373 0.474553
O O3 0.987314 0.924577 0.309618
O O4 0.000000 0.000000 0.440125
O O5 0.500000 0.500000 0.316279
O O6 0.250000 0.432076 0.338665
O O7 0.523521 0.393065 0.261477
O O8 0.520599 0.422662 0.440174
O O9 0.750000 0.655404 0.203682
O O10 0.027273 0.676998 0.114667
O O11 0.982205 0.713081 0.286884
O O12 0.750000 0.190545 0.520197
O O13 0.022586 0.213439 0.431201
O O14 0.250000 0.882686 0.228262
O O15 0.513006 0.821399 0.262716
O O16 0.521212 0.899576 0.128609
O O17 0.750000 0.229381 0.330521
O O18 0.250000 0.430691 0.541499
O O19 0.000000 0.500000 0.561370
#
# Coordination Sequence:
#
# PCOD9364509 Si02
#       7
#     8   8   8   8   8   8   8
#     4  11  21  33  52  78 107 141 179 221 267 317
#     4   9  19  35  53  76 104 134 170 214 258 305
#     4  10  21  37  58  80 104 135 172 214 260 308
#     4   9  20  39  56  75 106 140 175 220 265 308
#     4   9  18  33  51  74 107 144 178 216 260 309
#     4   9  19  35  54  76 105 137 170 211 260 310
#     4   9  17  30  49  73 103 137 172 210 256 305
#
# _framework density 20.554805999999999
#
# number of rings (size 3 to 8) (size 9 to 14) (size 15 to 20)
#    0.000    2.571    0.000    2.571    0.000    6.857 
#    0.000    2.857    0.000    0.000    0.000    0.000 
#    0.000    0.000    0.000    0.000    0.000    0.000 
#
# Total GULP energy -156236.868028 kJ/mol
# GULP energy per Si atom -5579.888144 kJ/mol
# Density = 2.050802 g / cm^3
# Si number density = 20.554806 Si / 1000 Ang^3
#
#
#
# Elastic Constant Matrix: (Units=GPa)
#
#
# Indices 1 2 3 4 5 6 
#
# 1 26.8093 -13.6152 3.3471 0.0000 0.0000 0.0000
# 2 -13.6152 74.9054 76.4478 0.0000 0.0000 0.0000
# 3 3.3471 76.4478 165.9765 0.0000 0.0000 0.0000
# 4 0.0000 0.0000 0.0000 17.1550 0.0000 0.0000
# 5 0.0000 0.0000 0.0000 0.0000 13.6866 0.0000
# 6 0.0000 0.0000 0.0000 0.0000 0.0000 22.9342
#
#
#
# Elastic Compliance Matrix: (Units=1/GPa)
#
#
# Indices 1 2 3 4 5 6 
#
# 1 0.047723 0.018223 -0.009356 0.000000 0.000000 0.000000
# 2 0.018223 0.032151 -0.015176 0.000000 0.000000 0.000000
# 3 -0.009356 -0.015176 0.013204 0.000000 0.000000 0.000000
# 4 0.000000 0.000000 0.000000 0.058292 0.000000 0.000000
# 5 0.000000 0.000000 0.000000 0.000000 0.073064 0.000000
# 6 0.000000 0.000000 0.000000 0.000000 0.000000 0.043603
#
#
# Mechanical properties :
#
#
# Convention : Reuss Voigt Hill
#
# Bulk Modulus (GPa) = 12.42860 44.45007 28.43933
# Shear Modulus (GPa) = 16.26152 24.18927 20.22540
#
# Velocity S-wave (km/s) = 2.81575 3.43420 3.14024
# Velocity P-wave (km/s) = 4.07811 6.11531 5.19750
#
# Compressibility (1/GPa) = 0.08045961
#
# Stress axis : x y z
#
# Youngs Moduli (GPa) = 20.95423 31.10336 75.73703
#
# Poissons Ratio (x) = -0.56679 0.70857
# Poissons Ratio (y) = -0.38184 1.14938
# Poissons Ratio (z) = 0.19604 0.47202
#
# Static dielectric constant tensor:
#      x y z
#    x 1.747230 0.000000 0.000000 
#    y 0.000000 1.700820 0.000000 
#    z 0.000000 0.000000 1.760540 
# 
# From -- ./inp_files/15293.got.cif
#   From: 2010.05.17/outbox.cif.g08.bks.cpg/sg40_8_cif.got.tgz:15293.got - 2010.06.03 18:35:42.
