data_PCOD9364498
_publ_section_title
;
Structure prediction by ZEFSAII (Michael W. Deem and Ramdas Pophale) SiO2 
 PCOD9364498
Probable space group: A M A 2
;
_chemical_formula_sum "Si O2"
_cell_formula_units_Z 48
_cell_length_a 9.463815
_cell_length_b 32.004975
_cell_length_c 9.136730
_cell_angle_alpha 90.000000
_cell_angle_beta 90.000000
_cell_angle_gamma 90.000000
_cell_volume 2767.416498
_symmetry_space_group_name_H-M "A M A 2"
_symmetry_group_IT_number 40
_symmetry_cell_setting 'orthorhombic'
loop_
_space_group_symop_operation_xyz
x,y,z
-x,-y,z
1/2-x,y,z
1/2+x,-y,z
x,1/2+y,1/2+z
-x,1/2-y,1/2+z
1/2-x,1/2+y,1/2+z
1/2+x,1/2-y,1/2+z
loop_
_atom_site_type_symbol
_atom_site_label
_atom_site_fract_x
_atom_site_fract_y
_atom_site_fract_z
Si Si1 0.916813 0.206589 0.699420
Si Si2 0.921374 0.368081 0.690419
Si Si3 0.921391 0.366219 0.031763
Si Si4 0.917193 0.788335 0.998013
Si Si5 0.913041 0.959888 0.176829
Si Si6 0.911984 0.460180 0.033737
O O1 0.750000 0.197871 0.714362
O O2 0.932234 0.247528 0.598364
O O3 0.998699 0.168132 0.625365
O O4 0.988732 0.215382 0.854644
O O5 0.750000 0.370352 0.690836
O O6 0.961333 0.329402 0.589512
O O7 0.970191 0.413856 0.637051
O O8 0.960864 0.361315 0.860105
O O9 0.750000 0.362210 0.043137
O O10 0.959492 0.413694 0.077519
O O11 0.750000 0.792635 0.960678
O O12 0.750000 0.963555 0.130575
O O13 0.914253 0.959972 0.355299
O O14 0.000000 0.000000 0.126370
O O15 0.750000 0.465139 0.079050
O O16 0.000000 0.500000 0.084204
#
# Coordination Sequence:
#
# PCOD9364498 Si02
#       6
#     8   8   8   8   8   8
#     4  11  23  36  53  78 102 126 163 210 253 296
#     4   8  15  30  52  74  97 131 171 202 235 293
#     4   9  17  32  53  75 103 138 170 202 248 302
#     4  10  21  37  55  73  97 131 166 201 248 303
#     4   8  13  23  41  67  97 126 159 198 238 282
#     4   8  14  24  42  69  99 132 166 201 243 288
#
# _framework density 17.344697
#
# number of rings (size 3 to 8) (size 9 to 14) (size 15 to 20)
#    0.000    3.000    0.000    3.500    0.000    3.333 
#    0.000    4.167    0.000    1.000    0.000    2.333 
#    0.000    0.000    0.000    0.000    0.000    0.000 
#
# Total GULP energy -133715.765028 kJ/mol
# GULP energy per Si atom -5571.490209 kJ/mol
# Density = 1.730522 g / cm^3
# Si number density = 17.344697 Si / 1000 Ang^3
#
#
#
# Elastic Constant Matrix: (Units=GPa)
#
#
# Indices 1 2 3 4 5 6 
#
# 1 65.0963 74.9745 45.2455 0.0000 0.0000 0.0000
# 2 74.9745 152.4742 50.1521 0.0000 0.0000 0.0000
# 3 45.2455 50.1521 64.3064 0.0000 0.0000 0.0000
# 4 0.0000 0.0000 0.0000 24.4352 0.0000 0.0000
# 5 0.0000 0.0000 0.0000 0.0000 20.4990 0.0000
# 6 0.0000 0.0000 0.0000 0.0000 0.0000 30.0996
#
#
#
# Elastic Compliance Matrix: (Units=1/GPa)
#
#
# Indices 1 2 3 4 5 6 
#
# 1 0.051634 -0.018077 -0.022231 0.000000 0.000000 0.000000
# 2 -0.018077 0.015150 0.000903 0.000000 0.000000 0.000000
# 3 -0.022231 0.000903 0.030488 0.000000 0.000000 0.000000
# 4 0.000000 0.000000 0.000000 0.040925 0.000000 0.000000
# 5 0.000000 0.000000 0.000000 0.000000 0.048783 0.000000
# 6 0.000000 0.000000 0.000000 0.000000 0.000000 0.033223
#
#
# Mechanical properties :
#
#
# Convention : Reuss Voigt Hill
#
# Bulk Modulus (GPa) = 54.16472 69.18013 61.67243
# Shear Modulus (GPa) = 16.38453 22.44040 19.41247
#
# Velocity S-wave (km/s) = 3.07684 3.60083 3.34910
# Velocity P-wave (km/s) = 6.62712 7.56704 7.11262
#
# Compressibility (1/GPa) = 0.01846220
#
# Stress axis : x y z
#
# Youngs Moduli (GPa) = 19.36712 66.00570 32.80020
#
# Poissons Ratio (x) = 1.19319 0.72918
# Poissons Ratio (y) = 0.35010 -0.02963
# Poissons Ratio (z) = 0.43055 -0.05963
#
# Static dielectric constant tensor:
#      x y z
#    x 1.577690 0.000000 0.000000 
#    y 0.000000 1.604870 0.000000 
#    z 0.000000 0.000000 1.579500 
# 
# From -- ./inp_files/4604.got.cif
#   From: 2010.05.17/outbox.cif.g08.bks.cpg/sg40_3_cif.got.tgz:4604.got - 2010.06.03 18:35:42.
