data_PCOD9364827
_publ_section_title
;
Structure prediction by ZEFSAII (Michael W. Deem and Ramdas Pophale) SiO2 
 PCOD9364827
Probable space group: A M A 2
;
_chemical_formula_sum "Si O2"
_cell_formula_units_Z 64
_cell_length_a 25.369272
_cell_length_b 11.022405
_cell_length_c 11.092807
_cell_angle_alpha 90.000000
_cell_angle_beta 90.000000
_cell_angle_gamma 90.000000
_cell_volume 3101.885954
_symmetry_space_group_name_H-M "A M A 2"
_symmetry_group_IT_number 40
_symmetry_cell_setting 'orthorhombic'
loop_
_space_group_symop_operation_xyz
x,y,z
-x,-y,z
1/2-x,y,z
1/2+x,-y,z
x,1/2+y,1/2+z
-x,1/2-y,1/2+z
1/2-x,1/2+y,1/2+z
1/2+x,1/2-y,1/2+z
loop_
_atom_site_type_symbol
_atom_site_label
_atom_site_fract_x
_atom_site_fract_y
_atom_site_fract_z
Si Si1 0.556180 0.018472 0.154620
Si Si2 0.058408 0.524922 0.034207
Si Si3 0.307350 0.771314 0.449190
Si Si4 0.354017 0.498246 0.831976
Si Si5 0.911928 0.095167 0.781688
Si Si6 0.583818 0.356181 0.443082
Si Si7 0.026656 0.771370 0.971532
Si Si8 0.810244 0.241377 0.740440
O O1 0.605941 0.057845 0.232964
O O2 0.500000 0.000000 0.221290
O O3 0.537863 0.110363 0.051100
O O4 0.578632 0.902776 0.081023
O O5 0.069970 0.438681 0.147226
O O6 0.000000 0.500000 0.985176
O O7 0.106217 0.519736 0.942471
O O8 0.050799 0.667842 0.055775
O O9 0.250000 0.717823 0.417618
O O10 0.312820 0.901071 0.383395
O O11 0.359715 0.698851 0.414537
O O12 0.310065 0.773967 0.595036
O O13 0.329211 0.623928 0.782511
O O14 0.943817 0.204194 0.845346
O O15 0.851796 0.140982 0.786149
O O16 0.922787 0.971690 0.855761
O O17 0.534776 0.264358 0.436440
O O18 0.750000 0.223246 0.782107
#
# Coordination Sequence:
#
# PCOD9364827 Si02
#       8
#     8   8   8   8   8   8   8   8
#     4   9  20  37  61  92 127 168 200 252 329 391
#     4  12  24  37  61  98 131 169 211 257 329 400
#     4  11  24  42  63  89 124 168 220 274 321 381
#     4  12  22  40  63  93 124 165 217 265 323 400
#     4  11  23  43  65  93 130 172 213 263 326 396
#     4  10  21  42  65  92 129 165 211 263 325 390
#     4  10  22  41  63  95 135 166 205 264 324 393
#     4  11  24  44  65  87 127 174 220 276 327 382
#
# _framework density 20.632608000000001
#
# number of rings (size 3 to 8) (size 9 to 14) (size 15 to 20)
#    0.000    1.250    3.750    3.375    1.750    0.500 
#    4.500    0.000    0.000    1.500    0.000    0.000 
#    0.000    0.000    0.000    0.000    0.000    0.000 
#
# Total GULP energy -178410.329796 kJ/mol
# GULP energy per Si atom -5575.322806 kJ/mol
# Density = 2.058565 g / cm^3
# Si number density = 20.632608 Si / 1000 Ang^3
#
#
#
# Elastic Constant Matrix: (Units=GPa)
#
#
# Indices 1 2 3 4 5 6 
#
# 1 142.7428 19.2688 28.7922 0.0000 0.0000 0.0000
# 2 19.2688 54.0740 15.3985 0.0000 0.0000 0.0000
# 3 28.7922 15.3985 75.7725 0.0000 0.0000 0.0000
# 4 0.0000 0.0000 0.0000 41.6858 0.0000 0.0000
# 5 0.0000 0.0000 0.0000 0.0000 21.4793 0.0000
# 6 0.0000 0.0000 0.0000 0.0000 0.0000 31.9692
#
#
#
# Elastic Compliance Matrix: (Units=1/GPa)
#
#
# Indices 1 2 3 4 5 6 
#
# 1 0.007796 -0.002053 -0.002545 0.000000 0.000000 0.000000
# 2 -0.002053 0.020170 -0.003319 0.000000 0.000000 0.000000
# 3 -0.002545 -0.003319 0.014839 0.000000 0.000000 0.000000
# 4 0.000000 0.000000 0.000000 0.023989 0.000000 0.000000
# 5 0.000000 0.000000 0.000000 0.000000 0.046557 0.000000
# 6 0.000000 0.000000 0.000000 0.000000 0.000000 0.031280
#
#
# Mechanical properties :
#
#
# Convention : Reuss Voigt Hill
#
# Bulk Modulus (GPa) = 37.07728 44.38981 40.73355
# Shear Modulus (GPa) = 29.50633 32.96884 31.23759
#
# Velocity S-wave (km/s) = 3.78575 4.00171 3.89523
# Velocity P-wave (km/s) = 6.09249 6.55078 6.32578
#
# Compressibility (1/GPa) = 0.02697069
#
# Stress axis : x y z
#
# Youngs Moduli (GPa) = 128.26844 49.57877 67.39033
#
# Poissons Ratio (x) = 0.10180 0.17152
# Poissons Ratio (y) = 0.26338 0.22365
# Poissons Ratio (z) = 0.32646 0.16454
#
# Static dielectric constant tensor:
#      x y z
#    x 1.746480 0.000000 0.000000 
#    y 0.000000 1.831010 0.000000 
#    z 0.000000 0.000000 1.757500 
# 
# From -- ./inp_files/14038.got.cif
#   From: 2010.05.17/outbox.cif.g08.bks.cpg/sg40_8_cif.got.tgz:14038.got - 2010.06.03 18:35:42.
