data_PCOD9364875
_publ_section_title
;
Structure prediction by ZEFSAII (Michael W. Deem and Ramdas Pophale) SiO2 
 PCOD9364875
Probable space group: A M A 2
;
_chemical_formula_sum "Si O2"
_cell_formula_units_Z 44
_cell_length_a 14.258271
_cell_length_b 12.059425
_cell_length_c 14.047732
_cell_angle_alpha 90.000000
_cell_angle_beta 90.000000
_cell_angle_gamma 90.000000
_cell_volume 2415.459049
_symmetry_space_group_name_H-M "A M A 2"
_symmetry_group_IT_number 40
_symmetry_cell_setting 'orthorhombic'
loop_
_space_group_symop_operation_xyz
x,y,z
-x,-y,z
1/2-x,y,z
1/2+x,-y,z
x,1/2+y,1/2+z
-x,1/2-y,1/2+z
1/2-x,1/2+y,1/2+z
1/2+x,1/2-y,1/2+z
loop_
_atom_site_type_symbol
_atom_site_label
_atom_site_fract_x
_atom_site_fract_y
_atom_site_fract_z
Si Si1 0.355470 0.555880 0.190210
Si Si2 0.000000 0.500000 0.346362
Si Si3 0.638432 0.169135 0.446096
Si Si4 0.137055 0.588611 0.984405
Si Si5 0.356389 0.791132 0.659522
Si Si6 0.465715 0.263196 0.351702
O O1 0.250000 0.595665 0.209906
O O2 0.423685 0.558731 0.278619
O O3 0.349779 0.424750 0.166891
O O4 0.395053 0.608365 0.093472
O O5 0.954821 0.609920 0.391341
O O6 0.750000 0.178596 0.428878
O O7 0.618731 0.227206 0.548845
O O8 0.571932 0.222598 0.367708
O O9 0.614665 0.038194 0.455454
O O10 0.250000 0.595225 0.986445
O O11 0.094517 0.678137 0.914565
O O12 0.250000 0.748018 0.676925
O O13 0.426325 0.757107 0.743818
#
# Coordination Sequence:
#
# PCOD9364875 Si02
#       6
#     8   4   8   8   8   8
#     4   8  16  31  51  74 103 132 171 225 266 301
#     4  10  22  32  48  82 112 144 174 210 270 336
#     4   9  19  35  55  79 110 143 179 227 281 324
#     4   9  18  32  55  83 103 129 178 233 273 308
#     4   8  16  32  52  77 105 139 179 221 271 319
#     4  11  20  30  55  79 109 143 179 222 260 324
#
# _framework density 18.216000000000001
#
# number of rings (size 3 to 8) (size 9 to 14) (size 15 to 20)
#    0.000    2.909    0.000    3.273    7.636    1.455 
#    0.000    0.000    4.000    0.000    0.000    2.545 
#    0.000    0.000    0.000    0.000    0.000    0.000 
#
# Total GULP energy -122499.595277 kJ/mol
# GULP energy per Si atom -5568.163422 kJ/mol
# Density = 1.817454 g / cm^3
# Si number density = 18.216000 Si / 1000 Ang^3
#
#
#
# Elastic Constant Matrix: (Units=GPa)
#
#
# Indices 1 2 3 4 5 6 
#
# 1 79.0380 32.5565 48.3575 0.0000 0.0000 0.0000
# 2 32.5565 83.9679 45.0321 0.0000 0.0000 0.0000
# 3 48.3575 45.0321 73.3955 0.0000 0.0000 0.0000
# 4 0.0000 0.0000 0.0000 30.0220 0.0000 0.0000
# 5 0.0000 0.0000 0.0000 0.0000 31.9790 0.0000
# 6 0.0000 0.0000 0.0000 0.0000 0.0000 26.2890
#
#
#
# Elastic Compliance Matrix: (Units=1/GPa)
#
#
# Indices 1 2 3 4 5 6 
#
# 1 0.021263 -0.001089 -0.013341 0.000000 0.000000 0.000000
# 2 -0.001089 0.017806 -0.010207 0.000000 0.000000 0.000000
# 3 -0.013341 -0.010207 0.028677 0.000000 0.000000 0.000000
# 4 0.000000 0.000000 0.000000 0.033309 0.000000 0.000000
# 5 0.000000 0.000000 0.000000 0.000000 0.031271 0.000000
# 6 0.000000 0.000000 0.000000 0.000000 0.000000 0.038039
#
#
# Mechanical properties :
#
#
# Convention : Reuss Voigt Hill
#
# Bulk Modulus (GPa) = 54.13828 54.25483 54.19656
# Shear Modulus (GPa) = 22.14381 25.02170 23.58276
#
# Velocity S-wave (km/s) = 3.49036 3.71025 3.60198
# Velocity P-wave (km/s) = 6.78441 6.94287 6.86410
#
# Compressibility (1/GPa) = 0.01847122
#
# Stress axis : x y z
#
# Youngs Moduli (GPa) = 47.02922 56.16174 34.87080
#
# Poissons Ratio (x) = 0.06119 0.46522
# Poissons Ratio (y) = 0.05124 0.35592
# Poissons Ratio (z) = 0.62742 0.57324
#
# Static dielectric constant tensor:
#      x y z
#    x 1.705500 0.000000 0.000000 
#    y 0.000000 1.637110 0.000000 
#    z 0.000000 0.000000 1.649830 
# 
# From -- ./inp_files/12814.got.cif
#   From: 2010.05.17/outbox.cif.g08.bks.cpg/sg40_7_cif.got.tgz:12814.got - 2010.06.03 18:35:42.
