data_PCOD9364693
_publ_section_title
;
Structure prediction by ZEFSAII (Michael W. Deem and Ramdas Pophale) SiO2 
 PCOD9364693
Probable space group: A M A 2
;
_chemical_formula_sum "Si O2"
_cell_formula_units_Z 64
_cell_length_a 34.104240
_cell_length_b 5.486405
_cell_length_c 17.407494
_cell_angle_alpha 90.000000
_cell_angle_beta 90.000000
_cell_angle_gamma 90.000000
_cell_volume 3257.110508
_symmetry_space_group_name_H-M "A M A 2"
_symmetry_group_IT_number 40
_symmetry_cell_setting 'orthorhombic'
loop_
_space_group_symop_operation_xyz
x,y,z
-x,-y,z
1/2-x,y,z
1/2+x,-y,z
x,1/2+y,1/2+z
-x,1/2-y,1/2+z
1/2-x,1/2+y,1/2+z
1/2+x,1/2-y,1/2+z
loop_
_atom_site_type_symbol
_atom_site_label
_atom_site_fract_x
_atom_site_fract_y
_atom_site_fract_z
Si Si1 0.879493 0.711721 0.823660
Si Si2 0.095766 0.189850 0.069828
Si Si3 0.838714 0.057671 0.167208
Si Si4 0.203704 0.440343 0.115208
Si Si5 0.543721 0.919770 0.343702
Si Si6 0.602731 0.102079 0.925260
Si Si7 0.023828 0.254359 0.180983
Si Si8 0.652650 0.989808 0.482448
O O1 0.855265 0.615101 0.752006
O O2 0.924710 0.623306 0.817772
O O3 0.857976 0.618606 0.901837
O O4 0.884140 0.996551 0.842901
O O5 0.123246 0.999041 0.114936
O O6 0.059817 0.250000 0.123080
O O7 0.121861 0.422104 0.047404
O O8 0.085235 0.085834 0.986177
O O9 0.813857 0.805756 0.155234
O O10 0.815272 0.302561 0.143333
O O11 0.250000 0.444466 0.127166
O O12 0.192838 0.441031 0.023793
O O13 0.568180 0.791534 0.410490
O O14 0.537617 0.749776 0.269525
O O15 0.500000 0.000000 0.366397
O O16 0.641829 0.213335 0.963167
O O17 0.000000 0.500000 0.167214
O O18 0.000000 0.000000 0.171563
#
# Coordination Sequence:
#
# PCOD9364693 Si02
#       8
#     8   8   8   8   8   8   8   8
#     4  10  22  40  66  95 124 179 222 272 317 393
#     4  10  21  42  61  93 124 170 222 275 321 392
#     4  11  23  41  73  98 130 172 221 269 324 398
#     4  11  24  44  70 101 135 168 210 271 340 400
#     4  10  23  40  59  91 128 173 221 278 330 378
#     4  10  21  39  65  89 126 168 229 265 328 391
#     4  11  26  41  61  88 126 170 222 275 335 382
#     4   9  21  40  64  94 125 168 218 258 324 400
#
# _framework density 19.649318999999998
#
# number of rings (size 3 to 8) (size 9 to 14) (size 15 to 20)
#    0.000    1.750    2.500    0.375    8.750    0.000 
#    6.750    1.250    0.000    0.000    0.000    0.000 
#    0.000    0.000    0.000    0.000    0.000    0.000 
#
# Total GULP energy -178256.114551 kJ/mol
# GULP energy per Si atom -5570.503580 kJ/mol
# Density = 1.960460 g / cm^3
# Si number density = 19.649319 Si / 1000 Ang^3
#
#
#
# Elastic Constant Matrix: (Units=GPa)
#
#
# Indices 1 2 3 4 5 6 
#
# 1 88.0884 41.2600 53.9213 0.0000 0.0000 0.0000
# 2 41.2600 99.5934 37.7222 0.0000 0.0000 0.0000
# 3 53.9213 37.7222 86.2559 0.0000 0.0000 0.0000
# 4 0.0000 0.0000 0.0000 9.5913 0.0000 0.0000
# 5 0.0000 0.0000 0.0000 0.0000 24.8916 0.0000
# 6 0.0000 0.0000 0.0000 0.0000 0.0000 23.9256
#
#
#
# Elastic Compliance Matrix: (Units=1/GPa)
#
#
# Indices 1 2 3 4 5 6 
#
# 1 0.019755 -0.004203 -0.010512 0.000000 0.000000 0.000000
# 2 -0.004203 0.012928 -0.003027 0.000000 0.000000 0.000000
# 3 -0.010512 -0.003027 0.019488 0.000000 0.000000 0.000000
# 4 0.000000 0.000000 0.000000 0.104261 0.000000 0.000000
# 5 0.000000 0.000000 0.000000 0.000000 0.040174 0.000000
# 6 0.000000 0.000000 0.000000 0.000000 0.000000 0.041796
#
#
# Mechanical properties :
#
#
# Convention : Reuss Voigt Hill
#
# Bulk Modulus (GPa) = 59.91741 59.97161 59.94451
# Shear Modulus (GPa) = 17.89240 21.08399 19.48819
#
# Velocity S-wave (km/s) = 3.02087 3.27924 3.15270
# Velocity P-wave (km/s) = 6.53660 6.70262 6.62013
#
# Compressibility (1/GPa) = 0.01668964
#
# Stress axis : x y z
#
# Youngs Moduli (GPa) = 50.61937 77.34918 51.31328
#
# Poissons Ratio (x) = 0.32509 0.53938
# Poissons Ratio (y) = 0.21275 0.15530
# Poissons Ratio (z) = 0.53209 0.23410
#
# Static dielectric constant tensor:
#      x y z
#    x 1.680000 0.000000 0.000000 
#    y 0.000000 1.819320 0.000000 
#    z 0.000000 0.000000 1.704220 
# 
# From -- ./inp_files/21683.got.cif
#   From: 2010.05.17/outbox.cif.g08.bks.cpg/sg40_11_cif.got.tgz:21683.got - 2010.06.03 18:35:42.
