data_PCOD9364381
_publ_section_title
;
Structure prediction by ZEFSAII (Michael W. Deem and Ramdas Pophale) SiO2 
 PCOD9364381
Probable space group: A M A 2
;
_chemical_formula_sum "Si O2"
_cell_formula_units_Z 48
_cell_length_a 23.596255
_cell_length_b 7.103102
_cell_length_c 12.138997
_cell_angle_alpha 90.000000
_cell_angle_beta 90.000000
_cell_angle_gamma 90.000000
_cell_volume 2034.576088
_symmetry_space_group_name_H-M "A M A 2"
_symmetry_group_IT_number 40
_symmetry_cell_setting 'orthorhombic'
loop_
_space_group_symop_operation_xyz
x,y,z
-x,-y,z
1/2-x,y,z
1/2+x,-y,z
x,1/2+y,1/2+z
-x,1/2-y,1/2+z
1/2-x,1/2+y,1/2+z
1/2+x,1/2-y,1/2+z
loop_
_atom_site_type_symbol
_atom_site_label
_atom_site_fract_x
_atom_site_fract_y
_atom_site_fract_z
Si Si1 0.142776 0.941488 0.816950
Si Si2 0.346245 0.946981 0.507978
Si Si3 0.000000 0.500000 0.684914
Si Si4 0.682594 0.495359 0.552353
Si Si5 0.448238 0.366951 0.153583
Si Si6 0.118336 0.382124 0.773246
Si Si7 0.250000 0.490692 0.162380
O O1 0.126036 0.160675 0.797438
O O2 0.200337 0.919646 0.748351
O O3 0.091936 0.829862 0.758935
O O4 0.154295 0.911264 0.945118
O O5 0.325400 0.730199 0.530488
O O6 0.407646 0.960422 0.563629
O O7 0.352468 0.978639 0.378883
O O8 0.299686 0.060083 0.575147
O O9 0.973603 0.330869 0.614664
O O10 0.948139 0.579146 0.756968
O O11 0.750000 0.523493 0.560756
O O12 0.651026 0.555679 0.663236
O O13 0.500000 0.500000 0.182545
#
# Coordination Sequence:
#
# PCOD9364381 Si02
#       7
#     8   8   4   8   8   8   4
#     4  10  23  45  68  98 139 179 226 288 359 412
#     4  10  23  42  68  97 139 180 226 294 350 413
#     4  12  24  48  68 100 142 180 244 288 342 428
#     4  11  22  42  69  99 137 182 229 287 349 426
#     4  11  23  47  70 100 137 183 232 291 352 413
#     4  11  25  43  66 102 133 185 238 280 350 424
#     4  10  20  42  66  96 138 172 220 286 350 414
#
# _framework density 23.592140000000001
#
# number of rings (size 3 to 8) (size 9 to 14) (size 15 to 20)
#    0.000    1.333    5.000    0.000    3.500    0.000 
#   10.500    1.667    0.000    0.000    0.000    0.000 
#    0.000    0.000    0.000    0.000    0.000    0.000 
#
# Total GULP energy -133857.184427 kJ/mol
# GULP energy per Si atom -5577.382684 kJ/mol
# Density = 2.353844 g / cm^3
# Si number density = 23.592140 Si / 1000 Ang^3
#
#
#
# Elastic Constant Matrix: (Units=GPa)
#
#
# Indices 1 2 3 4 5 6 
#
# 1 199.9391 34.3802 78.7011 0.0000 0.0000 0.0000
# 2 34.3802 60.9976 8.5277 0.0000 0.0000 0.0000
# 3 78.7011 8.5277 209.9766 0.0000 0.0000 0.0000
# 4 0.0000 0.0000 0.0000 28.4240 0.0000 0.0000
# 5 0.0000 0.0000 0.0000 0.0000 23.6184 0.0000
# 6 0.0000 0.0000 0.0000 0.0000 0.0000 -83.0857
#
#
#
# Elastic Compliance Matrix: (Units=1/GPa)
#
#
# Indices 1 2 3 4 5 6 
#
# 1 0.006476 -0.003330 -0.002292 0.000000 0.000000 0.000000
# 2 -0.003330 0.018200 0.000509 0.000000 0.000000 0.000000
# 3 -0.002292 0.000509 0.005601 0.000000 0.000000 0.000000
# 4 0.000000 0.000000 0.000000 0.035182 0.000000 0.000000
# 5 0.000000 0.000000 0.000000 0.000000 0.042340 0.000000
# 6 0.000000 0.000000 0.000000 0.000000 0.000000 -0.012036
#
#
# Mechanical properties :
#
#
# Convention : Reuss Voigt Hill
#
# Bulk Modulus (GPa) = 49.87322 79.34790 64.61056
# Shear Modulus (GPa) = 44.37645 17.07830 30.72738
#
# Velocity S-wave (km/s) = 4.34174 2.69345 3.61285
# Velocity P-wave (km/s) = 6.80587 6.58628 6.69698
#
# Compressibility (1/GPa) = 0.02005084
#
# Stress axis : x y z
#
# Youngs Moduli (GPa) = 154.40792 54.94581 178.54300
#
# Poissons Ratio (x) = 0.18296 0.40925
# Poissons Ratio (y) = 0.51415 -0.09086
# Poissons Ratio (z) = 0.35393 -0.02796
#
# Static dielectric constant tensor:
#      x y z
#    x 1.755670 0.000000 0.000000 
#    y 0.000000 2.055460 0.000000 
#    z 0.000000 0.000000 1.874810 
# 
# From -- ./inp_files/13941.got.cif
#   From: 2010.05.17/outbox.cif.g08.bks.cpg/sg40_7_cif.got.tgz:13941.got - 2010.06.03 18:35:42.
