data_PCOD9364880
_publ_section_title
;
Structure prediction by ZEFSAII (Michael W. Deem and Ramdas Pophale) SiO2 
 PCOD9364880
Probable space group: A M A 2
;
_chemical_formula_sum "Si O2"
_cell_formula_units_Z 64
_cell_length_a 17.852890
_cell_length_b 27.691720
_cell_length_c 6.790643
_cell_angle_alpha 90.000000
_cell_angle_beta 90.000000
_cell_angle_gamma 90.000000
_cell_volume 3357.139284
_symmetry_space_group_name_H-M "A M A 2"
_symmetry_group_IT_number 40
_symmetry_cell_setting 'orthorhombic'
loop_
_space_group_symop_operation_xyz
x,y,z
-x,-y,z
1/2-x,y,z
1/2+x,-y,z
x,1/2+y,1/2+z
-x,1/2-y,1/2+z
1/2-x,1/2+y,1/2+z
1/2+x,1/2-y,1/2+z
loop_
_atom_site_type_symbol
_atom_site_label
_atom_site_fract_x
_atom_site_fract_y
_atom_site_fract_z
Si Si1 0.835823 0.233213 0.544590
Si Si2 0.160527 0.501848 0.537386
Si Si3 0.407703 0.224905 0.658142
Si Si4 0.446359 0.808929 0.857299
Si Si5 0.559343 0.587960 0.538820
Si Si6 0.833818 0.329141 0.808763
Si Si7 0.052925 0.542605 0.216683
Si Si8 0.074658 0.578701 0.804187
O O1 0.750000 0.216073 0.538327
O O2 0.866092 0.244719 0.327402
O O3 0.888033 0.199172 0.678279
O O4 0.837150 0.284316 0.659880
O O5 0.250000 0.505706 0.545484
O O6 0.130919 0.446798 0.549559
O O7 0.123685 0.522077 0.335857
O O8 0.119526 0.534522 0.703969
O O9 0.471617 0.192794 0.760452
O O10 0.443404 0.263329 0.505625
O O11 0.354895 0.191896 0.522898
O O12 0.427456 0.856868 0.979559
O O13 0.501691 0.568299 0.372486
O O14 0.511259 0.580499 0.736182
O O15 0.750000 0.348990 0.811643
O O16 0.889196 0.370824 0.740733
O O17 0.000000 0.500000 0.132621
O O18 0.078945 0.574891 0.037695
#
# Coordination Sequence:
#
# PCOD9364880 Si02
#       8
#     8   8   8   8   8   8   8   8
#     4  10  22  40  57  80 119 156 192 244 300 359
#     4  10  22  39  56  82 119 156 197 247 300 356
#     4  11  21  37  59  86 117 151 197 249 299 361
#     4  11  22  36  61  88 115 153 201 244 300 359
#     4  10  22  37  59  86 116 156 196 246 295 358
#     4  10  22  36  56  86 117 149 188 240 306 364
#     4   9  19  37  58  81 110 147 192 237 292 346
#     4  11  20  36  62  87 116 151 198 248 301 357
#
# _framework density 19.063851
#
# number of rings (size 3 to 8) (size 9 to 14) (size 15 to 20)
#    0.000    1.750    1.250    4.125    1.750    4.000 
#    0.000    0.000    0.000    0.000    0.000    0.000 
#    0.000    0.000    0.000    0.000    0.000    0.000 
#
# Total GULP energy -178631.939457 kJ/mol
# GULP energy per Si atom -5582.248108 kJ/mol
# Density = 1.902046 g / cm^3
# Si number density = 19.063851 Si / 1000 Ang^3
#
#
#
# Elastic Constant Matrix: (Units=GPa)
#
#
# Indices 1 2 3 4 5 6 
#
# 1 68.4158 -8.9931 5.6069 0.0000 0.0000 0.0000
# 2 -8.9931 47.2193 -14.3739 0.0000 0.0000 0.0000
# 3 5.6069 -14.3739 63.2540 0.0000 0.0000 0.0000
# 4 0.0000 0.0000 0.0000 22.0625 0.0000 0.0000
# 5 0.0000 0.0000 0.0000 0.0000 17.0810 0.0000
# 6 0.0000 0.0000 0.0000 0.0000 0.0000 20.8939
#
#
#
# Elastic Compliance Matrix: (Units=1/GPa)
#
#
# Indices 1 2 3 4 5 6 
#
# 1 0.015023 0.002638 -0.000732 0.000000 0.000000 0.000000
# 2 0.002638 0.023215 0.005042 0.000000 0.000000 0.000000
# 3 -0.000732 0.005042 0.017020 0.000000 0.000000 0.000000
# 4 0.000000 0.000000 0.000000 0.045326 0.000000 0.000000
# 5 0.000000 0.000000 0.000000 0.000000 0.058545 0.000000
# 6 0.000000 0.000000 0.000000 0.000000 0.000000 0.047861
#
#
# Mechanical properties :
#
#
# Convention : Reuss Voigt Hill
#
# Bulk Modulus (GPa) = 14.46054 15.92985 15.19519
# Shear Modulus (GPa) = 23.13263 25.11743 24.12503
#
# Velocity S-wave (km/s) = 3.48721 3.63373 3.56123
# Velocity P-wave (km/s) = 4.88016 5.09702 4.98977
#
# Compressibility (1/GPa) = 0.06915373
#
# Stress axis : x y z
#
# Youngs Moduli (GPa) = 66.56316 43.07564 58.75502
#
# Poissons Ratio (x) = -0.11365 0.04302
# Poissons Ratio (y) = -0.17562 -0.29621
# Poissons Ratio (z) = 0.04873 -0.21717
#
# Static dielectric constant tensor:
#      x y z
#    x 1.653610 0.000000 0.000000 
#    y 0.000000 1.674420 0.000000 
#    z 0.000000 0.000000 1.654160 
# 
# From -- ./inp_files/2011.got.cif
#   From: 2010.05.17/outbox.cif.g08.bks.cpg/sg40_2_cif.got.tgz:2011.got - 2010.06.03 18:35:42.
