data_PCOD9364735
_publ_section_title
;
Structure prediction by ZEFSAII (Michael W. Deem and Ramdas Pophale) SiO2 
 PCOD9364735
Probable space group: A M A 2
;
_chemical_formula_sum "Si O2"
_cell_formula_units_Z 40
_cell_length_a 18.464875
_cell_length_b 7.442532
_cell_length_c 12.706449
_cell_angle_alpha 90.000000
_cell_angle_beta 90.000000
_cell_angle_gamma 90.000000
_cell_volume 1746.189129
_symmetry_space_group_name_H-M "A M A 2"
_symmetry_group_IT_number 40
_symmetry_cell_setting 'orthorhombic'
loop_
_space_group_symop_operation_xyz
x,y,z
-x,-y,z
1/2-x,y,z
1/2+x,-y,z
x,1/2+y,1/2+z
-x,1/2-y,1/2+z
1/2-x,1/2+y,1/2+z
1/2+x,1/2-y,1/2+z
loop_
_atom_site_type_symbol
_atom_site_label
_atom_site_fract_x
_atom_site_fract_y
_atom_site_fract_z
Si Si1 0.832786 0.306132 0.408110
Si Si2 0.386603 0.174389 0.121144
Si Si3 0.581488 0.955269 0.342946
Si Si4 0.038284 0.196707 0.550484
Si Si5 0.166317 0.070177 0.678093
O O1 0.750000 0.244299 0.408098
O O2 0.848852 0.404560 0.517672
O O3 0.843620 0.423690 0.303840
O O4 0.883016 0.130130 0.396290
O O5 0.377099 0.092263 0.236418
O O6 0.471268 0.183614 0.087833
O O7 0.353007 0.374264 0.133818
O O8 0.570006 0.801220 0.431821
O O9 0.500000 0.000000 0.310264
O O10 0.106454 0.201238 0.628044
O O11 0.000000 0.000000 0.557249
O O12 0.250000 0.115134 0.654471
#
# Coordination Sequence:
#
# PCOD9364735 Si02
#       5
#     8   8   8   8   8
#     4  11  23  41  61  89 127 161 201 254 303 360
#     4  11  22  40  64  88 124 159 205 250 304 366
#     4  11  21  41  65  91 120 160 206 250 309 357
#     4   9  18  36  62  86 114 154 197 245 295 355
#     4  10  21  40  63  86 122 162 197 247 308 356
#
# _framework density 22.907025000000001
#
# number of rings (size 3 to 8) (size 9 to 14) (size 15 to 20)
#    0.000    1.600    6.000    1.800    0.000    1.600 
#    7.200    0.000    0.000    0.000    0.000    0.000 
#    0.000    0.000    0.000    0.000    0.000    0.000 
#
# Total GULP energy -111692.508928 kJ/mol
# GULP energy per Si atom -5584.625446 kJ/mol
# Density = 2.285489 g / cm^3
# Si number density = 22.907025 Si / 1000 Ang^3
#
#
#
# Elastic Constant Matrix: (Units=GPa)
#
#
# Indices 1 2 3 4 5 6 
#
# 1 119.0432 6.1681 42.0953 0.0000 0.0000 0.0000
# 2 6.1681 20.4565 -3.5883 0.0000 0.0000 0.0000
# 3 42.0953 -3.5883 164.4333 0.0000 0.0000 0.0000
# 4 0.0000 0.0000 0.0000 32.3954 0.0000 0.0000
# 5 0.0000 0.0000 0.0000 0.0000 39.9873 0.0000
# 6 0.0000 0.0000 0.0000 0.0000 0.0000 3.9980
#
#
#
# Elastic Compliance Matrix: (Units=1/GPa)
#
#
# Indices 1 2 3 4 5 6 
#
# 1 0.009452 -0.003287 -0.002491 0.000000 0.000000 0.000000
# 2 -0.003287 0.050215 0.001937 0.000000 0.000000 0.000000
# 3 -0.002491 0.001937 0.006762 0.000000 0.000000 0.000000
# 4 0.000000 0.000000 0.000000 0.030869 0.000000 0.000000
# 5 0.000000 0.000000 0.000000 0.000000 0.025008 0.000000
# 6 0.000000 0.000000 0.000000 0.000000 0.000000 0.250128
#
#
# Mechanical properties :
#
#
# Convention : Reuss Voigt Hill
#
# Bulk Modulus (GPa) = 17.02236 43.69811 30.36024
# Shear Modulus (GPa) = 12.50949 32.56000 22.53475
#
# Velocity S-wave (km/s) = 2.33941 3.77423 3.13988
# Velocity P-wave (km/s) = 3.83983 6.17340 5.14078
#
# Compressibility (1/GPa) = 0.05874625
#
# Stress axis : x y z
#
# Youngs Moduli (GPa) = 105.80227 19.91436 147.89485
#
# Poissons Ratio (x) = 0.06546 0.36846
# Poissons Ratio (y) = 0.34776 -0.28651
# Poissons Ratio (z) = 0.26359 -0.03858
#
# Static dielectric constant tensor:
#      x y z
#    x 1.825390 0.000000 0.000000 
#    y 0.000000 1.919530 0.000000 
#    z 0.000000 0.000000 1.876160 
# 
# From -- ./inp_files/7146.got.cif
#   From: 2010.05.17/outbox.cif.g08.bks.cpg/sg40_4_cif.got.tgz:7146.got - 2010.06.03 18:35:42.
