data_PCOD9364198
_publ_section_title
;
Structure prediction by ZEFSAII (Michael W. Deem and Ramdas Pophale) SiO2 
 PCOD9364198
Probable space group: A M A 2
;
_chemical_formula_sum "Si O2"
_cell_formula_units_Z 64
_cell_length_a 7.809394
_cell_length_b 31.753413
_cell_length_c 12.304859
_cell_angle_alpha 90.000000
_cell_angle_beta 90.000000
_cell_angle_gamma 90.000000
_cell_volume 3051.296340
_symmetry_space_group_name_H-M "A M A 2"
_symmetry_group_IT_number 40
_symmetry_cell_setting 'orthorhombic'
loop_
_space_group_symop_operation_xyz
x,y,z
-x,-y,z
1/2-x,y,z
1/2+x,-y,z
x,1/2+y,1/2+z
-x,1/2-y,1/2+z
1/2-x,1/2+y,1/2+z
1/2+x,1/2-y,1/2+z
loop_
_atom_site_type_symbol
_atom_site_label
_atom_site_fract_x
_atom_site_fract_y
_atom_site_fract_z
Si Si1 0.045439 0.546573 0.312480
Si Si2 0.956565 0.454408 0.788209
Si Si3 0.949010 0.434738 0.551788
Si Si4 0.951871 0.126783 0.668645
Si Si5 0.454085 0.838607 0.053446
Si Si6 0.043036 0.704455 0.779264
Si Si7 0.459605 0.798956 0.825035
Si Si8 0.952945 0.373439 0.919198
O O1 0.250000 0.550733 0.316654
O O2 0.975014 0.551534 0.435982
O O3 0.000000 0.500000 0.272124
O O4 0.981263 0.584316 0.237141
O O5 0.750000 0.451169 0.783074
O O6 0.025405 0.451614 0.664428
O O7 0.021908 0.414900 0.857987
O O8 0.000000 0.500000 0.835151
O O9 0.750000 0.447750 0.549911
O O10 0.959830 0.384250 0.558704
O O11 0.750000 0.132879 0.657122
O O12 0.019733 0.166572 0.737472
O O13 0.023450 0.124277 0.547656
O O14 0.250000 0.845596 0.046887
O O15 0.494729 0.812111 0.160435
O O16 0.509867 0.814603 0.944617
O O17 0.250000 0.705968 0.785835
O O18 0.980827 0.751718 0.801022
O O19 0.979171 0.669633 0.865628
O O20 0.250000 0.798920 0.822777
O O21 0.750000 0.373126 0.897763
#
# Coordination Sequence:
#
# PCOD9364198 Si02
#       8
#     8   8   8   8   8   8   8   8
#     4  11  23  39  63  91 120 156 200 243 294 355
#     4  10  21  38  59  86 116 150 192 238 292 349
#     4  10  20  38  61  88 121 157 193 233 293 359
#     4  11  23  41  61  85 121 157 198 248 298 353
#     4  11  21  36  61  92 122 151 195 247 298 351
#     4  10  21  41  63  84 120 162 197 243 300 356
#     4   9  21  39  60  87 120 158 194 242 302 350
#     4  10  22  40  61  83 116 158 201 244 294 357
#
# _framework density 20.974694
#
# number of rings (size 3 to 8) (size 9 to 14) (size 15 to 20)
#    0.000    1.750    2.500    1.500    1.750    2.500 
#    0.000    3.125    0.000    0.000    0.000    0.000 
#    0.000    0.000    0.000    0.000    0.000    0.000 
#
# Total GULP energy -178816.211665 kJ/mol
# GULP energy per Si atom -5588.006615 kJ/mol
# Density = 2.092695 g / cm^3
# Si number density = 20.974694 Si / 1000 Ang^3
#
#
#
# Elastic Constant Matrix: (Units=GPa)
#
#
# Indices 1 2 3 4 5 6 
#
# 1 23.8944 -8.8154 -12.2583 0.0000 0.0000 0.0000
# 2 -8.8154 178.4451 77.2801 0.0000 0.0000 0.0000
# 3 -12.2583 77.2801 132.5620 0.0000 0.0000 0.0000
# 4 0.0000 0.0000 0.0000 31.1891 0.0000 0.0000
# 5 0.0000 0.0000 0.0000 0.0000 76.5279 0.0000
# 6 0.0000 0.0000 0.0000 0.0000 0.0000 12.4678
#
#
#
# Elastic Compliance Matrix: (Units=1/GPa)
#
#
# Indices 1 2 3 4 5 6 
#
# 1 0.043975 0.000550 0.003746 0.000000 0.000000 0.000000
# 2 0.000550 0.007504 -0.004323 0.000000 0.000000 0.000000
# 3 0.003746 -0.004323 0.010410 0.000000 0.000000 0.000000
# 4 0.000000 0.000000 0.000000 0.032062 0.000000 0.000000
# 5 0.000000 0.000000 0.000000 0.000000 0.013067 0.000000
# 6 0.000000 0.000000 0.000000 0.000000 0.000000 0.080207
#
#
# Mechanical properties :
#
#
# Convention : Reuss Voigt Hill
#
# Bulk Modulus (GPa) = 16.17222 49.70159 32.93691
# Shear Modulus (GPa) = 24.05092 42.61664 33.33378
#
# Velocity S-wave (km/s) = 3.38992 4.51245 3.99085
# Velocity P-wave (km/s) = 4.80095 7.13422 6.08055
#
# Compressibility (1/GPa) = 0.06183443
#
# Stress axis : x y z
#
# Youngs Moduli (GPa) = 22.73999 133.27049 96.05693
#
# Poissons Ratio (x) = -0.07333 -0.35980
# Poissons Ratio (y) = -0.01251 0.41530
# Poissons Ratio (z) = -0.08518 0.57619
#
# Static dielectric constant tensor:
#      x y z
#    x 1.770910 0.000000 0.000000 
#    y 0.000000 1.735380 0.000000 
#    z 0.000000 0.000000 1.729690 
# 
# From -- ./inp_files/10555.got.cif
#   From: 2010.05.17/outbox.cif.g08.bks.cpg/sg40_6_cif.got.tgz:10555.got - 2010.06.03 18:35:42.
