data_PCOD9364067
_publ_section_title
;
Structure prediction by ZEFSAII (Michael W. Deem and Ramdas Pophale) SiO2 
 PCOD9364067
Probable space group: A M A 2
;
_chemical_formula_sum "Si O2"
_cell_formula_units_Z 64
_cell_length_a 15.285757
_cell_length_b 8.487884
_cell_length_c 22.705308
_cell_angle_alpha 90.000000
_cell_angle_beta 90.000000
_cell_angle_gamma 90.000000
_cell_volume 2945.871402
_symmetry_space_group_name_H-M "A M A 2"
_symmetry_group_IT_number 40
_symmetry_cell_setting 'orthorhombic'
loop_
_space_group_symop_operation_xyz
x,y,z
-x,-y,z
1/2-x,y,z
1/2+x,-y,z
x,1/2+y,1/2+z
-x,1/2-y,1/2+z
1/2-x,1/2+y,1/2+z
1/2+x,1/2-y,1/2+z
loop_
_atom_site_type_symbol
_atom_site_label
_atom_site_fract_x
_atom_site_fract_y
_atom_site_fract_z
Si Si1 0.080958 0.390486 0.428710
Si Si2 0.605631 0.177300 0.213645
Si Si3 0.402217 0.474553 0.196341
Si Si4 0.344719 0.828055 0.808995
Si Si5 0.602622 0.528054 0.831990
Si Si6 0.407517 0.643376 0.660229
Si Si7 0.945101 0.633781 0.957474
Si Si8 0.353718 0.599722 0.531690
O O1 0.146626 0.390252 0.374999
O O2 0.121413 0.453447 0.489254
O O3 0.000000 0.500000 0.412449
O O4 0.029991 0.227465 0.433321
O O5 0.638078 0.349774 0.193504
O O6 0.622716 0.161116 0.283588
O O7 0.502737 0.165379 0.192195
O O8 0.639167 0.009334 0.188682
O O9 0.500000 0.500000 0.171940
O O10 0.409064 0.415412 0.264353
O O11 0.364107 0.316527 0.166349
O O12 0.250000 0.864279 0.783959
O O13 0.355601 0.639615 0.815018
O O14 0.500000 0.500000 0.823568
O O15 0.610360 0.578590 0.900166
O O16 0.408666 0.601097 0.591634
O O17 0.000000 0.500000 0.991644
O O18 0.885565 0.746464 0.996051
O O19 0.250000 0.601070 0.543191
#
# Coordination Sequence:
#
# PCOD9364067 Si02
#       8
#     8   8   8   8   8   8   8   8
#     4  10  22  40  65  91 123 175 228 270 314 397
#     4  10  20  36  69  96 126 170 228 279 325 393
#     4  10  21  38  65  99 127 176 225 275 331 401
#     4  12  23  37  61  97 144 176 210 278 349 403
#     4  11  18  39  62  97 133 171 216 272 332 400
#     4  10  21  40  64  95 129 170 226 279 330 398
#     4  10  22  39  69  97 126 170 232 273 322 404
#     4  11  26  45  64  93 137 179 219 285 352 399
#
# _framework density 21.72532
#
# number of rings (size 3 to 8) (size 9 to 14) (size 15 to 20)
#    0.000    1.500    5.000    1.500    8.750    2.500 
#    0.000    1.250    0.000    0.000    0.000    0.000 
#    0.000    0.000    0.000    0.000    0.000    0.000 
#
# Total GULP energy -178190.163036 kJ/mol
# GULP energy per Si atom -5568.442595 kJ/mol
# Density = 2.167587 g / cm^3
# Si number density = 21.725320 Si / 1000 Ang^3
#
#
#
# Elastic Constant Matrix: (Units=GPa)
#
#
# Indices 1 2 3 4 5 6 
#
# 1 60.2829 0.8834 4.4327 0.0000 0.0000 0.0000
# 2 0.8834 126.9490 27.7518 0.0000 0.0000 0.0000
# 3 4.4327 27.7518 109.4465 0.0000 0.0000 0.0000
# 4 0.0000 0.0000 0.0000 29.9011 0.0000 0.0000
# 5 0.0000 0.0000 0.0000 0.0000 -73.5680 0.0000
# 6 0.0000 0.0000 0.0000 0.0000 0.0000 0.7879
#
#
#
# Elastic Compliance Matrix: (Units=1/GPa)
#
#
# Indices 1 2 3 4 5 6 
#
# 1 0.016638 0.000033 -0.000682 0.000000 0.000000 0.000000
# 2 0.000033 0.008340 -0.002116 0.000000 0.000000 0.000000
# 3 -0.000682 -0.002116 0.009701 0.000000 0.000000 0.000000
# 4 0.000000 0.000000 0.000000 0.033444 0.000000 0.000000
# 5 0.000000 0.000000 0.000000 0.000000 -0.013593 0.000000
# 6 0.000000 0.000000 0.000000 0.000000 0.000000 1.269276
#
#
# Mechanical properties :
#
#
# Convention : Reuss Voigt Hill
#
# Bulk Modulus (GPa) = 34.30662 40.31267 37.30964
# Shear Modulus (GPa) = 3.73399 8.99824 6.36611
#
# Velocity S-wave (km/s) = 1.31242 2.03735 1.71366
# Velocity P-wave (km/s) = 4.25699 4.91226 4.59632
#
# Compressibility (1/GPa) = 0.02914890
#
# Stress axis : x y z
#
# Youngs Moduli (GPa) = 60.10292 119.91114 103.08159
#
# Poissons Ratio (x) = -0.00400 0.07034
# Poissons Ratio (y) = -0.00201 0.21812
# Poissons Ratio (z) = 0.04101 0.25373
#
# Static dielectric constant tensor:
#      x y z
#    x 1.811260 0.000000 0.000000 
#    y 0.000000 1.256030 0.000000 
#    z 0.000000 0.000000 1.801340 
# 
# From -- ./inp_files/24848.got.cif
#   From: 2010.05.17/outbox.cif.g08.bks.cpg/sg40_13_cif.got.tgz:24848.got - 2010.06.03 18:35:42.
