data_PCOD9364165
_publ_section_title
;
Structure prediction by ZEFSAII (Michael W. Deem and Ramdas Pophale) SiO2 
 PCOD9364165
Probable space group: A M A 2
;
_chemical_formula_sum "Si O2"
_cell_formula_units_Z 32
_cell_length_a 13.588274
_cell_length_b 18.370516
_cell_length_c 5.096086
_cell_angle_alpha 90.000000
_cell_angle_beta 90.000000
_cell_angle_gamma 90.000000
_cell_volume 1272.103358
_symmetry_space_group_name_H-M "A M A 2"
_symmetry_group_IT_number 40
_symmetry_cell_setting 'orthorhombic'
loop_
_space_group_symop_operation_xyz
x,y,z
-x,-y,z
1/2-x,y,z
1/2+x,-y,z
x,1/2+y,1/2+z
-x,1/2-y,1/2+z
1/2-x,1/2+y,1/2+z
1/2+x,1/2-y,1/2+z
loop_
_atom_site_type_symbol
_atom_site_label
_atom_site_fract_x
_atom_site_fract_y
_atom_site_fract_z
Si Si1 0.113259 0.420809 0.720640
Si Si2 0.638617 0.702808 0.321478
Si Si3 0.447090 0.144966 0.492563
Si Si4 0.116914 0.009333 0.723457
O O1 0.142369 0.343838 0.591396
O O2 0.145291 0.478090 0.501335
O O3 0.149483 0.455063 0.992433
O O4 0.996128 0.406482 0.768834
O O5 0.750000 0.699305 0.207121
O O6 0.607755 0.785229 0.382512
O O7 0.545200 0.671287 0.154455
O O8 0.373076 0.093821 0.655633
O O9 0.000000 0.000000 0.726298
#
# Coordination Sequence:
#
# PCOD9364165 Si02
#       4
#     8   8   8   8
#     4  11  21  42  70 104 133 189 236 297 358 430
#     4  12  26  45  70 107 149 193 246 300 365 443
#     4  11  24  43  75 103 147 191 242 297 375 424
#     4  10  20  37  74  98 134 183 238 291 367 418
#
# _framework density 25.155187000000002
#
# number of rings (size 3 to 8) (size 9 to 14) (size 15 to 20)
#    0.000    1.000    7.500    2.250    0.000    1.000 
#    0.000    2.500    0.000    0.000    0.000    0.000 
#    0.000    0.000    0.000    0.000    0.000    0.000 
#
# Total GULP energy -89311.939575 kJ/mol
# GULP energy per Si atom -5581.996223 kJ/mol
# Density = 2.509793 g / cm^3
# Si number density = 25.155187 Si / 1000 Ang^3
#
#
#
# Elastic Constant Matrix: (Units=GPa)
#
#
# Indices 1 2 3 4 5 6 
#
# 1 139.0892 29.5596 25.1258 0.0000 0.0000 0.0000
# 2 29.5596 183.4030 45.4119 0.0000 0.0000 0.0000
# 3 25.1258 45.4119 128.0585 0.0000 0.0000 0.0000
# 4 0.0000 0.0000 0.0000 43.0621 0.0000 0.0000
# 5 0.0000 0.0000 0.0000 0.0000 -8.4077 0.0000
# 6 0.0000 0.0000 0.0000 0.0000 0.0000 -63.6862
#
#
#
# Elastic Compliance Matrix: (Units=1/GPa)
#
#
# Indices 1 2 3 4 5 6 
#
# 1 0.007598 -0.000938 -0.001158 0.000000 0.000000 0.000000
# 2 -0.000938 0.006093 -0.001977 0.000000 0.000000 0.000000
# 3 -0.001158 -0.001977 0.008737 0.000000 0.000000 0.000000
# 4 0.000000 0.000000 0.000000 0.023222 0.000000 0.000000
# 5 0.000000 0.000000 0.000000 0.000000 -0.118938 0.000000
# 6 0.000000 0.000000 0.000000 0.000000 0.000000 -0.015702
#
#
# Mechanical properties :
#
#
# Convention : Reuss Voigt Hill
#
# Bulk Modulus (GPa) = 70.01398 72.30503 71.15951
# Shear Modulus (GPa) = -65.71785 17.55719 -24.08033
#
# Velocity S-wave (km/s) = -5.11680 2.64475 -3.09734
# Velocity P-wave (km/s) = 2.64871 6.17513 3.94440
#
# Compressibility (1/GPa) = 0.01428286
#
# Stress axis : x y z
#
# Youngs Moduli (GPa) = 131.61060 164.12073 114.45370
#
# Poissons Ratio (x) = 0.15392 0.13256
# Poissons Ratio (y) = 0.12343 0.22624
# Poissons Ratio (z) = 0.15244 0.32442
#
# Static dielectric constant tensor:
#      x y z
#    x 2.070320 0.000000 0.000000 
#    y 0.000000 2.015410 0.000000 
#    z 0.000000 0.000000 2.073650 
# 
# From -- ./inp_files/1085.got.cif
#   From: 2010.05.17/outbox.cif.g08.bks.cpg/sg40_1_cif.got.tgz:1085.got - 2010.06.03 18:35:42.
