data_PCOD9364891
_publ_section_title
;
Structure prediction by ZEFSAII (Michael W. Deem and Ramdas Pophale) SiO2 
 PCOD9364891
Probable space group: A M A 2
;
_chemical_formula_sum "Si O2"
_cell_formula_units_Z 64
_cell_length_a 8.693079
_cell_length_b 25.546999
_cell_length_c 15.290335
_cell_angle_alpha 90.000000
_cell_angle_beta 90.000000
_cell_angle_gamma 90.000000
_cell_volume 3395.709409
_symmetry_space_group_name_H-M "A M A 2"
_symmetry_group_IT_number 40
_symmetry_cell_setting 'orthorhombic'
loop_
_space_group_symop_operation_xyz
x,y,z
-x,-y,z
1/2-x,y,z
1/2+x,-y,z
x,1/2+y,1/2+z
-x,1/2-y,1/2+z
1/2-x,1/2+y,1/2+z
1/2+x,1/2-y,1/2+z
loop_
_atom_site_type_symbol
_atom_site_label
_atom_site_fract_x
_atom_site_fract_y
_atom_site_fract_z
Si Si1 0.933039 0.350801 0.778640
Si Si2 0.934850 0.556704 0.660678
Si Si3 0.432689 0.217618 0.952421
Si Si4 0.065252 0.135179 0.648851
Si Si5 0.564930 0.664737 0.971720
Si Si6 0.435480 0.941528 0.795410
Si Si7 0.066572 0.740010 0.248506
Si Si8 0.934454 0.607091 0.480498
O O1 0.750000 0.354829 0.780582
O O2 0.004701 0.398271 0.724582
O O3 0.999183 0.350561 0.877281
O O4 0.981546 0.294956 0.736909
O O5 0.750000 0.555651 0.662937
O O6 0.986667 0.572486 0.562437
O O7 0.000000 0.500000 0.683836
O O8 0.250000 0.212307 0.965222
O O9 0.481703 0.274391 0.987274
O O10 0.461983 0.220743 0.848013
O O11 0.513389 0.166932 0.990799
O O12 0.250000 0.131896 0.648888
O O13 0.020852 0.192612 0.685918
O O14 0.999936 0.131063 0.551285
O O15 0.997323 0.092767 0.715146
O O16 0.750000 0.662808 0.968472
O O17 0.250000 0.942218 0.793921
O O18 0.488096 0.915312 0.887132
O O19 0.500000 0.000000 0.790810
O O20 0.250000 0.749240 0.240511
O O21 0.750000 0.605990 0.479461
#
# Coordination Sequence:
#
# PCOD9364891 Si02
#       8
#     8   8   8   8   8   8   8   8
#     4  11  23  40  63  90 119 159 205 251 305 364
#     4  11  24  43  63  88 120 158 204 257 307 361
#     4   9  18  34  56  84 120 159 197 238 293 353
#     4  11  22  38  61  90 123 162 205 251 303 360
#     4  10  22  40  60  88 125 162 200 251 306 360
#     4  11  23  40  61  88 122 163 206 252 302 360
#     4   9  19  36  57  86 122 160 197 244 299 354
#     4  10  22  37  58  88 122 159 200 246 299 357
#
# _framework density 18.847313
#
# number of rings (size 3 to 8) (size 9 to 14) (size 15 to 20)
#    0.000    1.750    1.250    3.750    1.750    5.000 
#    0.000    0.625    0.000    0.000    0.000    0.000 
#    0.000    0.000    0.000    0.000    0.000    0.000 
#
# Total GULP energy -178825.403152 kJ/mol
# GULP energy per Si atom -5588.293849 kJ/mol
# Density = 1.880442 g / cm^3
# Si number density = 18.847313 Si / 1000 Ang^3
#
#
#
# Elastic Constant Matrix: (Units=GPa)
#
#
# Indices 1 2 3 4 5 6 
#
# 1 58.2012 41.8506 31.1887 0.0000 0.0000 0.0000
# 2 41.8506 124.4846 57.2988 0.0000 0.0000 0.0000
# 3 31.1887 57.2988 88.2332 0.0000 0.0000 0.0000
# 4 0.0000 0.0000 0.0000 23.0160 0.0000 0.0000
# 5 0.0000 0.0000 0.0000 0.0000 66.7017 0.0000
# 6 0.0000 0.0000 0.0000 0.0000 0.0000 34.5500
#
#
#
# Elastic Compliance Matrix: (Units=1/GPa)
#
#
# Indices 1 2 3 4 5 6 
#
# 1 0.023905 -0.005915 -0.004608 0.000000 0.000000 0.000000
# 2 -0.005915 0.012922 -0.006301 0.000000 0.000000 0.000000
# 3 -0.004608 -0.006301 0.017054 0.000000 0.000000 0.000000
# 4 0.000000 0.000000 0.000000 0.043448 0.000000 0.000000
# 5 0.000000 0.000000 0.000000 0.000000 0.014992 0.000000
# 6 0.000000 0.000000 0.000000 0.000000 0.000000 0.028944
#
#
# Mechanical properties :
#
#
# Convention : Reuss Voigt Hill
#
# Bulk Modulus (GPa) = 49.42610 59.06615 54.24613
# Shear Modulus (GPa) = 27.52433 34.22560 30.87497
#
# Velocity S-wave (km/s) = 3.82564 4.26601 4.05181
# Velocity P-wave (km/s) = 6.76724 7.46140 7.12278
#
# Compressibility (1/GPa) = 0.02023223
#
# Stress axis : x y z
#
# Youngs Moduli (GPa) = 41.83241 77.38813 58.63673
#
# Poissons Ratio (x) = 0.45778 0.27022
# Poissons Ratio (y) = 0.24746 0.36944
# Poissons Ratio (z) = 0.19278 0.48758
#
# Static dielectric constant tensor:
#      x y z
#    x 1.630620 0.000000 0.000000 
#    y 0.000000 1.623800 0.000000 
#    z 0.000000 0.000000 1.660020 
# 
# From -- ./inp_files/15619.got.cif
#   From: 2010.05.17/outbox.cif.g08.bks.cpg/sg40_8_cif.got.tgz:15619.got - 2010.06.03 18:35:42.
