data_PCOD9364696
_publ_section_title
;
Structure prediction by ZEFSAII (Michael W. Deem and Ramdas Pophale) SiO2 
 PCOD9364696
Probable space group: A M A 2
;
_chemical_formula_sum "Si O2"
_cell_formula_units_Z 64
_cell_length_a 17.059525
_cell_length_b 17.725696
_cell_length_c 9.963227
_cell_angle_alpha 90.000000
_cell_angle_beta 90.000000
_cell_angle_gamma 90.000000
_cell_volume 3012.799681
_symmetry_space_group_name_H-M "A M A 2"
_symmetry_group_IT_number 40
_symmetry_cell_setting 'orthorhombic'
loop_
_space_group_symop_operation_xyz
x,y,z
-x,-y,z
1/2-x,y,z
1/2+x,-y,z
x,1/2+y,1/2+z
-x,1/2-y,1/2+z
1/2-x,1/2+y,1/2+z
1/2+x,1/2-y,1/2+z
loop_
_atom_site_type_symbol
_atom_site_label
_atom_site_fract_x
_atom_site_fract_y
_atom_site_fract_z
Si Si1 0.588309 0.986301 0.281560
Si Si2 0.906079 0.998320 0.715923
Si Si3 0.161411 0.002258 0.012993
Si Si4 0.659639 0.594226 0.978166
Si Si5 0.930479 0.735720 0.850585
Si Si6 0.392195 0.689894 0.827901
Si Si7 0.833710 0.817639 0.051786
Si Si8 0.842414 0.832272 0.630405
O O1 0.604688 0.021456 0.134802
O O2 0.596187 0.897286 0.288617
O O3 0.500000 0.000000 0.328422
O O4 0.651047 0.022525 0.380342
O O5 0.876772 0.916043 0.662622
O O6 0.875054 0.064259 0.618182
O O7 0.872840 0.010026 0.865700
O O8 0.000000 0.000000 0.716810
O O9 0.250000 0.970929 0.025311
O O10 0.168294 0.092237 0.037795
O O11 0.750000 0.615909 0.992142
O O12 0.607976 0.658142 0.904804
O O13 0.887282 0.771134 0.721985
O O14 0.022593 0.727610 0.829431
O O15 0.909059 0.792447 0.970092
O O16 0.341039 0.715845 0.701296
O O17 0.355279 0.689790 0.975129
O O18 0.750000 0.791355 0.993101
O O19 0.750000 0.833828 0.661089
#
# Coordination Sequence:
#
# PCOD9364696 Si02
#       8
#     8   8   8   8   8   8   8   8
#     4  11  21  40  62  93 131 168 212 269 331 396
#     4  12  24  41  65  98 131 172 226 290 334 396
#     4  10  21  39  65  92 123 168 221 269 323 398
#     4  12  24  40  65  95 132 173 219 275 336 397
#     4  12  24  43  65  96 135 178 218 275 345 409
#     4  11  23  39  66  97 128 171 222 278 328 399
#     4  10  21  40  64  91 126 169 219 268 328 398
#     4  12  24  43  69  98 136 181 234 280 338 417
#
# _framework density 21.242701
#
# number of rings (size 3 to 8) (size 9 to 14) (size 15 to 20)
#    0.000    0.750    3.750    5.250    0.000    1.000 
#    0.000    1.250    0.000    0.000    0.000    0.000 
#    0.000    0.000    0.000    0.000    0.000    0.000 
#
# Total GULP energy -178761.662324 kJ/mol
# GULP energy per Si atom -5586.301948 kJ/mol
# Density = 2.119435 g / cm^3
# Si number density = 21.242701 Si / 1000 Ang^3
#
#
#
# Elastic Constant Matrix: (Units=GPa)
#
#
# Indices 1 2 3 4 5 6 
#
# 1 115.1814 13.0631 14.8608 0.0000 0.0000 0.0000
# 2 13.0631 24.8971 -3.9528 0.0000 0.0000 0.0000
# 3 14.8608 -3.9528 134.6489 0.0000 0.0000 0.0000
# 4 0.0000 0.0000 0.0000 29.7789 0.0000 0.0000
# 5 0.0000 0.0000 0.0000 0.0000 28.1655 0.0000
# 6 0.0000 0.0000 0.0000 0.0000 0.0000 21.8001
#
#
#
# Elastic Compliance Matrix: (Units=1/GPa)
#
#
# Indices 1 2 3 4 5 6 
#
# 1 0.009417 -0.005130 -0.001190 0.000000 0.000000 0.000000
# 2 -0.005130 0.043148 0.001833 0.000000 0.000000 0.000000
# 3 -0.001190 0.001833 0.007612 0.000000 0.000000 0.000000
# 4 0.000000 0.000000 0.000000 0.033581 0.000000 0.000000
# 5 0.000000 0.000000 0.000000 0.000000 0.035504 0.000000
# 6 0.000000 0.000000 0.000000 0.000000 0.000000 0.045871
#
#
# Mechanical properties :
#
#
# Convention : Reuss Voigt Hill
#
# Bulk Modulus (GPa) = 19.53017 35.85218 27.69117
# Shear Modulus (GPa) = 24.85391 32.66599 28.75995
#
# Velocity S-wave (km/s) = 3.42423 3.92567 3.68350
# Velocity P-wave (km/s) = 4.98474 6.12061 5.58165
#
# Compressibility (1/GPa) = 0.05120284
#
# Stress axis : x y z
#
# Youngs Moduli (GPa) = 106.18751 23.17607 131.37391
#
# Poissons Ratio (x) = 0.11889 0.15633
# Poissons Ratio (y) = 0.54475 -0.24079
# Poissons Ratio (z) = 0.12636 -0.04248
#
# Static dielectric constant tensor:
#      x y z
#    x 1.298190 0.000000 0.000000 
#    y 0.000000 1.817470 0.000000 
#    z 0.000000 0.000000 1.803030 
# 
# From -- ./inp_files/7815.got.cif
#   From: 2010.05.17/outbox.cif.g08.bks.cpg/sg40_4_cif.got.tgz:7815.got - 2010.06.03 18:35:42.
