data_PCOD9364180
_publ_section_title
;
Structure prediction by ZEFSAII (Michael W. Deem and Ramdas Pophale) SiO2 
 PCOD9364180
Probable space group: A M A 2
;
_chemical_formula_sum "Si O2"
_cell_formula_units_Z 52
_cell_length_a 11.498439
_cell_length_b 27.093526
_cell_length_c 7.477069
_cell_angle_alpha 90.000000
_cell_angle_beta 90.000000
_cell_angle_gamma 90.000000
_cell_volume 2329.355651
_symmetry_space_group_name_H-M "A M A 2"
_symmetry_group_IT_number 40
_symmetry_cell_setting 'orthorhombic'
loop_
_space_group_symop_operation_xyz
x,y,z
-x,-y,z
1/2-x,y,z
1/2+x,-y,z
x,1/2+y,1/2+z
-x,1/2-y,1/2+z
1/2-x,1/2+y,1/2+z
1/2+x,1/2-y,1/2+z
loop_
_atom_site_type_symbol
_atom_site_label
_atom_site_fract_x
_atom_site_fract_y
_atom_site_fract_z
Si Si1 0.084208 0.634747 0.501210
Si Si2 0.250000 0.219384 0.117610
Si Si3 0.878329 0.859030 0.582467
Si Si4 0.877369 0.978733 0.085751
Si Si5 0.120140 0.024160 0.512038
Si Si6 0.948157 0.219794 0.434921
Si Si7 0.118496 0.303153 0.535299
O O1 0.149367 0.675043 0.621734
O O2 0.118872 0.646053 0.297008
O O3 0.117419 0.579708 0.549804
O O4 0.947481 0.645102 0.517692
O O5 0.351046 0.259945 0.067343
O O6 0.750000 0.840307 0.522895
O O7 0.887567 0.916831 0.538409
O O8 0.983688 0.828427 0.500595
O O9 0.750000 0.996750 0.019245
O O10 0.877500 0.986545 0.299749
O O11 0.000000 0.000000 0.015243
O O12 0.250000 0.009350 0.581925
O O13 0.000000 0.000000 0.583144
O O14 0.045554 0.262472 0.428811
O O15 0.890309 0.212571 0.242352
O O16 0.250000 0.303683 0.474928
#
# Coordination Sequence:
#
# PCOD9364180 Si02
#       7
#     8   4   8   8   8   8   8
#     4  11  22  41  64  87 127 169 201 258 318 372
#     4  10  20  38  60  82 120 160 200 246 308 360
#     4  11  22  40  64  89 126 163 212 258 308 378
#     4  10  20  38  65  92 123 164 213 259 318 382
#     4   9  20  39  62  92 123 162 209 260 314 381
#     4  11  22  40  62  85 120 165 207 256 315 358
#     4  11  24  41  59  87 124 160 209 266 304 377
#
# _framework density 22.323772000000002
#
# number of rings (size 3 to 8) (size 9 to 14) (size 15 to 20)
#    0.000    1.538    2.308    3.231    0.000    1.231 
#   19.385    1.538    0.000    0.000    0.000    0.000 
#    0.000    0.000    0.000    0.000    0.000    0.000 
#
# Total GULP energy -144838.061198 kJ/mol
# GULP energy per Si atom -5570.694661 kJ/mol
# Density = 2.227296 g / cm^3
# Si number density = 22.323772 Si / 1000 Ang^3
#
#
#
# Elastic Constant Matrix: (Units=GPa)
#
#
# Indices 1 2 3 4 5 6 
#
# 1 242.4078 64.7047 13.0212 0.0000 0.0000 0.0000
# 2 64.7047 66.8255 -8.5001 0.0000 0.0000 0.0000
# 3 13.0212 -8.5001 68.7454 0.0000 0.0000 0.0000
# 4 0.0000 0.0000 0.0000 19.0670 0.0000 0.0000
# 5 0.0000 0.0000 0.0000 0.0000 1.5485 0.0000
# 6 0.0000 0.0000 0.0000 0.0000 0.0000 -64.2356
#
#
#
# Elastic Compliance Matrix: (Units=1/GPa)
#
#
# Indices 1 2 3 4 5 6 
#
# 1 0.005778 -0.005825 -0.001815 0.000000 0.000000 0.000000
# 2 -0.005825 0.021076 0.003709 0.000000 0.000000 0.000000
# 3 -0.001815 0.003709 0.015349 0.000000 0.000000 0.000000
# 4 0.000000 0.000000 0.000000 0.052447 0.000000 0.000000
# 5 0.000000 0.000000 0.000000 0.000000 0.645800 0.000000
# 6 0.000000 0.000000 0.000000 0.000000 0.000000 -0.015568
#
#
# Mechanical properties :
#
#
# Convention : Reuss Voigt Hill
#
# Bulk Modulus (GPa) = 29.11876 57.38114 43.24995
# Shear Modulus (GPa) = 6.71872 11.85950 9.28911
#
# Velocity S-wave (km/s) = 1.73672 2.30739 2.04209
# Velocity P-wave (km/s) = 4.13446 5.73224 4.99762
#
# Compressibility (1/GPa) = 0.03434213
#
# Stress axis : x y z
#
# Youngs Moduli (GPa) = 173.08203 47.44651 65.15181
#
# Poissons Ratio (x) = 0.27638 0.11822
# Poissons Ratio (y) = 1.00821 -0.24167
# Poissons Ratio (z) = 0.31407 -0.17600
#
# Static dielectric constant tensor:
#      x y z
#    x 1.869790 0.000000 0.000000 
#    y 0.000000 1.787650 0.000000 
#    z 0.000000 0.000000 1.880980 
# 
# From -- ./inp_files/5540.got.cif
#   From: 2010.05.17/outbox.cif.g08.bks.cpg/sg40_3_cif.got.tgz:5540.got - 2010.06.03 18:35:42.
