data_PCOD9364230
_publ_section_title
;
Structure prediction by ZEFSAII (Michael W. Deem and Ramdas Pophale) SiO2 
 PCOD9364230
Probable space group: A M A 2
;
_chemical_formula_sum "Si O2"
_cell_formula_units_Z 44
_cell_length_a 23.730122
_cell_length_b 9.881395
_cell_length_c 8.692819
_cell_angle_alpha 90.000000
_cell_angle_beta 90.000000
_cell_angle_gamma 90.000000
_cell_volume 2038.350518
_symmetry_space_group_name_H-M "A M A 2"
_symmetry_group_IT_number 40
_symmetry_cell_setting 'orthorhombic'
loop_
_space_group_symop_operation_xyz
x,y,z
-x,-y,z
1/2-x,y,z
1/2+x,-y,z
x,1/2+y,1/2+z
-x,1/2-y,1/2+z
1/2-x,1/2+y,1/2+z
1/2+x,1/2-y,1/2+z
loop_
_atom_site_type_symbol
_atom_site_label
_atom_site_fract_x
_atom_site_fract_y
_atom_site_fract_z
Si Si1 0.870026 0.546228 0.785280
Si Si2 0.250000 0.171088 0.018494
Si Si3 0.441996 0.697039 0.386717
Si Si4 0.750000 0.471105 0.835993
Si Si5 0.250000 0.328354 0.308033
Si Si6 0.463101 0.140169 0.240978
Si Si7 0.349839 0.509306 0.425265
O O1 0.904048 0.676430 0.836641
O O2 0.809109 0.540742 0.863399
O O3 0.906016 0.410425 0.823184
O O4 0.864572 0.540191 0.598514
O O5 0.250000 0.052422 0.149948
O O6 0.250000 0.300191 0.126162
O O7 0.307879 0.140316 0.933161
O O8 0.502514 0.738520 0.319007
O O9 0.448657 0.685965 0.569462
O O10 0.407197 0.560661 0.344802
O O11 0.750000 0.316784 0.893501
O O12 0.308016 0.402727 0.347899
O O13 0.500000 0.000000 0.233617
#
# Coordination Sequence:
#
# PCOD9364230 Si02
#       7
#     8   4   8   4   4   8   8
#     4   9  18  37  61  83 115 153 192 241 291 347
#     4   7  15  31  53  82 116 153 184 231 289 349
#     4  10  20  38  64  87 115 160 202 248 294 350
#     4   8  16  32  58  86 113 155 186 229 295 346
#     4   9  17  33  57  82 121 156 190 236 300 357
#     4   9  20  41  61  85 117 155 197 243 301 347
#     4   9  17  34  60  82 114 158 194 237 295 350
#
# _framework density 21.586079999999999
#
# number of rings (size 3 to 8) (size 9 to 14) (size 15 to 20)
#    0.545    2.545    0.000    0.545    0.000    1.455 
#    9.818    9.091    4.000    0.000    0.000    0.000 
#    0.000    0.000    0.000    0.000    0.000    0.000 
#
# Total GULP energy -122480.864609 kJ/mol
# GULP energy per Si atom -5567.312028 kJ/mol
# Density = 2.153695 g / cm^3
# Si number density = 21.586080 Si / 1000 Ang^3
#
#
#
# Elastic Constant Matrix: (Units=GPa)
#
#
# Indices 1 2 3 4 5 6 
#
# 1 73.6852 12.9899 17.4125 0.0000 0.0000 0.0000
# 2 12.9899 61.2303 21.3576 0.0000 0.0000 0.0000
# 3 17.4125 21.3576 25.6539 0.0000 0.0000 0.0000
# 4 0.0000 0.0000 0.0000 29.7127 0.0000 0.0000
# 5 0.0000 0.0000 0.0000 0.0000 26.5327 0.0000
# 6 0.0000 0.0000 0.0000 0.0000 0.0000-1119.1703
#
#
#
# Elastic Compliance Matrix: (Units=1/GPa)
#
#
# Indices 1 2 3 4 5 6 
#
# 1 0.016177 0.000561 -0.011447 0.000000 0.000000 0.000000
# 2 0.000561 0.023035 -0.019558 0.000000 0.000000 0.000000
# 3 -0.011447 -0.019558 0.063033 0.000000 0.000000 0.000000
# 4 0.000000 0.000000 0.000000 0.033656 0.000000 0.000000
# 5 0.000000 0.000000 0.000000 0.000000 0.037689 0.000000
# 6 0.000000 0.000000 0.000000 0.000000 0.000000 -0.000894
#
#
# Mechanical properties :
#
#
# Convention : Reuss Voigt Hill
#
# Bulk Modulus (GPa) = 24.18004 29.34327 26.76165
# Shear Modulus (GPa) = 20.21260 -205.33101 -92.55921
#
# Velocity S-wave (km/s) = 3.06334 -9.76363 -6.55532
# Velocity P-wave (km/s) = 4.87217 10.65277 6.69864
#
# Compressibility (1/GPa) = 0.04135643
#
# Stress axis : x y z
#
# Youngs Moduli (GPa) = 61.81433 43.41279 15.86475
#
# Poissons Ratio (x) = -0.02435 0.18161
# Poissons Ratio (y) = -0.03467 0.31028
# Poissons Ratio (z) = 0.70761 0.84906
#
# Static dielectric constant tensor:
#      x y z
#    x 1.863880 0.000000 0.000000 
#    y 0.000000 1.832290 0.000000 
#    z 0.000000 0.000000 1.765260 
# 
# From -- ./inp_files/13881.got.cif
#   From: 2010.05.17/outbox.cif.g08.bks.cpg/sg40_7_cif.got.tgz:13881.got - 2010.06.03 18:35:42.
