data_PCOD9364160
_publ_section_title
;
Structure prediction by ZEFSAII (Michael W. Deem and Ramdas Pophale) SiO2 
 PCOD9364160
Probable space group: A M A 2
;
_chemical_formula_sum "Si O2"
_cell_formula_units_Z 40
_cell_length_a 13.496575
_cell_length_b 12.962508
_cell_length_c 9.136123
_cell_angle_alpha 90.000000
_cell_angle_beta 90.000000
_cell_angle_gamma 90.000000
_cell_volume 1598.359798
_symmetry_space_group_name_H-M "A M A 2"
_symmetry_group_IT_number 40
_symmetry_cell_setting 'orthorhombic'
loop_
_space_group_symop_operation_xyz
x,y,z
-x,-y,z
1/2-x,y,z
1/2+x,-y,z
x,1/2+y,1/2+z
-x,1/2-y,1/2+z
1/2-x,1/2+y,1/2+z
1/2+x,1/2-y,1/2+z
loop_
_atom_site_type_symbol
_atom_site_label
_atom_site_fract_x
_atom_site_fract_y
_atom_site_fract_z
Si Si1 0.866735 0.969512 0.032680
Si Si2 0.634986 0.636776 0.328765
Si Si3 0.632579 0.771832 0.828963
Si Si4 0.501077 0.151039 0.571584
Si Si5 0.635550 0.385599 0.839430
O O1 0.750000 0.985649 0.063103
O O2 0.904986 0.927625 0.186421
O O3 0.870498 0.884710 0.904673
O O4 0.905762 0.076837 0.969754
O O5 0.750000 0.609946 0.310572
O O6 0.572870 0.602568 0.190445
O O7 0.629955 0.760443 0.336631
O O8 0.750000 0.743489 0.811547
O O9 0.572323 0.778788 0.676130
O O10 0.573367 0.703987 0.949734
O O11 0.427048 0.082280 0.477811
O O12 0.750000 0.413450 0.857896
#
# Coordination Sequence:
#
# PCOD9364160 Si02
#       5
#     8   8   8   8   8
#     4   9  19  38  65  94 131 179 229 290 353 407
#     4  10  20  37  67  99 132 180 236 289 344 421
#     4  11  22  38  63  95 135 181 231 287 347 422
#     4  12  21  38  64 101 134 186 229 281 358 421
#     4  10  20  39  66  99 138 181 233 290 351 428
#
# _framework density 25.025656000000001
#
# number of rings (size 3 to 8) (size 9 to 14) (size 15 to 20)
#    0.000    1.600    4.000    1.200    0.000    0.800 
#    0.000    0.000    8.800    0.000    0.000    4.200 
#    0.000    0.000    0.000    0.000    0.000    0.000 
#
# Total GULP energy -111882.064489 kJ/mol
# GULP energy per Si atom -5594.103224 kJ/mol
# Density = 2.496870 g / cm^3
# Si number density = 25.025656 Si / 1000 Ang^3
#
#
#
# Elastic Constant Matrix: (Units=GPa)
#
#
# Indices 1 2 3 4 5 6 
#
# 1 161.6002 35.0495 64.3609 0.0000 0.0000 0.0000
# 2 35.0495 72.4135 62.7515 0.0000 0.0000 0.0000
# 3 64.3609 62.7515 187.5037 0.0000 0.0000 0.0000
# 4 0.0000 0.0000 0.0000 46.7046 0.0000 0.0000
# 5 0.0000 0.0000 0.0000 0.0000 53.9541 0.0000
# 6 0.0000 0.0000 0.0000 0.0000 0.0000 18.4492
#
#
#
# Elastic Compliance Matrix: (Units=1/GPa)
#
#
# Indices 1 2 3 4 5 6 
#
# 1 0.007355 -0.001933 -0.001878 0.000000 0.000000 0.000000
# 2 -0.001933 0.019958 -0.006016 0.000000 0.000000 0.000000
# 3 -0.001878 -0.006016 0.007991 0.000000 0.000000 0.000000
# 4 0.000000 0.000000 0.000000 0.021411 0.000000 0.000000
# 5 0.000000 0.000000 0.000000 0.000000 0.018534 0.000000
# 6 0.000000 0.000000 0.000000 0.000000 0.000000 0.054203
#
#
# Mechanical properties :
#
#
# Convention : Reuss Voigt Hill
#
# Bulk Modulus (GPa) = 63.89163 82.87125 73.38144
# Shear Modulus (GPa) = 32.39946 41.11195 36.75571
#
# Velocity S-wave (km/s) = 3.60203 4.05753 3.83655
# Velocity P-wave (km/s) = 6.54869 7.42549 7.00083
#
# Compressibility (1/GPa) = 0.01565150
#
# Stress axis : x y z
#
# Youngs Moduli (GPa) = 135.95819 50.10427 125.13818
#
# Poissons Ratio (x) = 0.09684 0.23499
# Poissons Ratio (y) = 0.26278 0.75283
# Poissons Ratio (z) = 0.25531 0.30143
#
# Static dielectric constant tensor:
#      x y z
#    x 2.007400 0.000000 0.000000 
#    y 0.000000 2.054820 0.000000 
#    z 0.000000 0.000000 1.920240 
# 
# From -- ./inp_files/6136.got.cif
#   From: 2010.05.17/outbox.cif.g08.bks.cpg/sg40_4_cif.got.tgz:6136.got - 2010.06.03 18:35:42.
