data_PCOD9364132
_publ_section_title
;
Structure prediction by ZEFSAII (Michael W. Deem and Ramdas Pophale) SiO2 
 PCOD9364132
Probable space group: A M A 2
;
_chemical_formula_sum "Si O2"
_cell_formula_units_Z 64
_cell_length_a 26.140050
_cell_length_b 13.968326
_cell_length_c 8.660209
_cell_angle_alpha 90.000000
_cell_angle_beta 90.000000
_cell_angle_gamma 90.000000
_cell_volume 3162.125842
_symmetry_space_group_name_H-M "A M A 2"
_symmetry_group_IT_number 40
_symmetry_cell_setting 'orthorhombic'
loop_
_space_group_symop_operation_xyz
x,y,z
-x,-y,z
1/2-x,y,z
1/2+x,-y,z
x,1/2+y,1/2+z
-x,1/2-y,1/2+z
1/2-x,1/2+y,1/2+z
1/2+x,1/2-y,1/2+z
loop_
_atom_site_type_symbol
_atom_site_label
_atom_site_fract_x
_atom_site_fract_y
_atom_site_fract_z
Si Si1 0.894428 0.518295 0.822220
Si Si2 0.160224 0.593015 0.055747
Si Si3 0.355549 0.884943 0.032335
Si Si4 0.309427 0.571130 0.398648
Si Si5 0.564220 0.764670 0.569954
Si Si6 0.195855 0.240179 0.343208
Si Si7 0.461388 0.303858 0.905900
Si Si8 0.886457 0.321329 0.621803
O O1 0.858385 0.578271 0.706518
O O2 0.940809 0.588804 0.869280
O O3 0.903661 0.417277 0.723686
O O4 0.864865 0.499916 0.981352
O O5 0.188517 0.588897 0.216518
O O6 0.111577 0.663117 0.076706
O O7 0.193895 0.635214 0.916693
O O8 0.312950 0.807632 0.990277
O O9 0.340083 0.972795 0.926113
O O10 0.410818 0.834898 0.010070
O O11 0.250000 0.566984 0.449994
O O12 0.343855 0.644130 0.497649
O O13 0.543839 0.749005 0.742027
O O14 0.519369 0.802808 0.463226
O O15 0.250000 0.260399 0.266734
O O16 0.146234 0.245644 0.236526
O O17 0.428912 0.240756 0.031331
#
# Coordination Sequence:
#
# PCOD9364132 Si02
#       8
#     8   8   8   8   8   8   8   8
#     4   9  22  41  62  89 126 166 206 262 321 383
#     4  10  21  39  59  89 129 159 208 266 317 385
#     4   9  21  40  58  90 122 160 208 263 309 385
#     4  11  21  38  63  90 124 165 211 266 325 386
#     4  10  23  40  63  90 126 167 212 258 328 385
#     4  10  20  37  62  87 119 165 208 256 323 380
#     4  11  23  42  66  92 126 172 210 269 325 389
#     4  10  22  41  65  90 128 164 211 271 323 389
#
# _framework density 20.239547999999999
#
# number of rings (size 3 to 8) (size 9 to 14) (size 15 to 20)
#    0.000    2.000    1.250    1.125    7.000    0.500 
#    2.250    3.750    0.000    1.500    0.000    0.000 
#    0.000    0.000    0.000    0.000    0.000    0.000 
#
# Total GULP energy -178197.691305 kJ/mol
# GULP energy per Si atom -5568.677853 kJ/mol
# Density = 2.019348 g / cm^3
# Si number density = 20.239548 Si / 1000 Ang^3
#
#
#
# Elastic Constant Matrix: (Units=GPa)
#
#
# Indices 1 2 3 4 5 6 
#
# 1 97.7375 26.3699 31.2797 0.0000 0.0000 0.0000
# 2 26.3699 49.4280 12.4426 0.0000 0.0000 0.0000
# 3 31.2797 12.4426 76.5056 0.0000 0.0000 0.0000
# 4 0.0000 0.0000 0.0000 30.9686 0.0000 0.0000
# 5 0.0000 0.0000 0.0000 0.0000 26.2058 0.0000
# 6 0.0000 0.0000 0.0000 0.0000 0.0000 -52.9503
#
#
#
# Elastic Compliance Matrix: (Units=1/GPa)
#
#
# Indices 1 2 3 4 5 6 
#
# 1 0.013264 -0.005955 -0.004454 0.000000 0.000000 0.000000
# 2 -0.005955 0.023769 -0.001431 0.000000 0.000000 0.000000
# 3 -0.004454 -0.001431 0.015125 0.000000 0.000000 0.000000
# 4 0.000000 0.000000 0.000000 0.032291 0.000000 0.000000
# 5 0.000000 0.000000 0.000000 0.000000 0.038159 0.000000
# 6 0.000000 0.000000 0.000000 0.000000 0.000000 -0.018886
#
#
# Mechanical properties :
#
#
# Convention : Reuss Voigt Hill
#
# Bulk Modulus (GPa) = 35.11651 40.42837 37.77244
# Shear Modulus (GPa) = 36.52443 11.08342 23.80393
#
# Velocity S-wave (km/s) = 4.25268 2.34265 3.43317
# Velocity P-wave (km/s) = 6.44219 5.22835 5.86675
#
# Compressibility (1/GPa) = 0.02847664
#
# Stress axis : x y z
#
# Youngs Moduli (GPa) = 75.39353 42.07230 66.11615
#
# Poissons Ratio (x) = 0.25054 0.29451
# Poissons Ratio (y) = 0.44896 0.09461
# Poissons Ratio (z) = 0.33584 0.06020
#
# Static dielectric constant tensor:
#      x y z
#    x 1.773080 0.000000 0.000000 
#    y 0.000000 1.820840 0.000000 
#    z 0.000000 0.000000 1.729930 
# 
# From -- ./inp_files/8927.got.cif
#   From: 2010.05.17/outbox.cif.g08.bks.cpg/sg40_5_cif.got.tgz:8927.got - 2010.06.03 18:35:42.
