data_PCOD9364034
_publ_section_title
;
Structure prediction by ZEFSAII (Michael W. Deem and Ramdas Pophale) SiO2 
 PCOD9364034
Probable space group: A M A 2
;
_chemical_formula_sum "Si O2"
_cell_formula_units_Z 64
_cell_length_a 14.574142
_cell_length_b 8.052935
_cell_length_c 24.600296
_cell_angle_alpha 90.000000
_cell_angle_beta 90.000000
_cell_angle_gamma 90.000000
_cell_volume 2887.204348
_symmetry_space_group_name_H-M "A M A 2"
_symmetry_group_IT_number 40
_symmetry_cell_setting 'orthorhombic'
loop_
_space_group_symop_operation_xyz
x,y,z
-x,-y,z
1/2-x,y,z
1/2+x,-y,z
x,1/2+y,1/2+z
-x,1/2-y,1/2+z
1/2-x,1/2+y,1/2+z
1/2+x,1/2-y,1/2+z
loop_
_atom_site_type_symbol
_atom_site_label
_atom_site_fract_x
_atom_site_fract_y
_atom_site_fract_z
Si Si1 0.855715 0.780183 0.596200
Si Si2 0.102035 0.426278 0.175493
Si Si3 0.541576 0.835315 0.370223
Si Si4 0.357271 0.700511 0.509558
Si Si5 0.361561 0.578339 0.983347
Si Si6 0.105328 0.434723 0.296895
Si Si7 0.861715 0.424926 0.624702
Si Si8 0.149977 0.657870 0.394540
O O1 0.750000 0.736047 0.585151
O O2 0.895131 0.818120 0.536180
O O3 0.891104 0.619179 0.629821
O O4 0.855362 0.951939 0.630099
O O5 0.142090 0.444282 0.236079
O O6 0.104587 0.232070 0.159939
O O7 0.000000 0.500000 0.177379
O O8 0.597428 0.866753 0.425640
O O9 0.599426 0.745029 0.324124
O O10 0.447898 0.742143 0.386048
O O11 0.500000 0.000000 0.345310
O O12 0.250000 0.724223 0.522478
O O13 0.394730 0.620977 0.563727
O O14 0.360409 0.586978 0.455630
O O15 0.389564 0.885715 0.494163
O O16 0.250000 0.586494 0.981075
O O17 0.154600 0.539446 0.343219
O O18 0.000000 0.500000 0.294565
O O19 0.750000 0.418821 0.630647
O O20 0.250000 0.750227 0.396571
#
# Coordination Sequence:
#
# PCOD9364034 Si02
#       8
#     8   8   8   8   8   8   8   8
#     4  10  22  40  65  96 131 172 216 267 328 393
#     4  11  23  43  65  89 129 173 222 274 329 391
#     4  11  22  39  63  93 127 167 215 276 328 393
#     4   9  17  33  58  87 125 168 209 262 325 390
#     4  10  20  36  60  94 137 180 216 265 336 403
#     4   9  23  44  60  85 119 170 220 268 325 389
#     4  10  21  39  63  95 128 165 215 270 328 390
#     4  10  21  39  62  89 123 168 216 263 326 390
#
# _framework density 22.166771000000001
#
# number of rings (size 3 to 8) (size 9 to 14) (size 15 to 20)
#    0.000    2.000    2.500    0.375    1.750    3.500 
#    6.750    0.000    0.000    0.000    0.000    0.000 
#    0.000    0.000    0.000    0.000    0.000    0.000 
#
# Total GULP energy -178284.188320 kJ/mol
# GULP energy per Si atom -5571.380885 kJ/mol
# Density = 2.211632 g / cm^3
# Si number density = 22.166771 Si / 1000 Ang^3
#
#
#
# Elastic Constant Matrix: (Units=GPa)
#
#
# Indices 1 2 3 4 5 6 
#
# 1 70.5516 7.7302 1.8765 0.0000 0.0000 0.0000
# 2 7.7302 80.9992 33.0876 0.0000 0.0000 0.0000
# 3 1.8765 33.0876 102.3628 0.0000 0.0000 0.0000
# 4 0.0000 0.0000 0.0000 29.9161 0.0000 0.0000
# 5 0.0000 0.0000 0.0000 0.0000 126.2179 0.0000
# 6 0.0000 0.0000 0.0000 0.0000 0.0000 2.1083
#
#
#
# Elastic Compliance Matrix: (Units=1/GPa)
#
#
# Indices 1 2 3 4 5 6 
#
# 1 0.014328 -0.001452 0.000207 0.000000 0.000000 0.000000
# 2 -0.001452 0.014371 -0.004619 0.000000 0.000000 0.000000
# 3 0.000207 -0.004619 0.011258 0.000000 0.000000 0.000000
# 4 0.000000 0.000000 0.000000 0.033427 0.000000 0.000000
# 5 0.000000 0.000000 0.000000 0.000000 0.007923 0.000000
# 6 0.000000 0.000000 0.000000 0.000000 0.000000 0.474321
#
#
# Mechanical properties :
#
#
# Convention : Reuss Voigt Hill
#
# Bulk Modulus (GPa) = 35.42414 37.70024 36.56219
# Shear Modulus (GPa) = 8.66905 45.72975 27.19940
#
# Velocity S-wave (km/s) = 1.97973 4.54694 3.50671
# Velocity P-wave (km/s) = 4.60882 6.67912 5.73811
#
# Compressibility (1/GPa) = 0.02822934
#
# Stress axis : x y z
#
# Youngs Moduli (GPa) = 69.79539 69.58444 88.82326
#
# Poissons Ratio (x) = 0.10102 -0.01835
# Poissons Ratio (y) = 0.10133 0.41024
# Poissons Ratio (z) = -0.01442 0.32139
#
# Static dielectric constant tensor:
#      x y z
#    x 1.887740 0.000000 0.000000 
#    y 0.000000 1.819870 0.000000 
#    z 0.000000 0.000000 1.804500 
# 
# From -- ./inp_files/23367.got.cif
#   From: 2010.05.17/outbox.cif.g08.bks.cpg/sg40_12_cif.got.tgz:23367.got - 2010.06.03 18:35:42.
