data_PCOD9364245
_publ_section_title
;
Structure prediction by ZEFSAII (Michael W. Deem and Ramdas Pophale) SiO2 
 PCOD9364245
Probable space group: A M A 2
;
_chemical_formula_sum "Si O2"
_cell_formula_units_Z 64
_cell_length_a 18.025858
_cell_length_b 15.309215
_cell_length_c 11.815746
_cell_angle_alpha 90.000000
_cell_angle_beta 90.000000
_cell_angle_gamma 90.000000
_cell_volume 3260.693775
_symmetry_space_group_name_H-M "A M A 2"
_symmetry_group_IT_number 40
_symmetry_cell_setting 'orthorhombic'
loop_
_space_group_symop_operation_xyz
x,y,z
-x,-y,z
1/2-x,y,z
1/2+x,-y,z
x,1/2+y,1/2+z
-x,1/2-y,1/2+z
1/2-x,1/2+y,1/2+z
1/2+x,1/2-y,1/2+z
loop_
_atom_site_type_symbol
_atom_site_label
_atom_site_fract_x
_atom_site_fract_y
_atom_site_fract_z
Si Si1 0.441079 0.839947 0.598040
Si Si2 0.588876 0.498141 0.683993
Si Si3 0.419715 0.483238 0.285991
Si Si4 0.581729 0.808409 0.275927
Si Si5 0.408985 0.334320 0.839505
Si Si6 0.107008 0.221737 0.529223
Si Si7 0.337991 0.907343 0.992457
Si Si8 0.667428 0.839551 0.747236
O O1 0.434519 0.928875 0.670691
O O2 0.408570 0.764343 0.679379
O O3 0.404240 0.847049 0.474675
O O4 0.526313 0.812438 0.569683
O O5 0.500000 0.500000 0.660536
O O6 0.604161 0.403272 0.733482
O O7 0.607138 0.575600 0.773284
O O8 0.636826 0.513597 0.572253
O O9 0.500000 0.500000 0.340962
O O10 0.367651 0.426703 0.367419
O O11 0.383721 0.577647 0.271076
O O12 0.493822 0.810427 0.306266
O O13 0.619466 0.792031 0.396598
O O14 0.361376 0.250805 0.801429
O O15 0.116961 0.325259 0.543215
O O16 0.163978 0.175748 0.612619
O O17 0.250000 0.892256 0.995684
O O18 0.750000 0.858424 0.786824
#
# Coordination Sequence:
#
# PCOD9364245 Si02
#       8
#     8   8   8   8   8   8   8   8
#     4  11  22  40  67  99 130 161 223 276 327 375
#     4  10  21  39  64  97 126 165 217 271 320 381
#     4  12  25  43  68 101 130 177 222 276 324 390
#     4  10  20  38  64  97 125 162 213 269 321 383
#     4  10  22  38  64  97 129 162 213 274 323 386
#     4  11  21  40  68  95 127 172 216 268 324 393
#     4  12  25  43  66  95 134 174 216 269 329 395
#     4  12  25  44  66  96 135 176 219 267 337 401
#
# _framework density 19.627724000000001
#
# number of rings (size 3 to 8) (size 9 to 14) (size 15 to 20)
#    0.000    1.000    5.000    1.875    5.250    0.500 
#    0.000    2.500    0.000    0.000    0.000    0.000 
#    0.000    0.000    0.000    0.000    0.000    0.000 
#
# Total GULP energy -178698.978669 kJ/mol
# GULP energy per Si atom -5584.343083 kJ/mol
# Density = 1.958305 g / cm^3
# Si number density = 19.627724 Si / 1000 Ang^3
#
#
#
# Elastic Constant Matrix: (Units=GPa)
#
#
# Indices 1 2 3 4 5 6 
#
# 1 70.4337 37.6282 26.1943 0.0000 0.0000 0.0000
# 2 37.6282 106.8992 27.0423 0.0000 0.0000 0.0000
# 3 26.1943 27.0423 111.7583 0.0000 0.0000 0.0000
# 4 0.0000 0.0000 0.0000 24.7776 0.0000 0.0000
# 5 0.0000 0.0000 0.0000 0.0000 18.6164 0.0000
# 6 0.0000 0.0000 0.0000 0.0000 0.0000 4.8755
#
#
#
# Elastic Compliance Matrix: (Units=1/GPa)
#
#
# Indices 1 2 3 4 5 6 
#
# 1 0.018336 -0.005717 -0.002914 0.000000 0.000000 0.000000
# 2 -0.005717 0.011747 -0.001502 0.000000 0.000000 0.000000
# 3 -0.002914 -0.001502 0.009994 0.000000 0.000000 0.000000
# 4 0.000000 0.000000 0.000000 0.040359 0.000000 0.000000
# 5 0.000000 0.000000 0.000000 0.000000 0.053716 0.000000
# 6 0.000000 0.000000 0.000000 0.000000 0.000000 0.205105
#
#
# Mechanical properties :
#
#
# Convention : Reuss Voigt Hill
#
# Bulk Modulus (GPa) = 50.47973 52.31343 51.39658
# Shear Modulus (GPa) = 13.65642 22.86901 18.26272
#
# Velocity S-wave (km/s) = 2.64061 3.41712 3.05365
# Velocity P-wave (km/s) = 5.92212 6.50228 6.21897
#
# Compressibility (1/GPa) = 0.01980993
#
# Stress axis : x y z
#
# Youngs Moduli (GPa) = 54.53828 85.12797 100.05506
#
# Poissons Ratio (x) = 0.48667 0.29159
# Poissons Ratio (y) = 0.31179 0.15033
# Poissons Ratio (z) = 0.15894 0.12790
#
# Static dielectric constant tensor:
#      x y z
#    x 1.678560 0.000000 0.000000 
#    y 0.000000 1.694480 0.000000 
#    z 0.000000 0.000000 1.700510 
# 
# From -- ./inp_files/13127.got.cif
#   From: 2010.05.17/outbox.cif.g08.bks.cpg/sg40_7_cif.got.tgz:13127.got - 2010.06.03 18:35:42.
