data_PCOD9364088
_publ_section_title
;
Structure prediction by ZEFSAII (Michael W. Deem and Ramdas Pophale) SiO2 
 PCOD9364088
Probable space group: A M A 2
;
_chemical_formula_sum "Si O2"
_cell_formula_units_Z 64
_cell_length_a 19.599228
_cell_length_b 16.677173
_cell_length_c 10.361880
_cell_angle_alpha 90.000000
_cell_angle_beta 90.000000
_cell_angle_gamma 90.000000
_cell_volume 3386.881154
_symmetry_space_group_name_H-M "A M A 2"
_symmetry_group_IT_number 40
_symmetry_cell_setting 'orthorhombic'
loop_
_space_group_symop_operation_xyz
x,y,z
-x,-y,z
1/2-x,y,z
1/2+x,-y,z
x,1/2+y,1/2+z
-x,1/2-y,1/2+z
1/2-x,1/2+y,1/2+z
1/2+x,1/2-y,1/2+z
loop_
_atom_site_type_symbol
_atom_site_label
_atom_site_fract_x
_atom_site_fract_y
_atom_site_fract_z
Si Si1 0.921215 0.519729 0.577950
Si Si2 0.328855 0.007033 0.573918
Si Si3 0.671321 0.217968 0.454780
Si Si4 0.172698 0.423610 0.795188
Si Si5 0.447323 0.811568 0.955958
Si Si6 0.084502 0.867374 0.668736
Si Si7 0.069009 0.644380 0.102589
Si Si8 0.402981 0.633664 0.406967
O O1 0.874598 0.523809 0.703806
O O2 0.917011 0.609487 0.522802
O O3 0.900669 0.453858 0.470723
O O4 0.000000 0.500000 0.610181
O O5 0.250000 0.022152 0.614547
O O6 0.374816 0.084516 0.546222
O O7 0.326235 0.960808 0.438016
O O8 0.371365 0.949573 0.671952
O O9 0.750000 0.197628 0.475825
O O10 0.648980 0.167690 0.326905
O O11 0.626936 0.189237 0.574441
O O12 0.661148 0.311926 0.439713
O O13 0.250000 0.421510 0.743461
O O14 0.427224 0.823193 0.805363
O O15 0.529117 0.823217 0.962734
O O16 0.428332 0.729639 0.028852
O O17 0.010372 0.883595 0.604333
O O18 0.087595 0.640307 0.254076
#
# Coordination Sequence:
#
# PCOD9364088 Si02
#       8
#     8   8   8   8   8   8   8   8
#     4  10  21  37  58  84 116 152 194 245 300 353
#     4  10  22  40  59  87 121 159 203 249 304 369
#     4  10  20  37  59  85 119 157 198 243 303 365
#     4   9  20  38  57  81 116 153 193 244 294 355
#     4  10  21  38  58  89 117 149 198 254 296 357
#     4  10  20  38  62  87 120 157 200 246 310 360
#     4  11  21  37  63  87 120 154 202 251 303 361
#     4  10  21  37  57  86 117 155 196 245 303 363
#
# _framework density 18.896442
#
# number of rings (size 3 to 8) (size 9 to 14) (size 15 to 20)
#    0.000    2.000    1.250    3.000    0.000    6.000 
#    2.250    5.625    0.000    0.000    0.000    0.000 
#    0.000    0.000    0.000    0.000    0.000    0.000 
#
# Total GULP energy -178283.878864 kJ/mol
# GULP energy per Si atom -5571.371214 kJ/mol
# Density = 1.885343 g / cm^3
# Si number density = 18.896442 Si / 1000 Ang^3
#
#
#
# Elastic Constant Matrix: (Units=GPa)
#
#
# Indices 1 2 3 4 5 6 
#
# 1 98.4956 56.3874 41.0377 0.0000 0.0000 0.0000
# 2 56.3874 118.3261 37.2452 0.0000 0.0000 0.0000
# 3 41.0377 37.2452 72.0486 0.0000 0.0000 0.0000
# 4 0.0000 0.0000 0.0000 25.5118 0.0000 0.0000
# 5 0.0000 0.0000 0.0000 0.0000 8.0736 0.0000
# 6 0.0000 0.0000 0.0000 0.0000 0.0000 31.2536
#
#
#
# Elastic Compliance Matrix: (Units=1/GPa)
#
#
# Indices 1 2 3 4 5 6 
#
# 1 0.015966 -0.005668 -0.006164 0.000000 0.000000 0.000000
# 2 -0.005668 0.012106 -0.003030 0.000000 0.000000 0.000000
# 3 -0.006164 -0.003030 0.018956 0.000000 0.000000 0.000000
# 4 0.000000 0.000000 0.000000 0.039198 0.000000 0.000000
# 5 0.000000 0.000000 0.000000 0.000000 0.123860 0.000000
# 6 0.000000 0.000000 0.000000 0.000000 0.000000 0.031996
#
#
# Mechanical properties :
#
#
# Convention : Reuss Voigt Hill
#
# Bulk Modulus (GPa) = 57.78634 62.02342 59.90488
# Shear Modulus (GPa) = 18.01322 23.24781 20.63051
#
# Velocity S-wave (km/s) = 3.09084 3.51133 3.30777
# Velocity P-wave (km/s) = 6.58670 7.02377 6.80874
#
# Compressibility (1/GPa) = 0.01730513
#
# Stress axis : x y z
#
# Youngs Moduli (GPa) = 62.63385 82.60368 52.75269
#
# Poissons Ratio (x) = 0.46822 0.32515
# Poissons Ratio (y) = 0.35502 0.15982
# Poissons Ratio (z) = 0.38606 0.25026
#
# Static dielectric constant tensor:
#      x y z
#    x 1.680210 0.000000 0.000000 
#    y 0.000000 1.709690 0.000000 
#    z 0.000000 0.000000 1.669920 
# 
# From -- ./inp_files/13136.got.cif
#   From: 2010.05.17/outbox.cif.g08.bks.cpg/sg40_7_cif.got.tgz:13136.got - 2010.06.03 18:35:42.
