data_PCOD9364423
_publ_section_title
;
Structure prediction by ZEFSAII (Michael W. Deem and Ramdas Pophale) SiO2 
 PCOD9364423
Probable space group: A M A 2
;
_chemical_formula_sum "Si O2"
_cell_formula_units_Z 64
_cell_length_a 9.663612
_cell_length_b 24.580947
_cell_length_c 14.101317
_cell_angle_alpha 90.000000
_cell_angle_beta 90.000000
_cell_angle_gamma 90.000000
_cell_volume 3349.637196
_symmetry_space_group_name_H-M "A M A 2"
_symmetry_group_IT_number 40
_symmetry_cell_setting 'orthorhombic'
loop_
_space_group_symop_operation_xyz
x,y,z
-x,-y,z
1/2-x,y,z
1/2+x,-y,z
x,1/2+y,1/2+z
-x,1/2-y,1/2+z
1/2-x,1/2+y,1/2+z
1/2+x,1/2-y,1/2+z
loop_
_atom_site_type_symbol
_atom_site_label
_atom_site_fract_x
_atom_site_fract_y
_atom_site_fract_z
Si Si1 0.916402 0.447560 0.102080
Si Si2 0.583598 0.447560 0.511157
Si Si3 0.091223 0.731279 0.690836
Si Si4 0.082046 0.609770 0.913744
Si Si5 0.091243 0.667275 0.420887
Si Si6 0.408757 0.167275 0.692351
Si Si7 0.591223 0.268721 0.922401
Si Si8 0.582046 0.890231 0.199493
O O1 0.750000 0.455505 0.109681
O O2 0.952945 0.392185 0.157448
O O3 0.000000 0.500000 0.135175
O O4 0.953968 0.434035 0.992764
O O5 0.500000 0.500000 0.478062
O O6 0.750000 0.455505 0.503557
O O7 0.547055 0.392185 0.455790
O O8 0.546032 0.434035 0.620473
O O9 0.250000 0.737551 0.659667
O O10 0.092577 0.731825 0.806619
O O11 0.038846 0.670565 0.667624
O O12 0.999298 0.781822 0.659042
O O13 0.250000 0.612258 0.910752
O O14 0.038846 0.670565 0.945614
O O15 0.033171 0.598863 0.806619
O O16 0.250000 0.674531 0.452352
O O17 0.088679 0.667387 0.306619
O O18 0.000702 0.718177 0.454195
O O19 0.250000 0.174530 0.660885
O O20 0.750000 0.262449 0.953570
O O21 0.750000 0.887742 0.202485
#
# Coordination Sequence:
#
# PCOD9364423 Si02
#       8
#     8   8   8   8   8   8   8   8
#     4  10  21  35  49  67  92 124 162 197 229 270
#     4  10  21  35  49  67  92 124 162 197 229 270
#     4   8  14  27  49  74  95 118 152 188 224 276
#     4   8  15  30  51  72  95 122 150 186 234 281
#     4   9  18  32  48  68  97 127 151 185 235 279
#     4   9  18  32  48  68  97 127 151 185 235 279
#     4   8  14  27  49  74  95 118 152 188 224 276
#     4   8  15  30  51  72  95 122 150 186 234 281
#
# _framework density 19.106548
#
# number of rings (size 3 to 8) (size 9 to 14) (size 15 to 20)
#    0.000    3.250    0.000    1.500    0.000    3.000 
#    0.000    1.250    0.000    1.500    0.000    0.000 
#    0.000    0.000    0.000    0.000    0.000    0.000 
#
# Total GULP energy -178417.379635 kJ/mol
# GULP energy per Si atom -5575.543114 kJ/mol
# Density = 1.906306 g / cm^3
# Si number density = 19.106548 Si / 1000 Ang^3
#
#
#
# Elastic Constant Matrix: (Units=GPa)
#
#
# Indices 1 2 3 4 5 6 
#
# 1 28.1922 37.4453 2.2425 0.0000 0.0000 0.0000
# 2 37.4453 101.3105 5.3378 0.0000 0.0000 0.0000
# 3 2.2425 5.3378 35.9299 0.0000 0.0000 0.0000
# 4 0.0000 0.0000 0.0000 27.3148 0.0000 0.0000
# 5 0.0000 0.0000 0.0000 0.0000 11.8867 0.0000
# 6 0.0000 0.0000 0.0000 0.0000 0.0000 13.3220
#
#
#
# Elastic Compliance Matrix: (Units=1/GPa)
#
#
# Indices 1 2 3 4 5 6 
#
# 1 0.069686 -0.025729 -0.000527 0.000000 0.000000 0.000000
# 2 -0.025729 0.019448 -0.001283 0.000000 0.000000 0.000000
# 3 -0.000527 -0.001283 0.028056 0.000000 0.000000 0.000000
# 4 0.000000 0.000000 0.000000 0.036610 0.000000 0.000000
# 5 0.000000 0.000000 0.000000 0.000000 0.084128 0.000000
# 6 0.000000 0.000000 0.000000 0.000000 0.000000 0.075064
#
#
# Mechanical properties :
#
#
# Convention : Reuss Voigt Hill
#
# Bulk Modulus (GPa) = 16.10021 28.38708 22.24365
# Shear Modulus (GPa) = 12.86097 18.53183 15.69640
#
# Velocity S-wave (km/s) = 2.59727 3.11773 2.86932
# Velocity P-wave (km/s) = 4.17603 5.27730 4.75863
#
# Compressibility (1/GPa) = 0.06211100
#
# Stress axis : x y z
#
# Youngs Moduli (GPa) = 14.35008 51.41956 35.64359
#
# Poissons Ratio (x) = 1.32296 0.01878
# Poissons Ratio (y) = 0.36921 0.04574
# Poissons Ratio (z) = 0.00756 0.06599
#
# Static dielectric constant tensor:
#      x y z
#    x 1.632700 0.000000 0.000000 
#    y 0.000000 1.643720 0.000000 
#    z 0.000000 0.000000 1.733460 
# 
# From -- ./inp_files/16524.got.cif
#   From: 2010.05.17/outbox.cif.g08.bks.cpg/sg40_9_cif.got.tgz:16524.got - 2010.06.03 18:35:42.
