data_PCOD9364177
_publ_section_title
;
Structure prediction by ZEFSAII (Michael W. Deem and Ramdas Pophale) SiO2 
 PCOD9364177
Probable space group: A M A 2
;
_chemical_formula_sum "Si O2"
_cell_formula_units_Z 48
_cell_length_a 18.672627
_cell_length_b 15.289959
_cell_length_c 9.615504
_cell_angle_alpha 90.000000
_cell_angle_beta 90.000000
_cell_angle_gamma 90.000000
_cell_volume 2745.261981
_symmetry_space_group_name_H-M "A M A 2"
_symmetry_group_IT_number 40
_symmetry_cell_setting 'orthorhombic'
loop_
_space_group_symop_operation_xyz
x,y,z
-x,-y,z
1/2-x,y,z
1/2+x,-y,z
x,1/2+y,1/2+z
-x,1/2-y,1/2+z
1/2-x,1/2+y,1/2+z
1/2+x,1/2-y,1/2+z
loop_
_atom_site_type_symbol
_atom_site_label
_atom_site_fract_x
_atom_site_fract_y
_atom_site_fract_z
Si Si1 0.335284 0.051480 0.766950
Si Si2 0.912949 0.268919 0.320294
Si Si3 0.167586 0.887256 0.965967
Si Si4 0.552165 0.759887 0.495272
Si Si5 0.167090 0.910901 0.294743
Si Si6 0.078674 0.039798 0.481641
O O1 0.250000 0.061077 0.747578
O O2 0.368072 0.141719 0.824693
O O3 0.374364 0.033554 0.621267
O O4 0.348285 0.970154 0.869364
O O5 0.862874 0.184127 0.338273
O O6 0.976220 0.267170 0.432067
O O7 0.945721 0.261907 0.163726
O O8 0.250000 0.859406 0.940359
O O9 0.112437 0.808345 0.946010
O O10 0.162799 0.914452 0.127622
O O11 0.570043 0.858069 0.446587
O O12 0.250000 0.920664 0.335828
O O13 0.118448 0.984595 0.363873
O O14 0.000000 0.000000 0.505468
#
# Coordination Sequence:
#
# PCOD9364177 Si02
#       6
#     8   8   8   8   8   8
#     4  10  22  39  60  85 114 150 190 235 284 335
#     4  10  21  37  57  84 114 150 190 231 280 341
#     4   9  21  39  58  83 112 150 193 231 278 339
#     4  10  22  36  57  81 116 149 186 235 281 334
#     4  10  20  38  60  81 112 150 188 232 282 336
#     4  11  22  37  56  88 117 147 190 234 282 339
#
# _framework density 17.484670000000001
#
# number of rings (size 3 to 8) (size 9 to 14) (size 15 to 20)
#    0.000    2.000    1.667    1.000    4.667    6.000 
#    0.000    0.000    0.000    5.000    0.000    0.000 
#    0.000    0.000    0.000    0.000    0.000    0.000 
#
# Total GULP energy -133982.296117 kJ/mol
# GULP energy per Si atom -5582.595672 kJ/mol
# Density = 1.744487 g / cm^3
# Si number density = 17.484670 Si / 1000 Ang^3
#
#
#
# Elastic Constant Matrix: (Units=GPa)
#
#
# Indices 1 2 3 4 5 6 
#
# 1 140.2797 86.3778 54.9559 0.0000 0.0000 0.0000
# 2 86.3778 121.5539 43.8044 0.0000 0.0000 0.0000
# 3 54.9559 43.8044 28.3464 0.0000 0.0000 0.0000
# 4 0.0000 0.0000 0.0000 25.5778 0.0000 0.0000
# 5 0.0000 0.0000 0.0000 0.0000 33.8541 0.0000
# 6 0.0000 0.0000 0.0000 0.0000 0.0000 30.0048
#
#
#
# Elastic Compliance Matrix: (Units=1/GPa)
#
#
# Indices 1 2 3 4 5 6 
#
# 1 0.029677 -0.000801 -0.056299 0.000000 0.000000 0.000000
# 2 -0.000801 0.018588 -0.027172 0.000000 0.000000 0.000000
# 3 -0.056299 -0.027172 0.186416 0.000000 0.000000 0.000000
# 4 0.000000 0.000000 0.000000 0.039096 0.000000 0.000000
# 5 0.000000 0.000000 0.000000 0.000000 0.029539 0.000000
# 6 0.000000 0.000000 0.000000 0.000000 0.000000 0.033328
#
#
# Mechanical properties :
#
#
# Convention : Reuss Voigt Hill
#
# Bulk Modulus (GPa) = 15.11995 73.38402 44.25199
# Shear Modulus (GPa) = 9.48349 24.89012 17.18681
#
# Velocity S-wave (km/s) = 2.33145 3.77708 3.13863
# Velocity P-wave (km/s) = 3.98922 7.81558 6.20472
#
# Compressibility (1/GPa) = 0.06613776
#
# Stress axis : x y z
#
# Youngs Moduli (GPa) = 33.69590 53.79925 5.36436
#
# Poissons Ratio (x) = 0.04307 0.30201
# Poissons Ratio (y) = 0.02698 0.14576
# Poissons Ratio (z) = 1.89704 1.46182
#
# Static dielectric constant tensor:
#      x y z
#    x 1.575440 0.000000 0.000000 
#    y 0.000000 1.572580 0.000000 
#    z 0.000000 0.000000 1.576620 
# 
# From -- ./inp_files/7415.got.cif
#   From: 2010.05.17/outbox.cif.g08.bks.cpg/sg40_4_cif.got.tgz:7415.got - 2010.06.03 18:35:42.
