data_PCOD9364046
_publ_section_title
;
Structure prediction by ZEFSAII (Michael W. Deem and Ramdas Pophale) SiO2 
 PCOD9364046
Probable space group: A M A 2
;
_chemical_formula_sum "Si O2"
_cell_formula_units_Z 40
_cell_length_a 8.782624
_cell_length_b 14.741176
_cell_length_c 13.959875
_cell_angle_alpha 90.000000
_cell_angle_beta 90.000000
_cell_angle_gamma 90.000000
_cell_volume 1807.332054
_symmetry_space_group_name_H-M "A M A 2"
_symmetry_group_IT_number 40
_symmetry_cell_setting 'orthorhombic'
loop_
_space_group_symop_operation_xyz
x,y,z
-x,-y,z
1/2-x,y,z
1/2+x,-y,z
x,1/2+y,1/2+z
-x,1/2-y,1/2+z
1/2-x,1/2+y,1/2+z
1/2+x,1/2-y,1/2+z
loop_
_atom_site_type_symbol
_atom_site_label
_atom_site_fract_x
_atom_site_fract_y
_atom_site_fract_z
Si Si1 0.919573 0.086817 0.024800
Si Si2 0.429747 0.244049 0.332637
Si Si3 0.933678 0.897782 0.709023
Si Si4 0.418662 0.413888 0.747944
Si Si5 0.568321 0.216749 0.529978
O O1 0.750000 0.103171 0.984742
O O2 0.897861 0.064478 0.136443
O O3 0.000000 0.000000 0.978471
O O4 0.018768 0.177438 0.027801
O O5 0.250000 0.252153 0.340852
O O6 0.504634 0.338884 0.299657
O O7 0.474126 0.172955 0.250880
O O8 0.502005 0.194128 0.424979
O O9 0.750000 0.899101 0.710309
O O10 0.991266 0.842593 0.614169
O O11 0.000000 0.000000 0.708609
O O12 0.500000 0.500000 0.794763
O O13 0.250000 0.394656 0.787204
O O14 0.750000 0.207434 0.536485
#
# Coordination Sequence:
#
# PCOD9364046 Si02
#       5
#     8   8   8   8   8
#     4  10  20  36  61  92 127 164 207 260 321 387
#     4  12  25  43  68  99 135 178 227 281 340 407
#     4  12  26  48  73 102 139 184 234 288 348 418
#     4  10  20  36  61  92 127 164 207 260 321 387
#     4  12  25  43  68  99 135 178 227 281 340 407
#
# _framework density 22.132068
#
# number of rings (size 3 to 8) (size 9 to 14) (size 15 to 20)
#    0.000    0.800    2.000    6.600    0.000    3.200 
#    0.000    8.000    0.000    0.000    0.000    0.000 
#    0.000    0.000    0.000    0.000    0.000    0.000 
#
# Total GULP energy -111634.033793 kJ/mol
# GULP energy per Si atom -5581.701690 kJ/mol
# Density = 2.208169 g / cm^3
# Si number density = 22.132068 Si / 1000 Ang^3
#
#
#
# Elastic Constant Matrix: (Units=GPa)
#
#
# Indices 1 2 3 4 5 6 
#
# 1 218.1397 52.9962 21.2727 0.0000 0.0000 0.0000
# 2 52.9962 135.3688 2.4757 0.0000 0.0000 0.0000
# 3 21.2727 2.4757 49.9254 0.0000 0.0000 0.0000
# 4 0.0000 0.0000 0.0000 24.2061 0.0000 0.0000
# 5 0.0000 0.0000 0.0000 0.0000 75.0576 0.0000
# 6 0.0000 0.0000 0.0000 0.0000 0.0000 32.4284
#
#
#
# Elastic Compliance Matrix: (Units=1/GPa)
#
#
# Indices 1 2 3 4 5 6 
#
# 1 0.005287 -0.002031 -0.002152 0.000000 0.000000 0.000000
# 2 -0.002031 0.008174 0.000460 0.000000 0.000000 0.000000
# 3 -0.002152 0.000460 0.020924 0.000000 0.000000 0.000000
# 4 0.000000 0.000000 0.000000 0.041312 0.000000 0.000000
# 5 0.000000 0.000000 0.000000 0.000000 0.013323 0.000000
# 6 0.000000 0.000000 0.000000 0.000000 0.000000 0.030837
#
#
# Mechanical properties :
#
#
# Convention : Reuss Voigt Hill
#
# Bulk Modulus (GPa) = 37.12029 61.88034 49.50032
# Shear Modulus (GPa) = 36.68828 48.11771 42.40300
#
# Velocity S-wave (km/s) = 4.07590 4.66780 4.38186
# Velocity P-wave (km/s) = 6.24173 7.55456 6.92931
#
# Compressibility (1/GPa) = 0.02693944
#
# Stress axis : x y z
#
# Youngs Moduli (GPa) = 189.12755 122.34210 47.79176
#
# Poissons Ratio (x) = 0.24843 0.10286
# Poissons Ratio (y) = 0.38405 -0.02198
# Poissons Ratio (z) = 0.40705 -0.05627
#
# Static dielectric constant tensor:
#      x y z
#    x 1.813430 0.000000 0.000000 
#    y 0.000000 1.902840 0.000000 
#    z 0.000000 0.000000 1.962410 
# 
# From -- ./inp_files/14801.got.cif
#   From: 2010.05.17/outbox.cif.g08.bks.cpg/sg40_8_cif.got.tgz:14801.got - 2010.06.03 18:35:42.
