data_PCOD9364581
_publ_section_title
;
Structure prediction by ZEFSAII (Michael W. Deem and Ramdas Pophale) SiO2 
 PCOD9364581
Probable space group: A M A 2
;
_chemical_formula_sum "Si O2"
_cell_formula_units_Z 48
_cell_length_a 15.932083
_cell_length_b 13.026968
_cell_length_c 9.804913
_cell_angle_alpha 90.000000
_cell_angle_beta 90.000000
_cell_angle_gamma 90.000000
_cell_volume 2034.977684
_symmetry_space_group_name_H-M "A M A 2"
_symmetry_group_IT_number 40
_symmetry_cell_setting 'orthorhombic'
loop_
_space_group_symop_operation_xyz
x,y,z
-x,-y,z
1/2-x,y,z
1/2+x,-y,z
x,1/2+y,1/2+z
-x,1/2-y,1/2+z
1/2-x,1/2+y,1/2+z
1/2+x,1/2-y,1/2+z
loop_
_atom_site_type_symbol
_atom_site_label
_atom_site_fract_x
_atom_site_fract_y
_atom_site_fract_z
Si Si1 0.573147 0.132267 0.458480
Si Si2 0.650206 0.547394 0.218206
Si Si3 0.344056 0.214562 0.260240
Si Si4 0.487702 0.391607 0.657099
Si Si5 0.396959 0.204756 0.551177
Si Si6 0.654062 0.344146 0.349880
O O1 0.624122 0.056159 0.557761
O O2 0.557372 0.094213 0.304702
O O3 0.483895 0.143029 0.534050
O O4 0.610998 0.248366 0.431141
O O5 0.750000 0.531875 0.220951
O O6 0.633621 0.664678 0.260813
O O7 0.616654 0.459459 0.322269
O O8 0.250000 0.200795 0.204094
O O9 0.421336 0.156818 0.190193
O O10 0.344706 0.183338 0.417753
O O11 0.500000 0.500000 0.591103
O O12 0.431360 0.320017 0.564261
O O13 0.349212 0.188268 0.691021
O O14 0.750000 0.351519 0.398169
#
# Coordination Sequence:
#
# PCOD9364581 Si02
#       6
#     8   8   8   8   8   8
#     4  10  21  38  59  90 122 158 204 259 307 374
#     4  10  21  38  63  91 120 163 206 256 324 378
#     4  10  21  40  60  86 121 159 205 257 314 383
#     4  10  22  39  58  88 120 159 208 251 316 379
#     4  10  21  39  58  85 119 158 201 257 311 373
#     4  10  22  39  61  90 123 161 209 261 318 383
#
# _framework density 23.587482000000001
#
# number of rings (size 3 to 8) (size 9 to 14) (size 15 to 20)
#    0.000    2.000    1.667    1.000    4.667    1.333 
#    0.000    4.167    0.000    0.000    0.000    0.000 
#    0.000    0.000    0.000    0.000    0.000    0.000 
#
# Total GULP energy -133860.225093 kJ/mol
# GULP energy per Si atom -5577.509379 kJ/mol
# Density = 2.353380 g / cm^3
# Si number density = 23.587482 Si / 1000 Ang^3
#
#
#
# Elastic Constant Matrix: (Units=GPa)
#
#
# Indices 1 2 3 4 5 6 
#
# 1 66.3943 37.7308 24.6199 0.0000 0.0000 0.0000
# 2 37.7308 130.5559 7.1905 0.0000 0.0000 0.0000
# 3 24.6199 7.1905 95.8059 0.0000 0.0000 0.0000
# 4 0.0000 0.0000 0.0000 -17.4061 0.0000 0.0000
# 5 0.0000 0.0000 0.0000 0.0000 9.0294 0.0000
# 6 0.0000 0.0000 0.0000 0.0000 0.0000 28.8761
#
#
#
# Elastic Compliance Matrix: (Units=1/GPa)
#
#
# Indices 1 2 3 4 5 6 
#
# 1 0.019934 -0.005502 -0.004710 0.000000 0.000000 0.000000
# 2 -0.005502 0.009210 0.000723 0.000000 0.000000 0.000000
# 3 -0.004710 0.000723 0.011594 0.000000 0.000000 0.000000
# 4 0.000000 0.000000 0.000000 -0.057451 0.000000 0.000000
# 5 0.000000 0.000000 0.000000 0.000000 0.110750 0.000000
# 6 0.000000 0.000000 0.000000 0.000000 0.000000 0.034631
#
#
# Mechanical properties :
#
#
# Convention : Reuss Voigt Hill
#
# Bulk Modulus (GPa) = 45.95521 47.98206 46.96863
# Shear Modulus (GPa) = 32.27916 18.98087 25.63002
#
# Velocity S-wave (km/s) = 3.70332 2.83980 3.29993
# Velocity P-wave (km/s) = 6.14909 5.58023 5.87155
#
# Compressibility (1/GPa) = 0.02176032
#
# Stress axis : x y z
#
# Youngs Moduli (GPa) = 50.16430 108.58055 86.25267
#
# Poissons Ratio (x) = 0.59738 0.40623
# Poissons Ratio (y) = 0.27599 -0.06233
# Poissons Ratio (z) = 0.23626 -0.07846
#
# Static dielectric constant tensor:
#      x y z
#    x 1.872100 0.000000 0.000000 
#    y 0.000000 2.014830 0.000000 
#    z 0.000000 0.000000 1.923280 
# 
# From -- ./inp_files/12143.got.cif
#   From: 2010.05.17/outbox.cif.g08.bks.cpg/sg40_7_cif.got.tgz:12143.got - 2010.06.03 18:35:42.
