data_PCOD9364794
_publ_section_title
;
Structure prediction by ZEFSAII (Michael W. Deem and Ramdas Pophale) SiO2 
 PCOD9364794
Probable space group: A M A 2
;
_chemical_formula_sum "Si O2"
_cell_formula_units_Z 52
_cell_length_a 24.163722
_cell_length_b 10.083676
_cell_length_c 10.487856
_cell_angle_alpha 90.000000
_cell_angle_beta 90.000000
_cell_angle_gamma 90.000000
_cell_volume 2555.462011
_symmetry_space_group_name_H-M "A M A 2"
_symmetry_group_IT_number 40
_symmetry_cell_setting 'orthorhombic'
loop_
_space_group_symop_operation_xyz
x,y,z
-x,-y,z
1/2-x,y,z
1/2+x,-y,z
x,1/2+y,1/2+z
-x,1/2-y,1/2+z
1/2-x,1/2+y,1/2+z
1/2+x,1/2-y,1/2+z
loop_
_atom_site_type_symbol
_atom_site_label
_atom_site_fract_x
_atom_site_fract_y
_atom_site_fract_z
Si Si1 0.504562 0.849525 0.362510
Si Si2 0.612443 0.746908 0.922565
Si Si3 0.184426 0.497593 0.827643
Si Si4 0.814626 0.965283 0.036069
Si Si5 0.589894 0.167756 0.713729
Si Si6 0.314081 0.277923 0.393843
Si Si7 0.500000 0.500000 0.113697
O O1 0.447269 0.767541 0.354993
O O2 0.552746 0.772005 0.292478
O O3 0.500000 0.000000 0.308098
O O4 0.514564 0.881565 0.513308
O O5 0.650270 0.631487 0.863077
O O6 0.646325 0.883070 0.940485
O O7 0.600772 0.709990 0.069509
O O8 0.250000 0.469097 0.833682
O O9 0.171806 0.551202 0.685172
O O10 0.171171 0.624349 0.916784
O O11 0.750000 0.927195 0.016513
O O12 0.819219 0.122391 0.011002
O O13 0.647347 0.159633 0.786245
O O14 0.552075 0.038030 0.698879
O O15 0.250000 0.277413 0.352384
#
# Coordination Sequence:
#
# PCOD9364794 Si02
#       7
#     8   8   8   8   8   8   4
#     4   9  21  40  57  86 124 157 203 256 305 365
#     4  11  22  39  67  91 120 170 210 255 317 363
#     4  10  21  41  64  91 126 166 205 254 315 371
#     4  10  22  41  61  95 129 157 206 262 305 375
#     4  11  21  40  66  86 126 157 208 253 307 366
#     4  10  22  40  65  92 126 164 200 251 315 369
#     4   8  22  38  58  86 120 160 200 250 300 364
#
# _framework density 20.348572000000001
#
# number of rings (size 3 to 8) (size 9 to 14) (size 15 to 20)
#    0.462    1.538    1.538    1.385    2.154    0.615 
#    8.308    0.000    0.000    0.000    0.000    0.000 
#    0.000    0.000    0.000    0.000    0.000    0.000 
#
# Total GULP energy -144914.901732 kJ/mol
# GULP energy per Si atom -5573.650067 kJ/mol
# Density = 2.030226 g / cm^3
# Si number density = 20.348572 Si / 1000 Ang^3
#
#
#
# Elastic Constant Matrix: (Units=GPa)
#
#
# Indices 1 2 3 4 5 6 
#
# 1 65.8884 22.2703 18.5925 0.0000 0.0000 0.0000
# 2 22.2703 80.8716 15.7449 0.0000 0.0000 0.0000
# 3 18.5925 15.7449 28.3575 0.0000 0.0000 0.0000
# 4 0.0000 0.0000 0.0000 34.2553 0.0000 0.0000
# 5 0.0000 0.0000 0.0000 0.0000 -206.1190 0.0000
# 6 0.0000 0.0000 0.0000 0.0000 0.0000 24.4798
#
#
#
# Elastic Compliance Matrix: (Units=1/GPa)
#
#
# Indices 1 2 3 4 5 6 
#
# 1 0.019335 -0.003203 -0.010899 0.000000 0.000000 0.000000
# 2 -0.003203 0.014394 -0.005892 0.000000 0.000000 0.000000
# 3 -0.010899 -0.005892 0.045682 0.000000 0.000000 0.000000
# 4 0.000000 0.000000 0.000000 0.029193 0.000000 0.000000
# 5 0.000000 0.000000 0.000000 0.000000 -0.004852 0.000000
# 6 0.000000 0.000000 0.000000 0.000000 0.000000 0.040850
#
#
# Mechanical properties :
#
#
# Convention : Reuss Voigt Hill
#
# Bulk Modulus (GPa) = 25.36571 32.03699 28.70135
# Shear Modulus (GPa) = 25.28688 -21.57613 1.85538
#
# Velocity S-wave (km/s) = 3.52900 -3.25980 0.95592
# Velocity P-wave (km/s) = 5.39424 1.26882 3.91840
#
# Compressibility (1/GPa) = 0.03942329
#
# Stress axis : x y z
#
# Youngs Moduli (GPa) = 51.71934 69.47145 21.89066
#
# Poissons Ratio (x) = 0.22249 0.23858
# Poissons Ratio (y) = 0.16563 0.12899
# Poissons Ratio (z) = 0.56368 0.40936
#
# Static dielectric constant tensor:
#      x y z
#    x 2.031670 0.000000 0.000000 
#    y 0.000000 1.746860 0.000000 
#    z 0.000000 0.000000 1.693920 
# 
# From -- ./inp_files/14180.got.cif
#   From: 2010.05.17/outbox.cif.g08.bks.cpg/sg40_8_cif.got.tgz:14180.got - 2010.06.03 18:35:42.
