data_PCOD9364692
_publ_section_title
;
Structure prediction by ZEFSAII (Michael W. Deem and Ramdas Pophale) SiO2 
 PCOD9364692
Probable space group: A M A 2
;
_chemical_formula_sum "Si O2"
_cell_formula_units_Z 64
_cell_length_a 19.072784
_cell_length_b 13.990739
_cell_length_c 12.101455
_cell_angle_alpha 90.000000
_cell_angle_beta 90.000000
_cell_angle_gamma 90.000000
_cell_volume 3229.180605
_symmetry_space_group_name_H-M "A M A 2"
_symmetry_group_IT_number 40
_symmetry_cell_setting 'orthorhombic'
loop_
_space_group_symop_operation_xyz
x,y,z
-x,-y,z
1/2-x,y,z
1/2+x,-y,z
x,1/2+y,1/2+z
-x,1/2-y,1/2+z
1/2-x,1/2+y,1/2+z
1/2+x,1/2-y,1/2+z
loop_
_atom_site_type_symbol
_atom_site_label
_atom_site_fract_x
_atom_site_fract_y
_atom_site_fract_z
Si Si1 0.451522 0.731094 0.613320
Si Si2 0.018175 0.598020 0.974319
Si Si3 0.169086 0.679435 0.972722
Si Si4 0.167949 0.522619 0.345611
Si Si5 0.329766 0.315727 0.263217
Si Si6 0.932567 0.116122 0.251705
Si Si7 0.167855 0.717678 0.232814
Si Si8 0.578819 0.974255 0.053106
O O1 0.488537 0.809148 0.536819
O O2 0.391353 0.776223 0.688024
O O3 0.512332 0.681268 0.684590
O O4 0.416247 0.639971 0.555267
O O5 0.101427 0.611712 0.952287
O O6 0.000000 0.500000 0.038113
O O7 0.972301 0.590144 0.863041
O O8 0.250000 0.640913 0.962840
O O9 0.163935 0.765261 0.883796
O O10 0.160538 0.712457 0.099691
O O11 0.250000 0.537627 0.367182
O O12 0.162231 0.429643 0.269326
O O13 0.139873 0.619379 0.287995
O O14 0.131659 0.493797 0.459670
O O15 0.250000 0.294058 0.224640
O O16 0.868686 0.186780 0.275036
O O17 0.912678 0.027181 0.171650
O O18 0.250000 0.722254 0.256254
O O19 0.500000 0.000000 0.017673
#
# Coordination Sequence:
#
# PCOD9364692 Si02
#       8
#     8   8   8   8   8   8   8   8
#     4  11  23  39  61  89 125 163 209 262 319 379
#     4  12  25  41  63  97 129 169 215 271 333 394
#     4  10  21  40  65  91 126 169 215 261 324 398
#     4  10  22  39  63  92 124 158 208 264 315 381
#     4  10  22  39  62  90 121 164 210 261 317 386
#     4  11  22  41  64  88 129 164 214 268 320 392
#     4  10  21  39  64  96 128 165 210 269 332 388
#     4  10  23  40  61  90 119 167 205 259 314 370
#
# _framework density 19.819269999999999
#
# number of rings (size 3 to 8) (size 9 to 14) (size 15 to 20)
#    0.000    1.500    2.500    2.625    3.500    3.000 
#    0.000    1.250    0.000    0.000    0.000    0.000 
#    0.000    0.000    0.000    0.000    0.000    0.000 
#
# Total GULP energy -178525.717526 kJ/mol
# GULP energy per Si atom -5578.928673 kJ/mol
# Density = 1.977416 g / cm^3
# Si number density = 19.819270 Si / 1000 Ang^3
#
#
#
# Elastic Constant Matrix: (Units=GPa)
#
#
# Indices 1 2 3 4 5 6 
#
# 1 82.9031 45.5449 27.7882 0.0000 0.0000 0.0000
# 2 45.5449 95.0480 16.9804 0.0000 0.0000 0.0000
# 3 27.7882 16.9804 55.9782 0.0000 0.0000 0.0000
# 4 0.0000 0.0000 0.0000 13.9642 0.0000 0.0000
# 5 0.0000 0.0000 0.0000 0.0000 27.5249 0.0000
# 6 0.0000 0.0000 0.0000 0.0000 0.0000 28.6774
#
#
#
# Elastic Compliance Matrix: (Units=1/GPa)
#
#
# Indices 1 2 3 4 5 6 
#
# 1 0.018593 -0.007676 -0.006901 0.000000 0.000000 0.000000
# 2 -0.007676 0.014293 -0.000525 0.000000 0.000000 0.000000
# 3 -0.006901 -0.000525 0.021449 0.000000 0.000000 0.000000
# 4 0.000000 0.000000 0.000000 0.071612 0.000000 0.000000
# 5 0.000000 0.000000 0.000000 0.000000 0.036331 0.000000
# 6 0.000000 0.000000 0.000000 0.000000 0.000000 0.034871
#
#
# Mechanical properties :
#
#
# Convention : Reuss Voigt Hill
#
# Bulk Modulus (GPa) = 41.44217 46.06183 43.75200
# Shear Modulus (GPa) = 21.24080 23.60769 22.42424
#
# Velocity S-wave (km/s) = 3.27727 3.45505 3.36733
# Velocity P-wave (km/s) = 5.93937 6.26162 6.10262
#
# Compressibility (1/GPa) = 0.02413001
#
# Stress axis : x y z
#
# Youngs Moduli (GPa) = 53.78489 69.96372 46.62201
#
# Poissons Ratio (x) = 0.53706 0.32174
# Poissons Ratio (y) = 0.41287 0.02448
# Poissons Ratio (z) = 0.37117 0.03674
#
# Static dielectric constant tensor:
#      x y z
#    x 1.709910 0.000000 0.000000 
#    y 0.000000 1.751090 0.000000 
#    z 0.000000 0.000000 1.710050 
# 
# From -- ./inp_files/13096.got.cif
#   From: 2010.05.17/outbox.cif.g08.bks.cpg/sg40_7_cif.got.tgz:13096.got - 2010.06.03 18:35:42.
