data_PCOD9364980
_publ_section_title
;
Structure prediction by ZEFSAII (Michael W. Deem and Ramdas Pophale) SiO2 
 PCOD9364980
Probable space group: A M A 2
;
_chemical_formula_sum "Si O2"
_cell_formula_units_Z 40
_cell_length_a 16.747552
_cell_length_b 5.272171
_cell_length_c 19.240146
_cell_angle_alpha 90.000000
_cell_angle_beta 90.000000
_cell_angle_gamma 90.000000
_cell_volume 1698.827123
_symmetry_space_group_name_H-M "A M A 2"
_symmetry_group_IT_number 40
_symmetry_cell_setting 'orthorhombic'
loop_
_space_group_symop_operation_xyz
x,y,z
-x,-y,z
1/2-x,y,z
1/2+x,-y,z
x,1/2+y,1/2+z
-x,1/2-y,1/2+z
1/2-x,1/2+y,1/2+z
1/2+x,1/2-y,1/2+z
loop_
_atom_site_type_symbol
_atom_site_label
_atom_site_fract_x
_atom_site_fract_y
_atom_site_fract_z
Si Si1 0.084040 0.360192 0.406120
Si Si2 0.844630 0.632239 0.671939
Si Si3 0.917053 0.379103 0.055222
Si Si4 0.155251 0.366843 0.261112
Si Si5 0.250000 0.446426 0.457316
Si Si6 0.250000 0.425800 0.040526
O O1 0.080943 0.172447 0.472443
O O2 0.101676 0.284672 0.327153
O O3 0.166600 0.512480 0.420587
O O4 0.000000 0.500000 0.408949
O O5 0.750000 0.668982 0.656093
O O6 0.899292 0.637819 0.603257
O O7 0.852375 0.364179 0.708491
O O8 0.866386 0.864360 0.724999
O O9 0.836639 0.532788 0.073252
O O10 0.000000 0.500000 0.075289
O O11 0.250000 0.381533 0.280986
O O12 0.250000 0.149881 0.480401
O O13 0.250000 0.634145 0.521115
#
# Coordination Sequence:
#
# PCOD9364980 Si02
#       6
#     8   8   8   8   4   4
#     4  11  24  44  70 108 143 188 239 297 354 431
#     4  10  23  45  72 103 138 184 240 295 356 425
#     4  11  24  44  70 108 143 188 239 297 354 431
#     4  10  23  45  72 103 138 184 240 295 356 425
#     4  10  22  40  64  96 138 182 225 286 351 406
#     4  10  22  40  64  96 138 182 225 286 351 406
#
# _framework density 23.545656000000001
#
# number of rings (size 3 to 8) (size 9 to 14) (size 15 to 20)
#    0.000    1.600    2.000    1.200    0.000   10.400 
#    0.000    2.000    0.000    0.000    0.000    0.000 
#    0.000    0.000    0.000    0.000    0.000    0.000 
#
# Total GULP energy -111592.674722 kJ/mol
# GULP energy per Si atom -5579.633736 kJ/mol
# Density = 2.349207 g / cm^3
# Si number density = 23.545656 Si / 1000 Ang^3
#
#
#
# Elastic Constant Matrix: (Units=GPa)
#
#
# Indices 1 2 3 4 5 6 
#
# 1 177.5893 35.9281 36.3145 0.0000 0.0000 0.0000
# 2 35.9281 86.8526 45.4532 0.0000 0.0000 0.0000
# 3 36.3145 45.4532 100.7797 0.0000 0.0000 0.0000
# 4 0.0000 0.0000 0.0000 11.9972 0.0000 0.0000
# 5 0.0000 0.0000 0.0000 0.0000 2.8519 0.0000
# 6 0.0000 0.0000 0.0000 0.0000 0.0000 27.3892
#
#
#
# Elastic Compliance Matrix: (Units=1/GPa)
#
#
# Indices 1 2 3 4 5 6 
#
# 1 0.006299 -0.001856 -0.001433 0.000000 0.000000 0.000000
# 2 -0.001856 0.015618 -0.006375 0.000000 0.000000 0.000000
# 3 -0.001433 -0.006375 0.013314 0.000000 0.000000 0.000000
# 4 0.000000 0.000000 0.000000 0.083353 0.000000 0.000000
# 5 0.000000 0.000000 0.000000 0.000000 0.350637 0.000000
# 6 0.000000 0.000000 0.000000 0.000000 0.000000 0.036511
#
#
# Mechanical properties :
#
#
# Convention : Reuss Voigt Hill
#
# Bulk Modulus (GPa) = 62.87878 66.73479 64.80678
# Shear Modulus (GPa) = 9.42753 24.94940 17.18846
#
# Velocity S-wave (km/s) = 2.00315 3.25871 2.70479
# Velocity P-wave (km/s) = 5.66685 6.52404 6.11050
#
# Compressibility (1/GPa) = 0.01590362
#
# Stress axis : x y z
#
# Youngs Moduli (GPa) = 158.74395 64.02922 75.10782
#
# Poissons Ratio (x) = 0.11884 0.10762
# Poissons Ratio (y) = 0.29463 0.47882
# Poissons Ratio (z) = 0.22745 0.40819
#
# Static dielectric constant tensor:
#      x y z
#    x 1.885260 0.000000 0.000000 
#    y 0.000000 1.920060 0.000000 
#    z 0.000000 0.000000 1.987820 
# 
# From -- ./inp_files/20920.got.cif
#   From: 2010.05.17/outbox.cif.g08.bks.cpg/sg40_11_cif.got.tgz:20920.got - 2010.06.03 18:35:42.
