data_PCOD9364011
_publ_section_title
;
Structure prediction by ZEFSAII (Michael W. Deem and Ramdas Pophale) SiO2 
 PCOD9364011
Probable space group: A M A 2
;
_chemical_formula_sum "Si O2"
_cell_formula_units_Z 64
_cell_length_a 8.800689
_cell_length_b 26.859631
_cell_length_c 13.185687
_cell_angle_alpha 90.000000
_cell_angle_beta 90.000000
_cell_angle_gamma 90.000000
_cell_volume 3116.875666
_symmetry_space_group_name_H-M "A M A 2"
_symmetry_group_IT_number 40
_symmetry_cell_setting 'orthorhombic'
loop_
_space_group_symop_operation_xyz
x,y,z
-x,-y,z
1/2-x,y,z
1/2+x,-y,z
x,1/2+y,1/2+z
-x,1/2-y,1/2+z
1/2-x,1/2+y,1/2+z
1/2+x,1/2-y,1/2+z
loop_
_atom_site_type_symbol
_atom_site_label
_atom_site_fract_x
_atom_site_fract_y
_atom_site_fract_z
Si Si1 0.430038 0.619591 0.034610
Si Si2 0.430032 0.872914 0.315380
Si Si3 0.579089 0.702038 0.511615
Si Si4 0.569009 0.447268 0.651470
Si Si5 0.577191 0.766727 0.311719
Si Si6 0.924854 0.716629 0.117512
Si Si7 0.568897 0.089533 0.945642
Si Si8 0.933164 0.055245 0.718591
O O1 0.250000 0.612425 0.029628
O O2 0.469812 0.676488 0.064341
O O3 0.501510 0.587154 0.125264
O O4 0.501811 0.609937 0.923948
O O5 0.750000 0.120171 0.314802
O O6 0.502226 0.903697 0.222692
O O7 0.469904 0.814308 0.306077
O O8 0.750000 0.700990 0.556711
O O9 0.577683 0.741210 0.420353
O O10 0.458073 0.726488 0.585729
O O11 0.545160 0.647709 0.469969
O O12 0.500000 0.500000 0.685760
O O13 0.750000 0.447851 0.658636
O O14 0.518351 0.438954 0.534799
O O15 0.750000 0.783897 0.289814
O O16 0.544020 0.720875 0.236452
O O17 0.750000 0.703109 0.097754
O O18 0.750000 0.079327 0.955543
O O19 0.524972 0.076452 0.830372
O O20 0.750000 0.055100 0.712254
O O21 0.000000 0.000000 0.711524
#
# Coordination Sequence:
#
# PCOD9364011 Si02
#       8
#     8   8   8   8   8   8   8   8
#     4  12  25  43  66  94 131 175 222 273 329 392
#     4  12  25  43  67  96 131 172 220 273 330 394
#     4  10  20  36  59  88 125 168 208 251 307 372
#     4  12  26  45  69  97 130 171 219 275 334 396
#     4  10  21  38  60  89 128 170 210 257 314 378
#     4  11  22  37  59  90 126 168 212 260 314 377
#     4  10  22  42  68 100 136 173 217 272 328 389
#     4  11  24  44  69  98 131 171 219 275 334 394
#
# _framework density 20.533383000000001
#
# number of rings (size 3 to 8) (size 9 to 14) (size 15 to 20)
#    0.000    1.000    1.250    6.000    0.000    8.000 
#    0.000    3.750    0.000    0.000    0.000    0.000 
#    0.000    0.000    0.000    0.000    0.000    0.000 
#
# Total GULP energy -178880.664226 kJ/mol
# GULP energy per Si atom -5590.020757 kJ/mol
# Density = 2.048665 g / cm^3
# Si number density = 20.533383 Si / 1000 Ang^3
#
#
#
# Elastic Constant Matrix: (Units=GPa)
#
#
# Indices 1 2 3 4 5 6 
#
# 1 109.7160 36.6468 48.3628 0.0000 0.0000 0.0000
# 2 36.6468 81.3456 14.5606 0.0000 0.0000 0.0000
# 3 48.3628 14.5606 103.0104 0.0000 0.0000 0.0000
# 4 0.0000 0.0000 0.0000 29.4419 0.0000 0.0000
# 5 0.0000 0.0000 0.0000 0.0000 52.3759 0.0000
# 6 0.0000 0.0000 0.0000 0.0000 0.0000 -114.7169
#
#
#
# Elastic Compliance Matrix: (Units=1/GPa)
#
#
# Indices 1 2 3 4 5 6 
#
# 1 0.013192 -0.004960 -0.005493 0.000000 0.000000 0.000000
# 2 -0.004960 0.014477 0.000282 0.000000 0.000000 0.000000
# 3 -0.005493 0.000282 0.012247 0.000000 0.000000 0.000000
# 4 0.000000 0.000000 0.000000 0.033965 0.000000 0.000000
# 5 0.000000 0.000000 0.000000 0.000000 0.019093 0.000000
# 6 0.000000 0.000000 0.000000 0.000000 0.000000 -0.008717
#
#
# Mechanical properties :
#
#
# Convention : Reuss Voigt Hill
#
# Bulk Modulus (GPa) = 51.08426 54.80137 52.94282
# Shear Modulus (GPa) = 44.99529 6.38700 25.69114
#
# Velocity S-wave (km/s) = 4.68624 1.76559 3.54105
# Velocity P-wave (km/s) = 7.36300 5.55907 6.52369
#
# Compressibility (1/GPa) = 0.01957550
#
# Stress axis : x y z
#
# Youngs Moduli (GPa) = 75.80169 69.07401 81.65538
#
# Poissons Ratio (x) = 0.34261 0.44850
# Poissons Ratio (y) = 0.37598 -0.02306
# Poissons Ratio (z) = 0.41635 -0.01950
#
# Static dielectric constant tensor:
#      x y z
#    x 1.641210 0.000000 0.000000 
#    y 0.000000 1.720390 0.000000 
#    z 0.000000 0.000000 1.788050 
# 
# From -- ./inp_files/10606.got.cif
#   From: 2010.05.17/outbox.cif.g08.bks.cpg/sg40_6_cif.got.tgz:10606.got - 2010.06.03 18:35:42.
