data_PCOD9364109
_publ_section_title
;
Structure prediction by ZEFSAII (Michael W. Deem and Ramdas Pophale) SiO2 
 PCOD9364109
Probable space group: A M A 2
;
_chemical_formula_sum "Si O2"
_cell_formula_units_Z 64
_cell_length_a 18.313636
_cell_length_b 16.005071
_cell_length_c 11.808588
_cell_angle_alpha 90.000000
_cell_angle_beta 90.000000
_cell_angle_gamma 90.000000
_cell_volume 3461.227562
_symmetry_space_group_name_H-M "A M A 2"
_symmetry_group_IT_number 40
_symmetry_cell_setting 'orthorhombic'
loop_
_space_group_symop_operation_xyz
x,y,z
-x,-y,z
1/2-x,y,z
1/2+x,-y,z
x,1/2+y,1/2+z
-x,1/2-y,1/2+z
1/2-x,1/2+y,1/2+z
1/2+x,1/2-y,1/2+z
loop_
_atom_site_type_symbol
_atom_site_label
_atom_site_fract_x
_atom_site_fract_y
_atom_site_fract_z
Si Si1 0.334358 0.171845 0.895980
Si Si2 0.899487 0.174943 0.537977
Si Si3 0.047092 0.204753 0.218159
Si Si4 0.931021 0.346591 0.970190
Si Si5 0.666184 0.559875 0.703767
Si Si6 0.164418 0.991280 0.464432
Si Si7 0.883491 0.748083 0.681689
Si Si8 0.431841 0.553963 0.543281
O O1 0.250000 0.157931 0.925707
O O2 0.362092 0.258351 0.953472
O O3 0.343183 0.186092 0.762170
O O4 0.384986 0.099095 0.946436
O O5 0.906848 0.222990 0.656959
O O6 0.982294 0.153767 0.497795
O O7 0.853870 0.090302 0.537866
O O8 0.077426 0.176413 0.338486
O O9 0.043504 0.127740 0.129505
O O10 0.964901 0.237278 0.232275
O O11 0.890662 0.433954 0.991614
O O12 0.894552 0.279867 0.054460
O O13 0.750000 0.538164 0.682234
O O14 0.649985 0.536008 0.833903
O O15 0.654226 0.658355 0.688073
O O16 0.616254 0.508196 0.618923
O O17 0.250000 0.014402 0.474226
O O18 0.500000 0.500000 0.500155
#
# Coordination Sequence:
#
# PCOD9364109 Si02
#       8
#     8   8   8   8   8   8   8   8
#     4  11  22  39  62  91 126 159 200 253 307 367
#     4  10  21  36  63  89 120 160 206 251 307 365
#     4  10  20  37  60  93 119 155 204 263 307 353
#     4  11  22  39  63  89 125 158 205 256 310 362
#     4  11  21  35  58  87 117 157 210 255 302 361
#     4  11  22  37  58  89 123 163 208 255 306 361
#     4  11  22  37  62  89 122 163 200 248 312 370
#     4  11  22  37  62  90 122 159 204 261 306 353
#
# _framework density 18.490549000000001
#
# number of rings (size 3 to 8) (size 9 to 14) (size 15 to 20)
#    0.000    1.250    5.000    1.500    0.000    1.000 
#    0.000    4.375    0.000    1.500    0.000    0.000 
#    0.000    0.000    0.000    0.000    0.000    0.000 
#
# Total GULP energy -178726.722649 kJ/mol
# GULP energy per Si atom -5585.210083 kJ/mol
# Density = 1.844846 g / cm^3
# Si number density = 18.490549 Si / 1000 Ang^3
#
#
#
# Elastic Constant Matrix: (Units=GPa)
#
#
# Indices 1 2 3 4 5 6 
#
# 1 83.3135 40.7982 16.1869 0.0000 0.0000 0.0000
# 2 40.7982 90.9239 23.8234 0.0000 0.0000 0.0000
# 3 16.1869 23.8234 41.1614 0.0000 0.0000 0.0000
# 4 0.0000 0.0000 0.0000 28.7623 0.0000 0.0000
# 5 0.0000 0.0000 0.0000 0.0000 20.0694 0.0000
# 6 0.0000 0.0000 0.0000 0.0000 0.0000 8.7016
#
#
#
# Elastic Compliance Matrix: (Units=1/GPa)
#
#
# Indices 1 2 3 4 5 6 
#
# 1 0.015590 -0.006353 -0.002454 0.000000 0.000000 0.000000
# 2 -0.006353 0.015553 -0.006503 0.000000 0.000000 0.000000
# 3 -0.002454 -0.006503 0.029024 0.000000 0.000000 0.000000
# 4 0.000000 0.000000 0.000000 0.034768 0.000000 0.000000
# 5 0.000000 0.000000 0.000000 0.000000 0.049827 0.000000
# 6 0.000000 0.000000 0.000000 0.000000 0.000000 0.114921
#
#
# Mechanical properties :
#
#
# Convention : Reuss Voigt Hill
#
# Bulk Modulus (GPa) = 33.84496 41.89065 37.86781
# Shear Modulus (GPa) = 16.65821 20.47935 18.56878
#
# Velocity S-wave (km/s) = 3.00476 3.33161 3.17240
# Velocity P-wave (km/s) = 5.51197 6.12404 5.82605
#
# Compressibility (1/GPa) = 0.02954649
#
# Stress axis : x y z
#
# Youngs Moduli (GPa) = 64.14166 64.29789 34.45442
#
# Poissons Ratio (x) = 0.40845 0.08456
# Poissons Ratio (y) = 0.40746 0.22407
# Poissons Ratio (z) = 0.15742 0.41815
#
# Static dielectric constant tensor:
#      x y z
#    x 1.647830 0.000000 0.000000 
#    y 0.000000 1.622590 0.000000 
#    z 0.000000 0.000000 1.647480 
# 
# From -- ./inp_files/13157.got.cif
#   From: 2010.05.17/outbox.cif.g08.bks.cpg/sg40_7_cif.got.tgz:13157.got - 2010.06.03 18:35:42.
