data_PCOD9364250
_publ_section_title
;
Structure prediction by ZEFSAII (Michael W. Deem and Ramdas Pophale) SiO2 
 PCOD9364250
Probable space group: A M A 2
;
_chemical_formula_sum "Si O2"
_cell_formula_units_Z 60
_cell_length_a 17.634907
_cell_length_b 14.792716
_cell_length_c 11.502414
_cell_angle_alpha 90.000000
_cell_angle_beta 90.000000
_cell_angle_gamma 90.000000
_cell_volume 3000.613702
_symmetry_space_group_name_H-M "A M A 2"
_symmetry_group_IT_number 40
_symmetry_cell_setting 'orthorhombic'
loop_
_space_group_symop_operation_xyz
x,y,z
-x,-y,z
1/2-x,y,z
1/2+x,-y,z
x,1/2+y,1/2+z
-x,1/2-y,1/2+z
1/2-x,1/2+y,1/2+z
1/2+x,1/2-y,1/2+z
loop_
_atom_site_type_symbol
_atom_site_label
_atom_site_fract_x
_atom_site_fract_y
_atom_site_fract_z
Si Si1 0.250000 0.765920 0.868351
Si Si2 0.617120 0.798659 0.528145
Si Si3 0.897398 0.174166 0.236924
Si Si4 0.391819 0.342510 0.229623
Si Si5 0.980173 0.801647 0.905160
Si Si6 0.089939 0.006992 0.557785
Si Si7 0.436182 0.643727 0.645646
Si Si8 0.663163 0.488157 0.802722
O O1 0.317162 0.826976 0.805676
O O2 0.317175 0.706025 0.933631
O O3 0.633065 0.722435 0.622568
O O4 0.537454 0.771299 0.466624
O O5 0.609463 0.891766 0.598108
O O6 0.915279 0.245890 0.338533
O O7 0.843958 0.092018 0.265929
O O8 0.981191 0.136602 0.204461
O O9 0.465602 0.352862 0.313238
O O10 0.384522 0.425008 0.139741
O O11 0.406968 0.246383 0.165678
O O12 0.947828 0.864493 0.007384
O O13 0.125578 0.009589 0.429540
O O14 0.000000 0.000000 0.546546
O O15 0.381779 0.574743 0.711757
O O16 0.750000 0.459141 0.804666
#
# Coordination Sequence:
#
# PCOD9364250 Si02
#       8
#     4   8   8   8   8   8   8   8
#     4  10  22  40  60  90 136 174 216 266 340 398
#     4  10  22  37  68  88 130 173 212 269 337 396
#     4  10  20  41  63  88 125 169 219 270 326 394
#     4  10  22  37  67  99 134 167 222 281 333 398
#     4   9  18  40  64  95 121 173 217 276 333 387
#     4  12  23  41  68 102 130 164 223 283 326 391
#     4  10  20  38  65  93 129 171 223 275 333 389
#     4  12  26  38  62  96 131 175 223 272 334 398
#
# _framework density 19.995909000000001
#
# number of rings (size 3 to 8) (size 9 to 14) (size 15 to 20)
#    0.000    1.600    0.000    7.600    5.600    0.000 
#    0.000   11.333    0.000    0.000    0.000    0.000 
#    0.000    0.000    0.000    0.000    0.000    0.000 
#
# Total GULP energy -167050.234200 kJ/mol
# GULP energy per Si atom -5568.341140 kJ/mol
# Density = 1.995040 g / cm^3
# Si number density = 19.995909 Si / 1000 Ang^3
#
#
#
# Elastic Constant Matrix: (Units=GPa)
#
#
# Indices 1 2 3 4 5 6 
#
# 1 95.0660 48.3378 33.6959 0.0000 0.0000 0.0000
# 2 48.3378 75.0788 45.6375 0.0000 0.0000 0.0000
# 3 33.6959 45.6375 101.0413 0.0000 0.0000 0.0000
# 4 0.0000 0.0000 0.0000 35.1397 0.0000 0.0000
# 5 0.0000 0.0000 0.0000 0.0000 8.6018 0.0000
# 6 0.0000 0.0000 0.0000 0.0000 0.0000 20.5268
#
#
#
# Elastic Compliance Matrix: (Units=1/GPa)
#
#
# Indices 1 2 3 4 5 6 
#
# 1 0.015701 -0.009547 -0.000924 0.000000 0.000000 0.000000
# 2 -0.009547 0.024165 -0.007731 0.000000 0.000000 0.000000
# 3 -0.000924 -0.007731 0.013697 0.000000 0.000000 0.000000
# 4 0.000000 0.000000 0.000000 0.028458 0.000000 0.000000
# 5 0.000000 0.000000 0.000000 0.000000 0.116255 0.000000
# 6 0.000000 0.000000 0.000000 0.000000 0.000000 0.048717
#
#
# Mechanical properties :
#
#
# Convention : Reuss Voigt Hill
#
# Bulk Modulus (GPa) = 58.27758 58.50318 58.39038
# Shear Modulus (GPa) = 17.29410 22.42133 19.85772
#
# Velocity S-wave (km/s) = 2.94408 3.35221 3.15475
# Velocity P-wave (km/s) = 6.38473 6.65614 6.52185
#
# Compressibility (1/GPa) = 0.01715926
#
# Stress axis : x y z
#
# Youngs Moduli (GPa) = 63.69097 41.38155 73.00914
#
# Poissons Ratio (x) = 0.39507 0.06745
# Poissons Ratio (y) = 0.60806 0.56443
# Poissons Ratio (z) = 0.05884 0.31992
#
# Static dielectric constant tensor:
#      x y z
#    x 1.683550 0.000000 0.000000 
#    y 0.000000 1.757210 0.000000 
#    z 0.000000 0.000000 1.745170 
# 
# From -- ./inp_files/13070.got.cif
#   From: 2010.05.17/outbox.cif.g08.bks.cpg/sg40_7_cif.got.tgz:13070.got - 2010.06.03 18:35:42.
