data_PCOD9364975
_publ_section_title
;
Structure prediction by ZEFSAII (Michael W. Deem and Ramdas Pophale) SiO2 
 PCOD9364975
Probable space group: A M A 2
;
_chemical_formula_sum "Si O2"
_cell_formula_units_Z 56
_cell_length_a 14.114126
_cell_length_b 14.786846
_cell_length_c 13.500859
_cell_angle_alpha 90.000000
_cell_angle_beta 90.000000
_cell_angle_gamma 90.000000
_cell_volume 2817.675279
_symmetry_space_group_name_H-M "A M A 2"
_symmetry_group_IT_number 40
_symmetry_cell_setting 'orthorhombic'
loop_
_space_group_symop_operation_xyz
x,y,z
-x,-y,z
1/2-x,y,z
1/2+x,-y,z
x,1/2+y,1/2+z
-x,1/2-y,1/2+z
1/2-x,1/2+y,1/2+z
1/2+x,1/2-y,1/2+z
loop_
_atom_site_type_symbol
_atom_site_label
_atom_site_fract_x
_atom_site_fract_y
_atom_site_fract_z
Si Si1 0.359963 0.328857 0.908550
Si Si2 0.038106 0.687561 0.026514
Si Si3 0.855223 0.955022 0.395472
Si Si4 0.644415 0.949485 0.959282
Si Si5 0.420024 0.577577 0.677168
Si Si6 0.943443 0.638770 0.405681
Si Si7 0.019330 0.740301 0.232516
O O1 0.250000 0.304768 0.919514
O O2 0.367523 0.437226 0.897570
O O3 0.406907 0.281814 0.812086
O O4 0.425981 0.305296 0.001959
O O5 0.059928 0.681983 0.142228
O O6 0.074412 0.602710 0.962920
O O7 0.080534 0.779244 0.979559
O O8 0.750000 0.933535 0.431083
O O9 0.866325 0.928042 0.281028
O O10 0.750000 0.923128 0.925252
O O11 0.638983 0.939279 0.078156
O O12 0.552900 0.893700 0.921787
O O13 0.621356 0.052443 0.926841
O O14 0.500000 0.500000 0.677935
O O15 0.470657 0.674480 0.679103
O O16 0.945107 0.681957 0.296532
#
# Coordination Sequence:
#
# PCOD9364975 Si02
#       7
#     8   8   8   8   8   8   8
#     4  10  22  40  64  92 123 163 209 251 303 373
#     4  11  21  41  64  89 126 165 203 257 308 358
#     4  11  22  37  61  94 127 162 203 251 304 365
#     4  11  23  41  63  86 122 164 202 251 307 368
#     4  12  18  38  66  92 121 158 202 246 308 366
#     4  10  22  41  61  91 122 156 212 249 304 366
#     4  11  22  39  67  90 123 162 201 257 307 357
#
# _framework density 19.87454
#
# number of rings (size 3 to 8) (size 9 to 14) (size 15 to 20)
#    0.000    1.143    7.143    0.857    0.000    3.429 
#    5.143    0.714    0.000    0.000    0.000    0.000 
#    0.000    0.000    0.000    0.000    0.000    0.000 
#
# Total GULP energy -156290.203501 kJ/mol
# GULP energy per Si atom -5581.792982 kJ/mol
# Density = 1.982930 g / cm^3
# Si number density = 19.874540 Si / 1000 Ang^3
#
#
#
# Elastic Constant Matrix: (Units=GPa)
#
#
# Indices 1 2 3 4 5 6 
#
# 1 89.9457 15.4605 9.6869 0.0000 0.0000 0.0000
# 2 15.4605 79.4379 32.2149 0.0000 0.0000 0.0000
# 3 9.6869 32.2149 88.9830 0.0000 0.0000 0.0000
# 4 0.0000 0.0000 0.0000 20.3269 0.0000 0.0000
# 5 0.0000 0.0000 0.0000 0.0000 11.8016 0.0000
# 6 0.0000 0.0000 0.0000 0.0000 0.0000 11.3917
#
#
#
# Elastic Compliance Matrix: (Units=1/GPa)
#
#
# Indices 1 2 3 4 5 6 
#
# 1 0.011523 -0.002032 -0.000519 0.000000 0.000000 0.000000
# 2 -0.002032 0.015113 -0.005250 0.000000 0.000000 0.000000
# 3 -0.000519 -0.005250 0.013195 0.000000 0.000000 0.000000
# 4 0.000000 0.000000 0.000000 0.049196 0.000000 0.000000
# 5 0.000000 0.000000 0.000000 0.000000 0.084734 0.000000
# 6 0.000000 0.000000 0.000000 0.000000 0.000000 0.087783
#
#
# Mechanical properties :
#
#
# Convention : Reuss Voigt Hill
#
# Bulk Modulus (GPa) = 41.27274 41.45458 41.36366
# Shear Modulus (GPa) = 17.53010 22.10433 19.81722
#
# Velocity S-wave (km/s) = 2.97313 3.33857 3.16114
# Velocity P-wave (km/s) = 5.70944 5.98037 5.84648
#
# Compressibility (1/GPa) = 0.02422907
#
# Stress axis : x y z
#
# Youngs Moduli (GPa) = 86.78293 66.16754 75.78441
#
# Poissons Ratio (x) = 0.13447 0.03931
# Poissons Ratio (y) = 0.17637 0.39789
# Poissons Ratio (z) = 0.04501 0.34740
#
# Static dielectric constant tensor:
#      x y z
#    x 1.726690 0.000000 0.000000 
#    y 0.000000 1.721370 0.000000 
#    z 0.000000 0.000000 1.697140 
# 
# From -- ./inp_files/17161.got.cif
#   From: 2010.05.17/outbox.cif.g08.bks.cpg/sg40_9_cif.got.tgz:17161.got - 2010.06.03 18:35:42.
