data_PCOD9364709
_publ_section_title
;
Structure prediction by ZEFSAII (Michael W. Deem and Ramdas Pophale) SiO2 
 PCOD9364709
Probable space group: A M A 2
;
_chemical_formula_sum "Si O2"
_cell_formula_units_Z 40
_cell_length_a 17.822050
_cell_length_b 19.644620
_cell_length_c 5.002991
_cell_angle_alpha 90.000000
_cell_angle_beta 90.000000
_cell_angle_gamma 90.000000
_cell_volume 1751.584171
_symmetry_space_group_name_H-M "A M A 2"
_symmetry_group_IT_number 40
_symmetry_cell_setting 'orthorhombic'
loop_
_space_group_symop_operation_xyz
x,y,z
-x,-y,z
1/2-x,y,z
1/2+x,-y,z
x,1/2+y,1/2+z
-x,1/2-y,1/2+z
1/2-x,1/2+y,1/2+z
1/2+x,1/2-y,1/2+z
loop_
_atom_site_type_symbol
_atom_site_label
_atom_site_fract_x
_atom_site_fract_y
_atom_site_fract_z
Si Si1 0.834055 0.372315 0.544420
Si Si2 0.529490 0.210112 0.221899
Si Si3 0.158720 0.481395 0.331440
Si Si4 0.333394 0.219816 0.521742
Si Si5 0.063583 0.941509 0.311086
O O1 0.750000 0.391046 0.643282
O O2 0.864657 0.442242 0.426909
O O3 0.828321 0.323410 0.291739
O O4 0.865691 0.330183 0.793444
O O5 0.519739 0.260473 0.475507
O O6 0.611886 0.219787 0.093260
O O7 0.524590 0.132515 0.320004
O O8 0.250000 0.477843 0.305065
O O9 0.122042 0.438138 0.566871
O O10 0.114745 0.460951 0.064885
O O11 0.250000 0.241607 0.436990
O O12 0.000000 0.000000 0.279442
#
# Coordination Sequence:
#
# PCOD9364709 Si02
#       5
#     8   8   8   8   8
#     4   9  19  36  65 104 134 172 221 289 359 418
#     4  12  28  47  70 102 146 196 241 298 370 436
#     4  11  24  45  75 108 144 188 247 308 371 436
#     4  10  21  39  66  98 134 180 238 291 352 422
#     4  12  28  47  72 109 149 197 242 305 378 443
#
# _framework density 22.836469000000001
#
# number of rings (size 3 to 8) (size 9 to 14) (size 15 to 20)
#    0.000    1.200    0.000    4.800    8.400    4.800 
#    0.000    2.000    0.000    0.000    0.000    0.000 
#    0.000    0.000    0.000    0.000    0.000    0.000 
#
# Total GULP energy -111676.192024 kJ/mol
# GULP energy per Si atom -5583.809601 kJ/mol
# Density = 2.278449 g / cm^3
# Si number density = 22.836469 Si / 1000 Ang^3
#
#
#
# Elastic Constant Matrix: (Units=GPa)
#
#
# Indices 1 2 3 4 5 6 
#
# 1 152.8702 60.0248 28.7152 0.0000 0.0000 0.0000
# 2 60.0248 152.3301 63.5741 0.0000 0.0000 0.0000
# 3 28.7152 63.5741 298.1579 0.0000 0.0000 0.0000
# 4 0.0000 0.0000 0.0000 -22.8698 0.0000 0.0000
# 5 0.0000 0.0000 0.0000 0.0000 55.4934 0.0000
# 6 0.0000 0.0000 0.0000 0.0000 0.0000 59.1188
#
#
#
# Elastic Compliance Matrix: (Units=1/GPa)
#
#
# Indices 1 2 3 4 5 6 
#
# 1 0.007742 -0.003007 -0.000104 0.000000 0.000000 0.000000
# 2 -0.003007 0.008374 -0.001496 0.000000 0.000000 0.000000
# 3 -0.000104 -0.001496 0.003683 0.000000 0.000000 0.000000
# 4 0.000000 0.000000 0.000000 -0.043726 0.000000 0.000000
# 5 0.000000 0.000000 0.000000 0.000000 0.018020 0.000000
# 6 0.000000 0.000000 0.000000 0.000000 0.000000 0.016915
#
#
# Mechanical properties :
#
#
# Convention : Reuss Voigt Hill
#
# Bulk Modulus (GPa) = 94.48293 100.88741 97.68517
# Shear Modulus (GPa) = 210.51874 48.41808 129.46841
#
# Velocity S-wave (km/s) = 9.61174 4.60957 7.53769
# Velocity P-wave (km/s) = 12.83137 8.52085 10.89149
#
# Compressibility (1/GPa) = 0.01058392
#
# Stress axis : x y z
#
# Youngs Moduli (GPa) = 129.16835 119.41855 271.52173
#
# Poissons Ratio (x) = 0.35910 0.02836
# Poissons Ratio (y) = 0.38841 0.40617
# Poissons Ratio (z) = 0.01349 0.17864
#
# Static dielectric constant tensor:
#      x y z
#    x 1.990130 0.000000 0.000000 
#    y 0.000000 1.875350 0.000000 
#    z 0.000000 0.000000 1.804770 
# 
# From -- ./inp_files/1734.got.cif
#   From: 2010.05.17/outbox.cif.g08.bks.cpg/sg40_1_cif.got.tgz:1734.got - 2010.06.03 18:35:42.
