data_PCOD9364740
_publ_section_title
;
Structure prediction by ZEFSAII (Michael W. Deem and Ramdas Pophale) SiO2 
 PCOD9364740
Probable space group: A M A 2
;
_chemical_formula_sum "Si O2"
_cell_formula_units_Z 60
_cell_length_a 30.272045
_cell_length_b 9.174531
_cell_length_c 10.859703
_cell_angle_alpha 90.000000
_cell_angle_beta 90.000000
_cell_angle_gamma 90.000000
_cell_volume 3016.085028
_symmetry_space_group_name_H-M "A M A 2"
_symmetry_group_IT_number 40
_symmetry_cell_setting 'orthorhombic'
loop_
_space_group_symop_operation_xyz
x,y,z
-x,-y,z
1/2-x,y,z
1/2+x,-y,z
x,1/2+y,1/2+z
-x,1/2-y,1/2+z
1/2-x,1/2+y,1/2+z
1/2+x,1/2-y,1/2+z
loop_
_atom_site_type_symbol
_atom_site_label
_atom_site_fract_x
_atom_site_fract_y
_atom_site_fract_z
Si Si1 0.799024 0.639213 0.868890
Si Si2 0.173438 0.539498 0.368221
Si Si3 0.076612 0.182948 0.895177
Si Si4 0.000000 0.500000 0.284595
Si Si5 0.474196 0.216032 0.138668
Si Si6 0.062062 0.423263 0.686777
Si Si7 0.803867 0.673036 0.144119
Si Si8 0.841176 0.997964 0.131332
O O1 0.750000 0.576949 0.859661
O O2 0.797885 0.814298 0.857749
O O3 0.825637 0.578166 0.754305
O O4 0.815403 0.609862 0.008118
O O5 0.124200 0.609202 0.378499
O O6 0.181525 0.432584 0.254551
O O7 0.181776 0.464519 0.500944
O O8 0.071424 0.317349 0.800947
O O9 0.060946 0.233331 0.029573
O O10 0.039900 0.064219 0.861922
O O11 0.981280 0.632126 0.204251
O O12 0.523655 0.155920 0.106825
O O13 0.456015 0.083454 0.222779
O O14 0.107655 0.457136 0.618414
O O15 0.750000 0.693534 0.146932
O O16 0.829266 0.827554 0.151378
#
# Coordination Sequence:
#
# PCOD9364740 Si02
#       8
#     8   8   8   4   8   8   8   8
#     4  10  22  42  65  90 129 171 212 270 333 389
#     4  11  23  39  68  95 128 170 218 271 318 392
#     4  11  22  40  62  90 127 167 214 260 322 378
#     4  10  24  36  62  90 118 168 210 254 318 380
#     4  10  22  41  61  88 128 165 208 267 317 374
#     4  10  21  40  63  90 128 167 213 260 322 378
#     4  10  24  43  64  96 132 170 216 274 334 389
#     4  11  22  41  66  98 127 171 214 269 322 393
#
# _framework density 19.893339000000001
#
# number of rings (size 3 to 8) (size 9 to 14) (size 15 to 20)
#    0.000    1.600    2.667    1.600    1.867    4.800 
#    0.000    1.333    0.000    0.000    0.000    0.000 
#    0.000    0.000    0.000    0.000    0.000    0.000 
#
# Total GULP energy -167285.934523 kJ/mol
# GULP energy per Si atom -5576.197817 kJ/mol
# Density = 1.984806 g / cm^3
# Si number density = 19.893339 Si / 1000 Ang^3
#
#
#
# Elastic Constant Matrix: (Units=GPa)
#
#
# Indices 1 2 3 4 5 6 
#
# 1 66.1940 -12.2492 9.3345 0.0000 0.0000 0.0000
# 2 -12.2492 39.9388 17.9351 0.0000 0.0000 0.0000
# 3 9.3345 17.9351 97.8038 0.0000 0.0000 0.0000
# 4 0.0000 0.0000 0.0000 33.4576 0.0000 0.0000
# 5 0.0000 0.0000 0.0000 0.0000 29.8680 0.0000
# 6 0.0000 0.0000 0.0000 0.0000 0.0000 24.1025
#
#
#
# Elastic Compliance Matrix: (Units=1/GPa)
#
#
# Indices 1 2 3 4 5 6 
#
# 1 0.016671 0.006350 -0.002756 0.000000 0.000000 0.000000
# 2 0.006350 0.029704 -0.006053 0.000000 0.000000 0.000000
# 3 -0.002756 -0.006053 0.011598 0.000000 0.000000 0.000000
# 4 0.000000 0.000000 0.000000 0.029889 0.000000 0.000000
# 5 0.000000 0.000000 0.000000 0.000000 0.033481 0.000000
# 6 0.000000 0.000000 0.000000 0.000000 0.000000 0.041489
#
#
# Mechanical properties :
#
#
# Convention : Reuss Voigt Hill
#
# Bulk Modulus (GPa) = 18.84807 25.99748 22.42278
# Shear Modulus (GPa) = 26.96385 30.08004 28.52194
#
# Velocity S-wave (km/s) = 3.68560 3.89275 3.79059
# Velocity P-wave (km/s) = 5.25420 5.77074 5.51852
#
# Compressibility (1/GPa) = 0.05305584
#
# Stress axis : x y z
#
# Youngs Moduli (GPa) = 59.98498 33.66522 86.22496
#
# Poissons Ratio (x) = -0.21379 0.23760
# Poissons Ratio (y) = -0.38093 0.52194
# Poissons Ratio (z) = 0.16530 0.20378
#
# Static dielectric constant tensor:
#      x y z
#    x 1.769620 0.000000 0.000000 
#    y 0.000000 1.671350 0.000000 
#    z 0.000000 0.000000 1.710130 
# 
# From -- ./inp_files/14243.got.cif
#   From: 2010.05.17/outbox.cif.g08.bks.cpg/sg40_8_cif.got.tgz:14243.got - 2010.06.03 18:35:42.
