data_PCOD9364544
_publ_section_title
;
Structure prediction by ZEFSAII (Michael W. Deem and Ramdas Pophale) SiO2 
 PCOD9364544
Probable space group: A M A 2
;
_chemical_formula_sum "Si O2"
_cell_formula_units_Z 64
_cell_length_a 14.718928
_cell_length_b 16.864905
_cell_length_c 11.566387
_cell_angle_alpha 90.000000
_cell_angle_beta 90.000000
_cell_angle_gamma 90.000000
_cell_volume 2871.162673
_symmetry_space_group_name_H-M "A M A 2"
_symmetry_group_IT_number 40
_symmetry_cell_setting 'orthorhombic'
loop_
_space_group_symop_operation_xyz
x,y,z
-x,-y,z
1/2-x,y,z
1/2+x,-y,z
x,1/2+y,1/2+z
-x,1/2-y,1/2+z
1/2-x,1/2+y,1/2+z
1/2+x,1/2-y,1/2+z
loop_
_atom_site_type_symbol
_atom_site_label
_atom_site_fract_x
_atom_site_fract_y
_atom_site_fract_z
Si Si1 0.116277 0.291181 0.354410
Si Si2 0.401840 0.227941 0.882212
Si Si3 0.854267 0.028315 0.901198
Si Si4 0.643763 0.868538 0.460477
Si Si5 0.146713 0.592310 0.216987
Si Si6 0.352503 0.999323 0.156302
Si Si7 0.110183 0.681271 0.642938
Si Si8 0.031843 0.881675 0.295340
O O1 0.148214 0.380358 0.365790
O O2 0.147791 0.227259 0.449501
O O3 0.141219 0.248338 0.233315
O O4 0.007797 0.294117 0.366434
O O5 0.353070 0.174283 0.787533
O O6 0.400224 0.321516 0.859271
O O7 0.374971 0.206153 0.012024
O O8 0.750000 0.999110 0.915715
O O9 0.896734 0.972378 0.802939
O O10 0.893115 0.019643 0.029563
O O11 0.750000 0.895440 0.436678
O O12 0.611852 0.894826 0.587727
O O13 0.559162 0.890299 0.375059
O O14 0.250000 0.565384 0.197317
O O15 0.250000 0.967333 0.165029
O O16 0.348450 0.094359 0.162918
O O17 0.414694 0.957763 0.251643
O O18 0.005566 0.664439 0.680808
#
# Coordination Sequence:
#
# PCOD9364544 Si02
#       8
#     8   8   8   8   8   8   8   8
#     4  10  23  36  63  92 127 171 219 266 329 403
#     4  10  21  37  63  91 133 168 216 276 332 391
#     4  10  21  39  61  96 131 166 221 277 329 392
#     4   9  20  40  66  95 132 180 223 270 338 411
#     4  10  21  38  63  97 132 169 218 271 334 405
#     4  11  23  41  66  96 136 178 225 283 336 398
#     4  10  21  41  61  90 132 173 222 271 334 404
#     4  10  24  38  66 100 134 170 233 279 335 400
#
# _framework density 22.290621999999999
#
# number of rings (size 3 to 8) (size 9 to 14) (size 15 to 20)
#    0.000    2.250    1.250    1.500    8.750    3.500 
#    0.000    5.000    0.000    3.000    0.000    0.000 
#    0.000    1.000    0.000    0.000    0.000    0.000 
#
# Total GULP energy -178484.052051 kJ/mol
# GULP energy per Si atom -5577.626627 kJ/mol
# Density = 2.223989 g / cm^3
# Si number density = 22.290622 Si / 1000 Ang^3
#
#
#
# Elastic Constant Matrix: (Units=GPa)
#
#
# Indices 1 2 3 4 5 6 
#
# 1 78.0953 33.5449 29.3435 0.0000 0.0000 0.0000
# 2 33.5449 138.0487 86.5635 0.0000 0.0000 0.0000
# 3 29.3435 86.5635 164.1605 0.0000 0.0000 0.0000
# 4 0.0000 0.0000 0.0000 39.4714 0.0000 0.0000
# 5 0.0000 0.0000 0.0000 0.0000 16.0278 0.0000
# 6 0.0000 0.0000 0.0000 0.0000 0.0000 54.4851
#
#
#
# Elastic Compliance Matrix: (Units=1/GPa)
#
#
# Indices 1 2 3 4 5 6 
#
# 1 0.014427 -0.002822 -0.001091 0.000000 0.000000 0.000000
# 2 -0.002822 0.011374 -0.005493 0.000000 0.000000 0.000000
# 3 -0.001091 -0.005493 0.009183 0.000000 0.000000 0.000000
# 4 0.000000 0.000000 0.000000 0.025335 0.000000 0.000000
# 5 0.000000 0.000000 0.000000 0.000000 0.062392 0.000000
# 6 0.000000 0.000000 0.000000 0.000000 0.000000 0.018354
#
#
# Mechanical properties :
#
#
# Convention : Reuss Voigt Hill
#
# Bulk Modulus (GPa) = 61.83332 75.46757 68.65045
# Shear Modulus (GPa) = 30.25415 37.38701 33.82058
#
# Velocity S-wave (km/s) = 3.68810 4.09987 3.89942
# Velocity P-wave (km/s) = 6.77760 7.50611 7.15114
#
# Compressibility (1/GPa) = 0.01617251
#
# Stress axis : x y z
#
# Youngs Moduli (GPa) = 69.31577 87.91979 108.89364
#
# Poissons Ratio (x) = 0.24807 0.11880
# Poissons Ratio (y) = 0.19558 0.59818
# Poissons Ratio (z) = 0.07562 0.48297
#
# Static dielectric constant tensor:
#      x y z
#    x 1.887880 0.000000 0.000000 
#    y 0.000000 1.825130 0.000000 
#    z 0.000000 0.000000 1.855770 
# 
# From -- ./inp_files/13125.got.cif
#   From: 2010.05.17/outbox.cif.g08.bks.cpg/sg40_7_cif.got.tgz:13125.got - 2010.06.03 18:35:42.
