data_PCOD9364388
_publ_section_title
;
Structure prediction by ZEFSAII (Michael W. Deem and Ramdas Pophale) SiO2 
 PCOD9364388
Probable space group: A M A 2
;
_chemical_formula_sum "Si O2"
_cell_formula_units_Z 64
_cell_length_a 17.773242
_cell_length_b 13.401907
_cell_length_c 14.225523
_cell_angle_alpha 90.000000
_cell_angle_beta 90.000000
_cell_angle_gamma 90.000000
_cell_volume 3388.453236
_symmetry_space_group_name_H-M "A M A 2"
_symmetry_group_IT_number 40
_symmetry_cell_setting 'orthorhombic'
loop_
_space_group_symop_operation_xyz
x,y,z
-x,-y,z
1/2-x,y,z
1/2+x,-y,z
x,1/2+y,1/2+z
-x,1/2-y,1/2+z
1/2-x,1/2+y,1/2+z
1/2+x,1/2-y,1/2+z
loop_
_atom_site_type_symbol
_atom_site_label
_atom_site_fract_x
_atom_site_fract_y
_atom_site_fract_z
Si Si1 0.077964 0.449487 0.896840
Si Si2 0.837424 0.886360 0.499173
Si Si3 0.337945 0.762894 0.822008
Si Si4 0.012322 0.383010 0.308792
Si Si5 0.839713 0.571492 0.705638
Si Si6 0.161364 0.140165 0.129128
Si Si7 0.074943 0.730679 0.142690
Si Si8 0.548667 0.767362 0.983814
O O1 0.110366 0.519165 0.978721
O O2 0.137748 0.451658 0.812792
O O3 0.064171 0.338030 0.933021
O O4 0.000000 0.500000 0.863890
O O5 0.750000 0.913730 0.496859
O O6 0.849769 0.806162 0.414377
O O7 0.860927 0.838719 0.597687
O O8 0.250000 0.795219 0.822886
O O9 0.400326 0.849262 0.817035
O O10 0.350238 0.695599 0.729027
O O11 0.972172 0.322402 0.224612
O O12 0.973453 0.346628 0.404784
O O13 0.000000 0.500000 0.294332
O O14 0.750000 0.586617 0.697377
O O15 0.861417 0.474950 0.644006
O O16 0.886530 0.668084 0.677012
O O17 0.250000 0.142135 0.110227
O O18 0.117461 0.194305 0.046512
O O19 0.018827 0.752706 0.057043
#
# Coordination Sequence:
#
# PCOD9364388 Si02
#       8
#     8   8   8   8   8   8   8   8
#     4  12  23  41  68 101 132 170 221 280 332 384
#     4  11  23  41  70 100 129 171 219 268 327 390
#     4  10  20  42  69  97 130 167 219 271 322 387
#     4  12  27  46  63  98 135 173 218 269 325 388
#     4  11  25  44  69 100 133 171 219 280 335 385
#     4  10  23  42  68  99 130 171 221 272 328 389
#     4  12  25  43  68  95 135 172 218 272 320 396
#     4  12  26  43  66  97 131 175 219 269 329 388
#
# _framework density 18.887675000000002
#
# number of rings (size 3 to 8) (size 9 to 14) (size 15 to 20)
#    0.000    0.750    6.250    0.750    5.250    1.000 
#    0.000    3.125    0.000    0.000    0.000    0.000 
#    0.000    0.000    0.000    0.000    0.000    0.000 
#
# Total GULP energy -178884.734571 kJ/mol
# GULP energy per Si atom -5590.147955 kJ/mol
# Density = 1.884469 g / cm^3
# Si number density = 18.887675 Si / 1000 Ang^3
#
#
#
# Elastic Constant Matrix: (Units=GPa)
#
#
# Indices 1 2 3 4 5 6 
#
# 1 76.2156 42.5285 16.9673 0.0000 0.0000 0.0000
# 2 42.5285 100.7224 6.5361 0.0000 0.0000 0.0000
# 3 16.9673 6.5361 70.0715 0.0000 0.0000 0.0000
# 4 0.0000 0.0000 0.0000 16.7621 0.0000 0.0000
# 5 0.0000 0.0000 0.0000 0.0000 31.2206 0.0000
# 6 0.0000 0.0000 0.0000 0.0000 0.0000 26.4306
#
#
#
# Elastic Compliance Matrix: (Units=1/GPa)
#
#
# Indices 1 2 3 4 5 6 
#
# 1 0.018063 -0.007388 -0.003685 0.000000 0.000000 0.000000
# 2 -0.007388 0.013010 0.000575 0.000000 0.000000 0.000000
# 3 -0.003685 0.000575 0.015110 0.000000 0.000000 0.000000
# 4 0.000000 0.000000 0.000000 0.059658 0.000000 0.000000
# 5 0.000000 0.000000 0.000000 0.000000 0.032030 0.000000
# 6 0.000000 0.000000 0.000000 0.000000 0.000000 0.037835
#
#
# Mechanical properties :
#
#
# Convention : Reuss Voigt Hill
#
# Bulk Modulus (GPa) = 39.70014 42.11926 40.90970
# Shear Modulus (GPa) = 24.37858 26.94783 25.66321
#
# Velocity S-wave (km/s) = 3.59655 3.78132 3.69009
# Velocity P-wave (km/s) = 6.18964 6.43528 6.31365
#
# Compressibility (1/GPa) = 0.02518883
#
# Stress axis : x y z
#
# Youngs Moduli (GPa) = 55.36031 76.86172 66.18259
#
# Poissons Ratio (x) = 0.56785 0.24387
# Poissons Ratio (y) = 0.40900 -0.03808
# Poissons Ratio (z) = 0.20399 -0.04422
#
# Static dielectric constant tensor:
#      x y z
#    x 1.670390 0.000000 0.000000 
#    y 0.000000 1.648500 0.000000 
#    z 0.000000 0.000000 1.634030 
# 
# From -- ./inp_files/17859.got.cif
#   From: 2010.05.17/outbox.cif.g08.bks.cpg/sg40_9_cif.got.tgz:17859.got - 2010.06.03 18:35:42.
