data_PCOD9364066
_publ_section_title
;
Structure prediction by ZEFSAII (Michael W. Deem and Ramdas Pophale) SiO2 
 PCOD9364066
Probable space group: A M A 2
;
_chemical_formula_sum "Si O2"
_cell_formula_units_Z 40
_cell_length_a 14.304799
_cell_length_b 22.100491
_cell_length_c 5.496561
_cell_angle_alpha 90.000000
_cell_angle_beta 90.000000
_cell_angle_gamma 90.000000
_cell_volume 1737.699733
_symmetry_space_group_name_H-M "A M A 2"
_symmetry_group_IT_number 40
_symmetry_cell_setting 'orthorhombic'
loop_
_space_group_symop_operation_xyz
x,y,z
-x,-y,z
1/2-x,y,z
1/2+x,-y,z
x,1/2+y,1/2+z
-x,1/2-y,1/2+z
1/2-x,1/2+y,1/2+z
1/2+x,1/2-y,1/2+z
loop_
_atom_site_type_symbol
_atom_site_label
_atom_site_fract_x
_atom_site_fract_y
_atom_site_fract_z
Si Si1 0.508265 0.212862 0.278980
Si Si2 0.857818 0.887687 0.406902
Si Si3 0.505255 0.064817 0.742992
Si Si4 0.851435 0.519733 0.837447
Si Si5 0.147059 0.864582 0.018423
O O1 0.509980 0.247576 0.536161
O O2 0.426157 0.162912 0.302395
O O3 0.607041 0.180029 0.222900
O O4 0.750000 0.868832 0.428450
O O5 0.904638 0.911010 0.658666
O O6 0.862732 0.950499 0.256542
O O7 0.567985 0.043664 0.512470
O O8 0.500000 0.000000 0.883414
O O9 0.561771 0.123007 0.837429
O O10 0.750000 0.521334 0.969891
O O11 0.845264 0.568120 0.626144
O O12 0.250000 0.846227 0.928205
#
# Coordination Sequence:
#
# PCOD9364066 Si02
#       5
#     8   8   8   8   8
#     4  12  28  49  72 101 141 198 255 296 346 417
#     4  10  22  44  71 101 142 183 234 297 365 431
#     4  10  20  36  68 102 147 179 224 281 366 439
#     4   9  19  38  67 105 137 173 222 286 371 443
#     4  11  24  42  70 104 138 181 234 301 366 431
#
# _framework density 23.018934999999999
#
# number of rings (size 3 to 8) (size 9 to 14) (size 15 to 20)
#    0.000    1.600    2.000    1.800    2.800    2.400 
#    0.000    3.000    0.000    0.000    0.000    0.000 
#    0.000    0.000    0.000    0.000    0.000    0.000 
#
# Total GULP energy -111556.782860 kJ/mol
# GULP energy per Si atom -5577.839143 kJ/mol
# Density = 2.296654 g / cm^3
# Si number density = 23.018935 Si / 1000 Ang^3
#
#
#
# Elastic Constant Matrix: (Units=GPa)
#
#
# Indices 1 2 3 4 5 6 
#
# 1 139.4412 33.5374 19.9368 0.0000 0.0000 0.0000
# 2 33.5374 107.9580 37.0746 0.0000 0.0000 0.0000
# 3 19.9368 37.0746 57.2701 0.0000 0.0000 0.0000
# 4 0.0000 0.0000 0.0000 43.8528 0.0000 0.0000
# 5 0.0000 0.0000 0.0000 0.0000 10.9731 0.0000
# 6 0.0000 0.0000 0.0000 0.0000 0.0000 7.7499
#
#
#
# Elastic Compliance Matrix: (Units=1/GPa)
#
#
# Indices 1 2 3 4 5 6 
#
# 1 0.007847 -0.001928 -0.001483 0.000000 0.000000 0.000000
# 2 -0.001928 0.012385 -0.007346 0.000000 0.000000 0.000000
# 3 -0.001483 -0.007346 0.022733 0.000000 0.000000 0.000000
# 4 0.000000 0.000000 0.000000 0.022804 0.000000 0.000000
# 5 0.000000 0.000000 0.000000 0.000000 0.091132 0.000000
# 6 0.000000 0.000000 0.000000 0.000000 0.000000 0.129035
#
#
# Mechanical properties :
#
#
# Convention : Reuss Voigt Hill
#
# Bulk Modulus (GPa) = 46.62148 53.97411 50.29779
# Shear Modulus (GPa) = 15.89317 26.78985 21.34151
#
# Velocity S-wave (km/s) = 2.63047 3.41518 3.04818
# Velocity P-wave (km/s) = 5.43354 6.24899 5.85548
#
# Compressibility (1/GPa) = 0.02144934
#
# Stress axis : x y z
#
# Youngs Moduli (GPa) = 127.43110 80.74492 43.98869
#
# Poissons Ratio (x) = 0.15571 0.06526
# Poissons Ratio (y) = 0.24573 0.32314
# Poissons Ratio (z) = 0.18904 0.59316
#
# Static dielectric constant tensor:
#      x y z
#    x 1.969020 0.000000 0.000000 
#    y 0.000000 1.912260 0.000000 
#    z 0.000000 0.000000 1.935320 
# 
# From -- ./inp_files/1230.got.cif
#   From: 2010.05.17/outbox.cif.g08.bks.cpg/sg40_1_cif.got.tgz:1230.got - 2010.06.03 18:35:42.
