data_PCOD9364855
_publ_section_title
;
Structure prediction by ZEFSAII (Michael W. Deem and Ramdas Pophale) SiO2 
 PCOD9364855
Probable space group: A M A 2
;
_chemical_formula_sum "Si O2"
_cell_formula_units_Z 40
_cell_length_a 15.367235
_cell_length_b 5.213529
_cell_length_c 17.755391
_cell_angle_alpha 90.000000
_cell_angle_beta 90.000000
_cell_angle_gamma 90.000000
_cell_volume 1422.517988
_symmetry_space_group_name_H-M "A M A 2"
_symmetry_group_IT_number 40
_symmetry_cell_setting 'orthorhombic'
loop_
_space_group_symop_operation_xyz
x,y,z
-x,-y,z
1/2-x,y,z
1/2+x,-y,z
x,1/2+y,1/2+z
-x,1/2-y,1/2+z
1/2-x,1/2+y,1/2+z
1/2+x,1/2-y,1/2+z
loop_
_atom_site_type_symbol
_atom_site_label
_atom_site_fract_x
_atom_site_fract_y
_atom_site_fract_z
Si Si1 0.604900 0.517357 0.523750
Si Si2 0.750000 0.770829 0.817337
Si Si3 0.750000 0.894586 0.648066
Si Si4 0.077524 0.134234 0.649744
Si Si5 0.500000 0.500000 0.769725
Si Si6 0.250000 0.399629 0.983259
Si Si7 0.905045 0.641911 0.366241
O O1 0.500000 0.500000 0.527507
O O2 0.624540 0.637195 0.604839
O O3 0.664265 0.276795 0.502773
O O4 0.619712 0.702502 0.452256
O O5 0.750000 0.712144 0.726477
O O6 0.833549 0.953616 0.832847
O O7 0.750000 0.577951 0.890892
O O8 0.840938 0.044360 0.664788
O O9 0.750000 0.903057 0.554194
O O10 0.029316 0.266033 0.718058
O O11 0.000000 0.000000 0.604701
O O12 0.578234 0.397844 0.819984
O O13 0.000000 0.500000 0.367994
#
# Coordination Sequence:
#
# PCOD9364855 Si02
#       7
#     8   4   4   8   4   4   8
#     4  10  21  43  69  94 134 179 224 282 345 404
#     4  10  22  43  68  97 137 180 223 289 348 399
#     4  12  25  42  71  99 140 182 230 288 355 418
#     4  12  26  43  66 104 136 179 231 284 343 423
#     4  12  24  42  68 100 140 180 232 282 342 422
#     4  10  23  43  69 100 135 180 231 291 345 423
#     4  10  23  43  69  97 133 178 231 286 341 413
#
# _framework density 28.119150999999999
#
# number of rings (size 3 to 8) (size 9 to 14) (size 15 to 20)
#    0.000    1.200    1.000    4.800    4.200    0.800 
#    3.600    1.000    0.000    0.000    0.000    0.000 
#    0.000    0.000    0.000    0.000    0.000    0.000 
#
# Total GULP energy -111671.688014 kJ/mol
# GULP energy per Si atom -5583.584401 kJ/mol
# Density = 2.805515 g / cm^3
# Si number density = 28.119151 Si / 1000 Ang^3
#
#
#
# Elastic Constant Matrix: (Units=GPa)
#
#
# Indices 1 2 3 4 5 6 
#
# 1 187.3349 23.9048 18.2055 0.0000 0.0000 0.0000
# 2 23.9048 72.9514 49.4765 0.0000 0.0000 0.0000
# 3 18.2055 49.4765 248.5771 0.0000 0.0000 0.0000
# 4 0.0000 0.0000 0.0000 43.5685 0.0000 0.0000
# 5 0.0000 0.0000 0.0000 0.0000 22.7355 0.0000
# 6 0.0000 0.0000 0.0000 0.0000 0.0000 34.6062
#
#
#
# Elastic Compliance Matrix: (Units=1/GPa)
#
#
# Indices 1 2 3 4 5 6 
#
# 1 0.005572 -0.001791 -0.000052 0.000000 0.000000 0.000000
# 2 -0.001791 0.016422 -0.003138 0.000000 0.000000 0.000000
# 3 -0.000052 -0.003138 0.004651 0.000000 0.000000 0.000000
# 4 0.000000 0.000000 0.000000 0.022952 0.000000 0.000000
# 5 0.000000 0.000000 0.000000 0.000000 0.043984 0.000000
# 6 0.000000 0.000000 0.000000 0.000000 0.000000 0.028897
#
#
# Mechanical properties :
#
#
# Convention : Reuss Voigt Hill
#
# Bulk Modulus (GPa) = 59.93249 76.89301 68.41275
# Shear Modulus (GPa) = 36.23193 48.00047 42.11620
#
# Velocity S-wave (km/s) = 3.59348 4.13611 3.87431
# Velocity P-wave (km/s) = 6.21108 7.08623 6.66304
#
# Compressibility (1/GPa) = 0.01668544
#
# Stress axis : x y z
#
# Youngs Moduli (GPa) = 179.48332 60.89222 214.99939
#
# Poissons Ratio (x) = 0.10904 0.01110
# Poissons Ratio (y) = 0.32139 0.67457
# Poissons Ratio (z) = 0.00927 0.19105
#
# Static dielectric constant tensor:
#      x y z
#    x 2.635720 0.000000 0.000000 
#    y 0.000000 2.262260 0.000000 
#    z 0.000000 0.000000 2.254020 
# 
# From -- ./inp_files/20950.got.cif
#   From: 2010.05.17/outbox.cif.g08.bks.cpg/sg40_11_cif.got.tgz:20950.got - 2010.06.03 18:35:42.
