data_PCOD9364466
_publ_section_title
;
Structure prediction by ZEFSAII (Michael W. Deem and Ramdas Pophale) SiO2 
 PCOD9364466
Probable space group: A M A 2
;
_chemical_formula_sum "Si O2"
_cell_formula_units_Z 64
_cell_length_a 17.958573
_cell_length_b 20.912446
_cell_length_c 9.446464
_cell_angle_alpha 90.000000
_cell_angle_beta 90.000000
_cell_angle_gamma 90.000000
_cell_volume 3547.692181
_symmetry_space_group_name_H-M "A M A 2"
_symmetry_group_IT_number 40
_symmetry_cell_setting 'orthorhombic'
loop_
_space_group_symop_operation_xyz
x,y,z
-x,-y,z
1/2-x,y,z
1/2+x,-y,z
x,1/2+y,1/2+z
-x,1/2-y,1/2+z
1/2-x,1/2+y,1/2+z
1/2+x,1/2-y,1/2+z
loop_
_atom_site_type_symbol
_atom_site_label
_atom_site_fract_x
_atom_site_fract_y
_atom_site_fract_z
Si Si1 0.660375 0.500002 0.268860
Si Si2 0.088605 0.877761 0.272635
Si Si3 0.089808 0.120840 0.270655
Si Si4 0.160732 0.256929 0.278630
Si Si5 0.339757 0.379565 0.464428
Si Si6 0.838903 0.234896 0.448393
Si Si7 0.910337 0.499703 0.960598
Si Si8 0.839509 0.881722 0.964282
O O1 0.750000 0.500910 0.254277
O O2 0.639246 0.560196 0.366743
O O3 0.639264 0.434952 0.350382
O O4 0.624595 0.503783 0.115185
O O5 0.118094 0.814591 0.350966
O O6 0.111340 0.939312 0.365659
O O7 0.999349 0.876751 0.263811
O O8 0.122584 0.882658 0.116656
O O9 0.121423 0.190142 0.312677
O O10 0.111921 0.065184 0.379480
O O11 0.122156 0.106126 0.114991
O O12 0.250000 0.247436 0.285511
O O13 0.140134 0.314334 0.382657
O O14 0.143845 0.274821 0.115150
O O15 0.250000 0.380581 0.481057
O O16 0.750000 0.226036 0.429616
O O17 0.856979 0.309178 0.417734
O O18 0.000000 0.500000 0.972521
O O19 0.750000 0.884625 0.985206
#
# Coordination Sequence:
#
# PCOD9364466 Si02
#       8
#     8   8   8   8   8   8   8   8
#     4  10  21  37  59  83 104 136 183 224 262 316
#     4  11  22  35  54  80 109 143 181 217 259 317
#     4  10  21  37  56  79 108 143 180 216 262 320
#     4   9  19  36  56  78 107 141 175 218 271 316
#     4  10  21  36  55  81 110 139 176 222 267 312
#     4   9  18  35  56  77 107 142 173 215 268 315
#     4  10  23  39  53  76 111 144 175 219 271 315
#     4   9  19  37  59  82 108 138 175 221 270 315
#
# _framework density 18.039897
#
# number of rings (size 3 to 8) (size 9 to 14) (size 15 to 20)
#    0.000    2.250    0.000    3.000    0.000    7.000 
#    0.000    5.000    0.000    0.000    0.000    0.000 
#    0.000    0.000    0.000    0.000    0.000    0.000 
#
# Total GULP energy -178693.183332 kJ/mol
# GULP energy per Si atom -5584.161979 kJ/mol
# Density = 1.799884 g / cm^3
# Si number density = 18.039897 Si / 1000 Ang^3
#
#
#
# Elastic Constant Matrix: (Units=GPa)
#
#
# Indices 1 2 3 4 5 6 
#
# 1 28.3995 55.5978 56.3722 0.0000 0.0000 0.0000
# 2 55.5978 161.8044 135.9410 0.0000 0.0000 0.0000
# 3 56.3722 135.9410 172.7202 0.0000 0.0000 0.0000
# 4 0.0000 0.0000 0.0000 38.4058 0.0000 0.0000
# 5 0.0000 0.0000 0.0000 0.0000 35.4924 0.0000
# 6 0.0000 0.0000 0.0000 0.0000 0.0000 26.9201
#
#
#
# Elastic Compliance Matrix: (Units=1/GPa)
#
#
# Indices 1 2 3 4 5 6 
#
# 1 0.129868 -0.026607 -0.021445 0.000000 0.000000 0.000000
# 2 -0.026607 0.023696 -0.009966 0.000000 0.000000 0.000000
# 3 -0.021445 -0.009966 0.020633 0.000000 0.000000 0.000000
# 4 0.000000 0.000000 0.000000 0.026038 0.000000 0.000000
# 5 0.000000 0.000000 0.000000 0.000000 0.028175 0.000000
# 6 0.000000 0.000000 0.000000 0.000000 0.000000 0.037147
#
#
# Mechanical properties :
#
#
# Convention : Reuss Voigt Hill
#
# Bulk Modulus (GPa) = 17.19372 95.41623 56.30498
# Shear Modulus (GPa) = 12.46947 27.83119 20.15033
#
# Velocity S-wave (km/s) = 2.63195 3.93206 3.34576
# Velocity P-wave (km/s) = 4.33450 8.58029 6.79740
#
# Compressibility (1/GPa) = 0.05816076
#
# Stress axis : x y z
#
# Youngs Moduli (GPa) = 7.70011 42.20150 48.46692
#
# Poissons Ratio (x) = 1.12287 1.03936
# Poissons Ratio (y) = 0.20488 0.48302
# Poissons Ratio (z) = 0.16513 0.42058
#
# Static dielectric constant tensor:
#      x y z
#    x 1.602530 0.000000 0.000000 
#    y 0.000000 1.613320 0.000000 
#    z 0.000000 0.000000 1.579200 
# 
# From -- ./inp_files/7779.got.cif
#   From: 2010.05.17/outbox.cif.g08.bks.cpg/sg40_4_cif.got.tgz:7779.got - 2010.06.03 18:35:42.
