data_PCOD9364200
_publ_section_title
;
Structure prediction by ZEFSAII (Michael W. Deem and Ramdas Pophale) SiO2 
 PCOD9364200
Probable space group: A M A 2
;
_chemical_formula_sum "Si O2"
_cell_formula_units_Z 56
_cell_length_a 19.797847
_cell_length_b 15.730928
_cell_length_c 9.604527
_cell_angle_alpha 90.000000
_cell_angle_beta 90.000000
_cell_angle_gamma 90.000000
_cell_volume 2991.219537
_symmetry_space_group_name_H-M "A M A 2"
_symmetry_group_IT_number 40
_symmetry_cell_setting 'orthorhombic'
loop_
_space_group_symop_operation_xyz
x,y,z
-x,-y,z
1/2-x,y,z
1/2+x,-y,z
x,1/2+y,1/2+z
-x,1/2-y,1/2+z
1/2-x,1/2+y,1/2+z
1/2+x,1/2-y,1/2+z
loop_
_atom_site_type_symbol
_atom_site_label
_atom_site_fract_x
_atom_site_fract_y
_atom_site_fract_z
Si Si1 0.826062 0.660392 0.554120
Si Si2 0.825698 0.016711 0.839005
Si Si3 0.497834 0.095448 0.479813
Si Si4 0.940466 0.733717 0.363889
Si Si5 0.433941 0.124244 0.780338
Si Si6 0.823494 0.733472 0.836517
Si Si7 0.633677 0.156871 0.616152
O O1 0.750000 0.693856 0.518789
O O2 0.829865 0.569384 0.481736
O O3 0.886456 0.714662 0.485706
O O4 0.831164 0.660147 0.720263
O O5 0.750000 0.978468 0.828850
O O6 0.832113 0.086990 0.715483
O O7 0.890102 0.955278 0.833203
O O8 0.474261 0.174467 0.385179
O O9 0.452901 0.101865 0.621007
O O10 0.572606 0.113388 0.534240
O O11 0.500000 0.000000 0.420582
O O12 0.899233 0.725776 0.220299
O O13 0.997225 0.658640 0.353713
O O14 0.382655 0.201842 0.801422
O O15 0.750000 0.773118 0.811170
O O16 0.825367 0.700653 0.993499
#
# Coordination Sequence:
#
# PCOD9364200 Si02
#       7
#     8   8   8   8   8   8   8
#     4   9  20  37  61  88 120 159 198 244 301 360
#     4  10  20  38  61  90 122 159 207 248 293 363
#     4  11  20  37  60  86 119 150 198 256 301 362
#     4  10  21  37  63  85 122 156 202 253 298 365
#     4  11  21  35  63  90 119 157 204 247 302 362
#     4  11  21  37  60  86 120 160 199 247 302 360
#     4  10  21  36  59  88 119 157 199 245 303 359
#
# _framework density 18.721461000000001
#
# number of rings (size 3 to 8) (size 9 to 14) (size 15 to 20)
#    0.000    1.714    4.286    0.857    0.000    0.571 
#    0.000    1.429    0.000    0.000    0.000    0.000 
#    0.000    0.000    0.000    0.000    0.000    0.000 
#
# Total GULP energy -155958.813876 kJ/mol
# GULP energy per Si atom -5569.957638 kJ/mol
# Density = 1.867885 g / cm^3
# Si number density = 18.721461 Si / 1000 Ang^3
#
#
#
# Elastic Constant Matrix: (Units=GPa)
#
#
# Indices 1 2 3 4 5 6 
#
# 1 103.2868 33.1452 33.8489 0.0000 0.0000 0.0000
# 2 33.1452 96.5477 36.7490 0.0000 0.0000 0.0000
# 3 33.8489 36.7490 72.2565 0.0000 0.0000 0.0000
# 4 0.0000 0.0000 0.0000 16.6695 0.0000 0.0000
# 5 0.0000 0.0000 0.0000 0.0000 22.9240 0.0000
# 6 0.0000 0.0000 0.0000 0.0000 0.0000 21.8927
#
#
#
# Elastic Compliance Matrix: (Units=1/GPa)
#
#
# Indices 1 2 3 4 5 6 
#
# 1 0.011881 -0.002431 -0.004329 0.000000 0.000000 0.000000
# 2 -0.002431 0.013341 -0.005647 0.000000 0.000000 0.000000
# 3 -0.004329 -0.005647 0.018739 0.000000 0.000000 0.000000
# 4 0.000000 0.000000 0.000000 0.059990 0.000000 0.000000
# 5 0.000000 0.000000 0.000000 0.000000 0.043622 0.000000
# 6 0.000000 0.000000 0.000000 0.000000 0.000000 0.045677
#
#
# Mechanical properties :
#
#
# Convention : Reuss Voigt Hill
#
# Bulk Modulus (GPa) = 52.22438 53.28637 52.75537
# Shear Modulus (GPa) = 22.27699 23.52043 22.89871
#
# Velocity S-wave (km/s) = 3.45326 3.54833 3.50112
# Velocity P-wave (km/s) = 6.62239 6.73142 6.67713
#
# Compressibility (1/GPa) = 0.01914815
#
# Stress axis : x y z
#
# Youngs Moduli (GPa) = 84.17081 74.95498 53.36339
#
# Poissons Ratio (x) = 0.18220 0.23102
# Poissons Ratio (y) = 0.20460 0.30132
# Poissons Ratio (z) = 0.36440 0.42324
#
# Static dielectric constant tensor:
#      x y z
#    x 1.678750 0.000000 0.000000 
#    y 0.000000 1.661620 0.000000 
#    z 0.000000 0.000000 1.651790 
# 
# From -- ./inp_files/8296.got.cif
#   From: 2010.05.17/outbox.cif.g08.bks.cpg/sg40_5_cif.got.tgz:8296.got - 2010.06.03 18:35:42.
