data_PCOD9364375
_publ_section_title
;
Structure prediction by ZEFSAII (Michael W. Deem and Ramdas Pophale) SiO2 
 PCOD9364375
Probable space group: A M A 2
;
_chemical_formula_sum "Si O2"
_cell_formula_units_Z 48
_cell_length_a 22.292796
_cell_length_b 11.662995
_cell_length_c 7.513231
_cell_angle_alpha 90.000000
_cell_angle_beta 90.000000
_cell_angle_gamma 90.000000
_cell_volume 1953.445832
_symmetry_space_group_name_H-M "A M A 2"
_symmetry_group_IT_number 40
_symmetry_cell_setting 'orthorhombic'
loop_
_space_group_symop_operation_xyz
x,y,z
-x,-y,z
1/2-x,y,z
1/2+x,-y,z
x,1/2+y,1/2+z
-x,1/2-y,1/2+z
1/2-x,1/2+y,1/2+z
1/2+x,1/2-y,1/2+z
loop_
_atom_site_type_symbol
_atom_site_label
_atom_site_fract_x
_atom_site_fract_y
_atom_site_fract_z
Si Si1 0.593559 0.688130 0.950530
Si Si2 0.907062 0.545194 0.417859
Si Si3 0.315796 0.743310 0.940804
Si Si4 0.817361 0.363175 0.550224
Si Si5 0.976578 0.741606 0.323058
Si Si6 0.594753 0.431809 0.040717
O O1 0.656390 0.752994 0.946764
O O2 0.546698 0.732795 0.804982
O O3 0.602800 0.552573 0.939623
O O4 0.559005 0.719730 0.138055
O O5 0.856667 0.645876 0.408784
O O6 0.871819 0.454114 0.537888
O O7 0.965331 0.625938 0.440265
O O8 0.920993 0.476817 0.236357
O O9 0.250000 0.776259 0.002687
O O10 0.312452 0.679405 0.751737
O O11 0.346912 0.647261 0.060760
O O12 0.750000 0.399466 0.492187
O O13 0.950130 0.851896 0.427726
#
# Coordination Sequence:
#
# PCOD9364375 Si02
#       6
#     8   8   8   8   8   8
#     4  11  23  43  66  97 132 167 214 268 328 385
#     4  10  22  42  64  92 130 167 215 263 325 378
#     4  10  21  41  64  90 126 169 218 265 313 375
#     4  11  23  42  65  92 130 172 215 264 320 382
#     4  10  23  42  65  97 126 170 211 269 328 386
#     4  10  20  42  65  90 127 169 209 263 330 376
#
# _framework density 24.571964999999999
#
# number of rings (size 3 to 8) (size 9 to 14) (size 15 to 20)
#    0.000    1.667    5.000    1.000    2.333    4.000 
#    6.000    0.000    0.000    0.000    0.000    0.000 
#    0.000    0.000    0.000    0.000    0.000    0.000 
#
# Total GULP energy -134056.412525 kJ/mol
# GULP energy per Si atom -5585.683855 kJ/mol
# Density = 2.451604 g / cm^3
# Si number density = 24.571965 Si / 1000 Ang^3
#
#
#
# Elastic Constant Matrix: (Units=GPa)
#
#
# Indices 1 2 3 4 5 6 
#
# 1 68.5665 10.9379 18.7825 0.0000 0.0000 0.0000
# 2 10.9379 164.6308 48.5057 0.0000 0.0000 0.0000
# 3 18.7825 48.5057 52.3917 0.0000 0.0000 0.0000
# 4 0.0000 0.0000 0.0000 42.0963 0.0000 0.0000
# 5 0.0000 0.0000 0.0000 0.0000 22.4915 0.0000
# 6 0.0000 0.0000 0.0000 0.0000 0.0000 21.9218
#
#
#
# Elastic Compliance Matrix: (Units=1/GPa)
#
#
# Indices 1 2 3 4 5 6 
#
# 1 0.016264 0.000876 -0.006642 0.000000 0.000000 0.000000
# 2 0.000876 0.008400 -0.008091 0.000000 0.000000 0.000000
# 3 -0.006642 -0.008091 0.028959 0.000000 0.000000 0.000000
# 4 0.000000 0.000000 0.000000 0.023755 0.000000 0.000000
# 5 0.000000 0.000000 0.000000 0.000000 0.044461 0.000000
# 6 0.000000 0.000000 0.000000 0.000000 0.000000 0.045617
#
#
# Mechanical properties :
#
#
# Convention : Reuss Voigt Hill
#
# Bulk Modulus (GPa) = 38.59576 49.11569 43.85573
# Shear Modulus (GPa) = 24.53314 31.12612 27.82963
#
# Velocity S-wave (km/s) = 3.16321 3.56298 3.36903
# Velocity P-wave (km/s) = 5.39282 6.07934 5.74634
#
# Compressibility (1/GPa) = 0.02590958
#
# Stress axis : x y z
#
# Youngs Moduli (GPa) = 61.48527 119.04968 34.53146
#
# Poissons Ratio (x) = -0.10434 0.22936
# Poissons Ratio (y) = -0.05389 0.27939
# Poissons Ratio (z) = 0.40839 0.96323
#
# Static dielectric constant tensor:
#      x y z
#    x 2.074730 0.000000 0.000000 
#    y 0.000000 1.940730 0.000000 
#    z 0.000000 0.000000 2.117340 
# 
# From -- ./inp_files/8760.got.cif
#   From: 2010.05.17/outbox.cif.g08.bks.cpg/sg40_5_cif.got.tgz:8760.got - 2010.06.03 18:35:42.
