data_PCOD9364753
_publ_section_title
;
Structure prediction by ZEFSAII (Michael W. Deem and Ramdas Pophale) SiO2 
 PCOD9364753
Probable space group: A M A 2
;
_chemical_formula_sum "Si O2"
_cell_formula_units_Z 24
_cell_length_a 16.751477
_cell_length_b 7.497246
_cell_length_c 5.954888
_cell_angle_alpha 90.000000
_cell_angle_beta 90.000000
_cell_angle_gamma 90.000000
_cell_volume 747.874050
_symmetry_space_group_name_H-M "A M A 2"
_symmetry_group_IT_number 40
_symmetry_cell_setting 'orthorhombic'
loop_
_space_group_symop_operation_xyz
x,y,z
-x,-y,z
1/2-x,y,z
1/2+x,-y,z
x,1/2+y,1/2+z
-x,1/2-y,1/2+z
1/2-x,1/2+y,1/2+z
1/2+x,1/2-y,1/2+z
loop_
_atom_site_type_symbol
_atom_site_label
_atom_site_fract_x
_atom_site_fract_y
_atom_site_fract_z
Si Si1 0.250000 0.000613 0.414351
Si Si2 0.250000 0.105784 0.850570
Si Si3 0.918095 0.108649 0.315363
Si Si4 0.583749 0.611828 0.327257
O O1 0.250000 0.788474 0.487383
O O2 0.163800 0.005680 0.301693
O O3 0.250000 0.161779 0.587794
O O4 0.332969 0.998040 0.845401
O O5 0.915080 0.186672 0.570335
O O6 0.918607 0.208667 0.073072
O O7 0.000000 0.000000 0.312262
O O8 0.500000 0.500000 0.330847
#
# Coordination Sequence:
#
# PCOD9364753 Si02
#       4
#     4   4   8   8
#     4  10  21  40  64  94 132 178 230 290 357 432
#     4  10  21  40  64  94 132 178 230 290 357 432
#     4   9  18  36  59  87 123 163 215 275 339 415
#     4   9  18  36  59  87 123 163 215 275 339 415
#
# _framework density 32.090964999999997
#
# number of rings (size 3 to 8) (size 9 to 14) (size 15 to 20)
#    0.000    2.667    0.000    1.000    0.000    0.000 
#    0.000   53.333    0.000    0.000    0.000    0.000 
#    0.000    0.000    0.000    0.000    0.000    0.000 
#
# Total GULP energy -66891.935529 kJ/mol
# GULP energy per Si atom -5574.327961 kJ/mol
# Density = 3.201793 g / cm^3
# Si number density = 32.090965 Si / 1000 Ang^3
#
#
#
# Elastic Constant Matrix: (Units=GPa)
#
#
# Indices 1 2 3 4 5 6 
#
# 1 376.1717 84.2524 22.6054 0.0000 0.0000 0.0000
# 2 84.2524 89.0133 63.7546 0.0000 0.0000 0.0000
# 3 22.6054 63.7546 386.1847 0.0000 0.0000 0.0000
# 4 0.0000 0.0000 0.0000 42.4828 0.0000 0.0000
# 5 0.0000 0.0000 0.0000 0.0000 -6.8489 0.0000
# 6 0.0000 0.0000 0.0000 0.0000 0.0000 101.8831
#
#
#
# Elastic Compliance Matrix: (Units=1/GPa)
#
#
# Indices 1 2 3 4 5 6 
#
# 1 0.003422 -0.003510 0.000379 0.000000 0.000000 0.000000
# 2 -0.003510 0.016342 -0.002492 0.000000 0.000000 0.000000
# 3 0.000379 -0.002492 0.002979 0.000000 0.000000 0.000000
# 4 0.000000 0.000000 0.000000 0.023539 0.000000 0.000000
# 5 0.000000 0.000000 0.000000 0.000000 -0.146009 0.000000
# 6 0.000000 0.000000 0.000000 0.000000 0.000000 0.009815
#
#
# Mechanical properties :
#
#
# Convention : Reuss Voigt Hill
#
# Bulk Modulus (GPa) = 86.99113 132.51048 109.75080
# Shear Modulus (GPa) = -66.81488 72.88723 3.03617
#
# Velocity S-wave (km/s) = -4.56790 4.77095 0.97374
# Velocity P-wave (km/s) = 0.80893 8.46942 5.96141
#
# Compressibility (1/GPa) = 0.01149543
#
# Stress axis : x y z
#
# Youngs Moduli (GPa) = 292.24304 61.19173 335.71667
#
# Poissons Ratio (x) = 0.21481 -0.12731
# Poissons Ratio (y) = 1.02589 0.83674
# Poissons Ratio (z) = -0.11083 0.15251
#
# Static dielectric constant tensor:
#      x y z
#    x 2.379040 0.000000 0.000000 
#    y 0.000000 2.510800 0.000000 
#    z 0.000000 0.000000 2.460620 
# 
# From -- ./inp_files/955.got.cif
#   From: 2010.05.17/outbox.cif.g08.bks.cpg/sg40_1_cif.got.tgz:955.got - 2010.06.03 18:35:42.
