data_PCOD9364734
_publ_section_title
;
Structure prediction by ZEFSAII (Michael W. Deem and Ramdas Pophale) SiO2 
 PCOD9364734
Probable space group: A M A 2
;
_chemical_formula_sum "Si O2"
_cell_formula_units_Z 44
_cell_length_a 7.475918
_cell_length_b 17.796435
_cell_length_c 14.254186
_cell_angle_alpha 90.000000
_cell_angle_beta 90.000000
_cell_angle_gamma 90.000000
_cell_volume 1896.443740
_symmetry_space_group_name_H-M "A M A 2"
_symmetry_group_IT_number 40
_symmetry_cell_setting 'orthorhombic'
loop_
_space_group_symop_operation_xyz
x,y,z
-x,-y,z
1/2-x,y,z
1/2+x,-y,z
x,1/2+y,1/2+z
-x,1/2-y,1/2+z
1/2-x,1/2+y,1/2+z
1/2+x,1/2-y,1/2+z
loop_
_atom_site_type_symbol
_atom_site_label
_atom_site_fract_x
_atom_site_fract_y
_atom_site_fract_z
Si Si1 0.037855 0.578536 0.260520
Si Si2 0.500000 0.500000 0.902971
Si Si3 0.455966 0.387617 0.057278
Si Si4 0.038997 0.139674 0.291269
Si Si5 0.965930 0.791372 0.894619
Si Si6 0.967268 0.281909 0.599341
O O1 0.250000 0.586888 0.247930
O O2 0.969402 0.649767 0.317819
O O3 0.000000 0.500000 0.311111
O O4 0.950205 0.575247 0.159008
O O5 0.556767 0.564942 0.828807
O O6 0.561293 0.438507 0.982684
O O7 0.250000 0.382483 0.021081
O O8 0.524941 0.304601 0.083943
O O9 0.250000 0.119743 0.282204
O O10 0.972525 0.175281 0.192730
O O11 0.024053 0.207951 0.365572
O O12 0.750000 0.790561 0.892669
O O13 0.017714 0.816569 0.999088
O O14 0.750000 0.279170 0.606929
#
# Coordination Sequence:
#
# PCOD9364734 Si02
#       6
#     8   4   8   8   8   8
#     4  11  23  37  59  89 122 156 200 257 309 368
#     4  12  24  36  58  98 130 158 202 264 316 360
#     4  11  21  36  61  88 120 157 196 245 309 369
#     4  11  23  39  63  92 122 161 210 257 307 373
#     4  10  21  40  63  86 117 161 207 254 313 371
#     4   9  19  39  62  83 115 161 200 244 308 372
#
# _framework density 23.201319999999999
#
# number of rings (size 3 to 8) (size 9 to 14) (size 15 to 20)
#    0.000    1.455    4.545    1.091    0.000    2.182 
#    1.636    0.909    0.000    0.000    0.000    0.000 
#    0.000    0.000    0.000    0.000    0.000    0.000 
#
# Total GULP energy -122599.256939 kJ/mol
# GULP energy per Si atom -5572.693497 kJ/mol
# Density = 2.314851 g / cm^3
# Si number density = 23.201320 Si / 1000 Ang^3
#
#
#
# Elastic Constant Matrix: (Units=GPa)
#
#
# Indices 1 2 3 4 5 6 
#
# 1 98.8794 12.5925 13.0109 0.0000 0.0000 0.0000
# 2 12.5925 178.2297 84.6927 0.0000 0.0000 0.0000
# 3 13.0109 84.6927 180.4459 0.0000 0.0000 0.0000
# 4 0.0000 0.0000 0.0000 60.1183 0.0000 0.0000
# 5 0.0000 0.0000 0.0000 0.0000 -1.3492 0.0000
# 6 0.0000 0.0000 0.0000 0.0000 0.0000 -4.7143
#
#
#
# Elastic Compliance Matrix: (Units=1/GPa)
#
#
# Indices 1 2 3 4 5 6 
#
# 1 0.010242 -0.000480 -0.000513 0.000000 0.000000 0.000000
# 2 -0.000480 0.007244 -0.003365 0.000000 0.000000 0.000000
# 3 -0.000513 -0.003365 0.007158 0.000000 0.000000 0.000000
# 4 0.000000 0.000000 0.000000 0.016634 0.000000 0.000000
# 5 0.000000 0.000000 0.000000 0.000000 -0.741203 0.000000
# 6 0.000000 0.000000 0.000000 0.000000 0.000000 -0.212121
#
#
# Mechanical properties :
#
#
# Convention : Reuss Voigt Hill
#
# Bulk Modulus (GPa) = 62.78475 75.34967 69.06721
# Shear Modulus (GPa) = -5.56780 33.96156 14.19688
#
# Velocity S-wave (km/s) = -1.55080 3.83008 2.47634
# Velocity P-wave (km/s) = 4.89009 7.21847 6.16520
#
# Compressibility (1/GPa) = 0.01592743
#
# Stress axis : x y z
#
# Youngs Moduli (GPa) = 97.63751 138.04948 139.69699
#
# Poissons Ratio (x) = 0.06622 0.07171
# Poissons Ratio (y) = 0.04684 0.47012
# Poissons Ratio (z) = 0.05012 0.46458
#
# Static dielectric constant tensor:
#      x y z
#    x 2.038380 0.000000 0.000000 
#    y 0.000000 1.874620 0.000000 
#    z 0.000000 0.000000 1.868260 
# 
# From -- ./inp_files/14947.got.cif
#   From: 2010.05.17/outbox.cif.g08.bks.cpg/sg40_8_cif.got.tgz:14947.got - 2010.06.03 18:35:42.
