data_PCOD9364395
_publ_section_title
;
Structure prediction by ZEFSAII (Michael W. Deem and Ramdas Pophale) SiO2 
 PCOD9364395
Probable space group: A M A 2
;
_chemical_formula_sum "Si O2"
_cell_formula_units_Z 40
_cell_length_a 10.125210
_cell_length_b 12.402791
_cell_length_c 15.390179
_cell_angle_alpha 90.000000
_cell_angle_beta 90.000000
_cell_angle_gamma 90.000000
_cell_volume 1932.711968
_symmetry_space_group_name_H-M "A M A 2"
_symmetry_group_IT_number 40
_symmetry_cell_setting 'orthorhombic'
loop_
_space_group_symop_operation_xyz
x,y,z
-x,-y,z
1/2-x,y,z
1/2+x,-y,z
x,1/2+y,1/2+z
-x,1/2-y,1/2+z
1/2-x,1/2+y,1/2+z
1/2+x,1/2-y,1/2+z
loop_
_atom_site_type_symbol
_atom_site_label
_atom_site_fract_x
_atom_site_fract_y
_atom_site_fract_z
Si Si1 0.750000 0.909294 0.832180
Si Si2 0.500000 0.000000 0.100485
Si Si3 0.962166 0.383541 0.182812
Si Si4 0.250000 0.689879 0.046494
Si Si5 0.750000 0.572281 0.489337
Si Si6 0.959194 0.826464 0.243315
Si Si7 0.250000 0.572526 0.873342
Si Si8 0.250000 0.327606 0.822665
O O1 0.874376 0.912327 0.767462
O O2 0.750000 0.787534 0.872857
O O3 0.750000 0.005537 0.900199
O O4 0.619337 0.040351 0.041878
O O5 0.444114 0.093246 0.162942
O O6 0.874600 0.322655 0.110441
O O7 0.069778 0.296786 0.215541
O O8 0.000000 0.500000 0.146202
O O9 0.250000 0.798772 0.990346
O O10 0.250000 0.598992 0.974089
O O11 0.115047 0.826658 0.267278
O O12 0.874571 0.874471 0.322505
O O13 0.250000 0.443505 0.866794
#
# Coordination Sequence:
#
# PCOD9364395 Si02
#       8
#     4   4   8   4   4   8   4   4
#     4   9  24  41  68  97 129 182 222 279 338 414
#     4  12  22  42  70  96 136 172 224 284 342 402
#     4  10  23  45  68  91 139 183 225 278 357 409
#     4  11  26  45  64  99 138 181 222 295 348 398
#     4  12  26  42  67 102 140 173 230 286 339 399
#     4  11  22  41  69  97 127 178 226 277 344 407
#     4  12  24  37  71 100 131 172 237 281 324 425
#     4  10  20  43  66  90 134 176 217 273 343 400
#
# _framework density 20.696307000000001
#
# number of rings (size 3 to 8) (size 9 to 14) (size 15 to 20)
#    0.000    1.200    4.000    1.800    4.200    4.000 
#    3.600    0.000    0.000    0.000    0.000    0.000 
#    0.000    0.000    0.000    0.000    0.000    0.000 
#
# Total GULP energy -111659.579187 kJ/mol
# GULP energy per Si atom -5582.978959 kJ/mol
# Density = 2.064920 g / cm^3
# Si number density = 20.696307 Si / 1000 Ang^3
#
#
#
# Elastic Constant Matrix: (Units=GPa)
#
#
# Indices 1 2 3 4 5 6 
#
# 1 54.9211 -0.2883 2.5957 0.0000 0.0000 0.0000
# 2 -0.2883 152.5285 37.3909 0.0000 0.0000 0.0000
# 3 2.5957 37.3909 101.1579 0.0000 0.0000 0.0000
# 4 0.0000 0.0000 0.0000 41.1950 0.0000 0.0000
# 5 0.0000 0.0000 0.0000 0.0000 0.7115 0.0000
# 6 0.0000 0.0000 0.0000 0.0000 0.0000 21.4060
#
#
#
# Elastic Compliance Matrix: (Units=1/GPa)
#
#
# Indices 1 2 3 4 5 6 
#
# 1 0.018234 0.000164 -0.000529 0.000000 0.000000 0.000000
# 2 0.000164 0.007211 -0.002670 0.000000 0.000000 0.000000
# 3 -0.000529 -0.002670 0.010886 0.000000 0.000000 0.000000
# 4 0.000000 0.000000 0.000000 0.024275 0.000000 0.000000
# 5 0.000000 0.000000 0.000000 0.000000 1.405460 0.000000
# 6 0.000000 0.000000 0.000000 0.000000 0.000000 0.046716
#
#
# Mechanical properties :
#
#
# Convention : Reuss Voigt Hill
#
# Bulk Modulus (GPa) = 33.04430 43.11158 38.07794
# Shear Modulus (GPa) = 3.27025 30.58978 16.93001
#
# Velocity S-wave (km/s) = 1.25839 3.84869 2.86321
# Velocity P-wave (km/s) = 4.25586 6.37383 5.41932
#
# Compressibility (1/GPa) = 0.03026241
#
# Stress axis : x y z
#
# Youngs Moduli (GPa) = 54.84327 138.67933 91.86242
#
# Poissons Ratio (x) = -0.02275 0.04855
# Poissons Ratio (y) = -0.00900 0.24523
# Poissons Ratio (z) = 0.02898 0.37021
#
# Static dielectric constant tensor:
#      x y z
#    x 1.774270 0.000000 0.000000 
#    y 0.000000 1.808650 0.000000 
#    z 0.000000 0.000000 1.687340 
# 
# From -- ./inp_files/16241.got.cif
#   From: 2010.05.17/outbox.cif.g08.bks.cpg/sg40_9_cif.got.tgz:16241.got - 2010.06.03 18:35:42.
