data_PCOD9364265
_publ_section_title
;
Structure prediction by ZEFSAII (Michael W. Deem and Ramdas Pophale) SiO2 
 PCOD9364265
Probable space group: A M A 2
;
_chemical_formula_sum "Si O2"
_cell_formula_units_Z 56
_cell_length_a 14.297946
_cell_length_b 19.908648
_cell_length_c 9.678118
_cell_angle_alpha 90.000000
_cell_angle_beta 90.000000
_cell_angle_gamma 90.000000
_cell_volume 2754.903136
_symmetry_space_group_name_H-M "A M A 2"
_symmetry_group_IT_number 40
_symmetry_cell_setting 'orthorhombic'
loop_
_space_group_symop_operation_xyz
x,y,z
-x,-y,z
1/2-x,y,z
1/2+x,-y,z
x,1/2+y,1/2+z
-x,1/2-y,1/2+z
1/2-x,1/2+y,1/2+z
1/2+x,1/2-y,1/2+z
loop_
_atom_site_type_symbol
_atom_site_label
_atom_site_fract_x
_atom_site_fract_y
_atom_site_fract_z
Si Si1 0.858776 0.167273 0.295410
Si Si2 0.858360 0.658670 0.464688
Si Si3 0.454900 0.193963 0.867757
Si Si4 0.571739 0.436798 0.182965
Si Si5 0.353743 0.989559 0.923698
Si Si6 0.973229 0.923254 0.373453
Si Si7 0.636664 0.389791 0.606820
O O1 0.750000 0.160668 0.337145
O O2 0.898129 0.241630 0.319456
O O3 0.928969 0.117316 0.374445
O O4 0.863771 0.154771 0.130500
O O5 0.750000 0.672324 0.425553
O O6 0.891969 0.585123 0.411666
O O7 0.936403 0.708215 0.403747
O O8 0.449846 0.134660 0.753994
O O9 0.406268 0.166777 0.007839
O O10 0.500000 0.500000 0.193841
O O11 0.650077 0.469377 0.281259
O O12 0.579091 0.424076 0.020613
O O13 0.250000 0.976049 0.977115
O O14 0.396256 0.040465 0.033690
O O15 0.907911 0.890717 0.257194
O O16 0.000000 0.000000 0.339357
O O17 0.750000 0.386779 0.607083
#
# Coordination Sequence:
#
# PCOD9364265 Si02
#       7
#     8   8   8   8   8   8   8
#     4  11  25  44  67  97 133 177 227 281 338 402
#     4  10  20  38  68  98 124 169 230 278 327 391
#     4  11  22  40  69  92 133 178 223 276 332 396
#     4  10  21  37  60  97 134 168 214 272 337 392
#     4   9  18  35  63  95 126 167 218 273 323 389
#     4  11  24  40  64  95 132 177 217 276 343 403
#     4  10  21  37  62  95 128 169 222 268 323 398
#
# _framework density 20.327394999999999
#
# number of rings (size 3 to 8) (size 9 to 14) (size 15 to 20)
#    0.000    1.714    2.857    1.286    2.000    2.857 
#    0.000    3.571    0.000    0.000    0.000    0.000 
#    0.000    0.000    0.000    0.000    0.000    0.000 
#
# Total GULP energy -156098.976846 kJ/mol
# GULP energy per Si atom -5574.963459 kJ/mol
# Density = 2.028113 g / cm^3
# Si number density = 20.327395 Si / 1000 Ang^3
#
#
#
# Elastic Constant Matrix: (Units=GPa)
#
#
# Indices 1 2 3 4 5 6 
#
# 1 103.6507 29.5903 38.6035 0.0000 0.0000 0.0000
# 2 29.5903 93.5981 36.6671 0.0000 0.0000 0.0000
# 3 38.6035 36.6671 117.4980 0.0000 0.0000 0.0000
# 4 0.0000 0.0000 0.0000 10.1793 0.0000 0.0000
# 5 0.0000 0.0000 0.0000 0.0000 5.1906 0.0000
# 6 0.0000 0.0000 0.0000 0.0000 0.0000 26.3751
#
#
#
# Elastic Compliance Matrix: (Units=1/GPa)
#
#
# Indices 1 2 3 4 5 6 
#
# 1 0.011465 -0.002448 -0.003003 0.000000 0.000000 0.000000
# 2 -0.002448 0.012695 -0.003157 0.000000 0.000000 0.000000
# 3 -0.003003 -0.003157 0.010483 0.000000 0.000000 0.000000
# 4 0.000000 0.000000 0.000000 0.098238 0.000000 0.000000
# 5 0.000000 0.000000 0.000000 0.000000 0.192656 0.000000
# 6 0.000000 0.000000 0.000000 0.000000 0.000000 0.037915
#
#
# Mechanical properties :
#
#
# Convention : Reuss Voigt Hill
#
# Bulk Modulus (GPa) = 57.38576 58.27426 57.83001
# Shear Modulus (GPa) = 12.93741 22.34141 17.63941
#
# Velocity S-wave (km/s) = 2.52554 3.31883 2.94898
# Velocity P-wave (km/s) = 6.06601 6.58910 6.33296
#
# Compressibility (1/GPa) = 0.01742592
#
# Stress axis : x y z
#
# Youngs Moduli (GPa) = 87.22149 78.77230 95.39609
#
# Poissons Ratio (x) = 0.19285 0.28645
# Poissons Ratio (y) = 0.21354 0.30119
# Poissons Ratio (z) = 0.26191 0.24870
#
# Static dielectric constant tensor:
#      x y z
#    x 1.759270 0.000000 0.000000 
#    y 0.000000 1.745710 0.000000 
#    z 0.000000 0.000000 1.715450 
# 
# From -- ./inp_files/6694.got.cif
#   From: 2010.05.17/outbox.cif.g08.bks.cpg/sg40_4_cif.got.tgz:6694.got - 2010.06.03 18:35:42.
