data_PCOD9364167
_publ_section_title
;
Structure prediction by ZEFSAII (Michael W. Deem and Ramdas Pophale) SiO2 
 PCOD9364167
Probable space group: A M A 2
;
_chemical_formula_sum "Si O2"
_cell_formula_units_Z 52
_cell_length_a 15.479877
_cell_length_b 9.708466
_cell_length_c 19.779847
_cell_angle_alpha 90.000000
_cell_angle_beta 90.000000
_cell_angle_gamma 90.000000
_cell_volume 2972.631308
_symmetry_space_group_name_H-M "A M A 2"
_symmetry_group_IT_number 40
_symmetry_cell_setting 'orthorhombic'
loop_
_space_group_symop_operation_xyz
x,y,z
-x,-y,z
1/2-x,y,z
1/2+x,-y,z
x,1/2+y,1/2+z
-x,1/2-y,1/2+z
1/2-x,1/2+y,1/2+z
1/2+x,1/2-y,1/2+z
loop_
_atom_site_type_symbol
_atom_site_label
_atom_site_fract_x
_atom_site_fract_y
_atom_site_fract_z
Si Si1 0.401075 0.483661 0.038630
Si Si2 0.404828 0.507915 0.267928
Si Si3 0.750000 0.951105 0.010129
Si Si4 0.750000 0.652511 0.960890
Si Si5 0.400290 0.995833 0.111498
Si Si6 0.353207 0.789276 0.663038
Si Si7 0.750000 0.394922 0.361975
Si Si8 0.147817 0.195920 0.647890
O O1 0.500000 0.500000 0.016449
O O2 0.395275 0.370971 0.099574
O O3 0.370465 0.623682 0.075785
O O4 0.334709 0.434796 0.980689
O O5 0.500000 0.500000 0.298282
O O6 0.380311 0.363325 0.232510
O O7 0.333485 0.564665 0.318952
O O8 0.404215 0.612284 0.204270
O O9 0.750000 0.784515 0.011342
O O10 0.750000 0.982808 0.931174
O O11 0.665338 0.000287 0.048656
O O12 0.750000 0.735620 0.889482
O O13 0.378945 0.130430 0.155940
O O14 0.500000 0.000000 0.090984
O O15 0.380107 0.853349 0.148513
O O16 0.250000 0.805760 0.657945
O O17 0.250000 0.181593 0.661987
#
# Coordination Sequence:
#
# PCOD9364167 Si02
#       8
#     8   8   4   4   8   8   4   8
#     4  11  18  32  56  85 113 147 185 231 281 342
#     4  11  21  37  60  88 107 144 197 241 276 338
#     4  10  22  37  54  79 110 158 189 225 277 346
#     4  10  20  38  55  80 111 153 191 231 280 331
#     4  12  21  34  55  88 122 151 177 232 297 349
#     4  11  17  35  57  83 122 149 180 228 297 346
#     4  10  22  39  61  77 107 159 198 236 273 323
#     4  11  20  32  56  88 120 143 181 234 296 347
#
# _framework density 17.492920000000002
#
# number of rings (size 3 to 8) (size 9 to 14) (size 15 to 20)
#    0.462    0.615    6.154    4.615    0.000    0.615 
#    0.000    0.000    0.000    6.462    0.000    0.000 
#    0.000    0.000    0.000    0.000    0.000    0.000 
#
# Total GULP energy -145004.347365 kJ/mol
# GULP energy per Si atom -5577.090283 kJ/mol
# Density = 1.745311 g / cm^3
# Si number density = 17.492920 Si / 1000 Ang^3
#
#
#
# Elastic Constant Matrix: (Units=GPa)
#
#
# Indices 1 2 3 4 5 6 
#
# 1 164.3976 25.4433 41.3119 0.0000 0.0000 0.0000
# 2 25.4433 110.6452 31.1877 0.0000 0.0000 0.0000
# 3 41.3119 31.1877 75.9931 0.0000 0.0000 0.0000
# 4 0.0000 0.0000 0.0000 21.7385 0.0000 0.0000
# 5 0.0000 0.0000 0.0000 0.0000 6.1150 0.0000
# 6 0.0000 0.0000 0.0000 0.0000 0.0000 20.9793
#
#
#
# Elastic Compliance Matrix: (Units=1/GPa)
#
#
# Indices 1 2 3 4 5 6 
#
# 1 0.007082 -0.000614 -0.003598 0.000000 0.000000 0.000000
# 2 -0.000614 0.010273 -0.003882 0.000000 0.000000 0.000000
# 3 -0.003598 -0.003882 0.016708 0.000000 0.000000 0.000000
# 4 0.000000 0.000000 0.000000 0.046001 0.000000 0.000000
# 5 0.000000 0.000000 0.000000 0.000000 0.163531 0.000000
# 6 0.000000 0.000000 0.000000 0.000000 0.000000 0.047666
#
#
# Mechanical properties :
#
#
# Convention : Reuss Voigt Hill
#
# Bulk Modulus (GPa) = 55.94473 60.76909 58.35691
# Shear Modulus (GPa) = 15.95355 26.63943 21.29649
#
# Velocity S-wave (km/s) = 3.02321 3.90663 3.49296
# Velocity P-wave (km/s) = 6.65110 7.42722 7.04985
#
# Compressibility (1/GPa) = 0.01787478
#
# Stress axis : x y z
#
# Youngs Moduli (GPa) = 141.20286 97.33803 59.85068
#
# Poissons Ratio (x) = 0.05981 0.21533
# Poissons Ratio (y) = 0.08676 0.23235
# Poissons Ratio (z) = 0.50802 0.37789
#
# Static dielectric constant tensor:
#      x y z
#    x 1.617200 0.000000 0.000000 
#    y 0.000000 1.616500 0.000000 
#    z 0.000000 0.000000 1.585630 
# 
# From -- ./inp_files/24741.got.cif
#   From: 2010.05.17/outbox.cif.g08.bks.cpg/sg40_13_cif.got.tgz:24741.got - 2010.06.03 18:35:42.
