data_PCOD9364266
_publ_section_title
;
Structure prediction by ZEFSAII (Michael W. Deem and Ramdas Pophale) SiO2 
 PCOD9364266
Probable space group: A M A 2
;
_chemical_formula_sum "Si O2"
_cell_formula_units_Z 40
_cell_length_a 10.068466
_cell_length_b 7.465499
_cell_length_c 22.515358
_cell_angle_alpha 90.000000
_cell_angle_beta 90.000000
_cell_angle_gamma 90.000000
_cell_volume 1692.392166
_symmetry_space_group_name_H-M "A M A 2"
_symmetry_group_IT_number 40
_symmetry_cell_setting 'orthorhombic'
loop_
_space_group_symop_operation_xyz
x,y,z
-x,-y,z
1/2-x,y,z
1/2+x,-y,z
x,1/2+y,1/2+z
-x,1/2-y,1/2+z
1/2-x,1/2+y,1/2+z
1/2+x,1/2-y,1/2+z
loop_
_atom_site_type_symbol
_atom_site_label
_atom_site_fract_x
_atom_site_fract_y
_atom_site_fract_z
Si Si1 0.250000 0.343341 0.892810
Si Si2 0.750000 0.633452 0.277431
Si Si3 0.250000 0.430831 0.761585
Si Si4 0.500000 0.000000 0.701225
Si Si5 0.250000 0.277972 0.412898
Si Si6 0.500000 0.500000 0.692419
Si Si7 0.013263 0.783404 0.476188
Si Si8 0.103683 0.745408 0.607635
O O1 0.250000 0.324025 0.823091
O O2 0.250000 0.561087 0.901179
O O3 0.123534 0.263314 0.925740
O O4 0.623360 0.549433 0.243511
O O5 0.750000 0.622965 0.349273
O O6 0.750000 0.850067 0.266788
O O7 0.397581 0.393677 0.735448
O O8 0.500559 0.843487 0.651095
O O9 0.380037 0.306807 0.452492
O O10 0.390522 0.566271 0.645025
O O11 0.058125 0.721042 0.540835
O O12 0.000000 0.000000 0.483144
O O13 0.250000 0.834321 0.607686
#
# Coordination Sequence:
#
# PCOD9364266 Si02
#       8
#     4   4   4   4   4   4   8   8
#     4   9  20  34  64  96 126 169 214 272 331 372
#     4  11  24  45  64  98 140 170 225 283 322 401
#     4  11  24  41  63  98 139 166 228 275 319 406
#     4  12  22  42  72  96 136 182 210 282 340 384
#     4   9  22  38  59  98 131 163 219 278 324 385
#     4  12  24  44  64  94 138 180 204 274 338 386
#     4  10  20  38  69  97 126 170 220 274 327 386
#     4  12  24  44  67  99 140 168 224 282 326 405
#
# _framework density 23.635183999999999
#
# number of rings (size 3 to 8) (size 9 to 14) (size 15 to 20)
#    0.000    1.200    6.000    0.000    7.000    2.400 
#    0.000    2.000    0.000    0.000    0.000    0.000 
#    0.000    0.000    0.000    0.000    0.000    0.000 
#
# Total GULP energy -111506.377070 kJ/mol
# GULP energy per Si atom -5575.318853 kJ/mol
# Density = 2.358139 g / cm^3
# Si number density = 23.635184 Si / 1000 Ang^3
#
#
#
# Elastic Constant Matrix: (Units=GPa)
#
#
# Indices 1 2 3 4 5 6 
#
# 1 163.5287 34.9495 105.1228 0.0000 0.0000 0.0000
# 2 34.9495 38.7252 35.3363 0.0000 0.0000 0.0000
# 3 105.1228 35.3363 258.1683 0.0000 0.0000 0.0000
# 4 0.0000 0.0000 0.0000 13.1087 0.0000 0.0000
# 5 0.0000 0.0000 0.0000 0.0000 -114.1331 0.0000
# 6 0.0000 0.0000 0.0000 0.0000 0.0000 85.9559
#
#
#
# Elastic Compliance Matrix: (Units=1/GPa)
#
#
# Indices 1 2 3 4 5 6 
#
# 1 0.009238 -0.005605 -0.002994 0.000000 0.000000 0.000000
# 2 -0.005605 0.032909 -0.002222 0.000000 0.000000 0.000000
# 3 -0.002994 -0.002222 0.005397 0.000000 0.000000 0.000000
# 4 0.000000 0.000000 0.000000 0.076285 0.000000 0.000000
# 5 0.000000 0.000000 0.000000 0.000000 -0.008762 0.000000
# 6 0.000000 0.000000 0.000000 0.000000 0.000000 0.011634
#
#
# Mechanical properties :
#
#
# Convention : Reuss Voigt Hill
#
# Bulk Modulus (GPa) = 38.60849 90.13771 64.37310
# Shear Modulus (GPa) = 31.85164 15.98720 23.91942
#
# Velocity S-wave (km/s) = 3.67500 2.60362 3.18469
# Velocity P-wave (km/s) = 5.86329 6.87447 6.38891
#
# Compressibility (1/GPa) = 0.02590104
#
# Stress axis : x y z
#
# Youngs Moduli (GPa) = 108.24916 30.38674 185.29227
#
# Poissons Ratio (x) = 0.17031 0.55484
# Poissons Ratio (y) = 0.60673 0.41174
# Poissons Ratio (z) = 0.32414 0.06752
#
# Static dielectric constant tensor:
#      x y z
#    x 4.279600 0.000000 0.000000 
#    y 0.000000 2.897670 0.000000 
#    z 0.000000 0.000000 1.810850 
# 
# From -- ./inp_files/23887.got.cif
#   From: 2010.05.17/outbox.cif.g08.bks.cpg/sg40_12_cif.got.tgz:23887.got - 2010.06.03 18:35:42.
