data_PCOD9364031
_publ_section_title
;
Structure prediction by ZEFSAII (Michael W. Deem and Ramdas Pophale) SiO2 
 PCOD9364031
Probable space group: A M A 2
;
_chemical_formula_sum "Si O2"
_cell_formula_units_Z 48
_cell_length_a 8.734507
_cell_length_b 23.040518
_cell_length_c 11.621373
_cell_angle_alpha 90.000000
_cell_angle_beta 90.000000
_cell_angle_gamma 90.000000
_cell_volume 2338.773027
_symmetry_space_group_name_H-M "A M A 2"
_symmetry_group_IT_number 40
_symmetry_cell_setting 'orthorhombic'
loop_
_space_group_symop_operation_xyz
x,y,z
-x,-y,z
1/2-x,y,z
1/2+x,-y,z
x,1/2+y,1/2+z
-x,1/2-y,1/2+z
1/2-x,1/2+y,1/2+z
1/2+x,1/2-y,1/2+z
loop_
_atom_site_type_symbol
_atom_site_label
_atom_site_fract_x
_atom_site_fract_y
_atom_site_fract_z
Si Si1 0.434877 0.236809 0.157880
Si Si2 0.068351 0.936875 0.529470
Si Si3 0.568946 0.650439 0.467842
Si Si4 0.575428 0.440081 0.626988
Si Si5 0.575642 0.853395 0.343220
Si Si6 0.432367 0.141715 0.714434
O O1 0.250000 0.237117 0.154597
O O2 0.479150 0.205480 0.279714
O O3 0.502733 0.300703 0.152941
O O4 0.498167 0.199282 0.051787
O O5 0.250000 0.941584 0.534807
O O6 0.021519 0.886657 0.438550
O O7 0.000400 0.914241 0.650101
O O8 0.000000 0.000000 0.498355
O O9 0.750000 0.659297 0.456290
O O10 0.528893 0.590472 0.531916
O O11 0.490437 0.647779 0.344452
O O12 0.500000 0.500000 0.662170
O O13 0.750000 0.447354 0.585424
O O14 0.581421 0.397725 0.735998
O O15 0.750000 0.844501 0.386380
O O16 0.250000 0.140348 0.709399
#
# Coordination Sequence:
#
# PCOD9364031 Si02
#       6
#     8   8   8   8   8   8
#     4  10  22  42  67  96 129 165 213 265 322 383
#     4  12  26  44  66  94 131 173 222 269 325 390
#     4  11  23  41  63  91 125 162 208 259 317 379
#     4  10  20  36  60  91 125 163 208 258 312 371
#     4   9  20  39  64  94 129 166 210 263 317 375
#     4  12  26  44  66  92 127 169 214 264 324 386
#
# _framework density 20.523581
#
# number of rings (size 3 to 8) (size 9 to 14) (size 15 to 20)
#    0.000    1.333    0.000    7.000    2.333    6.000 
#    0.000    3.333    0.000    0.000    0.000    0.000 
#    0.000    0.000    0.000    0.000    0.000    0.000 
#
# Total GULP energy -134192.732914 kJ/mol
# GULP energy per Si atom -5591.363871 kJ/mol
# Density = 2.047687 g / cm^3
# Si number density = 20.523581 Si / 1000 Ang^3
#
#
#
# Elastic Constant Matrix: (Units=GPa)
#
#
# Indices 1 2 3 4 5 6 
#
# 1 141.6277 29.8513 37.0883 0.0000 0.0000 0.0000
# 2 29.8513 64.6398 8.9605 0.0000 0.0000 0.0000
# 3 37.0883 8.9605 81.9371 0.0000 0.0000 0.0000
# 4 0.0000 0.0000 0.0000 11.9967 0.0000 0.0000
# 5 0.0000 0.0000 0.0000 0.0000 17.1511 0.0000
# 6 0.0000 0.0000 0.0000 0.0000 0.0000-2558.2557
#
#
#
# Elastic Compliance Matrix: (Units=1/GPa)
#
#
# Indices 1 2 3 4 5 6 
#
# 1 0.008742 -0.003542 -0.003570 0.000000 0.000000 0.000000
# 2 -0.003542 0.017144 -0.000271 0.000000 0.000000 0.000000
# 3 -0.003570 -0.000271 0.013850 0.000000 0.000000 0.000000
# 4 0.000000 0.000000 0.000000 0.083356 0.000000 0.000000
# 5 0.000000 0.000000 0.000000 0.000000 0.058305 0.000000
# 6 0.000000 0.000000 0.000000 0.000000 0.000000 -0.000391
#
#
# Mechanical properties :
#
#
# Convention : Reuss Voigt Hill
#
# Bulk Modulus (GPa) = 40.04955 48.88942 44.46949
# Shear Modulus (GPa) = 24.49821 -491.66793 -233.58486
#
# Velocity S-wave (km/s) = 3.45869 -15.49460 -10.67989
# Velocity P-wave (km/s) = 5.95872 17.21154 11.41777
#
# Compressibility (1/GPa) = 0.02496907
#
# Stress axis : x y z
#
# Youngs Moduli (GPa) = 114.38746 58.32985 72.20234
#
# Poissons Ratio (x) = 0.20663 0.25774
# Poissons Ratio (y) = 0.40521 0.01959
# Poissons Ratio (z) = 0.40833 0.01583
#
# Static dielectric constant tensor:
#      x y z
#    x 1.693260 0.000000 0.000000 
#    y 0.000000 1.753490 0.000000 
#    z 0.000000 0.000000 1.744970 
# 
# From -- ./inp_files/10267.got.cif
#   From: 2010.05.17/outbox.cif.g08.bks.cpg/sg40_6_cif.got.tgz:10267.got - 2010.06.03 18:35:42.
