data_PCOD9364853
_publ_section_title
;
Structure prediction by ZEFSAII (Michael W. Deem and Ramdas Pophale) SiO2 
 PCOD9364853
Probable space group: A M A 2
;
_chemical_formula_sum "Si O2"
_cell_formula_units_Z 60
_cell_length_a 25.989148
_cell_length_b 18.063293
_cell_length_c 5.117058
_cell_angle_alpha 90.000000
_cell_angle_beta 90.000000
_cell_angle_gamma 90.000000
_cell_volume 2402.200806
_symmetry_space_group_name_H-M "A M A 2"
_symmetry_group_IT_number 40
_symmetry_cell_setting 'orthorhombic'
loop_
_space_group_symop_operation_xyz
x,y,z
-x,-y,z
1/2-x,y,z
1/2+x,-y,z
x,1/2+y,1/2+z
-x,1/2-y,1/2+z
1/2-x,1/2+y,1/2+z
1/2+x,1/2-y,1/2+z
loop_
_atom_site_type_symbol
_atom_site_label
_atom_site_fract_x
_atom_site_fract_y
_atom_site_fract_z
Si Si1 0.434829 0.297829 0.221040
Si Si2 0.622051 0.372855 0.359169
Si Si3 0.164617 0.259860 0.566408
Si Si4 0.807044 0.482136 0.096166
Si Si5 0.250000 0.652491 0.863597
Si Si6 0.530306 0.568138 0.537933
Si Si7 0.448216 0.640202 0.850973
Si Si8 0.870561 0.606904 0.813576
O O1 0.386909 0.274688 0.403395
O O2 0.467805 0.363007 0.343894
O O3 0.466609 0.222047 0.254478
O O4 0.407484 0.333735 0.967023
O O5 0.654151 0.297717 0.303646
O O6 0.595104 0.376459 0.634849
O O7 0.660739 0.439936 0.315497
O O8 0.578528 0.369836 0.130622
O O9 0.205811 0.217318 0.393392
O O10 0.172905 0.342140 0.676982
O O11 0.750000 0.506597 0.185527
O O12 0.793894 0.414448 0.895338
O O13 0.841465 0.548247 0.991325
O O14 0.500000 0.500000 0.413884
O O15 0.495405 0.586944 0.789089
O O16 0.589610 0.562723 0.627714
#
# Coordination Sequence:
#
# PCOD9364853 Si02
#       8
#     8   8   8   8   4   8   8   8
#     4  10  24  39  65  94 134 177 230 299 348 423
#     4  10  21  43  69 101 137 177 235 290 347 416
#     4   9  19  40  62  93 130 174 228 290 351 418
#     4   9  21  40  68  98 137 180 231 287 364 432
#     4   8  18  38  68  92 128 174 238 284 356 440
#     4  11  27  42  66 100 137 190 240 291 369 430
#     4  11  24  42  73 100 138 185 237 293 354 420
#     4  11  22  41  64  94 139 179 232 296 363 426
#
# _framework density 24.977097000000001
#
# number of rings (size 3 to 8) (size 9 to 14) (size 15 to 20)
#    0.400    1.600    1.333    0.800    6.533    0.533 
#    1.200    0.667    4.400    0.000    0.000    0.000 
#    0.000    0.000    0.000    0.000    0.000    0.000 
#
# Total GULP energy -167070.988600 kJ/mol
# GULP energy per Si atom -5569.032953 kJ/mol
# Density = 2.492025 g / cm^3
# Si number density = 24.977097 Si / 1000 Ang^3
#
#
#
# Elastic Constant Matrix: (Units=GPa)
#
#
# Indices 1 2 3 4 5 6 
#
# 1 78.9922 20.6802 14.0743 0.0000 0.0000 0.0000
# 2 20.6802 101.5962 0.8902 0.0000 0.0000 0.0000
# 3 14.0743 0.8902 58.1518 0.0000 0.0000 0.0000
# 4 0.0000 0.0000 0.0000 26.7234 0.0000 0.0000
# 5 0.0000 0.0000 0.0000 0.0000 -8.1828 0.0000
# 6 0.0000 0.0000 0.0000 0.0000 0.0000 42.6991
#
#
#
# Elastic Compliance Matrix: (Units=1/GPa)
#
#
# Indices 1 2 3 4 5 6 
#
# 1 0.013993 -0.002819 -0.003344 0.000000 0.000000 0.000000
# 2 -0.002819 0.010412 0.000523 0.000000 0.000000 0.000000
# 3 -0.003344 0.000523 0.017998 0.000000 0.000000 0.000000
# 4 0.000000 0.000000 0.000000 0.037420 0.000000 0.000000
# 5 0.000000 0.000000 0.000000 0.000000 -0.122208 0.000000
# 6 0.000000 0.000000 0.000000 0.000000 0.000000 0.023420
#
#
# Mechanical properties :
#
#
# Convention : Reuss Voigt Hill
#
# Bulk Modulus (GPa) = 32.13007 34.44772 33.28889
# Shear Modulus (GPa) = 1859.05067 25.78764 942.41915
#
# Velocity S-wave (km/s) = 27.31150 3.21666 19.44563
# Velocity P-wave (km/s) = 31.74034 5.25524 22.74936
#
# Compressibility (1/GPa) = 0.03112349
#
# Stress axis : x y z
#
# Youngs Moduli (GPa) = 71.46306 96.04180 55.56293
#
# Poissons Ratio (x) = 0.27075 0.18578
# Poissons Ratio (y) = 0.20146 -0.02905
# Poissons Ratio (z) = 0.23894 -0.05022
#
# Static dielectric constant tensor:
#      x y z
#    x 1.946940 0.000000 0.000000 
#    y 0.000000 2.053290 0.000000 
#    z 0.000000 0.000000 2.031290 
# 
# From -- ./inp_files/3165.got.cif
#   From: 2010.05.17/outbox.cif.g08.bks.cpg/sg40_2_cif.got.tgz:3165.got - 2010.06.03 18:35:42.
