data_PCOD9364804
_publ_section_title
;
Structure prediction by ZEFSAII (Michael W. Deem and Ramdas Pophale) SiO2 
 PCOD9364804
Probable space group: A M A 2
;
_chemical_formula_sum "Si O2"
_cell_formula_units_Z 48
_cell_length_a 15.771101
_cell_length_b 18.488424
_cell_length_c 7.868925
_cell_angle_alpha 90.000000
_cell_angle_beta 90.000000
_cell_angle_gamma 90.000000
_cell_volume 2294.443202
_symmetry_space_group_name_H-M "A M A 2"
_symmetry_group_IT_number 40
_symmetry_cell_setting 'orthorhombic'
loop_
_space_group_symop_operation_xyz
x,y,z
-x,-y,z
1/2-x,y,z
1/2+x,-y,z
x,1/2+y,1/2+z
-x,1/2-y,1/2+z
1/2-x,1/2+y,1/2+z
1/2+x,1/2-y,1/2+z
loop_
_atom_site_type_symbol
_atom_site_label
_atom_site_fract_x
_atom_site_fract_y
_atom_site_fract_z
Si Si1 0.894987 0.780539 0.763500
Si Si2 0.653295 0.570676 0.311479
Si Si3 0.533285 0.167611 0.009810
Si Si4 0.985204 0.418711 0.804504
Si Si5 0.342746 0.853510 0.460920
Si Si6 0.347242 0.071944 0.602735
O O1 0.913174 0.730670 0.599641
O O2 0.849557 0.729119 0.900296
O O3 0.850385 0.853908 0.708288
O O4 0.983698 0.802712 0.848653
O O5 0.750000 0.561593 0.371478
O O6 0.593003 0.601525 0.455116
O O7 0.626486 0.495770 0.221581
O O8 0.653174 0.630423 0.160697
O O9 0.468523 0.135798 0.149851
O O10 0.074851 0.391866 0.882692
O O11 0.000000 0.500000 0.743737
O O12 0.087116 0.579951 0.947918
O O13 0.250000 0.881586 0.403296
O O14 0.250000 0.057910 0.547582
#
# Coordination Sequence:
#
# PCOD9364804 Si02
#       6
#     8   8   8   8   8   8
#     4  11  23  40  65  95 135 174 218 274 331 389
#     4  10  22  41  67  95 130 174 221 273 330 396
#     4  11  24  40  65  99 130 176 226 270 326 407
#     4  11  23  39  67  96 127 174 220 273 328 385
#     4  10  21  41  66  94 129 175 218 264 327 398
#     4  11  24  43  67  98 133 171 220 280 334 389
#
# _framework density 20.920110000000001
#
# number of rings (size 3 to 8) (size 9 to 14) (size 15 to 20)
#    0.000    1.333    1.667    4.500    2.333    3.333 
#    0.000    3.333    0.000    0.000    0.000    0.000 
#    0.000    0.000    0.000    0.000    0.000    0.000 
#
# Total GULP energy -134077.182751 kJ/mol
# GULP energy per Si atom -5586.549281 kJ/mol
# Density = 2.087250 g / cm^3
# Si number density = 20.920110 Si / 1000 Ang^3
#
#
#
# Elastic Constant Matrix: (Units=GPa)
#
#
# Indices 1 2 3 4 5 6 
#
# 1 95.2998 41.0016 35.3247 0.0000 0.0000 0.0000
# 2 41.0016 120.9263 44.8240 0.0000 0.0000 0.0000
# 3 35.3247 44.8240 59.8487 0.0000 0.0000 0.0000
# 4 0.0000 0.0000 0.0000 36.6945 0.0000 0.0000
# 5 0.0000 0.0000 0.0000 0.0000 21.3654 0.0000
# 6 0.0000 0.0000 0.0000 0.0000 0.0000 17.5965
#
#
#
# Elastic Compliance Matrix: (Units=1/GPa)
#
#
# Indices 1 2 3 4 5 6 
#
# 1 0.013883 -0.002312 -0.006463 0.000000 0.000000 0.000000
# 2 -0.002312 0.011832 -0.007498 0.000000 0.000000 0.000000
# 3 -0.006463 -0.007498 0.026139 0.000000 0.000000 0.000000
# 4 0.000000 0.000000 0.000000 0.027252 0.000000 0.000000
# 5 0.000000 0.000000 0.000000 0.000000 0.046805 0.000000
# 6 0.000000 0.000000 0.000000 0.000000 0.000000 0.056830
#
#
# Mechanical properties :
#
#
# Convention : Reuss Voigt Hill
#
# Bulk Modulus (GPa) = 51.78643 57.59727 54.69185
# Shear Modulus (GPa) = 22.55071 25.45957 24.00514
#
# Velocity S-wave (km/s) = 3.28677 3.49232 3.39110
# Velocity P-wave (km/s) = 6.26194 6.62220 6.44459
#
# Compressibility (1/GPa) = 0.01931008
#
# Stress axis : x y z
#
# Youngs Moduli (GPa) = 72.02820 84.51351 38.25716
#
# Poissons Ratio (x) = 0.19537 0.24726
# Poissons Ratio (y) = 0.16650 0.28684
# Poissons Ratio (z) = 0.46553 0.63364
#
# Static dielectric constant tensor:
#      x y z
#    x 1.772970 0.000000 0.000000 
#    y 0.000000 1.752610 0.000000 
#    z 0.000000 0.000000 1.752830 
# 
# From -- ./inp_files/7595.got.cif
#   From: 2010.05.17/outbox.cif.g08.bks.cpg/sg40_4_cif.got.tgz:7595.got - 2010.06.03 18:35:42.
