data_PCOD9364148
_publ_section_title
;
Structure prediction by ZEFSAII (Michael W. Deem and Ramdas Pophale) SiO2 
 PCOD9364148
Probable space group: A M A 2
;
_chemical_formula_sum "Si O2"
_cell_formula_units_Z 64
_cell_length_a 17.727417
_cell_length_b 25.967763
_cell_length_c 6.544204
_cell_angle_alpha 90.000000
_cell_angle_beta 90.000000
_cell_angle_gamma 90.000000
_cell_volume 3012.567791
_symmetry_space_group_name_H-M "A M A 2"
_symmetry_group_IT_number 40
_symmetry_cell_setting 'orthorhombic'
loop_
_space_group_symop_operation_xyz
x,y,z
-x,-y,z
1/2-x,y,z
1/2+x,-y,z
x,1/2+y,1/2+z
-x,1/2-y,1/2+z
1/2-x,1/2+y,1/2+z
1/2+x,1/2-y,1/2+z
loop_
_atom_site_type_symbol
_atom_site_label
_atom_site_fract_x
_atom_site_fract_y
_atom_site_fract_z
Si Si1 0.414195 0.590853 0.392010
Si Si2 0.165260 0.560744 0.787476
Si Si3 0.668460 0.844573 0.604436
Si Si4 0.840290 0.209694 0.508035
Si Si5 0.911063 0.005872 0.600631
Si Si6 0.084774 0.381972 0.271110
Si Si7 0.426196 0.311399 0.610280
Si Si8 0.071922 0.221452 0.310518
O O1 0.397873 0.577910 0.625725
O O2 0.355959 0.634413 0.322299
O O3 0.399220 0.537416 0.273883
O O4 0.494446 0.611611 0.309863
O O5 0.250000 0.555444 0.698189
O O6 0.169615 0.605374 0.957689
O O7 0.138633 0.509882 0.906333
O O8 0.750000 0.820037 0.612962
O O9 0.612317 0.807311 0.493179
O O10 0.750000 0.206501 0.529829
O O11 0.882021 0.159945 0.611992
O O12 0.866538 0.210448 0.272601
O O13 0.873311 0.259024 0.630570
O O14 0.892831 0.061694 0.691721
O O15 0.000000 0.000000 0.545583
O O16 0.107654 0.361055 0.496109
O O17 0.452159 0.274013 0.424297
O O18 0.503937 0.314123 0.735237
#
# Coordination Sequence:
#
# PCOD9364148 Si02
#       8
#     8   8   8   8   8   8   8   8
#     4  10  20  37  63  91 122 161 209 269 325 393
#     4  10  21  37  59  91 127 161 200 259 334 398
#     4  10  21  35  56  87 123 156 197 254 322 389
#     4  11  25  43  62  91 131 173 224 280 337 403
#     4   9  21  40  61  88 122 161 215 267 321 389
#     4  10  23  41  64  90 124 170 222 273 329 399
#     4  11  23  39  64  90 122 167 222 272 331 395
#     4  11  22  40  64  90 124 168 218 269 333 399
#
# _framework density 21.244336000000001
#
# number of rings (size 3 to 8) (size 9 to 14) (size 15 to 20)
#    0.000    1.750    1.250    2.250    1.750    9.000 
#    0.000    0.000    0.000    0.000    0.000    0.000 
#    0.000    0.000    0.000    0.000    0.000    0.000 
#
# Total GULP energy -178469.517314 kJ/mol
# GULP energy per Si atom -5577.172416 kJ/mol
# Density = 2.119598 g / cm^3
# Si number density = 21.244336 Si / 1000 Ang^3
#
#
#
# Elastic Constant Matrix: (Units=GPa)
#
#
# Indices 1 2 3 4 5 6 
#
# 1 74.4537 26.6287 28.7789 0.0000 0.0000 0.0000
# 2 26.6287 79.7115 30.3207 0.0000 0.0000 0.0000
# 3 28.7789 30.3207 89.3795 0.0000 0.0000 0.0000
# 4 0.0000 0.0000 0.0000 34.1730 0.0000 0.0000
# 5 0.0000 0.0000 0.0000 0.0000 23.2214 0.0000
# 6 0.0000 0.0000 0.0000 0.0000 0.0000 19.7491
#
#
#
# Elastic Compliance Matrix: (Units=1/GPa)
#
#
# Indices 1 2 3 4 5 6 
#
# 1 0.016369 -0.003977 -0.003922 0.000000 0.000000 0.000000
# 2 -0.003977 0.015370 -0.003934 0.000000 0.000000 0.000000
# 3 -0.003922 -0.003934 0.013785 0.000000 0.000000 0.000000
# 4 0.000000 0.000000 0.000000 0.029263 0.000000 0.000000
# 5 0.000000 0.000000 0.000000 0.000000 0.043064 0.000000
# 6 0.000000 0.000000 0.000000 0.000000 0.000000 0.050635
#
#
# Mechanical properties :
#
#
# Convention : Reuss Voigt Hill
#
# Bulk Modulus (GPa) = 45.74399 46.11125 45.92762
# Shear Modulus (GPa) = 25.07054 25.94978 25.51016
#
# Velocity S-wave (km/s) = 3.43899 3.49878 3.46901
# Velocity P-wave (km/s) = 6.11130 6.17043 6.14094
#
# Compressibility (1/GPa) = 0.02186080
#
# Stress axis : x y z
#
# Youngs Moduli (GPa) = 61.08999 65.06198 72.54057
#
# Poissons Ratio (x) = 0.25873 0.28448
# Poissons Ratio (y) = 0.24293 0.28535
# Poissons Ratio (z) = 0.23957 0.25593
#
# Static dielectric constant tensor:
#      x y z
#    x 1.785450 0.000000 0.000000 
#    y 0.000000 1.804710 0.000000 
#    z 0.000000 0.000000 1.765100 
# 
# From -- ./inp_files/2490.got.cif
#   From: 2010.05.17/outbox.cif.g08.bks.cpg/sg40_2_cif.got.tgz:2490.got - 2010.06.03 18:35:42.
