data_PCOD9364478
_publ_section_title
;
Structure prediction by ZEFSAII (Michael W. Deem and Ramdas Pophale) SiO2 
 PCOD9364478
Probable space group: A M A 2
;
_chemical_formula_sum "Si O2"
_cell_formula_units_Z 64
_cell_length_a 24.869071
_cell_length_b 6.587649
_cell_length_c 18.089053
_cell_angle_alpha 90.000000
_cell_angle_beta 90.000000
_cell_angle_gamma 90.000000
_cell_volume 2963.506231
_symmetry_space_group_name_H-M "A M A 2"
_symmetry_group_IT_number 40
_symmetry_cell_setting 'orthorhombic'
loop_
_space_group_symop_operation_xyz
x,y,z
-x,-y,z
1/2-x,y,z
1/2+x,-y,z
x,1/2+y,1/2+z
-x,1/2-y,1/2+z
1/2-x,1/2+y,1/2+z
1/2+x,1/2-y,1/2+z
loop_
_atom_site_type_symbol
_atom_site_label
_atom_site_fract_x
_atom_site_fract_y
_atom_site_fract_z
Si Si1 0.441095 0.530223 0.446410
Si Si2 0.886439 0.107177 0.517308
Si Si3 0.690367 0.496155 0.894476
Si Si4 0.157181 0.747939 0.751402
Si Si5 0.136062 0.138365 0.823779
Si Si6 0.311150 0.068997 0.097707
Si Si7 0.940074 0.041497 0.243494
Si Si8 0.909461 0.217401 0.089581
O O1 0.500000 0.500000 0.413845
O O2 0.431877 0.756756 0.478827
O O3 0.394537 0.506852 0.385802
O O4 0.434049 0.380402 0.515566
O O5 0.842874 0.267070 0.548083
O O6 0.855446 0.974204 0.456100
O O7 0.908179 0.958397 0.579913
O O8 0.750000 0.473111 0.925432
O O9 0.681996 0.346755 0.825738
O O10 0.681095 0.722726 0.861648
O O11 0.187193 0.660787 0.680237
O O12 0.096561 0.660252 0.743991
O O13 0.157028 0.988946 0.760857
O O14 0.092437 0.296275 0.792304
O O15 0.250000 0.035117 0.074016
O O16 0.348654 0.869845 0.096850
O O17 0.940378 0.133529 0.160827
O O18 0.000000 0.000000 0.269774
#
# Coordination Sequence:
#
# PCOD9364478 Si02
#       8
#     8   8   8   8   8   8   8   8
#     4  10  22  38  59  87 118 152 199 247 294 358
#     4  10  21  39  58  85 117 153 198 247 296 358
#     4  10  21  37  57  85 119 154 198 247 298 358
#     4  10  21  38  57  84 120 153 195 245 296 357
#     4  10  22  39  58  87 119 155 200 247 296 364
#     4  10  21  36  57  85 115 150 197 245 293 355
#     4  10  22  38  60  87 118 153 197 246 297 358
#     4  10  21  40  59  83 119 153 193 247 296 352
#
# _framework density 21.596041
#
# number of rings (size 3 to 8) (size 9 to 14) (size 15 to 20)
#    0.000    2.000    0.000    2.625    1.750    2.500 
#    0.000    1.250    0.000    0.000    0.000    0.000 
#    0.000    0.000    0.000    0.000    0.000    0.000 
#
# Total GULP energy -178870.289151 kJ/mol
# GULP energy per Si atom -5589.696536 kJ/mol
# Density = 2.154689 g / cm^3
# Si number density = 21.596041 Si / 1000 Ang^3
#
#
#
# Elastic Constant Matrix: (Units=GPa)
#
#
# Indices 1 2 3 4 5 6 
#
# 1 56.5583 10.2945 -20.7413 0.0000 0.0000 0.0000
# 2 10.2945 56.2033 -2.1816 0.0000 0.0000 0.0000
# 3 -20.7413 -2.1816 46.4871 0.0000 0.0000 0.0000
# 4 0.0000 0.0000 0.0000 36.5603 0.0000 0.0000
# 5 0.0000 0.0000 0.0000 0.0000 2.3667 0.0000
# 6 0.0000 0.0000 0.0000 0.0000 0.0000 2.6766
#
#
#
# Elastic Compliance Matrix: (Units=1/GPa)
#
#
# Indices 1 2 3 4 5 6 
#
# 1 0.021855 -0.003631 0.009581 0.000000 0.000000 0.000000
# 2 -0.003631 0.018428 -0.000755 0.000000 0.000000 0.000000
# 3 0.009581 -0.000755 0.025751 0.000000 0.000000 0.000000
# 4 0.000000 0.000000 0.000000 0.027352 0.000000 0.000000
# 5 0.000000 0.000000 0.000000 0.000000 0.422523 0.000000
# 6 0.000000 0.000000 0.000000 0.000000 0.000000 0.373606
#
#
# Mechanical properties :
#
#
# Convention : Reuss Voigt Hill
#
# Bulk Modulus (GPa) = 13.08510 14.88799 13.98654
# Shear Modulus (GPa) = 5.52730 19.77920 12.65325
#
# Velocity S-wave (km/s) = 1.60155 3.02962 2.42318
# Velocity P-wave (km/s) = 3.08093 4.37572 3.78412
#
# Compressibility (1/GPa) = 0.07642280
#
# Stress axis : x y z
#
# Youngs Moduli (GPa) = 45.75548 54.26419 38.83405
#
# Poissons Ratio (x) = 0.19705 -0.37206
# Poissons Ratio (y) = 0.16615 0.02933
# Poissons Ratio (z) = -0.43838 0.04099
#
# Static dielectric constant tensor:
#      x y z
#    x 1.744560 0.000000 0.000000 
#    y 0.000000 1.777150 0.000000 
#    z 0.000000 0.000000 1.797690 
# 
# From -- ./inp_files/23714.got.cif
#   From: 2010.05.17/outbox.cif.g08.bks.cpg/sg40_12_cif.got.tgz:23714.got - 2010.06.03 18:35:42.
