data_PCOD9364152
_publ_section_title
;
Structure prediction by ZEFSAII (Michael W. Deem and Ramdas Pophale) SiO2 
 PCOD9364152
Probable space group: A M A 2
;
_chemical_formula_sum "Si O2"
_cell_formula_units_Z 44
_cell_length_a 10.055508
_cell_length_b 22.238081
_cell_length_c 7.540656
_cell_angle_alpha 90.000000
_cell_angle_beta 90.000000
_cell_angle_gamma 90.000000
_cell_volume 1686.205310
_symmetry_space_group_name_H-M "A M A 2"
_symmetry_group_IT_number 40
_symmetry_cell_setting 'orthorhombic'
loop_
_space_group_symop_operation_xyz
x,y,z
-x,-y,z
1/2-x,y,z
1/2+x,-y,z
x,1/2+y,1/2+z
-x,1/2-y,1/2+z
1/2-x,1/2+y,1/2+z
1/2+x,1/2-y,1/2+z
loop_
_atom_site_type_symbol
_atom_site_label
_atom_site_fract_x
_atom_site_fract_y
_atom_site_fract_z
Si Si1 0.750000 0.503399 0.000000
Si Si2 0.750000 0.169304 0.811429
Si Si3 0.900188 0.952724 0.156543
Si Si4 0.250000 0.259238 0.670673
Si Si5 0.250000 0.715518 0.649179
Si Si6 0.509009 0.664377 0.807144
Si Si7 0.968422 0.091539 0.670871
Si Si8 0.250000 0.130089 0.797523
O O1 0.638282 0.475801 0.855077
O O2 0.870224 0.537467 0.112498
O O3 0.750000 0.212622 0.638664
O O4 0.880539 0.129093 0.809081
O O5 0.750000 0.210255 0.981166
O O6 0.750000 0.945437 0.075523
O O7 0.987987 0.893248 0.178916
O O8 0.000000 0.000000 0.067596
O O9 0.376911 0.288212 0.766748
O O10 0.250000 0.187469 0.662967
O O11 0.376188 0.699343 0.765395
O O12 0.250000 0.672725 0.475224
O O13 0.522072 0.634138 0.997380
O O14 0.119306 0.090461 0.747974
#
# Coordination Sequence:
#
# PCOD9364152 Si02
#       8
#     4   4   8   4   4   8   8   4
#     4   9  20  38  61 100 130 164 220 290 340 401
#     4  11  24  44  63  92 142 187 228 290 348 434
#     4  10  20  37  64 106 132 166 230 304 345 401
#     4  12  26  42  64 100 142 187 236 280 359 424
#     4  12  24  42  63  94 142 180 238 288 350 428
#     4  12  22  39  67 102 130 178 231 293 345 420
#     4  11  22  40  66  98 130 178 230 283 353 412
#     4  12  26  42  63 100 140 190 230 290 347 433
#
# _framework density 26.094093999999998
#
# number of rings (size 3 to 8) (size 9 to 14) (size 15 to 20)
#    0.545    0.364    2.727    6.000    1.273    0.000 
#    0.000    0.000    0.000    0.000   47.273    0.000 
#    0.000    0.000    0.000    0.000    0.000    0.000 
#
# Total GULP energy -122490.643203 kJ/mol
# GULP energy per Si atom -5567.756509 kJ/mol
# Density = 2.603470 g / cm^3
# Si number density = 26.094094 Si / 1000 Ang^3
#
#
#
# Elastic Constant Matrix: (Units=GPa)
#
#
# Indices 1 2 3 4 5 6 
#
# 1 214.7810 58.8382 31.0888 0.0000 0.0000 0.0000
# 2 58.8382 85.5482 14.4655 0.0000 0.0000 0.0000
# 3 31.0888 14.4655 102.9474 0.0000 0.0000 0.0000
# 4 0.0000 0.0000 0.0000 32.4499 0.0000 0.0000
# 5 0.0000 0.0000 0.0000 0.0000 43.5032 0.0000
# 6 0.0000 0.0000 0.0000 0.0000 0.0000 37.0206
#
#
#
# Elastic Compliance Matrix: (Units=1/GPa)
#
#
# Indices 1 2 3 4 5 6 
#
# 1 0.005887 -0.003840 -0.001238 0.000000 0.000000 0.000000
# 2 -0.003840 0.014478 -0.000875 0.000000 0.000000 0.000000
# 3 -0.001238 -0.000875 0.010211 0.000000 0.000000 0.000000
# 4 0.000000 0.000000 0.000000 0.030817 0.000000 0.000000
# 5 0.000000 0.000000 0.000000 0.000000 0.022987 0.000000
# 6 0.000000 0.000000 0.000000 0.000000 0.000000 0.027012
#
#
# Mechanical properties :
#
#
# Convention : Reuss Voigt Hill
#
# Bulk Modulus (GPa) = 53.56141 68.00687 60.78414
# Shear Modulus (GPa) = 38.60413 42.52035 40.56224
#
# Velocity S-wave (km/s) = 3.85050 4.04109 3.94694
# Velocity P-wave (km/s) = 6.35132 6.92045 6.64198
#
# Compressibility (1/GPa) = 0.01867016
#
# Stress axis : x y z
#
# Youngs Moduli (GPa) = 169.86681 69.07033 97.93768
#
# Poissons Ratio (x) = 0.26520 0.12127
# Poissons Ratio (y) = 0.65221 0.08568
# Poissons Ratio (z) = 0.21034 0.06043
#
# Static dielectric constant tensor:
#      x y z
#    x 2.012210 0.000000 0.000000 
#    y 0.000000 2.151290 0.000000 
#    z 0.000000 0.000000 2.176750 
# 
# From -- ./inp_files/4549.got.cif
#   From: 2010.05.17/outbox.cif.g08.bks.cpg/sg40_3_cif.got.tgz:4549.got - 2010.06.03 18:35:42.
