data_PCOD9364126
_publ_section_title
;
Structure prediction by ZEFSAII (Michael W. Deem and Ramdas Pophale) SiO2 
 PCOD9364126
Probable space group: A M A 2
;
_chemical_formula_sum "Si O2"
_cell_formula_units_Z 56
_cell_length_a 21.540917
_cell_length_b 12.683081
_cell_length_c 9.549060
_cell_angle_alpha 90.000000
_cell_angle_beta 90.000000
_cell_angle_gamma 90.000000
_cell_volume 2608.852801
_symmetry_space_group_name_H-M "A M A 2"
_symmetry_group_IT_number 40
_symmetry_cell_setting 'orthorhombic'
loop_
_space_group_symop_operation_xyz
x,y,z
-x,-y,z
1/2-x,y,z
1/2+x,-y,z
x,1/2+y,1/2+z
-x,1/2-y,1/2+z
1/2-x,1/2+y,1/2+z
1/2+x,1/2-y,1/2+z
loop_
_atom_site_type_symbol
_atom_site_label
_atom_site_fract_x
_atom_site_fract_y
_atom_site_fract_z
Si Si1 0.066290 0.618050 0.640930
Si Si2 0.070045 0.471808 0.368375
Si Si3 0.018296 0.611675 0.938175
Si Si4 0.882510 0.194167 0.476517
Si Si5 0.322648 0.497775 0.142450
Si Si6 0.319709 0.240185 0.699456
Si Si7 0.433508 0.303814 0.558019
O O1 0.080729 0.533409 0.517654
O O2 0.063970 0.591894 0.805608
O O3 0.104170 0.723281 0.602069
O O4 0.993046 0.641045 0.621714
O O5 0.127023 0.489693 0.266791
O O6 0.068223 0.347550 0.401388
O O7 0.000000 0.500000 0.322393
O O8 0.000000 0.500000 0.996705
O O9 0.951548 0.669351 0.914219
O O10 0.051903 0.681158 0.053436
O O11 0.849019 0.086370 0.527758
O O12 0.843387 0.257068 0.359739
O O13 0.250000 0.469071 0.172127
O O14 0.320760 0.625360 0.124721
O O15 0.250000 0.279434 0.694484
O O16 0.367700 0.318603 0.626577
#
# Coordination Sequence:
#
# PCOD9364126 Si02
#       7
#     8   8   8   8   8   8   8
#     4  10  20  37  61  92 126 160 208 273 332 392
#     4  10  21  39  65  92 127 163 214 272 332 392
#     4  11  21  35  60  93 127 158 207 270 327 391
#     4  11  22  39  63  92 125 168 216 264 331 395
#     4  11  24  41  63  91 126 171 222 267 322 400
#     4  11  23  41  60  84 126 169 215 266 320 392
#     4  10  21  36  58  90 123 163 206 262 328 390
#
# _framework density 21.465375000000002
#
# number of rings (size 3 to 8) (size 9 to 14) (size 15 to 20)
#    0.000    1.429    2.857    3.429    0.000    3.429 
#    0.000    0.000    0.000    0.857    0.000    0.000 
#    0.000    0.000    0.000    0.000    0.000    0.000 
#
# Total GULP energy -156011.195470 kJ/mol
# GULP energy per Si atom -5571.828410 kJ/mol
# Density = 2.141652 g / cm^3
# Si number density = 21.465375 Si / 1000 Ang^3
#
#
#
# Elastic Constant Matrix: (Units=GPa)
#
#
# Indices 1 2 3 4 5 6 
#
# 1 136.1029 7.1617 14.2695 0.0000 0.0000 0.0000
# 2 7.1617 65.6831 14.6612 0.0000 0.0000 0.0000
# 3 14.2695 14.6612 45.3099 0.0000 0.0000 0.0000
# 4 0.0000 0.0000 0.0000 22.6545 0.0000 0.0000
# 5 0.0000 0.0000 0.0000 0.0000 20.3000 0.0000
# 6 0.0000 0.0000 0.0000 0.0000 0.0000 27.1263
#
#
#
# Elastic Compliance Matrix: (Units=1/GPa)
#
#
# Indices 1 2 3 4 5 6 
#
# 1 0.007604 -0.000318 -0.002292 0.000000 0.000000 0.000000
# 2 -0.000318 0.016423 -0.005214 0.000000 0.000000 0.000000
# 3 -0.002292 -0.005214 0.024479 0.000000 0.000000 0.000000
# 4 0.000000 0.000000 0.000000 0.044141 0.000000 0.000000
# 5 0.000000 0.000000 0.000000 0.000000 0.049261 0.000000
# 6 0.000000 0.000000 0.000000 0.000000 0.000000 0.036865
#
#
# Mechanical properties :
#
#
# Convention : Reuss Voigt Hill
#
# Bulk Modulus (GPa) = 30.43288 35.47564 32.95426
# Shear Modulus (GPa) = 24.34580 28.08307 26.21444
#
# Velocity S-wave (km/s) = 3.37143 3.62096 3.49842
# Velocity P-wave (km/s) = 5.41884 5.83478 5.63065
#
# Compressibility (1/GPa) = 0.03285920
#
# Stress axis : x y z
#
# Youngs Moduli (GPa) = 131.50273 60.88993 40.85094
#
# Poissons Ratio (x) = 0.01933 0.09364
# Poissons Ratio (y) = 0.04175 0.21300
# Poissons Ratio (z) = 0.30142 0.31749
#
# Static dielectric constant tensor:
#      x y z
#    x 1.769480 0.000000 0.000000 
#    y 0.000000 1.875980 0.000000 
#    z 0.000000 0.000000 1.862120 
# 
# From -- ./inp_files/13573.got.cif
#   From: 2010.05.17/outbox.cif.g08.bks.cpg/sg40_7_cif.got.tgz:13573.got - 2010.06.03 18:35:42.
