data_PCOD9364014
_publ_section_title
;
Structure prediction by ZEFSAII (Michael W. Deem and Ramdas Pophale) SiO2 
 PCOD9364014
Probable space group: A M A 2
;
_chemical_formula_sum "Si O2"
_cell_formula_units_Z 64
_cell_length_a 8.754131
_cell_length_b 25.395692
_cell_length_c 15.137198
_cell_angle_alpha 90.000000
_cell_angle_beta 90.000000
_cell_angle_gamma 90.000000
_cell_volume 3365.259696
_symmetry_space_group_name_H-M "A M A 2"
_symmetry_group_IT_number 40
_symmetry_cell_setting 'orthorhombic'
loop_
_space_group_symop_operation_xyz
x,y,z
-x,-y,z
1/2-x,y,z
1/2+x,-y,z
x,1/2+y,1/2+z
-x,1/2-y,1/2+z
1/2-x,1/2+y,1/2+z
1/2+x,1/2-y,1/2+z
loop_
_atom_site_type_symbol
_atom_site_label
_atom_site_fract_x
_atom_site_fract_y
_atom_site_fract_z
Si Si1 0.932983 0.558486 0.283170
Si Si2 0.930883 0.363075 0.139976
Si Si3 0.067270 0.264800 0.239056
Si Si4 0.932982 0.151683 0.257940
Si Si5 0.431307 0.336207 0.964998
Si Si6 0.933197 0.283573 0.433194
Si Si7 0.932778 0.107732 0.974568
Si Si8 0.432283 0.056444 0.145515
O O1 0.750000 0.556865 0.275189
O O2 0.969419 0.587197 0.376088
O O3 0.000000 0.500000 0.284527
O O4 0.001602 0.591805 0.202692
O O5 0.750000 0.361034 0.150346
O O6 0.004577 0.308341 0.172629
O O7 0.977393 0.368467 0.037812
O O8 0.250000 0.264282 0.237703
O O9 0.002618 0.206473 0.222896
O O10 0.007038 0.281800 0.335841
O O11 0.750000 0.152728 0.246566
O O12 0.965154 0.149861 0.363206
O O13 0.004534 0.102348 0.208397
O O14 0.250000 0.343254 0.979181
O O15 0.465043 0.273711 0.974136
O O16 0.750000 0.289046 0.425591
O O17 0.002975 0.333165 0.483485
O O18 0.750000 0.107532 0.985693
O O19 0.009225 0.070954 0.047509
O O20 0.250000 0.055140 0.147339
O O21 0.500000 0.000000 0.171236
#
# Coordination Sequence:
#
# PCOD9364014 Si02
#       8
#     8   8   8   8   8   8   8   8
#     4  11  24  42  64  90 124 165 209 258 310 369
#     4  12  24  38  61  91 126 166 210 258 308 370
#     4  11  21  36  59  89 126 164 205 252 307 369
#     4  10  22  43  67  92 123 161 208 261 317 375
#     4   9  21  40  62  89 126 164 204 257 313 371
#     4  10  20  36  59  89 126 165 207 251 305 369
#     4  11  23  39  62  92 127 167 209 255 309 373
#     4  12  26  44  66  92 125 164 210 264 314 374
#
# _framework density 19.017848000000001
#
# number of rings (size 3 to 8) (size 9 to 14) (size 15 to 20)
#    0.000    1.250    1.250    6.000    1.750    5.500 
#    0.000    0.625    0.000    3.000    0.000    0.000 
#    0.000    0.000    0.000    0.000    0.000    0.000 
#
# Total GULP energy -178997.360549 kJ/mol
# GULP energy per Si atom -5593.667517 kJ/mol
# Density = 1.897456 g / cm^3
# Si number density = 19.017848 Si / 1000 Ang^3
#
#
#
# Elastic Constant Matrix: (Units=GPa)
#
#
# Indices 1 2 3 4 5 6 
#
# 1 104.1270 47.0258 43.4799 0.0000 0.0000 0.0000
# 2 47.0258 114.2806 39.6208 0.0000 0.0000 0.0000
# 3 43.4799 39.6208 62.3082 0.0000 0.0000 0.0000
# 4 0.0000 0.0000 0.0000 34.7602 0.0000 0.0000
# 5 0.0000 0.0000 0.0000 0.0000 15.1834 0.0000
# 6 0.0000 0.0000 0.0000 0.0000 0.0000 21.8635
#
#
#
# Elastic Compliance Matrix: (Units=1/GPa)
#
#
# Indices 1 2 3 4 5 6 
#
# 1 0.014374 -0.003127 -0.008042 0.000000 0.000000 0.000000
# 2 -0.003127 0.011905 -0.005389 0.000000 0.000000 0.000000
# 3 -0.008042 -0.005389 0.025088 0.000000 0.000000 0.000000
# 4 0.000000 0.000000 0.000000 0.028769 0.000000 0.000000
# 5 0.000000 0.000000 0.000000 0.000000 0.065861 0.000000
# 6 0.000000 0.000000 0.000000 0.000000 0.000000 0.045738
#
#
# Mechanical properties :
#
#
# Convention : Reuss Voigt Hill
#
# Bulk Modulus (GPa) = 54.78810 60.10764 57.44787
# Shear Modulus (GPa) = 21.65124 24.40069 23.02597
#
# Velocity S-wave (km/s) = 3.37778 3.58584 3.48337
# Velocity P-wave (km/s) = 6.63957 6.98705 6.81552
#
# Compressibility (1/GPa) = 0.01825214
#
# Stress axis : x y z
#
# Youngs Moduli (GPa) = 69.57096 83.99736 39.86008
#
# Poissons Ratio (x) = 0.26262 0.32056
# Poissons Ratio (y) = 0.21752 0.21479
# Poissons Ratio (z) = 0.55950 0.45262
#
# Static dielectric constant tensor:
#      x y z
#    x 1.630910 0.000000 0.000000 
#    y 0.000000 1.635200 0.000000 
#    z 0.000000 0.000000 1.693760 
# 
# From -- ./inp_files/15636.got.cif
#   From: 2010.05.17/outbox.cif.g08.bks.cpg/sg40_8_cif.got.tgz:15636.got - 2010.06.03 18:35:42.
