data_PCOD9364373
_publ_section_title
;
Structure prediction by ZEFSAII (Michael W. Deem and Ramdas Pophale) SiO2 
 PCOD9364373
Probable space group: A M A 2
;
_chemical_formula_sum "Si O2"
_cell_formula_units_Z 48
_cell_length_a 9.776236
_cell_length_b 7.398506
_cell_length_c 32.629674
_cell_angle_alpha 90.000000
_cell_angle_beta 90.000000
_cell_angle_gamma 90.000000
_cell_volume 2360.089334
_symmetry_space_group_name_H-M "A M A 2"
_symmetry_group_IT_number 40
_symmetry_cell_setting 'orthorhombic'
loop_
_space_group_symop_operation_xyz
x,y,z
-x,-y,z
1/2-x,y,z
1/2+x,-y,z
x,1/2+y,1/2+z
-x,1/2-y,1/2+z
1/2-x,1/2+y,1/2+z
1/2+x,1/2-y,1/2+z
loop_
_atom_site_type_symbol
_atom_site_label
_atom_site_fract_x
_atom_site_fract_y
_atom_site_fract_z
Si Si1 0.979760 0.217614 0.625000
Si Si2 0.750000 0.983792 0.247805
Si Si3 0.586401 0.681054 0.036212
Si Si4 0.411904 0.315463 0.368104
Si Si5 0.750000 0.238520 0.169260
Si Si6 0.750000 0.170713 0.688934
Si Si7 0.500000 0.500000 0.807159
Si Si8 0.413344 0.822346 0.959006
O O1 0.928784 0.279887 0.580273
O O2 0.876831 0.241201 0.662348
O O3 0.121774 0.295108 0.639916
O O4 0.000000 0.000000 0.623273
O O5 0.750000 0.774140 0.232196
O O6 0.750000 0.107664 0.207700
O O7 0.623824 0.029545 0.276432
O O8 0.500000 0.500000 0.042947
O O9 0.750000 0.658538 0.027974
O O10 0.501400 0.754294 0.997523
O O11 0.500000 0.500000 0.364466
O O12 0.250000 0.355081 0.361876
O O13 0.465373 0.170282 0.335774
O O14 0.420346 0.229557 0.414310
O O15 0.750000 0.449958 0.185691
O O16 0.250000 0.844310 0.968898
O O17 0.500000 0.000000 0.949575
#
# Coordination Sequence:
#
# PCOD9364373 Si02
#       8
#     8   4   8   8   4   4   4   8
#     4   9  19  36  61  86 123 171 221 268 331 393
#     4  12  26  42  68 100 132 170 228 282 342 410
#     4  11  22  37  60  95 132 174 222 276 322 389
#     4  10  24  46  73 101 134 183 226 276 345 414
#     4  10  22  40  64  91 123 177 219 278 340 402
#     4  10  20  42  62  87 129 171 217 274 330 404
#     4  12  26  46  68 104 142 170 222 296 340 418
#     4  10  22  42  64  94 132 171 220 270 332 403
#
# _framework density 20.338215000000002
#
# number of rings (size 3 to 8) (size 9 to 14) (size 15 to 20)
#    0.000    1.667    1.667    2.000    7.000    2.000 
#    3.000    0.000    0.000    0.000    0.000    0.000 
#    0.000    0.000    0.000    0.000    0.000    0.000 
#
# Total GULP energy -133659.070459 kJ/mol
# GULP energy per Si atom -5569.127936 kJ/mol
# Density = 2.029192 g / cm^3
# Si number density = 20.338215 Si / 1000 Ang^3
#
#
#
# Elastic Constant Matrix: (Units=GPa)
#
#
# Indices 1 2 3 4 5 6 
#
# 1 199.2091 28.4581 74.5735 0.0000 0.0000 0.0000
# 2 28.4581 55.1782 36.7156 0.0000 0.0000 0.0000
# 3 74.5735 36.7156 139.1628 0.0000 0.0000 0.0000
# 4 0.0000 0.0000 0.0000 98.0471 0.0000 0.0000
# 5 0.0000 0.0000 0.0000 0.0000 213.3272 0.0000
# 6 0.0000 0.0000 0.0000 0.0000 0.0000 28.6188
#
#
#
# Elastic Compliance Matrix: (Units=1/GPa)
#
#
# Indices 1 2 3 4 5 6 
#
# 1 0.006347 -0.001225 -0.003078 0.000000 0.000000 0.000000
# 2 -0.001225 0.022219 -0.005205 0.000000 0.000000 0.000000
# 3 -0.003078 -0.005205 0.010209 0.000000 0.000000 0.000000
# 4 0.000000 0.000000 0.000000 0.010199 0.000000 0.000000
# 5 0.000000 0.000000 0.000000 0.000000 0.004688 0.000000
# 6 0.000000 0.000000 0.000000 0.000000 0.000000 0.034942
#
#
# Mechanical properties :
#
#
# Convention : Reuss Voigt Hill
#
# Bulk Modulus (GPa) = 50.61506 74.78273 62.69890
# Shear Modulus (GPa) = 43.78039 84.91882 64.34960
#
# Velocity S-wave (km/s) = 4.64466 6.46869 5.63102
# Velocity P-wave (km/s) = 7.32834 9.62504 8.55412
#
# Compressibility (1/GPa) = 0.01975697
#
# Stress axis : x y z
#
# Youngs Moduli (GPa) = 157.55147 45.00701 97.95713
#
# Poissons Ratio (x) = 0.05515 0.30151
# Poissons Ratio (y) = 0.19307 0.50990
# Poissons Ratio (z) = 0.48493 0.23428
#
# Static dielectric constant tensor:
#      x y z
#    x 1.359040 0.000000 0.000000 
#    y 0.000000 1.747820 0.000000 
#    z 0.000000 0.000000 1.822180 
# 
# From -- ./inp_files/26248.got.cif
#   From: 2010.05.17/outbox.cif.g08.bks.cpg/sg40_14_cif.got.tgz:26248.got - 2010.06.03 18:35:42.
