data_PCOD9364950
_publ_section_title
;
Structure prediction by ZEFSAII (Michael W. Deem and Ramdas Pophale) SiO2 
 PCOD9364950
Probable space group: A M A 2
;
_chemical_formula_sum "Si O2"
_cell_formula_units_Z 40
_cell_length_a 20.040862
_cell_length_b 18.568716
_cell_length_c 4.860929
_cell_angle_alpha 90.000000
_cell_angle_beta 90.000000
_cell_angle_gamma 90.000000
_cell_volume 1808.912456
_symmetry_space_group_name_H-M "A M A 2"
_symmetry_group_IT_number 40
_symmetry_cell_setting 'orthorhombic'
loop_
_space_group_symop_operation_xyz
x,y,z
-x,-y,z
1/2-x,y,z
1/2+x,-y,z
x,1/2+y,1/2+z
-x,1/2-y,1/2+z
1/2-x,1/2+y,1/2+z
1/2+x,1/2-y,1/2+z
loop_
_atom_site_type_symbol
_atom_site_label
_atom_site_fract_x
_atom_site_fract_y
_atom_site_fract_z
Si Si1 0.607064 0.322358 0.371830
Si Si2 0.507985 0.130994 0.192880
Si Si3 0.929156 0.967308 0.570196
Si Si4 0.399524 0.883055 0.688703
Si Si5 0.825815 0.753620 0.360419
O O1 0.601488 0.402160 0.242657
O O2 0.536864 0.311740 0.530818
O O3 0.660429 0.309134 0.611984
O O4 0.383230 0.462082 0.068583
O O5 0.545690 0.148585 0.475411
O O6 0.374956 0.228334 0.614191
O O7 0.454776 0.069634 0.288214
O O8 0.935018 0.107404 0.982820
O O9 0.000000 0.000000 0.678220
O O10 0.342682 0.824556 0.735163
O O11 0.750000 0.758104 0.456756
#
# Coordination Sequence:
#
# PCOD9364950 Si02
#       5
#     8   8   8   8   8
#     4  12  23  45  71  99 138 178 232 282 357 416
#     4  11  21  40  66 111 136 170 213 286 368 421
#     4  10  22  39  69 104 144 164 209 285 369 428
#     4  11  25  40  71 102 147 171 228 284 359 410
#     4  12  28  50  66  92 140 198 245 282 317 400
#
# _framework density 22.112734
#
# number of rings (size 3 to 8) (size 9 to 14) (size 15 to 20)
#    0.000    0.800    6.000    1.800    8.400    3.200 
#    3.600    2.000    0.000    0.000    0.000    0.000 
#    0.000    0.000    0.000    0.000    0.000    0.000 
#
# Total GULP energy -111585.546400 kJ/mol
# GULP energy per Si atom -5579.277320 kJ/mol
# Density = 2.206240 g / cm^3
# Si number density = 22.112734 Si / 1000 Ang^3
#
#
#
# Elastic Constant Matrix: (Units=GPa)
#
#
# Indices 1 2 3 4 5 6 
#
# 1 27.5784 11.5316 15.8286 0.0000 0.0000 0.0000
# 2 11.5316 120.8869 28.3634 0.0000 0.0000 0.0000
# 3 15.8286 28.3634 130.7264 0.0000 0.0000 0.0000
# 4 0.0000 0.0000 0.0000 28.5736 0.0000 0.0000
# 5 0.0000 0.0000 0.0000 0.0000 24.1900 0.0000
# 6 0.0000 0.0000 0.0000 0.0000 0.0000 -4.4154
#
#
#
# Elastic Compliance Matrix: (Units=1/GPa)
#
#
# Indices 1 2 3 4 5 6 
#
# 1 0.039856 -0.002813 -0.004216 0.000000 0.000000 0.000000
# 2 -0.002813 0.008914 -0.001594 0.000000 0.000000 0.000000
# 3 -0.004216 -0.001594 0.008506 0.000000 0.000000 0.000000
# 4 0.000000 0.000000 0.000000 0.034997 0.000000 0.000000
# 5 0.000000 0.000000 0.000000 0.000000 0.041339 0.000000
# 6 0.000000 0.000000 0.000000 0.000000 0.000000 -0.226479
#
#
# Mechanical properties :
#
#
# Convention : Reuss Voigt Hill
#
# Bulk Modulus (GPa) = 24.97990 43.40432 34.19211
# Shear Modulus (GPa) = -80.28418 24.56751 -27.85833
#
# Velocity S-wave (km/s) = -6.03205 3.33680 -3.55326
# Velocity P-wave (km/s) = 6.09860 5.87511 1.15673
#
# Compressibility (1/GPa) = 0.04003218
#
# Stress axis : x y z
#
# Youngs Moduli (GPa) = 25.09042 112.17798 117.56768
#
# Poissons Ratio (x) = 0.31554 0.49561
# Poissons Ratio (y) = 0.07058 0.18735
# Poissons Ratio (z) = 0.10577 0.17876
#
# Static dielectric constant tensor:
#      x y z
#    x 1.801450 0.000000 0.000000 
#    y 0.000000 1.929470 0.000000 
#    z 0.000000 0.000000 1.841530 
# 
# From -- ./inp_files/6560.got.cif
#   From: 2010.05.17/outbox.cif.g08.bks.cpg/sg40_4_cif.got.tgz:6560.got - 2010.06.03 18:35:42.
