data_PCOD9364971
_publ_section_title
;
Structure prediction by ZEFSAII (Michael W. Deem and Ramdas Pophale) SiO2 
 PCOD9364971
Probable space group: A M A 2
;
_chemical_formula_sum "Si O2"
_cell_formula_units_Z 48
_cell_length_a 20.760942
_cell_length_b 7.700773
_cell_length_c 14.758855
_cell_angle_alpha 90.000000
_cell_angle_beta 90.000000
_cell_angle_gamma 90.000000
_cell_volume 2359.576395
_symmetry_space_group_name_H-M "A M A 2"
_symmetry_group_IT_number 40
_symmetry_cell_setting 'orthorhombic'
loop_
_space_group_symop_operation_xyz
x,y,z
-x,-y,z
1/2-x,y,z
1/2+x,-y,z
x,1/2+y,1/2+z
-x,1/2-y,1/2+z
1/2-x,1/2+y,1/2+z
1/2+x,1/2-y,1/2+z
loop_
_atom_site_type_symbol
_atom_site_label
_atom_site_fract_x
_atom_site_fract_y
_atom_site_fract_z
Si Si1 0.822046 0.956276 0.018400
Si Si2 0.591706 0.289034 0.061062
Si Si3 0.465425 0.311020 0.388894
Si Si4 0.865819 0.125894 0.630063
Si Si5 0.823238 0.087292 0.831154
Si Si6 0.002393 0.699624 0.699985
O O1 0.750000 0.016639 0.037366
O O2 0.834611 0.786460 0.076981
O O3 0.868878 0.112491 0.047152
O O4 0.827016 0.935796 0.908427
O O5 0.630474 0.466469 0.060101
O O6 0.559789 0.290267 0.159311
O O7 0.535402 0.278358 0.986304
O O8 0.500000 0.500000 0.394717
O O9 0.389256 0.313018 0.359487
O O10 0.499245 0.211814 0.307731
O O11 0.935428 0.200098 0.661943
O O12 0.831146 0.064724 0.723241
O O13 0.750000 0.161113 0.844002
O O14 0.000000 0.500000 0.669739
#
# Coordination Sequence:
#
# PCOD9364971 Si02
#       6
#     8   8   8   8   8   8
#     4  10  22  41  65  92 128 176 222 273 333 397
#     4  11  23  41  63  94 131 168 218 269 331 406
#     4  10  22  40  63  94 129 172 213 277 329 394
#     4  11  22  40  65  93 129 175 217 274 335 397
#     4   9  20  40  64  92 129 170 219 274 328 395
#     4  11  21  39  61  94 129 166 214 266 332 400
#
# _framework density 20.342635000000001
#
# number of rings (size 3 to 8) (size 9 to 14) (size 15 to 20)
#    0.000    1.667    1.667    3.500    2.333    2.667 
#    3.000    0.000    0.000    4.000    0.000    0.000 
#    0.000    0.000    0.000    0.000    0.000    0.000 
#
# Total GULP energy -133619.554230 kJ/mol
# GULP energy per Si atom -5567.481426 kJ/mol
# Density = 2.029633 g / cm^3
# Si number density = 20.342635 Si / 1000 Ang^3
#
#
#
# Elastic Constant Matrix: (Units=GPa)
#
#
# Indices 1 2 3 4 5 6 
#
# 1 74.0800 26.5328 34.2691 0.0000 0.0000 0.0000
# 2 26.5328 52.4711 36.6519 0.0000 0.0000 0.0000
# 3 34.2691 36.6519 123.1206 0.0000 0.0000 0.0000
# 4 0.0000 0.0000 0.0000 19.8622 0.0000 0.0000
# 5 0.0000 0.0000 0.0000 0.0000 29.5483 0.0000
# 6 0.0000 0.0000 0.0000 0.0000 0.0000 8.6657
#
#
#
# Elastic Compliance Matrix: (Units=1/GPa)
#
#
# Indices 1 2 3 4 5 6 
#
# 1 0.017205 -0.006761 -0.002776 0.000000 0.000000 0.000000
# 2 -0.006761 0.026718 -0.006072 0.000000 0.000000 0.000000
# 3 -0.002776 -0.006072 0.010702 0.000000 0.000000 0.000000
# 4 0.000000 0.000000 0.000000 0.050347 0.000000 0.000000
# 5 0.000000 0.000000 0.000000 0.000000 0.033843 0.000000
# 6 0.000000 0.000000 0.000000 0.000000 0.000000 0.115398
#
#
# Mechanical properties :
#
#
# Convention : Reuss Voigt Hill
#
# Bulk Modulus (GPa) = 42.72110 49.39770 46.05940
# Shear Modulus (GPa) = 17.05133 21.76310 19.40721
#
# Velocity S-wave (km/s) = 2.89832 3.27437 3.09207
# Velocity P-wave (km/s) = 5.67862 6.21537 5.95305
#
# Compressibility (1/GPa) = 0.02340764
#
# Stress axis : x y z
#
# Youngs Moduli (GPa) = 58.12423 37.42778 93.43692
#
# Poissons Ratio (x) = 0.25303 0.25939
# Poissons Ratio (y) = 0.39295 0.56735
# Poissons Ratio (z) = 0.16136 0.22726
#
# Static dielectric constant tensor:
#      x y z
#    x 1.792320 0.000000 0.000000 
#    y 0.000000 1.746080 0.000000 
#    z 0.000000 0.000000 1.763390 
# 
# From -- ./inp_files/18067.got.cif
#   From: 2010.05.17/outbox.cif.g08.bks.cpg/sg40_10_cif.got.tgz:18067.got - 2010.06.03 18:35:42.
