data_PCOD9364153
_publ_section_title
;
Structure prediction by ZEFSAII (Michael W. Deem and Ramdas Pophale) SiO2 
 PCOD9364153
Probable space group: A M A 2
;
_chemical_formula_sum "Si O2"
_cell_formula_units_Z 64
_cell_length_a 28.263725
_cell_length_b 9.776626
_cell_length_c 10.621511
_cell_angle_alpha 90.000000
_cell_angle_beta 90.000000
_cell_angle_gamma 90.000000
_cell_volume 2934.977011
_symmetry_space_group_name_H-M "A M A 2"
_symmetry_group_IT_number 40
_symmetry_cell_setting 'orthorhombic'
loop_
_space_group_symop_operation_xyz
x,y,z
-x,-y,z
1/2-x,y,z
1/2+x,-y,z
x,1/2+y,1/2+z
-x,1/2-y,1/2+z
1/2-x,1/2+y,1/2+z
1/2+x,1/2-y,1/2+z
loop_
_atom_site_type_symbol
_atom_site_label
_atom_site_fract_x
_atom_site_fract_y
_atom_site_fract_z
Si Si1 0.362234 0.444788 0.140320
Si Si2 0.571764 0.971102 0.827267
Si Si3 0.693628 0.495144 0.700439
Si Si4 0.871827 0.829230 0.021510
Si Si5 0.195428 0.769749 0.840960
Si Si6 0.526701 0.356809 0.652507
Si Si7 0.194814 0.223476 0.627555
Si Si8 0.983624 0.713633 0.408324
O O1 0.414769 0.484445 0.187194
O O2 0.338430 0.361133 0.256084
O O3 0.333890 0.583815 0.122494
O O4 0.362657 0.332657 0.030272
O O5 0.560538 0.109448 0.904400
O O6 0.615437 0.888939 0.886357
O O7 0.527191 0.873449 0.848338
O O8 0.750000 0.503866 0.681506
O O9 0.669837 0.415057 0.584704
O O10 0.685015 0.390460 0.814453
O O11 0.677087 0.651502 0.714561
O O12 0.919192 0.856992 0.105349
O O13 0.250000 0.794635 0.801614
O O14 0.192064 0.790349 0.988781
O O15 0.500000 0.500000 0.631900
O O16 0.499529 0.257341 0.551516
O O17 0.525330 0.324447 0.800563
O O18 0.250000 0.192178 0.655593
#
# Coordination Sequence:
#
# PCOD9364153 Si02
#       8
#     8   8   8   8   8   8   8   8
#     4  11  21  35  59  88 115 150 209 245 296 364
#     4  10  20  39  59  82 121 159 190 251 310 356
#     4   9  19  36  58  86 120 156 199 249 305 368
#     4  10  20  37  64  87 120 161 205 247 308 368
#     4   9  19  37  57  80 116 155 193 247 304 355
#     4  11  21  42  65  91 122 165 206 259 313 374
#     4  10  21  37  57  85 119 157 198 249 303 357
#     4  10  21  41  64  86 123 160 199 252 311 367
#
# _framework density 21.805962000000001
#
# number of rings (size 3 to 8) (size 9 to 14) (size 15 to 20)
#    0.000    2.000    3.750    1.125    0.000    2.500 
#    4.500    4.375    0.000    6.000    0.000    0.000 
#    0.000    0.000    0.000    0.000    0.000    0.000 
#
# Total GULP energy -178463.957323 kJ/mol
# GULP energy per Si atom -5576.998666 kJ/mol
# Density = 2.175633 g / cm^3
# Si number density = 21.805962 Si / 1000 Ang^3
#
#
#
# Elastic Constant Matrix: (Units=GPa)
#
#
# Indices 1 2 3 4 5 6 
#
# 1 18.0577 13.7897 0.8949 0.0000 0.0000 0.0000
# 2 13.7897 91.9109 17.7759 0.0000 0.0000 0.0000
# 3 0.8949 17.7759 56.6905 0.0000 0.0000 0.0000
# 4 0.0000 0.0000 0.0000 29.1054 0.0000 0.0000
# 5 0.0000 0.0000 0.0000 0.0000 21.6258 0.0000
# 6 0.0000 0.0000 0.0000 0.0000 0.0000 277.5171
#
#
#
# Elastic Compliance Matrix: (Units=1/GPa)
#
#
# Indices 1 2 3 4 5 6 
#
# 1 0.062775 -0.009822 0.002089 0.000000 0.000000 0.000000
# 2 -0.009822 0.013119 -0.003959 0.000000 0.000000 0.000000
# 3 0.002089 -0.003959 0.018848 0.000000 0.000000 0.000000
# 4 0.000000 0.000000 0.000000 0.034358 0.000000 0.000000
# 5 0.000000 0.000000 0.000000 0.000000 0.046241 0.000000
# 6 0.000000 0.000000 0.000000 0.000000 0.000000 0.003603
#
#
# Mechanical properties :
#
#
# Convention : Reuss Voigt Hill
#
# Bulk Modulus (GPa) = 14.01377 25.73115 19.87246
# Shear Modulus (GPa) = 22.11260 74.59623 48.35442
#
# Velocity S-wave (km/s) = 3.18789 5.85520 4.71413
# Velocity P-wave (km/s) = 4.47110 7.58530 6.22606
#
# Compressibility (1/GPa) = 0.07135837
#
# Stress axis : x y z
#
# Youngs Moduli (GPa) = 15.92984 76.22291 53.05617
#
# Poissons Ratio (x) = 0.74869 -0.11083
# Poissons Ratio (y) = 0.15647 0.21003
# Poissons Ratio (z) = -0.03328 0.30174
#
# Static dielectric constant tensor:
#      x y z
#    x 1.804890 0.000000 0.000000 
#    y 0.000000 1.806120 0.000000 
#    z 0.000000 0.000000 1.801090 
# 
# From -- ./inp_files/14392.got.cif
#   From: 2010.05.17/outbox.cif.g08.bks.cpg/sg40_8_cif.got.tgz:14392.got - 2010.06.03 18:35:42.
