data_PCOD9364285
_publ_section_title
;
Structure prediction by ZEFSAII (Michael W. Deem and Ramdas Pophale) SiO2 
 PCOD9364285
Probable space group: A M A 2
;
_chemical_formula_sum "Si O2"
_cell_formula_units_Z 64
_cell_length_a 15.348323
_cell_length_b 12.396758
_cell_length_c 15.530990
_cell_angle_alpha 90.000000
_cell_angle_beta 90.000000
_cell_angle_gamma 90.000000
_cell_volume 2955.072862
_symmetry_space_group_name_H-M "A M A 2"
_symmetry_group_IT_number 40
_symmetry_cell_setting 'orthorhombic'
loop_
_space_group_symop_operation_xyz
x,y,z
-x,-y,z
1/2-x,y,z
1/2+x,-y,z
x,1/2+y,1/2+z
-x,1/2-y,1/2+z
1/2-x,1/2+y,1/2+z
1/2+x,1/2-y,1/2+z
loop_
_atom_site_type_symbol
_atom_site_label
_atom_site_fract_x
_atom_site_fract_y
_atom_site_fract_z
Si Si1 0.643734 0.031522 0.353220
Si Si2 0.907952 0.684009 0.695988
Si Si3 0.645468 0.061325 0.872486
Si Si4 0.652708 0.288302 0.836907
Si Si5 0.855302 0.579308 0.047505
Si Si6 0.145543 0.568101 0.204615
Si Si7 0.104984 0.991329 0.063684
Si Si8 0.890360 0.790865 0.149451
O O1 0.750000 0.034556 0.346686
O O2 0.613827 0.907680 0.340119
O O3 0.608799 0.111426 0.280234
O O4 0.616407 0.062011 0.449663
O O5 0.873937 0.805177 0.705742
O O6 0.868896 0.616563 0.615317
O O7 0.010053 0.694997 0.677658
O O8 0.750000 0.072810 0.861487
O O9 0.607839 0.183388 0.877070
O O10 0.612652 0.993657 0.790441
O O11 0.629698 0.007789 0.964182
O O12 0.750000 0.299242 0.875326
O O13 0.658396 0.259110 0.736359
O O14 0.750000 0.574099 0.046697
O O15 0.886521 0.490998 0.117558
O O16 0.882012 0.696268 0.081146
O O17 0.250000 0.556952 0.205115
O O18 0.141587 0.095700 0.112276
O O19 0.000000 0.000000 0.068370
#
# Coordination Sequence:
#
# PCOD9364285 Si02
#       8
#     8   8   8   8   8   8   8   8
#     4  10  22  40  66  94 123 163 208 260 314 365
#     4  11  24  41  60  90 128 162 208 259 313 369
#     4  10  22  39  63  94 123 160 207 254 308 365
#     4  10  20  39  64  90 119 160 210 253 305 365
#     4  10  22  42  65  92 126 162 208 259 308 370
#     4  10  22  41  62  90 127 161 202 258 309 368
#     4  10  24  42  60  86 125 164 206 255 308 367
#     4  11  22  42  63  86 124 167 206 254 308 369
#
# _framework density 21.657671000000001
#
# number of rings (size 3 to 8) (size 9 to 14) (size 15 to 20)
#    0.000    1.750    2.500    0.750    3.500    3.500 
#    2.250    1.250    0.000    0.000    0.000    0.000 
#    0.000    0.000    0.000    0.000    0.000    0.000 
#
# Total GULP energy -178786.819718 kJ/mol
# GULP energy per Si atom -5587.088116 kJ/mol
# Density = 2.160838 g / cm^3
# Si number density = 21.657671 Si / 1000 Ang^3
#
#
#
# Elastic Constant Matrix: (Units=GPa)
#
#
# Indices 1 2 3 4 5 6 
#
# 1 22.5260 -6.2096 1.7861 0.0000 0.0000 0.0000
# 2 -6.2096 105.0749 20.1745 0.0000 0.0000 0.0000
# 3 1.7861 20.1745 115.3568 0.0000 0.0000 0.0000
# 4 0.0000 0.0000 0.0000 36.6509 0.0000 0.0000
# 5 0.0000 0.0000 0.0000 0.0000 26.4902 0.0000
# 6 0.0000 0.0000 0.0000 0.0000 0.0000 7.0385
#
#
#
# Elastic Compliance Matrix: (Units=1/GPa)
#
#
# Indices 1 2 3 4 5 6 
#
# 1 0.045291 0.002909 -0.001210 0.000000 0.000000 0.000000
# 2 0.002909 0.010035 -0.001800 0.000000 0.000000 0.000000
# 3 -0.001210 -0.001800 0.009002 0.000000 0.000000 0.000000
# 4 0.000000 0.000000 0.000000 0.027284 0.000000 0.000000
# 5 0.000000 0.000000 0.000000 0.000000 0.037750 0.000000
# 6 0.000000 0.000000 0.000000 0.000000 0.000000 0.142075
#
#
# Mechanical properties :
#
#
# Convention : Reuss Voigt Hill
#
# Bulk Modulus (GPa) = 15.59436 30.49552 23.04494
# Shear Modulus (GPa) = 17.06398 29.18303 23.12351
#
# Velocity S-wave (km/s) = 2.80999 3.67477 3.27109
# Velocity P-wave (km/s) = 4.21237 5.66714 4.99303
#
# Compressibility (1/GPa) = 0.06412573
#
# Stress axis : x y z
#
# Youngs Moduli (GPa) = 22.07943 99.65594 111.08291
#
# Poissons Ratio (x) = -0.28989 0.13441
# Poissons Ratio (y) = -0.06423 0.19994
# Poissons Ratio (z) = 0.02672 0.17938
#
# Static dielectric constant tensor:
#      x y z
#    x 1.829170 0.000000 0.000000 
#    y 0.000000 1.786400 0.000000 
#    z 0.000000 0.000000 1.746170 
# 
# From -- ./inp_files/17899.got.cif
#   From: 2010.05.17/outbox.cif.g08.bks.cpg/sg40_9_cif.got.tgz:17899.got - 2010.06.03 18:35:42.
