data_PCOD9364780
_publ_section_title
;
Structure prediction by ZEFSAII (Michael W. Deem and Ramdas Pophale) SiO2 
 PCOD9364780
Probable space group: A M A 2
;
_chemical_formula_sum "Si O2"
_cell_formula_units_Z 56
_cell_length_a 14.939775
_cell_length_b 5.215773
_cell_length_c 30.692321
_cell_angle_alpha 90.000000
_cell_angle_beta 90.000000
_cell_angle_gamma 90.000000
_cell_volume 2391.621618
_symmetry_space_group_name_H-M "A M A 2"
_symmetry_group_IT_number 40
_symmetry_cell_setting 'orthorhombic'
loop_
_space_group_symop_operation_xyz
x,y,z
-x,-y,z
1/2-x,y,z
1/2+x,-y,z
x,1/2+y,1/2+z
-x,1/2-y,1/2+z
1/2-x,1/2+y,1/2+z
1/2+x,1/2-y,1/2+z
loop_
_atom_site_type_symbol
_atom_site_label
_atom_site_fract_x
_atom_site_fract_y
_atom_site_fract_z
Si Si1 0.750000 0.489787 0.722430
Si Si2 0.141100 0.989208 0.402547
Si Si3 0.922160 0.323326 0.772610
Si Si4 0.398069 0.885908 0.149246
Si Si5 0.600985 0.594172 0.550863
Si Si6 0.353543 0.407325 0.000350
Si Si7 0.000000 0.000000 0.695177
Si Si8 0.141850 0.994537 0.850849
O O1 0.830032 0.464462 0.759781
O O2 0.671967 0.510036 0.684116
O O3 0.250000 0.978206 0.403196
O O4 0.109771 0.926748 0.451324
O O5 0.112207 0.766540 0.369542
O O6 0.117483 0.269485 0.385039
O O7 0.897334 0.092446 0.804827
O O8 0.000000 0.500000 0.791569
O O9 0.964741 0.211419 0.728525
O O10 0.362877 0.903351 0.100146
O O11 0.419089 0.596129 0.165154
O O12 0.500000 0.000000 0.149921
O O13 0.500000 0.500000 0.554414
O O14 0.643257 0.378709 0.519670
O O15 0.603037 0.877747 0.530944
O O16 0.250000 0.486304 0.998389
O O17 0.250000 0.997240 0.846833
#
# Coordination Sequence:
#
# PCOD9364780 Si02
#       8
#     4   8   8   8   8   8   4   8
#     4  12  22  48  68  98 138 192 234 296 352 448
#     4   9  20  40  69 103 138 178 232 289 350 423
#     4  12  26  45  67 105 144 180 242 300 365 422
#     4  11  26  46  68 101 143 183 240 296 362 418
#     4  11  26  44  70 102 147 189 232 299 362 437
#     4  11  23  44  73 107 141 184 242 299 359 433
#     4  12  24  48  68  96 142 186 232 300 358 416
#     4  10  21  40  69 100 135 188 234 285 355 430
#
# _framework density 23.415077
#
# number of rings (size 3 to 8) (size 9 to 14) (size 15 to 20)
#    0.000    1.143    3.571    1.714    8.000    2.857 
#    2.571    2.857    1.571    0.000    0.000    0.000 
#    0.000    0.000    0.000    0.000    0.000    0.000 
#
# Total GULP energy -156080.343925 kJ/mol
# GULP energy per Si atom -5574.297997 kJ/mol
# Density = 2.336178 g / cm^3
# Si number density = 23.415077 Si / 1000 Ang^3
#
#
#
# Elastic Constant Matrix: (Units=GPa)
#
#
# Indices 1 2 3 4 5 6 
#
# 1 121.0780 16.0419 21.2165 0.0000 0.0000 0.0000
# 2 16.0419 66.1710 1.2003 0.0000 0.0000 0.0000
# 3 21.2165 1.2003 102.4230 0.0000 0.0000 0.0000
# 4 0.0000 0.0000 0.0000 30.1572 0.0000 0.0000
# 5 0.0000 0.0000 0.0000 0.0000 13.6797 0.0000
# 6 0.0000 0.0000 0.0000 0.0000 0.0000 28.2426
#
#
#
# Elastic Compliance Matrix: (Units=1/GPa)
#
#
# Indices 1 2 3 4 5 6 
#
# 1 0.008856 -0.002114 -0.001810 0.000000 0.000000 0.000000
# 2 -0.002114 0.015620 0.000255 0.000000 0.000000 0.000000
# 3 -0.001810 0.000255 0.010135 0.000000 0.000000 0.000000
# 4 0.000000 0.000000 0.000000 0.033160 0.000000 0.000000
# 5 0.000000 0.000000 0.000000 0.000000 0.073101 0.000000
# 6 0.000000 0.000000 0.000000 0.000000 0.000000 0.035407
#
#
# Mechanical properties :
#
#
# Convention : Reuss Voigt Hill
#
# Bulk Modulus (GPa) = 36.66528 40.73217 38.69873
# Shear Modulus (GPa) = 25.94577 31.16346 28.55462
#
# Velocity S-wave (km/s) = 3.33239 3.65213 3.49592
# Velocity P-wave (km/s) = 5.52262 5.93443 5.73223
#
# Compressibility (1/GPa) = 0.02727376
#
# Stress axis : x y z
#
# Youngs Moduli (GPa) = 112.91291 64.01934 98.66472
#
# Poissons Ratio (x) = 0.13535 0.17856
# Poissons Ratio (y) = 0.23872 -0.02515
# Poissons Ratio (z) = 0.20435 -0.01632
#
# Static dielectric constant tensor:
#      x y z
#    x 1.906890 0.000000 0.000000 
#    y 0.000000 1.927150 0.000000 
#    z 0.000000 0.000000 1.861540 
# 
# From -- ./inp_files/26615.got.cif
#   From: 2010.05.17/outbox.cif.g08.bks.cpg/sg40_14_cif.got.tgz:26615.got - 2010.06.03 18:35:42.
