data_PCOD9364895
_publ_section_title
;
Structure prediction by ZEFSAII (Michael W. Deem and Ramdas Pophale) SiO2 
 PCOD9364895
Probable space group: A M A 2
;
_chemical_formula_sum "Si O2"
_cell_formula_units_Z 36
_cell_length_a 8.163937
_cell_length_b 11.895295
_cell_length_c 16.478005
_cell_angle_alpha 90.000000
_cell_angle_beta 90.000000
_cell_angle_gamma 90.000000
_cell_volume 1600.219255
_symmetry_space_group_name_H-M "A M A 2"
_symmetry_group_IT_number 40
_symmetry_cell_setting 'orthorhombic'
loop_
_space_group_symop_operation_xyz
x,y,z
-x,-y,z
1/2-x,y,z
1/2+x,-y,z
x,1/2+y,1/2+z
-x,1/2-y,1/2+z
1/2-x,1/2+y,1/2+z
1/2+x,1/2-y,1/2+z
loop_
_atom_site_type_symbol
_atom_site_label
_atom_site_fract_x
_atom_site_fract_y
_atom_site_fract_z
Si Si1 0.430058 0.812927 0.865030
Si Si2 0.063015 0.161759 0.690099
Si Si3 0.250000 0.833511 0.404026
Si Si4 0.250000 0.856393 0.593273
Si Si5 0.750000 0.401835 0.608643
Si Si6 0.500000 0.000000 0.987534
Si Si7 0.250000 0.382202 0.720315
O O1 0.250000 0.757654 0.857149
O O2 0.488714 0.860290 0.778617
O O3 0.581738 0.737574 0.895448
O O4 0.414138 0.913548 0.928120
O O5 0.250000 0.116847 0.680254
O O6 0.099732 0.298771 0.693667
O O7 0.930471 0.114605 0.627545
O O8 0.250000 0.876905 0.496426
O O9 0.250000 0.900106 0.317726
O O10 0.250000 0.727625 0.628236
O O11 0.601885 0.424315 0.547969
O O12 0.750000 0.498814 0.676134
#
# Coordination Sequence:
#
# PCOD9364895 Si02
#       7
#     8   8   4   4   4   4   4
#     4  11  20  36  55  80 121 160 185 236 312 358
#     4   9  21  36  54  78 117 155 204 236 286 365
#     4  10  22  38  54  80 125 157 206 238 287 367
#     4  12  20  35  60  86 113 160 196 248 296 350
#     4  12  22  33  55  89 128 151 187 246 306 350
#     4  12  22  32  54  96 124 142 188 248 300 362
#     4   8  20  38  49  77 124 166 183 246 293 361
#
# _framework density 22.496918000000001
#
# number of rings (size 3 to 8) (size 9 to 14) (size 15 to 20)
#    0.667    0.889    5.556    1.333    0.000    0.889 
#    0.000    0.000    0.000    0.000    0.000    7.778 
#    0.000    0.000    0.000    0.000    0.000    0.000 
#
# Total GULP energy -100242.952217 kJ/mol
# GULP energy per Si atom -5569.052901 kJ/mol
# Density = 2.244571 g / cm^3
# Si number density = 22.496918 Si / 1000 Ang^3
#
#
#
# Elastic Constant Matrix: (Units=GPa)
#
#
# Indices 1 2 3 4 5 6 
#
# 1 188.8287 17.0288 65.1555 0.0000 0.0000 0.0000
# 2 17.0288 76.7756 20.2078 0.0000 0.0000 0.0000
# 3 65.1555 20.2078 171.8962 0.0000 0.0000 0.0000
# 4 0.0000 0.0000 0.0000 28.0677 0.0000 0.0000
# 5 0.0000 0.0000 0.0000 0.0000 51.3445 0.0000
# 6 0.0000 0.0000 0.0000 0.0000 0.0000 15.9983
#
#
#
# Elastic Compliance Matrix: (Units=1/GPa)
#
#
# Indices 1 2 3 4 5 6 
#
# 1 0.006137 -0.000773 -0.002235 0.000000 0.000000 0.000000
# 2 -0.000773 0.013538 -0.001299 0.000000 0.000000 0.000000
# 3 -0.002235 -0.001299 0.006817 0.000000 0.000000 0.000000
# 4 0.000000 0.000000 0.000000 0.035628 0.000000 0.000000
# 5 0.000000 0.000000 0.000000 0.000000 0.019476 0.000000
# 6 0.000000 0.000000 0.000000 0.000000 0.000000 0.062506
#
#
# Mechanical properties :
#
#
# Convention : Reuss Voigt Hill
#
# Bulk Modulus (GPa) = 55.93139 71.36496 63.64818
# Shear Modulus (GPa) = 31.51073 41.42267 36.46670
#
# Velocity S-wave (km/s) = 3.74661 4.29565 4.03049
# Velocity P-wave (km/s) = 6.60544 7.50962 7.07200
#
# Compressibility (1/GPa) = 0.01787905
#
# Stress axis : x y z
#
# Youngs Moduli (GPa) = 162.95223 73.86517 146.68423
#
# Poissons Ratio (x) = 0.05708 0.32787
# Poissons Ratio (y) = 0.12593 0.19048
# Poissons Ratio (z) = 0.36424 0.09592
#
# Static dielectric constant tensor:
#      x y z
#    x 1.958810 0.000000 0.000000 
#    y 0.000000 1.867970 0.000000 
#    z 0.000000 0.000000 1.798450 
# 
# From -- ./inp_files/14776.got.cif
#   From: 2010.05.17/outbox.cif.g08.bks.cpg/sg40_8_cif.got.tgz:14776.got - 2010.06.03 18:35:42.
