data_PCOD9364716
_publ_section_title
;
Structure prediction by ZEFSAII (Michael W. Deem and Ramdas Pophale) SiO2 
 PCOD9364716
Probable space group: A M A 2
;
_chemical_formula_sum "Si O2"
_cell_formula_units_Z 60
_cell_length_a 20.542262
_cell_length_b 27.885043
_cell_length_c 4.948843
_cell_angle_alpha 90.000000
_cell_angle_beta 90.000000
_cell_angle_gamma 90.000000
_cell_volume 2834.805448
_symmetry_space_group_name_H-M "A M A 2"
_symmetry_group_IT_number 40
_symmetry_cell_setting 'orthorhombic'
loop_
_space_group_symop_operation_xyz
x,y,z
-x,-y,z
1/2-x,y,z
1/2+x,-y,z
x,1/2+y,1/2+z
-x,1/2-y,1/2+z
1/2-x,1/2+y,1/2+z
1/2+x,1/2-y,1/2+z
loop_
_atom_site_type_symbol
_atom_site_label
_atom_site_fract_x
_atom_site_fract_y
_atom_site_fract_z
Si Si1 0.101559 0.601893 0.427820
Si Si2 0.250000 0.419033 0.261776
Si Si3 0.632936 0.613468 0.979837
Si Si4 0.674916 0.432747 0.922603
Si Si5 0.347875 0.970346 0.099014
Si Si6 0.048379 0.804898 0.229847
Si Si7 0.459587 0.193940 0.728075
Si Si8 0.971829 0.548326 0.281407
O O1 0.131529 0.599829 0.723799
O O2 0.093021 0.655196 0.314989
O O3 0.030584 0.577885 0.410478
O O4 0.146056 0.571321 0.221800
O O5 0.309560 0.380659 0.195537
O O6 0.305514 0.460795 0.334698
O O7 0.604542 0.659521 0.827904
O O8 0.571151 0.583722 0.097063
O O9 0.667852 0.577467 0.769273
O O10 0.750000 0.418500 0.923416
O O11 0.668828 0.484624 0.781670
O O12 0.422563 0.970021 0.011430
O O13 0.022037 0.812685 0.927450
O O14 0.063986 0.748585 0.259498
O O15 0.986749 0.813718 0.427751
O O16 0.000000 0.500000 0.143764
#
# Coordination Sequence:
#
# PCOD9364716 Si02
#       8
#     8   4   8   8   8   8   8   8
#     4  12  24  42  65  94 129 162 214 278 316 377
#     4  10  24  40  58  86 126 174 222 256 316 380
#     4  11  23  38  62  89 129 167 212 263 324 390
#     4  12  27  43  66  87 127 182 225 250 310 388
#     4  11  23  38  61  87 128 170 215 262 313 388
#     4  10  21  39  69  95 130 161 209 261 336 413
#     4  10  21  41  65 101 125 162 205 271 339 382
#     4  11  22  36  58  96 126 160 201 268 332 377
#
# _framework density 21.165472000000001
#
# number of rings (size 3 to 8) (size 9 to 14) (size 15 to 20)
#    0.000    1.067    3.333    3.200    5.600    0.533 
#    0.000    0.000    2.933    0.000    0.000    0.000 
#    0.000    0.000    0.000    0.000    0.000    0.000 
#
# Total GULP energy -167253.526958 kJ/mol
# GULP energy per Si atom -5575.117565 kJ/mol
# Density = 2.111730 g / cm^3
# Si number density = 21.165472 Si / 1000 Ang^3
#
#
#
# Elastic Constant Matrix: (Units=GPa)
#
#
# Indices 1 2 3 4 5 6 
#
# 1 114.0192 17.6378 8.4387 0.0000 0.0000 0.0000
# 2 17.6378 82.7964 -13.1940 0.0000 0.0000 0.0000
# 3 8.4387 -13.1940 58.2030 0.0000 0.0000 0.0000
# 4 0.0000 0.0000 0.0000 26.9915 0.0000 0.0000
# 5 0.0000 0.0000 0.0000 0.0000 105.6420 0.0000
# 6 0.0000 0.0000 0.0000 0.0000 0.0000 5.7443
#
#
#
# Elastic Compliance Matrix: (Units=1/GPa)
#
#
# Indices 1 2 3 4 5 6 
#
# 1 0.009259 -0.002268 -0.001857 0.000000 0.000000 0.000000
# 2 -0.002268 0.013086 0.003295 0.000000 0.000000 0.000000
# 3 -0.001857 0.003295 0.018197 0.000000 0.000000 0.000000
# 4 0.000000 0.000000 0.000000 0.037049 0.000000 0.000000
# 5 0.000000 0.000000 0.000000 0.000000 0.009466 0.000000
# 6 0.000000 0.000000 0.000000 0.000000 0.000000 0.174085
#
#
# Mechanical properties :
#
#
# Convention : Reuss Voigt Hill
#
# Bulk Modulus (GPa) = 25.71790 31.19818 28.45804
# Shear Modulus (GPa) = 18.13161 43.81796 30.97479
#
# Velocity S-wave (km/s) = 2.93005 4.55494 3.82967
# Velocity P-wave (km/s) = 4.86047 6.51425 5.74716
#
# Compressibility (1/GPa) = 0.03888342
#
# Stress axis : x y z
#
# Youngs Moduli (GPa) = 108.00615 76.41674 54.95281
#
# Poissons Ratio (x) = 0.17333 0.10202
# Poissons Ratio (y) = 0.24498 -0.18109
# Poissons Ratio (z) = 0.20052 -0.25182
#
# Static dielectric constant tensor:
#      x y z
#    x 1.697510 0.000000 0.000000 
#    y 0.000000 1.789220 0.000000 
#    z 0.000000 0.000000 1.889750 
# 
# From -- ./inp_files/1995.got.cif
#   From: 2010.05.17/outbox.cif.g08.bks.cpg/sg40_1_cif.got.tgz:1995.got - 2010.06.03 18:35:42.
