data_PCOD9364047
_publ_section_title
;
Structure prediction by ZEFSAII (Michael W. Deem and Ramdas Pophale) SiO2 
 PCOD9364047
Probable space group: A M A 2
;
_chemical_formula_sum "Si O2"
_cell_formula_units_Z 64
_cell_length_a 16.797454
_cell_length_b 15.235696
_cell_length_c 12.586884
_cell_angle_alpha 90.000000
_cell_angle_beta 90.000000
_cell_angle_gamma 90.000000
_cell_volume 3221.246716
_symmetry_space_group_name_H-M "A M A 2"
_symmetry_group_IT_number 40
_symmetry_cell_setting 'orthorhombic'
loop_
_space_group_symop_operation_xyz
x,y,z
-x,-y,z
1/2-x,y,z
1/2+x,-y,z
x,1/2+y,1/2+z
-x,1/2-y,1/2+z
1/2-x,1/2+y,1/2+z
1/2+x,1/2-y,1/2+z
loop_
_atom_site_type_symbol
_atom_site_label
_atom_site_fract_x
_atom_site_fract_y
_atom_site_fract_z
Si Si1 0.449114 0.758920 0.439010
Si Si2 0.846284 0.497575 0.247756
Si Si3 0.972444 0.407992 0.810555
Si Si4 0.843722 0.864027 0.173705
Si Si5 0.346033 0.831062 0.620718
Si Si6 0.654199 0.998274 0.991558
Si Si7 0.564018 0.657422 0.600802
Si Si8 0.846350 0.301783 0.237393
O O1 0.509457 0.826093 0.383594
O O2 0.388778 0.817517 0.508974
O O3 0.502503 0.698350 0.515922
O O4 0.395045 0.714082 0.347337
O O5 0.750000 0.505171 0.250853
O O6 0.874383 0.583021 0.183874
O O7 0.874016 0.495181 0.370005
O O8 0.863576 0.401648 0.200947
O O9 0.018356 0.387834 0.699591
O O10 0.000000 0.500000 0.856657
O O11 0.882241 0.413303 0.772151
O O12 0.750000 0.867555 0.179835
O O13 0.866512 0.761350 0.178196
O O14 0.864996 0.913095 0.063414
O O15 0.250000 0.834498 0.609093
O O16 0.750000 0.005135 0.990404
O O17 0.616245 0.082687 0.046034
O O18 0.619387 0.732635 0.652865
O O19 0.750000 0.293073 0.253165
#
# Coordination Sequence:
#
# PCOD9364047 Si02
#       8
#     8   8   8   8   8   8   8   8
#     4  11  24  38  62  88 124 164 204 247 317 371
#     4   9  20  36  62  93 117 147 202 253 294 353
#     4  11  23  41  58  88 125 157 204 257 304 363
#     4  10  20  37  63  87 120 161 204 250 305 367
#     4  10  20  38  62  89 120 160 205 251 301 367
#     4  10  20  36  61  93 118 155 202 251 307 364
#     4  11  23  38  60  88 124 160 200 254 311 364
#     4  10  22  43  63  87 121 164 209 253 301 375
#
# _framework density 19.868082999999999
#
# number of rings (size 3 to 8) (size 9 to 14) (size 15 to 20)
#    0.000    1.750    2.500    1.500    1.750    3.000 
#    0.000    2.500    0.000    0.000    0.000    0.000 
#    0.000    0.000    0.000    0.000    0.000    0.000 
#
# Total GULP energy -178588.629381 kJ/mol
# GULP energy per Si atom -5580.894668 kJ/mol
# Density = 1.982286 g / cm^3
# Si number density = 19.868083 Si / 1000 Ang^3
#
#
#
# Elastic Constant Matrix: (Units=GPa)
#
#
# Indices 1 2 3 4 5 6 
#
# 1 44.7934 41.7919 29.2094 0.0000 0.0000 0.0000
# 2 41.7919 142.8325 38.8086 0.0000 0.0000 0.0000
# 3 29.2094 38.8086 27.2584 0.0000 0.0000 0.0000
# 4 0.0000 0.0000 0.0000 35.8074 0.0000 0.0000
# 5 0.0000 0.0000 0.0000 0.0000 26.5376 0.0000
# 6 0.0000 0.0000 0.0000 0.0000 0.0000 21.6704
#
#
#
# Elastic Compliance Matrix: (Units=1/GPa)
#
#
# Indices 1 2 3 4 5 6 
#
# 1 0.074113 -0.000174 -0.079170 0.000000 0.000000 0.000000
# 2 -0.000174 0.011419 -0.016071 0.000000 0.000000 0.000000
# 3 -0.079170 -0.016071 0.144403 0.000000 0.000000 0.000000
# 4 0.000000 0.000000 0.000000 0.027927 0.000000 0.000000
# 5 0.000000 0.000000 0.000000 0.000000 0.037682 0.000000
# 6 0.000000 0.000000 0.000000 0.000000 0.000000 0.046146
#
#
# Mechanical properties :
#
#
# Convention : Reuss Voigt Hill
#
# Bulk Modulus (GPa) = 25.57203 48.27825 36.92514
# Shear Modulus (GPa) = 9.16499 23.80804 16.48651
#
# Velocity S-wave (km/s) = 2.15010 3.46541 2.88375
# Velocity P-wave (km/s) = 4.36609 6.35329 5.45101
#
# Compressibility (1/GPa) = 0.03910523
#
# Stress axis : x y z
#
# Youngs Moduli (GPa) = 13.49288 87.57634 6.92508
#
# Poissons Ratio (x) = 0.01523 0.54826
# Poissons Ratio (y) = 0.00235 0.11129
# Poissons Ratio (z) = 1.06823 1.40741
#
# Static dielectric constant tensor:
#      x y z
#    x 1.719070 0.000000 0.000000 
#    y 0.000000 1.700250 0.000000 
#    z 0.000000 0.000000 1.699920 
# 
# From -- ./inp_files/13142.got.cif
#   From: 2010.05.17/outbox.cif.g08.bks.cpg/sg40_7_cif.got.tgz:13142.got - 2010.06.03 18:35:42.
