data_PCOD9364294
_publ_section_title
;
Structure prediction by ZEFSAII (Michael W. Deem and Ramdas Pophale) SiO2 
 PCOD9364294
Probable space group: A M A 2
;
_chemical_formula_sum "Si O2"
_cell_formula_units_Z 64
_cell_length_a 15.821542
_cell_length_b 15.522279
_cell_length_c 12.219681
_cell_angle_alpha 90.000000
_cell_angle_beta 90.000000
_cell_angle_gamma 90.000000
_cell_volume 3000.987333
_symmetry_space_group_name_H-M "A M A 2"
_symmetry_group_IT_number 40
_symmetry_cell_setting 'orthorhombic'
loop_
_space_group_symop_operation_xyz
x,y,z
-x,-y,z
1/2-x,y,z
1/2+x,-y,z
x,1/2+y,1/2+z
-x,1/2-y,1/2+z
1/2-x,1/2+y,1/2+z
1/2+x,1/2-y,1/2+z
loop_
_atom_site_type_symbol
_atom_site_label
_atom_site_fract_x
_atom_site_fract_y
_atom_site_fract_z
Si Si1 0.413161 0.312616 0.963130
Si Si2 0.649650 0.942255 0.232498
Si Si3 0.653718 0.160091 0.989701
Si Si4 0.100266 0.488587 0.072727
Si Si5 0.851705 0.874799 0.999545
Si Si6 0.893834 0.347220 0.943720
Si Si7 0.350490 0.356268 0.734098
Si Si8 0.147209 0.487114 0.325630
O O1 0.380966 0.222897 0.009457
O O2 0.512518 0.322072 0.981470
O O3 0.394639 0.308772 0.833706
O O4 0.372399 0.398910 0.015707
O O5 0.750000 0.922696 0.240644
O O6 0.603129 0.885132 0.321810
O O7 0.638783 0.042509 0.256825
O O8 0.621830 0.924823 0.108913
O O9 0.750000 0.128096 0.007667
O O10 0.615809 0.160241 0.111761
O O11 0.655126 0.257639 0.948220
O O12 0.618048 0.094406 0.899667
O O13 0.114970 0.484675 0.202090
O O14 0.000000 0.500000 0.051097
O O15 0.140254 0.574319 0.018572
O O16 0.750000 0.875516 0.996140
O O17 0.879680 0.927353 0.892156
O O18 0.250000 0.335068 0.737634
O O19 0.250000 0.485313 0.319427
#
# Coordination Sequence:
#
# PCOD9364294 Si02
#       8
#     8   8   8   8   8   8   8   8
#     4  11  24  41  60  87 123 161 199 243 293 352
#     4  10  20  39  66  90 116 151 197 251 301 351
#     4  10  22  41  63  91 120 152 197 249 299 352
#     4  10  24  43  58  82 124 163 197 240 291 352
#     4  10  22  41  63  91 120 152 197 249 299 352
#     4  11  24  41  60  87 123 161 199 243 293 352
#     4  10  20  39  66  90 116 151 197 251 301 351
#     4  10  22  41  64  88 118 155 197 246 299 352
#
# _framework density 21.326315000000001
#
# number of rings (size 3 to 8) (size 9 to 14) (size 15 to 20)
#    0.000    1.750    2.500    0.750    3.500    4.000 
#    0.000    0.000    0.000    0.000    0.000    0.000 
#    0.000    0.000    0.000    0.000    0.000    0.000 
#
# Total GULP energy -178736.289563 kJ/mol
# GULP energy per Si atom -5585.509049 kJ/mol
# Density = 2.127777 g / cm^3
# Si number density = 21.326315 Si / 1000 Ang^3
#
#
#
# Elastic Constant Matrix: (Units=GPa)
#
#
# Indices 1 2 3 4 5 6 
#
# 1 7.0449 16.0772 -5.0309 0.0000 0.0000 0.0000
# 2 16.0772 74.1112 7.2904 0.0000 0.0000 0.0000
# 3 -5.0309 7.2904 75.6091 0.0000 0.0000 0.0000
# 4 0.0000 0.0000 0.0000 30.4045 0.0000 0.0000
# 5 0.0000 0.0000 0.0000 0.0000 34.4357 0.0000
# 6 0.0000 0.0000 0.0000 0.0000 0.0000 6.6728
#
#
#
# Elastic Compliance Matrix: (Units=1/GPa)
#
#
# Indices 1 2 3 4 5 6 
#
# 1 0.336315 -0.075879 0.029694 0.000000 0.000000 0.000000
# 2 -0.075879 0.030742 -0.008013 0.000000 0.000000 0.000000
# 3 0.029694 -0.008013 0.015974 0.000000 0.000000 0.000000
# 4 0.000000 0.000000 0.000000 0.032890 0.000000 0.000000
# 5 0.000000 0.000000 0.000000 0.000000 0.029040 0.000000
# 6 0.000000 0.000000 0.000000 0.000000 0.000000 0.149861
#
#
# Mechanical properties :
#
#
# Convention : Reuss Voigt Hill
#
# Bulk Modulus (GPa) = 3.64119 21.49320 12.56720
# Shear Modulus (GPa) = 6.29119 23.53117 14.91118
#
# Velocity S-wave (km/s) = 1.71941 3.32533 2.64709
# Velocity P-wave (km/s) = 2.37758 4.98436 3.90492
#
# Compressibility (1/GPa) = 0.27463526
#
# Stress axis : x y z
#
# Youngs Moduli (GPa) = 2.97341 32.52858 62.60039
#
# Poissons Ratio (x) = 2.46824 -1.85886
# Poissons Ratio (y) = 0.22562 0.50162
# Poissons Ratio (z) = -0.08829 0.26065
#
# Static dielectric constant tensor:
#      x y z
#    x 1.784270 0.000000 0.000000 
#    y 0.000000 1.748050 0.000000 
#    z 0.000000 0.000000 1.746370 
# 
# From -- ./inp_files/13091.got.cif
#   From: 2010.05.17/outbox.cif.g08.bks.cpg/sg40_7_cif.got.tgz:13091.got - 2010.06.03 18:35:42.
