data_PCOD9364135
_publ_section_title
;
Structure prediction by ZEFSAII (Michael W. Deem and Ramdas Pophale) SiO2 
 PCOD9364135
Probable space group: A M A 2
;
_chemical_formula_sum "Si O2"
_cell_formula_units_Z 48
_cell_length_a 16.479387
_cell_length_b 4.976290
_cell_length_c 28.298227
_cell_angle_alpha 90.000000
_cell_angle_beta 90.000000
_cell_angle_gamma 90.000000
_cell_volume 2320.630310
_symmetry_space_group_name_H-M "A M A 2"
_symmetry_group_IT_number 40
_symmetry_cell_setting 'orthorhombic'
loop_
_space_group_symop_operation_xyz
x,y,z
-x,-y,z
1/2-x,y,z
1/2+x,-y,z
x,1/2+y,1/2+z
-x,1/2-y,1/2+z
1/2-x,1/2+y,1/2+z
1/2+x,1/2-y,1/2+z
loop_
_atom_site_type_symbol
_atom_site_label
_atom_site_fract_x
_atom_site_fract_y
_atom_site_fract_z
Si Si1 0.842132 0.404524 0.067030
Si Si2 0.097414 0.015033 0.357652
Si Si3 0.156168 0.023196 0.911282
Si Si4 0.060268 0.245737 0.660430
Si Si5 0.408383 0.579172 0.514783
Si Si6 0.439679 0.256112 0.762157
O O1 0.750000 0.496041 0.073422
O O2 0.883012 0.329157 0.116803
O O3 0.889230 0.627612 0.035874
O O4 0.847199 0.127841 0.038753
O O5 0.146118 0.823965 0.392504
O O6 0.110073 0.873932 0.306450
O O7 0.123780 0.316102 0.371299
O O8 0.000000 0.000000 0.365068
O O9 0.250000 0.961575 0.921371
O O10 0.104232 0.028951 0.959150
O O11 0.105118 0.240392 0.711664
O O12 0.000000 0.500000 0.651394
O O13 0.000000 0.000000 0.665981
O O14 0.500000 0.500000 0.527644
O O15 0.500000 0.500000 0.752353
O O16 0.500000 0.000000 0.773070
#
# Coordination Sequence:
#
# PCOD9364135 Si02
#       6
#     8   8   8   8   8   8
#     4  12  24  40  61  91 125 157 194 251 311 360
#     4  11  21  39  64  89 117 157 206 249 293 359
#     4  12  25  41  59  88 124 158 195 250 312 363
#     4  10  20  37  62  89 120 160 206 249 296 360
#     4  12  25  43  64  86 115 160 208 249 294 362
#     4   9  18  34  60  91 119 154 203 256 298 346
#
# _framework density 20.684034
#
# number of rings (size 3 to 8) (size 9 to 14) (size 15 to 20)
#    0.000    1.000    0.000    9.500    0.000    0.000 
#    0.000    1.667    0.000    0.000    0.000    0.000 
#    0.000    0.000    0.000    0.000    0.000    0.000 
#
# Total GULP energy -133798.875844 kJ/mol
# GULP energy per Si atom -5574.953160 kJ/mol
# Density = 2.063696 g / cm^3
# Si number density = 20.684034 Si / 1000 Ang^3
#
#
#
# Elastic Constant Matrix: (Units=GPa)
#
#
# Indices 1 2 3 4 5 6 
#
# 1 77.0616 2.7357 10.4959 0.0000 0.0000 0.0000
# 2 2.7357 103.9078 5.5830 0.0000 0.0000 0.0000
# 3 10.4959 5.5830 126.0168 0.0000 0.0000 0.0000
# 4 0.0000 0.0000 0.0000 29.9919 0.0000 0.0000
# 5 0.0000 0.0000 0.0000 0.0000 -97.9975 0.0000
# 6 0.0000 0.0000 0.0000 0.0000 0.0000 28.2086
#
#
#
# Elastic Compliance Matrix: (Units=1/GPa)
#
#
# Indices 1 2 3 4 5 6 
#
# 1 0.013134 -0.000288 -0.001081 0.000000 0.000000 0.000000
# 2 -0.000288 0.009653 -0.000404 0.000000 0.000000 0.000000
# 3 -0.001081 -0.000404 0.008043 0.000000 0.000000 0.000000
# 4 0.000000 0.000000 0.000000 0.033342 0.000000 0.000000
# 5 0.000000 0.000000 0.000000 0.000000 -0.010204 0.000000
# 6 0.000000 0.000000 0.000000 0.000000 0.000000 0.035450
#
#
# Mechanical properties :
#
#
# Convention : Reuss Voigt Hill
#
# Bulk Modulus (GPa) = 36.64956 38.29062 37.47009
# Shear Modulus (GPa) = 48.99115 11.25203 30.12159
#
# Velocity S-wave (km/s) = 4.87205 2.33490 3.82025
# Velocity P-wave (km/s) = 7.02897 5.08147 6.13302
#
# Compressibility (1/GPa) = 0.02728546
#
# Stress axis : x y z
#
# Youngs Moduli (GPa) = 76.13764 103.59282 124.32573
#
# Poissons Ratio (x) = 0.02980 0.13442
# Poissons Ratio (y) = 0.02191 0.05019
# Poissons Ratio (z) = 0.08232 0.04182
#
# Static dielectric constant tensor:
#      x y z
#    x 1.875620 0.000000 0.000000 
#    y 0.000000 1.678190 0.000000 
#    z 0.000000 0.000000 1.926080 
# 
# From -- ./inp_files/25717.got.cif
#   From: 2010.05.17/outbox.cif.g08.bks.cpg/sg40_13_cif.got.tgz:25717.got - 2010.06.03 18:35:42.
