data_PCOD9364802
_publ_section_title
;
Structure prediction by ZEFSAII (Michael W. Deem and Ramdas Pophale) SiO2 
 PCOD9364802
Probable space group: A M A 2
;
_chemical_formula_sum "Si O2"
_cell_formula_units_Z 56
_cell_length_a 18.895017
_cell_length_b 24.018959
_cell_length_c 5.750553
_cell_angle_alpha 90.000000
_cell_angle_beta 90.000000
_cell_angle_gamma 90.000000
_cell_volume 2609.823145
_symmetry_space_group_name_H-M "A M A 2"
_symmetry_group_IT_number 40
_symmetry_cell_setting 'orthorhombic'
loop_
_space_group_symop_operation_xyz
x,y,z
-x,-y,z
1/2-x,y,z
1/2+x,-y,z
x,1/2+y,1/2+z
-x,1/2-y,1/2+z
1/2-x,1/2+y,1/2+z
1/2+x,1/2-y,1/2+z
loop_
_atom_site_type_symbol
_atom_site_label
_atom_site_fract_x
_atom_site_fract_y
_atom_site_fract_z
Si Si1 0.666498 0.033890 0.126550
Si Si2 0.829789 0.653544 0.426649
Si Si3 0.064291 0.703483 0.639402
Si Si4 0.472344 0.822155 0.767429
Si Si5 0.615315 0.860243 0.528934
Si Si6 0.163792 0.515105 0.123681
Si Si7 0.826923 0.756801 0.774973
O O1 0.750000 0.019257 0.130635
O O2 0.661235 0.099998 0.089672
O O3 0.639743 0.015950 0.383375
O O4 0.639488 0.007772 0.878878
O O5 0.750000 0.650917 0.327299
O O6 0.893995 0.654082 0.244481
O O7 0.836336 0.709326 0.581026
O O8 0.031545 0.754707 0.780179
O O9 0.111274 0.738842 0.459145
O O10 0.003784 0.666347 0.523022
O O11 0.116050 0.660328 0.764513
O O12 0.533970 0.845096 0.602119
O O13 0.636834 0.922062 0.588561
O O14 0.666527 0.816913 0.655951
O O15 0.250000 0.512981 0.127715
O O16 0.750000 0.748352 0.883529
#
# Coordination Sequence:
#
# PCOD9364802 Si02
#       7
#     8   8   8   8   8   8   8
#     4   9  21  42  67  93 127 173 219 267 328 388
#     4  10  21  41  66  93 124 163 217 274 329 390
#     4  11  21  37  59  87 130 173 202 250 329 399
#     4  11  21  38  60  88 124 165 209 255 318 396
#     4  11  23  38  63  89 129 168 212 256 333 392
#     4  10  22  42  67  95 129 171 220 269 321 389
#     4  10  22  36  58  98 128 155 210 269 323 385
#
# _framework density 21.457391999999999
#
# number of rings (size 3 to 8) (size 9 to 14) (size 15 to 20)
#    0.000    1.714    2.857    1.286    4.000    2.857 
#    0.000    3.571    0.000    0.000    0.000    0.000 
#    0.000    0.000    0.000    0.000    0.000    0.000 
#
# Total GULP energy -155978.639215 kJ/mol
# GULP energy per Si atom -5570.665686 kJ/mol
# Density = 2.140855 g / cm^3
# Si number density = 21.457392 Si / 1000 Ang^3
#
#
#
# Elastic Constant Matrix: (Units=GPa)
#
#
# Indices 1 2 3 4 5 6 
#
# 1 89.2176 13.9338 17.4279 0.0000 0.0000 0.0000
# 2 13.9338 75.7311 18.3387 0.0000 0.0000 0.0000
# 3 17.4279 18.3387 63.3488 0.0000 0.0000 0.0000
# 4 0.0000 0.0000 0.0000 14.5304 0.0000 0.0000
# 5 0.0000 0.0000 0.0000 0.0000 10.2562 0.0000
# 6 0.0000 0.0000 0.0000 0.0000 0.0000 14.1854
#
#
#
# Elastic Compliance Matrix: (Units=1/GPa)
#
#
# Indices 1 2 3 4 5 6 
#
# 1 0.012005 -0.001515 -0.002864 0.000000 0.000000 0.000000
# 2 -0.001515 0.014391 -0.003749 0.000000 0.000000 0.000000
# 3 -0.002864 -0.003749 0.017659 0.000000 0.000000 0.000000
# 4 0.000000 0.000000 0.000000 0.068821 0.000000 0.000000
# 5 0.000000 0.000000 0.000000 0.000000 0.097502 0.000000
# 6 0.000000 0.000000 0.000000 0.000000 0.000000 0.070495
#
#
# Mechanical properties :
#
#
# Convention : Reuss Voigt Hill
#
# Bulk Modulus (GPa) = 35.97388 36.41095 36.19242
# Shear Modulus (GPa) = 16.31873 19.70086 18.00979
#
# Velocity S-wave (km/s) = 2.76074 3.03337 2.90026
# Velocity P-wave (km/s) = 5.19268 5.41057 5.30274
#
# Compressibility (1/GPa) = 0.02779795
#
# Stress axis : x y z
#
# Youngs Moduli (GPa) = 83.30105 69.48642 56.62871
#
# Poissons Ratio (x) = 0.10529 0.16218
# Poissons Ratio (y) = 0.12622 0.21232
# Poissons Ratio (z) = 0.23857 0.26052
#
# Static dielectric constant tensor:
#      x y z
#    x 1.780770 0.000000 0.000000 
#    y 0.000000 1.750480 0.000000 
#    z 0.000000 0.000000 1.970630 
# 
# From -- ./inp_files/2403.got.cif
#   From: 2010.05.17/outbox.cif.g08.bks.cpg/sg40_2_cif.got.tgz:2403.got - 2010.06.03 18:35:42.
