data_PCOD9364036
_publ_section_title
;
Structure prediction by ZEFSAII (Michael W. Deem and Ramdas Pophale) SiO2 
 PCOD9364036
Probable space group: A M A 2
;
_chemical_formula_sum "Si O2"
_cell_formula_units_Z 48
_cell_length_a 15.631244
_cell_length_b 18.195663
_cell_length_c 8.992000
_cell_angle_alpha 90.000000
_cell_angle_beta 90.000000
_cell_angle_gamma 90.000000
_cell_volume 2557.512266
_symmetry_space_group_name_H-M "A M A 2"
_symmetry_group_IT_number 40
_symmetry_cell_setting 'orthorhombic'
loop_
_space_group_symop_operation_xyz
x,y,z
-x,-y,z
1/2-x,y,z
1/2+x,-y,z
x,1/2+y,1/2+z
-x,1/2-y,1/2+z
1/2-x,1/2+y,1/2+z
1/2+x,1/2-y,1/2+z
loop_
_atom_site_type_symbol
_atom_site_label
_atom_site_fract_x
_atom_site_fract_y
_atom_site_fract_z
Si Si1 0.994242 0.673155 0.983910
Si Si2 0.652527 0.920955 0.966510
Si Si3 0.004378 0.673223 0.335132
Si Si4 0.912670 0.045912 0.316235
Si Si5 0.344862 0.105938 0.318143
Si Si6 0.349404 0.904993 0.000906
O O1 0.933207 0.605335 0.940787
O O2 0.969883 0.749736 0.909020
O O3 0.084560 0.650054 0.908827
O O4 0.996793 0.682049 0.159432
O O5 0.750000 0.900026 0.926716
O O6 0.579281 0.884104 0.871075
O O7 0.639181 0.897252 0.139682
O O8 0.645981 0.009087 0.954221
O O9 0.916338 0.643594 0.408764
O O10 0.879528 0.089526 0.172588
O O11 0.850098 0.980257 0.362077
O O12 0.000000 0.000000 0.279470
O O13 0.250000 0.135015 0.343615
O O14 0.250000 0.881675 0.989829
#
# Coordination Sequence:
#
# PCOD9364036 Si02
#       6
#     8   8   8   8   8   8
#     4  11  24  37  56  80 111 153 189 227 282 330
#     4   9  19  37  62  88 112 145 185 226 277 333
#     4  12  23  39  56  79 116 152 187 233 278 329
#     4   9  17  35  59  84 111 145 184 224 276 333
#     4   9  18  36  61  86 113 143 181 228 276 333
#     4  10  20  36  61  87 112 146 185 226 276 334
#
# _framework density 18.768239999999999
#
# number of rings (size 3 to 8) (size 9 to 14) (size 15 to 20)
#    0.000    2.000    0.000    7.000    0.000    5.333 
#    0.000    7.500    0.000    0.000    0.000    0.000 
#    0.000    0.000    0.000    0.000    0.000    0.000 
#
# Total GULP energy -133934.846653 kJ/mol
# GULP energy per Si atom -5580.618611 kJ/mol
# Density = 1.872552 g / cm^3
# Si number density = 18.768240 Si / 1000 Ang^3
#
#
#
# Elastic Constant Matrix: (Units=GPa)
#
#
# Indices 1 2 3 4 5 6 
#
# 1 38.1170 -5.3426 0.3971 0.0000 0.0000 0.0000
# 2 -5.3426 25.3192 16.5099 0.0000 0.0000 0.0000
# 3 0.3971 16.5099 56.8032 0.0000 0.0000 0.0000
# 4 0.0000 0.0000 0.0000 33.8890 0.0000 0.0000
# 5 0.0000 0.0000 0.0000 0.0000 9.4594 0.0000
# 6 0.0000 0.0000 0.0000 0.0000 0.0000 11.2822
#
#
#
# Elastic Compliance Matrix: (Units=1/GPa)
#
#
# Indices 1 2 3 4 5 6 
#
# 1 0.027276 0.007255 -0.002299 0.000000 0.000000 0.000000
# 2 0.007255 0.050661 -0.014775 0.000000 0.000000 0.000000
# 3 -0.002299 -0.014775 0.021915 0.000000 0.000000 0.000000
# 4 0.000000 0.000000 0.000000 0.029508 0.000000 0.000000
# 5 0.000000 0.000000 0.000000 0.000000 0.105715 0.000000
# 6 0.000000 0.000000 0.000000 0.000000 0.000000 0.088636
#
#
# Mechanical properties :
#
#
# Convention : Reuss Voigt Hill
#
# Bulk Modulus (GPa) = 12.46691 15.92979 14.19835
# Shear Modulus (GPa) = 13.51029 18.17111 15.84070
#
# Velocity S-wave (km/s) = 2.68591 3.11494 2.90835
# Velocity P-wave (km/s) = 4.03433 4.63068 4.34275
#
# Compressibility (1/GPa) = 0.08021236
#
# Stress axis : x y z
#
# Youngs Moduli (GPa) = 36.66250 19.73900 45.63045
#
# Poissons Ratio (x) = -0.14320 0.10492
# Poissons Ratio (y) = -0.26598 0.67421
# Poissons Ratio (z) = 0.08430 0.29165
#
# Static dielectric constant tensor:
#      x y z
#    x 1.675740 0.000000 0.000000 
#    y 0.000000 1.636430 0.000000 
#    z 0.000000 0.000000 1.625510 
# 
# From -- ./inp_files/6466.got.cif
#   From: 2010.05.17/outbox.cif.g08.bks.cpg/sg40_4_cif.got.tgz:6466.got - 2010.06.03 18:35:42.
