data_PCOD9364722
_publ_section_title
;
Structure prediction by ZEFSAII (Michael W. Deem and Ramdas Pophale) SiO2 
 PCOD9364722
Probable space group: A M A 2
;
_chemical_formula_sum "Si O2"
_cell_formula_units_Z 64
_cell_length_a 8.015475
_cell_length_b 31.895541
_cell_length_c 12.265969
_cell_angle_alpha 90.000000
_cell_angle_beta 90.000000
_cell_angle_gamma 90.000000
_cell_volume 3135.892017
_symmetry_space_group_name_H-M "A M A 2"
_symmetry_group_IT_number 40
_symmetry_cell_setting 'orthorhombic'
loop_
_space_group_symop_operation_xyz
x,y,z
-x,-y,z
1/2-x,y,z
1/2+x,-y,z
x,1/2+y,1/2+z
-x,1/2-y,1/2+z
1/2-x,1/2+y,1/2+z
1/2+x,1/2-y,1/2+z
loop_
_atom_site_type_symbol
_atom_site_label
_atom_site_fract_x
_atom_site_fract_y
_atom_site_fract_z
Si Si1 0.051989 0.338814 0.764590
Si Si2 0.556310 0.433592 0.763783
Si Si3 0.453477 0.295971 0.539407
Si Si4 0.055137 0.954027 0.023341
Si Si5 0.951516 0.374653 0.142900
Si Si6 0.452684 0.701777 0.990898
Si Si7 0.548747 0.954494 0.502967
Si Si8 0.048813 0.873306 0.894292
O O1 0.250000 0.347382 0.754757
O O2 0.998800 0.312785 0.658493
O O3 0.961075 0.383388 0.768360
O O4 0.016013 0.313536 0.874087
O O5 0.750000 0.445619 0.757521
O O6 0.474926 0.449040 0.652429
O O7 0.485117 0.450184 0.878381
O O8 0.250000 0.294955 0.536818
O O9 0.510379 0.248785 0.516954
O O10 0.510711 0.330419 0.451465
O O11 0.250000 0.952147 0.004050
O O12 0.981258 0.914013 0.959416
O O13 0.000000 0.000000 0.987049
O O14 0.750000 0.375145 0.140408
O O15 0.005933 0.375395 0.267663
O O16 0.006403 0.332521 0.080439
O O17 0.010608 0.415577 0.075991
O O18 0.250000 0.701558 0.988456
O O19 0.750000 0.951690 0.498198
O O20 0.500000 0.000000 0.546729
O O21 0.250000 0.872941 0.904775
#
# Coordination Sequence:
#
# PCOD9364722 Si02
#       8
#     8   8   8   8   8   8   8   8
#     4  11  21  37  62  91 122 155 196 245 298 353
#     4  11  21  38  62  89 122 157 195 240 298 358
#     4   9  20  39  61  85 119 157 191 239 299 348
#     4  11  23  40  61  88 122 156 197 247 298 353
#     4  10  22  40  59  83 117 154 195 242 292 350
#     4  10  21  40  62  85 120 159 194 242 298 352
#     4  10  22  39  58  84 116 149 190 237 289 344
#     4  10  22  41  60  83 117 155 196 244 295 348
#
# _framework density 20.408867000000001
#
# number of rings (size 3 to 8) (size 9 to 14) (size 15 to 20)
#    0.000    1.750    2.500    1.500    1.750    4.500 
#    0.000    3.750    0.000    0.000    0.000    0.000 
#    0.000    0.000    0.000    0.000    0.000    0.000 
#
# Total GULP energy -178804.056838 kJ/mol
# GULP energy per Si atom -5587.626776 kJ/mol
# Density = 2.036242 g / cm^3
# Si number density = 20.408867 Si / 1000 Ang^3
#
#
#
# Elastic Constant Matrix: (Units=GPa)
#
#
# Indices 1 2 3 4 5 6 
#
# 1 14.3108 6.5208 -1.0751 0.0000 0.0000 0.0000
# 2 6.5208 190.6942 81.4244 0.0000 0.0000 0.0000
# 3 -1.0751 81.4244 137.8099 0.0000 0.0000 0.0000
# 4 0.0000 0.0000 0.0000 42.0929 0.0000 0.0000
# 5 0.0000 0.0000 0.0000 0.0000 29.8448 0.0000
# 6 0.0000 0.0000 0.0000 0.0000 0.0000 19.7782
#
#
#
# Elastic Compliance Matrix: (Units=1/GPa)
#
#
# Indices 1 2 3 4 5 6 
#
# 1 0.071719 -0.003599 0.002686 0.000000 0.000000 0.000000
# 2 -0.003599 0.007194 -0.004279 0.000000 0.000000 0.000000
# 3 0.002686 -0.004279 0.009805 0.000000 0.000000 0.000000
# 4 0.000000 0.000000 0.000000 0.023757 0.000000 0.000000
# 5 0.000000 0.000000 0.000000 0.000000 0.033507 0.000000
# 6 0.000000 0.000000 0.000000 0.000000 0.000000 0.050561
#
#
# Mechanical properties :
#
#
# Convention : Reuss Voigt Hill
#
# Bulk Modulus (GPa) = 12.76573 57.39499 35.08036
# Shear Modulus (GPa) = 21.45574 35.40619 28.43096
#
# Velocity S-wave (km/s) = 3.24589 4.16966 3.73643
# Velocity P-wave (km/s) = 4.50736 7.16694 5.98671
#
# Compressibility (1/GPa) = 0.07833474
#
# Stress axis : x y z
#
# Youngs Moduli (GPa) = 13.94330 139.00463 101.98527
#
# Poissons Ratio (x) = 0.50033 -0.27396
# Poissons Ratio (y) = 0.05019 0.43636
# Poissons Ratio (z) = -0.03745 0.59475
#
# Static dielectric constant tensor:
#      x y z
#    x 1.729330 0.000000 0.000000 
#    y 0.000000 1.722670 0.000000 
#    z 0.000000 0.000000 1.687040 
# 
# From -- ./inp_files/10558.got.cif
#   From: 2010.05.17/outbox.cif.g08.bks.cpg/sg40_6_cif.got.tgz:10558.got - 2010.06.03 18:35:42.
