data_PCOD9364599
_publ_section_title
;
Structure prediction by ZEFSAII (Michael W. Deem and Ramdas Pophale) SiO2 
 PCOD9364599
Probable space group: A M A 2
;
_chemical_formula_sum "Si O2"
_cell_formula_units_Z 64
_cell_length_a 8.284592
_cell_length_b 24.462669
_cell_length_c 16.007213
_cell_angle_alpha 90.000000
_cell_angle_beta 90.000000
_cell_angle_gamma 90.000000
_cell_volume 3244.073520
_symmetry_space_group_name_H-M "A M A 2"
_symmetry_group_IT_number 40
_symmetry_cell_setting 'orthorhombic'
loop_
_space_group_symop_operation_xyz
x,y,z
-x,-y,z
1/2-x,y,z
1/2+x,-y,z
x,1/2+y,1/2+z
-x,1/2-y,1/2+z
1/2-x,1/2+y,1/2+z
1/2+x,1/2-y,1/2+z
loop_
_atom_site_type_symbol
_atom_site_label
_atom_site_fract_x
_atom_site_fract_y
_atom_site_fract_z
Si Si1 0.058233 0.061951 0.118220
Si Si2 0.558480 0.629841 0.776801
Si Si3 0.946288 0.749116 0.025013
Si Si4 0.056817 0.562166 0.120543
Si Si5 0.052650 0.632931 0.461750
Si Si6 0.554716 0.364848 0.276262
Si Si7 0.054599 0.869021 0.462311
Si Si8 0.056602 0.746687 0.719976
O O1 0.250000 0.061473 0.111308
O O2 0.014603 0.095073 0.201592
O O3 0.994574 0.094104 0.036475
O O4 0.000000 0.000000 0.121851
O O5 0.750000 0.621833 0.774379
O O6 0.499007 0.614645 0.869629
O O7 0.520364 0.693587 0.761832
O O8 0.750000 0.748615 0.022431
O O9 0.992728 0.751170 0.122359
O O10 0.999291 0.804740 0.980341
O O11 0.002009 0.692622 0.983876
O O12 0.250000 0.563254 0.121866
O O13 0.996872 0.597089 0.200400
O O14 0.000000 0.500000 0.124976
O O15 0.999274 0.591094 0.035792
O O16 0.250000 0.632834 0.463746
O O17 0.003123 0.616238 0.368558
O O18 0.750000 0.364486 0.274549
O O19 0.496326 0.303164 0.261539
O O20 0.250000 0.868056 0.461454
O O21 0.250000 0.741263 0.723116
#
# Coordination Sequence:
#
# PCOD9364599 Si02
#       8
#     8   8   8   8   8   8   8   8
#     4  11  23  41  63  86 116 156 199 246 294 347
#     4  11  23  39  62  90 119 154 196 243 292 347
#     4   9  16  31  58  87 114 150 187 226 282 346
#     4  11  24  40  60  86 116 153 197 248 295 344
#     4   9  18  36  61  86 116 155 193 231 286 350
#     4  10  21  38  61  89 118 153 197 242 290 346
#     4  10  21  39  63  87 116 155 194 237 293 352
#     4  11  20  34  60  91 122 157 192 235 293 351
#
# _framework density 19.728283000000001
#
# number of rings (size 3 to 8) (size 9 to 14) (size 15 to 20)
#    0.000    1.750    2.500    2.250    0.000    4.500 
#    0.000    1.250    0.000    0.000    0.000    0.000 
#    0.000    0.000    0.000    0.000    0.000    0.000 
#
# Total GULP energy -178787.026871 kJ/mol
# GULP energy per Si atom -5587.094590 kJ/mol
# Density = 1.968338 g / cm^3
# Si number density = 19.728283 Si / 1000 Ang^3
#
#
#
# Elastic Constant Matrix: (Units=GPa)
#
#
# Indices 1 2 3 4 5 6 
#
# 1 13.3237 2.6354 12.0763 0.0000 0.0000 0.0000
# 2 2.6354 137.2175 71.9866 0.0000 0.0000 0.0000
# 3 12.0763 71.9866 180.6787 0.0000 0.0000 0.0000
# 4 0.0000 0.0000 0.0000 -2.6520 0.0000 0.0000
# 5 0.0000 0.0000 0.0000 0.0000 17.1194 0.0000
# 6 0.0000 0.0000 0.0000 0.0000 0.0000 9.7501
#
#
#
# Elastic Compliance Matrix: (Units=1/GPa)
#
#
# Indices 1 2 3 4 5 6 
#
# 1 0.080174 0.001607 -0.005999 0.000000 0.000000 0.000000
# 2 0.001607 0.009246 -0.003791 0.000000 0.000000 0.000000
# 3 -0.005999 -0.003791 0.007446 0.000000 0.000000 0.000000
# 4 0.000000 0.000000 0.000000 -0.377073 0.000000 0.000000
# 5 0.000000 0.000000 0.000000 0.000000 0.058413 0.000000
# 6 0.000000 0.000000 0.000000 0.000000 0.000000 0.102564
#
#
# Mechanical properties :
#
#
# Convention : Reuss Voigt Hill
#
# Bulk Modulus (GPa) = 12.42236 56.06850 34.24543
# Shear Modulus (GPa) = -65.76211 21.14492 -22.30860
#
# Velocity S-wave (km/s) = -5.77982 3.27740 -3.36637
# Velocity P-wave (km/s) = 6.18315 6.54247 1.51204
#
# Compressibility (1/GPa) = 0.08049998
#
# Stress axis : x y z
#
# Youngs Moduli (GPa) = 12.47290 108.15799 134.29764
#
# Poissons Ratio (x) = -0.17386 0.80567
# Poissons Ratio (y) = -0.02005 0.50914
# Poissons Ratio (z) = 0.07483 0.41004
#
# Static dielectric constant tensor:
#      x y z
#    x 1.684890 0.000000 0.000000 
#    y 0.000000 1.655080 0.000000 
#    z 0.000000 0.000000 1.705360 
# 
# From -- ./inp_files/15583.got.cif
#   From: 2010.05.17/outbox.cif.g08.bks.cpg/sg40_8_cif.got.tgz:15583.got - 2010.06.03 18:35:42.
