data_PCOD9364586
_publ_section_title
;
Structure prediction by ZEFSAII (Michael W. Deem and Ramdas Pophale) SiO2 
 PCOD9364586
Probable space group: A M A 2
;
_chemical_formula_sum "Si O2"
_cell_formula_units_Z 64
_cell_length_a 8.526164
_cell_length_b 31.703656
_cell_length_c 12.244982
_cell_angle_alpha 90.000000
_cell_angle_beta 90.000000
_cell_angle_gamma 90.000000
_cell_volume 3309.948070
_symmetry_space_group_name_H-M "A M A 2"
_symmetry_group_IT_number 40
_symmetry_cell_setting 'orthorhombic'
loop_
_space_group_symop_operation_xyz
x,y,z
-x,-y,z
1/2-x,y,z
1/2+x,-y,z
x,1/2+y,1/2+z
-x,1/2-y,1/2+z
1/2-x,1/2+y,1/2+z
1/2+x,1/2-y,1/2+z
loop_
_atom_site_type_symbol
_atom_site_label
_atom_site_fract_x
_atom_site_fract_y
_atom_site_fract_z
Si Si1 0.562217 0.374874 0.675340
Si Si2 0.439359 0.044675 0.784300
Si Si3 0.562758 0.162014 0.548123
Si Si4 0.936183 0.931936 0.541521
Si Si5 0.561407 0.702214 0.816543
Si Si6 0.440374 0.702152 0.269197
Si Si7 0.435336 0.955190 0.307712
Si Si8 0.941082 0.874332 0.924628
O O1 0.750000 0.376044 0.675214
O O2 0.508217 0.332119 0.734298
O O3 0.502862 0.415261 0.742652
O O4 0.506025 0.375970 0.549837
O O5 0.250000 0.044755 0.784514
O O6 0.490974 0.050141 0.658193
O O7 0.492356 0.084813 0.855264
O O8 0.500000 0.000000 0.826859
O O9 0.750000 0.154102 0.548266
O O10 0.473007 0.117729 0.544672
O O11 0.522665 0.187973 0.439374
O O12 0.512565 0.186770 0.655808
O O13 0.750000 0.938935 0.531316
O O14 0.018461 0.950407 0.434943
O O15 0.750000 0.700750 0.806131
O O16 0.510891 0.750101 0.794858
O O17 0.250000 0.700942 0.261427
O O18 0.487195 0.668458 0.362200
O O19 0.250000 0.954690 0.297834
O O20 0.500000 0.000000 0.267134
O O21 0.750000 0.874984 0.925357
#
# Coordination Sequence:
#
# PCOD9364586 Si02
#       8
#     8   8   8   8   8   8   8   8
#     4  11  23  40  65  89 119 161 208 252 303 367
#     4  10  21  38  60  87 119 151 194 243 298 358
#     4  11  22  37  61  93 126 157 198 254 310 363
#     4  11  21  38  64  91 122 161 202 244 301 366
#     4  10  23  40  61  89 124 161 200 253 311 358
#     4  10  21  41  64  86 121 164 204 250 306 365
#     4  12  25  42  63  90 126 160 203 254 305 363
#     4   9  20  40  62  85 115 158 204 250 299 359
#
# _framework density 19.335652
#
# number of rings (size 3 to 8) (size 9 to 14) (size 15 to 20)
#    0.000    1.500    2.500    2.625    1.750    3.500 
#    0.000    3.750    0.000    0.000    0.000    0.000 
#    0.000    0.000    0.000    0.000    0.000    0.000 
#
# Total GULP energy -178861.815065 kJ/mol
# GULP energy per Si atom -5589.431721 kJ/mol
# Density = 1.929164 g / cm^3
# Si number density = 19.335652 Si / 1000 Ang^3
#
#
#
# Elastic Constant Matrix: (Units=GPa)
#
#
# Indices 1 2 3 4 5 6 
#
# 1 21.1530 24.6176 23.8820 0.0000 0.0000 0.0000
# 2 24.6176 178.1394 75.7617 0.0000 0.0000 0.0000
# 3 23.8820 75.7617 145.6224 0.0000 0.0000 0.0000
# 4 0.0000 0.0000 0.0000 27.2944 0.0000 0.0000
# 5 0.0000 0.0000 0.0000 0.0000 -5.1904 0.0000
# 6 0.0000 0.0000 0.0000 0.0000 0.0000 29.3141
#
#
#
# Elastic Compliance Matrix: (Units=1/GPa)
#
#
# Indices 1 2 3 4 5 6 
#
# 1 0.061863 -0.005437 -0.007317 0.000000 0.000000 0.000000
# 2 -0.005437 0.007686 -0.003107 0.000000 0.000000 0.000000
# 3 -0.007317 -0.003107 0.009684 0.000000 0.000000 0.000000
# 4 0.000000 0.000000 0.000000 0.036638 0.000000 0.000000
# 5 0.000000 0.000000 0.000000 0.000000 -0.192662 0.000000
# 6 0.000000 0.000000 0.000000 0.000000 0.000000 0.034113
#
#
# Mechanical properties :
#
#
# Convention : Reuss Voigt Hill
#
# Bulk Modulus (GPa) = 21.04795 65.93747 43.49271
# Shear Modulus (GPa) = 1024.30015 24.99386 524.64700
#
# Velocity S-wave (km/s) = 23.04120 3.59922 16.49017
# Velocity P-wave (km/s) = 26.80992 7.17273 19.62422
#
# Compressibility (1/GPa) = 0.04751057
#
# Stress axis : x y z
#
# Youngs Moduli (GPa) = 16.16477 130.09863 103.26739
#
# Poissons Ratio (x) = 0.70738 0.75557
# Poissons Ratio (y) = 0.08789 0.32088
# Poissons Ratio (z) = 0.11827 0.40425
#
# Static dielectric constant tensor:
#      x y z
#    x 1.658730 0.000000 0.000000 
#    y 0.000000 1.660330 0.000000 
#    z 0.000000 0.000000 1.659080 
# 
# From -- ./inp_files/10585.got.cif
#   From: 2010.05.17/outbox.cif.g08.bks.cpg/sg40_6_cif.got.tgz:10585.got - 2010.06.03 18:35:42.
