data_PCOD9364812
_publ_section_title
;
Structure prediction by ZEFSAII (Michael W. Deem and Ramdas Pophale) SiO2 
 PCOD9364812
Probable space group: A M A 2
;
_chemical_formula_sum "Si O2"
_cell_formula_units_Z 52
_cell_length_a 17.583420
_cell_length_b 17.247635
_cell_length_c 7.525946
_cell_angle_alpha 90.000000
_cell_angle_beta 90.000000
_cell_angle_gamma 90.000000
_cell_volume 2282.411783
_symmetry_space_group_name_H-M "A M A 2"
_symmetry_group_IT_number 40
_symmetry_cell_setting 'orthorhombic'
loop_
_space_group_symop_operation_xyz
x,y,z
-x,-y,z
1/2-x,y,z
1/2+x,-y,z
x,1/2+y,1/2+z
-x,1/2-y,1/2+z
1/2-x,1/2+y,1/2+z
1/2+x,1/2-y,1/2+z
loop_
_atom_site_type_symbol
_atom_site_label
_atom_site_fract_x
_atom_site_fract_y
_atom_site_fract_z
Si Si1 0.527656 0.328700 0.584420
Si Si2 0.376478 0.599334 0.094399
Si Si3 0.965450 0.161677 0.682714
Si Si4 0.589017 0.975763 0.970446
Si Si5 0.334042 0.436256 0.036157
Si Si6 0.750000 0.264811 0.059652
Si Si7 0.864300 0.630448 0.662551
O O1 0.562980 0.246018 0.624480
O O2 0.497369 0.330147 0.381459
O O3 0.581775 0.402516 0.603662
O O4 0.450386 0.340114 0.692581
O O5 0.461539 0.632380 0.071600
O O6 0.374716 0.561338 0.293759
O O7 0.357702 0.523105 0.982001
O O8 0.316541 0.667310 0.070469
O O9 0.898087 0.100670 0.661380
O O10 0.500000 0.000000 0.935515
O O11 0.629869 0.049896 0.054001
O O12 0.250000 0.436900 0.117275
O O13 0.332579 0.386064 0.857443
O O14 0.816037 0.196141 0.066413
#
# Coordination Sequence:
#
# PCOD9364812 Si02
#       7
#     8   8   8   8   8   4   8
#     4  10  21  41  68 101 129 174 228 276 329 407
#     4  11  23  45  68  94 130 175 223 269 334 402
#     4  11  23  41  71  99 134 177 225 277 335 398
#     4   9  21  41  68  95 125 168 227 274 328 401
#     4  12  25  41  63  98 137 173 225 277 336 391
#     4  12  24  42  66  94 136 180 214 276 336 396
#     4  11  23  43  66  94 136 176 214 279 338 389
#
# _framework density 22.782919
#
# number of rings (size 3 to 8) (size 9 to 14) (size 15 to 20)
#    0.000    1.231    3.077    4.154    2.154    5.538 
#    4.154    0.000    1.692    1.846    0.000    0.000 
#    0.000    0.000    0.000    0.000    0.000    0.000 
#
# Total GULP energy -144897.776716 kJ/mol
# GULP energy per Si atom -5572.991412 kJ/mol
# Density = 2.273106 g / cm^3
# Si number density = 22.782919 Si / 1000 Ang^3
#
#
#
# Elastic Constant Matrix: (Units=GPa)
#
#
# Indices 1 2 3 4 5 6 
#
# 1 92.6701 50.7631 10.9170 0.0000 0.0000 0.0000
# 2 50.7631 214.0502 13.6577 0.0000 0.0000 0.0000
# 3 10.9170 13.6577 38.1406 0.0000 0.0000 0.0000
# 4 0.0000 0.0000 0.0000 23.1719 0.0000 0.0000
# 5 0.0000 0.0000 0.0000 0.0000 7.7746 0.0000
# 6 0.0000 0.0000 0.0000 0.0000 0.0000 35.0492
#
#
#
# Elastic Compliance Matrix: (Units=1/GPa)
#
#
# Indices 1 2 3 4 5 6 
#
# 1 0.012650 -0.002834 -0.002606 0.000000 0.000000 0.000000
# 2 -0.002834 0.005416 -0.001128 0.000000 0.000000 0.000000
# 3 -0.002606 -0.001128 0.027369 0.000000 0.000000 0.000000
# 4 0.000000 0.000000 0.000000 0.043156 0.000000 0.000000
# 5 0.000000 0.000000 0.000000 0.000000 0.128624 0.000000
# 6 0.000000 0.000000 0.000000 0.000000 0.000000 0.028531
#
#
# Mechanical properties :
#
#
# Convention : Reuss Voigt Hill
#
# Bulk Modulus (GPa) = 30.96118 55.05960 43.01039
# Shear Modulus (GPa) = 18.54267 31.16735 24.85501
#
# Velocity S-wave (km/s) = 2.85596 3.70268 3.30654
# Velocity P-wave (km/s) = 4.94919 6.51915 5.78765
#
# Compressibility (1/GPa) = 0.03229851
#
# Stress axis : x y z
#
# Youngs Moduli (GPa) = 79.04953 184.64359 36.53808
#
# Poissons Ratio (x) = 0.52324 0.09522
# Poissons Ratio (y) = 0.22401 0.04122
# Poissons Ratio (z) = 0.20601 0.20832
#
# Static dielectric constant tensor:
#      x y z
#    x 1.862540 0.000000 0.000000 
#    y 0.000000 1.857080 0.000000 
#    z 0.000000 0.000000 1.946090 
# 
# From -- ./inp_files/7652.got.cif
#   From: 2010.05.17/outbox.cif.g08.bks.cpg/sg40_4_cif.got.tgz:7652.got - 2010.06.03 18:35:42.
