data_PCOD9364910
_publ_section_title
;
Structure prediction by ZEFSAII (Michael W. Deem and Ramdas Pophale) SiO2 
 PCOD9364910
Probable space group: A M A 2
;
_chemical_formula_sum "Si O2"
_cell_formula_units_Z 28
_cell_length_a 10.640715
_cell_length_b 16.830042
_cell_length_c 7.741927
_cell_angle_alpha 90.000000
_cell_angle_beta 90.000000
_cell_angle_gamma 90.000000
_cell_volume 1386.452780
_symmetry_space_group_name_H-M "A M A 2"
_symmetry_group_IT_number 40
_symmetry_cell_setting 'orthorhombic'
loop_
_space_group_symop_operation_xyz
x,y,z
-x,-y,z
1/2-x,y,z
1/2+x,-y,z
x,1/2+y,1/2+z
-x,1/2-y,1/2+z
1/2-x,1/2+y,1/2+z
1/2+x,1/2-y,1/2+z
loop_
_atom_site_type_symbol
_atom_site_label
_atom_site_fract_x
_atom_site_fract_y
_atom_site_fract_z
Si Si1 0.500000 0.500000 0.037760
Si Si2 0.890112 0.444157 0.377924
Si Si3 0.892054 0.651234 0.871995
Si Si4 0.890764 0.295245 0.615910
O O1 0.586293 0.450284 0.172490
O O2 0.578489 0.561245 0.925008
O O3 0.750000 0.474260 0.417305
O O4 0.900163 0.356466 0.455039
O O5 0.000000 0.500000 0.453913
O O6 0.750000 0.659068 0.803010
O O7 0.998543 0.682529 0.744121
O O8 0.899256 0.706696 0.041969
O O9 0.750000 0.306337 0.691420
#
# Coordination Sequence:
#
# PCOD9364910 Si02
#       4
#     4   8   8   8
#     4  10  22  38  62  90 124 160 202 254 298 368
#     4   9  20  38  61  87 119 158 201 250 303 360
#     4  11  24  42  64  92 125 166 209 254 310 369
#     4  10  23  42  63  90 125 163 208 258 310 366
#
# _framework density 20.195423999999999
#
# number of rings (size 3 to 8) (size 9 to 14) (size 15 to 20)
#    0.857    1.143    0.000    2.571    2.000    4.571 
#    0.000    0.000    0.000    0.000    0.000    0.000 
#    0.000    0.000    0.000    0.000    0.000    0.000 
#
# Total GULP energy -78079.987670 kJ/mol
# GULP energy per Si atom -5577.141976 kJ/mol
# Density = 2.014946 g / cm^3
# Si number density = 20.195424 Si / 1000 Ang^3
#
#
#
# Elastic Constant Matrix: (Units=GPa)
#
#
# Indices 1 2 3 4 5 6 
#
# 1 181.9951 45.2280 57.5354 0.0000 0.0000 0.0000
# 2 45.2280 67.4308 6.4862 0.0000 0.0000 0.0000
# 3 57.5354 6.4862 50.2157 0.0000 0.0000 0.0000
# 4 0.0000 0.0000 0.0000 27.3130 0.0000 0.0000
# 5 0.0000 0.0000 0.0000 0.0000 18.0041 0.0000
# 6 0.0000 0.0000 0.0000 0.0000 0.0000 23.0614
#
#
#
# Elastic Compliance Matrix: (Units=1/GPa)
#
#
# Indices 1 2 3 4 5 6 
#
# 1 0.010568 -0.005998 -0.011334 0.000000 0.000000 0.000000
# 2 -0.005998 0.018421 0.004493 0.000000 0.000000 0.000000
# 3 -0.011334 0.004493 0.032320 0.000000 0.000000 0.000000
# 4 0.000000 0.000000 0.000000 0.036613 0.000000 0.000000
# 5 0.000000 0.000000 0.000000 0.000000 0.055543 0.000000
# 6 0.000000 0.000000 0.000000 0.000000 0.000000 0.043363
#
#
# Mechanical properties :
#
#
# Convention : Reuss Voigt Hill
#
# Bulk Modulus (GPa) = 28.06531 57.57119 42.81825
# Shear Modulus (GPa) = 21.33257 26.36849 23.85053
#
# Velocity S-wave (km/s) = 3.25361 3.61732 3.44028
# Velocity P-wave (km/s) = 5.29544 6.78348 6.08512
#
# Compressibility (1/GPa) = 0.03563118
#
# Stress axis : x y z
#
# Youngs Moduli (GPa) = 94.62082 54.28552 30.94052
#
# Poissons Ratio (x) = 0.32563 0.35069
# Poissons Ratio (y) = 0.56757 -0.13903
# Poissons Ratio (z) = 1.07245 -0.24392
#
# Static dielectric constant tensor:
#      x y z
#    x 1.719610 0.000000 0.000000 
#    y 0.000000 1.711260 0.000000 
#    z 0.000000 0.000000 1.710580 
# 
# From -- ./inp_files/3940.got.cif
#   From: 2010.05.17/outbox.cif.g08.bks.cpg/sg40_2_cif.got.tgz:3940.got - 2010.06.03 18:35:42.
