data_PCOD9364076
_publ_section_title
;
Structure prediction by ZEFSAII (Michael W. Deem and Ramdas Pophale) SiO2 
 PCOD9364076
Probable space group: A M A 2
;
_chemical_formula_sum "Si O2"
_cell_formula_units_Z 40
_cell_length_a 11.142895
_cell_length_b 16.523136
_cell_length_c 9.254102
_cell_angle_alpha 90.000000
_cell_angle_beta 90.000000
_cell_angle_gamma 90.000000
_cell_volume 1703.824260
_symmetry_space_group_name_H-M "A M A 2"
_symmetry_group_IT_number 40
_symmetry_cell_setting 'orthorhombic'
loop_
_space_group_symop_operation_xyz
x,y,z
-x,-y,z
1/2-x,y,z
1/2+x,-y,z
x,1/2+y,1/2+z
-x,1/2-y,1/2+z
1/2-x,1/2+y,1/2+z
1/2+x,1/2-y,1/2+z
loop_
_atom_site_type_symbol
_atom_site_label
_atom_site_fract_x
_atom_site_fract_y
_atom_site_fract_z
Si Si1 0.616803 0.174638 0.878180
Si Si2 0.990069 0.596929 0.925840
Si Si3 0.505130 0.788446 0.159080
Si Si4 0.750000 0.862633 0.073485
Si Si5 0.750000 0.572209 0.048623
Si Si6 0.750000 0.018756 0.867557
Si Si7 0.750000 0.411260 0.908077
O O1 0.750000 0.200295 0.825195
O O2 0.525215 0.211529 0.763073
O O3 0.634777 0.077817 0.897630
O O4 0.591885 0.211151 0.034156
O O5 0.000000 0.500000 0.914236
O O6 0.974528 0.640039 0.772428
O O7 0.125288 0.619716 0.973985
O O8 0.876353 0.617014 0.027218
O O9 0.627407 0.811515 0.072000
O O10 0.750000 0.894944 0.238027
O O11 0.750000 0.936240 0.957331
O O12 0.750000 0.517884 0.193178
O O13 0.750000 0.507901 0.920404
#
# Coordination Sequence:
#
# PCOD9364076 Si02
#       7
#     8   8   8   4   4   4   4
#     4  10  26  45  64 102 137 181 239 291 347 431
#     4   9  20  35  69  96 128 176 235 275 351 420
#     4  11  23  45  71  95 140 192 228 290 353 432
#     4  10  21  45  70  98 137 187 230 285 358 420
#     4  10  20  37  57  99 136 172 208 300 353 404
#     4  10  25  43  65 104 146 163 243 305 349 411
#     4   8  18  37  62  93 125 176 225 272 340 431
#
# _framework density 23.476600000000001
#
# number of rings (size 3 to 8) (size 9 to 14) (size 15 to 20)
#    0.600    1.600    1.000    0.000   12.600    0.000 
#   12.600    0.000    0.000    0.000    0.000    0.000 
#    0.000    0.000    0.000    0.000    0.000    0.000 
#
# Total GULP energy -111476.156677 kJ/mol
# GULP energy per Si atom -5573.807834 kJ/mol
# Density = 2.342317 g / cm^3
# Si number density = 23.476600 Si / 1000 Ang^3
#
#
#
# Elastic Constant Matrix: (Units=GPa)
#
#
# Indices 1 2 3 4 5 6 
#
# 1 102.0444 7.7796 30.5428 0.0000 0.0000 0.0000
# 2 7.7796 98.5345 29.2194 0.0000 0.0000 0.0000
# 3 30.5428 29.2194 46.8099 0.0000 0.0000 0.0000
# 4 0.0000 0.0000 0.0000 52.3209 0.0000 0.0000
# 5 0.0000 0.0000 0.0000 0.0000 36.8223 0.0000
# 6 0.0000 0.0000 0.0000 0.0000 0.0000 12.5222
#
#
#
# Elastic Compliance Matrix: (Units=1/GPa)
#
#
# Indices 1 2 3 4 5 6 
#
# 1 0.012418 0.001745 -0.009192 0.000000 0.000000 0.000000
# 2 0.001745 0.012699 -0.009066 0.000000 0.000000 0.000000
# 3 -0.009192 -0.009066 0.033020 0.000000 0.000000 0.000000
# 4 0.000000 0.000000 0.000000 0.019113 0.000000 0.000000
# 5 0.000000 0.000000 0.000000 0.000000 0.027157 0.000000
# 6 0.000000 0.000000 0.000000 0.000000 0.000000 0.079858
#
#
# Mechanical properties :
#
#
# Convention : Reuss Voigt Hill
#
# Bulk Modulus (GPa) = 39.82188 42.49696 41.15942
# Shear Modulus (GPa) = 22.15712 32.32288 27.24000
#
# Velocity S-wave (km/s) = 3.07546 3.71457 3.41002
# Velocity P-wave (km/s) = 5.44155 6.04471 5.75104
#
# Compressibility (1/GPa) = 0.02511182
#
# Stress axis : x y z
#
# Youngs Moduli (GPa) = 80.52943 78.74427 30.28499
#
# Poissons Ratio (x) = -0.13744 0.27838
# Poissons Ratio (y) = -0.14055 0.27456
# Poissons Ratio (z) = 0.74022 0.71389
#
# Static dielectric constant tensor:
#      x y z
#    x 1.994800 0.000000 0.000000 
#    y 0.000000 1.945160 0.000000 
#    z 0.000000 0.000000 1.823190 
# 
# From -- ./inp_files/5171.got.cif
#   From: 2010.05.17/outbox.cif.g08.bks.cpg/sg40_3_cif.got.tgz:5171.got - 2010.06.03 18:35:42.
