data_PCOD9364828
_publ_section_title
;
Structure prediction by ZEFSAII (Michael W. Deem and Ramdas Pophale) SiO2 
 PCOD9364828
Probable space group: A M A 2
;
_chemical_formula_sum "Si O2"
_cell_formula_units_Z 60
_cell_length_a 27.873467
_cell_length_b 9.398172
_cell_length_c 11.675899
_cell_angle_alpha 90.000000
_cell_angle_beta 90.000000
_cell_angle_gamma 90.000000
_cell_volume 3058.614265
_symmetry_space_group_name_H-M "A M A 2"
_symmetry_group_IT_number 40
_symmetry_cell_setting 'orthorhombic'
loop_
_space_group_symop_operation_xyz
x,y,z
-x,-y,z
1/2-x,y,z
1/2+x,-y,z
x,1/2+y,1/2+z
-x,1/2-y,1/2+z
1/2-x,1/2+y,1/2+z
1/2+x,1/2-y,1/2+z
loop_
_atom_site_type_symbol
_atom_site_label
_atom_site_fract_x
_atom_site_fract_y
_atom_site_fract_z
Si Si1 0.988591 0.342563 0.854780
Si Si2 0.692876 0.507496 0.665171
Si Si3 0.938715 0.397356 0.434916
Si Si4 0.694799 0.528476 0.920272
Si Si5 0.805153 0.189722 0.939200
Si Si6 0.000000 0.500000 0.633070
Si Si7 0.863127 0.738474 0.070689
Si Si8 0.597473 0.157564 0.803822
O O1 0.002272 0.368214 0.720820
O O2 0.933655 0.288423 0.856537
O O3 0.000000 0.500000 0.905656
O O4 0.021002 0.218586 0.906214
O O5 0.750000 0.485865 0.676280
O O6 0.685114 0.619490 0.563049
O O7 0.669164 0.359246 0.629768
O O8 0.675246 0.552558 0.791174
O O9 0.955180 0.481211 0.549359
O O10 0.891150 0.313883 0.467896
O O11 0.929792 0.513361 0.337741
O O12 0.750000 0.577650 0.922053
O O13 0.694002 0.360209 0.943025
O O14 0.666730 0.611875 0.016700
O O15 0.750000 0.148144 0.905178
O O16 0.848787 0.147829 0.855641
O O17 0.898444 0.682499 0.168927
#
# Coordination Sequence:
#
# PCOD9364828 Si02
#       8
#     8   8   8   8   8   4   8   8
#     4  10  24  44  67  95 126 168 219 266 325 389
#     4  10  21  42  66  89 132 178 218 267 322 386
#     4  12  24  45  64  96 133 165 216 275 323 388
#     4  10  23  41  64  94 132 171 219 273 319 383
#     4  10  22  41  65  95 130 174 217 267 325 381
#     4  10  22  46  68  88 128 168 210 276 318 386
#     4  12  24  39  65 100 127 169 222 260 330 390
#     4  12  23  42  68  97 130 175 211 268 332 389
#
# _framework density 19.616727999999998
#
# number of rings (size 3 to 8) (size 9 to 14) (size 15 to 20)
#    0.400    0.800    5.333    0.400    1.867    2.667 
#    4.800    0.000    0.000    0.000    0.000    0.000 
#    0.000    0.000    0.000    0.000    0.000    0.000 
#
# Total GULP energy -167378.003238 kJ/mol
# GULP energy per Si atom -5579.266775 kJ/mol
# Density = 1.957208 g / cm^3
# Si number density = 19.616728 Si / 1000 Ang^3
#
#
#
# Elastic Constant Matrix: (Units=GPa)
#
#
# Indices 1 2 3 4 5 6 
#
# 1 50.8670 29.6386 9.6353 0.0000 0.0000 0.0000
# 2 29.6386 65.7109 29.3813 0.0000 0.0000 0.0000
# 3 9.6353 29.3813 59.0982 0.0000 0.0000 0.0000
# 4 0.0000 0.0000 0.0000 32.6398 0.0000 0.0000
# 5 0.0000 0.0000 0.0000 0.0000 -24.0893 0.0000
# 6 0.0000 0.0000 0.0000 0.0000 0.0000 -5.5324
#
#
#
# Elastic Compliance Matrix: (Units=1/GPa)
#
#
# Indices 1 2 3 4 5 6 
#
# 1 0.026872 -0.013066 0.002115 0.000000 0.000000 0.000000
# 2 -0.013066 0.025921 -0.010757 0.000000 0.000000 0.000000
# 3 0.002115 -0.010757 0.021924 0.000000 0.000000 0.000000
# 4 0.000000 0.000000 0.000000 0.030637 0.000000 0.000000
# 5 0.000000 0.000000 0.000000 0.000000 -0.041512 0.000000
# 6 0.000000 0.000000 0.000000 0.000000 0.000000 -0.180753
#
#
# Mechanical properties :
#
#
# Convention : Reuss Voigt Hill
#
# Bulk Modulus (GPa) = 31.94784 34.77627 33.36206
# Shear Modulus (GPa) = -79.28788 7.73834 -35.77477
#
# Velocity S-wave (km/s) = -6.36445 1.98830 -4.27510
# Velocity P-wave (km/s) = 6.13897 4.79974 2.70643
#
# Compressibility (1/GPa) = 0.03130102
#
# Stress axis : x y z
#
# Youngs Moduli (GPa) = 37.21400 38.57854 45.61207
#
# Poissons Ratio (x) = 0.50406 -0.09646
# Poissons Ratio (y) = 0.48623 0.49064
# Poissons Ratio (z) = -0.07870 0.41498
#
# Static dielectric constant tensor:
#      x y z
#    x 1.763900 0.000000 0.000000 
#    y 0.000000 1.669780 0.000000 
#    z 0.000000 0.000000 1.687030 
# 
# From -- ./inp_files/14245.got.cif
#   From: 2010.05.17/outbox.cif.g08.bks.cpg/sg40_8_cif.got.tgz:14245.got - 2010.06.03 18:35:42.
