data_PCOD9364843
_publ_section_title
;
Structure prediction by ZEFSAII (Michael W. Deem and Ramdas Pophale) SiO2 
 PCOD9364843
Probable space group: A M A 2
;
_chemical_formula_sum "Si O2"
_cell_formula_units_Z 28
_cell_length_a 8.060781
_cell_length_b 7.372123
_cell_length_c 19.547599
_cell_angle_alpha 90.000000
_cell_angle_beta 90.000000
_cell_angle_gamma 90.000000
_cell_volume 1161.617420
_symmetry_space_group_name_H-M "A M A 2"
_symmetry_group_IT_number 40
_symmetry_cell_setting 'orthorhombic'
loop_
_space_group_symop_operation_xyz
x,y,z
-x,-y,z
1/2-x,y,z
1/2+x,-y,z
x,1/2+y,1/2+z
-x,1/2-y,1/2+z
1/2-x,1/2+y,1/2+z
1/2+x,1/2-y,1/2+z
loop_
_atom_site_type_symbol
_atom_site_label
_atom_site_fract_x
_atom_site_fract_y
_atom_site_fract_z
Si Si1 0.550781 0.788905 0.298350
Si Si2 0.000000 0.500000 0.036364
Si Si3 0.938236 0.299908 0.650485
Si Si4 0.444051 0.696623 0.445111
O O1 0.750000 0.764060 0.306788
O O2 0.487379 0.730816 0.222726
O O3 0.464382 0.701347 0.363642
O O4 0.500000 0.000000 0.301274
O O5 0.059579 0.349739 0.091620
O O6 0.942261 0.350565 0.980134
O O7 0.750000 0.335325 0.669415
O O8 0.000000 0.500000 0.630333
O O9 0.500000 0.500000 0.469655
O O10 0.250000 0.733839 0.462288
#
# Coordination Sequence:
#
# PCOD9364843 Si02
#       4
#     8   4   8   8
#     4  10  21  42  71 104 142 185 236 290 350 418
#     4  12  26  44  70 104 142 186 234 286 358 424
#     4  10  24  45  71 105 141 185 235 290 351 418
#     4  12  27  45  70 103 142 188 239 294 354 420
#
# _framework density 24.104322
#
# number of rings (size 3 to 8) (size 9 to 14) (size 15 to 20)
#    0.000    1.143    1.429    3.429    2.000    6.857 
#    0.000    0.000    0.000    0.000    0.000    0.000 
#    0.000    0.000    0.000    0.000    0.000    0.000 
#
# Total GULP energy -77944.468737 kJ/mol
# GULP energy per Si atom -5567.462053 kJ/mol
# Density = 2.404946 g / cm^3
# Si number density = 24.104322 Si / 1000 Ang^3
#
#
#
# Elastic Constant Matrix: (Units=GPa)
#
#
# Indices 1 2 3 4 5 6 
#
# 1 73.9386 16.8660 24.9665 0.0000 0.0000 0.0000
# 2 16.8660 160.0140 49.8008 0.0000 0.0000 0.0000
# 3 24.9665 49.8008 183.7422 0.0000 0.0000 0.0000
# 4 0.0000 0.0000 0.0000 36.1378 0.0000 0.0000
# 5 0.0000 0.0000 0.0000 0.0000 -226.3505 0.0000
# 6 0.0000 0.0000 0.0000 0.0000 0.0000 0.6336
#
#
#
# Elastic Compliance Matrix: (Units=1/GPa)
#
#
# Indices 1 2 3 4 5 6 
#
# 1 0.014316 -0.000987 -0.001678 0.000000 0.000000 0.000000
# 2 -0.000987 0.006893 -0.001734 0.000000 0.000000 0.000000
# 3 -0.001678 -0.001734 0.006140 0.000000 0.000000 0.000000
# 4 0.000000 0.000000 0.000000 0.027672 0.000000 0.000000
# 5 0.000000 0.000000 0.000000 0.000000 -0.004418 0.000000
# 6 0.000000 0.000000 0.000000 0.000000 0.000000 1.578402
#
#
# Mechanical properties :
#
#
# Convention : Reuss Voigt Hill
#
# Bulk Modulus (GPa) = 53.90165 66.77347 60.33756
# Shear Modulus (GPa) = 3.04139 -16.17840 -6.56851
#
# Velocity S-wave (km/s) = 1.12450 -2.59353 -1.65256
# Velocity P-wave (km/s) = 4.90880 4.33514 4.63087
#
# Compressibility (1/GPa) = 0.01855231
#
# Stress axis : x y z
#
# Youngs Moduli (GPa) = 69.85007 145.07040 162.85518
#
# Poissons Ratio (x) = 0.14316 0.27324
# Poissons Ratio (y) = 0.06893 0.28243
# Poissons Ratio (z) = 0.11720 0.25158
#
# Static dielectric constant tensor:
#      x y z
#    x 1.959620 0.000000 0.000000 
#    y 0.000000 1.877780 0.000000 
#    z 0.000000 0.000000 1.969870 
# 
# From -- ./inp_files/21752.got.cif
#   From: 2010.05.17/outbox.cif.g08.bks.cpg/sg40_11_cif.got.tgz:21752.got - 2010.06.03 18:35:42.
