data_PCOD9364351
_publ_section_title
;
Structure prediction by ZEFSAII (Michael W. Deem and Ramdas Pophale) SiO2 
 PCOD9364351
Probable space group: A M A 2
;
_chemical_formula_sum "Si O2"
_cell_formula_units_Z 64
_cell_length_a 25.613845
_cell_length_b 12.166071
_cell_length_c 9.325944
_cell_angle_alpha 90.000000
_cell_angle_beta 90.000000
_cell_angle_gamma 90.000000
_cell_volume 2906.149334
_symmetry_space_group_name_H-M "A M A 2"
_symmetry_group_IT_number 40
_symmetry_cell_setting 'orthorhombic'
loop_
_space_group_symop_operation_xyz
x,y,z
-x,-y,z
1/2-x,y,z
1/2+x,-y,z
x,1/2+y,1/2+z
-x,1/2-y,1/2+z
1/2-x,1/2+y,1/2+z
1/2+x,1/2-y,1/2+z
loop_
_atom_site_type_symbol
_atom_site_label
_atom_site_fract_x
_atom_site_fract_y
_atom_site_fract_z
Si Si1 0.419648 0.558292 0.478890
Si Si2 0.020343 0.155188 0.717062
Si Si3 0.192491 0.834473 0.298532
Si Si4 0.161464 0.419899 0.106774
Si Si5 0.071420 0.056242 0.453989
Si Si6 0.806479 0.924531 0.852354
Si Si7 0.922548 0.112315 0.207061
Si Si8 0.588657 0.261793 0.725890
O O1 0.452304 0.582021 0.337472
O O2 0.358318 0.549815 0.441498
O O3 0.436588 0.449200 0.561380
O O4 0.424333 0.660108 0.589705
O O5 0.028181 0.103718 0.560397
O O6 0.051933 0.269608 0.718092
O O7 0.960805 0.183283 0.748135
O O8 0.250000 0.863899 0.239804
O O9 0.188962 0.877958 0.462298
O O10 0.188384 0.702161 0.302376
O O11 0.140381 0.879113 0.222303
O O12 0.192899 0.493557 0.217696
O O13 0.137473 0.314019 0.186914
O O14 0.114545 0.498291 0.052889
O O15 0.094470 0.157797 0.361383
O O16 0.057628 0.964300 0.336608
O O17 0.750000 0.933917 0.927202
#
# Coordination Sequence:
#
# PCOD9364351 Si02
#       8
#     8   8   8   8   8   8   8   8
#     4  11  22  44  63  96 130 166 222 269 318 386
#     4  12  23  43  61  91 131 175 217 264 318 381
#     4  10  20  40  69  93 123 168 209 266 337 390
#     4  11  21  42  63  89 128 163 207 268 323 385
#     4  10  23  39  61  89 121 168 210 264 317 376
#     4  11  22  40  67  92 123 164 210 262 325 388
#     4  10  23  40  64  89 130 163 209 273 320 381
#     4  11  25  40  64  93 130 172 219 266 320 380
#
# _framework density 22.022268
#
# number of rings (size 3 to 8) (size 9 to 14) (size 15 to 20)
#    0.000    1.250    3.750    1.875    1.750    4.000 
#    2.250    0.000    0.000    1.500    0.000    0.000 
#    0.000    0.000    0.000    0.000    0.000    0.000 
#
# Total GULP energy -179163.236445 kJ/mol
# GULP energy per Si atom -5598.851139 kJ/mol
# Density = 2.197214 g / cm^3
# Si number density = 22.022268 Si / 1000 Ang^3
#
#
#
# Elastic Constant Matrix: (Units=GPa)
#
#
# Indices 1 2 3 4 5 6 
#
# 1 72.9211 27.8696 13.8844 0.0000 0.0000 0.0000
# 2 27.8696 116.7258 49.9978 0.0000 0.0000 0.0000
# 3 13.8844 49.9978 90.1746 0.0000 0.0000 0.0000
# 4 0.0000 0.0000 0.0000 31.9454 0.0000 0.0000
# 5 0.0000 0.0000 0.0000 0.0000 5.1385 0.0000
# 6 0.0000 0.0000 0.0000 0.0000 0.0000 4.7058
#
#
#
# Elastic Compliance Matrix: (Units=1/GPa)
#
#
# Indices 1 2 3 4 5 6 
#
# 1 0.015103 -0.003423 -0.000428 0.000000 0.000000 0.000000
# 2 -0.003423 0.012011 -0.006133 0.000000 0.000000 0.000000
# 3 -0.000428 -0.006133 0.014556 0.000000 0.000000 0.000000
# 4 0.000000 0.000000 0.000000 0.031303 0.000000 0.000000
# 5 0.000000 0.000000 0.000000 0.000000 0.194611 0.000000
# 6 0.000000 0.000000 0.000000 0.000000 0.000000 0.212502
#
#
# Mechanical properties :
#
#
# Convention : Reuss Voigt Hill
#
# Bulk Modulus (GPa) = 46.07511 51.48056 48.77784
# Shear Modulus (GPa) = 9.85635 20.89591 15.37613
#
# Velocity S-wave (km/s) = 2.11786 3.08369 2.64523
# Velocity P-wave (km/s) = 5.19114 6.00884 5.61490
#
# Compressibility (1/GPa) = 0.02170369
#
# Stress axis : x y z
#
# Youngs Moduli (GPa) = 66.21176 83.25594 68.70155
#
# Poissons Ratio (x) = 0.28497 0.02938
# Poissons Ratio (y) = 0.22663 0.42132
# Poissons Ratio (z) = 0.02831 0.51058
#
# Static dielectric constant tensor:
#      x y z
#    x 1.143430 0.000000 0.000000 
#    y 0.000000 1.790590 0.000000 
#    z 0.000000 0.000000 1.784210 
# 
# From -- ./inp_files/9426.got.cif
#   From: 2010.05.17/outbox.cif.g08.bks.cpg/sg40_5_cif.got.tgz:9426.got - 2010.06.03 18:35:42.
