data_PCOD9364850
_publ_section_title
;
Structure prediction by ZEFSAII (Michael W. Deem and Ramdas Pophale) SiO2 
 PCOD9364850
Probable space group: A M A 2
;
_chemical_formula_sum "Si O2"
_cell_formula_units_Z 36
_cell_length_a 14.064385
_cell_length_b 10.329482
_cell_length_c 11.968456
_cell_angle_alpha 90.000000
_cell_angle_beta 90.000000
_cell_angle_gamma 90.000000
_cell_volume 1738.751097
_symmetry_space_group_name_H-M "A M A 2"
_symmetry_group_IT_number 40
_symmetry_cell_setting 'orthorhombic'
loop_
_space_group_symop_operation_xyz
x,y,z
-x,-y,z
1/2-x,y,z
1/2+x,-y,z
x,1/2+y,1/2+z
-x,1/2-y,1/2+z
1/2-x,1/2+y,1/2+z
1/2+x,1/2-y,1/2+z
loop_
_atom_site_type_symbol
_atom_site_label
_atom_site_fract_x
_atom_site_fract_y
_atom_site_fract_z
Si Si1 0.919873 0.390260 0.935240
Si Si2 0.250000 0.561554 0.508991
Si Si3 0.901430 0.929482 0.676588
Si Si4 0.750000 0.602559 0.296571
Si Si5 0.551524 0.357607 0.403689
Si Si6 0.750000 0.403279 0.766986
O O1 0.844519 0.426264 0.839610
O O2 0.000000 0.500000 0.928777
O O3 0.974999 0.252596 0.931839
O O4 0.867273 0.388792 0.055536
O O5 0.250000 0.434832 0.427673
O O6 0.349291 0.634567 0.473942
O O7 0.250000 0.039887 0.141923
O O8 0.918696 0.827240 0.774973
O O9 0.837680 0.033278 0.738820
O O10 0.000000 0.000000 0.655003
O O11 0.750000 0.748345 0.260946
O O12 0.500000 0.500000 0.410493
#
# Coordination Sequence:
#
# PCOD9364850 Si02
#       6
#     8   4   8   4   8   4
#     4  11  25  40  64 101 136 169 221 285 348 403
#     4  10  24  39  68  99 130 177 230 285 338 409
#     4   9  19  38  64  87 121 169 216 267 321 404
#     4  10  21  43  67  91 124 179 236 264 332 422
#     4  10  22  43  69  96 129 179 233 273 338 414
#     4  12  25  42  67  98 136 186 222 285 352 415
#
# _framework density 20.704516999999999
#
# number of rings (size 3 to 8) (size 9 to 14) (size 15 to 20)
#    0.000    1.778    0.000    4.667    9.333    1.778 
#    4.000    0.000    0.000    0.000    0.000    0.000 
#    0.000    0.000    0.000    0.000    0.000    0.000 
#
# Total GULP energy -100276.621852 kJ/mol
# GULP energy per Si atom -5570.923436 kJ/mol
# Density = 2.065739 g / cm^3
# Si number density = 20.704517 Si / 1000 Ang^3
#
#
#
# Elastic Constant Matrix: (Units=GPa)
#
#
# Indices 1 2 3 4 5 6 
#
# 1 136.9865 19.8543 58.4681 0.0000 0.0000 0.0000
# 2 19.8543 76.6838 20.1818 0.0000 0.0000 0.0000
# 3 58.4681 20.1818 177.3267 0.0000 0.0000 0.0000
# 4 0.0000 0.0000 0.0000 -14.7739 0.0000 0.0000
# 5 0.0000 0.0000 0.0000 0.0000 35.8999 0.0000
# 6 0.0000 0.0000 0.0000 0.0000 0.0000 23.1240
#
#
#
# Elastic Compliance Matrix: (Units=1/GPa)
#
#
# Indices 1 2 3 4 5 6 
#
# 1 0.008668 -0.001538 -0.002683 0.000000 0.000000 0.000000
# 2 -0.001538 0.013716 -0.001054 0.000000 0.000000 0.000000
# 3 -0.002683 -0.001054 0.006644 0.000000 0.000000 0.000000
# 4 0.000000 0.000000 0.000000 -0.067687 0.000000 0.000000
# 5 0.000000 0.000000 0.000000 0.000000 0.027855 0.000000
# 6 0.000000 0.000000 0.000000 0.000000 0.000000 0.043245
#
#
# Mechanical properties :
#
#
# Convention : Reuss Voigt Hill
#
# Bulk Modulus (GPa) = 54.11817 65.33393 59.72605
# Shear Modulus (GPa) = 101.72776 28.34953 65.03865
#
# Velocity S-wave (km/s) = 7.01711 3.70434 5.61079
# Velocity P-wave (km/s) = 9.58374 7.06542 8.41927
#
# Compressibility (1/GPa) = 0.01847808
#
# Stress axis : x y z
#
# Youngs Moduli (GPa) = 115.36604 72.90663 150.51431
#
# Poissons Ratio (x) = 0.11214 0.40383
# Poissons Ratio (y) = 0.17745 0.15863
# Poissons Ratio (z) = 0.30952 0.07684
#
# Static dielectric constant tensor:
#      x y z
#    x 1.728950 0.000000 0.000000 
#    y 0.000000 1.749340 0.000000 
#    z 0.000000 0.000000 1.797170 
# 
# From -- ./inp_files/16788.got.cif
#   From: 2010.05.17/outbox.cif.g08.bks.cpg/sg40_9_cif.got.tgz:16788.got - 2010.06.03 18:35:42.
