data_PCOD9364530
_publ_section_title
;
Structure prediction by ZEFSAII (Michael W. Deem and Ramdas Pophale) SiO2 
 PCOD9364530
Probable space group: A M A 2
;
_chemical_formula_sum "Si O2"
_cell_formula_units_Z 36
_cell_length_a 15.590215
_cell_length_b 11.371910
_cell_length_c 9.650313
_cell_angle_alpha 90.000000
_cell_angle_beta 90.000000
_cell_angle_gamma 90.000000
_cell_volume 1710.909028
_symmetry_space_group_name_H-M "A M A 2"
_symmetry_group_IT_number 40
_symmetry_cell_setting 'orthorhombic'
loop_
_space_group_symop_operation_xyz
x,y,z
-x,-y,z
1/2-x,y,z
1/2+x,-y,z
x,1/2+y,1/2+z
-x,1/2-y,1/2+z
1/2-x,1/2+y,1/2+z
1/2+x,1/2-y,1/2+z
loop_
_atom_site_type_symbol
_atom_site_label
_atom_site_fract_x
_atom_site_fract_y
_atom_site_fract_z
Si Si1 0.655612 0.794877 0.194840
Si Si2 0.250000 0.857698 0.289318
Si Si3 0.750000 0.909308 0.434234
Si Si4 0.250000 0.093807 0.753682
Si Si5 0.593487 0.533050 0.615900
Si Si6 0.084446 0.431697 0.301502
O O1 0.750000 0.747694 0.160551
O O2 0.670654 0.856839 0.345614
O O3 0.632825 0.902272 0.095994
O O4 0.593151 0.687282 0.214444
O O5 0.250000 0.721093 0.325906
O O6 0.250000 0.950704 0.414839
O O7 0.335992 0.893276 0.201713
O O8 0.750000 0.873602 0.591101
O O9 0.167330 0.013820 0.782369
O O10 0.500000 0.500000 0.679649
O O11 0.579020 0.592152 0.466791
O O12 0.000000 0.500000 0.259047
#
# Coordination Sequence:
#
# PCOD9364530 Si02
#       6
#     8   4   4   4   8   8
#     4   9  19  40  61  78 114 153 199 241 288 349
#     4  10  21  37  61  91 111 150 206 234 294 354
#     4   8  19  37  59  83 109 158 194 232 302 340
#     4  12  22  36  58  82 128 154 184 248 292 352
#     4  10  21  39  64  86 112 155 200 245 292 350
#     4  11  24  38  57  90 118 155 198 237 300 353
#
# _framework density 21.041446000000001
#
# number of rings (size 3 to 8) (size 9 to 14) (size 15 to 20)
#    0.667    1.333    2.222    2.000    3.111    1.778 
#    0.000    4.444    0.000    0.000    0.000    0.000 
#    0.000    0.000    0.000    0.000    0.000    0.000 
#
# Total GULP energy -100350.034227 kJ/mol
# GULP energy per Si atom -5575.001902 kJ/mol
# Density = 2.099355 g / cm^3
# Si number density = 21.041446 Si / 1000 Ang^3
#
#
#
# Elastic Constant Matrix: (Units=GPa)
#
#
# Indices 1 2 3 4 5 6 
#
# 1 84.4501 -10.4469 -12.1517 0.0000 0.0000 0.0000
# 2 -10.4469 86.2619 -11.9072 0.0000 0.0000 0.0000
# 3 -12.1517 -11.9072 37.2230 0.0000 0.0000 0.0000
# 4 0.0000 0.0000 0.0000 21.3547 0.0000 0.0000
# 5 0.0000 0.0000 0.0000 0.0000 12.6553 0.0000
# 6 0.0000 0.0000 0.0000 0.0000 0.0000 26.9801
#
#
#
# Elastic Compliance Matrix: (Units=1/GPa)
#
#
# Indices 1 2 3 4 5 6 
#
# 1 0.012822 0.002229 0.004899 0.000000 0.000000 0.000000
# 2 0.002229 0.012516 0.004731 0.000000 0.000000 0.000000
# 3 0.004899 0.004731 0.029978 0.000000 0.000000 0.000000
# 4 0.000000 0.000000 0.000000 0.046828 0.000000 0.000000
# 5 0.000000 0.000000 0.000000 0.000000 0.079019 0.000000
# 6 0.000000 0.000000 0.000000 0.000000 0.000000 0.037064
#
#
# Mechanical properties :
#
#
# Convention : Reuss Voigt Hill
#
# Bulk Modulus (GPa) = 12.65281 15.43594 14.04437
# Shear Modulus (GPa) = 22.63951 28.36073 25.50012
#
# Velocity S-wave (km/s) = 3.28372 3.67529 3.48501
# Velocity P-wave (km/s) = 4.51702 5.03609 4.78360
#
# Compressibility (1/GPa) = 0.07903382
#
# Stress axis : x y z
#
# Youngs Moduli (GPa) = 77.99116 79.90007 33.35798
#
# Poissons Ratio (x) = -0.17810 -0.16342
# Poissons Ratio (y) = -0.17385 -0.15783
# Poissons Ratio (z) = -0.38207 -0.37803
#
# Static dielectric constant tensor:
#      x y z
#    x 1.766650 0.000000 0.000000 
#    y 0.000000 1.751320 0.000000 
#    z 0.000000 0.000000 1.745080 
# 
# From -- ./inp_files/11921.got.cif
#   From: 2010.05.17/outbox.cif.g08.bks.cpg/sg40_6_cif.got.tgz:11921.got - 2010.06.03 18:35:42.
