data_PCOD9364656
_publ_section_title
;
Structure prediction by ZEFSAII (Michael W. Deem and Ramdas Pophale) SiO2 
 PCOD9364656
Probable space group: A M A 2
;
_chemical_formula_sum "Si O2"
_cell_formula_units_Z 64
_cell_length_a 18.095530
_cell_length_b 11.383290
_cell_length_c 16.491574
_cell_angle_alpha 90.000000
_cell_angle_beta 90.000000
_cell_angle_gamma 90.000000
_cell_volume 3397.044340
_symmetry_space_group_name_H-M "A M A 2"
_symmetry_group_IT_number 40
_symmetry_cell_setting 'orthorhombic'
loop_
_space_group_symop_operation_xyz
x,y,z
-x,-y,z
1/2-x,y,z
1/2+x,-y,z
x,1/2+y,1/2+z
-x,1/2-y,1/2+z
1/2-x,1/2+y,1/2+z
1/2+x,1/2-y,1/2+z
loop_
_atom_site_type_symbol
_atom_site_label
_atom_site_fract_x
_atom_site_fract_y
_atom_site_fract_z
Si Si1 0.336284 0.497878 0.840930
Si Si2 0.661832 0.777309 0.883835
Si Si3 0.922364 0.932226 0.488524
Si Si4 0.955996 0.235458 0.113538
Si Si5 0.834341 0.044135 0.157853
Si Si6 0.619790 0.819312 0.069448
Si Si7 0.835860 0.567974 0.127300
Si Si8 0.431677 0.576412 0.253445
O O1 0.250000 0.525511 0.854911
O O2 0.347603 0.360240 0.862156
O O3 0.352655 0.509132 0.746113
O O4 0.387221 0.573167 0.899998
O O5 0.750000 0.802358 0.880155
O O6 0.615836 0.855726 0.820586
O O7 0.632040 0.797290 0.974366
O O8 0.934481 0.809926 0.533940
O O9 0.868451 0.008196 0.546086
O O10 0.000000 0.000000 0.485640
O O11 0.891905 0.145150 0.136294
O O12 0.961791 0.329351 0.187133
O O13 0.033913 0.175029 0.094736
O O14 0.750000 0.089709 0.162340
O O15 0.840848 0.938821 0.094687
O O16 0.652255 0.706652 0.116620
O O17 0.750000 0.540851 0.134708
O O18 0.880113 0.511438 0.201621
O O19 0.500000 0.500000 0.286476
#
# Coordination Sequence:
#
# PCOD9364656 Si02
#       8
#     8   8   8   8   8   8   8   8
#     4  10  21  39  61  92 123 160 210 258 315 375
#     4  11  22  40  66  93 127 170 215 260 313 383
#     4  11  20  37  62  93 127 154 210 267 314 375
#     4  11  22  41  64  92 127 169 211 267 330 380
#     4  11  25  42  63  91 128 169 216 264 320 390
#     4  12  23  43  62  92 130 171 213 258 322 393
#     4  11  20  35  63  92 122 164 209 257 316 375
#     4  11  22  40  63  94 130 160 213 274 318 378
#
# _framework density 18.839908000000001
#
# number of rings (size 3 to 8) (size 9 to 14) (size 15 to 20)
#    0.000    1.000    5.000    3.000    0.000    4.500 
#    2.250    1.250    0.000    1.500    0.000    0.000 
#    0.000    0.000    0.000    0.000    0.000    0.000 
#
# Total GULP energy -178878.900486 kJ/mol
# GULP energy per Si atom -5589.965640 kJ/mol
# Density = 1.879703 g / cm^3
# Si number density = 18.839908 Si / 1000 Ang^3
#
#
#
# Elastic Constant Matrix: (Units=GPa)
#
#
# Indices 1 2 3 4 5 6 
#
# 1 106.3246 4.7181 24.5460 0.0000 0.0000 0.0000
# 2 4.7181 26.2543 6.0600 0.0000 0.0000 0.0000
# 3 24.5460 6.0600 83.7886 0.0000 0.0000 0.0000
# 4 0.0000 0.0000 0.0000 -1.9203 0.0000 0.0000
# 5 0.0000 0.0000 0.0000 0.0000 9.5744 0.0000
# 6 0.0000 0.0000 0.0000 0.0000 0.0000 13.9150
#
#
#
# Elastic Compliance Matrix: (Units=1/GPa)
#
#
# Indices 1 2 3 4 5 6 
#
# 1 0.010122 -0.001154 -0.002882 0.000000 0.000000 0.000000
# 2 -0.001154 0.038867 -0.002473 0.000000 0.000000 0.000000
# 3 -0.002882 -0.002473 0.012958 0.000000 0.000000 0.000000
# 4 0.000000 0.000000 0.000000 -0.520751 0.000000 0.000000
# 5 0.000000 0.000000 0.000000 0.000000 0.104445 0.000000
# 6 0.000000 0.000000 0.000000 0.000000 0.000000 0.071865
#
#
# Mechanical properties :
#
#
# Convention : Reuss Voigt Hill
#
# Bulk Modulus (GPa) = 20.43756 31.89065 26.16411
# Shear Modulus (GPa) = -19.74974 16.38338 -1.68318
#
# Velocity S-wave (km/s) = -3.24125 2.95212 -0.94623
# Velocity P-wave (km/s) = 1.77088 5.34639 3.56706
#
# Compressibility (1/GPa) = 0.04892952
#
# Stress axis : x y z
#
# Youngs Moduli (GPa) = 98.79831 25.72867 77.17328
#
# Poissons Ratio (x) = 0.02969 0.22239
# Poissons Ratio (y) = 0.11399 0.19085
# Poissons Ratio (z) = 0.28471 0.06363
#
# Static dielectric constant tensor:
#      x y z
#    x 1.653300 0.000000 0.000000 
#    y 0.000000 1.633860 0.000000 
#    z 0.000000 0.000000 1.630070 
# 
# From -- ./inp_files/17816.got.cif
#   From: 2010.05.17/outbox.cif.g08.bks.cpg/sg40_9_cif.got.tgz:17816.got - 2010.06.03 18:35:42.
