data_PCOD9364927
_publ_section_title
;
Structure prediction by ZEFSAII (Michael W. Deem and Ramdas Pophale) SiO2 
 PCOD9364927
Probable space group: A M A 2
;
_chemical_formula_sum "Si O2"
_cell_formula_units_Z 64
_cell_length_a 16.388400
_cell_length_b 27.450533
_cell_length_c 6.625214
_cell_angle_alpha 90.000000
_cell_angle_beta 90.000000
_cell_angle_gamma 90.000000
_cell_volume 2980.487109
_symmetry_space_group_name_H-M "A M A 2"
_symmetry_group_IT_number 40
_symmetry_cell_setting 'orthorhombic'
loop_
_space_group_symop_operation_xyz
x,y,z
-x,-y,z
1/2-x,y,z
1/2+x,-y,z
x,1/2+y,1/2+z
-x,1/2-y,1/2+z
1/2-x,1/2+y,1/2+z
1/2+x,1/2-y,1/2+z
loop_
_atom_site_type_symbol
_atom_site_label
_atom_site_fract_x
_atom_site_fract_y
_atom_site_fract_z
Si Si1 0.068273 0.781480 0.621110
Si Si2 0.838679 0.685267 0.732551
Si Si3 0.150895 0.530342 0.850579
Si Si4 0.114517 0.724911 0.980987
Si Si5 0.074478 0.054870 0.926324
Si Si6 0.601546 0.535064 0.206513
Si Si7 0.341909 0.621085 0.155751
Si Si8 0.655984 0.136032 0.853668
O O1 0.104505 0.797612 0.409508
O O2 0.108040 0.736518 0.742878
O O3 0.089285 0.828232 0.757790
O O4 0.975065 0.770442 0.578453
O O5 0.750000 0.675565 0.821601
O O6 0.836088 0.731183 0.581262
O O7 0.861602 0.639148 0.593938
O O8 0.250000 0.522513 0.809211
O O9 0.092861 0.544257 0.660207
O O10 0.111881 0.484585 0.976805
O O11 0.146457 0.577977 0.993592
O O12 0.143888 0.672101 0.045754
O O13 0.102366 0.107441 0.846857
O O14 0.986705 0.047267 0.813339
O O15 0.130776 0.012362 0.828427
O O16 0.650336 0.583678 0.252228
O O17 0.250000 0.619968 0.231292
O O18 0.750000 0.153359 0.830331
#
# Coordination Sequence:
#
# PCOD9364927 Si02
#       8
#     8   8   8   8   8   8   8   8
#     4  11  22  39  61  88 123 165 215 271 325 385
#     4  10  22  39  59  87 124 162 209 265 322 384
#     4  10  22  41  64  94 132 172 221 275 332 400
#     4  11  22  39  62  88 123 164 214 269 332 387
#     4  10  22  39  63  94 130 168 214 272 331 393
#     4  10  22  40  64  93 130 170 214 270 331 394
#     4  10  22  39  60  89 125 167 217 272 331 398
#     4  10  22  39  61  91 127 168 214 265 326 393
#
# _framework density 21.472999000000002
#
# number of rings (size 3 to 8) (size 9 to 14) (size 15 to 20)
#    0.000    1.750    1.250    2.250    0.000   10.000 
#    0.000    2.500    0.000    0.000    0.000    0.000 
#    0.000    0.000    0.000    0.000    0.000    0.000 
#
# Total GULP energy -178170.141028 kJ/mol
# GULP energy per Si atom -5567.816907 kJ/mol
# Density = 2.142413 g / cm^3
# Si number density = 21.472999 Si / 1000 Ang^3
#
#
#
# Elastic Constant Matrix: (Units=GPa)
#
#
# Indices 1 2 3 4 5 6 
#
# 1 68.9987 -5.5938 33.6111 0.0000 0.0000 0.0000
# 2 -5.5938 77.6749 7.4387 0.0000 0.0000 0.0000
# 3 33.6111 7.4387 75.0547 0.0000 0.0000 0.0000
# 4 0.0000 0.0000 0.0000 34.5817 0.0000 0.0000
# 5 0.0000 0.0000 0.0000 0.0000 50.8826 0.0000
# 6 0.0000 0.0000 0.0000 0.0000 0.0000 -99.4390
#
#
#
# Elastic Compliance Matrix: (Units=1/GPa)
#
#
# Indices 1 2 3 4 5 6 
#
# 1 0.018899 0.002192 -0.008681 0.000000 0.000000 0.000000
# 2 0.002192 0.013252 -0.002295 0.000000 0.000000 0.000000
# 3 -0.008681 -0.002295 0.017439 0.000000 0.000000 0.000000
# 4 0.000000 0.000000 0.000000 0.028917 0.000000 0.000000
# 5 0.000000 0.000000 0.000000 0.000000 0.019653 0.000000
# 6 0.000000 0.000000 0.000000 0.000000 0.000000 -0.010056
#
#
# Mechanical properties :
#
#
# Convention : Reuss Voigt Hill
#
# Bulk Modulus (GPa) = 31.22801 32.51560 31.87180
# Shear Modulus (GPa) = 42.97557 9.62319 26.29938
#
# Velocity S-wave (km/s) = 4.47853 2.11926 3.50346
# Velocity P-wave (km/s) = 6.42787 4.60041 5.58933
#
# Compressibility (1/GPa) = 0.03202253
#
# Stress axis : x y z
#
# Youngs Moduli (GPa) = 52.91157 75.46113 57.34411
#
# Poissons Ratio (x) = -0.16544 0.49780
# Poissons Ratio (y) = -0.11600 0.13162
# Poissons Ratio (z) = 0.45932 0.17320
#
# Static dielectric constant tensor:
#      x y z
#    x 1.798720 0.000000 0.000000 
#    y 0.000000 1.808580 0.000000 
#    z 0.000000 0.000000 1.862660 
# 
# From -- ./inp_files/2039.got.cif
#   From: 2010.05.17/outbox.cif.g08.bks.cpg/sg40_2_cif.got.tgz:2039.got - 2010.06.03 18:35:42.
