data_PCOD9364810
_publ_section_title
;
Structure prediction by ZEFSAII (Michael W. Deem and Ramdas Pophale) SiO2 
 PCOD9364810
Probable space group: A M A 2
;
_chemical_formula_sum "Si O2"
_cell_formula_units_Z 64
_cell_length_a 8.785809
_cell_length_b 29.372745
_cell_length_c 13.270704
_cell_angle_alpha 90.000000
_cell_angle_beta 90.000000
_cell_angle_gamma 90.000000
_cell_volume 3424.682031
_symmetry_space_group_name_H-M "A M A 2"
_symmetry_group_IT_number 40
_symmetry_cell_setting 'orthorhombic'
loop_
_space_group_symop_operation_xyz
x,y,z
-x,-y,z
1/2-x,y,z
1/2+x,-y,z
x,1/2+y,1/2+z
-x,1/2-y,1/2+z
1/2-x,1/2+y,1/2+z
1/2+x,1/2-y,1/2+z
loop_
_atom_site_type_symbol
_atom_site_label
_atom_site_fract_x
_atom_site_fract_y
_atom_site_fract_z
Si Si1 0.576416 0.212732 0.407750
Si Si2 0.566505 0.050501 0.731062
Si Si3 0.931479 0.122026 0.901897
Si Si4 0.567403 0.356195 0.616559
Si Si5 0.076906 0.700492 0.275474
Si Si6 0.567585 0.381502 0.838762
Si Si7 0.067027 0.949212 0.503810
Si Si8 0.432327 0.755501 0.098987
O O1 0.750000 0.202977 0.440621
O O2 0.585438 0.248047 0.316283
O O3 0.491863 0.167039 0.377937
O O4 0.484767 0.241328 0.489126
O O5 0.750000 0.048177 0.733603
O O6 0.517995 0.082689 0.823495
O O7 0.524888 0.067549 0.617767
O O8 0.500000 0.000000 0.742178
O O9 0.750000 0.119645 0.913560
O O10 0.977451 0.168524 0.845195
O O11 0.005125 0.122339 0.012768
O O12 0.750000 0.354027 0.610909
O O13 0.525025 0.382727 0.719642
O O14 0.505020 0.304437 0.623525
O O15 0.250000 0.682120 0.274236
O O16 0.017084 0.711498 0.164802
O O17 0.750000 0.383754 0.844902
O O18 0.497036 0.418855 0.913158
O O19 0.250000 0.950489 0.498044
O O20 0.000000 0.000000 0.495699
O O21 0.250000 0.759196 0.106290
#
# Coordination Sequence:
#
# PCOD9364810 Si02
#       8
#     8   8   8   8   8   8   8   8
#     4  11  22  37  56  82 117 155 199 245 292 347
#     4   9  21  41  64  93 119 149 186 234 294 352
#     4  11  23  38  60  88 119 154 199 242 291 352
#     4  11  23  39  58  82 117 159 201 244 293 345
#     4  10  22  37  54  81 116 155 199 240 291 346
#     4  11  24  40  60  88 119 157 204 246 295 353
#     4  10  21  41  67  93 122 152 188 239 299 356
#     4  11  22  37  55  79 113 155 201 246 293 346
#
# _framework density 18.687867000000001
#
# number of rings (size 3 to 8) (size 9 to 14) (size 15 to 20)
#    0.000    1.500    2.500    2.250    1.750    4.500 
#    0.000    0.625    0.000    1.500    0.000    0.000 
#    0.000    0.000    0.000    0.000    0.000    0.000 
#
# Total GULP energy -178521.895707 kJ/mol
# GULP energy per Si atom -5578.809241 kJ/mol
# Density = 1.864533 g / cm^3
# Si number density = 18.687867 Si / 1000 Ang^3
#
#
#
# Elastic Constant Matrix: (Units=GPa)
#
#
# Indices 1 2 3 4 5 6 
#
# 1 59.8445 29.3322 52.5374 0.0000 0.0000 0.0000
# 2 29.3322 74.0542 66.5264 0.0000 0.0000 0.0000
# 3 52.5374 66.5264 139.1081 0.0000 0.0000 0.0000
# 4 0.0000 0.0000 0.0000 34.6087 0.0000 0.0000
# 5 0.0000 0.0000 0.0000 0.0000 34.6260 0.0000
# 6 0.0000 0.0000 0.0000 0.0000 0.0000 28.9690
#
#
#
# Elastic Compliance Matrix: (Units=1/GPa)
#
#
# Indices 1 2 3 4 5 6 
#
# 1 0.025263 -0.002516 -0.008338 0.000000 0.000000 0.000000
# 2 -0.002516 0.023925 -0.010492 0.000000 0.000000 0.000000
# 3 -0.008338 -0.010492 0.015355 0.000000 0.000000 0.000000
# 4 0.000000 0.000000 0.000000 0.028894 0.000000 0.000000
# 5 0.000000 0.000000 0.000000 0.000000 0.028880 0.000000
# 6 0.000000 0.000000 0.000000 0.000000 0.000000 0.034520
#
#
# Mechanical properties :
#
#
# Convention : Reuss Voigt Hill
#
# Bulk Modulus (GPa) = 45.76202 63.31098 54.53650
# Shear Modulus (GPa) = 24.17640 27.94814 26.06227
#
# Velocity S-wave (km/s) = 3.60070 3.87139 3.73850
# Velocity P-wave (km/s) = 6.46741 7.34406 6.91963
#
# Compressibility (1/GPa) = 0.02185218
#
# Stress axis : x y z
#
# Youngs Moduli (GPa) = 39.58358 41.79643 65.12473
#
# Poissons Ratio (x) = 0.10517 0.54300
# Poissons Ratio (y) = 0.09960 0.68327
# Poissons Ratio (z) = 0.33004 0.43852
#
# Static dielectric constant tensor:
#      x y z
#    x 1.632230 0.000000 0.000000 
#    y 0.000000 1.621570 0.000000 
#    z 0.000000 0.000000 1.679760 
# 
# From -- ./inp_files/10591.got.cif
#   From: 2010.05.17/outbox.cif.g08.bks.cpg/sg40_6_cif.got.tgz:10591.got - 2010.06.03 18:35:42.
