data_PCOD9364683
_publ_section_title
;
Structure prediction by ZEFSAII (Michael W. Deem and Ramdas Pophale) SiO2 
 PCOD9364683
Probable space group: A M A 2
;
_chemical_formula_sum "Si O2"
_cell_formula_units_Z 60
_cell_length_a 20.609651
_cell_length_b 17.334473
_cell_length_c 9.300598
_cell_angle_alpha 90.000000
_cell_angle_beta 90.000000
_cell_angle_gamma 90.000000
_cell_volume 3322.707821
_symmetry_space_group_name_H-M "A M A 2"
_symmetry_group_IT_number 40
_symmetry_cell_setting 'orthorhombic'
loop_
_space_group_symop_operation_xyz
x,y,z
-x,-y,z
1/2-x,y,z
1/2+x,-y,z
x,1/2+y,1/2+z
-x,1/2-y,1/2+z
1/2-x,1/2+y,1/2+z
1/2+x,1/2-y,1/2+z
loop_
_atom_site_type_symbol
_atom_site_label
_atom_site_fract_x
_atom_site_fract_y
_atom_site_fract_z
Si Si1 0.393164 0.604202 0.394150
Si Si2 0.172715 0.704585 0.151348
Si Si3 0.173084 0.519303 0.656461
Si Si4 0.968544 0.292541 0.613159
Si Si5 0.500000 0.000000 0.744786
Si Si6 0.893278 0.861938 0.370613
Si Si7 0.399759 0.861854 0.225048
Si Si8 0.974942 0.619624 0.015100
O O1 0.354280 0.641118 0.262712
O O2 0.347765 0.560862 0.508541
O O3 0.429791 0.672435 0.479474
O O4 0.448292 0.546720 0.337525
O O5 0.250000 0.705506 0.151081
O O6 0.145072 0.787298 0.201256
O O7 0.145711 0.681600 0.994530
O O8 0.250000 0.507949 0.663636
O O9 0.148914 0.575956 0.784003
O O10 0.135110 0.438730 0.670563
O O11 0.923867 0.303221 0.753878
O O12 0.985043 0.204266 0.582891
O O13 0.033342 0.341904 0.641913
O O14 0.462507 0.940265 0.641246
O O15 0.956393 0.902123 0.441496
O O16 0.421327 0.874271 0.390815
#
# Coordination Sequence:
#
# PCOD9364683 Si02
#       8
#     8   8   8   8   4   8   8   8
#     4  11  23  40  61  94 117 161 199 253 309 356
#     4  12  23  40  62  87 122 165 210 242 290 375
#     4  11  24  43  61  87 129 168 206 246 296 371
#     4  10  21  39  64  89 125 151 199 260 312 356
#     4  12  22  34  64  94 126 146 200 258 318 356
#     4  10  22  39  63  89 118 163 202 244 310 360
#     4  11  22  38  65  91 122 159 203 252 312 355
#     4  11  21  38  62  97 125 150 194 267 312 359
#
# _framework density 18.057561
#
# number of rings (size 3 to 8) (size 9 to 14) (size 15 to 20)
#    0.000    1.067    4.000    2.800    1.867    4.800 
#    0.000    0.000    0.000    0.000    0.000    0.000 
#    0.000    0.000    0.000    0.000    0.000    0.000 
#
# Total GULP energy -167685.685296 kJ/mol
# GULP energy per Si atom -5589.522843 kJ/mol
# Density = 1.801646 g / cm^3
# Si number density = 18.057561 Si / 1000 Ang^3
#
#
#
# Elastic Constant Matrix: (Units=GPa)
#
#
# Indices 1 2 3 4 5 6 
#
# 1 127.6931 49.4296 57.7606 0.0000 0.0000 0.0000
# 2 49.4296 102.1043 43.8755 0.0000 0.0000 0.0000
# 3 57.7606 43.8755 102.4644 0.0000 0.0000 0.0000
# 4 0.0000 0.0000 0.0000 13.6515 0.0000 0.0000
# 5 0.0000 0.0000 0.0000 0.0000 14.8717 0.0000
# 6 0.0000 0.0000 0.0000 0.0000 0.0000 24.4322
#
#
#
# Elastic Compliance Matrix: (Units=1/GPa)
#
#
# Indices 1 2 3 4 5 6 
#
# 1 0.011388 -0.003376 -0.004974 0.000000 0.000000 0.000000
# 2 -0.003376 0.013003 -0.003665 0.000000 0.000000 0.000000
# 3 -0.004974 -0.003665 0.014133 0.000000 0.000000 0.000000
# 4 0.000000 0.000000 0.000000 0.073252 0.000000 0.000000
# 5 0.000000 0.000000 0.000000 0.000000 0.067242 0.000000
# 6 0.000000 0.000000 0.000000 0.000000 0.000000 0.040930
#
#
# Mechanical properties :
#
#
# Convention : Reuss Voigt Hill
#
# Bulk Modulus (GPa) = 68.99267 70.48815 69.74041
# Shear Modulus (GPa) = 20.09579 22.67080 21.38330
#
# Velocity S-wave (km/s) = 3.33960 3.54711 3.44492
# Velocity P-wave (km/s) = 7.29113 7.47636 7.38433
#
# Compressibility (1/GPa) = 0.01449429
#
# Stress axis : x y z
#
# Youngs Moduli (GPa) = 87.81224 76.90555 70.75709
#
# Poissons Ratio (x) = 0.25960 0.35195
# Poissons Ratio (y) = 0.29642 0.25933
# Poissons Ratio (z) = 0.43679 0.28186
#
# Static dielectric constant tensor:
#      x y z
#    x 1.588270 0.000000 0.000000 
#    y 0.000000 1.598990 0.000000 
#    z 0.000000 0.000000 1.621700 
# 
# From -- ./inp_files/7678.got.cif
#   From: 2010.05.17/outbox.cif.g08.bks.cpg/sg40_4_cif.got.tgz:7678.got - 2010.06.03 18:35:42.
