data_PCOD9364244
_publ_section_title
;
Structure prediction by ZEFSAII (Michael W. Deem and Ramdas Pophale) SiO2 
 PCOD9364244
Probable space group: A M A 2
;
_chemical_formula_sum "Si O2"
_cell_formula_units_Z 56
_cell_length_a 13.769000
_cell_length_b 9.302088
_cell_length_c 20.854261
_cell_angle_alpha 90.000000
_cell_angle_beta 90.000000
_cell_angle_gamma 90.000000
_cell_volume 2671.023126
_symmetry_space_group_name_H-M "A M A 2"
_symmetry_group_IT_number 40
_symmetry_cell_setting 'orthorhombic'
loop_
_space_group_symop_operation_xyz
x,y,z
-x,-y,z
1/2-x,y,z
1/2+x,-y,z
x,1/2+y,1/2+z
-x,1/2-y,1/2+z
1/2-x,1/2+y,1/2+z
1/2+x,1/2-y,1/2+z
loop_
_atom_site_type_symbol
_atom_site_label
_atom_site_fract_x
_atom_site_fract_y
_atom_site_fract_z
Si Si1 0.139958 0.135537 0.690970
Si Si2 0.363577 0.390810 0.288691
Si Si3 0.483864 0.298366 0.489873
Si Si4 0.467528 0.661755 0.726218
Si Si5 0.364145 0.043831 0.922256
Si Si6 0.635687 0.778976 0.093119
Si Si7 0.359048 0.552485 0.044798
O O1 0.250000 0.166877 0.711399
O O2 0.136956 0.126360 0.614583
O O3 0.065155 0.253116 0.711510
O O4 0.113793 0.985248 0.725387
O O5 0.250000 0.358187 0.287497
O O6 0.420814 0.242836 0.286532
O O7 0.381678 0.488477 0.350384
O O8 0.402490 0.413459 0.467740
O O9 0.569094 0.318157 0.437041
O O10 0.546546 0.344661 0.552458
O O11 0.433873 0.143985 0.501868
O O12 0.500000 0.500000 0.734787
O O13 0.393334 0.689253 0.666576
O O14 0.250000 0.070426 0.931653
O O15 0.750000 0.820655 0.083367
O O16 0.628499 0.613983 0.066444
O O17 0.250000 0.566024 0.017964
#
# Coordination Sequence:
#
# PCOD9364244 Si02
#       7
#     8   8   8   8   8   8   8
#     4  10  21  38  67  98 127 166 220 278 338 406
#     4  10  22  45  74  96 124 174 233 286 336 405
#     4  11  22  36  61  97 126 174 224 275 322 387
#     4  12  25  38  64 104 137 171 216 279 358 413
#     4  10  24  43  65  93 129 176 229 278 328 395
#     4  11  23  40  63  96 136 178 217 269 337 410
#     4  10  20  38  64  96 131 169 216 270 331 404
#
# _framework density 20.965748999999999
#
# number of rings (size 3 to 8) (size 9 to 14) (size 15 to 20)
#    0.000    1.429    2.857    2.143    6.000    1.143 
#    0.000    2.857    0.000    0.000    0.000    0.000 
#    0.000    0.000    0.000    0.000    0.000    0.000 
#
# Total GULP energy -156164.938770 kJ/mol
# GULP energy per Si atom -5577.319242 kJ/mol
# Density = 2.091803 g / cm^3
# Si number density = 20.965749 Si / 1000 Ang^3
#
#
#
# Elastic Constant Matrix: (Units=GPa)
#
#
# Indices 1 2 3 4 5 6 
#
# 1 143.0960 49.4923 27.5050 0.0000 0.0000 0.0000
# 2 49.4923 92.1527 22.8991 0.0000 0.0000 0.0000
# 3 27.5050 22.8991 53.3796 0.0000 0.0000 0.0000
# 4 0.0000 0.0000 0.0000 17.4454 0.0000 0.0000
# 5 0.0000 0.0000 0.0000 0.0000 22.0580 0.0000
# 6 0.0000 0.0000 0.0000 0.0000 0.0000 -0.9991
#
#
#
# Elastic Compliance Matrix: (Units=1/GPa)
#
#
# Indices 1 2 3 4 5 6 
#
# 1 0.008955 -0.004100 -0.002856 0.000000 0.000000 0.000000
# 2 -0.004100 0.014023 -0.003903 0.000000 0.000000 0.000000
# 3 -0.002856 -0.003903 0.021880 0.000000 0.000000 0.000000
# 4 0.000000 0.000000 0.000000 0.057322 0.000000 0.000000
# 5 0.000000 0.000000 0.000000 0.000000 0.045335 0.000000
# 6 0.000000 0.000000 0.000000 0.000000 0.000000 -1.000937
#
#
# Mechanical properties :
#
#
# Convention : Reuss Voigt Hill
#
# Bulk Modulus (GPa) = 43.21396 54.26903 48.74149
# Shear Modulus (GPa) = -6.06803 20.28299 7.10748
#
# Velocity S-wave (km/s) = -1.70310 3.11374 1.84320
# Velocity P-wave (km/s) = 4.09744 6.23442 5.27527
#
# Compressibility (1/GPa) = 0.02314067
#
# Stress axis : x y z
#
# Youngs Moduli (GPa) = 111.66629 71.30908 45.70476
#
# Poissons Ratio (x) = 0.29237 0.13051
# Poissons Ratio (y) = 0.45783 0.17840
# Poissons Ratio (z) = 0.31887 0.27834
#
# Static dielectric constant tensor:
#      x y z
#    x 1.789760 0.000000 0.000000 
#    y 0.000000 1.839240 0.000000 
#    z 0.000000 0.000000 1.801090 
# 
# From -- ./inp_files/23102.got.cif
#   From: 2010.05.17/outbox.cif.g08.bks.cpg/sg40_12_cif.got.tgz:23102.got - 2010.06.03 18:35:42.
