data_PCOD9364216
_publ_section_title
;
Structure prediction by ZEFSAII (Michael W. Deem and Ramdas Pophale) SiO2 
 PCOD9364216
Probable space group: A M A 2
;
_chemical_formula_sum "Si O2"
_cell_formula_units_Z 64
_cell_length_a 18.040135
_cell_length_b 32.966542
_cell_length_c 5.405501
_cell_angle_alpha 90.000000
_cell_angle_beta 90.000000
_cell_angle_gamma 90.000000
_cell_volume 3214.764248
_symmetry_space_group_name_H-M "A M A 2"
_symmetry_group_IT_number 40
_symmetry_cell_setting 'orthorhombic'
loop_
_space_group_symop_operation_xyz
x,y,z
-x,-y,z
1/2-x,y,z
1/2+x,-y,z
x,1/2+y,1/2+z
-x,1/2-y,1/2+z
1/2-x,1/2+y,1/2+z
1/2+x,1/2-y,1/2+z
loop_
_atom_site_type_symbol
_atom_site_label
_atom_site_fract_x
_atom_site_fract_y
_atom_site_fract_z
Si Si1 0.608571 0.115579 0.132370
Si Si2 0.666248 0.363972 0.036576
Si Si3 0.664399 0.576290 0.119994
Si Si4 0.671594 0.436402 0.404463
Si Si5 0.548504 0.422936 0.776286
Si Si6 0.035870 0.800247 0.110814
Si Si7 0.559754 0.293195 0.111459
Si Si8 0.576296 0.994665 0.646888
O O1 0.654304 0.104609 0.378608
O O2 0.527820 0.095623 0.183819
O O3 0.594166 0.163404 0.106552
O O4 0.641566 0.097748 0.878371
O O5 0.750000 0.362700 0.927609
O O6 0.672359 0.392742 0.276210
O O7 0.633743 0.320001 0.097037
O O8 0.602070 0.387554 0.885762
O O9 0.750000 0.563802 0.136765
O O10 0.608780 0.538605 0.082782
O O11 0.750000 0.442799 0.535275
O O12 0.597970 0.439230 0.557368
O O13 0.653921 0.472103 0.215329
O O14 0.543652 0.461448 0.955529
O O15 0.070719 0.755244 0.108232
O O16 0.988743 0.802984 0.365750
O O17 0.984215 0.803696 0.865280
O O18 0.500000 0.000000 0.808988
#
# Coordination Sequence:
#
# PCOD9364216 Si02
#       8
#     8   8   8   8   8   8   8   8
#     4  12  24  44  72  97 128 175 224 276 319 384
#     4  10  21  37  57  93 137 170 204 259 333 396
#     4  12  28  47  67  94 132 175 220 275 337 388
#     4  10  22  37  59  87 126 167 208 261 329 392
#     4  11  22  37  67  93 124 167 217 275 319 390
#     4  10  21  38  69  96 129 162 225 272 315 372
#     4  10  20  38  63 101 129 170 211 268 323 388
#     4  11  23  41  60  92 120 165 218 275 319 385
#
# _framework density 19.908147
#
# number of rings (size 3 to 8) (size 9 to 14) (size 15 to 20)
#    0.000    1.250    2.500    3.375    3.500    2.000 
#    0.000    1.250    0.000    0.000    0.000    0.000 
#    0.000    0.000    0.000    0.000    0.000    0.000 
#
# Total GULP energy -178279.326926 kJ/mol
# GULP energy per Si atom -5571.228966 kJ/mol
# Density = 1.986284 g / cm^3
# Si number density = 19.908147 Si / 1000 Ang^3
#
#
#
# Elastic Constant Matrix: (Units=GPa)
#
#
# Indices 1 2 3 4 5 6 
#
# 1 131.2581 43.5303 28.4436 0.0000 0.0000 0.0000
# 2 43.5303 126.9915 28.6113 0.0000 0.0000 0.0000
# 3 28.4436 28.6113 87.7366 0.0000 0.0000 0.0000
# 4 0.0000 0.0000 0.0000 -37.8737 0.0000 0.0000
# 5 0.0000 0.0000 0.0000 0.0000 18.0595 0.0000
# 6 0.0000 0.0000 0.0000 0.0000 0.0000 8.1691
#
#
#
# Elastic Compliance Matrix: (Units=1/GPa)
#
#
# Indices 1 2 3 4 5 6 
#
# 1 0.008923 -0.002598 -0.002046 0.000000 0.000000 0.000000
# 2 -0.002598 0.009255 -0.002176 0.000000 0.000000 0.000000
# 3 -0.002046 -0.002176 0.012771 0.000000 0.000000 0.000000
# 4 0.000000 0.000000 0.000000 -0.026404 0.000000 0.000000
# 5 0.000000 0.000000 0.000000 0.000000 0.055372 0.000000
# 6 0.000000 0.000000 0.000000 0.000000 0.000000 0.122412
#
#
# Mechanical properties :
#
#
# Convention : Reuss Voigt Hill
#
# Bulk Modulus (GPa) = 57.76973 60.79519 59.28246
# Shear Modulus (GPa) = 24.78444 14.03106 19.40775
#
# Velocity S-wave (km/s) = 3.53220 2.65767 3.12567
# Velocity P-wave (km/s) = 6.76139 6.32627 6.54745
#
# Compressibility (1/GPa) = 0.01731010
#
# Stress axis : x y z
#
# Youngs Moduli (GPa) = 112.06432 108.04619 78.30508
#
# Poissons Ratio (x) = 0.28069 0.16019
# Poissons Ratio (y) = 0.29113 0.17039
# Poissons Ratio (z) = 0.22925 0.23511
#
# Static dielectric constant tensor:
#      x y z
#    x 1.717240 0.000000 0.000000 
#    y 0.000000 1.750690 0.000000 
#    z 0.000000 0.000000 1.924020 
# 
# From -- ./inp_files/2016.got.cif
#   From: 2010.05.17/outbox.cif.g08.bks.cpg/sg40_2_cif.got.tgz:2016.got - 2010.06.03 18:35:42.
