data_PCOD9364879
_publ_section_title
;
Structure prediction by ZEFSAII (Michael W. Deem and Ramdas Pophale) SiO2 
 PCOD9364879
Probable space group: A M A 2
;
_chemical_formula_sum "Si O2"
_cell_formula_units_Z 64
_cell_length_a 13.579281
_cell_length_b 7.611697
_cell_length_c 27.940328
_cell_angle_alpha 90.000000
_cell_angle_beta 90.000000
_cell_angle_gamma 90.000000
_cell_volume 2887.950649
_symmetry_space_group_name_H-M "A M A 2"
_symmetry_group_IT_number 40
_symmetry_cell_setting 'orthorhombic'
loop_
_space_group_symop_operation_xyz
x,y,z
-x,-y,z
1/2-x,y,z
1/2+x,-y,z
x,1/2+y,1/2+z
-x,1/2-y,1/2+z
1/2-x,1/2+y,1/2+z
1/2+x,1/2-y,1/2+z
loop_
_atom_site_type_symbol
_atom_site_label
_atom_site_fract_x
_atom_site_fract_y
_atom_site_fract_z
Si Si1 0.631711 0.295969 0.515130
Si Si2 0.131173 0.578948 0.332010
Si Si3 0.533060 0.798858 0.580439
Si Si4 0.133453 0.597847 0.987311
Si Si5 0.866547 0.097847 0.277759
Si Si6 0.131711 0.295969 0.249940
Si Si7 0.631173 0.578948 0.433061
Si Si8 0.533060 0.701142 0.684631
O O1 0.750000 0.296057 0.525073
O O2 0.562650 0.309751 0.561929
O O3 0.609684 0.444437 0.476164
O O4 0.602053 0.104524 0.493157
O O5 0.250000 0.589689 0.333611
O O6 0.094482 0.774202 0.319260
O O7 0.109684 0.444437 0.288906
O O8 0.101001 0.500000 0.382535
O O9 0.610131 0.801363 0.536970
O O10 0.570787 0.750000 0.632535
O O11 0.500000 0.000000 0.585027
O O12 0.250000 0.585437 0.980940
O O13 0.094482 0.725798 0.945810
O O14 0.750000 0.085437 0.284130
O O15 0.889869 0.198637 0.228101
O O16 0.897947 0.895476 0.271913
O O17 0.250000 0.296057 0.239998
O O18 0.062650 0.309751 0.203141
O O19 0.750000 0.589689 0.431459
O O20 0.500000 0.500000 0.680044
#
# Coordination Sequence:
#
# PCOD9364879 Si02
#       8
#     8   8   8   8   8   8   8   8
#     4   9  19  36  54  76 110 142 173 219 266 314
#     4   9  18  33  57  85 108 141 183 216 263 323
#     4  10  22  36  54  79 103 138 184 222 267 320
#     4   9  19  36  54  76 110 142 173 219 266 314
#     4   9  19  36  54  76 110 142 173 219 266 314
#     4   9  19  36  54  76 110 142 173 219 266 314
#     4   9  18  33  57  85 108 141 183 216 263 323
#     4  10  22  36  54  79 103 138 184 222 267 320
#
# _framework density 22.161044
#
# number of rings (size 3 to 8) (size 9 to 14) (size 15 to 20)
#    0.000    2.750    0.000    0.000    3.500    2.000 
#    0.000    7.500    0.000    4.500    0.000    0.000 
#    0.000    0.000    0.000    0.000    0.000    0.000 
#
# Total GULP energy -178582.210473 kJ/mol
# GULP energy per Si atom -5580.694077 kJ/mol
# Density = 2.211060 g / cm^3
# Si number density = 22.161044 Si / 1000 Ang^3
#
#
#
# Elastic Constant Matrix: (Units=GPa)
#
#
# Indices 1 2 3 4 5 6 
#
# 1 56.6917 8.0165 -21.1095 0.0000 0.0000 0.0000
# 2 8.0165 73.4130 29.6744 0.0000 0.0000 0.0000
# 3 -21.1095 29.6744 67.6607 0.0000 0.0000 0.0000
# 4 0.0000 0.0000 0.0000 27.6690 0.0000 0.0000
# 5 0.0000 0.0000 0.0000 0.0000 68.8428 0.0000
# 6 0.0000 0.0000 0.0000 0.0000 0.0000 23.8403
#
#
#
# Elastic Compliance Matrix: (Units=1/GPa)
#
#
# Indices 1 2 3 4 5 6 
#
# 1 0.022141 -0.006333 0.009685 0.000000 0.000000 0.000000
# 2 -0.006333 0.018368 -0.010031 0.000000 0.000000 0.000000
# 3 0.009685 -0.010031 0.022201 0.000000 0.000000 0.000000
# 4 0.000000 0.000000 0.000000 0.036141 0.000000 0.000000
# 5 0.000000 0.000000 0.000000 0.000000 0.014526 0.000000
# 6 0.000000 0.000000 0.000000 0.000000 0.000000 0.041946
#
#
# Mechanical properties :
#
#
# Convention : Reuss Voigt Hill
#
# Bulk Modulus (GPa) = 20.26260 25.65867 22.96064
# Shear Modulus (GPa) = 27.00786 36.14936 31.57861
#
# Velocity S-wave (km/s) = 3.49479 4.04321 3.77896
# Velocity P-wave (km/s) = 5.04459 5.77928 5.42439
#
# Compressibility (1/GPa) = 0.04935200
#
# Stress axis : x y z
#
# Youngs Moduli (GPa) = 45.16502 54.44286 45.04337
#
# Poissons Ratio (x) = 0.34476 -0.43625
# Poissons Ratio (y) = 0.28601 0.45185
# Poissons Ratio (z) = -0.43743 0.54614
#
# Static dielectric constant tensor:
#      x y z
#    x 1.841320 0.000000 0.000000 
#    y 0.000000 1.865570 0.000000 
#    z 0.000000 0.000000 1.803340 
# 
# From -- ./inp_files/24841.got.cif
#   From: 2010.05.17/outbox.cif.g08.bks.cpg/sg40_13_cif.got.tgz:24841.got - 2010.06.03 18:35:42.
