data_PCOD9364496
_publ_section_title
;
Structure prediction by ZEFSAII (Michael W. Deem and Ramdas Pophale) SiO2 
 PCOD9364496
Probable space group: A M A 2
;
_chemical_formula_sum "Si O2"
_cell_formula_units_Z 56
_cell_length_a 24.204683
_cell_length_b 20.436036
_cell_length_c 5.174505
_cell_angle_alpha 90.000000
_cell_angle_beta 90.000000
_cell_angle_gamma 90.000000
_cell_volume 2559.557375
_symmetry_space_group_name_H-M "A M A 2"
_symmetry_group_IT_number 40
_symmetry_cell_setting 'orthorhombic'
loop_
_space_group_symop_operation_xyz
x,y,z
-x,-y,z
1/2-x,y,z
1/2+x,-y,z
x,1/2+y,1/2+z
-x,1/2-y,1/2+z
1/2-x,1/2+y,1/2+z
1/2+x,1/2-y,1/2+z
loop_
_atom_site_type_symbol
_atom_site_label
_atom_site_fract_x
_atom_site_fract_y
_atom_site_fract_z
Si Si1 0.370756 0.942152 0.017990
Si Si2 0.646436 0.234833 0.765949
Si Si3 0.162778 0.154936 0.592978
Si Si4 0.450672 0.337041 0.575027
Si Si5 0.311861 0.572798 0.589215
Si Si6 0.187281 0.390376 0.017037
Si Si7 0.065506 0.207941 0.873085
O O1 0.330971 0.905995 0.226379
O O2 0.430145 0.911630 0.097759
O O3 0.351990 0.926316 0.725163
O O4 0.358850 0.018521 0.050009
O O5 0.680698 0.274168 0.980948
O O6 0.598802 0.192362 0.901859
O O7 0.680390 0.186214 0.585118
O O8 0.611582 0.285460 0.593735
O O9 0.186429 0.124776 0.855057
O O10 0.097719 0.169828 0.647055
O O11 0.177528 0.105649 0.364897
O O12 0.449979 0.283844 0.807724
O O13 0.510349 0.328844 0.451286
O O14 0.250000 0.543053 0.588659
O O15 0.250000 0.411194 0.059745
#
# Coordination Sequence:
#
# PCOD9364496 Si02
#       7
#     8   8   8   8   8   8   8
#     4  11  24  43  65  96 127 166 227 278 316 402
#     4  10  21  39  62  99 133 161 213 267 323 408
#     4  11  25  43  64  95 131 169 224 273 317 398
#     4  10  21  36  71  99 130 168 208 261 345 392
#     4  12  25  45  68  88 125 183 230 273 326 387
#     4  11  22  38  62  95 130 163 204 276 344 385
#     4  11  19  40  67  99 133 171 206 270 330 407
#
# _framework density 21.878782999999999
#
# number of rings (size 3 to 8) (size 9 to 14) (size 15 to 20)
#    0.000    1.143    4.286    2.571    0.000    1.143 
#    0.000    0.714    3.143    0.000    0.000    0.000 
#    0.000    0.000    0.000    0.000    0.000    0.000 
#
# Total GULP energy -156223.257508 kJ/mol
# GULP energy per Si atom -5579.402054 kJ/mol
# Density = 2.182899 g / cm^3
# Si number density = 21.878783 Si / 1000 Ang^3
#
#
#
# Elastic Constant Matrix: (Units=GPa)
#
#
# Indices 1 2 3 4 5 6 
#
# 1 50.2058 10.6790 12.2055 0.0000 0.0000 0.0000
# 2 10.6790 42.0938 16.5404 0.0000 0.0000 0.0000
# 3 12.2055 16.5404 93.4981 0.0000 0.0000 0.0000
# 4 0.0000 0.0000 0.0000 31.2027 0.0000 0.0000
# 5 0.0000 0.0000 0.0000 0.0000 24.6492 0.0000
# 6 0.0000 0.0000 0.0000 0.0000 0.0000 14.4922
#
#
#
# Elastic Compliance Matrix: (Units=1/GPa)
#
#
# Indices 1 2 3 4 5 6 
#
# 1 0.021386 -0.004652 -0.001969 0.000000 0.000000 0.000000
# 2 -0.004652 0.026543 -0.004088 0.000000 0.000000 0.000000
# 3 -0.001969 -0.004088 0.011676 0.000000 0.000000 0.000000
# 4 0.000000 0.000000 0.000000 0.032049 0.000000 0.000000
# 5 0.000000 0.000000 0.000000 0.000000 0.040569 0.000000
# 6 0.000000 0.000000 0.000000 0.000000 0.000000 0.069002
#
#
# Mechanical properties :
#
#
# Convention : Reuss Voigt Hill
#
# Bulk Modulus (GPa) = 26.18712 29.40526 27.79619
# Shear Modulus (GPa) = 21.24293 23.82700 22.53496
#
# Velocity S-wave (km/s) = 3.11937 3.30365 3.21283
# Velocity P-wave (km/s) = 4.99691 5.29352 5.14735
#
# Compressibility (1/GPa) = 0.03818671
#
# Stress axis : x y z
#
# Youngs Moduli (GPa) = 46.75920 37.67456 85.64810
#
# Poissons Ratio (x) = 0.17526 0.16863
# Poissons Ratio (y) = 0.21752 0.35016
# Poissons Ratio (z) = 0.09206 0.15403
#
# Static dielectric constant tensor:
#      x y z
#    x 1.765250 0.000000 0.000000 
#    y 0.000000 1.888720 0.000000 
#    z 0.000000 0.000000 1.845240 
# 
# From -- ./inp_files/2787.got.cif
#   From: 2010.05.17/outbox.cif.g08.bks.cpg/sg40_2_cif.got.tgz:2787.got - 2010.06.03 18:35:42.
