data_PCOD9364166
_publ_section_title
;
Structure prediction by ZEFSAII (Michael W. Deem and Ramdas Pophale) SiO2 
 PCOD9364166
Probable space group: A M A 2
;
_chemical_formula_sum "Si O2"
_cell_formula_units_Z 44
_cell_length_a 10.751539
_cell_length_b 16.098640
_cell_length_c 12.621988
_cell_angle_alpha 90.000000
_cell_angle_beta 90.000000
_cell_angle_gamma 90.000000
_cell_volume 2184.678760
_symmetry_space_group_name_H-M "A M A 2"
_symmetry_group_IT_number 40
_symmetry_cell_setting 'orthorhombic'
loop_
_space_group_symop_operation_xyz
x,y,z
-x,-y,z
1/2-x,y,z
1/2+x,-y,z
x,1/2+y,1/2+z
-x,1/2-y,1/2+z
1/2-x,1/2+y,1/2+z
1/2+x,1/2-y,1/2+z
loop_
_atom_site_type_symbol
_atom_site_label
_atom_site_fract_x
_atom_site_fract_y
_atom_site_fract_z
Si Si1 0.750000 0.679160 0.785661
Si Si2 0.750000 0.491016 0.740513
Si Si3 0.478564 0.745169 0.148497
Si Si4 0.250000 0.178817 0.171455
Si Si5 0.106769 0.848510 0.974358
Si Si6 0.500000 0.500000 0.603255
Si Si7 0.480024 0.596827 0.283861
Si Si8 0.250000 0.660071 0.420672
O O1 0.750000 0.579182 0.804014
O O2 0.626262 0.704696 0.717470
O O3 0.750000 0.742127 0.886301
O O4 0.750000 0.391669 0.764062
O O5 0.622516 0.493365 0.673819
O O6 0.618258 0.773694 0.176285
O O7 0.449689 0.766104 0.026364
O O8 0.461960 0.649444 0.178184
O O9 0.250000 0.147424 0.046903
O O10 0.250000 0.855515 0.004283
O O11 0.030253 0.921791 0.030489
O O12 0.092124 0.862055 0.850225
O O13 0.500000 0.500000 0.268790
O O14 0.365266 0.617316 0.361341
#
# Coordination Sequence:
#
# PCOD9364166 Si02
#       8
#     4   4   8   4   8   4   8   4
#     4  10  20  38  52  82 122 158 188 232 301 364
#     4  12  18  30  56  85 114 147 192 239 287 348
#     4  11  22  38  56  86 123 159 188 243 300 355
#     4  12  22  35  59  92 116 155 193 248 291 349
#     4  12  22  36  58  89 124 154 190 243 302 350
#     4  12  18  30  54  86 114 144 186 236 294 340
#     4  11  25  38  61  91 119 154 202 251 293 351
#     4  10  22  39  59  81 120 158 197 235 305 351
#
# _framework density 20.140260999999999
#
# number of rings (size 3 to 8) (size 9 to 14) (size 15 to 20)
#    0.000    0.727    8.182    0.000    2.545    0.000 
#    0.000    0.000    0.000    2.182    2.364    0.000 
#    0.000    0.000    0.000    0.000    0.000    0.000 
#
# Total GULP energy -122639.742078 kJ/mol
# GULP energy per Si atom -5574.533731 kJ/mol
# Density = 2.009442 g / cm^3
# Si number density = 20.140261 Si / 1000 Ang^3
#
#
#
# Elastic Constant Matrix: (Units=GPa)
#
#
# Indices 1 2 3 4 5 6 
#
# 1 145.3158 29.4578 3.2429 0.0000 0.0000 0.0000
# 2 29.4578 141.1005 50.4962 0.0000 0.0000 0.0000
# 3 3.2429 50.4962 35.4774 0.0000 0.0000 0.0000
# 4 0.0000 0.0000 0.0000 8.8769 0.0000 0.0000
# 5 0.0000 0.0000 0.0000 0.0000 806.7955 0.0000
# 6 0.0000 0.0000 0.0000 0.0000 0.0000 20.4995
#
#
#
# Elastic Compliance Matrix: (Units=1/GPa)
#
#
# Indices 1 2 3 4 5 6 
#
# 1 0.007347 -0.002637 0.003081 0.000000 0.000000 0.000000
# 2 -0.002637 0.015391 -0.021666 0.000000 0.000000 0.000000
# 3 0.003081 -0.021666 0.058743 0.000000 0.000000 0.000000
# 4 0.000000 0.000000 0.000000 0.112652 0.000000 0.000000
# 5 0.000000 0.000000 0.000000 0.000000 0.001239 0.000000
# 6 0.000000 0.000000 0.000000 0.000000 0.000000 0.048782
#
#
# Mechanical properties :
#
#
# Convention : Reuss Voigt Hill
#
# Bulk Modulus (GPa) = 25.61542 54.25418 39.93480
# Shear Modulus (GPa) = 16.68830 183.14749 99.91790
#
# Velocity S-wave (km/s) = 2.88167 9.54638 7.05115
# Velocity P-wave (km/s) = 4.88039 12.18638 9.28240
#
# Compressibility (1/GPa) = 0.03903899
#
# Stress axis : x y z
#
# Youngs Moduli (GPa) = 136.10486 64.97193 17.02325
#
# Poissons Ratio (x) = 0.17130 -0.05245
# Poissons Ratio (y) = 0.35885 0.36882
# Poissons Ratio (z) = -0.41935 1.40768
#
# Static dielectric constant tensor:
#      x y z
#    x -85.879240 0.000000 0.000000 
#    y 0.000000 1.761070 0.000000 
#    z 0.000000 0.000000 1.719130 
# 
# From -- ./inp_files/16330.got.cif
#   From: 2010.05.17/outbox.cif.g08.bks.cpg/sg40_9_cif.got.tgz:16330.got - 2010.06.03 18:35:42.
