data_PCOD9364385
_publ_section_title
;
Structure prediction by ZEFSAII (Michael W. Deem and Ramdas Pophale) SiO2 
 PCOD9364385
Probable space group: A M A 2
;
_chemical_formula_sum "Si O2"
_cell_formula_units_Z 32
_cell_length_a 23.661880
_cell_length_b 4.883427
_cell_length_c 13.667812
_cell_angle_alpha 90.000000
_cell_angle_beta 90.000000
_cell_angle_gamma 90.000000
_cell_volume 1579.330215
_symmetry_space_group_name_H-M "A M A 2"
_symmetry_group_IT_number 40
_symmetry_cell_setting 'orthorhombic'
loop_
_space_group_symop_operation_xyz
x,y,z
-x,-y,z
1/2-x,y,z
1/2+x,-y,z
x,1/2+y,1/2+z
-x,1/2-y,1/2+z
1/2-x,1/2+y,1/2+z
1/2+x,1/2-y,1/2+z
loop_
_atom_site_type_symbol
_atom_site_label
_atom_site_fract_x
_atom_site_fract_y
_atom_site_fract_z
Si Si1 0.375089 0.800841 0.880440
Si Si2 0.438843 0.594657 0.693881
Si Si3 0.093353 0.072060 0.575821
Si Si4 0.314457 0.831176 0.459339
O O1 0.404394 0.749539 0.777906
O O2 0.321716 0.597048 0.891117
O O3 0.352950 0.097961 0.910004
O O4 0.416411 0.695730 0.967751
O O5 0.500000 0.500000 0.729835
O O6 0.408839 0.325019 0.650259
O O7 0.445610 0.822220 0.609188
O O8 0.155072 0.930236 0.559654
O O9 0.250000 0.747994 0.472106
#
# Coordination Sequence:
#
# PCOD9364385 Si02
#       4
#     8   8   8   8
#     4  10  22  41  63  91 129 154 214 255 305 380
#     4  12  24  40  65  92 126 167 209 257 314 369
#     4  10  22  43  61  92 128 157 214 257 303 382
#     4  10  20  42  68  86 126 168 199 260 320 361
#
# _framework density 20.261754
#
# number of rings (size 3 to 8) (size 9 to 14) (size 15 to 20)
#    1.500    0.000    2.500    3.000    0.000    2.000 
#    0.000    7.500    0.000    0.000    0.000    0.000 
#    0.000    0.000    0.000    0.000    0.000    0.000 
#
# Total GULP energy -89073.942761 kJ/mol
# GULP energy per Si atom -5567.121423 kJ/mol
# Density = 2.021564 g / cm^3
# Si number density = 20.261754 Si / 1000 Ang^3
#
#
#
# Elastic Constant Matrix: (Units=GPa)
#
#
# Indices 1 2 3 4 5 6 
#
# 1 79.3821 29.8480 30.4837 0.0000 0.0000 0.0000
# 2 29.8480 135.4126 39.4170 0.0000 0.0000 0.0000
# 3 30.4837 39.4170 63.7120 0.0000 0.0000 0.0000
# 4 0.0000 0.0000 0.0000 19.5159 0.0000 0.0000
# 5 0.0000 0.0000 0.0000 0.0000 18.2083 0.0000
# 6 0.0000 0.0000 0.0000 0.0000 0.0000 20.8738
#
#
#
# Elastic Compliance Matrix: (Units=1/GPa)
#
#
# Indices 1 2 3 4 5 6 
#
# 1 0.015696 -0.001553 -0.006549 0.000000 0.000000 0.000000
# 2 -0.001553 0.009161 -0.004924 0.000000 0.000000 0.000000
# 3 -0.006549 -0.004924 0.021876 0.000000 0.000000 0.000000
# 4 0.000000 0.000000 0.000000 0.051240 0.000000 0.000000
# 5 0.000000 0.000000 0.000000 0.000000 0.054920 0.000000
# 6 0.000000 0.000000 0.000000 0.000000 0.000000 0.047907
#
#
# Mechanical properties :
#
#
# Convention : Reuss Voigt Hill
#
# Bulk Modulus (GPa) = 48.35774 53.11156 50.73465
# Shear Modulus (GPa) = 21.39073 23.63679 22.51376
#
# Velocity S-wave (km/s) = 3.25271 3.41922 3.33700
# Velocity P-wave (km/s) = 6.16645 6.46975 6.31992
#
# Compressibility (1/GPa) = 0.02067921
#
# Stress axis : x y z
#
# Youngs Moduli (GPa) = 63.70933 109.16283 45.71321
#
# Poissons Ratio (x) = 0.16958 0.29937
# Poissons Ratio (y) = 0.09897 0.22510
# Poissons Ratio (z) = 0.41723 0.53754
#
# Static dielectric constant tensor:
#      x y z
#    x 1.725180 0.000000 0.000000 
#    y 0.000000 1.733510 0.000000 
#    z 0.000000 0.000000 1.742160 
# 
# From -- ./inp_files/13764.got.cif
#   From: 2010.05.17/outbox.cif.g08.bks.cpg/sg40_7_cif.got.tgz:13764.got - 2010.06.03 18:35:42.
