data_PCOD9364016
_publ_section_title
;
Structure prediction by ZEFSAII (Michael W. Deem and Ramdas Pophale) SiO2 
 PCOD9364016
Probable space group: A M A 2
;
_chemical_formula_sum "Si O2"
_cell_formula_units_Z 48
_cell_length_a 14.246234
_cell_length_b 18.229597
_cell_length_c 10.005289
_cell_angle_alpha 90.000000
_cell_angle_beta 90.000000
_cell_angle_gamma 90.000000
_cell_volume 2598.404616
_symmetry_space_group_name_H-M "A M A 2"
_symmetry_group_IT_number 40
_symmetry_cell_setting 'orthorhombic'
loop_
_space_group_symop_operation_xyz
x,y,z
-x,-y,z
1/2-x,y,z
1/2+x,-y,z
x,1/2+y,1/2+z
-x,1/2-y,1/2+z
1/2-x,1/2+y,1/2+z
1/2+x,1/2-y,1/2+z
loop_
_atom_site_type_symbol
_atom_site_label
_atom_site_fract_x
_atom_site_fract_y
_atom_site_fract_z
Si Si1 0.250000 0.378506 0.914680
Si Si2 0.250000 0.725844 0.505364
Si Si3 0.952624 0.920950 0.616595
Si Si4 0.544349 0.424052 0.593845
Si Si5 0.250000 0.046895 0.489441
Si Si6 0.958194 0.145586 0.351962
Si Si7 0.054402 0.686965 0.368616
Si Si8 0.250000 0.595855 0.681068
O O1 0.153539 0.366110 0.834672
O O2 0.250000 0.312998 0.022869
O O3 0.250000 0.459132 0.973873
O O4 0.160394 0.702953 0.418186
O O5 0.250000 0.682172 0.643942
O O6 0.845701 0.930897 0.564506
O O7 0.952040 0.865531 0.741134
O O8 0.012177 0.885085 0.496105
O O9 0.000000 0.000000 0.647590
O O10 0.500000 0.500000 0.549556
O O11 0.509564 0.401401 0.740104
O O12 0.515075 0.359147 0.493590
O O13 0.656261 0.433304 0.609787
O O14 0.250000 0.078933 0.338026
O O15 0.984938 0.231542 0.343031
#
# Coordination Sequence:
#
# PCOD9364016 Si02
#       8
#     4   4   8   8   4   8   8   4
#     4  10  20  36  60  88 120 148 192 242 282 350
#     4   8  19  38  58  84 115 166 184 224 301 348
#     4  12  23  38  59  90 118 156 194 243 296 341
#     4  11  21  38  61  87 113 154 192 237 291 337
#     4  12  21  36  58  90 119 148 194 250 279 344
#     4  11  21  39  62  87 113 158 196 234 288 342
#     4  10  22  38  59  85 123 151 193 238 287 350
#     4  10  20  36  60  84 116 148 196 240 278 348
#
# _framework density 18.472874000000001
#
# number of rings (size 3 to 8) (size 9 to 14) (size 15 to 20)
#    0.000    1.333    3.333    3.500    0.000    0.000 
#    0.000    0.000    0.000    4.000    0.000    0.000 
#    0.000    0.000    0.000    0.000    0.000    0.000 
#
# Total GULP energy -133916.998112 kJ/mol
# GULP energy per Si atom -5579.874921 kJ/mol
# Density = 1.843083 g / cm^3
# Si number density = 18.472874 Si / 1000 Ang^3
#
#
#
# Elastic Constant Matrix: (Units=GPa)
#
#
# Indices 1 2 3 4 5 6 
#
# 1 85.3165 18.4763 1.1119 0.0000 0.0000 0.0000
# 2 18.4763 114.6051 23.6275 0.0000 0.0000 0.0000
# 3 1.1119 23.6275 67.4578 0.0000 0.0000 0.0000
# 4 0.0000 0.0000 0.0000 33.7220 0.0000 0.0000
# 5 0.0000 0.0000 0.0000 0.0000 -4.3392 0.0000
# 6 0.0000 0.0000 0.0000 0.0000 0.0000 21.4823
#
#
#
# Elastic Compliance Matrix: (Units=1/GPa)
#
#
# Indices 1 2 3 4 5 6 
#
# 1 0.012162 -0.002069 0.000524 0.000000 0.000000 0.000000
# 2 -0.002069 0.009757 -0.003383 0.000000 0.000000 0.000000
# 3 0.000524 -0.003383 0.016000 0.000000 0.000000 0.000000
# 4 0.000000 0.000000 0.000000 0.029654 0.000000 0.000000
# 5 0.000000 0.000000 0.000000 0.000000 -0.230455 0.000000
# 6 0.000000 0.000000 0.000000 0.000000 0.000000 0.046550
#
#
# Mechanical properties :
#
#
# Convention : Reuss Voigt Hill
#
# Bulk Modulus (GPa) = 35.63344 39.31233 37.47288
# Shear Modulus (GPa) = -51.48214 25.11724 -13.18245
#
# Velocity S-wave (km/s) = -5.28484 3.69139 -2.67425
# Velocity P-wave (km/s) = 4.23178 6.28457 3.28541
#
# Compressibility (1/GPa) = 0.02806353
#
# Stress axis : x y z
#
# Youngs Moduli (GPa) = 82.22158 102.49426 62.49828
#
# Poissons Ratio (x) = 0.21204 -0.03276
# Poissons Ratio (y) = 0.17010 0.21145
# Poissons Ratio (z) = -0.04310 0.34676
#
# Static dielectric constant tensor:
#      x y z
#    x 1.658470 0.000000 0.000000 
#    y 0.000000 1.640660 0.000000 
#    z 0.000000 0.000000 1.599820 
# 
# From -- ./inp_files/6525.got.cif
#   From: 2010.05.17/outbox.cif.g08.bks.cpg/sg40_4_cif.got.tgz:6525.got - 2010.06.03 18:35:42.
