data_PCOD9364970
_publ_section_title
;
Structure prediction by ZEFSAII (Michael W. Deem and Ramdas Pophale) SiO2 
 PCOD9364970
Probable space group: A M A 2
;
_chemical_formula_sum "Si O2"
_cell_formula_units_Z 24
_cell_length_a 11.024089
_cell_length_b 7.523050
_cell_length_c 12.523275
_cell_angle_alpha 90.000000
_cell_angle_beta 90.000000
_cell_angle_gamma 90.000000
_cell_volume 1038.614966
_symmetry_space_group_name_H-M "A M A 2"
_symmetry_group_IT_number 40
_symmetry_cell_setting 'orthorhombic'
loop_
_space_group_symop_operation_xyz
x,y,z
-x,-y,z
1/2-x,y,z
1/2+x,-y,z
x,1/2+y,1/2+z
-x,1/2-y,1/2+z
1/2-x,1/2+y,1/2+z
1/2+x,1/2-y,1/2+z
loop_
_atom_site_type_symbol
_atom_site_label
_atom_site_fract_x
_atom_site_fract_y
_atom_site_fract_z
Si Si1 0.750000 0.589996 0.372960
Si Si2 0.946470 0.326341 0.629782
Si Si3 0.250000 0.542583 0.800300
Si Si4 0.000000 0.500000 0.248966
Si Si5 0.750000 0.739114 0.978241
O O1 0.750000 0.800689 0.389246
O O2 0.875979 0.547077 0.311326
O O3 0.750000 0.452814 0.468516
O O4 0.863557 0.416718 0.722774
O O5 0.867330 0.206746 0.549572
O O6 0.000000 0.500000 0.573228
O O7 0.030925 0.179969 0.684172
O O8 0.250000 0.360655 0.865905
#
# Coordination Sequence:
#
# PCOD9364970 Si02
#       5
#     4   8   4   4   4
#     4  10  22  40  70  96 130 172 226 272 330 402
#     4  10  22  40  63  93 132 171 221 280 334 395
#     4   9  21  43  62  88 130 176 215 272 343 395
#     4  10  22  44  68  92 132 180 218 276 342 394
#     4  11  23  39  64  96 130 176 227 270 333 411
#
# _framework density 23.107697999999999
#
# number of rings (size 3 to 8) (size 9 to 14) (size 15 to 20)
#    0.000    2.000    0.000    3.000    2.333    4.000 
#    9.000    3.333    0.000    0.000    0.000    0.000 
#    0.000    0.000    0.000    0.000    0.000    0.000 
#
# Total GULP energy -66890.566163 kJ/mol
# GULP energy per Si atom -5574.213847 kJ/mol
# Density = 2.305510 g / cm^3
# Si number density = 23.107698 Si / 1000 Ang^3
#
#
#
# Elastic Constant Matrix: (Units=GPa)
#
#
# Indices 1 2 3 4 5 6 
#
# 1 80.1322 16.9119 7.5145 0.0000 0.0000 0.0000
# 2 16.9119 79.4468 7.0212 0.0000 0.0000 0.0000
# 3 7.5145 7.0212 57.1830 0.0000 0.0000 0.0000
# 4 0.0000 0.0000 0.0000 29.7403 0.0000 0.0000
# 5 0.0000 0.0000 0.0000 0.0000 11.2490 0.0000
# 6 0.0000 0.0000 0.0000 0.0000 0.0000 20.2032
#
#
#
# Elastic Compliance Matrix: (Units=1/GPa)
#
#
# Indices 1 2 3 4 5 6 
#
# 1 0.013177 -0.002681 -0.001402 0.000000 0.000000 0.000000
# 2 -0.002681 0.013271 -0.001277 0.000000 0.000000 0.000000
# 3 -0.001402 -0.001277 0.017829 0.000000 0.000000 0.000000
# 4 0.000000 0.000000 0.000000 0.033624 0.000000 0.000000
# 5 0.000000 0.000000 0.000000 0.000000 0.088897 0.000000
# 6 0.000000 0.000000 0.000000 0.000000 0.000000 0.049497
#
#
# Mechanical properties :
#
#
# Convention : Reuss Voigt Hill
#
# Bulk Modulus (GPa) = 29.80171 31.07303 30.43737
# Shear Modulus (GPa) = 20.99070 24.59279 22.79174
#
# Velocity S-wave (km/s) = 3.01721 3.26585 3.14399
# Velocity P-wave (km/s) = 5.00629 5.26282 5.13616
#
# Compressibility (1/GPa) = 0.03355512
#
# Stress axis : x y z
#
# Youngs Moduli (GPa) = 75.89151 75.35447 56.08900
#
# Poissons Ratio (x) = 0.20202 0.07866
# Poissons Ratio (y) = 0.20346 0.07163
# Poissons Ratio (z) = 0.10643 0.09624
#
# Static dielectric constant tensor:
#      x y z
#    x 2.061150 0.000000 0.000000 
#    y 0.000000 1.883620 0.000000 
#    z 0.000000 0.000000 1.872840 
# 
# From -- ./inp_files/10794.got.cif
#   From: 2010.05.17/outbox.cif.g08.bks.cpg/sg40_6_cif.got.tgz:10794.got - 2010.06.03 18:35:42.
