data_PCOD9364396
_publ_section_title
;
Structure prediction by ZEFSAII (Michael W. Deem and Ramdas Pophale) SiO2 
 PCOD9364396
Probable space group: A M A 2
;
_chemical_formula_sum "Si O2"
_cell_formula_units_Z 56
_cell_length_a 22.747259
_cell_length_b 18.628387
_cell_length_c 5.643887
_cell_angle_alpha 90.000000
_cell_angle_beta 90.000000
_cell_angle_gamma 90.000000
_cell_volume 2391.567451
_symmetry_space_group_name_H-M "A M A 2"
_symmetry_group_IT_number 40
_symmetry_cell_setting 'orthorhombic'
loop_
_space_group_symop_operation_xyz
x,y,z
-x,-y,z
1/2-x,y,z
1/2+x,-y,z
x,1/2+y,1/2+z
-x,1/2-y,1/2+z
1/2-x,1/2+y,1/2+z
1/2+x,1/2-y,1/2+z
loop_
_atom_site_type_symbol
_atom_site_label
_atom_site_fract_x
_atom_site_fract_y
_atom_site_fract_z
Si Si1 0.182692 0.795344 0.549830
Si Si2 0.616293 0.070652 0.748433
Si Si3 0.321287 0.634902 0.540156
Si Si4 0.512091 0.081370 0.468968
Si Si5 0.883389 0.148048 0.154211
Si Si6 0.321260 0.062468 0.538862
Si Si7 0.032397 0.730527 0.978728
O O1 0.250000 0.795606 0.624588
O O2 0.146050 0.853872 0.687280
O O3 0.157117 0.716124 0.567711
O O4 0.173973 0.821862 0.281622
O O5 0.546106 0.070826 0.719148
O O6 0.645917 0.011625 0.589039
O O7 0.630978 0.073031 0.023171
O O8 0.250000 0.637176 0.537036
O O9 0.337783 0.606702 0.278778
O O10 0.337205 0.593216 0.780699
O O11 0.563912 0.121132 0.324804
O O12 0.462574 0.143060 0.477696
O O13 0.500000 0.000000 0.384554
O O14 0.912543 0.217937 0.030214
O O15 0.250000 0.054128 0.542656
O O16 0.992391 0.746304 0.217337
#
# Coordination Sequence:
#
# PCOD9364396 Si02
#       7
#     8   8   8   8   8   8   8
#     4  10  23  41  66  96 134 176 225 281 331 405
#     4  11  23  41  63  97 130 173 227 274 337 414
#     4   9  21  41  61  89 127 173 221 266 324 388
#     4  10  23  43  64  95 129 167 220 280 338 400
#     4  10  23  41  66  97 132 177 228 277 338 424
#     4  10  22  40  64  93 134 175 214 270 333 396
#     4  10  20  43  68  91 129 175 217 274 337 395
#
# _framework density 23.415604999999999
#
# number of rings (size 3 to 8) (size 9 to 14) (size 15 to 20)
#    0.000    2.000    1.429    0.429    6.000    2.857 
#    0.000    0.000    0.000    0.000    0.000    0.000 
#    0.000    0.000    0.000    0.000    0.000    0.000 
#
# Total GULP energy -155955.221668 kJ/mol
# GULP energy per Si atom -5569.829345 kJ/mol
# Density = 2.336231 g / cm^3
# Si number density = 23.415605 Si / 1000 Ang^3
#
#
#
# Elastic Constant Matrix: (Units=GPa)
#
#
# Indices 1 2 3 4 5 6 
#
# 1 41.0907 18.3091 2.0444 0.0000 0.0000 0.0000
# 2 18.3091 143.0577 22.8421 0.0000 0.0000 0.0000
# 3 2.0444 22.8421 84.7270 0.0000 0.0000 0.0000
# 4 0.0000 0.0000 0.0000 42.7169 0.0000 0.0000
# 5 0.0000 0.0000 0.0000 0.0000 23.5607 0.0000
# 6 0.0000 0.0000 0.0000 0.0000 0.0000 6.0517
#
#
#
# Elastic Compliance Matrix: (Units=1/GPa)
#
#
# Indices 1 2 3 4 5 6 
#
# 1 0.025815 -0.003349 0.000280 0.000000 0.000000 0.000000
# 2 -0.003349 0.007739 -0.002006 0.000000 0.000000 0.000000
# 3 0.000280 -0.002006 0.012337 0.000000 0.000000 0.000000
# 4 0.000000 0.000000 0.000000 0.023410 0.000000 0.000000
# 5 0.000000 0.000000 0.000000 0.000000 0.042444 0.000000
# 6 0.000000 0.000000 0.000000 0.000000 0.000000 0.165243
#
#
# Mechanical properties :
#
#
# Convention : Reuss Voigt Hill
#
# Bulk Modulus (GPa) = 27.97866 39.47406 33.72636
# Shear Modulus (GPa) = 16.71968 29.51117 23.11543
#
# Velocity S-wave (km/s) = 2.67505 3.55395 3.14535
# Velocity P-wave (km/s) = 4.63852 5.80822 5.25601
#
# Compressibility (1/GPa) = 0.03574153
#
# Stress axis : x y z
#
# Youngs Moduli (GPa) = 38.73787 129.21592 81.05979
#
# Poissons Ratio (x) = 0.43268 -0.02269
# Poissons Ratio (y) = 0.12972 0.16257
# Poissons Ratio (z) = -0.01084 0.25916
#
# Static dielectric constant tensor:
#      x y z
#    x 1.859940 0.000000 0.000000 
#    y 0.000000 1.898450 0.000000 
#    z 0.000000 0.000000 2.231050 
# 
# From -- ./inp_files/3410.got.cif
#   From: 2010.05.17/outbox.cif.g08.bks.cpg/sg40_2_cif.got.tgz:3410.got - 2010.06.03 18:35:42.
