data_PCOD9364128
_publ_section_title
;
Structure prediction by ZEFSAII (Michael W. Deem and Ramdas Pophale) SiO2 
 PCOD9364128
Probable space group: A M A 2
;
_chemical_formula_sum "Si O2"
_cell_formula_units_Z 64
_cell_length_a 22.477601
_cell_length_b 7.986282
_cell_length_c 14.442711
_cell_angle_alpha 90.000000
_cell_angle_beta 90.000000
_cell_angle_gamma 90.000000
_cell_volume 2592.646585
_symmetry_space_group_name_H-M "A M A 2"
_symmetry_group_IT_number 40
_symmetry_cell_setting 'orthorhombic'
loop_
_space_group_symop_operation_xyz
x,y,z
-x,-y,z
1/2-x,y,z
1/2+x,-y,z
x,1/2+y,1/2+z
-x,1/2-y,1/2+z
1/2-x,1/2+y,1/2+z
1/2+x,1/2-y,1/2+z
loop_
_atom_site_type_symbol
_atom_site_label
_atom_site_fract_x
_atom_site_fract_y
_atom_site_fract_z
Si Si1 0.139452 0.820167 0.784570
Si Si2 0.111317 0.854664 0.223238
Si Si3 0.999360 0.698515 0.001782
Si Si4 0.116111 0.197952 0.102747
Si Si5 0.318806 0.028590 0.941749
Si Si6 0.502093 0.690682 0.300854
Si Si7 0.363794 0.207233 0.547222
Si Si8 0.317852 0.501238 0.887886
O O1 0.147360 0.823122 0.674932
O O2 0.148630 0.985171 0.845507
O O3 0.179940 0.677315 0.830532
O O4 0.071139 0.759573 0.798566
O O5 0.043999 0.803184 0.245548
O O6 0.142104 0.716810 0.157194
O O7 0.113617 0.023492 0.160848
O O8 0.145159 0.882579 0.319756
O O9 0.066288 0.744616 0.030073
O O10 0.000000 0.500000 0.982228
O O11 0.949746 0.740158 0.077400
O O12 0.984042 0.797299 0.908344
O O13 0.150880 0.164365 0.007834
O O14 0.250000 0.061862 0.925357
O O15 0.326098 0.857418 0.001828
O O16 0.500000 0.500000 0.266569
O O17 0.347592 0.045926 0.486262
O O18 0.250000 0.449491 0.899435
#
# Coordination Sequence:
#
# PCOD9364128 Si02
#       8
#     8   8   8   8   8   8   8   8
#     4  10  20  37  61  94 138 178 234 288 360 420
#     4  10  24  40  66 101 143 183 238 296 364 427
#     4  12  25  42  70 103 143 182 231 292 364 436
#     4  10  24  40  66 101 143 183 238 296 364 427
#     4  10  20  38  65 101 137 186 243 289 349 430
#     4  12  25  42  70 103 143 182 231 292 364 436
#     4  10  20  37  61  94 138 178 234 288 360 420
#     4  10  20  38  65 101 137 186 243 289 349 430
#
# _framework density 24.685202
#
# number of rings (size 3 to 8) (size 9 to 14) (size 15 to 20)
#    0.000    1.500    2.500    3.750    3.500   10.500 
#    0.000    0.000    0.000    8.250    0.000   29.750 
#    0.000    0.000    0.000    0.000    0.000    0.000 
#
# Total GULP energy -179227.190085 kJ/mol
# GULP energy per Si atom -5600.849690 kJ/mol
# Density = 2.462902 g / cm^3
# Si number density = 24.685202 Si / 1000 Ang^3
#
#
#
# Elastic Constant Matrix: (Units=GPa)
#
#
# Indices 1 2 3 4 5 6 
#
# 1 146.2398 24.9471 61.7561 0.0000 0.0000 0.0000
# 2 24.9471 101.8703 55.3127 0.0000 0.0000 0.0000
# 3 61.7561 55.3127 185.2162 0.0000 0.0000 0.0000
# 4 0.0000 0.0000 0.0000 43.9066 0.0000 0.0000
# 5 0.0000 0.0000 0.0000 0.0000 14.5356 0.0000
# 6 0.0000 0.0000 0.0000 0.0000 0.0000 -15.4854
#
#
#
# Elastic Compliance Matrix: (Units=1/GPa)
#
#
# Indices 1 2 3 4 5 6 
#
# 1 0.007990 -0.000609 -0.002482 0.000000 0.000000 0.000000
# 2 -0.000609 0.011763 -0.003310 0.000000 0.000000 0.000000
# 3 -0.002482 -0.003310 0.007215 0.000000 0.000000 0.000000
# 4 0.000000 0.000000 0.000000 0.022776 0.000000 0.000000
# 5 0.000000 0.000000 0.000000 0.000000 0.068797 0.000000
# 6 0.000000 0.000000 0.000000 0.000000 0.000000 -0.064577
#
#
# Mechanical properties :
#
#
# Convention : Reuss Voigt Hill
#
# Bulk Modulus (GPa) = 70.59109 79.70647 75.14878
# Shear Modulus (GPa) = 69.94229 28.01204 48.97716
#
# Velocity S-wave (km/s) = 5.32871 3.37229 4.45912
# Velocity P-wave (km/s) = 8.15591 6.89365 7.55120
#
# Compressibility (1/GPa) = 0.01416609
#
# Stress axis : x y z
#
# Youngs Moduli (GPa) = 125.15301 85.01508 138.59656
#
# Poissons Ratio (x) = 0.05177 0.34404
# Poissons Ratio (y) = 0.07621 0.45872
# Poissons Ratio (z) = 0.31067 0.28138
#
# Static dielectric constant tensor:
#      x y z
#    x 1.873040 0.000000 0.000000 
#    y 0.000000 1.999420 0.000000 
#    z 0.000000 0.000000 1.983770 
# 
# From -- ./inp_files/18552.got.cif
#   From: 2010.05.17/outbox.cif.g08.bks.cpg/sg40_10_cif.got.tgz:18552.got - 2010.06.03 18:35:42.
