data_PCOD9364379
_publ_section_title
;
Structure prediction by ZEFSAII (Michael W. Deem and Ramdas Pophale) SiO2 
 PCOD9364379
Probable space group: A M A 2
;
_chemical_formula_sum "Si O2"
_cell_formula_units_Z 52
_cell_length_a 14.586711
_cell_length_b 18.121480
_cell_length_c 7.170108
_cell_angle_alpha 90.000000
_cell_angle_beta 90.000000
_cell_angle_gamma 90.000000
_cell_volume 1895.294664
_symmetry_space_group_name_H-M "A M A 2"
_symmetry_group_IT_number 40
_symmetry_cell_setting 'orthorhombic'
loop_
_space_group_symop_operation_xyz
x,y,z
-x,-y,z
1/2-x,y,z
1/2+x,-y,z
x,1/2+y,1/2+z
-x,1/2-y,1/2+z
1/2-x,1/2+y,1/2+z
1/2+x,1/2-y,1/2+z
loop_
_atom_site_type_symbol
_atom_site_label
_atom_site_fract_x
_atom_site_fract_y
_atom_site_fract_z
Si Si1 0.104211 0.500692 0.715320
Si Si2 0.109072 0.843681 0.234359
Si Si3 0.605626 0.683861 0.152636
Si Si4 0.250000 0.240695 0.546112
Si Si5 0.899854 0.864007 0.716007
Si Si6 0.144042 0.480180 0.284843
Si Si7 0.609455 0.842546 0.151993
O O1 0.145442 0.425334 0.786502
O O2 0.103537 0.483651 0.492984
O O3 0.143830 0.581580 0.743524
O O4 0.000000 0.500000 0.783267
O O5 0.117708 0.803932 0.431923
O O6 0.170242 0.806032 0.079114
O O7 0.001637 0.844123 0.177455
O O8 0.498035 0.674797 0.192815
O O9 0.641047 0.603744 0.213191
O O10 0.644523 0.762969 0.224830
O O11 0.170813 0.177657 0.587701
O O12 0.905057 0.952061 0.678237
O O13 0.871353 0.854357 0.932804
O O14 0.250000 0.502289 0.294336
#
# Coordination Sequence:
#
# PCOD9364379 Si02
#       7
#     8   8   8   4   8   8   8
#     4   9  21  42  64  89 123 168 213 258 309 389
#     4  11  24  39  69  96 129 163 214 263 331 372
#     4  12  22  39  66  99 126 170 209 269 320 391
#     4  12  22  40  66  98 132 166 214 272 316 376
#     4  11  23  44  67  92 130 173 221 257 322 379
#     4  11  24  39  64  94 130 167 220 271 316 371
#     4  10  20  42  66  91 119 171 220 253 302 395
#
# _framework density 27.436368999999999
#
# number of rings (size 3 to 8) (size 9 to 14) (size 15 to 20)
#    0.000    1.231    3.846    3.231    2.154    3.692 
#    0.000    0.000    0.000    2.769    0.000    0.000 
#    0.000    0.000    0.000    0.000    0.000    0.000 
#
# Total GULP energy -145093.176160 kJ/mol
# GULP energy per Si atom -5580.506775 kJ/mol
# Density = 2.737392 g / cm^3
# Si number density = 27.436369 Si / 1000 Ang^3
#
#
#
# Elastic Constant Matrix: (Units=GPa)
#
#
# Indices 1 2 3 4 5 6 
#
# 1 90.7418 9.8136 -27.1997 0.0000 0.0000 0.0000
# 2 9.8136 276.8429 27.3897 0.0000 0.0000 0.0000
# 3 -27.1997 27.3897 104.6235 0.0000 0.0000 0.0000
# 4 0.0000 0.0000 0.0000 43.5401 0.0000 0.0000
# 5 0.0000 0.0000 0.0000 0.0000 -74.1406 0.0000
# 6 0.0000 0.0000 0.0000 0.0000 0.0000 -163.5975
#
#
#
# Elastic Compliance Matrix: (Units=1/GPa)
#
#
# Indices 1 2 3 4 5 6 
#
# 1 0.012105 -0.000760 0.003346 0.000000 0.000000 0.000000
# 2 -0.000760 0.003756 -0.001181 0.000000 0.000000 0.000000
# 3 0.003346 -0.001181 0.010737 0.000000 0.000000 0.000000
# 4 0.000000 0.000000 0.000000 0.022967 0.000000 0.000000
# 5 0.000000 0.000000 0.000000 0.000000 -0.013488 0.000000
# 6 0.000000 0.000000 0.000000 0.000000 0.000000 -0.006113
#
#
# Mechanical properties :
#
#
# Convention : Reuss Voigt Hill
#
# Bulk Modulus (GPa) = 34.00351 54.69061 44.34706
# Shear Modulus (GPa) = 135.28780 -8.02597 63.63091
#
# Velocity S-wave (km/s) = 7.02970 -1.71221 4.82105
# Velocity P-wave (km/s) = 8.84926 4.00849 6.86941
#
# Compressibility (1/GPa) = 0.02940873
#
# Stress axis : x y z
#
# Youngs Moduli (GPa) = 82.60711 266.24505 93.13456
#
# Poissons Ratio (x) = 0.20239 -0.31164
# Poissons Ratio (y) = 0.06280 0.10998
# Poissons Ratio (z) = -0.27642 0.31441
#
# Static dielectric constant tensor:
#      x y z
#    x 2.069780 0.000000 0.000000 
#    y 0.000000 2.183900 0.000000 
#    z 0.000000 0.000000 2.167030 
# 
# From -- ./inp_files/7657.got.cif
#   From: 2010.05.17/outbox.cif.g08.bks.cpg/sg40_4_cif.got.tgz:7657.got - 2010.06.03 18:35:42.
