data_PCOD9364935
_publ_section_title
;
Structure prediction by ZEFSAII (Michael W. Deem and Ramdas Pophale) SiO2 
 PCOD9364935
Probable space group: A M A 2
;
_chemical_formula_sum "Si O2"
_cell_formula_units_Z 56
_cell_length_a 14.949208
_cell_length_b 21.607210
_cell_length_c 9.024850
_cell_angle_alpha 90.000000
_cell_angle_beta 90.000000
_cell_angle_gamma 90.000000
_cell_volume 2915.122905
_symmetry_space_group_name_H-M "A M A 2"
_symmetry_group_IT_number 40
_symmetry_cell_setting 'orthorhombic'
loop_
_space_group_symop_operation_xyz
x,y,z
-x,-y,z
1/2-x,y,z
1/2+x,-y,z
x,1/2+y,1/2+z
-x,1/2-y,1/2+z
1/2-x,1/2+y,1/2+z
1/2+x,1/2-y,1/2+z
loop_
_atom_site_type_symbol
_atom_site_label
_atom_site_fract_x
_atom_site_fract_y
_atom_site_fract_z
Si Si1 0.644389 0.902411 0.552330
Si Si2 0.851915 0.277741 0.226159
Si Si3 0.352935 0.457222 0.096457
Si Si4 0.649750 0.271718 0.579615
Si Si5 0.645976 0.156918 0.801555
Si Si6 0.533627 0.169108 0.095091
Si Si7 0.487392 0.929126 0.334680
O O1 0.750000 0.898521 0.510997
O O2 0.626709 0.846998 0.668278
O O3 0.577859 0.901911 0.411252
O O4 0.629199 0.970267 0.624247
O O5 0.750000 0.265097 0.175551
O O6 0.853109 0.265165 0.401708
O O7 0.920528 0.230957 0.154898
O O8 0.250000 0.452260 0.046488
O O9 0.363136 0.411187 0.232863
O O10 0.417545 0.433773 0.968681
O O11 0.750000 0.292430 0.620041
O O12 0.632729 0.208782 0.672881
O O13 0.572083 0.320378 0.606847
O O14 0.750000 0.164417 0.852642
O O15 0.574376 0.162649 0.931854
O O16 0.551715 0.112314 0.204009
O O17 0.500000 0.000000 0.283851
#
# Coordination Sequence:
#
# PCOD9364935 Si02
#       7
#     8   8   8   8   8   8   8
#     4   9  20  39  65  91 118 156 203 249 302 364
#     4  10  22  39  62  91 119 151 197 248 302 366
#     4   9  19  39  65  88 118 158 200 250 301 357
#     4  10  23  40  58  86 121 158 199 244 301 364
#     4  10  22  39  60  90 121 156 202 250 300 357
#     4  12  24  37  61  87 124 159 201 246 308 350
#     4  10  23  41  60  89 120 160 207 249 300 360
#
# _framework density 19.210167999999999
#
# number of rings (size 3 to 8) (size 9 to 14) (size 15 to 20)
#    0.000    2.000    0.000    2.143    8.000    2.857 
#    2.571    0.000    0.000    0.000    0.000    0.000 
#    0.000    0.000    0.000    0.000    0.000    0.000 
#
# Total GULP energy -156207.685286 kJ/mol
# GULP energy per Si atom -5578.845903 kJ/mol
# Density = 1.916644 g / cm^3
# Si number density = 19.210168 Si / 1000 Ang^3
#
#
#
# Elastic Constant Matrix: (Units=GPa)
#
#
# Indices 1 2 3 4 5 6 
#
# 1 85.0744 63.2877 55.0675 0.0000 0.0000 0.0000
# 2 63.2877 90.5750 72.5109 0.0000 0.0000 0.0000
# 3 55.0675 72.5109 87.8962 0.0000 0.0000 0.0000
# 4 0.0000 0.0000 0.0000 24.9083 0.0000 0.0000
# 5 0.0000 0.0000 0.0000 0.0000 -112.6713 0.0000
# 6 0.0000 0.0000 0.0000 0.0000 0.0000 24.1156
#
#
#
# Elastic Compliance Matrix: (Units=1/GPa)
#
#
# Indices 1 2 3 4 5 6 
#
# 1 0.024873 -0.014443 -0.003668 0.000000 0.000000 0.000000
# 2 -0.014443 0.040900 -0.024692 0.000000 0.000000 0.000000
# 3 -0.003668 -0.024692 0.034046 0.000000 0.000000 0.000000
# 4 0.000000 0.000000 0.000000 0.040147 0.000000 0.000000
# 5 0.000000 0.000000 0.000000 0.000000 -0.008875 0.000000
# 6 0.000000 0.000000 0.000000 0.000000 0.000000 0.041467
#
#
# Mechanical properties :
#
#
# Convention : Reuss Voigt Hill
#
# Bulk Modulus (GPa) = 70.36566 71.69754 71.03160
# Shear Modulus (GPa) = 19.01845 -7.88419 5.56713
#
# Velocity S-wave (km/s) = 3.14987 -2.02807 1.70420
# Velocity P-wave (km/s) = 7.06667 5.64974 6.39756
#
# Compressibility (1/GPa) = 0.01421148
#
# Stress axis : x y z
#
# Youngs Moduli (GPa) = 40.20400 24.44969 29.37240
#
# Poissons Ratio (x) = 0.35313 0.10774
# Poissons Ratio (y) = 0.58067 0.72528
# Poissons Ratio (z) = 0.14748 0.60372
#
# Static dielectric constant tensor:
#      x y z
#    x 2.121240 0.000000 0.000000 
#    y 0.000000 1.661810 0.000000 
#    z 0.000000 0.000000 1.653170 
# 
# From -- ./inp_files/6713.got.cif
#   From: 2010.05.17/outbox.cif.g08.bks.cpg/sg40_4_cif.got.tgz:6713.got - 2010.06.03 18:35:42.
