data_PCOD9364206
_publ_section_title
;
Structure prediction by ZEFSAII (Michael W. Deem and Ramdas Pophale) SiO2 
 PCOD9364206
Probable space group: A M A 2
;
_chemical_formula_sum "Si O2"
_cell_formula_units_Z 40
_cell_length_a 17.480539
_cell_length_b 19.655496
_cell_length_c 4.900935
_cell_angle_alpha 90.000000
_cell_angle_beta 90.000000
_cell_angle_gamma 90.000000
_cell_volume 1683.905711
_symmetry_space_group_name_H-M "A M A 2"
_symmetry_group_IT_number 40
_symmetry_cell_setting 'orthorhombic'
loop_
_space_group_symop_operation_xyz
x,y,z
-x,-y,z
1/2-x,y,z
1/2+x,-y,z
x,1/2+y,1/2+z
-x,1/2-y,1/2+z
1/2-x,1/2+y,1/2+z
1/2+x,1/2-y,1/2+z
loop_
_atom_site_type_symbol
_atom_site_label
_atom_site_fract_x
_atom_site_fract_y
_atom_site_fract_z
Si Si1 0.837900 0.836911 0.345670
Si Si2 0.843120 0.558479 0.022987
Si Si3 0.971163 0.788366 0.047790
Si Si4 0.339263 0.082739 0.828117
Si Si5 0.446324 0.930360 0.985473
O O1 0.750000 0.815022 0.361410
O O2 0.887570 0.783834 0.182081
O O3 0.872776 0.858907 0.634406
O O4 0.842423 0.903882 0.148496
O O5 0.750000 0.569702 0.009185
O O6 0.857799 0.488467 0.192515
O O7 0.897851 0.600450 0.227917
O O8 0.884873 0.558873 0.730816
O O9 0.023833 0.749356 0.263553
O O10 0.996873 0.867645 0.050655
O O11 0.250000 0.089847 0.766748
O O12 0.500000 0.000000 0.957510
#
# Coordination Sequence:
#
# PCOD9364206 Si02
#       5
#     8   8   8   8   8
#     4  10  20  38  62  88 118 165 217 260 307 380
#     4  11  22  39  63  98 138 177 217 272 338 405
#     4  12  26  45  65  93 133 169 207 267 335 389
#     4   9  17  31  58  92 124 155 205 266 311 354
#     4  12  25  43  70 101 132 176 228 279 333 400
#
# _framework density 23.754301000000002
#
# number of rings (size 3 to 8) (size 9 to 14) (size 15 to 20)
#    0.000    1.200    0.000    7.200    0.000    3.200 
#    0.000    6.000    0.000    0.000    0.000    0.000 
#    0.000    0.000    0.000    0.000    0.000    0.000 
#
# Total GULP energy -111450.364030 kJ/mol
# GULP energy per Si atom -5572.518201 kJ/mol
# Density = 2.370023 g / cm^3
# Si number density = 23.754301 Si / 1000 Ang^3
#
#
#
# Elastic Constant Matrix: (Units=GPa)
#
#
# Indices 1 2 3 4 5 6 
#
# 1 150.1412 15.5304 18.2293 0.0000 0.0000 0.0000
# 2 15.5304 74.7943 -15.8959 0.0000 0.0000 0.0000
# 3 18.2293 -15.8959 103.1641 0.0000 0.0000 0.0000
# 4 0.0000 0.0000 0.0000 16.2244 0.0000 0.0000
# 5 0.0000 0.0000 0.0000 0.0000 42.1171 0.0000
# 6 0.0000 0.0000 0.0000 0.0000 0.0000 25.6704
#
#
#
# Elastic Compliance Matrix: (Units=1/GPa)
#
#
# Indices 1 2 3 4 5 6 
#
# 1 0.007029 -0.001782 -0.001517 0.000000 0.000000 0.000000
# 2 -0.001782 0.014274 0.002514 0.000000 0.000000 0.000000
# 3 -0.001517 0.002514 0.010349 0.000000 0.000000 0.000000
# 4 0.000000 0.000000 0.000000 0.061636 0.000000 0.000000
# 5 0.000000 0.000000 0.000000 0.000000 0.023743 0.000000
# 6 0.000000 0.000000 0.000000 0.000000 0.000000 0.038955
#
#
# Mechanical properties :
#
#
# Convention : Reuss Voigt Hill
#
# Bulk Modulus (GPa) = 33.24055 40.42525 36.83290
# Shear Modulus (GPa) = 29.83611 37.48476 33.66043
#
# Velocity S-wave (km/s) = 3.54790 3.97674 3.76842
# Velocity P-wave (km/s) = 5.55043 6.17584 5.87147
#
# Compressibility (1/GPa) = 0.03008374
#
# Stress axis : x y z
#
# Youngs Moduli (GPa) = 142.27106 70.05584 96.63058
#
# Poissons Ratio (x) = 0.12482 0.14655
# Poissons Ratio (y) = 0.25350 -0.24296
# Poissons Ratio (z) = 0.21576 -0.17614
#
# Static dielectric constant tensor:
#      x y z
#    x 2.009700 0.000000 0.000000 
#    y 0.000000 2.114930 0.000000 
#    z 0.000000 0.000000 2.009430 
# 
# From -- ./inp_files/1732.got.cif
#   From: 2010.05.17/outbox.cif.g08.bks.cpg/sg40_1_cif.got.tgz:1732.got - 2010.06.03 18:35:42.
