data_PCOD9364106
_publ_section_title
;
Structure prediction by ZEFSAII (Michael W. Deem and Ramdas Pophale) SiO2 
 PCOD9364106
Probable space group: A M A 2
;
_chemical_formula_sum "Si O2"
_cell_formula_units_Z 48
_cell_length_a 8.626368
_cell_length_b 20.884712
_cell_length_c 14.836011
_cell_angle_alpha 90.000000
_cell_angle_beta 90.000000
_cell_angle_gamma 90.000000
_cell_volume 2672.844040
_symmetry_space_group_name_H-M "A M A 2"
_symmetry_group_IT_number 40
_symmetry_cell_setting 'orthorhombic'
loop_
_space_group_symop_operation_xyz
x,y,z
-x,-y,z
1/2-x,y,z
1/2+x,-y,z
x,1/2+y,1/2+z
-x,1/2-y,1/2+z
1/2-x,1/2+y,1/2+z
1/2+x,1/2-y,1/2+z
loop_
_atom_site_type_symbol
_atom_site_label
_atom_site_fract_x
_atom_site_fract_y
_atom_site_fract_z
Si Si1 0.436236 0.430759 0.922070
Si Si2 0.564111 0.878636 0.609389
Si Si3 0.435815 0.184041 0.917106
Si Si4 0.936969 0.727334 0.605432
Si Si5 0.934620 0.070017 0.798424
Si Si6 0.061484 0.309737 0.804624
O O1 0.500000 0.500000 0.895882
O O2 0.250000 0.432070 0.923250
O O3 0.488643 0.374350 0.854492
O O4 0.496220 0.412840 0.021538
O O5 0.750000 0.884742 0.609954
O O6 0.525087 0.803055 0.605464
O O7 0.498162 0.908408 0.700821
O O8 0.250000 0.179813 0.910671
O O9 0.508869 0.122286 0.870403
O O10 0.486950 0.247415 0.861617
O O11 0.486866 0.194001 0.019732
O O12 0.750000 0.722046 0.598689
O O13 0.987393 0.698038 0.701175
O O14 0.750000 0.068105 0.795626
O O15 0.000000 0.000000 0.819757
O O16 0.250000 0.309526 0.804789
#
# Coordination Sequence:
#
# PCOD9364106 Si02
#       6
#     8   8   8   8   8   8
#     4  11  22  38  58  85 120 160 199 244 298 355
#     4  11  21  36  60  90 123 156 194 246 298 355
#     4  11  21  39  62  89 120 155 198 247 295 351
#     4  10  20  37  60  89 119 154 196 244 296 351
#     4  12  25  41  61  88 121 160 200 244 300 361
#     4   9  19  37  60  83 116 156 198 244 293 343
#
# _framework density 17.958399
#
# number of rings (size 3 to 8) (size 9 to 14) (size 15 to 20)
#    0.000    1.333    3.333    3.500    0.000    0.667 
#    0.000    2.500    0.000    2.000    0.000    0.000 
#    0.000    0.000    0.000    0.000    0.000    0.000 
#
# Total GULP energy -134156.917170 kJ/mol
# GULP energy per Si atom -5589.871549 kJ/mol
# Density = 1.791752 g / cm^3
# Si number density = 17.958399 Si / 1000 Ang^3
#
#
#
# Elastic Constant Matrix: (Units=GPa)
#
#
# Indices 1 2 3 4 5 6 
#
# 1 62.7846 52.7625 34.4077 0.0000 0.0000 0.0000
# 2 52.7625 173.9991 86.9388 0.0000 0.0000 0.0000
# 3 34.4077 86.9388 146.5551 0.0000 0.0000 0.0000
# 4 0.0000 0.0000 0.0000 17.4143 0.0000 0.0000
# 5 0.0000 0.0000 0.0000 0.0000 11.7108 0.0000
# 6 0.0000 0.0000 0.0000 0.0000 0.0000 24.1853
#
#
#
# Elastic Compliance Matrix: (Units=1/GPa)
#
#
# Indices 1 2 3 4 5 6 
#
# 1 0.021665 -0.005725 -0.001690 0.000000 0.000000 0.000000
# 2 -0.005725 0.009681 -0.004399 0.000000 0.000000 0.000000
# 3 -0.001690 -0.004399 0.009830 0.000000 0.000000 0.000000
# 4 0.000000 0.000000 0.000000 0.057424 0.000000 0.000000
# 5 0.000000 0.000000 0.000000 0.000000 0.085391 0.000000
# 6 0.000000 0.000000 0.000000 0.000000 0.000000 0.041347
#
#
# Mechanical properties :
#
#
# Convention : Reuss Voigt Hill
#
# Bulk Modulus (GPa) = 56.98841 81.28408 69.13624
# Shear Modulus (GPa) = 19.62203 24.61074 22.11639
#
# Velocity S-wave (km/s) = 3.30909 3.70595 3.51313
# Velocity P-wave (km/s) = 6.81195 7.97952 7.41874
#
# Compressibility (1/GPa) = 0.01754743
#
# Stress axis : x y z
#
# Youngs Moduli (GPa) = 46.15756 103.29428 101.73275
#
# Poissons Ratio (x) = 0.59136 0.17195
# Poissons Ratio (y) = 0.26425 0.44751
# Poissons Ratio (z) = 0.07802 0.45438
#
# Static dielectric constant tensor:
#      x y z
#    x 1.604020 0.000000 0.000000 
#    y 0.000000 1.599450 0.000000 
#    z 0.000000 0.000000 1.584930 
# 
# From -- ./inp_files/15024.got.cif
#   From: 2010.05.17/outbox.cif.g08.bks.cpg/sg40_8_cif.got.tgz:15024.got - 2010.06.03 18:35:42.
