data_PCOD9364431
_publ_section_title
;
Structure prediction by ZEFSAII (Michael W. Deem and Ramdas Pophale) SiO2 
 PCOD9364431
Probable space group: A M A 2
;
_chemical_formula_sum "Si O2"
_cell_formula_units_Z 56
_cell_length_a 15.990770
_cell_length_b 19.929421
_cell_length_c 8.731458
_cell_angle_alpha 90.000000
_cell_angle_beta 90.000000
_cell_angle_gamma 90.000000
_cell_volume 2782.600300
_symmetry_space_group_name_H-M "A M A 2"
_symmetry_group_IT_number 40
_symmetry_cell_setting 'orthorhombic'
loop_
_space_group_symop_operation_xyz
x,y,z
-x,-y,z
1/2-x,y,z
1/2+x,-y,z
x,1/2+y,1/2+z
-x,1/2-y,1/2+z
1/2-x,1/2+y,1/2+z
1/2+x,1/2-y,1/2+z
loop_
_atom_site_type_symbol
_atom_site_label
_atom_site_fract_x
_atom_site_fract_y
_atom_site_fract_z
Si Si1 0.977797 0.358322 0.534010
Si Si2 0.654491 0.279347 0.352028
Si Si3 0.010442 0.078478 0.363112
Si Si4 0.339840 0.380441 0.858925
Si Si5 0.656499 0.108296 0.003630
Si Si6 0.155873 0.617692 0.091170
Si Si7 0.911455 0.980222 0.829444
O O1 0.913470 0.302635 0.475908
O O2 0.981696 0.374948 0.712857
O O3 0.943336 0.426614 0.455599
O O4 0.073904 0.345958 0.481701
O O5 0.750000 0.301076 0.391713
O O6 0.655836 0.199596 0.339049
O O7 0.634522 0.315703 0.190527
O O8 0.088872 0.097509 0.465425
O O9 0.922312 0.096049 0.444310
O O10 0.000000 0.000000 0.322217
O O11 0.250000 0.398425 0.928680
O O12 0.342612 0.409124 0.685391
O O13 0.750000 0.134384 0.967944
O O14 0.634860 0.042151 0.907393
O O15 0.250000 0.624071 0.031452
O O16 0.148673 0.558521 0.215573
O O17 0.000000 0.000000 0.750729
#
# Coordination Sequence:
#
# PCOD9364431 Si02
#       7
#     8   8   8   8   8   8   8
#     4   9  18  32  52  78 107 141 184 227 267 320
#     4   9  19  37  59  81 104 139 188 233 278 333
#     4  11  22  35  52  81 116 148 183 226 279 333
#     4   9  19  36  58  82 109 142 182 231 282 330
#     4   9  16  28  51  81 108 136 176 224 273 328
#     4  10  21  35  53  78 111 148 182 225 279 331
#     4   9  16  31  53  77 107 142 181 222 266 319
#
# _framework density 20.125060000000001
#
# number of rings (size 3 to 8) (size 9 to 14) (size 15 to 20)
#    0.000    2.571    0.000    3.000    0.000    4.000 
#    0.000    1.429    0.000    5.143    0.000    4.000 
#    0.000    0.000    0.000    0.000    0.000    0.000 
#
# Total GULP energy -156071.765113 kJ/mol
# GULP energy per Si atom -5573.991611 kJ/mol
# Density = 2.007925 g / cm^3
# Si number density = 20.125060 Si / 1000 Ang^3
#
#
#
# Elastic Constant Matrix: (Units=GPa)
#
#
# Indices 1 2 3 4 5 6 
#
# 1 157.4836 24.4172 47.8512 0.0000 0.0000 0.0000
# 2 24.4172 42.4073 11.0054 0.0000 0.0000 0.0000
# 3 47.8512 11.0054 42.3942 0.0000 0.0000 0.0000
# 4 0.0000 0.0000 0.0000 10.9027 0.0000 0.0000
# 5 0.0000 0.0000 0.0000 0.0000 27.9084 0.0000
# 6 0.0000 0.0000 0.0000 0.0000 0.0000 23.6927
#
#
#
# Elastic Compliance Matrix: (Units=1/GPa)
#
#
# Indices 1 2 3 4 5 6 
#
# 1 0.010017 -0.003038 -0.010517 0.000000 0.000000 0.000000
# 2 -0.003038 0.026206 -0.003374 0.000000 0.000000 0.000000
# 3 -0.010517 -0.003374 0.036335 0.000000 0.000000 0.000000
# 4 0.000000 0.000000 0.000000 0.091720 0.000000 0.000000
# 5 0.000000 0.000000 0.000000 0.000000 0.035832 0.000000
# 6 0.000000 0.000000 0.000000 0.000000 0.000000 0.042207
#
#
# Mechanical properties :
#
#
# Convention : Reuss Voigt Hill
#
# Bulk Modulus (GPa) = 25.84046 45.42587 35.63316
# Shear Modulus (GPa) = 17.29660 23.10150 20.19905
#
# Velocity S-wave (km/s) = 2.93483 3.39174 3.17152
# Velocity P-wave (km/s) = 4.93479 6.16111 5.58173
#
# Compressibility (1/GPa) = 0.03869900
#
# Stress axis : x y z
#
# Youngs Moduli (GPa) = 99.83481 38.15981 27.52161
#
# Poissons Ratio (x) = 0.11593 0.28945
# Poissons Ratio (y) = 0.30329 0.09286
# Poissons Ratio (z) = 1.04999 0.12875
#
# Static dielectric constant tensor:
#      x y z
#    x 1.777210 0.000000 0.000000 
#    y 0.000000 1.707820 0.000000 
#    z 0.000000 0.000000 1.701840 
# 
# From -- ./inp_files/6737.got.cif
#   From: 2010.05.17/outbox.cif.g08.bks.cpg/sg40_4_cif.got.tgz:6737.got - 2010.06.03 18:35:42.
