data_PCOD9364268
_publ_section_title
;
Structure prediction by ZEFSAII (Michael W. Deem and Ramdas Pophale) SiO2 
 PCOD9364268
Probable space group: A M A 2
;
_chemical_formula_sum "Si O2"
_cell_formula_units_Z 56
_cell_length_a 21.246989
_cell_length_b 8.439353
_cell_length_c 12.571857
_cell_angle_alpha 90.000000
_cell_angle_beta 90.000000
_cell_angle_gamma 90.000000
_cell_volume 2254.270244
_symmetry_space_group_name_H-M "A M A 2"
_symmetry_group_IT_number 40
_symmetry_cell_setting 'orthorhombic'
loop_
_space_group_symop_operation_xyz
x,y,z
-x,-y,z
1/2-x,y,z
1/2+x,-y,z
x,1/2+y,1/2+z
-x,1/2-y,1/2+z
1/2-x,1/2+y,1/2+z
1/2+x,1/2-y,1/2+z
loop_
_atom_site_type_symbol
_atom_site_label
_atom_site_fract_x
_atom_site_fract_y
_atom_site_fract_z
Si Si1 0.820681 0.680631 0.473850
Si Si2 0.846631 0.832946 0.928591
Si Si3 0.619752 0.588891 0.187238
Si Si4 0.324946 0.750354 0.205042
Si Si5 0.470586 0.756543 0.524149
Si Si6 0.000000 0.500000 0.688828
Si Si7 0.073850 0.671463 0.853803
Si Si8 0.250000 0.784494 0.610468
O O1 0.750000 0.740912 0.470779
O O2 0.824779 0.514090 0.412538
O O3 0.835367 0.644528 0.599359
O O4 0.864082 0.816754 0.425106
O O5 0.838319 0.715693 0.828477
O O6 0.918988 0.848215 0.962409
O O7 0.804179 0.768006 0.023104
O O8 0.632616 0.403897 0.189287
O O9 0.580600 0.670061 0.282105
O O10 0.690795 0.663400 0.188098
O O11 0.574663 0.622126 0.085969
O O12 0.250000 0.713955 0.202173
O O13 0.506044 0.650398 0.611813
O O14 0.517290 0.821554 0.436690
O O15 0.058757 0.536986 0.766609
#
# Coordination Sequence:
#
# PCOD9364268 Si02
#       8
#     8   8   8   8   8   4   8   4
#     4  11  24  40  69 100 134 176 227 285 344 410
#     4  11  21  42  71  96 137 176 222 289 346 411
#     4  10  22  40  67  99 132 184 228 281 341 422
#     4  11  22  39  67  98 134 167 226 279 334 420
#     4  10  24  42  67  97 134 179 227 279 342 409
#     4  10  24  44  62  98 144 172 236 284 332 422
#     4  11  24  44  71  96 141 188 226 290 348 406
#     4  10  20  38  70  96 136 184 220 284 364 392
#
# _framework density 24.841742
#
# number of rings (size 3 to 8) (size 9 to 14) (size 15 to 20)
#    0.000    1.429    3.571    0.857    3.000    3.429 
#    0.000    1.429    3.143    0.000    0.000    0.000 
#    0.000    0.000    0.000    0.000    0.000    0.000 
#
# Total GULP energy -155912.887674 kJ/mol
# GULP energy per Si atom -5568.317417 kJ/mol
# Density = 2.478520 g / cm^3
# Si number density = 24.841742 Si / 1000 Ang^3
#
#
#
# Elastic Constant Matrix: (Units=GPa)
#
#
# Indices 1 2 3 4 5 6 
#
# 1 147.5307 19.8619 48.2442 0.0000 0.0000 0.0000
# 2 19.8619 23.9492 37.6462 0.0000 0.0000 0.0000
# 3 48.2442 37.6462 125.3512 0.0000 0.0000 0.0000
# 4 0.0000 0.0000 0.0000 33.7137 0.0000 0.0000
# 5 0.0000 0.0000 0.0000 0.0000 32.9609 0.0000
# 6 0.0000 0.0000 0.0000 0.0000 0.0000 18.8713
#
#
#
# Elastic Compliance Matrix: (Units=1/GPa)
#
#
# Indices 1 2 3 4 5 6 
#
# 1 0.007894 -0.003355 -0.002031 0.000000 0.000000 0.000000
# 2 -0.003355 0.080521 -0.022891 0.000000 0.000000 0.000000
# 3 -0.002031 -0.022891 0.015634 0.000000 0.000000 0.000000
# 4 0.000000 0.000000 0.000000 0.029662 0.000000 0.000000
# 5 0.000000 0.000000 0.000000 0.000000 0.030339 0.000000
# 6 0.000000 0.000000 0.000000 0.000000 0.000000 0.052990
#
#
# Mechanical properties :
#
#
# Convention : Reuss Voigt Hill
#
# Bulk Modulus (GPa) = 21.05473 56.48175 38.76824
# Shear Modulus (GPa) = 17.27566 29.84777 23.56172
#
# Velocity S-wave (km/s) = 2.63996 3.47005 3.08307
# Velocity P-wave (km/s) = 4.21740 6.23225 5.32106
#
# Compressibility (1/GPa) = 0.04749527
#
# Stress axis : x y z
#
# Youngs Moduli (GPa) = 126.67954 12.41918 63.96320
#
# Poissons Ratio (x) = 0.04166 0.12989
# Poissons Ratio (y) = 0.42497 1.46420
# Poissons Ratio (z) = 0.25724 0.28429
#
# Static dielectric constant tensor:
#      x y z
#    x 1.983210 0.000000 0.000000 
#    y 0.000000 1.970510 0.000000 
#    z 0.000000 0.000000 2.067070 
# 
# From -- ./inp_files/13600.got.cif
#   From: 2010.05.17/outbox.cif.g08.bks.cpg/sg40_7_cif.got.tgz:13600.got - 2010.06.03 18:35:42.
