data_PCOD9364637
_publ_section_title
;
Structure prediction by ZEFSAII (Michael W. Deem and Ramdas Pophale) SiO2 
 PCOD9364637
Probable space group: A M A 2
;
_chemical_formula_sum "Si O2"
_cell_formula_units_Z 52
_cell_length_a 26.954130
_cell_length_b 5.045109
_cell_length_c 16.448596
_cell_angle_alpha 90.000000
_cell_angle_beta 90.000000
_cell_angle_gamma 90.000000
_cell_volume 2236.787392
_symmetry_space_group_name_H-M "A M A 2"
_symmetry_group_IT_number 40
_symmetry_cell_setting 'orthorhombic'
loop_
_space_group_symop_operation_xyz
x,y,z
-x,-y,z
1/2-x,y,z
1/2+x,-y,z
x,1/2+y,1/2+z
-x,1/2-y,1/2+z
1/2-x,1/2+y,1/2+z
1/2+x,1/2-y,1/2+z
loop_
_atom_site_type_symbol
_atom_site_label
_atom_site_fract_x
_atom_site_fract_y
_atom_site_fract_z
Si Si1 0.596880 0.224788 0.123670
Si Si2 0.950213 0.607975 0.256342
Si Si3 0.332346 0.168965 0.491477
Si Si4 0.500000 0.000000 0.127943
Si Si5 0.750000 0.252519 0.117255
Si Si6 0.250000 0.244447 0.226747
Si Si7 0.644771 0.928629 0.263444
Si Si8 0.690792 0.336547 0.385404
O O1 0.578598 0.389792 0.202375
O O2 0.547518 0.106886 0.082756
O O3 0.631209 0.006665 0.169861
O O4 0.621622 0.384276 0.050710
O O5 0.905977 0.786469 0.294723
O O6 0.000000 0.500000 0.303009
O O7 0.976543 0.785440 0.188039
O O8 0.294959 0.283498 0.557399
O O9 0.334331 0.403521 0.424956
O O10 0.312211 0.901439 0.451947
O O11 0.750000 0.541063 0.156297
O O12 0.750000 0.048823 0.189927
O O13 0.304950 0.250931 0.266997
O O14 0.660693 0.192567 0.312581
O O15 0.750000 0.379396 0.367711
#
# Coordination Sequence:
#
# PCOD9364637 Si02
#       8
#     8   8   8   4   4   4   8   8
#     4  10  21  38  68  94 123 166 221 278 331 403
#     4   9  19  39  67 102 127 165 223 294 351 404
#     4  12  25  41  64  89 132 180 220 264 332 402
#     4   8  18  36  64  98 124 152 212 282 344 384
#     4  12  22  38  60  94 128 169 225 280 326 394
#     4  12  24  36  64 102 132 167 235 292 330 398
#     4  11  24  39  64  97 130 178 225 287 339 408
#     4  12  26  44  59  92 139 184 219 267 334 409
#
# _framework density 23.247627999999999
#
# number of rings (size 3 to 8) (size 9 to 14) (size 15 to 20)
#    0.000    1.231    3.846    1.846    6.462    0.000 
#    0.000    0.000    1.692    0.000    0.000    0.000 
#    0.000    0.000    0.000    0.000    0.000    0.000 
#
# Total GULP energy -144977.032097 kJ/mol
# GULP energy per Si atom -5576.039696 kJ/mol
# Density = 2.319472 g / cm^3
# Si number density = 23.247628 Si / 1000 Ang^3
#
#
#
# Elastic Constant Matrix: (Units=GPa)
#
#
# Indices 1 2 3 4 5 6 
#
# 1 140.6623 27.5163 42.8950 0.0000 0.0000 0.0000
# 2 27.5163 64.4718 9.0202 0.0000 0.0000 0.0000
# 3 42.8950 9.0202 65.8393 0.0000 0.0000 0.0000
# 4 0.0000 0.0000 0.0000 7.2516 0.0000 0.0000
# 5 0.0000 0.0000 0.0000 0.0000 26.8041 0.0000
# 6 0.0000 0.0000 0.0000 0.0000 0.0000 38.9380
#
#
#
# Elastic Compliance Matrix: (Units=1/GPa)
#
#
# Indices 1 2 3 4 5 6 
#
# 1 0.009496 -0.003249 -0.005741 0.000000 0.000000 0.000000
# 2 -0.003249 0.016926 -0.000202 0.000000 0.000000 0.000000
# 3 -0.005741 -0.000202 0.018957 0.000000 0.000000 0.000000
# 4 0.000000 0.000000 0.000000 0.137900 0.000000 0.000000
# 5 0.000000 0.000000 0.000000 0.000000 0.037308 0.000000
# 6 0.000000 0.000000 0.000000 0.000000 0.000000 0.025682
#
#
# Mechanical properties :
#
#
# Convention : Reuss Voigt Hill
#
# Bulk Modulus (GPa) = 37.04683 47.75960 42.40321
# Shear Modulus (GPa) = 18.27144 27.36821 22.81982
#
# Velocity S-wave (km/s) = 2.80652 3.43483 3.13645
# Velocity P-wave (km/s) = 5.14513 6.02654 5.60319
#
# Compressibility (1/GPa) = 0.02699286
#
# Stress axis : x y z
#
# Youngs Moduli (GPa) = 105.31066 59.08161 52.75174
#
# Poissons Ratio (x) = 0.19198 0.30287
# Poissons Ratio (y) = 0.34220 0.01065
# Poissons Ratio (z) = 0.60463 0.01192
#
# Static dielectric constant tensor:
#      x y z
#    x 1.242540 0.000000 0.000000 
#    y 0.000000 2.425590 0.000000 
#    z 0.000000 0.000000 1.850250 
# 
# From -- ./inp_files/21599.got.cif
#   From: 2010.05.17/outbox.cif.g08.bks.cpg/sg40_11_cif.got.tgz:21599.got - 2010.06.03 18:35:42.
