data_PCOD9364940
_publ_section_title
;
Structure prediction by ZEFSAII (Michael W. Deem and Ramdas Pophale) SiO2 
 PCOD9364940
Probable space group: A M A 2
;
_chemical_formula_sum "Si O2"
_cell_formula_units_Z 64
_cell_length_a 20.081669
_cell_length_b 16.676452
_cell_length_c 8.777374
_cell_angle_alpha 90.000000
_cell_angle_beta 90.000000
_cell_angle_gamma 90.000000
_cell_volume 2939.463461
_symmetry_space_group_name_H-M "A M A 2"
_symmetry_group_IT_number 40
_symmetry_cell_setting 'orthorhombic'
loop_
_space_group_symop_operation_xyz
x,y,z
-x,-y,z
1/2-x,y,z
1/2+x,-y,z
x,1/2+y,1/2+z
-x,1/2-y,1/2+z
1/2-x,1/2+y,1/2+z
1/2+x,1/2-y,1/2+z
loop_
_atom_site_type_symbol
_atom_site_label
_atom_site_fract_x
_atom_site_fract_y
_atom_site_fract_z
Si Si1 0.625622 0.325059 0.028480
Si Si2 0.033529 0.147142 0.034938
Si Si3 0.823510 0.717501 0.271882
Si Si4 0.176720 0.144574 0.065099
Si Si5 0.069695 0.419617 0.313067
Si Si6 0.437229 0.779450 0.277044
Si Si7 0.322927 0.554566 0.260602
Si Si8 0.513165 0.590402 0.973990
O O1 0.615974 0.255329 0.156268
O O2 0.659386 0.401810 0.104775
O O3 0.667108 0.289873 0.890412
O O4 0.553253 0.355264 0.973775
O O5 0.049222 0.208006 0.895641
O O6 0.980176 0.088196 0.955520
O O7 0.102524 0.111621 0.101981
O O8 0.998954 0.198433 0.166920
O O9 0.750000 0.682068 0.287068
O O10 0.828644 0.761911 0.109324
O O11 0.881451 0.656434 0.308951
O O12 0.250000 0.117531 0.127599
O O13 0.180733 0.123146 0.888344
O O14 0.118050 0.495874 0.309562
O O15 0.031988 0.417455 0.151745
O O16 0.431530 0.860661 0.377496
O O17 0.250000 0.515440 0.253637
O O18 0.500000 0.500000 0.916020
#
# Coordination Sequence:
#
# PCOD9364940 Si02
#       8
#     8   8   8   8   8   8   8   8
#     4  12  22  41  65  94 124 173 219 269 332 390
#     4  12  21  39  67  93 129 163 217 269 322 387
#     4  11  24  43  66  93 128 173 223 272 328 397
#     4  10  22  39  62  91 123 166 214 264 323 390
#     4  12  23  41  66  96 132 173 218 272 335 388
#     4  12  22  39  65  98 127 169 214 272 321 382
#     4  11  24  42  64  93 132 174 224 274 332 400
#     4  12  24  41  62  98 135 166 212 275 331 391
#
# _framework density 21.772680000000001
#
# number of rings (size 3 to 8) (size 9 to 14) (size 15 to 20)
#    0.000    0.500    6.250    3.000    0.000    0.000 
#    4.500    0.000    0.000    0.000    0.000    0.000 
#    0.000    0.000    0.000    0.000    0.000    0.000 
#
# Total GULP energy -178598.607550 kJ/mol
# GULP energy per Si atom -5581.206486 kJ/mol
# Density = 2.172312 g / cm^3
# Si number density = 21.772680 Si / 1000 Ang^3
#
#
#
# Elastic Constant Matrix: (Units=GPa)
#
#
# Indices 1 2 3 4 5 6 
#
# 1 140.6882 36.2650 26.4591 0.0000 0.0000 0.0000
# 2 36.2650 101.1429 26.2013 0.0000 0.0000 0.0000
# 3 26.4591 26.2013 74.7214 0.0000 0.0000 0.0000
# 4 0.0000 0.0000 0.0000 24.7972 0.0000 0.0000
# 5 0.0000 0.0000 0.0000 0.0000 22.8653 0.0000
# 6 0.0000 0.0000 0.0000 0.0000 0.0000 18.5780
#
#
#
# Elastic Compliance Matrix: (Units=1/GPa)
#
#
# Indices 1 2 3 4 5 6 
#
# 1 0.008104 -0.002378 -0.002036 0.000000 0.000000 0.000000
# 2 -0.002378 0.011573 -0.003216 0.000000 0.000000 0.000000
# 3 -0.002036 -0.003216 0.015232 0.000000 0.000000 0.000000
# 4 0.000000 0.000000 0.000000 0.040327 0.000000 0.000000
# 5 0.000000 0.000000 0.000000 0.000000 0.043734 0.000000
# 6 0.000000 0.000000 0.000000 0.000000 0.000000 0.053827
#
#
# Mechanical properties :
#
#
# Convention : Reuss Voigt Hill
#
# Bulk Modulus (GPa) = 50.89438 54.93371 52.91405
# Shear Modulus (GPa) = 25.69295 28.42324 27.05809
#
# Velocity S-wave (km/s) = 3.43892 3.61703 3.52910
# Velocity P-wave (km/s) = 6.26054 6.53676 6.40014
#
# Compressibility (1/GPa) = 0.01964854
#
# Stress axis : x y z
#
# Youngs Moduli (GPa) = 123.39878 86.40922 65.65323
#
# Poissons Ratio (x) = 0.20551 0.13365
# Poissons Ratio (y) = 0.29348 0.21113
# Poissons Ratio (z) = 0.25119 0.27788
#
# Static dielectric constant tensor:
#      x y z
#    x 1.868230 0.000000 0.000000 
#    y 0.000000 1.810710 0.000000 
#    z 0.000000 0.000000 1.790010 
# 
# From -- ./inp_files/8477.got.cif
#   From: 2010.05.17/outbox.cif.g08.bks.cpg/sg40_5_cif.got.tgz:8477.got - 2010.06.03 18:35:42.
