data_PCOD9364766
_publ_section_title
;
Structure prediction by ZEFSAII (Michael W. Deem and Ramdas Pophale) SiO2 
 PCOD9364766
Probable space group: A M A 2
;
_chemical_formula_sum "Si O2"
_cell_formula_units_Z 40
_cell_length_a 20.321669
_cell_length_b 14.086637
_cell_length_c 4.961883
_cell_angle_alpha 90.000000
_cell_angle_beta 90.000000
_cell_angle_gamma 90.000000
_cell_volume 1420.408348
_symmetry_space_group_name_H-M "A M A 2"
_symmetry_group_IT_number 40
_symmetry_cell_setting 'orthorhombic'
loop_
_space_group_symop_operation_xyz
x,y,z
-x,-y,z
1/2-x,y,z
1/2+x,-y,z
x,1/2+y,1/2+z
-x,1/2-y,1/2+z
1/2-x,1/2+y,1/2+z
1/2+x,1/2-y,1/2+z
loop_
_atom_site_type_symbol
_atom_site_label
_atom_site_fract_x
_atom_site_fract_y
_atom_site_fract_z
Si Si1 0.677653 0.641495 0.810550
Si Si2 0.039313 0.783928 0.953345
Si Si3 0.177768 0.524283 0.435102
Si Si4 0.934772 0.036030 0.624042
Si Si5 0.676275 0.795155 0.248454
O O1 0.750000 0.609155 0.910333
O O2 0.677724 0.587182 0.520199
O O3 0.614253 0.593599 0.938113
O O4 0.674405 0.745543 0.950527
O O5 0.039637 0.892156 0.854055
O O6 0.113462 0.742796 0.913556
O O7 0.991196 0.730258 0.745337
O O8 0.250000 0.546621 0.319745
O O9 0.113383 0.540548 0.258633
O O10 0.171661 0.593182 0.691591
O O11 0.000000 0.000000 0.482396
O O12 0.750000 0.774232 0.364947
#
# Coordination Sequence:
#
# PCOD9364766 Si02
#       5
#     8   8   8   8   8
#     4   9  20  39  62  91 128 170 221 281 346 414
#     4  11  26  45  68  99 140 182 230 284 351 422
#     4  10  21  40  66  93 128 173 226 286 346 416
#     4  11  24  38  63  92 130 173 220 284 340 414
#     4   9  20  42  68  97 135 178 234 290 350 422
#
# _framework density 28.160916
#
# number of rings (size 3 to 8) (size 9 to 14) (size 15 to 20)
#    0.000    2.000    0.000    1.800    8.400    1.600 
#    0.000    1.000    0.000    0.000    0.000    0.000 
#    0.000    0.000    0.000    0.000    0.000    0.000 
#
# Total GULP energy -111893.188446 kJ/mol
# GULP energy per Si atom -5594.659422 kJ/mol
# Density = 2.809682 g / cm^3
# Si number density = 28.160916 Si / 1000 Ang^3
#
#
#
# Elastic Constant Matrix: (Units=GPa)
#
#
# Indices 1 2 3 4 5 6 
#
# 1 254.3475 38.7375 39.7209 0.0000 0.0000 0.0000
# 2 38.7375 107.4492 3.5253 0.0000 0.0000 0.0000
# 3 39.7209 3.5253 69.0933 0.0000 0.0000 0.0000
# 4 0.0000 0.0000 0.0000 34.2722 0.0000 0.0000
# 5 0.0000 0.0000 0.0000 0.0000 19.9825 0.0000
# 6 0.0000 0.0000 0.0000 0.0000 0.0000 47.8962
#
#
#
# Elastic Compliance Matrix: (Units=1/GPa)
#
#
# Indices 1 2 3 4 5 6 
#
# 1 0.004567 -0.001563 -0.002546 0.000000 0.000000 0.000000
# 2 -0.001563 0.009857 0.000396 0.000000 0.000000 0.000000
# 3 -0.002546 0.000396 0.015917 0.000000 0.000000 0.000000
# 4 0.000000 0.000000 0.000000 0.029178 0.000000 0.000000
# 5 0.000000 0.000000 0.000000 0.000000 0.050044 0.000000
# 6 0.000000 0.000000 0.000000 0.000000 0.000000 0.020878
#
#
# Mechanical properties :
#
#
# Convention : Reuss Voigt Hill
#
# Bulk Modulus (GPa) = 43.64052 66.09526 54.86789
# Shear Modulus (GPa) = 34.36275 43.69060 39.02668
#
# Velocity S-wave (km/s) = 3.49697 3.94313 3.72673
# Velocity P-wave (km/s) = 5.64230 6.65226 6.16799
#
# Compressibility (1/GPa) = 0.02291449
#
# Stress axis : x y z
#
# Youngs Moduli (GPa) = 218.94885 101.44813 62.82740
#
# Poissons Ratio (x) = 0.15857 0.15995
# Poissons Ratio (y) = 0.34223 -0.02486
# Poissons Ratio (z) = 0.55743 -0.04014
#
# Static dielectric constant tensor:
#      x y z
#    x 2.142960 0.000000 0.000000 
#    y 0.000000 2.191700 0.000000 
#    z 0.000000 0.000000 2.245250 
# 
# From -- ./inp_files/1730.got.cif
#   From: 2010.05.17/outbox.cif.g08.bks.cpg/sg40_1_cif.got.tgz:1730.got - 2010.06.03 18:35:42.
