data_PCOD9364474
_publ_section_title
;
Structure prediction by ZEFSAII (Michael W. Deem and Ramdas Pophale) SiO2 
 PCOD9364474
Probable space group: A M A 2
;
_chemical_formula_sum "Si O2"
_cell_formula_units_Z 60
_cell_length_a 10.722810
_cell_length_b 24.874462
_cell_length_c 12.063710
_cell_angle_alpha 90.000000
_cell_angle_beta 90.000000
_cell_angle_gamma 90.000000
_cell_volume 3217.682553
_symmetry_space_group_name_H-M "A M A 2"
_symmetry_group_IT_number 40
_symmetry_cell_setting 'orthorhombic'
loop_
_space_group_symop_operation_xyz
x,y,z
-x,-y,z
1/2-x,y,z
1/2+x,-y,z
x,1/2+y,1/2+z
-x,1/2-y,1/2+z
1/2-x,1/2+y,1/2+z
1/2+x,1/2-y,1/2+z
loop_
_atom_site_type_symbol
_atom_site_label
_atom_site_fract_x
_atom_site_fract_y
_atom_site_fract_z
Si Si1 0.000000 0.500000 0.365041
Si Si2 0.112821 0.436050 0.163813
Si Si3 0.617536 0.184390 0.755469
Si Si4 0.392985 0.083747 0.044368
Si Si5 0.388119 0.832303 0.016236
Si Si6 0.110786 0.040546 0.294794
Si Si7 0.890142 0.784544 0.622997
Si Si8 0.607404 0.400200 0.015143
O O1 0.087471 0.467984 0.278088
O O2 0.069437 0.541803 0.446897
O O3 0.250000 0.451327 0.118422
O O4 0.118092 0.373358 0.196588
O O5 0.994352 0.436147 0.080867
O O6 0.750000 0.212123 0.730302
O O7 0.611425 0.172465 0.884407
O O8 0.496489 0.214791 0.714711
O O9 0.250000 0.102023 0.024981
O O10 0.496928 0.130101 0.047332
O O11 0.396667 0.057344 0.166403
O O12 0.250000 0.853684 0.050461
O O13 0.398624 0.771841 0.060775
O O14 0.250000 0.017335 0.312464
O O15 0.097846 0.088459 0.384225
O O16 0.000000 0.000000 0.318555
O O17 0.750000 0.789700 0.669379
O O18 0.909316 0.837226 0.545601
O O19 0.750000 0.414049 0.049508
#
# Coordination Sequence:
#
# PCOD9364474 Si02
#       8
#     4   8   8   8   8   8   8   8
#     4  12  22  38  58  86 120 152 190 242 294 344
#     4  10  21  36  57  84 114 149 191 236 287 345
#     4   9  18  35  56  80 111 148 185 234 286 337
#     4  11  24  39  60  88 117 155 199 241 290 349
#     4  10  21  38  59  84 116 153 191 237 296 348
#     4  10  22  40  60  85 116 155 196 239 287 340
#     4   9  19  36  58  83 112 150 189 233 289 345
#     4   9  20  39  60  85 117 152 194 239 286 344
#
# _framework density 18.646961000000001
#
# number of rings (size 3 to 8) (size 9 to 14) (size 15 to 20)
#    0.000    2.133    2.000    0.400    0.933    4.800 
#    0.000    2.667    0.000    3.200    0.000    0.000 
#    0.000    0.000    0.000    0.000    0.000    0.000 
#
# Total GULP energy -167161.121671 kJ/mol
# GULP energy per Si atom -5572.037389 kJ/mol
# Density = 1.860452 g / cm^3
# Si number density = 18.646961 Si / 1000 Ang^3
#
#
#
# Elastic Constant Matrix: (Units=GPa)
#
#
# Indices 1 2 3 4 5 6 
#
# 1 166.7976 59.8321 36.6565 0.0000 0.0000 0.0000
# 2 59.8321 54.5224 7.5591 0.0000 0.0000 0.0000
# 3 36.6565 7.5591 52.0363 0.0000 0.0000 0.0000
# 4 0.0000 0.0000 0.0000 -51.8806 0.0000 0.0000
# 5 0.0000 0.0000 0.0000 0.0000 35.0697 0.0000
# 6 0.0000 0.0000 0.0000 0.0000 0.0000 12.1683
#
#
#
# Elastic Compliance Matrix: (Units=1/GPa)
#
#
# Indices 1 2 3 4 5 6 
#
# 1 0.011715 -0.011952 -0.006516 0.000000 0.000000 0.000000
# 2 -0.011952 0.030912 0.003929 0.000000 0.000000 0.000000
# 3 -0.006516 0.003929 0.023237 0.000000 0.000000 0.000000
# 4 0.000000 0.000000 0.000000 -0.019275 0.000000 0.000000
# 5 0.000000 0.000000 0.000000 0.000000 0.028515 0.000000
# 6 0.000000 0.000000 0.000000 0.000000 0.000000 0.082181
#
#
# Mechanical properties :
#
#
# Convention : Reuss Voigt Hill
#
# Bulk Modulus (GPa) = 27.18458 53.49464 40.33961
# Shear Modulus (GPa) = 25.17320 10.35872 17.76596
#
# Velocity S-wave (km/s) = 3.67821 2.35950 3.09002
# Velocity P-wave (km/s) = 5.71394 6.01443 5.86611
#
# Compressibility (1/GPa) = 0.03678556
#
# Stress axis : x y z
#
# Youngs Moduli (GPa) = 85.36340 32.34954 43.03524
#
# Poissons Ratio (x) = 0.38664 0.28042
# Poissons Ratio (y) = 1.02027 -0.16909
# Poissons Ratio (z) = 0.55623 -0.12710
#
# Static dielectric constant tensor:
#      x y z
#    x 1.697890 0.000000 0.000000 
#    y 0.000000 1.832800 0.000000 
#    z 0.000000 0.000000 1.611340 
# 
# From -- ./inp_files/10401.got.cif
#   From: 2010.05.17/outbox.cif.g08.bks.cpg/sg40_6_cif.got.tgz:10401.got - 2010.06.03 18:35:42.
