data_PCOD9364667
_publ_section_title
;
Structure prediction by ZEFSAII (Michael W. Deem and Ramdas Pophale) SiO2 
 PCOD9364667
Probable space group: A M A 2
;
_chemical_formula_sum "Si O2"
_cell_formula_units_Z 64
_cell_length_a 8.663860
_cell_length_b 24.360078
_cell_length_c 15.891276
_cell_angle_alpha 90.000000
_cell_angle_beta 90.000000
_cell_angle_gamma 90.000000
_cell_volume 3353.890435
_symmetry_space_group_name_H-M "A M A 2"
_symmetry_group_IT_number 40
_symmetry_cell_setting 'orthorhombic'
loop_
_space_group_symop_operation_xyz
x,y,z
-x,-y,z
1/2-x,y,z
1/2+x,-y,z
x,1/2+y,1/2+z
-x,1/2-y,1/2+z
1/2-x,1/2+y,1/2+z
1/2+x,1/2-y,1/2+z
loop_
_atom_site_type_symbol
_atom_site_label
_atom_site_fract_x
_atom_site_fract_y
_atom_site_fract_z
Si Si1 0.434609 0.749208 0.470870
Si Si2 0.566229 0.633995 0.415565
Si Si3 0.436085 0.860199 0.726640
Si Si4 0.564360 0.627254 0.722571
Si Si5 0.436568 0.438855 0.072530
Si Si6 0.933063 0.939059 0.065449
Si Si7 0.437962 0.869833 0.410645
Si Si8 0.934014 0.248788 0.158231
O O1 0.250000 0.743787 0.462163
O O2 0.515305 0.696731 0.430236
O O3 0.483062 0.807100 0.430413
O O4 0.479558 0.750533 0.568997
O O5 0.750000 0.629857 0.426173
O O6 0.525658 0.618509 0.319784
O O7 0.487881 0.596666 0.485898
O O8 0.250000 0.853241 0.722233
O O9 0.482635 0.901546 0.652284
O O10 0.513462 0.801414 0.710877
O O11 0.750000 0.620847 0.718240
O O12 0.491140 0.590612 0.650074
O O13 0.512025 0.613486 0.817195
O O14 0.530561 0.691233 0.703557
O O15 0.500000 0.500000 0.078582
O O16 0.250000 0.440614 0.071619
O O17 0.488995 0.409008 0.986514
O O18 0.750000 0.941424 0.066278
O O19 0.000000 0.000000 0.060210
O O20 0.250000 0.870293 0.410999
O O21 0.750000 0.250654 0.143913
#
# Coordination Sequence:
#
# PCOD9364667 Si02
#       8
#     8   8   8   8   8   8   8   8
#     4  11  20  36  62  90 123 163 199 240 303 367
#     4  11  23  40  62  92 124 157 199 253 304 360
#     4  10  22  40  62  87 123 162 200 247 303 362
#     4  10  21  39  62  90 123 157 196 247 300 358
#     4  10  21  40  60  83 114 155 200 246 296 349
#     4  12  26  44  65  87 117 160 204 255 307 364
#     4   9  19  37  62  87 120 161 198 239 297 361
#     4  11  21  34  59  92 127 160 198 247 299 355
#
# _framework density 19.082315999999999
#
# number of rings (size 3 to 8) (size 9 to 14) (size 15 to 20)
#    0.000    1.500    2.500    3.000    0.000    4.000 
#    0.000    4.375    0.000    0.000    0.000    0.000 
#    0.000    0.000    0.000    0.000    0.000    0.000 
#
# Total GULP energy -178860.195850 kJ/mol
# GULP energy per Si atom -5589.381120 kJ/mol
# Density = 1.903888 g / cm^3
# Si number density = 19.082316 Si / 1000 Ang^3
#
#
#
# Elastic Constant Matrix: (Units=GPa)
#
#
# Indices 1 2 3 4 5 6 
#
# 1 36.1053 28.5159 36.3942 0.0000 0.0000 0.0000
# 2 28.5159 117.4564 50.4438 0.0000 0.0000 0.0000
# 3 36.3942 50.4438 146.4582 0.0000 0.0000 0.0000
# 4 0.0000 0.0000 0.0000 -2.3863 0.0000 0.0000
# 5 0.0000 0.0000 0.0000 0.0000 16.7897 0.0000
# 6 0.0000 0.0000 0.0000 0.0000 0.0000 31.3772
#
#
#
# Elastic Compliance Matrix: (Units=1/GPa)
#
#
# Indices 1 2 3 4 5 6 
#
# 1 0.040800 -0.006515 -0.007895 0.000000 0.000000 0.000000
# 2 -0.006515 0.011032 -0.002181 0.000000 0.000000 0.000000
# 3 -0.007895 -0.002181 0.009541 0.000000 0.000000 0.000000
# 4 0.000000 0.000000 0.000000 -0.419057 0.000000 0.000000
# 5 0.000000 0.000000 0.000000 0.000000 0.059561 0.000000
# 6 0.000000 0.000000 0.000000 0.000000 0.000000 0.031870
#
#
# Mechanical properties :
#
#
# Convention : Reuss Voigt Hill
#
# Bulk Modulus (GPa) = 35.47088 58.96975 47.22031
# Shear Modulus (GPa) = -22.35382 21.46719 -0.44332
#
# Velocity S-wave (km/s) = -3.42635 3.35771 -0.48252
# Velocity P-wave (km/s) = 1.72499 6.78249 4.94862
#
# Compressibility (1/GPa) = 0.02819214
#
# Stress axis : x y z
#
# Youngs Moduli (GPa) = 24.50976 90.64508 104.81277
#
# Poissons Ratio (x) = 0.59054 0.82747
# Poissons Ratio (y) = 0.15968 0.22858
# Poissons Ratio (z) = 0.19350 0.19768
#
# Static dielectric constant tensor:
#      x y z
#    x 1.643430 0.000000 0.000000 
#    y 0.000000 1.627710 0.000000 
#    z 0.000000 0.000000 1.669090 
# 
# From -- ./inp_files/15555.got.cif
#   From: 2010.05.17/outbox.cif.g08.bks.cpg/sg40_8_cif.got.tgz:15555.got - 2010.06.03 18:35:42.
