data_PCOD9364275
_publ_section_title
;
Structure prediction by ZEFSAII (Michael W. Deem and Ramdas Pophale) SiO2 
 PCOD9364275
Probable space group: A M A 2
;
_chemical_formula_sum "Si O2"
_cell_formula_units_Z 44
_cell_length_a 12.146349
_cell_length_b 32.563741
_cell_length_c 5.179370
_cell_angle_alpha 90.000000
_cell_angle_beta 90.000000
_cell_angle_gamma 90.000000
_cell_volume 2048.599132
_symmetry_space_group_name_H-M "A M A 2"
_symmetry_group_IT_number 40
_symmetry_cell_setting 'orthorhombic'
loop_
_space_group_symop_operation_xyz
x,y,z
-x,-y,z
1/2-x,y,z
1/2+x,-y,z
x,1/2+y,1/2+z
-x,1/2-y,1/2+z
1/2-x,1/2+y,1/2+z
1/2+x,1/2-y,1/2+z
loop_
_atom_site_type_symbol
_atom_site_label
_atom_site_fract_x
_atom_site_fract_y
_atom_site_fract_z
Si Si1 0.507923 0.911776 0.359680
Si Si2 0.250000 0.217448 0.442247
Si Si3 0.250000 0.067810 0.261904
Si Si4 0.500000 0.500000 0.113487
Si Si5 0.496523 0.136650 0.863507
Si Si6 0.958650 0.232479 0.798613
Si Si7 0.750000 0.483921 0.253577
Si Si8 0.750000 0.837882 0.936367
O O1 0.640131 0.908356 0.334196
O O2 0.490973 0.959303 0.434714
O O3 0.470211 0.884746 0.599206
O O4 0.461996 0.891755 0.098543
O O5 0.148711 0.246902 0.409612
O O6 0.250000 0.196941 0.719247
O O7 0.250000 0.182817 0.218736
O O8 0.250000 0.029194 0.455011
O O9 0.250000 0.051396 0.970633
O O10 0.619112 0.499903 0.270542
O O11 0.531417 0.184217 0.853984
O O12 0.363437 0.138330 0.886264
O O13 0.957646 0.244139 0.495172
#
# Coordination Sequence:
#
# PCOD9364275 Si02
#       8
#     8   4   4   4   8   8   4   4
#     4  11  23  39  63  93 135 168 224 271 345 390
#     4  12  22  41  64  93 123 180 213 270 330 416
#     4  10  20  39  62  95 130 164 206 293 346 398
#     4  10  24  46  68 100 134 192 228 286 346 420
#     4  12  23  38  61  98 130 171 217 284 323 401
#     4  12  23  42  63  90 130 171 218 264 334 408
#     4  10  22  39  70  95 130 172 236 274 338 410
#     4  12  22  37  66  95 127 162 221 269 356 390
#
# _framework density 21.478090999999999
#
# number of rings (size 3 to 8) (size 9 to 14) (size 15 to 20)
#    0.000    0.727    3.636    5.455    0.000    6.545 
#    0.000    1.818    0.000    0.000    0.000    0.000 
#    0.000    0.000    0.000    0.000    0.000    0.000 
#
# Total GULP energy -122611.529247 kJ/mol
# GULP energy per Si atom -5573.251329 kJ/mol
# Density = 2.142921 g / cm^3
# Si number density = 21.478091 Si / 1000 Ang^3
#
#
#
# Elastic Constant Matrix: (Units=GPa)
#
#
# Indices 1 2 3 4 5 6 
#
# 1 45.0114 0.8713 23.1445 0.0000 0.0000 0.0000
# 2 0.8713 104.9042 62.0740 0.0000 0.0000 0.0000
# 3 23.1445 62.0740 108.1142 0.0000 0.0000 0.0000
# 4 0.0000 0.0000 0.0000 35.0418 0.0000 0.0000
# 5 0.0000 0.0000 0.0000 0.0000 8.7284 0.0000
# 6 0.0000 0.0000 0.0000 0.0000 0.0000 73.2544
#
#
#
# Elastic Compliance Matrix: (Units=1/GPa)
#
#
# Indices 1 2 3 4 5 6 
#
# 1 0.026434 0.004739 -0.008380 0.000000 0.000000 0.000000
# 2 0.004739 0.015287 -0.009792 0.000000 0.000000 0.000000
# 3 -0.008380 -0.009792 0.016665 0.000000 0.000000 0.000000
# 4 0.000000 0.000000 0.000000 0.028537 0.000000 0.000000
# 5 0.000000 0.000000 0.000000 0.000000 0.114569 0.000000
# 6 0.000000 0.000000 0.000000 0.000000 0.000000 0.013651
#
#
# Mechanical properties :
#
#
# Convention : Reuss Voigt Hill
#
# Bulk Modulus (GPa) = 31.72470 47.80105 39.76287
# Shear Modulus (GPa) = 19.80084 34.86758 27.33421
#
# Velocity S-wave (km/s) = 3.03959 4.03352 3.57130
# Velocity P-wave (km/s) = 5.20784 6.63298 5.96314
#
# Compressibility (1/GPa) = 0.03152118
#
# Stress axis : x y z
#
# Youngs Moduli (GPa) = 37.83072 65.41501 60.00543
#
# Poissons Ratio (x) = -0.30999 0.50282
# Poissons Ratio (y) = -0.17927 0.58755
# Poissons Ratio (z) = 0.31700 0.64051
#
# Static dielectric constant tensor:
#      x y z
#    x 1.798320 0.000000 0.000000 
#    y 0.000000 1.793270 0.000000 
#    z 0.000000 0.000000 1.795770 
# 
# From -- ./inp_files/1323.got.cif
#   From: 2010.05.17/outbox.cif.g08.bks.cpg/sg40_1_cif.got.tgz:1323.got - 2010.06.03 18:35:42.
