data_PCOD9364567
_publ_section_title
;
Structure prediction by ZEFSAII (Michael W. Deem and Ramdas Pophale) SiO2 
 PCOD9364567
Probable space group: A M A 2
;
_chemical_formula_sum "Si O2"
_cell_formula_units_Z 40
_cell_length_a 28.021519
_cell_length_b 7.637827
_cell_length_c 5.876959
_cell_angle_alpha 90.000000
_cell_angle_beta 90.000000
_cell_angle_gamma 90.000000
_cell_volume 1257.807419
_symmetry_space_group_name_H-M "A M A 2"
_symmetry_group_IT_number 40
_symmetry_cell_setting 'orthorhombic'
loop_
_space_group_symop_operation_xyz
x,y,z
-x,-y,z
1/2-x,y,z
1/2+x,-y,z
x,1/2+y,1/2+z
-x,1/2-y,1/2+z
1/2-x,1/2+y,1/2+z
1/2+x,1/2-y,1/2+z
loop_
_atom_site_type_symbol
_atom_site_label
_atom_site_fract_x
_atom_site_fract_y
_atom_site_fract_z
Si Si1 0.146713 0.142989 0.763180
Si Si2 0.750000 0.347897 0.287655
Si Si3 0.049750 0.356392 0.257896
Si Si4 0.250000 0.767308 0.850861
Si Si5 0.648342 0.863878 0.254438
Si Si6 0.548786 0.137800 0.259038
O O1 0.148241 0.058147 0.511196
O O2 0.098037 0.252864 0.762768
O O3 0.198158 0.242292 0.781894
O O4 0.147024 0.042010 0.006563
O O5 0.750000 0.528166 0.425733
O O6 0.750000 0.398109 0.021141
O O7 0.098995 0.246880 0.254234
O O8 0.049259 0.448427 0.506476
O O9 0.000809 0.245039 0.258453
O O10 0.049226 0.450941 0.010533
O O11 0.301787 0.742798 0.741046
#
# Coordination Sequence:
#
# PCOD9364567 Si02
#       6
#     8   4   8   4   8   8
#     4   9  17  31  50  75 106 141 181 226 279 338
#     4  10  21  38  58  82 112 148 190 240 296 358
#     4   8  13  22  40  67  98 133 172 215 268 325
#     4  10  21  38  58  82 112 148 190 240 296 358
#     4   9  17  31  50  75 106 141 181 226 279 338
#     4   8  13  22  40  67  98 133 172 215 268 325
#
# _framework density 31.801371
#
# number of rings (size 3 to 8) (size 9 to 14) (size 15 to 20)
#    0.000    3.200    0.000    0.600    0.000    0.000 
#    0.000   16.000    0.000    1.200    0.000    0.000 
#    0.000   60.800    0.000    0.000    0.000    7.200 
#
# Total GULP energy -111459.582998 kJ/mol
# GULP energy per Si atom -5572.979150 kJ/mol
# Density = 3.172899 g / cm^3
# Si number density = 31.801371 Si / 1000 Ang^3
#
#
#
# Elastic Constant Matrix: (Units=GPa)
#
#
# Indices 1 2 3 4 5 6 
#
# 1 392.7477 79.1404 14.9356 0.0000 0.0000 0.0000
# 2 79.1404 64.5106 66.4293 0.0000 0.0000 0.0000
# 3 14.9356 66.4293 435.6445 0.0000 0.0000 0.0000
# 4 0.0000 0.0000 0.0000 33.7972 0.0000 0.0000
# 5 0.0000 0.0000 0.0000 0.0000 35.1746 0.0000
# 6 0.0000 0.0000 0.0000 0.0000 0.0000 83.9054
#
#
#
# Elastic Compliance Matrix: (Units=1/GPa)
#
#
# Indices 1 2 3 4 5 6 
#
# 1 0.003526 -0.004984 0.000639 0.000000 0.000000 0.000000
# 2 -0.004984 0.025433 -0.003707 0.000000 0.000000 0.000000
# 3 0.000639 -0.003707 0.002839 0.000000 0.000000 0.000000
# 4 0.000000 0.000000 0.000000 0.029588 0.000000 0.000000
# 5 0.000000 0.000000 0.000000 0.000000 0.028430 0.000000
# 6 0.000000 0.000000 0.000000 0.000000 0.000000 0.011918
#
#
# Mechanical properties :
#
#
# Convention : Reuss Voigt Hill
#
# Bulk Modulus (GPa) = 63.71937 134.87927 99.29932
# Shear Modulus (GPa) = 40.62745 79.40195 60.01470
#
# Velocity S-wave (km/s) = 3.57814 5.00223 4.34887
# Velocity P-wave (km/s) = 6.09516 8.71023 7.51729
#
# Compressibility (1/GPa) = 0.01569382
#
# Stress axis : x y z
#
# Youngs Moduli (GPa) = 283.59668 39.31895 352.25567
#
# Poissons Ratio (x) = 0.19596 -0.22512
# Poissons Ratio (y) = 1.41341 1.30592
# Poissons Ratio (z) = -0.18124 0.14577
#
# Static dielectric constant tensor:
#      x y z
#    x 2.379030 0.000000 0.000000 
#    y 0.000000 2.441240 0.000000 
#    z 0.000000 0.000000 2.476040 
# 
# From -- ./inp_files/2988.got.cif
#   From: 2010.05.17/outbox.cif.g08.bks.cpg/sg40_2_cif.got.tgz:2988.got - 2010.06.03 18:35:42.
