data_PCOD9364107
_publ_section_title
;
Structure prediction by ZEFSAII (Michael W. Deem and Ramdas Pophale) SiO2 
 PCOD9364107
Probable space group: A M A 2
;
_chemical_formula_sum "Si O2"
_cell_formula_units_Z 48
_cell_length_a 8.854022
_cell_length_b 20.764507
_cell_length_c 14.720872
_cell_angle_alpha 90.000000
_cell_angle_beta 90.000000
_cell_angle_gamma 90.000000
_cell_volume 2706.423511
_symmetry_space_group_name_H-M "A M A 2"
_symmetry_group_IT_number 40
_symmetry_cell_setting 'orthorhombic'
loop_
_space_group_symop_operation_xyz
x,y,z
-x,-y,z
1/2-x,y,z
1/2+x,-y,z
x,1/2+y,1/2+z
-x,1/2-y,1/2+z
1/2-x,1/2+y,1/2+z
1/2+x,1/2-y,1/2+z
loop_
_atom_site_type_symbol
_atom_site_label
_atom_site_fract_x
_atom_site_fract_y
_atom_site_fract_z
Si Si1 0.931105 0.879460 0.978570
Si Si2 0.068834 0.772939 0.491617
Si Si3 0.430540 0.068987 0.177900
Si Si4 0.931502 0.185494 0.290009
Si Si5 0.570060 0.069288 0.793109
Si Si6 0.569347 0.815086 0.679220
O O1 0.750000 0.885856 0.964299
O O2 0.015600 0.910698 0.893952
O O3 0.965076 0.803342 0.985101
O O4 0.971656 0.912137 0.074143
O O5 0.250000 0.778646 0.504794
O O6 0.028840 0.805017 0.395508
O O7 0.984392 0.803609 0.576684
O O8 0.250000 0.066405 0.183008
O O9 0.491164 0.124892 0.243123
O O10 0.500000 0.000000 0.200653
O O11 0.750000 0.178519 0.283857
O O12 0.972145 0.250847 0.236176
O O13 0.750000 0.066277 0.789969
O O14 0.508646 0.123816 0.725299
O O15 0.500000 0.000000 0.770963
O O16 0.750000 0.822462 0.684250
#
# Coordination Sequence:
#
# PCOD9364107 Si02
#       6
#     8   8   8   8   8   8
#     4  10  20  37  60  90 125 157 193 246 300 355
#     4  10  20  38  61  90 123 155 196 246 294 348
#     4  11  23  38  59  86 122 159 199 244 295 354
#     4  10  21  38  61  86 120 158 197 243 292 347
#     4  12  25  40  61  88 122 162 202 247 302 361
#     4  11  22  39  62  90 122 157 199 246 295 355
#
# _framework density 17.735582999999998
#
# number of rings (size 3 to 8) (size 9 to 14) (size 15 to 20)
#    0.000    1.333    3.333    3.000    0.000    4.667 
#    0.000    0.833    0.000    4.000    0.000    0.000 
#    0.000    0.000    0.000    0.000    0.000    0.000 
#
# Total GULP energy -134178.026827 kJ/mol
# GULP energy per Si atom -5590.751118 kJ/mol
# Density = 1.769522 g / cm^3
# Si number density = 17.735583 Si / 1000 Ang^3
#
#
#
# Elastic Constant Matrix: (Units=GPa)
#
#
# Indices 1 2 3 4 5 6 
#
# 1 68.3219 73.7824 61.5768 0.0000 0.0000 0.0000
# 2 73.7824 171.4560 85.0905 0.0000 0.0000 0.0000
# 3 61.5768 85.0905 137.1291 0.0000 0.0000 0.0000
# 4 0.0000 0.0000 0.0000 15.9791 0.0000 0.0000
# 5 0.0000 0.0000 0.0000 0.0000 30.1685 0.0000
# 6 0.0000 0.0000 0.0000 0.0000 0.0000 26.0279
#
#
#
# Elastic Compliance Matrix: (Units=1/GPa)
#
#
# Indices 1 2 3 4 5 6 
#
# 1 0.033326 -0.009991 -0.008765 0.000000 0.000000 0.000000
# 2 -0.009991 0.011423 -0.002602 0.000000 0.000000 0.000000
# 3 -0.008765 -0.002602 0.012843 0.000000 0.000000 0.000000
# 4 0.000000 0.000000 0.000000 0.062582 0.000000 0.000000
# 5 0.000000 0.000000 0.000000 0.000000 0.033147 0.000000
# 6 0.000000 0.000000 0.000000 0.000000 0.000000 0.038420
#
#
# Mechanical properties :
#
#
# Convention : Reuss Voigt Hill
#
# Bulk Modulus (GPa) = 67.22333 90.86738 79.04535
# Shear Modulus (GPa) = 20.88415 24.86557 22.87486
#
# Velocity S-wave (km/s) = 3.43524 3.74841 3.59524
# Velocity P-wave (km/s) = 7.32938 8.37137 7.86765
#
# Compressibility (1/GPa) = 0.01487579
#
# Stress axis : x y z
#
# Youngs Moduli (GPa) = 30.00649 87.54204 77.86510
#
# Poissons Ratio (x) = 0.87465 0.68250
# Poissons Ratio (y) = 0.29980 0.20258
# Poissons Ratio (z) = 0.26301 0.22776
#
# Static dielectric constant tensor:
#      x y z
#    x 1.592380 0.000000 0.000000 
#    y 0.000000 1.577080 0.000000 
#    z 0.000000 0.000000 1.581200 
# 
# From -- ./inp_files/15025.got.cif
#   From: 2010.05.17/outbox.cif.g08.bks.cpg/sg40_8_cif.got.tgz:15025.got - 2010.06.03 18:35:42.
