data_PCOD9364133
_publ_section_title
;
Structure prediction by ZEFSAII (Michael W. Deem and Ramdas Pophale) SiO2 
 PCOD9364133
Probable space group: A M A 2
;
_chemical_formula_sum "Si O2"
_cell_formula_units_Z 56
_cell_length_a 21.931495
_cell_length_b 20.164609
_cell_length_c 6.797427
_cell_angle_alpha 90.000000
_cell_angle_beta 90.000000
_cell_angle_gamma 90.000000
_cell_volume 3006.094262
_symmetry_space_group_name_H-M "A M A 2"
_symmetry_group_IT_number 40
_symmetry_cell_setting 'orthorhombic'
loop_
_space_group_symop_operation_xyz
x,y,z
-x,-y,z
1/2-x,y,z
1/2+x,-y,z
x,1/2+y,1/2+z
-x,1/2-y,1/2+z
1/2-x,1/2+y,1/2+z
1/2+x,1/2-y,1/2+z
loop_
_atom_site_type_symbol
_atom_site_label
_atom_site_fract_x
_atom_site_fract_y
_atom_site_fract_z
Si Si1 0.035388 0.605175 0.623940
Si Si2 0.017698 0.838183 0.512977
Si Si3 0.628996 0.625712 0.265896
Si Si4 0.815275 0.597897 0.865723
Si Si5 0.922167 0.284037 0.314823
Si Si6 0.680092 0.224225 0.077688
Si Si7 0.906337 0.036982 0.090312
O O1 0.064687 0.662848 0.488896
O O2 0.074612 0.538975 0.592805
O O3 0.024101 0.625012 0.851796
O O4 0.966484 0.582969 0.568961
O O5 0.063086 0.876940 0.658394
O O6 0.062549 0.788192 0.399965
O O7 0.972700 0.797561 0.650640
O O8 0.642424 0.692496 0.393234
O O9 0.634726 0.563206 0.411617
O O10 0.676122 0.619880 0.088820
O O11 0.750000 0.563726 0.839189
O O12 0.815684 0.662476 0.727844
O O13 0.871280 0.554042 0.790578
O O14 0.858124 0.279433 0.198276
O O15 0.750000 0.242741 0.024636
#
# Coordination Sequence:
#
# PCOD9364133 Si02
#       7
#     8   8   8   8   8   8   8
#     4  11  23  38  57  87 119 156 195 245 302 358
#     4  12  21  35  61  89 119 151 193 247 303 359
#     4  11  19  37  62  90 118 156 197 247 305 352
#     4  10  20  37  62  88 116 156 201 247 296 351
#     4  12  22  36  59  88 121 156 192 243 306 357
#     4  10  22  37  57  90 125 157 202 251 293 355
#     4  10  22  40  56  85 123 151 196 249 298 355
#
# _framework density 18.628824000000002
#
# number of rings (size 3 to 8) (size 9 to 14) (size 15 to 20)
#    0.000    1.143    5.714    2.143    0.000    1.714 
#    0.000    0.714    0.000    2.571    0.000    0.000 
#    0.000    0.000    0.000    0.000    0.000    0.000 
#
# Total GULP energy -156010.839972 kJ/mol
# GULP energy per Si atom -5571.815713 kJ/mol
# Density = 1.858642 g / cm^3
# Si number density = 18.628824 Si / 1000 Ang^3
#
#
#
# Elastic Constant Matrix: (Units=GPa)
#
#
# Indices 1 2 3 4 5 6 
#
# 1 88.9123 21.3473 27.0211 0.0000 0.0000 0.0000
# 2 21.3473 51.4291 28.9291 0.0000 0.0000 0.0000
# 3 27.0211 28.9291 113.7931 0.0000 0.0000 0.0000
# 4 0.0000 0.0000 0.0000 16.1384 0.0000 0.0000
# 5 0.0000 0.0000 0.0000 0.0000 18.5414 0.0000
# 6 0.0000 0.0000 0.0000 0.0000 0.0000 17.7893
#
#
#
# Elastic Compliance Matrix: (Units=1/GPa)
#
#
# Indices 1 2 3 4 5 6 
#
# 1 0.012863 -0.004225 -0.001980 0.000000 0.000000 0.000000
# 2 -0.004225 0.024077 -0.005118 0.000000 0.000000 0.000000
# 3 -0.001980 -0.005118 0.010559 0.000000 0.000000 0.000000
# 4 0.000000 0.000000 0.000000 0.061964 0.000000 0.000000
# 5 0.000000 0.000000 0.000000 0.000000 0.053933 0.000000
# 6 0.000000 0.000000 0.000000 0.000000 0.000000 0.056213
#
#
# Mechanical properties :
#
#
# Convention : Reuss Voigt Hill
#
# Bulk Modulus (GPa) = 40.23706 45.41440 42.82573
# Shear Modulus (GPa) = 19.95682 22.28296 21.11989
#
# Velocity S-wave (km/s) = 3.27660 3.46230 3.37073
# Velocity P-wave (km/s) = 5.99676 6.35727 6.17964
#
# Compressibility (1/GPa) = 0.02485271
#
# Stress axis : x y z
#
# Youngs Moduli (GPa) = 77.74013 41.53371 94.70473
#
# Poissons Ratio (x) = 0.17550 0.18754
# Poissons Ratio (y) = 0.32849 0.48466
# Poissons Ratio (z) = 0.15395 0.21255
#
# Static dielectric constant tensor:
#      x y z
#    x 1.696270 0.000000 0.000000 
#    y 0.000000 1.636720 0.000000 
#    z 0.000000 0.000000 1.698940 
# 
# From -- ./inp_files/2790.got.cif
#   From: 2010.05.17/outbox.cif.g08.bks.cpg/sg40_2_cif.got.tgz:2790.got - 2010.06.03 18:35:42.
