data_PCOD9364022
_publ_section_title
;
Structure prediction by ZEFSAII (Michael W. Deem and Ramdas Pophale) SiO2 
 PCOD9364022
Probable space group: A M A 2
;
_chemical_formula_sum "Si O2"
_cell_formula_units_Z 64
_cell_length_a 8.488901
_cell_length_b 33.252733
_cell_length_c 12.056022
_cell_angle_alpha 90.000000
_cell_angle_beta 90.000000
_cell_angle_gamma 90.000000
_cell_volume 3403.163744
_symmetry_space_group_name_H-M "A M A 2"
_symmetry_group_IT_number 40
_symmetry_cell_setting 'orthorhombic'
loop_
_space_group_symop_operation_xyz
x,y,z
-x,-y,z
1/2-x,y,z
1/2+x,-y,z
x,1/2+y,1/2+z
-x,1/2-y,1/2+z
1/2-x,1/2+y,1/2+z
1/2+x,1/2-y,1/2+z
loop_
_atom_site_type_symbol
_atom_site_label
_atom_site_fract_x
_atom_site_fract_y
_atom_site_fract_z
Si Si1 0.059007 0.045162 0.667630
Si Si2 0.060797 0.376415 0.535269
Si Si3 0.426573 0.686972 0.102527
Si Si4 0.064162 0.814208 0.844644
Si Si5 0.559824 0.849909 0.274368
Si Si6 0.070021 0.601915 0.977426
Si Si7 0.566796 0.728279 0.900703
Si Si8 0.439435 0.545641 0.418605
O O1 0.250000 0.046910 0.665565
O O2 0.996099 0.070928 0.564178
O O3 0.012026 0.058197 0.792373
O O4 0.000000 0.000000 0.655486
O O5 0.250000 0.375483 0.542210
O O6 0.009850 0.346125 0.436797
O O7 0.990990 0.360635 0.650799
O O8 0.005380 0.421160 0.502536
O O9 0.250000 0.704229 0.097414
O O10 0.478611 0.681127 0.227652
O O11 0.422957 0.643682 0.044237
O O12 0.539853 0.713761 0.026929
O O13 0.250000 0.819911 0.828452
O O14 0.029162 0.768921 0.883028
O O15 0.750000 0.848014 0.282799
O O16 0.501115 0.884974 0.359115
O O17 0.493290 0.807677 0.320748
O O18 0.250000 0.588132 0.956020
O O19 0.750000 0.735672 0.879111
O O20 0.500000 0.500000 0.436782
O O21 0.250000 0.545265 0.423929
#
# Coordination Sequence:
#
# PCOD9364022 Si02
#       8
#     8   8   8   8   8   8   8   8
#     4   9  17  31  53  83 115 144 180 226 283 344
#     4  11  24  40  59  86 119 155 202 251 298 358
#     4  10  20  37  59  82 108 141 186 235 287 343
#     4  11  24  39  57  83 115 150 192 242 294 351
#     4  10  21  39  61  82 112 154 200 245 296 354
#     4   8  16  33  56  79 106 143 182 226 277 339
#     4  11  23  39  59  83 114 151 191 238 295 353
#     4  10  20  36  60  88 120 156 194 241 300 360
#
# _framework density 18.806031000000001
#
# number of rings (size 3 to 8) (size 9 to 14) (size 15 to 20)
#    0.000    2.000    0.000    4.500    1.750    3.500 
#    0.000    4.375    0.000    1.500    0.000    0.000 
#    0.000    0.000    0.000    0.000    0.000    0.000 
#
# Total GULP energy -178562.665810 kJ/mol
# GULP energy per Si atom -5580.083307 kJ/mol
# Density = 1.876323 g / cm^3
# Si number density = 18.806031 Si / 1000 Ang^3
#
#
#
# Elastic Constant Matrix: (Units=GPa)
#
#
# Indices 1 2 3 4 5 6 
#
# 1 29.7887 -1.0657 7.2274 0.0000 0.0000 0.0000
# 2 -1.0657 57.7822 39.0231 0.0000 0.0000 0.0000
# 3 7.2274 39.0231 121.9706 0.0000 0.0000 0.0000
# 4 0.0000 0.0000 0.0000 17.2773 0.0000 0.0000
# 5 0.0000 0.0000 0.0000 0.0000 25.2993 0.0000
# 6 0.0000 0.0000 0.0000 0.0000 0.0000 24.9454
#
#
#
# Elastic Compliance Matrix: (Units=1/GPa)
#
#
# Indices 1 2 3 4 5 6 
#
# 1 0.034354 0.002562 -0.002855 0.000000 0.000000 0.000000
# 2 0.002562 0.022267 -0.007276 0.000000 0.000000 0.000000
# 3 -0.002855 -0.007276 0.010696 0.000000 0.000000 0.000000
# 4 0.000000 0.000000 0.000000 0.057880 0.000000 0.000000
# 5 0.000000 0.000000 0.000000 0.000000 0.039527 0.000000
# 6 0.000000 0.000000 0.000000 0.000000 0.000000 0.040088
#
#
# Mechanical properties :
#
#
# Convention : Reuss Voigt Hill
#
# Bulk Modulus (GPa) = 19.16491 33.32345 26.24418
# Shear Modulus (GPa) = 21.06654 24.46149 22.76401
#
# Velocity S-wave (km/s) = 3.35057 3.61047 3.48295
# Velocity P-wave (km/s) = 5.01811 5.92779 5.49182
#
# Compressibility (1/GPa) = 0.05217869
#
# Stress axis : x y z
#
# Youngs Moduli (GPa) = 29.10847 44.90855 93.49482
#
# Poissons Ratio (x) = -0.11506 0.26696
# Poissons Ratio (y) = -0.07458 0.68027
# Poissons Ratio (z) = 0.08312 0.32676
#
# Static dielectric constant tensor:
#      x y z
#    x 1.643530 0.000000 0.000000 
#    y 0.000000 1.633130 0.000000 
#    z 0.000000 0.000000 1.663390 
# 
# From -- ./inp_files/10569.got.cif
#   From: 2010.05.17/outbox.cif.g08.bks.cpg/sg40_6_cif.got.tgz:10569.got - 2010.06.03 18:35:42.
