data_PCOD9364604
_publ_section_title
;
Structure prediction by ZEFSAII (Michael W. Deem and Ramdas Pophale) SiO2 
 PCOD9364604
Probable space group: A M A 2
;
_chemical_formula_sum "Si O2"
_cell_formula_units_Z 64
_cell_length_a 15.280573
_cell_length_b 16.909866
_cell_length_c 12.013411
_cell_angle_alpha 90.000000
_cell_angle_beta 90.000000
_cell_angle_gamma 90.000000
_cell_volume 3104.174603
_symmetry_space_group_name_H-M "A M A 2"
_symmetry_group_IT_number 40
_symmetry_cell_setting 'orthorhombic'
loop_
_space_group_symop_operation_xyz
x,y,z
-x,-y,z
1/2-x,y,z
1/2+x,-y,z
x,1/2+y,1/2+z
-x,1/2-y,1/2+z
1/2-x,1/2+y,1/2+z
1/2+x,1/2-y,1/2+z
loop_
_atom_site_type_symbol
_atom_site_label
_atom_site_fract_x
_atom_site_fract_y
_atom_site_fract_z
Si Si1 0.854162 0.803045 0.357560
Si Si2 0.412546 0.600914 0.044124
Si Si3 0.144488 0.635062 0.528284
Si Si4 0.886914 0.072187 0.496249
Si Si5 0.647404 0.707422 0.160237
Si Si6 0.473282 0.584280 0.710185
Si Si7 0.847481 0.155865 0.262531
Si Si8 0.648607 0.845497 0.772678
O O1 0.750000 0.813417 0.348732
O O2 0.877468 0.819642 0.484869
O O3 0.883224 0.725860 0.286471
O O4 0.907528 0.870821 0.292620
O O5 0.509119 0.585152 0.999181
O O6 0.362839 0.519758 0.011193
O O7 0.409011 0.616669 0.175514
O O8 0.250000 0.625606 0.546230
O O9 0.116490 0.722021 0.577167
O O10 0.084033 0.576403 0.598747
O O11 0.127980 0.628520 0.397800
O O12 0.862251 0.123103 0.604693
O O13 0.852163 0.113151 0.383830
O O14 0.750000 0.720788 0.165027
O O15 0.500000 0.500000 0.757223
O O16 0.565901 0.628558 0.697257
O O17 0.750000 0.138600 0.215695
O O18 0.855591 0.250187 0.275013
O O19 0.750000 0.866464 0.747730
#
# Coordination Sequence:
#
# PCOD9364604 Si02
#       8
#     8   8   8   8   8   8   8   8
#     4  10  21  38  61  92 126 162 203 257 310 364
#     4  11  24  37  59  95 133 162 203 261 319 365
#     4   9  19  39  64  87 112 158 213 252 294 371
#     4  11  22  38  58  94 126 165 213 251 305 378
#     4   9  18  35  62  88 111 153 212 252 293 362
#     4  11  22  37  59  93 123 155 201 250 310 367
#     4  11  23  38  62  91 124 162 207 254 303 372
#     4  10  22  40  61  87 119 164 212 249 305 376
#
# _framework density 20.617395999999999
#
# number of rings (size 3 to 8) (size 9 to 14) (size 15 to 20)
#    0.000    1.750    2.500    2.625    3.500    4.000 
#    2.250    0.000    0.000    0.000    0.000    0.000 
#    0.000    0.000    0.000    0.000    0.000    0.000 
#
# Total GULP energy -178347.804292 kJ/mol
# GULP energy per Si atom -5573.368884 kJ/mol
# Density = 2.057047 g / cm^3
# Si number density = 20.617396 Si / 1000 Ang^3
#
#
#
# Elastic Constant Matrix: (Units=GPa)
#
#
# Indices 1 2 3 4 5 6 
#
# 1 79.6375 -14.6506 29.5572 0.0000 0.0000 0.0000
# 2 -14.6506 20.6952 13.8715 0.0000 0.0000 0.0000
# 3 29.5572 13.8715 98.7906 0.0000 0.0000 0.0000
# 4 0.0000 0.0000 0.0000 23.5770 0.0000 0.0000
# 5 0.0000 0.0000 0.0000 0.0000 11.1685 0.0000
# 6 0.0000 0.0000 0.0000 0.0000 0.0000 24.2916
#
#
#
# Elastic Compliance Matrix: (Units=1/GPa)
#
#
# Indices 1 2 3 4 5 6 
#
# 1 0.019253 0.019308 -0.008471 0.000000 0.000000 0.000000
# 2 0.019308 0.072703 -0.015985 0.000000 0.000000 0.000000
# 3 -0.008471 -0.015985 0.014902 0.000000 0.000000 0.000000
# 4 0.000000 0.000000 0.000000 0.042414 0.000000 0.000000
# 5 0.000000 0.000000 0.000000 0.000000 0.089538 0.000000
# 6 0.000000 0.000000 0.000000 0.000000 0.000000 0.041167
#
#
# Mechanical properties :
#
#
# Convention : Reuss Voigt Hill
#
# Bulk Modulus (GPa) = 10.35624 28.51994 19.43809
# Shear Modulus (GPa) = 15.50577 23.16375 19.33476
#
# Velocity S-wave (km/s) = 2.74537 3.35551 3.06566
# Velocity P-wave (km/s) = 3.88373 5.37360 4.68823
#
# Compressibility (1/GPa) = 0.09656010
#
# Stress axis : x y z
#
# Youngs Moduli (GPa) = 51.93992 13.75456 67.10727
#
# Poissons Ratio (x) = -0.26557 0.56849
# Poissons Ratio (y) = -1.00284 1.07272
# Poissons Ratio (z) = 0.44000 0.21987
#
# Static dielectric constant tensor:
#      x y z
#    x 1.795720 0.000000 0.000000 
#    y 0.000000 1.791010 0.000000 
#    z 0.000000 0.000000 1.783940 
# 
# From -- ./inp_files/12445.got.cif
#   From: 2010.05.17/outbox.cif.g08.bks.cpg/sg40_7_cif.got.tgz:12445.got - 2010.06.03 18:35:42.
