data_PCOD9364951
_publ_section_title
;
Structure prediction by ZEFSAII (Michael W. Deem and Ramdas Pophale) SiO2 
 PCOD9364951
Probable space group: A M A 2
;
_chemical_formula_sum "Si O2"
_cell_formula_units_Z 40
_cell_length_a 13.686353
_cell_length_b 10.276690
_cell_length_c 10.862698
_cell_angle_alpha 90.000000
_cell_angle_beta 90.000000
_cell_angle_gamma 90.000000
_cell_volume 1527.842895
_symmetry_space_group_name_H-M "A M A 2"
_symmetry_group_IT_number 40
_symmetry_cell_setting 'orthorhombic'
loop_
_space_group_symop_operation_xyz
x,y,z
-x,-y,z
1/2-x,y,z
1/2+x,-y,z
x,1/2+y,1/2+z
-x,1/2-y,1/2+z
1/2-x,1/2+y,1/2+z
1/2+x,1/2-y,1/2+z
loop_
_atom_site_type_symbol
_atom_site_label
_atom_site_fract_x
_atom_site_fract_y
_atom_site_fract_z
Si Si1 0.358570 0.686044 0.727450
Si Si2 0.390917 0.469413 0.340300
Si Si3 0.453259 0.132847 0.472968
Si Si4 0.852089 0.733019 0.854015
Si Si5 0.571889 0.639386 0.614397
O O1 0.250000 0.655115 0.678924
O O2 0.361074 0.842242 0.760057
O O3 0.378086 0.625298 0.861831
O O4 0.455096 0.634523 0.651977
O O5 0.500000 0.500000 0.303042
O O6 0.345232 0.612251 0.329463
O O7 0.394458 0.428324 0.486936
O O8 0.546639 0.216422 0.426255
O O9 0.408780 0.209658 0.583627
O O10 0.500000 0.000000 0.509075
O O11 0.750000 0.696099 0.917785
O O12 0.867289 0.633191 0.739627
#
# Coordination Sequence:
#
# PCOD9364951 Si02
#       5
#     8   8   8   8   8
#     4  10  22  41  65  96 130 173 229 283 335 407
#     4  11  20  44  68  96 137 183 223 285 348 405
#     4  10  23  42  64  88 134 176 213 273 345 404
#     4  11  24  43  68 100 134 175 233 283 339 413
#     4  10  22  39  70  94 132 175 225 272 348 401
#
# _framework density 26.180700999999999
#
# number of rings (size 3 to 8) (size 9 to 14) (size 15 to 20)
#    0.000    1.600    6.000    0.600    2.800    8.800 
#    0.000    0.000    0.000    0.000    0.000    0.000 
#    0.000    0.000    0.000    0.000    0.000    0.000 
#
# Total GULP energy -111569.984336 kJ/mol
# GULP energy per Si atom -5578.499217 kJ/mol
# Density = 2.612111 g / cm^3
# Si number density = 26.180701 Si / 1000 Ang^3
#
#
#
# Elastic Constant Matrix: (Units=GPa)
#
#
# Indices 1 2 3 4 5 6 
#
# 1 137.2701 34.7776 42.6151 0.0000 0.0000 0.0000
# 2 34.7776 84.2883 -8.3802 0.0000 0.0000 0.0000
# 3 42.6151 -8.3802 79.1539 0.0000 0.0000 0.0000
# 4 0.0000 0.0000 0.0000 54.1892 0.0000 0.0000
# 5 0.0000 0.0000 0.0000 0.0000 -15.1116 0.0000
# 6 0.0000 0.0000 0.0000 0.0000 0.0000 -19.9373
#
#
#
# Elastic Compliance Matrix: (Units=1/GPa)
#
#
# Indices 1 2 3 4 5 6 
#
# 1 0.010436 -0.004917 -0.006139 0.000000 0.000000 0.000000
# 2 -0.004917 0.014306 0.004162 0.000000 0.000000 0.000000
# 3 -0.006139 0.004162 0.016380 0.000000 0.000000 0.000000
# 4 0.000000 0.000000 0.000000 0.018454 0.000000 0.000000
# 5 0.000000 0.000000 0.000000 0.000000 -0.066174 0.000000
# 6 0.000000 0.000000 0.000000 0.000000 0.000000 -0.050157
#
#
# Mechanical properties :
#
#
# Convention : Reuss Voigt Hill
#
# Bulk Modulus (GPa) = 36.58460 48.74859 42.66660
# Shear Modulus (GPa) = -147.68685 19.27470 -64.20607
#
# Velocity S-wave (km/s) = -7.51885 2.71628 -4.95756
# Velocity P-wave (km/s) = 7.83410 5.33835 4.05433
#
# Compressibility (1/GPa) = 0.02733390
#
# Stress axis : x y z
#
# Youngs Moduli (GPa) = 95.81797 69.89891 61.05184
#
# Poissons Ratio (x) = 0.34366 0.37482
# Poissons Ratio (y) = 0.47109 -0.25407
# Poissons Ratio (z) = 0.58826 -0.29089
#
# Static dielectric constant tensor:
#      x y z
#    x 1.930610 0.000000 0.000000 
#    y 0.000000 2.205930 0.000000 
#    z 0.000000 0.000000 2.040690 
# 
# From -- ./inp_files/11937.got.cif
#   From: 2010.05.17/outbox.cif.g08.bks.cpg/sg40_6_cif.got.tgz:11937.got - 2010.06.03 18:35:42.
