data_PCOD9364838
_publ_section_title
;
Structure prediction by ZEFSAII (Michael W. Deem and Ramdas Pophale) SiO2 
 PCOD9364838
Probable space group: A M A 2
;
_chemical_formula_sum "Si O2"
_cell_formula_units_Z 60
_cell_length_a 18.645601
_cell_length_b 5.442889
_cell_length_c 28.040602
_cell_angle_alpha 90.000000
_cell_angle_beta 90.000000
_cell_angle_gamma 90.000000
_cell_volume 2845.726756
_symmetry_space_group_name_H-M "A M A 2"
_symmetry_group_IT_number 40
_symmetry_cell_setting 'orthorhombic'
loop_
_space_group_symop_operation_xyz
x,y,z
-x,-y,z
1/2-x,y,z
1/2+x,-y,z
x,1/2+y,1/2+z
-x,1/2-y,1/2+z
1/2-x,1/2+y,1/2+z
1/2+x,1/2-y,1/2+z
loop_
_atom_site_type_symbol
_atom_site_label
_atom_site_fract_x
_atom_site_fract_y
_atom_site_fract_z
Si Si1 0.165267 0.172631 0.713430
Si Si2 0.500000 0.000000 0.401769
Si Si3 0.452854 0.248342 0.080783
Si Si4 0.837915 0.321980 0.662211
Si Si5 0.168891 0.954381 0.305737
Si Si6 0.070224 0.675652 0.470341
Si Si7 0.668760 0.892862 0.889035
Si Si8 0.942138 0.664839 0.322424
O O1 0.250000 0.169007 0.704161
O O2 0.139849 0.414220 0.684559
O O3 0.158061 0.227477 0.769464
O O4 0.140731 0.906356 0.696434
O O5 0.439787 0.921972 0.438995
O O6 0.510272 0.781303 0.364971
O O7 0.500000 0.500000 0.087485
O O8 0.383584 0.230272 0.114712
O O9 0.500000 0.000000 0.088581
O O10 0.426897 0.236311 0.025705
O O11 0.750000 0.322949 0.656020
O O12 0.250000 0.051411 0.295250
O O13 0.167293 0.871040 0.361001
O O14 0.101795 0.127914 0.295213
O O15 0.138281 0.571267 0.442168
O O16 0.000000 0.500000 0.463687
O O17 0.750000 0.976311 0.887090
O O18 0.619627 0.041612 0.853254
O O19 0.000000 0.500000 0.294952
#
# Coordination Sequence:
#
# PCOD9364838 Si02
#       8
#     8   4   8   8   8   8   8   8
#     4   9  20  39  66  92 122 165 209 258 321 387
#     4  12  18  38  60  76 116 166 214 238 292 372
#     4  11  24  40  69  95 127 167 210 262 332 389
#     4  10  21  42  69  94 123 163 213 268 322 387
#     4  10  22  37  58  90 123 162 210 259 315 377
#     4  11  21  39  61  85 117 168 208 245 307 390
#     4  11  22  36  58  89 125 158 205 265 310 355
#     4  12  21  35  59  83 120 172 212 252 303 372
#
# _framework density 21.084246
#
# number of rings (size 3 to 8) (size 9 to 14) (size 15 to 20)
#    0.000    1.333    4.667    1.200    1.867    0.533 
#    0.000    0.667    7.333    0.800    0.000    0.000 
#    0.000    0.000    0.000    0.000    0.000    0.000 
#
# Total GULP energy -167153.510438 kJ/mol
# GULP energy per Si atom -5571.783681 kJ/mol
# Density = 2.103626 g / cm^3
# Si number density = 21.084246 Si / 1000 Ang^3
#
#
#
# Elastic Constant Matrix: (Units=GPa)
#
#
# Indices 1 2 3 4 5 6 
#
# 1 79.8726 18.3398 35.4362 0.0000 0.0000 0.0000
# 2 18.3398 83.9245 24.1388 0.0000 0.0000 0.0000
# 3 35.4362 24.1388 105.1432 0.0000 0.0000 0.0000
# 4 0.0000 0.0000 0.0000 35.3718 0.0000 0.0000
# 5 0.0000 0.0000 0.0000 0.0000 35.0430 0.0000
# 6 0.0000 0.0000 0.0000 0.0000 0.0000 23.7902
#
#
#
# Elastic Compliance Matrix: (Units=1/GPa)
#
#
# Indices 1 2 3 4 5 6 
#
# 1 0.015015 -0.001955 -0.004612 0.000000 0.000000 0.000000
# 2 -0.001955 0.013012 -0.002329 0.000000 0.000000 0.000000
# 3 -0.004612 -0.002329 0.011600 0.000000 0.000000 0.000000
# 4 0.000000 0.000000 0.000000 0.028271 0.000000 0.000000
# 5 0.000000 0.000000 0.000000 0.000000 0.028536 0.000000
# 6 0.000000 0.000000 0.000000 0.000000 0.000000 0.042034
#
#
# Mechanical properties :
#
#
# Convention : Reuss Voigt Hill
#
# Bulk Modulus (GPa) = 45.79390 47.19663 46.49527
# Shear Modulus (GPa) = 30.57408 31.57605 31.07507
#
# Velocity S-wave (km/s) = 3.81214 3.87410 3.84324
# Velocity P-wave (km/s) = 6.41429 6.51498 6.46483
#
# Compressibility (1/GPa) = 0.02183697
#
# Stress axis : x y z
#
# Youngs Moduli (GPa) = 66.60108 76.84979 86.20920
#
# Poissons Ratio (x) = 0.15022 0.39757
# Poissons Ratio (y) = 0.13019 0.20075
# Poissons Ratio (z) = 0.30714 0.17895
#
# Static dielectric constant tensor:
#      x y z
#    x 1.807590 0.000000 0.000000 
#    y 0.000000 1.889360 0.000000 
#    z 0.000000 0.000000 1.745210 
# 
# From -- ./inp_files/25816.got.cif
#   From: 2010.05.17/outbox.cif.g08.bks.cpg/sg40_13_cif.got.tgz:25816.got - 2010.06.03 18:35:42.
