data_PCOD9364991
_publ_section_title
;
Structure prediction by ZEFSAII (Michael W. Deem and Ramdas Pophale) SiO2 
 PCOD9364991
Probable space group: A M A 2
;
_chemical_formula_sum "Si O2"
_cell_formula_units_Z 40
_cell_length_a 23.809481
_cell_length_b 13.603740
_cell_length_c 5.039832
_cell_angle_alpha 90.000000
_cell_angle_beta 90.000000
_cell_angle_gamma 90.000000
_cell_volume 1632.391450
_symmetry_space_group_name_H-M "A M A 2"
_symmetry_group_IT_number 40
_symmetry_cell_setting 'orthorhombic'
loop_
_space_group_symop_operation_xyz
x,y,z
-x,-y,z
1/2-x,y,z
1/2+x,-y,z
x,1/2+y,1/2+z
-x,1/2-y,1/2+z
1/2-x,1/2+y,1/2+z
1/2+x,1/2-y,1/2+z
loop_
_atom_site_type_symbol
_atom_site_label
_atom_site_fract_x
_atom_site_fract_y
_atom_site_fract_z
Si Si1 0.373624 0.031381 0.794900
Si Si2 0.629932 0.758526 0.515821
Si Si3 0.750000 0.302961 0.885208
Si Si4 0.478110 0.200472 0.198634
Si Si5 0.750000 0.445981 0.385641
Si Si6 0.075375 0.433338 0.778140
O O1 0.400231 0.969334 0.555811
O O2 0.370684 0.144231 0.700047
O O3 0.309550 0.999601 0.861249
O O4 0.411230 0.013428 0.052763
O O5 0.691715 0.745104 0.393718
O O6 0.585420 0.783172 0.284808
O O7 0.609014 0.663187 0.672932
O O8 0.750000 0.381739 0.650629
O O9 0.750000 0.368331 0.148270
O O10 0.509133 0.281433 0.390379
O O11 0.511258 0.103517 0.290723
#
# Coordination Sequence:
#
# PCOD9364991 Si02
#       6
#     8   8   4   8   4   8
#     4  11  24  42  67  95 129 170 217 265 321 385
#     4  10  24  45  67  94 134 168 211 275 317 377
#     4  10  22  40  68  94 121 174 217 250 330 388
#     4  10  22  42  67  95 133 170 210 271 324 374
#     4  10  22  42  62  94 135 164 211 278 318 368
#     4  11  24  42  66  99 127 170 221 258 324 392
#
# _framework density 24.503927999999998
#
# number of rings (size 3 to 8) (size 9 to 14) (size 15 to 20)
#    0.000    1.600    0.000    4.800    0.000   16.800 
#    0.000    8.000    0.000    1.200    0.000    0.000 
#    0.000    0.000    0.000    0.000    0.000    0.000 
#
# Total GULP energy -112038.898750 kJ/mol
# GULP energy per Si atom -5601.944938 kJ/mol
# Density = 2.444816 g / cm^3
# Si number density = 24.503928 Si / 1000 Ang^3
#
#
#
# Elastic Constant Matrix: (Units=GPa)
#
#
# Indices 1 2 3 4 5 6 
#
# 1 206.5908 18.3426 39.8047 0.0000 0.0000 0.0000
# 2 18.3426 96.1952 7.6985 0.0000 0.0000 0.0000
# 3 39.8047 7.6985 140.9717 0.0000 0.0000 0.0000
# 4 0.0000 0.0000 0.0000 41.5848 0.0000 0.0000
# 5 0.0000 0.0000 0.0000 0.0000 36.4495 0.0000
# 6 0.0000 0.0000 0.0000 0.0000 0.0000 39.4029
#
#
#
# Elastic Compliance Matrix: (Units=1/GPa)
#
#
# Indices 1 2 3 4 5 6 
#
# 1 0.005192 -0.000876 -0.001418 0.000000 0.000000 0.000000
# 2 -0.000876 0.010589 -0.000331 0.000000 0.000000 0.000000
# 3 -0.001418 -0.000331 0.007512 0.000000 0.000000 0.000000
# 4 0.000000 0.000000 0.000000 0.024047 0.000000 0.000000
# 5 0.000000 0.000000 0.000000 0.000000 0.027435 0.000000
# 6 0.000000 0.000000 0.000000 0.000000 0.000000 0.025379
#
#
# Mechanical properties :
#
#
# Convention : Reuss Voigt Hill
#
# Bulk Modulus (GPa) = 55.42555 63.93877 59.68216
# Shear Modulus (GPa) = 44.87582 48.68158 46.77870
#
# Velocity S-wave (km/s) = 4.28410 4.46206 4.37398
# Velocity P-wave (km/s) = 6.86582 7.25924 7.06527
#
# Compressibility (1/GPa) = 0.01804222
#
# Stress axis : x y z
#
# Youngs Moduli (GPa) = 192.62189 94.43649 133.11896
#
# Poissons Ratio (x) = 0.08277 0.18876
# Poissons Ratio (y) = 0.16882 0.04404
# Poissons Ratio (z) = 0.27314 0.03124
#
# Static dielectric constant tensor:
#      x y z
#    x 2.006640 0.000000 0.000000 
#    y 0.000000 1.997030 0.000000 
#    z 0.000000 0.000000 1.862370 
# 
# From -- ./inp_files/2672.got.cif
#   From: 2010.05.17/outbox.cif.g08.bks.cpg/sg40_2_cif.got.tgz:2672.got - 2010.06.03 18:35:42.
