data_PCOD9364174
_publ_section_title
;
Structure prediction by ZEFSAII (Michael W. Deem and Ramdas Pophale) SiO2 
 PCOD9364174
Probable space group: A M A 2
;
_chemical_formula_sum "Si O2"
_cell_formula_units_Z 48
_cell_length_a 8.748502
_cell_length_b 20.883392
_cell_length_c 14.793036
_cell_angle_alpha 90.000000
_cell_angle_beta 90.000000
_cell_angle_gamma 90.000000
_cell_volume 2702.663959
_symmetry_space_group_name_H-M "A M A 2"
_symmetry_group_IT_number 40
_symmetry_cell_setting 'orthorhombic'
loop_
_space_group_symop_operation_xyz
x,y,z
-x,-y,z
1/2-x,y,z
1/2+x,-y,z
x,1/2+y,1/2+z
-x,1/2-y,1/2+z
1/2-x,1/2+y,1/2+z
1/2+x,1/2-y,1/2+z
loop_
_atom_site_type_symbol
_atom_site_label
_atom_site_fract_x
_atom_site_fract_y
_atom_site_fract_z
Si Si1 0.566918 0.878374 0.645960
Si Si2 0.566789 0.263859 0.652476
Si Si3 0.932717 0.814526 0.348068
Si Si4 0.933938 0.931227 0.841985
Si Si5 0.432017 0.430826 0.959729
Si Si6 0.065892 0.192999 0.953922
O O1 0.750000 0.882340 0.636951
O O2 0.516892 0.804372 0.651092
O O3 0.520639 0.912276 0.739645
O O4 0.490304 0.910529 0.559215
O O5 0.750000 0.251744 0.653903
O O6 0.527791 0.302158 0.743290
O O7 0.531512 0.301242 0.560128
O O8 0.750000 0.820559 0.356366
O O9 0.010375 0.876539 0.391043
O O10 0.988255 0.752306 0.403138
O O11 0.750000 0.934289 0.844122
O O12 0.981926 0.873572 0.908089
O O13 0.000000 0.000000 0.866539
O O14 0.500000 0.500000 0.936961
O O15 0.250000 0.433257 0.959971
O O16 0.250000 0.199079 0.942780
#
# Coordination Sequence:
#
# PCOD9364174 Si02
#       6
#     8   8   8   8   8   8
#     4  11  21  35  58  90 121 152 192 242 294 353
#     4  10  21  36  59  88 119 153 193 240 293 348
#     4  11  22  37  59  89 118 153 197 243 290 350
#     4  10  22  37  56  83 118 155 193 236 290 346
#     4  12  25  41  60  85 119 159 197 244 301 355
#     4  10  20  38  59  83 115 156 195 241 292 342
#
# _framework density 17.760255000000001
#
# number of rings (size 3 to 8) (size 9 to 14) (size 15 to 20)
#    0.000    1.333    3.333    3.000    0.000    4.000 
#    0.000    0.833    0.000    2.000    0.000    0.000 
#    0.000    0.000    0.000    0.000    0.000    0.000 
#
# Total GULP energy -134139.794893 kJ/mol
# GULP energy per Si atom -5589.158121 kJ/mol
# Density = 1.771983 g / cm^3
# Si number density = 17.760255 Si / 1000 Ang^3
#
#
#
# Elastic Constant Matrix: (Units=GPa)
#
#
# Indices 1 2 3 4 5 6 
#
# 1 58.7889 57.3802 54.5656 0.0000 0.0000 0.0000
# 2 57.3802 174.4661 83.0266 0.0000 0.0000 0.0000
# 3 54.5656 83.0266 142.0675 0.0000 0.0000 0.0000
# 4 0.0000 0.0000 0.0000 13.0253 0.0000 0.0000
# 5 0.0000 0.0000 0.0000 0.0000 10.3429 0.0000
# 6 0.0000 0.0000 0.0000 0.0000 0.0000 34.8772
#
#
#
# Elastic Compliance Matrix: (Units=1/GPa)
#
#
# Indices 1 2 3 4 5 6 
#
# 1 0.030607 -0.006195 -0.008135 0.000000 0.000000 0.000000
# 2 -0.006195 0.009194 -0.002994 0.000000 0.000000 0.000000
# 3 -0.008135 -0.002994 0.011913 0.000000 0.000000 0.000000
# 4 0.000000 0.000000 0.000000 0.076774 0.000000 0.000000
# 5 0.000000 0.000000 0.000000 0.000000 0.096685 0.000000
# 6 0.000000 0.000000 0.000000 0.000000 0.000000 0.028672
#
#
# Mechanical properties :
#
#
# Convention : Reuss Voigt Hill
#
# Bulk Modulus (GPa) = 58.59445 85.02969 71.81207
# Shear Modulus (GPa) = 16.99630 23.67242 20.33436
#
# Velocity S-wave (km/s) = 3.09687 3.65483 3.38736
# Velocity P-wave (km/s) = 6.77134 8.11115 7.47134
#
# Compressibility (1/GPa) = 0.01706646
#
# Stress axis : x y z
#
# Youngs Moduli (GPa) = 32.67184 108.76772 83.94119
#
# Poissons Ratio (x) = 0.67381 0.68289
# Poissons Ratio (y) = 0.20240 0.25129
# Poissons Ratio (z) = 0.26580 0.32562
#
# Static dielectric constant tensor:
#      x y z
#    x 1.597160 0.000000 0.000000 
#    y 0.000000 1.571200 0.000000 
#    z 0.000000 0.000000 1.601710 
# 
# From -- ./inp_files/15026.got.cif
#   From: 2010.05.17/outbox.cif.g08.bks.cpg/sg40_8_cif.got.tgz:15026.got - 2010.06.03 18:35:42.
