data_PCOD9364965
_publ_section_title
;
Structure prediction by ZEFSAII (Michael W. Deem and Ramdas Pophale) SiO2 
 PCOD9364965
Probable space group: A M A 2
;
_chemical_formula_sum "Si O2"
_cell_formula_units_Z 64
_cell_length_a 17.446691
_cell_length_b 13.205305
_cell_length_c 14.856827
_cell_angle_alpha 90.000000
_cell_angle_beta 90.000000
_cell_angle_gamma 90.000000
_cell_volume 3422.847672
_symmetry_space_group_name_H-M "A M A 2"
_symmetry_group_IT_number 40
_symmetry_cell_setting 'orthorhombic'
loop_
_space_group_symop_operation_xyz
x,y,z
-x,-y,z
1/2-x,y,z
1/2+x,-y,z
x,1/2+y,1/2+z
-x,1/2-y,1/2+z
1/2-x,1/2+y,1/2+z
1/2+x,1/2-y,1/2+z
loop_
_atom_site_type_symbol
_atom_site_label
_atom_site_fract_x
_atom_site_fract_y
_atom_site_fract_z
Si Si1 0.946330 0.598565 0.712510
Si Si2 0.342590 0.341544 0.547640
Si Si3 0.375186 0.627707 0.300750
Si Si4 0.838669 0.603421 0.342736
Si Si5 0.340949 0.837714 0.379288
Si Si6 0.335486 0.624282 0.101608
Si Si7 0.930725 0.065124 0.543464
Si Si8 0.531213 0.187735 0.720889
O O1 0.893395 0.603305 0.623023
O O2 0.888140 0.612049 0.796650
O O3 0.000000 0.500000 0.717186
O O4 0.001423 0.697563 0.713700
O O5 0.250000 0.347908 0.566178
O O6 0.357202 0.379319 0.447316
O O7 0.365096 0.222710 0.550234
O O8 0.349918 0.515686 0.324926
O O9 0.353812 0.716588 0.369232
O O10 0.336367 0.656252 0.205737
O O11 0.465102 0.630449 0.277440
O O12 0.750000 0.629942 0.328153
O O13 0.891555 0.668506 0.276311
O O14 0.250000 0.859013 0.375678
O O15 0.380002 0.878009 0.470181
O O16 0.250000 0.604313 0.069740
O O17 0.381565 0.521895 0.091872
O O18 0.960918 0.138678 0.622089
O O19 0.000000 0.000000 0.500395
#
# Coordination Sequence:
#
# PCOD9364965 Si02
#       8
#     8   8   8   8   8   8   8   8
#     4  11  24  42  62  87 121 169 208 251 312 375
#     4  10  22  40  63  90 122 162 210 255 300 371
#     4  11  21  40  65  91 120 164 212 254 303 365
#     4  11  23  38  63  97 128 159 204 260 314 365
#     4  11  24  40  62  91 123 162 211 257 304 367
#     4  11  20  37  66  89 118 167 211 248 300 367
#     4  12  22  38  61  94 129 158 203 262 315 364
#     4  11  23  41  63  91 123 161 210 261 309 363
#
# _framework density 18.697880999999999
#
# number of rings (size 3 to 8) (size 9 to 14) (size 15 to 20)
#    0.000    1.000    5.000    2.625    0.000    7.500 
#    0.000    2.500    0.000    0.000    0.000    0.000 
#    0.000    0.000    0.000    0.000    0.000    0.000 
#
# Total GULP energy -178696.428476 kJ/mol
# GULP energy per Si atom -5584.263390 kJ/mol
# Density = 1.865532 g / cm^3
# Si number density = 18.697881 Si / 1000 Ang^3
#
#
#
# Elastic Constant Matrix: (Units=GPa)
#
#
# Indices 1 2 3 4 5 6 
#
# 1 120.4973 41.9633 60.1381 0.0000 0.0000 0.0000
# 2 41.9633 68.4178 43.8216 0.0000 0.0000 0.0000
# 3 60.1381 43.8216 102.4419 0.0000 0.0000 0.0000
# 4 0.0000 0.0000 0.0000 32.3071 0.0000 0.0000
# 5 0.0000 0.0000 0.0000 0.0000 31.3276 0.0000
# 6 0.0000 0.0000 0.0000 0.0000 0.0000 26.8769
#
#
#
# Elastic Compliance Matrix: (Units=1/GPa)
#
#
# Indices 1 2 3 4 5 6 
#
# 1 0.012518 -0.004092 -0.005598 0.000000 0.000000 0.000000
# 2 -0.004092 0.021470 -0.006782 0.000000 0.000000 0.000000
# 3 -0.005598 -0.006782 0.015949 0.000000 0.000000 0.000000
# 4 0.000000 0.000000 0.000000 0.030953 0.000000 0.000000
# 5 0.000000 0.000000 0.000000 0.000000 0.031921 0.000000
# 6 0.000000 0.000000 0.000000 0.000000 0.000000 0.037207
#
#
# Mechanical properties :
#
#
# Convention : Reuss Voigt Hill
#
# Bulk Modulus (GPa) = 58.84939 64.80033 61.82486
# Shear Modulus (GPa) = 26.50755 27.79791 27.15273
#
# Velocity S-wave (km/s) = 3.76929 3.85994 3.81489
# Velocity P-wave (km/s) = 7.10532 7.38900 7.24855
#
# Compressibility (1/GPa) = 0.01699253
#
# Stress axis : x y z
#
# Youngs Moduli (GPa) = 79.88522 46.57722 62.69969
#
# Poissons Ratio (x) = 0.19060 0.35100
# Poissons Ratio (y) = 0.32690 0.42522
# Poissons Ratio (z) = 0.44721 0.31588
#
# Static dielectric constant tensor:
#      x y z
#    x 1.683160 0.000000 0.000000 
#    y 0.000000 1.634190 0.000000 
#    z 0.000000 0.000000 1.628010 
# 
# From -- ./inp_files/17900.got.cif
#   From: 2010.05.17/outbox.cif.g08.bks.cpg/sg40_9_cif.got.tgz:17900.got - 2010.06.03 18:35:42.
