data_PCOD9364978
_publ_section_title
;
Structure prediction by ZEFSAII (Michael W. Deem and Ramdas Pophale) SiO2 
 PCOD9364978
Probable space group: A M A 2
;
_chemical_formula_sum "Si O2"
_cell_formula_units_Z 64
_cell_length_a 25.874625
_cell_length_b 14.060153
_cell_length_c 7.807802
_cell_angle_alpha 90.000000
_cell_angle_beta 90.000000
_cell_angle_gamma 90.000000
_cell_volume 2840.487630
_symmetry_space_group_name_H-M "A M A 2"
_symmetry_group_IT_number 40
_symmetry_cell_setting 'orthorhombic'
loop_
_space_group_symop_operation_xyz
x,y,z
-x,-y,z
1/2-x,y,z
1/2+x,-y,z
x,1/2+y,1/2+z
-x,1/2-y,1/2+z
1/2-x,1/2+y,1/2+z
1/2+x,1/2-y,1/2+z
loop_
_atom_site_type_symbol
_atom_site_label
_atom_site_fract_x
_atom_site_fract_y
_atom_site_fract_z
Si Si1 0.394176 0.705666 0.528050
Si Si2 0.808137 0.417161 0.361567
Si Si3 0.120379 0.811145 0.882456
Si Si4 0.807059 0.092530 0.115936
Si Si5 0.012547 0.141935 0.209727
Si Si6 0.401351 0.498614 0.192439
Si Si7 0.089807 0.395978 0.833836
Si Si8 0.044305 0.678772 0.088869
O O1 0.344474 0.665192 0.432769
O O2 0.376888 0.753242 0.706882
O O3 0.437863 0.629654 0.588101
O O4 0.415580 0.788151 0.404600
O O5 0.750000 0.391056 0.311815
O O6 0.805526 0.492409 0.517175
O O7 0.842105 0.466524 0.213240
O O8 0.089049 0.749828 0.021251
O O9 0.093786 0.911807 0.827206
O O10 0.175135 0.834268 0.968007
O O11 0.750000 0.113357 0.185707
O O12 0.854599 0.091989 0.246886
O O13 0.958230 0.086037 0.205189
O O14 0.026282 0.134291 0.409065
O O15 0.998923 0.253508 0.170143
O O16 0.411645 0.458701 0.004098
O O17 0.436499 0.592780 0.207306
#
# Coordination Sequence:
#
# PCOD9364978 Si02
#       8
#     8   8   8   8   8   8   8   8
#     4  10  22  41  64  94 128 169 219 273 326 402
#     4  10  23  45  68  92 126 173 221 279 344 399
#     4   9  21  42  64  92 129 170 216 271 335 396
#     4  10  22  40  64  93 130 165 216 282 330 393
#     4  11  22  39  64  94 134 175 210 273 327 395
#     4  10  24  42  64  93 130 173 223 272 327 412
#     4  11  22  41  63  97 134 172 223 269 336 401
#     4  11  22  42  65  90 135 175 214 272 328 389
#
# _framework density 22.531343
#
# number of rings (size 3 to 8) (size 9 to 14) (size 15 to 20)
#    0.000    1.750    2.500    0.750    3.500    2.000 
#    0.000    2.500    0.000    0.000    0.000    0.000 
#    0.000    0.000    0.000    0.000    0.000    0.000 
#
# Total GULP energy -178708.273439 kJ/mol
# GULP energy per Si atom -5584.633545 kJ/mol
# Density = 2.248006 g / cm^3
# Si number density = 22.531343 Si / 1000 Ang^3
#
#
#
# Elastic Constant Matrix: (Units=GPa)
#
#
# Indices 1 2 3 4 5 6 
#
# 1 94.1403 36.0973 8.3414 0.0000 0.0000 0.0000
# 2 36.0973 82.6212 16.7405 0.0000 0.0000 0.0000
# 3 8.3414 16.7405 71.6200 0.0000 0.0000 0.0000
# 4 0.0000 0.0000 0.0000 20.7723 0.0000 0.0000
# 5 0.0000 0.0000 0.0000 0.0000 34.5324 0.0000
# 6 0.0000 0.0000 0.0000 0.0000 0.0000 19.8679
#
#
#
# Elastic Compliance Matrix: (Units=1/GPa)
#
#
# Indices 1 2 3 4 5 6 
#
# 1 0.012763 -0.005537 -0.000192 0.000000 0.000000 0.000000
# 2 -0.005537 0.015107 -0.002886 0.000000 0.000000 0.000000
# 3 -0.000192 -0.002886 0.014660 0.000000 0.000000 0.000000
# 4 0.000000 0.000000 0.000000 0.048141 0.000000 0.000000
# 5 0.000000 0.000000 0.000000 0.000000 0.028958 0.000000
# 6 0.000000 0.000000 0.000000 0.000000 0.000000 0.050332
#
#
# Mechanical properties :
#
#
# Convention : Reuss Voigt Hill
#
# Bulk Modulus (GPa) = 39.52808 41.19333 40.36070
# Shear Modulus (GPa) = 25.55905 27.51467 26.53686
#
# Velocity S-wave (km/s) = 3.37171 3.49832 3.43560
# Velocity P-wave (km/s) = 5.72185 5.88558 5.80429
#
# Compressibility (1/GPa) = 0.02529847
#
# Stress axis : x y z
#
# Youngs Moduli (GPa) = 78.35385 66.19267 68.21459
#
# Poissons Ratio (x) = 0.36651 0.01311
# Poissons Ratio (y) = 0.43385 0.19689
# Poissons Ratio (z) = 0.01506 0.19105
#
# Static dielectric constant tensor:
#      x y z
#    x 1.864130 0.000000 0.000000 
#    y 0.000000 1.908140 0.000000 
#    z 0.000000 0.000000 1.819020 
# 
# From -- ./inp_files/8921.got.cif
#   From: 2010.05.17/outbox.cif.g08.bks.cpg/sg40_5_cif.got.tgz:8921.got - 2010.06.03 18:35:42.
