data_PCOD9364358
_publ_section_title
;
Structure prediction by ZEFSAII (Michael W. Deem and Ramdas Pophale) SiO2 
 PCOD9364358
Probable space group: A M A 2
;
_chemical_formula_sum "Si O2"
_cell_formula_units_Z 40
_cell_length_a 10.291931
_cell_length_b 8.668044
_cell_length_c 22.797801
_cell_angle_alpha 90.000000
_cell_angle_beta 90.000000
_cell_angle_gamma 90.000000
_cell_volume 2033.812590
_symmetry_space_group_name_H-M "A M A 2"
_symmetry_group_IT_number 40
_symmetry_cell_setting 'orthorhombic'
loop_
_space_group_symop_operation_xyz
x,y,z
-x,-y,z
1/2-x,y,z
1/2+x,-y,z
x,1/2+y,1/2+z
-x,1/2-y,1/2+z
1/2-x,1/2+y,1/2+z
1/2+x,1/2-y,1/2+z
loop_
_atom_site_type_symbol
_atom_site_label
_atom_site_fract_x
_atom_site_fract_y
_atom_site_fract_z
Si Si1 0.480161 0.684125 0.539680
Si Si2 0.750000 0.164665 0.612355
Si Si3 0.250000 0.195740 0.583264
Si Si4 0.480598 0.317475 0.796391
Si Si5 0.250000 0.220560 0.240429
Si Si6 0.601126 0.361204 0.410829
Si Si7 0.250000 0.854205 0.209894
O O1 0.500000 0.500000 0.547211
O O2 0.376422 0.750621 0.585630
O O3 0.619861 0.760331 0.548775
O O4 0.426220 0.713063 0.474340
O O5 0.750000 0.179258 0.682123
O O6 0.750000 0.985644 0.595811
O O7 0.250000 0.295230 0.643565
O O8 0.500000 0.500000 0.803689
O O9 0.620480 0.251966 0.777959
O O10 0.424772 0.249167 0.856093
O O11 0.377366 0.294815 0.744063
O O12 0.250000 0.040823 0.217920
O O13 0.500000 0.500000 0.405553
O O14 0.750000 0.415485 0.410020
#
# Coordination Sequence:
#
# PCOD9364358 Si02
#       7
#     8   4   4   8   4   8   4
#     4  11  24  44  68  92 129 180 218 259 324 403
#     4  12  24  43  64 101 137 162 222 276 331 372
#     4  12  26  39  68 101 131 168 214 282 329 378
#     4  10  22  40  66  95 129 170 216 261 319 386
#     4  10  22  37  64  95 129 176 218 256 315 406
#     4  11  25  44  68  95 128 168 218 269 322 384
#     4  10  20  41  62  93 131 178 218 254 321 396
#
# _framework density 19.667494999999999
#
# number of rings (size 3 to 8) (size 9 to 14) (size 15 to 20)
#    0.000    1.200    2.000    3.600    5.600    4.800 
#    0.000    0.000    0.000    0.000    0.000    0.000 
#    0.000    0.000    0.000    0.000    0.000    0.000 
#
# Total GULP energy -111851.837830 kJ/mol
# GULP energy per Si atom -5592.591892 kJ/mol
# Density = 1.962273 g / cm^3
# Si number density = 19.667495 Si / 1000 Ang^3
#
#
#
# Elastic Constant Matrix: (Units=GPa)
#
#
# Indices 1 2 3 4 5 6 
#
# 1 184.5713 28.6534 37.2823 0.0000 0.0000 0.0000
# 2 28.6534 47.8351 17.8865 0.0000 0.0000 0.0000
# 3 37.2823 17.8865 70.3546 0.0000 0.0000 0.0000
# 4 0.0000 0.0000 0.0000 19.8959 0.0000 0.0000
# 5 0.0000 0.0000 0.0000 0.0000 34.4005 0.0000
# 6 0.0000 0.0000 0.0000 0.0000 0.0000 10.3962
#
#
#
# Elastic Compliance Matrix: (Units=1/GPa)
#
#
# Indices 1 2 3 4 5 6 
#
# 1 0.006397 -0.002834 -0.002670 0.000000 0.000000 0.000000
# 2 -0.002834 0.024356 -0.004691 0.000000 0.000000 0.000000
# 3 -0.002670 -0.004691 0.016821 0.000000 0.000000 0.000000
# 4 0.000000 0.000000 0.000000 0.050262 0.000000 0.000000
# 5 0.000000 0.000000 0.000000 0.000000 0.029069 0.000000
# 6 0.000000 0.000000 0.000000 0.000000 0.000000 0.096189
#
#
# Mechanical properties :
#
#
# Convention : Reuss Voigt Hill
#
# Bulk Modulus (GPa) = 36.78261 52.26727 44.52494
# Shear Modulus (GPa) = 19.79849 27.53442 23.66646
#
# Velocity S-wave (km/s) = 3.17623 3.74571 3.47267
# Velocity P-wave (km/s) = 5.67399 6.73352 6.22633
#
# Compressibility (1/GPa) = 0.02718676
#
# Stress axis : x y z
#
# Youngs Moduli (GPa) = 156.32088 41.05682 59.44998
#
# Poissons Ratio (x) = 0.11634 0.15870
# Poissons Ratio (y) = 0.44297 0.27886
# Poissons Ratio (z) = 0.41730 0.19258
#
# Static dielectric constant tensor:
#      x y z
#    x 1.670600 0.000000 0.000000 
#    y 0.000000 1.674040 0.000000 
#    z 0.000000 0.000000 1.668300 
# 
# From -- ./inp_files/19911.got.cif
#   From: 2010.05.17/outbox.cif.g08.bks.cpg/sg40_10_cif.got.tgz:19911.got - 2010.06.03 18:35:42.
