data_PCOD9364786
_publ_section_title
;
Structure prediction by ZEFSAII (Michael W. Deem and Ramdas Pophale) SiO2 
 PCOD9364786
Probable space group: A M A 2
;
_chemical_formula_sum "Si O2"
_cell_formula_units_Z 48
_cell_length_a 15.424857
_cell_length_b 17.763234
_cell_length_c 8.761836
_cell_angle_alpha 90.000000
_cell_angle_beta 90.000000
_cell_angle_gamma 90.000000
_cell_volume 2400.702272
_symmetry_space_group_name_H-M "A M A 2"
_symmetry_group_IT_number 40
_symmetry_cell_setting 'orthorhombic'
loop_
_space_group_symop_operation_xyz
x,y,z
-x,-y,z
1/2-x,y,z
1/2+x,-y,z
x,1/2+y,1/2+z
-x,1/2-y,1/2+z
1/2-x,1/2+y,1/2+z
1/2+x,1/2-y,1/2+z
loop_
_atom_site_type_symbol
_atom_site_label
_atom_site_fract_x
_atom_site_fract_y
_atom_site_fract_z
Si Si1 0.750000 0.780309 0.462661
Si Si2 0.750000 0.948212 0.526962
Si Si3 0.911716 0.698149 0.938004
Si Si4 0.250000 0.269733 0.137208
Si Si5 0.569673 0.223729 0.082413
Si Si6 0.902960 0.526137 0.856472
Si Si7 0.750000 0.065800 0.799417
Si Si8 0.422994 0.944451 0.003620
O O1 0.750000 0.859482 0.548494
O O2 0.750000 0.787296 0.279296
O O3 0.663739 0.736903 0.510662
O O4 0.833961 0.971183 0.430055
O O5 0.750000 0.998476 0.677807
O O6 0.921549 0.725887 0.764531
O O7 0.890566 0.609704 0.923678
O O8 0.834586 0.736433 0.032175
O O9 0.001254 0.715570 0.023241
O O10 0.250000 0.353137 0.214663
O O11 0.541018 0.140280 0.028937
O O12 0.894481 0.529686 0.673447
O O13 0.000000 0.500000 0.890850
O O14 0.661830 0.058925 0.897997
O O15 0.500000 0.000000 0.950247
#
# Coordination Sequence:
#
# PCOD9364786 Si02
#       8
#     4   4   8   4   8   8   4   8
#     4  12  25  43  65  97 135 174 223 278 347 405
#     4  12  25  39  65  95 127 170 225 276 329 407
#     4  11  23  40  67  92 128 176 223 272 342 413
#     4  12  23  43  65  91 130 182 220 275 354 409
#     4  11  23  41  66  98 133 175 223 281 341 412
#     4  10  21  41  63  92 128 170 216 271 335 401
#     4  12  23  43  67  99 134 176 224 283 342 399
#     4  10  23  42  68  95 130 177 222 273 341 412
#
# _framework density 19.994150000000001
#
# number of rings (size 3 to 8) (size 9 to 14) (size 15 to 20)
#    0.000    1.000    3.333    3.000    0.000    7.333 
#    0.000    2.500    0.000    0.000    0.000    0.000 
#    0.000    0.000    0.000    0.000    0.000    0.000 
#
# Total GULP energy -134215.614075 kJ/mol
# GULP energy per Si atom -5592.317253 kJ/mol
# Density = 1.994864 g / cm^3
# Si number density = 19.994150 Si / 1000 Ang^3
#
#
#
# Elastic Constant Matrix: (Units=GPa)
#
#
# Indices 1 2 3 4 5 6 
#
# 1 110.1673 6.0140 30.3757 0.0000 0.0000 0.0000
# 2 6.0140 49.7128 13.2554 0.0000 0.0000 0.0000
# 3 30.3757 13.2554 59.6482 0.0000 0.0000 0.0000
# 4 0.0000 0.0000 0.0000 24.9557 0.0000 0.0000
# 5 0.0000 0.0000 0.0000 0.0000 36.2829 0.0000
# 6 0.0000 0.0000 0.0000 0.0000 0.0000 38.7908
#
#
#
# Elastic Compliance Matrix: (Units=1/GPa)
#
#
# Indices 1 2 3 4 5 6 
#
# 1 0.010561 0.000166 -0.005415 0.000000 0.000000 0.000000
# 2 0.000166 0.021385 -0.004837 0.000000 0.000000 0.000000
# 3 -0.005415 -0.004837 0.020598 0.000000 0.000000 0.000000
# 4 0.000000 0.000000 0.000000 0.040071 0.000000 0.000000
# 5 0.000000 0.000000 0.000000 0.000000 0.027561 0.000000
# 6 0.000000 0.000000 0.000000 0.000000 0.000000 0.025779
#
#
# Mechanical properties :
#
#
# Convention : Reuss Voigt Hill
#
# Bulk Modulus (GPa) = 30.89091 35.42429 33.15760
# Shear Modulus (GPa) = 28.26171 31.33142 29.79657
#
# Velocity S-wave (km/s) = 3.76373 3.96287 3.86458
# Velocity P-wave (km/s) = 5.86269 6.22052 6.04425
#
# Compressibility (1/GPa) = 0.03237198
#
# Stress axis : x y z
#
# Youngs Moduli (GPa) = 94.68696 46.76136 48.54953
#
# Poissons Ratio (x) = -0.00777 0.26290
# Poissons Ratio (y) = -0.01574 0.23483
# Poissons Ratio (z) = 0.51275 0.22618
#
# Static dielectric constant tensor:
#      x y z
#    x 1.671380 0.000000 0.000000 
#    y 0.000000 1.690370 0.000000 
#    z 0.000000 0.000000 1.691380 
# 
# From -- ./inp_files/6511.got.cif
#   From: 2010.05.17/outbox.cif.g08.bks.cpg/sg40_4_cif.got.tgz:6511.got - 2010.06.03 18:35:42.
