data_PCOD9364305
_publ_section_title
;
Structure prediction by ZEFSAII (Michael W. Deem and Ramdas Pophale) SiO2 
 PCOD9364305
Probable space group: A M A 2
;
_chemical_formula_sum "Si O2"
_cell_formula_units_Z 48
_cell_length_a 28.874252
_cell_length_b 5.090096
_cell_length_c 17.029848
_cell_angle_alpha 90.000000
_cell_angle_beta 90.000000
_cell_angle_gamma 90.000000
_cell_volume 2502.922990
_symmetry_space_group_name_H-M "A M A 2"
_symmetry_group_IT_number 40
_symmetry_cell_setting 'orthorhombic'
loop_
_space_group_symop_operation_xyz
x,y,z
-x,-y,z
1/2-x,y,z
1/2+x,-y,z
x,1/2+y,1/2+z
-x,1/2-y,1/2+z
1/2-x,1/2+y,1/2+z
1/2+x,1/2-y,1/2+z
loop_
_atom_site_type_symbol
_atom_site_label
_atom_site_fract_x
_atom_site_fract_y
_atom_site_fract_z
Si Si1 0.611396 0.159867 0.133010
Si Si2 0.028947 0.759842 0.233869
Si Si3 0.945995 0.987020 0.983958
Si Si4 0.197702 0.139258 0.704470
Si Si5 0.344323 0.128639 0.269846
Si Si6 0.923797 0.985065 0.385321
O O1 0.571691 0.318653 0.178673
O O2 0.660299 0.313639 0.134525
O O3 0.621866 0.922014 0.194406
O O4 0.589605 0.072226 0.051873
O O5 0.048026 0.886881 0.313655
O O6 0.000000 0.500000 0.248804
O O7 0.000000 0.000000 0.196016
O O8 0.941940 0.205544 0.915340
O O9 0.930315 0.700929 0.953350
O O10 0.000000 0.000000 0.008618
O O11 0.250000 0.085579 0.679270
O O12 0.194038 0.406959 0.754254
O O13 0.177549 0.911676 0.759641
O O14 0.373238 0.069439 0.348025
#
# Coordination Sequence:
#
# PCOD9364305 Si02
#       6
#     8   8   8   8   8   8
#     4   9  25  37  61  88 121 157 204 247 302 346
#     4  11  22  36  58  83 119 159 204 245 287 352
#     4  12  24  38  56  89 129 170 202 239 291 364
#     4  10  20  39  68  93 111 147 205 262 312 355
#     4   9  21  39  63  89 112 153 198 254 304 354
#     4  11  23  39  58  85 124 161 203 240 300 358
#
# _framework density 19.177576999999999
#
# number of rings (size 3 to 8) (size 9 to 14) (size 15 to 20)
#    1.000    0.667    0.000    5.000    7.000    1.333 
#    0.000    0.000    0.000    6.000    0.000    0.000 
#    0.000    0.000    0.000    0.000    0.000    0.000 
#
# Total GULP energy -133753.303104 kJ/mol
# GULP energy per Si atom -5573.054296 kJ/mol
# Density = 1.913393 g / cm^3
# Si number density = 19.177577 Si / 1000 Ang^3
#
#
#
# Elastic Constant Matrix: (Units=GPa)
#
#
# Indices 1 2 3 4 5 6 
#
# 1 138.3368 26.0839 35.1810 0.0000 0.0000 0.0000
# 2 26.0839 87.8003 1.3416 0.0000 0.0000 0.0000
# 3 35.1810 1.3416 44.8309 0.0000 0.0000 0.0000
# 4 0.0000 0.0000 0.0000 1.9067 0.0000 0.0000
# 5 0.0000 0.0000 0.0000 0.0000 11.4908 0.0000
# 6 0.0000 0.0000 0.0000 0.0000 0.0000 18.0672
#
#
#
# Elastic Compliance Matrix: (Units=1/GPa)
#
#
# Indices 1 2 3 4 5 6 
#
# 1 0.009654 -0.002753 -0.007493 0.000000 0.000000 0.000000
# 2 -0.002753 0.012180 0.001796 0.000000 0.000000 0.000000
# 3 -0.007493 0.001796 0.028133 0.000000 0.000000 0.000000
# 4 0.000000 0.000000 0.000000 0.524475 0.000000 0.000000
# 5 0.000000 0.000000 0.000000 0.000000 0.087026 0.000000
# 6 0.000000 0.000000 0.000000 0.000000 0.000000 0.055349
#
#
# Mechanical properties :
#
#
# Convention : Reuss Voigt Hill
#
# Bulk Modulus (GPa) = 30.24309 44.02010 37.13160
# Shear Modulus (GPa) = 6.71376 20.18370 13.44873
#
# Velocity S-wave (km/s) = 1.87308 3.24769 2.65103
# Velocity P-wave (km/s) = 4.52572 6.08827 5.36420
#
# Compressibility (1/GPa) = 0.03306541
#
# Stress axis : x y z
#
# Youngs Moduli (GPa) = 103.58911 82.10169 35.54598
#
# Poissons Ratio (x) = 0.22606 0.26635
# Poissons Ratio (y) = 0.28522 -0.06385
# Poissons Ratio (z) = 0.77621 -0.14747
#
# Static dielectric constant tensor:
#      x y z
#    x 1.708500 0.000000 0.000000 
#    y 0.000000 1.695380 0.000000 
#    z 0.000000 0.000000 1.669140 
# 
# From -- ./inp_files/21556.got.cif
#   From: 2010.05.17/outbox.cif.g08.bks.cpg/sg40_11_cif.got.tgz:21556.got - 2010.06.03 18:35:42.
