data_PCOD9364455
_publ_section_title
;
Structure prediction by ZEFSAII (Michael W. Deem and Ramdas Pophale) SiO2 
 PCOD9364455
Probable space group: A M A 2
;
_chemical_formula_sum "Si O2"
_cell_formula_units_Z 32
_cell_length_a 5.479683
_cell_length_b 27.524079
_cell_length_c 9.873560
_cell_angle_alpha 90.000000
_cell_angle_beta 90.000000
_cell_angle_gamma 90.000000
_cell_volume 1489.162189
_symmetry_space_group_name_H-M "A M A 2"
_symmetry_group_IT_number 40
_symmetry_cell_setting 'orthorhombic'
loop_
_space_group_symop_operation_xyz
x,y,z
-x,-y,z
1/2-x,y,z
1/2+x,-y,z
x,1/2+y,1/2+z
-x,1/2-y,1/2+z
1/2-x,1/2+y,1/2+z
1/2+x,1/2-y,1/2+z
loop_
_atom_site_type_symbol
_atom_site_label
_atom_site_fract_x
_atom_site_fract_y
_atom_site_fract_z
Si Si1 0.750000 0.881245 0.832430
Si Si2 0.750000 0.375319 0.655538
Si Si3 0.250000 0.011806 0.172784
Si Si4 0.750000 0.694805 0.062210
Si Si5 0.250000 0.400532 0.211927
Si Si6 0.750000 0.778682 0.666271
Si Si7 0.250000 0.328475 0.766087
Si Si8 0.750000 0.026484 0.473826
O O1 0.503961 0.909388 0.788514
O O2 0.750000 0.828544 0.754663
O O3 0.750000 0.874691 0.993042
O O4 0.750000 0.431183 0.707553
O O5 0.499385 0.350281 0.705222
O O6 0.500000 0.000000 0.097786
O O7 0.250000 0.977339 0.308396
O O8 0.750000 0.657164 0.185750
O O9 0.495481 0.722719 0.076137
O O10 0.750000 0.664299 0.925751
O O11 0.250000 0.426205 0.066238
O O12 0.750000 0.729763 0.751669
O O13 0.500000 0.000000 0.511612
#
# Coordination Sequence:
#
# PCOD9364455 Si02
#       8
#     4   4   4   4   4   4   4   4
#     4  10  23  44  65  91 137 175 213 258 318 414
#     4  12  26  44  67 101 133 180 219 269 346 392
#     4  10  23  42  65  94 129 168 211 278 338 395
#     4  10  23  41  63  96 126 167 220 278 309 389
#     4  10  21  41  66  91 127 168 216 262 328 373
#     4  10  23  42  63  93 133 178 214 268 329 369
#     4  12  26  39  70  98 135 174 227 276 320 404
#     4  10  21  35  63  94 124 158 210 271 324 386
#
# _framework density 21.488592000000001
#
# number of rings (size 3 to 8) (size 9 to 14) (size 15 to 20)
#    0.000    1.500    0.000    3.750   10.500    0.000 
#    0.000    3.750    0.000    0.000    0.000    0.000 
#    0.000    0.000    0.000    0.000    0.000    0.000 
#
# Total GULP energy -89240.425032 kJ/mol
# GULP energy per Si atom -5577.526565 kJ/mol
# Density = 2.143968 g / cm^3
# Si number density = 21.488592 Si / 1000 Ang^3
#
#
#
# Elastic Constant Matrix: (Units=GPa)
#
#
# Indices 1 2 3 4 5 6 
#
# 1 236.5369 36.8601 51.1804 0.0000 0.0000 0.0000
# 2 36.8601 43.8206 6.2046 0.0000 0.0000 0.0000
# 3 51.1804 6.2046 95.2924 0.0000 0.0000 0.0000
# 4 0.0000 0.0000 0.0000 19.1932 0.0000 0.0000
# 5 0.0000 0.0000 0.0000 0.0000 23.1821 0.0000
# 6 0.0000 0.0000 0.0000 0.0000 0.0000 23.1606
#
#
#
# Elastic Compliance Matrix: (Units=1/GPa)
#
#
# Indices 1 2 3 4 5 6 
#
# 1 0.005460 -0.004216 -0.002658 0.000000 0.000000 0.000000
# 2 -0.004216 0.026289 0.000553 0.000000 0.000000 0.000000
# 3 -0.002658 0.000553 0.011886 0.000000 0.000000 0.000000
# 4 0.000000 0.000000 0.000000 0.052102 0.000000 0.000000
# 5 0.000000 0.000000 0.000000 0.000000 0.043137 0.000000
# 6 0.000000 0.000000 0.000000 0.000000 0.000000 0.043177
#
#
# Mechanical properties :
#
#
# Convention : Reuss Voigt Hill
#
# Bulk Modulus (GPa) = 32.26710 62.68222 47.47466
# Shear Modulus (GPa) = 24.38759 31.86749 28.12754
#
# Velocity S-wave (km/s) = 3.37250 3.85515 3.62187
# Velocity P-wave (km/s) = 5.49668 7.00354 6.29536
#
# Compressibility (1/GPa) = 0.03099132
#
# Stress axis : x y z
#
# Youngs Moduli (GPa) = 183.15733 38.03934 84.13593
#
# Poissons Ratio (x) = 0.16038 0.22362
# Poissons Ratio (y) = 0.77223 -0.04651
# Poissons Ratio (z) = 0.48681 -0.02103
#
# Static dielectric constant tensor:
#      x y z
#    x 1.823070 0.000000 0.000000 
#    y 0.000000 1.836400 0.000000 
#    z 0.000000 0.000000 1.748590 
# 
# From -- ./inp_files/3661.got.cif
#   From: 2010.05.17/outbox.cif.g08.bks.cpg/sg40_2_cif.got.tgz:3661.got - 2010.06.03 18:35:42.
