data_PCOD9364157
_publ_section_title
;
Structure prediction by ZEFSAII (Michael W. Deem and Ramdas Pophale) SiO2 
 PCOD9364157
Probable space group: A M A 2
;
_chemical_formula_sum "Si O2"
_cell_formula_units_Z 40
_cell_length_a 14.120534
_cell_length_b 22.918278
_cell_length_c 5.149632
_cell_angle_alpha 90.000000
_cell_angle_beta 90.000000
_cell_angle_gamma 90.000000
_cell_volume 1666.515276
_symmetry_space_group_name_H-M "A M A 2"
_symmetry_group_IT_number 40
_symmetry_cell_setting 'orthorhombic'
loop_
_space_group_symop_operation_xyz
x,y,z
-x,-y,z
1/2-x,y,z
1/2+x,-y,z
x,1/2+y,1/2+z
-x,1/2-y,1/2+z
1/2-x,1/2+y,1/2+z
1/2+x,1/2-y,1/2+z
loop_
_atom_site_type_symbol
_atom_site_label
_atom_site_fract_x
_atom_site_fract_y
_atom_site_fract_z
Si Si1 0.442570 0.431820 0.092760
Si Si2 0.635876 0.260543 0.279584
Si Si3 0.135794 0.807869 0.775309
Si Si4 0.860320 0.897941 0.747959
Si Si5 0.138309 0.997869 0.092870
O O1 0.397665 0.283636 0.553987
O O2 0.401422 0.368252 0.159912
O O3 0.555634 0.424569 0.077450
O O4 0.408507 0.468010 0.342288
O O5 0.750000 0.255888 0.270642
O O6 0.893016 0.239851 0.563090
O O7 0.881878 0.329233 0.251998
O O8 0.250000 0.812416 0.786517
O O9 0.095694 0.963914 0.338128
O O10 0.750000 0.906861 0.663697
O O11 0.869644 0.932884 0.022277
O O12 0.250000 0.985771 0.098236
#
# Coordination Sequence:
#
# PCOD9364157 Si02
#       5
#     8   8   8   8   8
#     4  12  25  43  72 105 138 180 234 290 354 422
#     4   9  20  39  64  96 136 181 227 279 345 416
#     4  10  20  37  64  99 138 177 225 286 346 411
#     4  10  25  47  70 100 142 189 236 289 347 420
#     4  11  25  46  71 100 136 179 232 294 356 417
#
# _framework density 24.002178000000001
#
# number of rings (size 3 to 8) (size 9 to 14) (size 15 to 20)
#    0.000    1.600    0.000    3.600    0.000    9.600 
#    0.000   11.000    0.000    2.400    0.000    0.000 
#    0.000    0.000    0.000    0.000    0.000    0.000 
#
# Total GULP energy -111814.186499 kJ/mol
# GULP energy per Si atom -5590.709325 kJ/mol
# Density = 2.394755 g / cm^3
# Si number density = 24.002178 Si / 1000 Ang^3
#
#
#
# Elastic Constant Matrix: (Units=GPa)
#
#
# Indices 1 2 3 4 5 6 
#
# 1 111.2341 25.7180 8.1629 0.0000 0.0000 0.0000
# 2 25.7180 110.0671 11.7162 0.0000 0.0000 0.0000
# 3 8.1629 11.7162 106.0959 0.0000 0.0000 0.0000
# 4 0.0000 0.0000 0.0000 32.6762 0.0000 0.0000
# 5 0.0000 0.0000 0.0000 0.0000 19.2162 0.0000
# 6 0.0000 0.0000 0.0000 0.0000 0.0000 30.9564
#
#
#
# Elastic Compliance Matrix: (Units=1/GPa)
#
#
# Indices 1 2 3 4 5 6 
#
# 1 0.009529 -0.002174 -0.000493 0.000000 0.000000 0.000000
# 2 -0.002174 0.009689 -0.000903 0.000000 0.000000 0.000000
# 3 -0.000493 -0.000903 0.009563 0.000000 0.000000 0.000000
# 4 0.000000 0.000000 0.000000 0.030603 0.000000 0.000000
# 5 0.000000 0.000000 0.000000 0.000000 0.052039 0.000000
# 6 0.000000 0.000000 0.000000 0.000000 0.000000 0.032303
#
#
# Mechanical properties :
#
#
# Convention : Reuss Voigt Hill
#
# Bulk Modulus (GPa) = 46.20701 46.51015 46.35858
# Shear Modulus (GPa) = 31.62931 35.35641 33.49286
#
# Velocity S-wave (km/s) = 3.63405 3.84220 3.73957
# Velocity P-wave (km/s) = 6.07465 6.25323 6.16458
#
# Compressibility (1/GPa) = 0.02164174
#
# Stress axis : x y z
#
# Youngs Moduli (GPa) = 104.94411 103.20514 104.56901
#
# Poissons Ratio (x) = 0.22437 0.05156
# Poissons Ratio (y) = 0.22815 0.09440
# Poissons Ratio (z) = 0.05174 0.09317
#
# Static dielectric constant tensor:
#      x y z
#    x 1.928000 0.000000 0.000000 
#    y 0.000000 1.919810 0.000000 
#    z 0.000000 0.000000 1.895940 
# 
# From -- ./inp_files/6290.got.cif
#   From: 2010.05.17/outbox.cif.g08.bks.cpg/sg40_4_cif.got.tgz:6290.got - 2010.06.03 18:35:42.
