data_PCOD9364100
_publ_section_title
;
Structure prediction by ZEFSAII (Michael W. Deem and Ramdas Pophale) SiO2 
 PCOD9364100
Probable space group: A M A 2
;
_chemical_formula_sum "Si O2"
_cell_formula_units_Z 64
_cell_length_a 8.468474
_cell_length_b 31.847094
_cell_length_c 12.252916
_cell_angle_alpha 90.000000
_cell_angle_beta 90.000000
_cell_angle_gamma 90.000000
_cell_volume 3304.565956
_symmetry_space_group_name_H-M "A M A 2"
_symmetry_group_IT_number 40
_symmetry_cell_setting 'orthorhombic'
loop_
_space_group_symop_operation_xyz
x,y,z
-x,-y,z
1/2-x,y,z
1/2+x,-y,z
x,1/2+y,1/2+z
-x,1/2-y,1/2+z
1/2-x,1/2+y,1/2+z
1/2+x,1/2-y,1/2+z
loop_
_atom_site_type_symbol
_atom_site_label
_atom_site_fract_x
_atom_site_fract_y
_atom_site_fract_z
Si Si1 0.060147 0.333116 0.764590
Si Si2 0.440006 0.431642 0.763211
Si Si3 0.441437 0.299047 0.528295
Si Si4 0.060697 0.955180 0.020778
Si Si5 0.943071 0.374009 0.132291
Si Si6 0.439560 0.704305 0.987926
Si Si7 0.561966 0.955705 0.497619
Si Si8 0.939324 0.875596 0.884360
O O1 0.250000 0.329677 0.773215
O O2 0.020059 0.382292 0.764753
O O3 0.011568 0.313359 0.649603
O O4 0.984161 0.310685 0.867538
O O5 0.250000 0.435921 0.768569
O O6 0.494151 0.449666 0.646813
O O7 0.511563 0.451521 0.871507
O O8 0.250000 0.300052 0.523066
O O9 0.497125 0.251577 0.507855
O O10 0.504659 0.333063 0.443015
O O11 0.250000 0.954722 0.021031
O O12 0.000000 0.000000 0.979171
O O13 0.002515 0.915787 0.950407
O O14 0.750000 0.373936 0.130211
O O15 0.992193 0.376282 0.258176
O O16 0.996890 0.331289 0.072671
O O17 0.996080 0.414864 0.064018
O O18 0.250000 0.705432 0.998032
O O19 0.750000 0.955881 0.503157
O O20 0.500000 0.000000 0.541709
O O21 0.750000 0.876943 0.886099
#
# Coordination Sequence:
#
# PCOD9364100 Si02
#       8
#     8   8   8   8   8   8   8   8
#     4  10  20  37  61  88 120 154 191 240 296 348
#     4  10  20  37  60  87 119 153 190 235 290 349
#     4  10  22  40  61  87 122 159 194 242 299 348
#     4  11  23  41  62  88 122 155 195 242 297 352
#     4   9  21  40  59  83 115 154 195 241 293 347
#     4  10  21  39  62  87 118 156 197 241 294 351
#     4  11  22  38  60  85 117 150 192 240 291 350
#     4  11  23  40  63  87 117 156 202 245 291 350
#
# _framework density 19.367142000000001
#
# number of rings (size 3 to 8) (size 9 to 14) (size 15 to 20)
#    0.000    1.750    2.500    1.500    1.750    3.500 
#    0.000    5.000    0.000    0.000    0.000    0.000 
#    0.000    0.000    0.000    0.000    0.000    0.000 
#
# Total GULP energy -178781.322869 kJ/mol
# GULP energy per Si atom -5586.916340 kJ/mol
# Density = 1.932306 g / cm^3
# Si number density = 19.367142 Si / 1000 Ang^3
#
#
#
# Elastic Constant Matrix: (Units=GPa)
#
#
# Indices 1 2 3 4 5 6 
#
# 1 17.5070 31.9439 21.9256 0.0000 0.0000 0.0000
# 2 31.9439 194.8861 86.1136 0.0000 0.0000 0.0000
# 3 21.9256 86.1136 147.4291 0.0000 0.0000 0.0000
# 4 0.0000 0.0000 0.0000 41.0396 0.0000 0.0000
# 5 0.0000 0.0000 0.0000 0.0000 -11.9636 0.0000
# 6 0.0000 0.0000 0.0000 0.0000 0.0000 29.4747
#
#
#
# Elastic Compliance Matrix: (Units=1/GPa)
#
#
# Indices 1 2 3 4 5 6 
#
# 1 0.085373 -0.011300 -0.006096 0.000000 0.000000 0.000000
# 2 -0.011300 0.008412 -0.003233 0.000000 0.000000 0.000000
# 3 -0.006096 -0.003233 0.009578 0.000000 0.000000 0.000000
# 4 0.000000 0.000000 0.000000 0.024367 0.000000 0.000000
# 5 0.000000 0.000000 0.000000 0.000000 -0.083587 0.000000
# 6 0.000000 0.000000 0.000000 0.000000 0.000000 0.033927
#
#
# Mechanical properties :
#
#
# Convention : Reuss Voigt Hill
#
# Bulk Modulus (GPa) = 16.10187 71.08758 43.59472
# Shear Modulus (GPa) = 35.70680 26.36607 31.03644
#
# Velocity S-wave (km/s) = 4.29847 3.69369 4.00750
# Velocity P-wave (km/s) = 5.74176 7.41459 6.63114
#
# Compressibility (1/GPa) = 0.06210458
#
# Stress axis : x y z
#
# Youngs Moduli (GPa) = 11.71332 118.87998 104.40683
#
# Poissons Ratio (x) = 1.34331 0.63651
# Poissons Ratio (y) = 0.13236 0.33754
# Poissons Ratio (z) = 0.07141 0.38433
#
# Static dielectric constant tensor:
#      x y z
#    x 1.671980 0.000000 0.000000 
#    y 0.000000 1.668530 0.000000 
#    z 0.000000 0.000000 1.648920 
# 
# From -- ./inp_files/10559.got.cif
#   From: 2010.05.17/outbox.cif.g08.bks.cpg/sg40_6_cif.got.tgz:10559.got - 2010.06.03 18:35:42.
