data_PCOD9364179
_publ_section_title
;
Structure prediction by ZEFSAII (Michael W. Deem and Ramdas Pophale) SiO2 
 PCOD9364179
Probable space group: A M A 2
;
_chemical_formula_sum "Si O2"
_cell_formula_units_Z 64
_cell_length_a 20.066156
_cell_length_b 10.535249
_cell_length_c 11.672124
_cell_angle_alpha 90.000000
_cell_angle_beta 90.000000
_cell_angle_gamma 90.000000
_cell_volume 2467.509773
_symmetry_space_group_name_H-M "A M A 2"
_symmetry_group_IT_number 40
_symmetry_cell_setting 'orthorhombic'
loop_
_space_group_symop_operation_xyz
x,y,z
-x,-y,z
1/2-x,y,z
1/2+x,-y,z
x,1/2+y,1/2+z
-x,1/2-y,1/2+z
1/2-x,1/2+y,1/2+z
1/2+x,1/2-y,1/2+z
loop_
_atom_site_type_symbol
_atom_site_label
_atom_site_fract_x
_atom_site_fract_y
_atom_site_fract_z
Si Si1 0.496055 0.349810 0.334980
Si Si2 0.168334 0.985363 0.200715
Si Si3 0.998415 0.295593 0.072197
Si Si4 0.148898 0.124586 0.519560
Si Si5 0.672531 0.782241 0.769866
Si Si6 0.674100 0.423871 0.468844
Si Si7 0.347549 0.353124 0.074631
Si Si8 0.349430 0.256480 0.304922
O O1 0.500000 0.500000 0.319878
O O2 0.518791 0.281290 0.211554
O O3 0.514185 0.305723 0.467086
O O4 0.418516 0.317729 0.334526
O O5 0.250000 0.992520 0.201125
O O6 0.141297 0.116008 0.250725
O O7 0.146168 0.861189 0.268362
O O8 0.145527 0.986327 0.067508
O O9 0.071817 0.357097 0.080680
O O10 0.932329 0.365347 0.023384
O O11 0.171219 0.171105 0.642065
O O12 0.179696 0.217704 0.425899
O O13 0.171861 0.979444 0.508380
O O14 0.750000 0.772703 0.804934
O O15 0.639621 0.890058 0.849115
O O16 0.750000 0.469528 0.449893
O O17 0.674373 0.280266 0.520482
O O18 0.320870 0.343418 0.204679
#
# Coordination Sequence:
#
# PCOD9364179 Si02
#       8
#     8   8   8   8   8   8   8   8
#     4  10  21  42  61  87 127 159 203 258 308 370
#     4   9  18  37  61  82 117 158 195 249 302 358
#     4  10  22  40  60  90 119 165 209 245 317 375
#     4  11  22  36  57  84 120 154 197 250 296 369
#     4  10  22  37  55  87 123 156 197 249 307 363
#     4   9  19  36  58  85 111 148 203 242 291 366
#     4  10  20  38  60  82 114 158 193 249 308 351
#     4   9  20  38  56  86 114 147 201 246 292 368
#
# _framework density 25.937080999999999
#
# number of rings (size 3 to 8) (size 9 to 14) (size 15 to 20)
#    0.000    2.250    0.000    2.625    1.750    2.000 
#   13.500    1.875    0.000    0.000    0.000    0.000 
#    0.000    0.000    0.000    0.000    0.000    0.000 
#
# Total GULP energy -178384.722557 kJ/mol
# GULP energy per Si atom -5574.522580 kJ/mol
# Density = 2.587805 g / cm^3
# Si number density = 25.937081 Si / 1000 Ang^3
#
#
#
# Elastic Constant Matrix: (Units=GPa)
#
#
# Indices 1 2 3 4 5 6 
#
# 1 113.7824 39.4663 16.9507 0.0000 0.0000 0.0000
# 2 39.4663 79.8741 32.5268 0.0000 0.0000 0.0000
# 3 16.9507 32.5268 194.0919 0.0000 0.0000 0.0000
# 4 0.0000 0.0000 0.0000 9.2376 0.0000 0.0000
# 5 0.0000 0.0000 0.0000 0.0000 -6.0609 0.0000
# 6 0.0000 0.0000 0.0000 0.0000 0.0000 -58.1096
#
#
#
# Elastic Compliance Matrix: (Units=1/GPa)
#
#
# Indices 1 2 3 4 5 6 
#
# 1 0.010607 -0.005220 -0.000052 0.000000 0.000000 0.000000
# 2 -0.005220 0.016006 -0.002226 0.000000 0.000000 0.000000
# 3 -0.000052 -0.002226 0.005530 0.000000 0.000000 0.000000
# 4 0.000000 0.000000 0.000000 0.108253 0.000000 0.000000
# 5 0.000000 0.000000 0.000000 0.000000 -0.164992 0.000000
# 6 0.000000 0.000000 0.000000 0.000000 0.000000 -0.017209
#
#
# Mechanical properties :
#
#
# Convention : Reuss Voigt Hill
#
# Bulk Modulus (GPa) = 58.32099 62.84843 60.58471
# Shear Modulus (GPa) = -237.02897 8.93373 -114.04762
#
# Velocity S-wave (km/s) = -9.56998 1.85792 -6.63825
# Velocity P-wave (km/s) = 9.97889 5.37459 5.94526
#
# Compressibility (1/GPa) = 0.01714649
#
# Stress axis : x y z
#
# Youngs Moduli (GPa) = 94.27757 62.47817 180.83794
#
# Poissons Ratio (x) = 0.32613 0.00932
# Poissons Ratio (y) = 0.49213 0.40262
# Poissons Ratio (z) = 0.00486 0.13910
#
# Static dielectric constant tensor:
#      x y z
#    x 1.932990 0.000000 0.000000 
#    y 0.000000 2.037460 0.000000 
#    z 0.000000 0.000000 2.175680 
# 
# From -- ./inp_files/14058.got.cif
#   From: 2010.05.17/outbox.cif.g08.bks.cpg/sg40_8_cif.got.tgz:14058.got - 2010.06.03 18:35:42.
