data_PCOD9364858
_publ_section_title
;
Structure prediction by ZEFSAII (Michael W. Deem and Ramdas Pophale) SiO2 
 PCOD9364858
Probable space group: A M A 2
;
_chemical_formula_sum "Si O2"
_cell_formula_units_Z 56
_cell_length_a 14.288490
_cell_length_b 12.562891
_cell_length_c 12.689336
_cell_angle_alpha 90.000000
_cell_angle_beta 90.000000
_cell_angle_gamma 90.000000
_cell_volume 2277.795990
_symmetry_space_group_name_H-M "A M A 2"
_symmetry_group_IT_number 40
_symmetry_cell_setting 'orthorhombic'
loop_
_space_group_symop_operation_xyz
x,y,z
-x,-y,z
1/2-x,y,z
1/2+x,-y,z
x,1/2+y,1/2+z
-x,1/2-y,1/2+z
1/2-x,1/2+y,1/2+z
1/2+x,1/2-y,1/2+z
loop_
_atom_site_type_symbol
_atom_site_label
_atom_site_fract_x
_atom_site_fract_y
_atom_site_fract_z
Si Si1 0.610247 0.512846 0.476850
Si Si2 0.640072 0.636619 0.860851
Si Si3 0.352647 0.563849 0.706683
Si Si4 0.002359 0.750598 0.745328
Si Si5 0.638910 0.971377 0.524557
Si Si6 0.141738 0.753198 0.052466
Si Si7 0.356929 0.948061 0.750516
O O1 0.500000 0.500000 0.481768
O O2 0.647000 0.453992 0.580726
O O3 0.636717 0.636853 0.491205
O O4 0.640894 0.486023 0.358724
O O5 0.750000 0.666104 0.872126
O O6 0.634816 0.550312 0.764612
O O7 0.571646 0.733769 0.839055
O O8 0.600517 0.569622 0.959422
O O9 0.250000 0.603088 0.739691
O O10 0.431362 0.647310 0.736795
O O11 0.068230 0.852976 0.754647
O O12 0.935642 0.748236 0.643027
O O13 0.750000 0.984882 0.511189
O O14 0.620390 0.852654 0.485586
O O15 0.618807 0.982495 0.647900
O O16 0.250000 0.742331 0.092610
O O17 0.250000 0.908134 0.735904
#
# Coordination Sequence:
#
# PCOD9364858 Si02
#       7
#     8   8   8   8   8   8   8
#     4  12  24  45  71 103 139 182 237 292 355 421
#     4  10  21  43  72 101 137 178 233 298 349 408
#     4  11  22  43  69  99 137 179 231 292 354 411
#     4  12  24  41  69 109 139 179 233 289 351 426
#     4   9  23  47  71  97 137 189 234 281 348 419
#     4  11  23  44  73 103 138 184 236 288 352 425
#     4  11  27  48  68 100 148 192 231 286 351 424
#
# _framework density 24.585169
#
# number of rings (size 3 to 8) (size 9 to 14) (size 15 to 20)
#    0.000    1.143    2.857    2.571    4.000    1.143 
#    2.571    0.000    0.000    0.000    0.000    0.000 
#    0.000    0.000    0.000    0.000    0.000    0.000 
#
# Total GULP energy -156782.024669 kJ/mol
# GULP energy per Si atom -5599.358024 kJ/mol
# Density = 2.452921 g / cm^3
# Si number density = 24.585169 Si / 1000 Ang^3
#
#
#
# Elastic Constant Matrix: (Units=GPa)
#
#
# Indices 1 2 3 4 5 6 
#
# 1 172.0805 43.0781 8.1420 0.0000 0.0000 0.0000
# 2 43.0781 86.7946 3.6089 0.0000 0.0000 0.0000
# 3 8.1420 3.6089 117.9236 0.0000 0.0000 0.0000
# 4 0.0000 0.0000 0.0000 11.8293 0.0000 0.0000
# 5 0.0000 0.0000 0.0000 0.0000 81.8893 0.0000
# 6 0.0000 0.0000 0.0000 0.0000 0.0000 -40.8440
#
#
#
# Elastic Compliance Matrix: (Units=1/GPa)
#
#
# Indices 1 2 3 4 5 6 
#
# 1 0.006651 -0.003286 -0.000359 0.000000 0.000000 0.000000
# 2 -0.003286 0.013160 -0.000176 0.000000 0.000000 0.000000
# 3 -0.000359 -0.000176 0.008510 0.000000 0.000000 0.000000
# 4 0.000000 0.000000 0.000000 0.084536 0.000000 0.000000
# 5 0.000000 0.000000 0.000000 0.000000 0.012212 0.000000
# 6 0.000000 0.000000 0.000000 0.000000 0.000000 -0.024483
#
#
# Mechanical properties :
#
#
# Convention : Reuss Voigt Hill
#
# Bulk Modulus (GPa) = 48.35667 54.05074 51.20370
# Shear Modulus (GPa) = 43.43320 32.03956 37.73638
#
# Velocity S-wave (km/s) = 4.20770 3.61391 3.92206
# Velocity P-wave (km/s) = 6.58165 6.28066 6.43291
#
# Compressibility (1/GPa) = 0.02067967
#
# Stress axis : x y z
#
# Youngs Moduli (GPa) = 150.35739 75.98954 117.50591
#
# Poissons Ratio (x) = 0.24970 0.04214
# Poissons Ratio (y) = 0.49408 0.02066
# Poissons Ratio (z) = 0.05392 0.01336
#
# Static dielectric constant tensor:
#      x y z
#    x 1.937760 0.000000 0.000000 
#    y 0.000000 1.944150 0.000000 
#    z 0.000000 0.000000 1.997780 
# 
# From -- ./inp_files/12249.got.cif
#   From: 2010.05.17/outbox.cif.g08.bks.cpg/sg40_7_cif.got.tgz:12249.got - 2010.06.03 18:35:42.
