data_PCOD9364049
_publ_section_title
;
Structure prediction by ZEFSAII (Michael W. Deem and Ramdas Pophale) SiO2 
 PCOD9364049
Probable space group: A M A 2
;
_chemical_formula_sum "Si O2"
_cell_formula_units_Z 64
_cell_length_a 14.809483
_cell_length_b 9.406289
_cell_length_c 23.102109
_cell_angle_alpha 90.000000
_cell_angle_beta 90.000000
_cell_angle_gamma 90.000000
_cell_volume 3218.176388
_symmetry_space_group_name_H-M "A M A 2"
_symmetry_group_IT_number 40
_symmetry_cell_setting 'orthorhombic'
loop_
_space_group_symop_operation_xyz
x,y,z
-x,-y,z
1/2-x,y,z
1/2+x,-y,z
x,1/2+y,1/2+z
-x,1/2-y,1/2+z
1/2-x,1/2+y,1/2+z
1/2+x,1/2-y,1/2+z
loop_
_atom_site_type_symbol
_atom_site_label
_atom_site_fract_x
_atom_site_fract_y
_atom_site_fract_z
Si Si1 0.649138 0.117619 0.235840
Si Si2 0.855838 0.459856 0.392590
Si Si3 0.649180 0.344876 0.519731
Si Si4 0.521983 0.852057 0.785163
Si Si5 0.644796 0.779113 0.439491
Si Si6 0.404092 0.922459 0.109101
Si Si7 0.477334 0.160343 0.549512
Si Si8 0.645023 0.345567 0.814333
O O1 0.750000 0.164868 0.251220
O O2 0.580339 0.243507 0.248027
O O3 0.646489 0.068194 0.169527
O O4 0.626420 0.983958 0.276379
O O5 0.750000 0.459026 0.374228
O O6 0.863919 0.370097 0.451526
O O7 0.920362 0.398612 0.342533
O O8 0.876499 0.620390 0.415016
O O9 0.750000 0.289973 0.529696
O O10 0.639337 0.493473 0.554986
O O11 0.571832 0.241586 0.541393
O O12 0.428154 0.773682 0.799438
O O13 0.500000 0.000000 0.754204
O O14 0.750000 0.776942 0.458546
O O15 0.578574 0.829051 0.489576
O O16 0.637239 0.876909 0.382612
O O17 0.420628 0.758450 0.093294
O O18 0.500000 0.000000 0.117683
O O19 0.500000 0.000000 0.565982
O O20 0.750000 0.300968 0.804469
#
# Coordination Sequence:
#
# PCOD9364049 Si02
#       8
#     8   8   8   8   8   8   8   8
#     4  11  25  44  65  91 121 161 214 260 310 373
#     4  10  20  36  61  93 127 163 211 255 301 365
#     4  10  21  38  64  92 122 164 212 258 301 363
#     4  12  23  36  62  89 126 164 205 256 312 369
#     4  10  20  37  61  91 130 170 207 251 311 373
#     4  10  21  41  67  88 119 162 215 255 304 368
#     4  11  24  38  61  96 130 162 199 256 323 381
#     4  10  22  39  59  87 126 168 210 257 308 366
#
# _framework density 19.887039000000001
#
# number of rings (size 3 to 8) (size 9 to 14) (size 15 to 20)
#    0.000    1.500    2.500    2.625    0.000    4.000 
#    0.000    2.500    0.000    0.000    0.000    0.000 
#    0.000    0.000    0.000    0.000    0.000    0.000 
#
# Total GULP energy -178729.116465 kJ/mol
# GULP energy per Si atom -5585.284890 kJ/mol
# Density = 1.984178 g / cm^3
# Si number density = 19.887039 Si / 1000 Ang^3
#
#
#
# Elastic Constant Matrix: (Units=GPa)
#
#
# Indices 1 2 3 4 5 6 
#
# 1 82.4324 33.9899 14.4915 0.0000 0.0000 0.0000
# 2 33.9899 90.8601 26.5864 0.0000 0.0000 0.0000
# 3 14.4915 26.5864 60.1377 0.0000 0.0000 0.0000
# 4 0.0000 0.0000 0.0000 22.7688 0.0000 0.0000
# 5 0.0000 0.0000 0.0000 0.0000 22.8401 0.0000
# 6 0.0000 0.0000 0.0000 0.0000 0.0000 23.4450
#
#
#
# Elastic Compliance Matrix: (Units=1/GPa)
#
#
# Indices 1 2 3 4 5 6 
#
# 1 0.014425 -0.005030 -0.001252 0.000000 0.000000 0.000000
# 2 -0.005030 0.014395 -0.005152 0.000000 0.000000 0.000000
# 3 -0.001252 -0.005152 0.019208 0.000000 0.000000 0.000000
# 4 0.000000 0.000000 0.000000 0.043920 0.000000 0.000000
# 5 0.000000 0.000000 0.000000 0.000000 0.043783 0.000000
# 6 0.000000 0.000000 0.000000 0.000000 0.000000 0.042653
#
#
# Mechanical properties :
#
#
# Convention : Reuss Voigt Hill
#
# Bulk Modulus (GPa) = 39.74578 42.61841 41.18210
# Shear Modulus (GPa) = 23.85053 24.36826 24.10939
#
# Velocity S-wave (km/s) = 3.46685 3.50427 3.48561
# Velocity P-wave (km/s) = 6.00454 6.15224 6.07884
#
# Compressibility (1/GPa) = 0.02515990
#
# Stress axis : x y z
#
# Youngs Moduli (GPa) = 69.32243 69.46837 52.06189
#
# Poissons Ratio (x) = 0.34942 0.06520
# Poissons Ratio (y) = 0.34869 0.26822
# Poissons Ratio (z) = 0.08682 0.35789
#
# Static dielectric constant tensor:
#      x y z
#    x 1.713750 0.000000 0.000000 
#    y 0.000000 1.704410 0.000000 
#    z 0.000000 0.000000 1.689610 
# 
# From -- ./inp_files/24781.got.cif
#   From: 2010.05.17/outbox.cif.g08.bks.cpg/sg40_13_cif.got.tgz:24781.got - 2010.06.03 18:35:42.
