data_PCOD9364554
_publ_section_title
;
Structure prediction by ZEFSAII (Michael W. Deem and Ramdas Pophale) SiO2 
 PCOD9364554
Probable space group: A M A 2
;
_chemical_formula_sum "Si O2"
_cell_formula_units_Z 48
_cell_length_a 14.185896
_cell_length_b 27.987757
_cell_length_c 5.393457
_cell_angle_alpha 90.000000
_cell_angle_beta 90.000000
_cell_angle_gamma 90.000000
_cell_volume 2141.371838
_symmetry_space_group_name_H-M "A M A 2"
_symmetry_group_IT_number 40
_symmetry_cell_setting 'orthorhombic'
loop_
_space_group_symop_operation_xyz
x,y,z
-x,-y,z
1/2-x,y,z
1/2+x,-y,z
x,1/2+y,1/2+z
-x,1/2-y,1/2+z
1/2-x,1/2+y,1/2+z
1/2+x,1/2-y,1/2+z
loop_
_atom_site_type_symbol
_atom_site_label
_atom_site_fract_x
_atom_site_fract_y
_atom_site_fract_z
Si Si1 0.402184 0.972268 0.785630
Si Si2 0.351741 0.021895 0.283633
Si Si3 0.994163 0.187519 0.188830
Si Si4 0.352792 0.155260 0.807060
Si Si5 0.644703 0.252569 0.948877
Si Si6 0.520228 0.902952 0.509534
O O1 0.439024 0.920791 0.695596
O O2 0.500000 0.000000 0.793927
O O3 0.350945 0.993925 0.544891
O O4 0.359289 0.985004 0.052121
O O5 0.250000 0.046942 0.251341
O O6 0.442397 0.057584 0.309723
O O7 0.059702 0.232760 0.266444
O O8 0.986106 0.146830 0.394796
O O9 0.894992 0.207217 0.095697
O O10 0.060623 0.162978 0.987263
O O11 0.250000 0.150838 0.927348
O O12 0.349444 0.201528 0.629640
O O13 0.382178 0.109021 0.651620
O O14 0.750000 0.245781 0.842430
#
# Coordination Sequence:
#
# PCOD9364554 Si02
#       6
#     8   8   8   8   8   8
#     4  10  22  41  64  90 126 175 212 264 341 411
#     4  11  23  41  66  95 129 171 222 279 341 409
#     4  11  21  39  64  93 132 176 216 281 333 399
#     4  10  21  37  64  97 129 165 217 281 339 401
#     4  10  21  39  61  93 129 175 224 263 332 409
#     4  10  24  39  64  94 131 167 224 277 342 403
#
# _framework density 22.415534999999998
#
# number of rings (size 3 to 8) (size 9 to 14) (size 15 to 20)
#    0.000    1.667    1.667    3.000    7.000    2.000 
#    0.000    1.667    0.000    0.000    0.000    0.000 
#    0.000    0.000    0.000    0.000    0.000    0.000 
#
# Total GULP energy -133828.535988 kJ/mol
# GULP energy per Si atom -5576.188999 kJ/mol
# Density = 2.236452 g / cm^3
# Si number density = 22.415535 Si / 1000 Ang^3
#
#
#
# Elastic Constant Matrix: (Units=GPa)
#
#
# Indices 1 2 3 4 5 6 
#
# 1 80.4853 27.7907 19.7701 0.0000 0.0000 0.0000
# 2 27.7907 76.4705 23.7436 0.0000 0.0000 0.0000
# 3 19.7701 23.7436 89.5125 0.0000 0.0000 0.0000
# 4 0.0000 0.0000 0.0000 32.8062 0.0000 0.0000
# 5 0.0000 0.0000 0.0000 0.0000 20.0102 0.0000
# 6 0.0000 0.0000 0.0000 0.0000 0.0000 26.1669
#
#
#
# Elastic Compliance Matrix: (Units=1/GPa)
#
#
# Indices 1 2 3 4 5 6 
#
# 1 0.014519 -0.004665 -0.001969 0.000000 0.000000 0.000000
# 2 -0.004665 0.015750 -0.003147 0.000000 0.000000 0.000000
# 3 -0.001969 -0.003147 0.012441 0.000000 0.000000 0.000000
# 4 0.000000 0.000000 0.000000 0.030482 0.000000 0.000000
# 5 0.000000 0.000000 0.000000 0.000000 0.049975 0.000000
# 6 0.000000 0.000000 0.000000 0.000000 0.000000 0.038216
#
#
# Mechanical properties :
#
#
# Convention : Reuss Voigt Hill
#
# Bulk Modulus (GPa) = 43.20262 43.23078 43.21670
# Shear Modulus (GPa) = 26.50245 27.47425 26.98835
#
# Velocity S-wave (km/s) = 3.44223 3.50477 3.47364
# Velocity P-wave (km/s) = 5.92570 5.97543 5.95062
#
# Compressibility (1/GPa) = 0.02314674
#
# Stress axis : x y z
#
# Youngs Moduli (GPa) = 68.87445 63.49399 80.37671
#
# Poissons Ratio (x) = 0.29620 0.15829
# Poissons Ratio (y) = 0.32130 0.25297
# Poissons Ratio (z) = 0.13564 0.19983
#
# Static dielectric constant tensor:
#      x y z
#    x 1.255660 0.000000 0.000000 
#    y 0.000000 1.880140 0.000000 
#    z 0.000000 0.000000 1.949070 
# 
# From -- ./inp_files/1420.got.cif
#   From: 2010.05.17/outbox.cif.g08.bks.cpg/sg40_1_cif.got.tgz:1420.got - 2010.06.03 18:35:42.
