data_PCOD9364371
_publ_section_title
;
Structure prediction by ZEFSAII (Michael W. Deem and Ramdas Pophale) SiO2 
 PCOD9364371
Probable space group: A M A 2
;
_chemical_formula_sum "Si O2"
_cell_formula_units_Z 44
_cell_length_a 19.209555
_cell_length_b 7.936355
_cell_length_c 14.069899
_cell_angle_alpha 90.000000
_cell_angle_beta 90.000000
_cell_angle_gamma 90.000000
_cell_volume 2145.010242
_symmetry_space_group_name_H-M "A M A 2"
_symmetry_group_IT_number 40
_symmetry_cell_setting 'orthorhombic'
loop_
_space_group_symop_operation_xyz
x,y,z
-x,-y,z
1/2-x,y,z
1/2+x,-y,z
x,1/2+y,1/2+z
-x,1/2-y,1/2+z
1/2-x,1/2+y,1/2+z
1/2+x,1/2-y,1/2+z
loop_
_atom_site_type_symbol
_atom_site_label
_atom_site_fract_x
_atom_site_fract_y
_atom_site_fract_z
Si Si1 0.168101 0.824651 0.779690
Si Si2 0.077189 0.155406 0.824173
Si Si3 0.616580 0.086012 0.581983
Si Si4 0.500000 0.500000 0.497037
Si Si5 0.034199 0.226140 0.626858
Si Si6 0.168307 0.966311 0.370212
O O1 0.250000 0.853010 0.800568
O O2 0.157765 0.818897 0.665322
O O3 0.146156 0.651653 0.832703
O O4 0.121347 0.984138 0.810171
O O5 0.038387 0.124518 0.923423
O O6 0.023413 0.201477 0.739735
O O7 0.127253 0.315889 0.820550
O O8 0.538660 0.163130 0.582449
O O9 0.653060 0.071117 0.480963
O O10 0.599846 0.893648 0.610121
O O11 0.451745 0.398761 0.571395
O O12 0.250000 0.954330 0.351434
#
# Coordination Sequence:
#
# PCOD9364371 Si02
#       6
#     8   8   8   4   8   8
#     4  10  22  40  62  88 123 166 212 263 319 384
#     4  11  23  41  62  91 128 165 213 265 323 389
#     4  10  20  42  58  88 126 163 211 266 320 387
#     4  12  22  42  62  94 130 166 208 274 326 386
#     4  10  23  38  62  90 124 166 210 264 330 380
#     4  11  23  39  64  93 123 169 214 261 324 386
#
# _framework density 20.512723000000001
#
# number of rings (size 3 to 8) (size 9 to 14) (size 15 to 20)
#    0.000    1.455    1.818    4.364    2.545    0.000 
#    0.000    0.000    0.000    8.727    0.000    0.000 
#    0.000    0.000    0.000    0.000    0.000    0.000 
#
# Total GULP energy -122598.439328 kJ/mol
# GULP energy per Si atom -5572.656333 kJ/mol
# Density = 2.046604 g / cm^3
# Si number density = 20.512723 Si / 1000 Ang^3
#
#
#
# Elastic Constant Matrix: (Units=GPa)
#
#
# Indices 1 2 3 4 5 6 
#
# 1 53.2316 25.9254 27.4401 0.0000 0.0000 0.0000
# 2 25.9254 83.0424 79.1006 0.0000 0.0000 0.0000
# 3 27.4401 79.1006 122.6551 0.0000 0.0000 0.0000
# 4 0.0000 0.0000 0.0000 52.6457 0.0000 0.0000
# 5 0.0000 0.0000 0.0000 0.0000 17.8628 0.0000
# 6 0.0000 0.0000 0.0000 0.0000 0.0000 23.0170
#
#
#
# Elastic Compliance Matrix: (Units=1/GPa)
#
#
# Indices 1 2 3 4 5 6 
#
# 1 0.022233 -0.005712 -0.001290 0.000000 0.000000 0.000000
# 2 -0.005712 0.032688 -0.019803 0.000000 0.000000 0.000000
# 3 -0.001290 -0.019803 0.021212 0.000000 0.000000 0.000000
# 4 0.000000 0.000000 0.000000 0.018995 0.000000 0.000000
# 5 0.000000 0.000000 0.000000 0.000000 0.055982 0.000000
# 6 0.000000 0.000000 0.000000 0.000000 0.000000 0.043446
#
#
# Mechanical properties :
#
#
# Convention : Reuss Voigt Hill
#
# Bulk Modulus (GPa) = 44.39827 58.20683 51.30255
# Shear Modulus (GPa) = 19.55616 27.13597 23.34606
#
# Velocity S-wave (km/s) = 3.09101 3.64109 3.37727
# Velocity P-wave (km/s) = 5.86774 6.79075 6.34605
#
# Compressibility (1/GPa) = 0.02252340
#
# Stress axis : x y z
#
# Youngs Moduli (GPa) = 44.97853 30.59230 47.14236
#
# Poissons Ratio (x) = 0.17474 0.06082
# Poissons Ratio (y) = 0.25692 0.93354
# Poissons Ratio (z) = 0.05803 0.60581
#
# Static dielectric constant tensor:
#      x y z
#    x 1.708690 0.000000 0.000000 
#    y 0.000000 1.802570 0.000000 
#    z 0.000000 0.000000 1.813290 
# 
# From -- ./inp_files/17523.got.cif
#   From: 2010.05.17/outbox.cif.g08.bks.cpg/sg40_9_cif.got.tgz:17523.got - 2010.06.03 18:35:42.
