data_PCOD9364865
_publ_section_title
;
Structure prediction by ZEFSAII (Michael W. Deem and Ramdas Pophale) SiO2 
 PCOD9364865
Probable space group: A M A 2
;
_chemical_formula_sum "Si O2"
_cell_formula_units_Z 48
_cell_length_a 15.063954
_cell_length_b 16.695439
_cell_length_c 8.308276
_cell_angle_alpha 90.000000
_cell_angle_beta 90.000000
_cell_angle_gamma 90.000000
_cell_volume 2089.525807
_symmetry_space_group_name_H-M "A M A 2"
_symmetry_group_IT_number 40
_symmetry_cell_setting 'orthorhombic'
loop_
_space_group_symop_operation_xyz
x,y,z
-x,-y,z
1/2-x,y,z
1/2+x,-y,z
x,1/2+y,1/2+z
-x,1/2-y,1/2+z
1/2-x,1/2+y,1/2+z
1/2+x,1/2-y,1/2+z
loop_
_atom_site_type_symbol
_atom_site_label
_atom_site_fract_x
_atom_site_fract_y
_atom_site_fract_z
Si Si1 0.750000 0.444033 0.116720
Si Si2 0.415135 0.807761 0.891991
Si Si3 0.750000 0.093547 0.383367
Si Si4 0.353094 0.006981 0.172996
Si Si5 0.572841 0.331542 0.641313
Si Si6 0.250000 0.729366 0.071057
Si Si7 0.598404 0.020776 0.807659
Si Si8 0.750000 0.273244 0.459121
O O1 0.750000 0.362941 0.016529
O O2 0.664387 0.458452 0.225944
O O3 0.750000 0.519391 0.001176
O O4 0.444057 0.737088 0.772245
O O5 0.384516 0.884596 0.786639
O O6 0.495323 0.833575 0.008790
O O7 0.334891 0.774996 0.001288
O O8 0.662033 0.074497 0.274982
O O9 0.750000 0.177008 0.470698
O O10 0.250000 0.033070 0.156762
O O11 0.410566 0.082746 0.228555
O O12 0.389715 0.989089 0.997939
O O13 0.662935 0.308932 0.544224
O O14 0.250000 0.718206 0.264453
O O15 0.500000 0.000000 0.754787
#
# Coordination Sequence:
#
# PCOD9364865 Si02
#       8
#     4   8   4   8   8   4   8   4
#     4  12  24  44  68 100 136 174 216 284 340 390
#     4  12  27  43  66 103 134 179 229 283 330 403
#     4  10  22  40  68  98 130 174 220 274 338 382
#     4  10  21  45  68  92 125 180 223 259 326 410
#     4  12  24  44  67  98 140 177 225 275 338 394
#     4  12  26  44  72  98 136 176 226 280 344 400
#     4  12  24  43  70  97 134 180 229 270 327 405
#     4  12  22  42  70  98 136 180 214 282 334 406
#
# _framework density 22.971717999999999
#
# number of rings (size 3 to 8) (size 9 to 14) (size 15 to 20)
#    0.500    0.000    3.333    6.000    2.333    0.000 
#    0.000    0.833    0.000    0.000    0.000    0.000 
#    0.000    0.000    0.000    0.000    0.000    0.000 
#
# Total GULP energy -134209.585386 kJ/mol
# GULP energy per Si atom -5592.066058 kJ/mol
# Density = 2.291943 g / cm^3
# Si number density = 22.971718 Si / 1000 Ang^3
#
#
#
# Elastic Constant Matrix: (Units=GPa)
#
#
# Indices 1 2 3 4 5 6 
#
# 1 132.5791 12.3193 15.9024 0.0000 0.0000 0.0000
# 2 12.3193 110.7940 -6.7384 0.0000 0.0000 0.0000
# 3 15.9024 -6.7384 39.2585 0.0000 0.0000 0.0000
# 4 0.0000 0.0000 0.0000 36.3208 0.0000 0.0000
# 5 0.0000 0.0000 0.0000 0.0000 -11.4858 0.0000
# 6 0.0000 0.0000 0.0000 0.0000 0.0000 -1.0271
#
#
#
# Elastic Compliance Matrix: (Units=1/GPa)
#
#
# Indices 1 2 3 4 5 6 
#
# 1 0.008060 -0.001106 -0.003455 0.000000 0.000000 0.000000
# 2 -0.001106 0.009273 0.002040 0.000000 0.000000 0.000000
# 3 -0.003455 0.002040 0.027222 0.000000 0.000000 0.000000
# 4 0.000000 0.000000 0.000000 0.027532 0.000000 0.000000
# 5 0.000000 0.000000 0.000000 0.000000 -0.087064 0.000000
# 6 0.000000 0.000000 0.000000 0.000000 0.000000 -0.973653
#
#
# Mechanical properties :
#
#
# Convention : Reuss Voigt Hill
#
# Bulk Modulus (GPa) = 25.30887 36.17758 30.74323
# Shear Modulus (GPa) = -5.15242 22.17148 8.50953
#
# Velocity S-wave (km/s) = -1.49927 3.11008 1.92676
# Velocity P-wave (km/s) = 2.83624 5.35535 4.28509
#
# Compressibility (1/GPa) = 0.03951183
#
# Stress axis : x y z
#
# Youngs Moduli (GPa) = 124.07190 107.84204 36.73546
#
# Poissons Ratio (x) = 0.11930 0.12691
# Poissons Ratio (y) = 0.13726 -0.07493
# Poissons Ratio (z) = 0.42863 -0.21997
#
# Static dielectric constant tensor:
#      x y z
#    x 1.925460 0.000000 0.000000 
#    y 0.000000 1.950560 0.000000 
#    z 0.000000 0.000000 1.895290 
# 
# From -- ./inp_files/6552.got.cif
#   From: 2010.05.17/outbox.cif.g08.bks.cpg/sg40_4_cif.got.tgz:6552.got - 2010.06.03 18:35:42.
