data_PCOD9364352
_publ_section_title
;
Structure prediction by ZEFSAII (Michael W. Deem and Ramdas Pophale) SiO2 
 PCOD9364352
Probable space group: A M A 2
;
_chemical_formula_sum "Si O2"
_cell_formula_units_Z 64
_cell_length_a 18.289028
_cell_length_b 12.307232
_cell_length_c 13.886928
_cell_angle_alpha 90.000000
_cell_angle_beta 90.000000
_cell_angle_gamma 90.000000
_cell_volume 3125.771277
_symmetry_space_group_name_H-M "A M A 2"
_symmetry_group_IT_number 40
_symmetry_cell_setting 'orthorhombic'
loop_
_space_group_symop_operation_xyz
x,y,z
-x,-y,z
1/2-x,y,z
1/2+x,-y,z
x,1/2+y,1/2+z
-x,1/2-y,1/2+z
1/2-x,1/2+y,1/2+z
1/2+x,1/2-y,1/2+z
loop_
_atom_site_type_symbol
_atom_site_label
_atom_site_fract_x
_atom_site_fract_y
_atom_site_fract_z
Si Si1 0.947818 0.735494 0.979520
Si Si2 0.833485 0.641844 0.413229
Si Si3 0.164711 0.954687 0.464121
Si Si4 0.493894 0.377368 0.658848
Si Si5 0.829890 0.161114 0.140378
Si Si6 0.423209 0.058727 0.842354
Si Si7 0.670344 0.416315 0.163176
Si Si8 0.422596 0.641926 0.860917
O O1 0.877170 0.658221 0.982035
O O2 0.929739 0.832326 0.904586
O O3 0.011541 0.659396 0.936409
O O4 0.977777 0.792149 0.077829
O O5 0.750000 0.656916 0.384851
O O6 0.837801 0.632969 0.528458
O O7 0.865107 0.528168 0.379411
O O8 0.877097 0.746249 0.373796
O O9 0.250000 0.939123 0.438013
O O10 0.161659 0.017200 0.565964
O O11 0.124430 0.036018 0.389430
O O12 0.500000 0.500000 0.618303
O O13 0.408064 0.365711 0.687116
O O14 0.542914 0.367389 0.754655
O O15 0.750000 0.119096 0.176644
O O16 0.824968 0.290211 0.139898
O O17 0.397663 0.076229 0.733761
O O18 0.500000 0.000000 0.846630
O O19 0.750000 0.447758 0.206750
#
# Coordination Sequence:
#
# PCOD9364352 Si02
#       8
#     8   8   8   8   8   8   8   8
#     4  12  25  43  69  99 140 177 227 292 352 415
#     4  11  22  41  69  96 131 179 229 277 338 412
#     4  11  25  46  68  98 137 177 230 291 350 411
#     4  12  25  44  66 103 140 179 233 285 351 424
#     4  10  20  40  69  96 129 176 226 278 338 410
#     4  12  24  41  64  99 137 175 218 278 344 409
#     4  10  22  40  65  96 127 166 222 279 333 403
#     4  12  24  44  70  99 132 185 233 286 347 418
#
# _framework density 20.474947
#
# number of rings (size 3 to 8) (size 9 to 14) (size 15 to 20)
#    0.000    0.750    3.750    3.750    1.750    2.000 
#    0.000    5.625    0.000    0.000    0.000    0.000 
#    0.000    0.000    0.000    0.000    0.000    0.000 
#
# Total GULP energy -178761.082635 kJ/mol
# GULP energy per Si atom -5586.283832 kJ/mol
# Density = 2.042835 g / cm^3
# Si number density = 20.474947 Si / 1000 Ang^3
#
#
#
# Elastic Constant Matrix: (Units=GPa)
#
#
# Indices 1 2 3 4 5 6 
#
# 1 149.7960 46.3602 39.6933 0.0000 0.0000 0.0000
# 2 46.3602 69.0426 10.0937 0.0000 0.0000 0.0000
# 3 39.6933 10.0937 78.1100 0.0000 0.0000 0.0000
# 4 0.0000 0.0000 0.0000 24.7536 0.0000 0.0000
# 5 0.0000 0.0000 0.0000 0.0000 25.6186 0.0000
# 6 0.0000 0.0000 0.0000 0.0000 0.0000 46.5941
#
#
#
# Elastic Compliance Matrix: (Units=1/GPa)
#
#
# Indices 1 2 3 4 5 6 
#
# 1 0.009567 -0.005823 -0.004109 0.000000 0.000000 0.000000
# 2 -0.005823 0.018307 0.000593 0.000000 0.000000 0.000000
# 3 -0.004109 0.000593 0.014814 0.000000 0.000000 0.000000
# 4 0.000000 0.000000 0.000000 0.040398 0.000000 0.000000
# 5 0.000000 0.000000 0.000000 0.000000 0.039034 0.000000
# 6 0.000000 0.000000 0.000000 0.000000 0.000000 0.021462
#
#
# Mechanical properties :
#
#
# Convention : Reuss Voigt Hill
#
# Bulk Modulus (GPa) = 41.64892 54.36035 48.00464
# Shear Modulus (GPa) = 29.36636 32.78002 31.07319
#
# Velocity S-wave (km/s) = 3.79127 4.00557 3.89989
# Velocity P-wave (km/s) = 6.28892 6.92821 6.61629
#
# Compressibility (1/GPa) = 0.02401022
#
# Stress axis : x y z
#
# Youngs Moduli (GPa) = 104.52860 54.62365 67.50425
#
# Poissons Ratio (x) = 0.31808 0.27738
# Poissons Ratio (y) = 0.60868 -0.04006
# Poissons Ratio (z) = 0.42952 -0.03241
#
# Static dielectric constant tensor:
#      x y z
#    x 1.794260 0.000000 0.000000 
#    y 0.000000 1.669160 0.000000 
#    z 0.000000 0.000000 1.707030 
# 
# From -- ./inp_files/17885.got.cif
#   From: 2010.05.17/outbox.cif.g08.bks.cpg/sg40_9_cif.got.tgz:17885.got - 2010.06.03 18:35:42.
