data_PCOD9364723
_publ_section_title
;
Structure prediction by ZEFSAII (Michael W. Deem and Ramdas Pophale) SiO2 
 PCOD9364723
Probable space group: A M A 2
;
_chemical_formula_sum "Si O2"
_cell_formula_units_Z 64
_cell_length_a 19.574805
_cell_length_b 21.634576
_cell_length_c 7.871633
_cell_angle_alpha 90.000000
_cell_angle_beta 90.000000
_cell_angle_gamma 90.000000
_cell_volume 3333.578376
_symmetry_space_group_name_H-M "A M A 2"
_symmetry_group_IT_number 40
_symmetry_cell_setting 'orthorhombic'
loop_
_space_group_symop_operation_xyz
x,y,z
-x,-y,z
1/2-x,y,z
1/2+x,-y,z
x,1/2+y,1/2+z
-x,1/2-y,1/2+z
1/2-x,1/2+y,1/2+z
1/2+x,1/2-y,1/2+z
loop_
_atom_site_type_symbol
_atom_site_label
_atom_site_fract_x
_atom_site_fract_y
_atom_site_fract_z
Si Si1 0.675595 0.551905 0.784190
Si Si2 0.467750 0.671450 0.785946
Si Si3 0.039678 0.436826 0.976355
Si Si4 0.327328 0.326683 0.550543
Si Si5 0.429046 0.901014 0.838740
Si Si6 0.423292 0.127452 0.944806
Si Si7 0.670781 0.987450 0.931051
Si Si8 0.076407 0.228309 0.647747
O O1 0.750000 0.548392 0.866667
O O2 0.669590 0.618098 0.688776
O O3 0.671637 0.502762 0.632063
O O4 0.613543 0.544567 0.908868
O O5 0.415910 0.656789 0.632209
O O6 0.522025 0.719094 0.703734
O O7 0.502360 0.606482 0.839878
O O8 0.440213 0.700209 0.962090
O O9 0.049664 0.396187 0.144117
O O10 0.000000 0.500000 0.015289
O O11 0.250000 0.325477 0.484683
O O12 0.383202 0.345214 0.409353
O O13 0.351377 0.263263 0.632873
O O14 0.500711 0.903868 0.939460
O O15 0.380005 0.960579 0.855862
O O16 0.365064 0.077854 0.905444
O O17 0.423791 0.178090 0.796483
O O18 0.750000 0.992003 0.873086
#
# Coordination Sequence:
#
# PCOD9364723 Si02
#       8
#     8   8   8   8   8   8   8   8
#     4   9  19  37  60  85 119 163 208 255 308 375
#     4  12  23  39  64  95 125 165 210 269 315 378
#     4  12  23  36  61  98 127 157 213 270 322 381
#     4  10  21  40  62  86 120 167 216 263 319 374
#     4  11  21  39  63  93 121 166 219 268 314 382
#     4  12  23  40  67  93 129 167 212 267 322 379
#     4  10  22  41  63  90 129 172 209 255 331 396
#     4  12  23  40  64  94 125 167 216 263 316 381
#
# _framework density 19.198588000000001
#
# number of rings (size 3 to 8) (size 9 to 14) (size 15 to 20)
#    0.000    1.000    5.000    3.750    0.000    1.500 
#    0.000    0.625    0.000    0.000    0.000    0.000 
#    0.000    0.000    0.000    0.000    0.000    0.000 
#
# Total GULP energy -178656.498226 kJ/mol
# GULP energy per Si atom -5583.015570 kJ/mol
# Density = 1.915489 g / cm^3
# Si number density = 19.198588 Si / 1000 Ang^3
#
#
#
# Elastic Constant Matrix: (Units=GPa)
#
#
# Indices 1 2 3 4 5 6 
#
# 1 92.5475 32.6408 22.8465 0.0000 0.0000 0.0000
# 2 32.6408 76.8528 13.5866 0.0000 0.0000 0.0000
# 3 22.8465 13.5866 91.9168 0.0000 0.0000 0.0000
# 4 0.0000 0.0000 0.0000 15.3714 0.0000 0.0000
# 5 0.0000 0.0000 0.0000 0.0000 15.2335 0.0000
# 6 0.0000 0.0000 0.0000 0.0000 0.0000 15.9084
#
#
#
# Elastic Compliance Matrix: (Units=1/GPa)
#
#
# Indices 1 2 3 4 5 6 
#
# 1 0.013258 -0.005184 -0.002529 0.000000 0.000000 0.000000
# 2 -0.005184 0.015388 -0.000986 0.000000 0.000000 0.000000
# 3 -0.002529 -0.000986 0.011654 0.000000 0.000000 0.000000
# 4 0.000000 0.000000 0.000000 0.065056 0.000000 0.000000
# 5 0.000000 0.000000 0.000000 0.000000 0.065645 0.000000
# 6 0.000000 0.000000 0.000000 0.000000 0.000000 0.062860
#
#
# Mechanical properties :
#
#
# Convention : Reuss Voigt Hill
#
# Bulk Modulus (GPa) = 43.66499 44.38498 44.02498
# Shear Modulus (GPa) = 19.31307 22.11885 20.71596
#
# Velocity S-wave (km/s) = 3.17513 3.39795 3.28843
# Velocity P-wave (km/s) = 6.01957 6.20998 6.11551
#
# Compressibility (1/GPa) = 0.02290164
#
# Stress axis : x y z
#
# Youngs Moduli (GPa) = 75.42691 64.98634 85.80899
#
# Poissons Ratio (x) = 0.33687 0.21702
# Poissons Ratio (y) = 0.39099 0.08462
# Poissons Ratio (z) = 0.19076 0.06408
#
# Static dielectric constant tensor:
#      x y z
#    x 1.671330 0.000000 0.000000 
#    y 0.000000 1.679500 0.000000 
#    z 0.000000 0.000000 1.685430 
# 
# From -- ./inp_files/7785.got.cif
#   From: 2010.05.17/outbox.cif.g08.bks.cpg/sg40_4_cif.got.tgz:7785.got - 2010.06.03 18:35:42.
