data_PCOD9364820
_publ_section_title
;
Structure prediction by ZEFSAII (Michael W. Deem and Ramdas Pophale) SiO2 
 PCOD9364820
Probable space group: A M A 2
;
_chemical_formula_sum "Si O2"
_cell_formula_units_Z 64
_cell_length_a 17.283695
_cell_length_b 15.706995
_cell_length_c 10.939224
_cell_angle_alpha 90.000000
_cell_angle_beta 90.000000
_cell_angle_gamma 90.000000
_cell_volume 2969.724861
_symmetry_space_group_name_H-M "A M A 2"
_symmetry_group_IT_number 40
_symmetry_cell_setting 'orthorhombic'
loop_
_space_group_symop_operation_xyz
x,y,z
-x,-y,z
1/2-x,y,z
1/2+x,-y,z
x,1/2+y,1/2+z
-x,1/2-y,1/2+z
1/2-x,1/2+y,1/2+z
1/2+x,1/2-y,1/2+z
loop_
_atom_site_type_symbol
_atom_site_label
_atom_site_fract_x
_atom_site_fract_y
_atom_site_fract_z
Si Si1 0.048846 0.210092 0.324890
Si Si2 0.342057 0.144955 0.689161
Si Si3 0.657621 0.213980 0.655769
Si Si4 0.661450 0.950228 0.322854
Si Si5 0.159357 0.469408 0.084736
Si Si6 0.586813 0.024023 0.091144
Si Si7 0.158211 0.633085 0.467783
Si Si8 0.053631 0.783379 0.076293
O O1 0.118193 0.272803 0.285523
O O2 0.094302 0.120473 0.334065
O O3 0.015183 0.244366 0.452871
O O4 0.993742 0.210731 0.205010
O O5 0.250000 0.143682 0.668487
O O6 0.373632 0.050800 0.656392
O O7 0.379362 0.215993 0.605164
O O8 0.356542 0.164284 0.830937
O O9 0.750000 0.212003 0.663162
O O10 0.640122 0.295125 0.568720
O O11 0.626844 0.124196 0.605664
O O12 0.750000 0.915001 0.314811
O O13 0.656945 0.007331 0.442900
O O14 0.643679 0.006413 0.204236
O O15 0.250000 0.464744 0.121152
O O16 0.611896 0.953328 0.992824
O O17 0.500000 0.000000 0.130794
O O18 0.584114 0.121612 0.051288
O O19 0.250000 0.614781 0.477051
#
# Coordination Sequence:
#
# PCOD9364820 Si02
#       8
#     8   8   8   8   8   8   8   8
#     4  12  26  47  67 102 137 188 231 288 349 417
#     4  10  23  43  67  98 138 178 226 290 345 406
#     4  10  21  41  70  99 132 180 233 281 338 410
#     4  11  22  44  72  96 134 182 235 290 346 405
#     4   9  20  39  65 100 133 170 224 285 338 400
#     4  12  25  43  64 100 137 181 227 287 346 421
#     4  10  22  41  66  98 139 184 227 280 347 413
#     4  12  29  45  71  99 145 182 233 286 358 419
#
# _framework density 21.550818
#
# number of rings (size 3 to 8) (size 9 to 14) (size 15 to 20)
#    0.000    1.250    3.750    0.750    7.000    1.500 
#    0.000    0.625    0.000    0.000    0.000    0.000 
#    0.000    0.000    0.000    0.000    0.000    0.000 
#
# Total GULP energy -178689.412222 kJ/mol
# GULP energy per Si atom -5584.044132 kJ/mol
# Density = 2.150177 g / cm^3
# Si number density = 21.550818 Si / 1000 Ang^3
#
#
#
# Elastic Constant Matrix: (Units=GPa)
#
#
# Indices 1 2 3 4 5 6 
#
# 1 48.8896 24.9355 25.0061 0.0000 0.0000 0.0000
# 2 24.9355 134.0597 19.9013 0.0000 0.0000 0.0000
# 3 25.0061 19.9013 70.1461 0.0000 0.0000 0.0000
# 4 0.0000 0.0000 0.0000 21.4785 0.0000 0.0000
# 5 0.0000 0.0000 0.0000 0.0000 27.6832 0.0000
# 6 0.0000 0.0000 0.0000 0.0000 0.0000 11.6113
#
#
#
# Elastic Compliance Matrix: (Units=1/GPa)
#
#
# Indices 1 2 3 4 5 6 
#
# 1 0.026669 -0.003705 -0.008456 0.000000 0.000000 0.000000
# 2 -0.003705 0.008302 -0.001035 0.000000 0.000000 0.000000
# 3 -0.008456 -0.001035 0.017564 0.000000 0.000000 0.000000
# 4 0.000000 0.000000 0.000000 0.046558 0.000000 0.000000
# 5 0.000000 0.000000 0.000000 0.000000 0.036123 0.000000
# 6 0.000000 0.000000 0.000000 0.000000 0.000000 0.086123
#
#
# Mechanical properties :
#
#
# Convention : Reuss Voigt Hill
#
# Bulk Modulus (GPa) = 38.25016 43.64235 40.94626
# Shear Modulus (GPa) = 19.49736 24.37145 21.93440
#
# Velocity S-wave (km/s) = 3.01111 3.36651 3.19376
# Velocity P-wave (km/s) = 5.46593 5.95030 5.71325
#
# Compressibility (1/GPa) = 0.02614368
#
# Stress axis : x y z
#
# Youngs Moduli (GPa) = 37.49655 120.45100 56.93502
#
# Poissons Ratio (x) = 0.44630 0.48144
# Poissons Ratio (y) = 0.13893 0.05890
# Poissons Ratio (z) = 0.31707 0.12461
#
# Static dielectric constant tensor:
#      x y z
#    x 1.808000 0.000000 0.000000 
#    y 0.000000 1.780330 0.000000 
#    z 0.000000 0.000000 1.805940 
# 
# From -- ./inp_files/13123.got.cif
#   From: 2010.05.17/outbox.cif.g08.bks.cpg/sg40_7_cif.got.tgz:13123.got - 2010.06.03 18:35:42.
