data_PCOD9364711
_publ_section_title
;
Structure prediction by ZEFSAII (Michael W. Deem and Ramdas Pophale) SiO2 
 PCOD9364711
Probable space group: A M A 2
;
_chemical_formula_sum "Si O2"
_cell_formula_units_Z 52
_cell_length_a 23.759164
_cell_length_b 11.828434
_cell_length_c 8.678767
_cell_angle_alpha 90.000000
_cell_angle_beta 90.000000
_cell_angle_gamma 90.000000
_cell_volume 2439.026030
_symmetry_space_group_name_H-M "A M A 2"
_symmetry_group_IT_number 40
_symmetry_cell_setting 'orthorhombic'
loop_
_space_group_symop_operation_xyz
x,y,z
-x,-y,z
1/2-x,y,z
1/2+x,-y,z
x,1/2+y,1/2+z
-x,1/2-y,1/2+z
1/2-x,1/2+y,1/2+z
1/2+x,1/2-y,1/2+z
loop_
_atom_site_type_symbol
_atom_site_label
_atom_site_fract_x
_atom_site_fract_y
_atom_site_fract_z
Si Si1 0.367343 0.978101 0.674130
Si Si2 0.250000 0.347298 0.125906
Si Si3 0.065508 0.331410 0.398419
Si Si4 0.960582 0.098583 0.440850
Si Si5 0.750000 0.368478 0.838825
Si Si6 0.250000 0.868472 0.264887
Si Si7 0.505162 0.222954 0.163403
Si Si8 0.838171 0.283543 0.089252
O O1 0.306956 0.915014 0.671185
O O2 0.405750 0.934011 0.812925
O O3 0.403686 0.945552 0.520881
O O4 0.356840 0.110479 0.690246
O O5 0.250000 0.227096 0.209218
O O6 0.250000 0.333591 0.942930
O O7 0.013427 0.355736 0.513738
O O8 0.109294 0.275255 0.512362
O O9 0.050361 0.237750 0.268482
O O10 0.952076 0.185219 0.299023
O O11 0.999528 0.155966 0.575219
O O12 0.000000 0.000000 0.375448
O O13 0.750000 0.494963 0.771203
O O14 0.802236 0.342887 0.952311
O O15 0.197780 0.810327 0.177824
#
# Coordination Sequence:
#
# PCOD9364711 Si02
#       8
#     8   4   8   8   4   4   8   8
#     4  11  22  40  71  95 138 180 219 279 343 404
#     4  12  23  42  63 105 132 170 229 279 340 411
#     4  10  21  39  67  96 129 184 219 279 330 398
#     4  10  21  41  66  96 132 181 222 277 334 393
#     4  11  23  45  68  90 136 175 221 277 338 406
#     4  11  26  43  67  99 130 173 226 278 326 415
#     4   9  20  39  62  93 133 166 225 268 321 392
#     4  11  23  43  68  95 132 179 219 270 345 398
#
# _framework density 21.319986
#
# number of rings (size 3 to 8) (size 9 to 14) (size 15 to 20)
#    0.000    1.538    3.077    2.308    2.154    1.231 
#    0.000   10.000    0.000    0.000    0.000    0.000 
#    0.000    0.000    0.000    0.000    0.000    0.000 
#
# Total GULP energy -144874.651046 kJ/mol
# GULP energy per Si atom -5572.101963 kJ/mol
# Density = 2.127146 g / cm^3
# Si number density = 21.319986 Si / 1000 Ang^3
#
#
#
# Elastic Constant Matrix: (Units=GPa)
#
#
# Indices 1 2 3 4 5 6 
#
# 1 27.3480 6.6143 34.9820 0.0000 0.0000 0.0000
# 2 6.6143 115.4518 55.0488 0.0000 0.0000 0.0000
# 3 34.9820 55.0488 108.2463 0.0000 0.0000 0.0000
# 4 0.0000 0.0000 0.0000 31.6503 0.0000 0.0000
# 5 0.0000 0.0000 0.0000 0.0000 0.3212 0.0000
# 6 0.0000 0.0000 0.0000 0.0000 0.0000 2.2723
#
#
#
# Elastic Compliance Matrix: (Units=1/GPa)
#
#
# Indices 1 2 3 4 5 6 
#
# 1 0.068424 0.008744 -0.026559 0.000000 0.000000 0.000000
# 2 0.008744 0.012552 -0.009209 0.000000 0.000000 0.000000
# 3 -0.026559 -0.009209 0.022505 0.000000 0.000000 0.000000
# 4 0.000000 0.000000 0.000000 0.031595 0.000000 0.000000
# 5 0.000000 0.000000 0.000000 0.000000 3.113492 0.000000
# 6 0.000000 0.000000 0.000000 0.000000 0.000000 0.440085
#
#
# Mechanical properties :
#
#
# Convention : Reuss Voigt Hill
#
# Bulk Modulus (GPa) = 20.22996 49.37070 34.80033
# Shear Modulus (GPa) = 1.33008 17.14214 9.23611
#
# Velocity S-wave (km/s) = 0.79071 2.83864 2.08364
# Velocity P-wave (km/s) = 3.21605 5.82676 4.70606
#
# Compressibility (1/GPa) = 0.04943163
#
# Stress axis : x y z
#
# Youngs Moduli (GPa) = 14.61465 79.67115 44.43528
#
# Poissons Ratio (x) = -0.69663 1.18018
# Poissons Ratio (y) = -0.12779 0.40920
# Poissons Ratio (z) = 0.38816 0.73368
#
# Static dielectric constant tensor:
#      x y z
#    x 1.878390 0.000000 0.000000 
#    y 0.000000 1.782050 0.000000 
#    z 0.000000 0.000000 1.796360 
# 
# From -- ./inp_files/9131.got.cif
#   From: 2010.05.17/outbox.cif.g08.bks.cpg/sg40_5_cif.got.tgz:9131.got - 2010.06.03 18:35:42.
