data_PCOD9364695
_publ_section_title
;
Structure prediction by ZEFSAII (Michael W. Deem and Ramdas Pophale) SiO2 
 PCOD9364695
Probable space group: A M A 2
;
_chemical_formula_sum "Si O2"
_cell_formula_units_Z 64
_cell_length_a 22.613602
_cell_length_b 9.514641
_cell_length_c 15.214323
_cell_angle_alpha 90.000000
_cell_angle_beta 90.000000
_cell_angle_gamma 90.000000
_cell_volume 3273.518373
_symmetry_space_group_name_H-M "A M A 2"
_symmetry_group_IT_number 40
_symmetry_cell_setting 'orthorhombic'
loop_
_space_group_symop_operation_xyz
x,y,z
-x,-y,z
1/2-x,y,z
1/2+x,-y,z
x,1/2+y,1/2+z
-x,1/2-y,1/2+z
1/2-x,1/2+y,1/2+z
1/2+x,1/2-y,1/2+z
loop_
_atom_site_type_symbol
_atom_site_label
_atom_site_fract_x
_atom_site_fract_y
_atom_site_fract_z
Si Si1 0.589719 0.898771 0.248280
Si Si2 0.491650 0.329535 0.507233
Si Si3 0.184196 0.975368 0.944119
Si Si4 0.964588 0.200338 0.209602
Si Si5 0.401771 0.696975 0.371385
Si Si6 0.681491 0.591707 0.963733
Si Si7 0.871939 0.312326 0.936619
Si Si8 0.315482 0.165895 0.108328
O O1 0.526975 0.823167 0.256821
O O2 0.620896 0.879600 0.340829
O O3 0.631878 0.832228 0.176035
O O4 0.572663 0.055463 0.216868
O O5 0.500000 0.500000 0.511537
O O6 0.483523 0.277197 0.608258
O O7 0.547174 0.283808 0.446254
O O8 0.432258 0.266934 0.463745
O O9 0.250000 0.019508 0.915666
O O10 0.133855 0.054524 0.889723
O O11 0.176203 0.810094 0.938867
O O12 0.177245 0.032283 0.043516
O O13 0.928699 0.303673 0.273579
O O14 0.355256 0.822825 0.389596
O O15 0.750000 0.565220 0.938093
O O16 0.682247 0.700274 0.044683
O O17 0.648976 0.447900 0.991033
O O18 0.250000 0.158472 0.149188
#
# Coordination Sequence:
#
# PCOD9364695 Si02
#       8
#     8   8   8   8   8   8   8   8
#     4  11  21  38  61  92 125 161 208 253 316 378
#     4  12  23  40  67  93 125 168 209 261 324 378
#     4  10  21  39  65  91 124 169 214 257 316 381
#     4  11  22  39  63  92 125 162 209 264 306 381
#     4  11  21  41  67  94 126 166 214 257 317 382
#     4  10  22  40  63  93 128 164 208 260 313 371
#     4  12  23  38  64  93 131 165 206 261 325 376
#     4   9  20  41  66  89 118 167 217 256 306 381
#
# _framework density 19.550830000000001
#
# number of rings (size 3 to 8) (size 9 to 14) (size 15 to 20)
#    0.000    1.250    5.000    3.750    0.000    1.500 
#    2.250    0.000    0.000    1.500    0.000    0.000 
#    0.000    0.000    0.000    0.000    0.000    0.000 
#
# Total GULP energy -178399.379449 kJ/mol
# GULP energy per Si atom -5574.980608 kJ/mol
# Density = 1.950633 g / cm^3
# Si number density = 19.550830 Si / 1000 Ang^3
#
#
#
# Elastic Constant Matrix: (Units=GPa)
#
#
# Indices 1 2 3 4 5 6 
#
# 1 88.3671 23.5626 29.9718 0.0000 0.0000 0.0000
# 2 23.5626 70.6250 15.3396 0.0000 0.0000 0.0000
# 3 29.9718 15.3396 75.3296 0.0000 0.0000 0.0000
# 4 0.0000 0.0000 0.0000 8.9685 0.0000 0.0000
# 5 0.0000 0.0000 0.0000 0.0000 15.7037 0.0000
# 6 0.0000 0.0000 0.0000 0.0000 0.0000 24.6669
#
#
#
# Elastic Compliance Matrix: (Units=1/GPa)
#
#
# Indices 1 2 3 4 5 6 
#
# 1 0.013903 -0.003596 -0.004799 0.000000 0.000000 0.000000
# 2 -0.003596 0.015745 -0.001775 0.000000 0.000000 0.000000
# 3 -0.004799 -0.001775 0.015546 0.000000 0.000000 0.000000
# 4 0.000000 0.000000 0.000000 0.111502 0.000000 0.000000
# 5 0.000000 0.000000 0.000000 0.000000 0.063679 0.000000
# 6 0.000000 0.000000 0.000000 0.000000 0.000000 0.040540
#
#
# Mechanical properties :
#
#
# Convention : Reuss Voigt Hill
#
# Bulk Modulus (GPa) = 40.23793 41.34108 40.78950
# Shear Modulus (GPa) = 17.26873 20.89767 19.08320
#
# Velocity S-wave (km/s) = 2.97522 3.27293 3.12762
# Velocity P-wave (km/s) = 5.69460 5.95602 5.82677
#
# Compressibility (1/GPa) = 0.02485217
#
# Stress axis : x y z
#
# Youngs Moduli (GPa) = 71.92624 63.51363 64.32488
#
# Poissons Ratio (x) = 0.22840 0.30872
# Poissons Ratio (y) = 0.25865 0.11420
# Poissons Ratio (z) = 0.34520 0.11276
#
# Static dielectric constant tensor:
#      x y z
#    x 1.702550 0.000000 0.000000 
#    y 0.000000 1.701030 0.000000 
#    z 0.000000 0.000000 1.706490 
# 
# From -- ./inp_files/18527.got.cif
#   From: 2010.05.17/outbox.cif.g08.bks.cpg/sg40_10_cif.got.tgz:18527.got - 2010.06.03 18:35:42.
