data_PCOD9364325
_publ_section_title
;
Structure prediction by ZEFSAII (Michael W. Deem and Ramdas Pophale) SiO2 
 PCOD9364325
Probable space group: A M A 2
;
_chemical_formula_sum "Si O2"
_cell_formula_units_Z 36
_cell_length_a 17.381725
_cell_length_b 5.585852
_cell_length_c 14.912450
_cell_angle_alpha 90.000000
_cell_angle_beta 90.000000
_cell_angle_gamma 90.000000
_cell_volume 1447.875768
_symmetry_space_group_name_H-M "A M A 2"
_symmetry_group_IT_number 40
_symmetry_cell_setting 'orthorhombic'
loop_
_space_group_symop_operation_xyz
x,y,z
-x,-y,z
1/2-x,y,z
1/2+x,-y,z
x,1/2+y,1/2+z
-x,1/2-y,1/2+z
1/2-x,1/2+y,1/2+z
1/2+x,1/2-y,1/2+z
loop_
_atom_site_type_symbol
_atom_site_label
_atom_site_fract_x
_atom_site_fract_y
_atom_site_fract_z
Si Si1 0.750000 0.870344 0.386281
Si Si2 0.417229 0.628778 0.129211
Si Si3 0.500000 0.000000 0.235876
Si Si4 0.750000 0.860249 0.995188
Si Si5 0.887137 0.142717 0.800496
Si Si6 0.592928 0.522257 0.495664
O O1 0.750000 0.622098 0.445232
O O2 0.823643 0.838547 0.323173
O O3 0.750000 0.120676 0.436492
O O4 0.500000 0.500000 0.119371
O O5 0.434342 0.888154 0.173674
O O6 0.372060 0.489789 0.206635
O O7 0.389499 0.706118 0.031207
O O8 0.533054 0.782599 0.291142
O O9 0.663506 0.867309 0.038891
O O10 0.894442 0.983210 0.889382
O O11 0.500000 0.500000 0.509050
#
# Coordination Sequence:
#
# PCOD9364325 Si02
#       6
#     4   8   4   4   8   8
#     4  10  24  45  69 102 153 187 253 315 378 454
#     4  10  22  41  64 108 143 179 261 306 367 469
#     4  10  20  40  64 100 132 174 248 308 346 478
#     4  10  26  45  67 114 145 187 269 313 356 500
#     4  10  24  40  69  99 142 193 246 312 384 456
#     4  11  23  43  74 102 142 204 245 316 398 444
#
# _framework density 24.864014000000001
#
# number of rings (size 3 to 8) (size 9 to 14) (size 15 to 20)
#    0.000    1.778    1.111    2.000   10.889    2.667 
#    0.000    1.111    0.000    0.000    0.000    1.556 
#    0.000    0.000    0.000    0.000    0.000    0.000 
#
# Total GULP energy -100241.837351 kJ/mol
# GULP energy per Si atom -5568.990964 kJ/mol
# Density = 2.480742 g / cm^3
# Si number density = 24.864014 Si / 1000 Ang^3
#
#
#
# Elastic Constant Matrix: (Units=GPa)
#
#
# Indices 1 2 3 4 5 6 
#
# 1 155.0736 32.2144 39.8529 0.0000 0.0000 0.0000
# 2 32.2144 117.5824 45.2715 0.0000 0.0000 0.0000
# 3 39.8529 45.2715 96.5966 0.0000 0.0000 0.0000
# 4 0.0000 0.0000 0.0000 37.5663 0.0000 0.0000
# 5 0.0000 0.0000 0.0000 0.0000 15.8907 0.0000
# 6 0.0000 0.0000 0.0000 0.0000 0.0000 25.5610
#
#
#
# Elastic Compliance Matrix: (Units=1/GPa)
#
#
# Indices 1 2 3 4 5 6 
#
# 1 0.007314 -0.001027 -0.002536 0.000000 0.000000 0.000000
# 2 -0.001027 0.010522 -0.004507 0.000000 0.000000 0.000000
# 3 -0.002536 -0.004507 0.013511 0.000000 0.000000 0.000000
# 4 0.000000 0.000000 0.000000 0.026620 0.000000 0.000000
# 5 0.000000 0.000000 0.000000 0.000000 0.062930 0.000000
# 6 0.000000 0.000000 0.000000 0.000000 0.000000 0.039122
#
#
# Mechanical properties :
#
#
# Convention : Reuss Voigt Hill
#
# Bulk Modulus (GPa) = 65.76717 67.10334 66.43526
# Shear Modulus (GPa) = 27.58971 32.59785 30.09378
#
# Velocity S-wave (km/s) = 3.33472 3.62476 3.48276
# Velocity P-wave (km/s) = 6.42925 6.67572 6.55365
#
# Compressibility (1/GPa) = 0.01520515
#
# Stress axis : x y z
#
# Youngs Moduli (GPa) = 136.72992 95.04339 74.01402
#
# Poissons Ratio (x) = 0.09765 0.18769
# Poissons Ratio (y) = 0.14047 0.33360
# Poissons Ratio (z) = 0.34674 0.42838
#
# Static dielectric constant tensor:
#      x y z
#    x 2.147250 0.000000 0.000000 
#    y 0.000000 1.937860 0.000000 
#    z 0.000000 0.000000 2.066130 
# 
# From -- ./inp_files/18028.got.cif
#   From: 2010.05.17/outbox.cif.g08.bks.cpg/sg40_10_cif.got.tgz:18028.got - 2010.06.03 18:35:42.
