data_PCOD9364842
_publ_section_title
;
Structure prediction by ZEFSAII (Michael W. Deem and Ramdas Pophale) SiO2 
 PCOD9364842
Probable space group: A M A 2
;
_chemical_formula_sum "Si O2"
_cell_formula_units_Z 64
_cell_length_a 17.061464
_cell_length_b 15.018080
_cell_length_c 12.034230
_cell_angle_alpha 90.000000
_cell_angle_beta 90.000000
_cell_angle_gamma 90.000000
_cell_volume 3083.535943
_symmetry_space_group_name_H-M "A M A 2"
_symmetry_group_IT_number 40
_symmetry_cell_setting 'orthorhombic'
loop_
_space_group_symop_operation_xyz
x,y,z
-x,-y,z
1/2-x,y,z
1/2+x,-y,z
x,1/2+y,1/2+z
-x,1/2-y,1/2+z
1/2-x,1/2+y,1/2+z
1/2+x,1/2-y,1/2+z
loop_
_atom_site_type_symbol
_atom_site_label
_atom_site_fract_x
_atom_site_fract_y
_atom_site_fract_z
Si Si1 0.659106 0.835297 0.528500
Si Si2 0.661147 0.045393 0.526203
Si Si3 0.841300 0.623409 0.266320
Si Si4 0.082041 0.696414 0.804143
Si Si5 0.658742 0.325451 0.283634
Si Si6 0.907755 0.981348 0.933210
Si Si7 0.905009 0.138537 0.327212
Si Si8 0.156401 0.026484 0.182879
O O1 0.750000 0.805207 0.520540
O O2 0.607932 0.792126 0.432612
O O3 0.632415 0.823095 0.655024
O O4 0.656921 0.940681 0.505904
O O5 0.750000 0.074466 0.495624
O O6 0.650784 0.063923 0.655900
O O7 0.599921 0.095735 0.449289
O O8 0.750000 0.649425 0.277561
O O9 0.893639 0.710675 0.249796
O O10 0.867326 0.564271 0.370450
O O11 0.128499 0.614574 0.748364
O O12 0.991320 0.672167 0.798147
O O13 0.750000 0.354339 0.284438
O O14 0.610939 0.394063 0.359252
O O15 0.649913 0.224935 0.325286
O O16 0.873821 0.969762 0.056576
O O17 0.000000 0.000000 0.938545
O O18 0.877664 0.061108 0.243575
O O19 0.250000 0.021928 0.185303
#
# Coordination Sequence:
#
# PCOD9364842 Si02
#       8
#     8   8   8   8   8   8   8   8
#     4  10  21  42  70  96 126 169 222 269 321 392
#     4  10  21  42  70  96 126 169 222 269 321 392
#     4  11  24  45  70  97 131 177 224 266 324 398
#     4  12  26  43  66 100 136 171 218 276 333 386
#     4  11  24  45  70  97 131 177 224 266 324 398
#     4  12  26  45  68  99 136 171 217 279 337 388
#     4  12  26  43  66 100 136 171 218 276 333 386
#     4  12  26  47  70  93 130 179 225 269 329 406
#
# _framework density 20.755393000000002
#
# number of rings (size 3 to 8) (size 9 to 14) (size 15 to 20)
#    0.000    0.750    2.500    5.250    3.500    2.000 
#    0.000    0.000    0.000    0.000    0.000    0.000 
#    0.000    0.000    0.000    0.000    0.000    0.000 
#
# Total GULP energy -179082.190051 kJ/mol
# GULP energy per Si atom -5596.318439 kJ/mol
# Density = 2.070815 g / cm^3
# Si number density = 20.755393 Si / 1000 Ang^3
#
#
#
# Elastic Constant Matrix: (Units=GPa)
#
#
# Indices 1 2 3 4 5 6 
#
# 1 50.2776 -22.4291 17.4276 0.0000 0.0000 0.0000
# 2 -22.4291 47.6632 -3.0384 0.0000 0.0000 0.0000
# 3 17.4276 -3.0384 86.5100 0.0000 0.0000 0.0000
# 4 0.0000 0.0000 0.0000 24.6024 0.0000 0.0000
# 5 0.0000 0.0000 0.0000 0.0000 34.3342 0.0000
# 6 0.0000 0.0000 0.0000 0.0000 0.0000 30.9618
#
#
#
# Elastic Compliance Matrix: (Units=1/GPa)
#
#
# Indices 1 2 3 4 5 6 
#
# 1 0.027205 0.012481 -0.005042 0.000000 0.000000 0.000000
# 2 0.012481 0.026753 -0.001575 0.000000 0.000000 0.000000
# 3 -0.005042 -0.001575 0.012520 0.000000 0.000000 0.000000
# 4 0.000000 0.000000 0.000000 0.040646 0.000000 0.000000
# 5 0.000000 0.000000 0.000000 0.000000 0.029125 0.000000
# 6 0.000000 0.000000 0.000000 0.000000 0.000000 0.032298
#
#
# Mechanical properties :
#
#
# Convention : Reuss Voigt Hill
#
# Bulk Modulus (GPa) = 12.78683 18.70789 15.74736
# Shear Modulus (GPa) = 27.33903 30.81238 29.07570
#
# Velocity S-wave (km/s) = 3.63326 3.85716 3.74689
# Velocity P-wave (km/s) = 4.87595 5.37308 5.13054
#
# Compressibility (1/GPa) = 0.07820550
#
# Stress axis : x y z
#
# Youngs Moduli (GPa) = 36.75802 37.37873 79.87344
#
# Poissons Ratio (x) = -0.46651 0.40273
# Poissons Ratio (y) = -0.45876 0.12577
# Poissons Ratio (z) = 0.18534 0.05886
#
# Static dielectric constant tensor:
#      x y z
#    x 1.732920 0.000000 0.000000 
#    y 0.000000 1.712120 0.000000 
#    z 0.000000 0.000000 1.716190 
# 
# From -- ./inp_files/13104.got.cif
#   From: 2010.05.17/outbox.cif.g08.bks.cpg/sg40_7_cif.got.tgz:13104.got - 2010.06.03 18:35:42.
