data_PCOD9364189
_publ_section_title
;
Structure prediction by ZEFSAII (Michael W. Deem and Ramdas Pophale) SiO2 
 PCOD9364189
Probable space group: A M A 2
;
_chemical_formula_sum "Si O2"
_cell_formula_units_Z 64
_cell_length_a 8.705739
_cell_length_b 25.505841
_cell_length_c 15.262462
_cell_angle_alpha 90.000000
_cell_angle_beta 90.000000
_cell_angle_gamma 90.000000
_cell_volume 3388.986872
_symmetry_space_group_name_H-M "A M A 2"
_symmetry_group_IT_number 40
_symmetry_cell_setting 'orthorhombic'
loop_
_space_group_symop_operation_xyz
x,y,z
-x,-y,z
1/2-x,y,z
1/2+x,-y,z
x,1/2+y,1/2+z
-x,1/2-y,1/2+z
1/2-x,1/2+y,1/2+z
1/2+x,1/2-y,1/2+z
loop_
_atom_site_type_symbol
_atom_site_label
_atom_site_fract_x
_atom_site_fract_y
_atom_site_fract_z
Si Si1 0.068289 0.223011 0.847980
Si Si2 0.933863 0.350965 0.031362
Si Si3 0.933299 0.558332 0.500762
Si Si4 0.564799 0.894009 0.822108
Si Si5 0.931532 0.760022 0.054645
Si Si6 0.935909 0.867801 0.148691
Si Si7 0.065988 0.165663 0.332303
Si Si8 0.066999 0.443658 0.148604
O O1 0.250000 0.228912 0.832059
O O2 0.018481 0.167007 0.810571
O O3 0.983552 0.274520 0.814884
O O4 0.045280 0.222771 0.953351
O O5 0.750000 0.357057 0.034544
O O6 0.978100 0.293827 0.069225
O O7 0.011414 0.397693 0.084187
O O8 0.987602 0.350090 0.929476
O O9 0.750000 0.557095 0.493520
O O10 0.000000 0.500000 0.504918
O O11 0.003832 0.586299 0.415263
O O12 0.984907 0.590478 0.586170
O O13 0.750000 0.896332 0.821621
O O14 0.497767 0.928745 0.744333
O O15 0.750000 0.749592 0.066447
O O16 0.974576 0.809557 0.113452
O O17 0.750000 0.873431 0.141688
O O18 0.983066 0.869674 0.250432
O O19 0.250000 0.164446 0.334614
O O20 0.250000 0.446005 0.151216
O O21 0.000000 0.500000 0.122085
#
# Coordination Sequence:
#
# PCOD9364189 Si02
#       8
#     8   8   8   8   8   8   8   8
#     4   9  18  33  55  84 120 159 195 235 288 349
#     4  10  21  39  60  88 122 157 201 252 304 358
#     4  12  25  41  62  88 120 162 205 250 299 360
#     4  11  22  40  62  90 124 160 197 245 299 357
#     4   9  17  33  56  85 120 160 197 238 293 352
#     4  10  20  38  60  87 123 161 202 250 302 354
#     4   9  20  36  59  88 122 160 199 248 300 354
#     4  12  26  44  64  88 116 155 203 254 306 364
#
# _framework density 18.884701
#
# number of rings (size 3 to 8) (size 9 to 14) (size 15 to 20)
#    0.000    1.750    1.250    3.375    1.750    2.500 
#    0.000    0.625    0.000    0.000    0.000    0.000 
#    0.000    0.000    0.000    0.000    0.000    0.000 
#
# Total GULP energy -178801.549563 kJ/mol
# GULP energy per Si atom -5587.548424 kJ/mol
# Density = 1.884172 g / cm^3
# Si number density = 18.884701 Si / 1000 Ang^3
#
#
#
# Elastic Constant Matrix: (Units=GPa)
#
#
# Indices 1 2 3 4 5 6 
#
# 1 67.3738 36.5337 23.6636 0.0000 0.0000 0.0000
# 2 36.5337 97.5298 31.1713 0.0000 0.0000 0.0000
# 3 23.6636 31.1713 58.7527 0.0000 0.0000 0.0000
# 4 0.0000 0.0000 0.0000 23.7664 0.0000 0.0000
# 5 0.0000 0.0000 0.0000 0.0000 56.6552 0.0000
# 6 0.0000 0.0000 0.0000 0.0000 0.0000 33.3406
#
#
#
# Elastic Compliance Matrix: (Units=1/GPa)
#
#
# Indices 1 2 3 4 5 6 
#
# 1 0.019707 -0.005835 -0.004842 0.000000 0.000000 0.000000
# 2 -0.005835 0.014074 -0.005117 0.000000 0.000000 0.000000
# 3 -0.004842 -0.005117 0.021686 0.000000 0.000000 0.000000
# 4 0.000000 0.000000 0.000000 0.042076 0.000000 0.000000
# 5 0.000000 0.000000 0.000000 0.000000 0.017651 0.000000
# 6 0.000000 0.000000 0.000000 0.000000 0.000000 0.029993
#
#
# Mechanical properties :
#
#
# Convention : Reuss Voigt Hill
#
# Bulk Modulus (GPa) = 41.87644 45.15485 43.51564
# Shear Modulus (GPa) = 27.06594 31.57163 29.31878
#
# Velocity S-wave (km/s) = 3.78990 4.09321 3.94447
# Velocity P-wave (km/s) = 6.43226 6.80455 6.62102
#
# Compressibility (1/GPa) = 0.02387978
#
# Stress axis : x y z
#
# Youngs Moduli (GPa) = 50.74356 71.05120 46.11374
#
# Poissons Ratio (x) = 0.41455 0.22327
# Poissons Ratio (y) = 0.29607 0.23597
# Poissons Ratio (z) = 0.24569 0.36358
#
# Static dielectric constant tensor:
#      x y z
#    x 1.625320 0.000000 0.000000 
#    y 0.000000 1.636940 0.000000 
#    z 0.000000 0.000000 1.676470 
# 
# From -- ./inp_files/15656.got.cif
#   From: 2010.05.17/outbox.cif.g08.bks.cpg/sg40_8_cif.got.tgz:15656.got - 2010.06.03 18:35:42.
