data_PCOD9364012
_publ_section_title
;
Structure prediction by ZEFSAII (Michael W. Deem and Ramdas Pophale) SiO2 
 PCOD9364012
Probable space group: A M A 2
;
_chemical_formula_sum "Si O2"
_cell_formula_units_Z 64
_cell_length_a 8.650564
_cell_length_b 15.858031
_cell_length_c 24.425035
_cell_angle_alpha 90.000000
_cell_angle_beta 90.000000
_cell_angle_gamma 90.000000
_cell_volume 3350.648579
_symmetry_space_group_name_H-M "A M A 2"
_symmetry_group_IT_number 40
_symmetry_cell_setting 'orthorhombic'
loop_
_space_group_symop_operation_xyz
x,y,z
-x,-y,z
1/2-x,y,z
1/2+x,-y,z
x,1/2+y,1/2+z
-x,1/2-y,1/2+z
1/2-x,1/2+y,1/2+z
1/2+x,1/2-y,1/2+z
loop_
_atom_site_type_symbol
_atom_site_label
_atom_site_fract_x
_atom_site_fract_y
_atom_site_fract_z
Si Si1 0.937490 0.254658 0.483970
Si Si2 0.064540 0.349709 0.795931
Si Si3 0.065355 0.089974 0.181409
Si Si4 0.434176 0.909525 0.913805
Si Si5 0.438220 0.249735 0.110365
Si Si6 0.564294 0.590056 0.182139
Si Si7 0.563685 0.090023 0.415617
Si Si8 0.065053 0.149385 0.798012
O O1 0.750000 0.259851 0.481475
O O2 0.985991 0.252342 0.547264
O O3 0.984057 0.168535 0.453299
O O4 0.004817 0.334629 0.452247
O O5 0.250000 0.359612 0.791206
O O6 0.013729 0.390563 0.853207
O O7 0.031596 0.249676 0.797606
O O8 0.986527 0.390686 0.743332
O O9 0.250000 0.087443 0.179334
O O10 0.009947 0.167096 0.143468
O O11 0.000000 0.000000 0.163818
O O12 0.250000 0.911537 0.914181
O O13 0.493559 0.890534 0.852405
O O14 0.500000 0.000000 0.931430
O O15 0.250000 0.249574 0.110972
O O16 0.486811 0.333802 0.142541
O O17 0.500000 0.500000 0.163869
O O18 0.750000 0.587934 0.183281
O O19 0.502784 0.609498 0.242981
O O20 0.750000 0.087390 0.415988
O O21 0.500000 0.000000 0.433653
O O22 0.250000 0.138313 0.799242
#
# Coordination Sequence:
#
# PCOD9364012 Si02
#       8
#     8   8   8   8   8   8   8   8
#     4  10  21  43  65  85 118 160 204 253 301 351
#     4  10  20  36  59  89 118 154 193 238 296 353
#     4  11  22  38  59  88 118 155 196 241 295 354
#     4  12  25  41  63  92 123 158 198 247 302 365
#     4   9  21  40  63  85 116 159 203 248 299 350
#     4  11  22  39  60  91 124 160 202 245 300 357
#     4  10  21  37  59  87 119 154 193 239 293 352
#     4  11  21  38  63  91 122 158 197 245 302 360
#
# _framework density 19.10078
#
# number of rings (size 3 to 8) (size 9 to 14) (size 15 to 20)
#    0.000    1.500    2.500    3.000    0.000    3.500 
#    0.000    3.750    0.000    0.000    0.000    0.000 
#    0.000    0.000    0.000    0.000    0.000    0.000 
#
# Total GULP energy -178904.156015 kJ/mol
# GULP energy per Si atom -5590.754875 kJ/mol
# Density = 1.905731 g / cm^3
# Si number density = 19.100780 Si / 1000 Ang^3
#
#
#
# Elastic Constant Matrix: (Units=GPa)
#
#
# Indices 1 2 3 4 5 6 
#
# 1 45.2976 51.4012 30.3702 0.0000 0.0000 0.0000
# 2 51.4012 202.9132 95.8757 0.0000 0.0000 0.0000
# 3 30.3702 95.8757 156.5012 0.0000 0.0000 0.0000
# 4 0.0000 0.0000 0.0000 -3.8455 0.0000 0.0000
# 5 0.0000 0.0000 0.0000 0.0000 20.7107 0.0000
# 6 0.0000 0.0000 0.0000 0.0000 0.0000 26.1149
#
#
#
# Elastic Compliance Matrix: (Units=1/GPa)
#
#
# Indices 1 2 3 4 5 6 
#
# 1 0.031305 -0.007121 -0.001713 0.000000 0.000000 0.000000
# 2 -0.007121 0.008556 -0.003860 0.000000 0.000000 0.000000
# 3 -0.001713 -0.003860 0.009086 0.000000 0.000000 0.000000
# 4 0.000000 0.000000 0.000000 -0.260041 0.000000 0.000000
# 5 0.000000 0.000000 0.000000 0.000000 0.048284 0.000000
# 6 0.000000 0.000000 0.000000 0.000000 0.000000 0.038292
#
#
# Mechanical properties :
#
#
# Convention : Reuss Voigt Hill
#
# Bulk Modulus (GPa) = 42.44291 84.44513 63.44402
# Shear Modulus (GPa) = -54.77771 23.73365 -15.52203
#
# Velocity S-wave (km/s) = -5.36102 3.52880 -2.85377
# Velocity P-wave (km/s) = 4.00649 7.80446 4.73591
#
# Compressibility (1/GPa) = 0.02356106
#
# Stress axis : x y z
#
# Youngs Moduli (GPa) = 31.94408 116.88207 110.05373
#
# Poissons Ratio (x) = 0.83229 0.18847
# Poissons Ratio (y) = 0.22747 0.42475
# Poissons Ratio (z) = 0.05471 0.45111
#
# Static dielectric constant tensor:
#      x y z
#    x 1.648720 0.000000 0.000000 
#    y 0.000000 1.656800 0.000000 
#    z 0.000000 0.000000 1.635640 
# 
# From -- ./inp_files/24308.got.cif
#   From: 2010.05.17/outbox.cif.g08.bks.cpg/sg40_13_cif.got.tgz:24308.got - 2010.06.03 18:35:42.
