data_PCOD9364347
_publ_section_title
;
Structure prediction by ZEFSAII (Michael W. Deem and Ramdas Pophale) SiO2 
 PCOD9364347
Probable space group: A M A 2
;
_chemical_formula_sum "Si O2"
_cell_formula_units_Z 64
_cell_length_a 17.925698
_cell_length_b 11.769256
_cell_length_c 15.478184
_cell_angle_alpha 90.000000
_cell_angle_beta 90.000000
_cell_angle_gamma 90.000000
_cell_volume 3265.465428
_symmetry_space_group_name_H-M "A M A 2"
_symmetry_group_IT_number 40
_symmetry_cell_setting 'orthorhombic'
loop_
_space_group_symop_operation_xyz
x,y,z
-x,-y,z
1/2-x,y,z
1/2+x,-y,z
x,1/2+y,1/2+z
-x,1/2-y,1/2+z
1/2-x,1/2+y,1/2+z
1/2+x,1/2-y,1/2+z
loop_
_atom_site_type_symbol
_atom_site_label
_atom_site_fract_x
_atom_site_fract_y
_atom_site_fract_z
Si Si1 0.083277 0.553790 0.039660
Si Si2 0.165192 0.982842 0.950300
Si Si3 0.584879 0.517593 0.621250
Si Si4 0.402092 0.753031 0.901707
Si Si5 0.075046 0.681820 0.385420
Si Si6 0.569831 0.768222 0.689289
Si Si7 0.897737 0.288362 0.705814
Si Si8 0.164102 0.816899 0.533641
O O1 0.092665 0.629977 0.125953
O O2 0.138846 0.447785 0.037351
O O3 0.000000 0.500000 0.037312
O O4 0.094797 0.639596 0.959255
O O5 0.250000 0.012055 0.928977
O O6 0.149607 0.849706 0.941680
O O7 0.106456 0.054595 0.894412
O O8 0.144424 0.011703 0.048486
O O9 0.500000 0.500000 0.586148
O O10 0.593406 0.646250 0.651616
O O11 0.593172 0.423885 0.695141
O O12 0.486687 0.802242 0.898752
O O13 0.375566 0.735069 0.803664
O O14 0.094125 0.721405 0.288523
O O15 0.114552 0.753650 0.461247
O O16 0.479686 0.765040 0.690650
O O17 0.849190 0.237925 0.628205
O O18 0.250000 0.805719 0.509549
#
# Coordination Sequence:
#
# PCOD9364347 Si02
#       8
#     8   8   8   8   8   8   8   8
#     4  12  23  42  69  98 134 176 220 275 327 403
#     4  12  25  41  63  94 132 172 215 270 335 394
#     4  10  20  40  68  94 122 162 215 275 327 386
#     4  11  24  42  70  97 129 172 225 276 327 391
#     4  11  23  42  70  99 126 172 224 280 327 397
#     4  10  22  40  68 100 128 164 224 276 326 385
#     4  10  22  39  69  99 125 165 222 280 328 388
#     4  12  26  44  65  96 138 180 218 273 346 402
#
# _framework density 19.599043999999999
#
# number of rings (size 3 to 8) (size 9 to 14) (size 15 to 20)
#    0.000    1.000    5.000    1.500    3.500    1.500 
#    0.000    1.875    0.000    0.000    0.000    0.000 
#    0.000    0.000    0.000    0.000    0.000    0.000 
#
# Total GULP energy -178783.115127 kJ/mol
# GULP energy per Si atom -5586.972348 kJ/mol
# Density = 1.955444 g / cm^3
# Si number density = 19.599044 Si / 1000 Ang^3
#
#
#
# Elastic Constant Matrix: (Units=GPa)
#
#
# Indices 1 2 3 4 5 6 
#
# 1 42.3747 12.5362 15.2911 0.0000 0.0000 0.0000
# 2 12.5362 110.3678 34.0425 0.0000 0.0000 0.0000
# 3 15.2911 34.0425 110.4259 0.0000 0.0000 0.0000
# 4 0.0000 0.0000 0.0000 20.6440 0.0000 0.0000
# 5 0.0000 0.0000 0.0000 0.0000 -32.0228 0.0000
# 6 0.0000 0.0000 0.0000 0.0000 0.0000 11.8437
#
#
#
# Elastic Compliance Matrix: (Units=1/GPa)
#
#
# Indices 1 2 3 4 5 6 
#
# 1 0.025224 -0.001976 -0.002884 0.000000 0.000000 0.000000
# 2 -0.001976 0.010167 -0.002861 0.000000 0.000000 0.000000
# 3 -0.002884 -0.002861 0.010337 0.000000 0.000000 0.000000
# 4 0.000000 0.000000 0.000000 0.048440 0.000000 0.000000
# 5 0.000000 0.000000 0.000000 0.000000 -0.031228 0.000000
# 6 0.000000 0.000000 0.000000 0.000000 0.000000 0.084433
#
#
# Mechanical properties :
#
#
# Convention : Reuss Voigt Hill
#
# Bulk Modulus (GPa) = 33.01634 42.98979 38.00306
# Shear Modulus (GPa) = 28.91661 13.51288 21.21475
#
# Velocity S-wave (km/s) = 3.84527 2.62862 3.29361
# Velocity P-wave (km/s) = 6.04957 5.58526 5.82204
#
# Compressibility (1/GPa) = 0.03028804
#
# Stress axis : x y z
#
# Youngs Moduli (GPa) = 39.64466 98.35312 96.73849
#
# Poissons Ratio (x) = 0.19431 0.27898
# Poissons Ratio (y) = 0.07832 0.27676
# Poissons Ratio (z) = 0.11433 0.28138
#
# Static dielectric constant tensor:
#      x y z
#    x 1.667800 0.000000 0.000000 
#    y 0.000000 1.682120 0.000000 
#    z 0.000000 0.000000 1.679580 
# 
# From -- ./inp_files/17830.got.cif
#   From: 2010.05.17/outbox.cif.g08.bks.cpg/sg40_9_cif.got.tgz:17830.got - 2010.06.03 18:35:42.
