data_PCOD9364884
_publ_section_title
;
Structure prediction by ZEFSAII (Michael W. Deem and Ramdas Pophale) SiO2 
 PCOD9364884
Probable space group: A M A 2
;
_chemical_formula_sum "Si O2"
_cell_formula_units_Z 64
_cell_length_a 26.135770
_cell_length_b 19.210400
_cell_length_c 5.565646
_cell_angle_alpha 90.000000
_cell_angle_beta 90.000000
_cell_angle_gamma 90.000000
_cell_volume 2794.391730
_symmetry_space_group_name_H-M "A M A 2"
_symmetry_group_IT_number 40
_symmetry_cell_setting 'orthorhombic'
loop_
_space_group_symop_operation_xyz
x,y,z
-x,-y,z
1/2-x,y,z
1/2+x,-y,z
x,1/2+y,1/2+z
-x,1/2-y,1/2+z
1/2-x,1/2+y,1/2+z
1/2+x,1/2-y,1/2+z
loop_
_atom_site_type_symbol
_atom_site_label
_atom_site_fract_x
_atom_site_fract_y
_atom_site_fract_z
Si Si1 0.195415 0.610479 0.377190
Si Si2 0.558442 0.314442 0.036735
Si Si3 0.554049 0.527426 0.397834
Si Si4 0.836436 0.256183 0.154166
Si Si5 0.454807 0.325819 0.282637
Si Si6 0.659233 0.521110 0.110378
Si Si7 0.114089 0.069138 0.234832
Si Si8 0.839549 0.178987 0.641832
O O1 0.250000 0.619529 0.500842
O O2 0.190282 0.668871 0.172030
O O3 0.190518 0.534213 0.264446
O O4 0.146868 0.615665 0.551084
O O5 0.538453 0.253444 0.864034
O O6 0.588290 0.377746 0.916323
O O7 0.602855 0.272863 0.177008
O O8 0.508523 0.343600 0.162364
O O9 0.500000 0.500000 0.303604
O O10 0.552492 0.609414 0.466990
O O11 0.600842 0.520751 0.211468
O O12 0.570386 0.476054 0.609505
O O13 0.821094 0.216110 0.398145
O O14 0.827980 0.217029 0.898558
O O15 0.401826 0.325086 0.135765
O O16 0.678790 0.599196 0.133659
O O17 0.653006 0.486858 0.849464
#
# Coordination Sequence:
#
# PCOD9364884 Si02
#       8
#     8   8   8   8   8   8   8   8
#     4  11  25  46  73 101 132 176 241 306 377 439
#     4  11  22  38  65  97 142 182 243 284 348 412
#     4  10  23  37  60  91 138 183 234 280 341 418
#     4  11  23  45  68 101 136 190 224 299 351 425
#     4  10  22  36  59  97 132 190 227 285 325 425
#     4  10  23  44  67  98 135 185 227 294 355 427
#     4  11  24  42  68 100 138 187 234 308 359 426
#     4  10  24  42  71  97 147 183 234 274 359 419
#
# _framework density 22.903016000000001
#
# number of rings (size 3 to 8) (size 9 to 14) (size 15 to 20)
#    0.000    1.500    1.250    3.000   10.500    3.000 
#    0.000    1.250    0.000    0.000    0.000    0.000 
#    0.000    0.000    0.000    0.000    0.000    0.000 
#
# Total GULP energy -178639.973447 kJ/mol
# GULP energy per Si atom -5582.499170 kJ/mol
# Density = 2.285089 g / cm^3
# Si number density = 22.903016 Si / 1000 Ang^3
#
#
#
# Elastic Constant Matrix: (Units=GPa)
#
#
# Indices 1 2 3 4 5 6 
#
# 1 52.3766 8.9768 7.1266 0.0000 0.0000 0.0000
# 2 8.9768 156.8970 62.0389 0.0000 0.0000 0.0000
# 3 7.1266 62.0389 86.4455 0.0000 0.0000 0.0000
# 4 0.0000 0.0000 0.0000 -5.6508 0.0000 0.0000
# 5 0.0000 0.0000 0.0000 0.0000 -5.5251 0.0000
# 6 0.0000 0.0000 0.0000 0.0000 0.0000 -10.4053
#
#
#
# Elastic Compliance Matrix: (Units=1/GPa)
#
#
# Indices 1 2 3 4 5 6 
#
# 1 0.019359 -0.000665 -0.001118 0.000000 0.000000 0.000000
# 2 -0.000665 0.008922 -0.006348 0.000000 0.000000 0.000000
# 3 -0.001118 -0.006348 0.016216 0.000000 0.000000 0.000000
# 4 0.000000 0.000000 0.000000 -0.176966 0.000000 0.000000
# 5 0.000000 0.000000 0.000000 0.000000 -0.180994 0.000000
# 6 0.000000 0.000000 0.000000 0.000000 0.000000 -0.096105
#
#
# Mechanical properties :
#
#
# Convention : Reuss Voigt Hill
#
# Bulk Modulus (GPa) = 35.41974 50.22262 42.82118
# Shear Modulus (GPa) = -13.02443 10.18889 -1.41777
#
# Velocity S-wave (km/s) = -2.38728 2.11148 -0.78764
# Velocity P-wave (km/s) = 2.81067 5.28398 4.23204
#
# Compressibility (1/GPa) = 0.02823284
#
# Stress axis : x y z
#
# Youngs Moduli (GPa) = 51.65632 112.08577 61.66784
#
# Poissons Ratio (x) = 0.07458 0.06897
# Poissons Ratio (y) = 0.03437 0.39147
# Poissons Ratio (z) = 0.05777 0.71152
#
# Static dielectric constant tensor:
#      x y z
#    x 1.409310 0.000000 0.000000 
#    y 0.000000 1.880070 0.000000 
#    z 0.000000 0.000000 1.916430 
# 
# From -- ./inp_files/3489.got.cif
#   From: 2010.05.17/outbox.cif.g08.bks.cpg/sg40_2_cif.got.tgz:3489.got - 2010.06.03 18:35:42.
