data_PCOD9364538
_publ_section_title
;
Structure prediction by ZEFSAII (Michael W. Deem and Ramdas Pophale) SiO2 
 PCOD9364538
Probable space group: A M A 2
;
_chemical_formula_sum "Si O2"
_cell_formula_units_Z 64
_cell_length_a 8.692086
_cell_length_b 15.763113
_cell_length_c 24.191079
_cell_angle_alpha 90.000000
_cell_angle_beta 90.000000
_cell_angle_gamma 90.000000
_cell_volume 3314.524574
_symmetry_space_group_name_H-M "A M A 2"
_symmetry_group_IT_number 40
_symmetry_cell_setting 'orthorhombic'
loop_
_space_group_symop_operation_xyz
x,y,z
-x,-y,z
1/2-x,y,z
1/2+x,-y,z
x,1/2+y,1/2+z
-x,1/2-y,1/2+z
1/2-x,1/2+y,1/2+z
1/2+x,1/2-y,1/2+z
loop_
_atom_site_type_symbol
_atom_site_label
_atom_site_fract_x
_atom_site_fract_y
_atom_site_fract_z
Si Si1 0.566014 0.907751 0.522940
Si Si2 0.564822 0.245025 0.595744
Si Si3 0.935064 0.909841 0.025502
Si Si4 0.066345 0.145963 0.902882
Si Si5 0.066316 0.747764 0.218922
Si Si6 0.067001 0.910097 0.787606
Si Si7 0.066065 0.666047 0.903177
Si Si8 0.066025 0.591859 0.783872
O O1 0.750000 0.907282 0.529498
O O2 0.492691 0.835347 0.560925
O O3 0.530237 0.884391 0.459119
O O4 0.500000 0.000000 0.536206
O O5 0.750000 0.243785 0.598957
O O6 0.517005 0.330753 0.563414
O O7 0.494286 0.243427 0.656542
O O8 0.750000 0.912941 0.026285
O O9 0.982469 0.891624 0.962078
O O10 0.000000 0.000000 0.044005
O O11 0.250000 0.135554 0.896668
O O12 0.982283 0.103420 0.851270
O O13 0.023628 0.245318 0.902705
O O14 0.250000 0.746085 0.220360
O O15 0.001686 0.668028 0.253256
O O16 0.005378 0.833595 0.247231
O O17 0.250000 0.909735 0.783083
O O18 0.000000 0.000000 0.768258
O O19 0.250000 0.684193 0.902642
O O20 0.029762 0.613914 0.847892
O O21 0.250000 0.592357 0.777466
O O22 0.000000 0.500000 0.769601
#
# Coordination Sequence:
#
# PCOD9364538 Si02
#       8
#     8   8   8   8   8   8   8   8
#     4  11  23  40  64  96 129 168 211 259 314 376
#     4  11  24  45  66  90 124 166 213 267 317 372
#     4  10  23  40  63  94 127 165 207 254 310 368
#     4  11  21  37  63  96 130 169 208 254 313 375
#     4  12  26  45  67  94 124 165 214 267 320 377
#     4  12  25  43  66  96 130 168 209 259 315 379
#     4  10  21  37  62  94 130 169 208 255 314 374
#     4  11  23  41  65  96 130 170 212 259 315 375
#
# _framework density 19.308952999999999
#
# number of rings (size 3 to 8) (size 9 to 14) (size 15 to 20)
#    0.000    1.000    2.500    4.500    0.000    5.000 
#    0.000    3.750    0.000    0.000    0.000    0.000 
#    0.000    0.000    0.000    0.000    0.000    0.000 
#
# Total GULP energy -179061.785476 kJ/mol
# GULP energy per Si atom -5595.680796 kJ/mol
# Density = 1.926500 g / cm^3
# Si number density = 19.308953 Si / 1000 Ang^3
#
#
#
# Elastic Constant Matrix: (Units=GPa)
#
#
# Indices 1 2 3 4 5 6 
#
# 1 97.0372 67.0424 56.3155 0.0000 0.0000 0.0000
# 2 67.0424 179.2051 62.8070 0.0000 0.0000 0.0000
# 3 56.3155 62.8070 126.5735 0.0000 0.0000 0.0000
# 4 0.0000 0.0000 0.0000 -6.3053 0.0000 0.0000
# 5 0.0000 0.0000 0.0000 0.0000 34.7007 0.0000
# 6 0.0000 0.0000 0.0000 0.0000 0.0000 38.0951
#
#
#
# Elastic Compliance Matrix: (Units=1/GPa)
#
#
# Indices 1 2 3 4 5 6 
#
# 1 0.016219 -0.004284 -0.005091 0.000000 0.000000 0.000000
# 2 -0.004284 0.007886 -0.002007 0.000000 0.000000 0.000000
# 3 -0.005091 -0.002007 0.011162 0.000000 0.000000 0.000000
# 4 0.000000 0.000000 0.000000 -0.158598 0.000000 0.000000
# 5 0.000000 0.000000 0.000000 0.000000 0.028818 0.000000
# 6 0.000000 0.000000 0.000000 0.000000 0.000000 0.026250
#
#
# Mechanical properties :
#
#
# Convention : Reuss Voigt Hill
#
# Bulk Modulus (GPa) = 79.97637 86.12727 83.05182
# Shear Modulus (GPa) = -120.97372 27.74150 -46.61611
#
# Velocity S-wave (km/s) = -7.92386 3.79452 -4.91880
# Velocity P-wave (km/s) = 6.49674 7.99372 3.29332
#
# Compressibility (1/GPa) = 0.01250369
#
# Stress axis : x y z
#
# Youngs Moduli (GPa) = 61.65508 126.80269 89.59265
#
# Poissons Ratio (x) = 0.54317 0.45610
# Poissons Ratio (y) = 0.26411 0.17985
# Poissons Ratio (z) = 0.31387 0.25454
#
# Static dielectric constant tensor:
#      x y z
#    x 1.647070 0.000000 0.000000 
#    y 0.000000 1.646440 0.000000 
#    z 0.000000 0.000000 1.655900 
# 
# From -- ./inp_files/24324.got.cif
#   From: 2010.05.17/outbox.cif.g08.bks.cpg/sg40_13_cif.got.tgz:24324.got - 2010.06.03 18:35:42.
