data_PCOD9364235
_publ_section_title
;
Structure prediction by ZEFSAII (Michael W. Deem and Ramdas Pophale) SiO2 
 PCOD9364235
Probable space group: A M A 2
;
_chemical_formula_sum "Si O2"
_cell_formula_units_Z 48
_cell_length_a 16.359291
_cell_length_b 8.038895
_cell_length_c 18.026505
_cell_angle_alpha 90.000000
_cell_angle_beta 90.000000
_cell_angle_gamma 90.000000
_cell_volume 2370.676896
_symmetry_space_group_name_H-M "A M A 2"
_symmetry_group_IT_number 40
_symmetry_cell_setting 'orthorhombic'
loop_
_space_group_symop_operation_xyz
x,y,z
-x,-y,z
1/2-x,y,z
1/2+x,-y,z
x,1/2+y,1/2+z
-x,1/2-y,1/2+z
1/2-x,1/2+y,1/2+z
1/2+x,1/2-y,1/2+z
loop_
_atom_site_type_symbol
_atom_site_label
_atom_site_fract_x
_atom_site_fract_y
_atom_site_fract_z
Si Si1 0.154908 0.214913 0.960130
Si Si2 0.489806 0.326777 0.228177
Si Si3 0.843409 0.125871 0.239066
Si Si4 0.418896 0.910974 0.888033
Si Si5 0.086761 0.579560 0.612937
Si Si6 0.152847 0.058204 0.392475
O O1 0.250000 0.248610 0.965520
O O2 0.118837 0.390415 0.931466
O O3 0.143998 0.059443 0.903854
O O4 0.124154 0.159453 0.040283
O O5 0.500000 0.500000 0.186139
O O6 0.578525 0.248097 0.246843
O O7 0.441210 0.372113 0.302920
O O8 0.438206 0.207768 0.176792
O O9 0.750000 0.191365 0.247514
O O10 0.855064 0.048608 0.156970
O O11 0.853997 0.989232 0.304840
O O12 0.391115 0.729633 0.915976
O O13 0.500000 0.000000 0.920236
O O14 0.000000 0.500000 0.592102
O O15 0.250000 0.080708 0.406595
#
# Coordination Sequence:
#
# PCOD9364235 Si02
#       6
#     8   8   8   8   8   8
#     4  11  24  42  62  92 131 167 210 266 325 380
#     4  10  21  39  64  93 123 162 216 263 309 380
#     4  10  20  38  64  91 124 167 209 260 319 376
#     4  11  22  39  65  94 122 166 213 261 315 373
#     4  10  21  41  63  90 127 166 210 258 319 382
#     4  10  21  39  64  92 123 164 211 261 314 375
#
# _framework density 20.247381000000001
#
# number of rings (size 3 to 8) (size 9 to 14) (size 15 to 20)
#    0.000    1.667    1.667    3.500    0.000    2.000 
#    9.000    5.000    0.000    0.000    0.000    0.000 
#    0.000    0.000    0.000    0.000    0.000    0.000 
#
# Total GULP energy -133749.903671 kJ/mol
# GULP energy per Si atom -5572.912653 kJ/mol
# Density = 2.020130 g / cm^3
# Si number density = 20.247381 Si / 1000 Ang^3
#
#
#
# Elastic Constant Matrix: (Units=GPa)
#
#
# Indices 1 2 3 4 5 6 
#
# 1 64.3140 44.6082 35.0001 0.0000 0.0000 0.0000
# 2 44.6082 153.5912 46.5295 0.0000 0.0000 0.0000
# 3 35.0001 46.5295 101.8458 0.0000 0.0000 0.0000
# 4 0.0000 0.0000 0.0000 12.8822 0.0000 0.0000
# 5 0.0000 0.0000 0.0000 0.0000 -2.5261 0.0000
# 6 0.0000 0.0000 0.0000 0.0000 0.0000 36.5422
#
#
#
# Elastic Compliance Matrix: (Units=1/GPa)
#
#
# Indices 1 2 3 4 5 6 
#
# 1 0.021693 -0.004691 -0.005312 0.000000 0.000000 0.000000
# 2 -0.004691 0.008571 -0.002304 0.000000 0.000000 0.000000
# 3 -0.005312 -0.002304 0.012697 0.000000 0.000000 0.000000
# 4 0.000000 0.000000 0.000000 0.077627 0.000000 0.000000
# 5 0.000000 0.000000 0.000000 0.000000 -0.395865 0.000000
# 6 0.000000 0.000000 0.000000 0.000000 0.000000 0.027366
#
#
# Mechanical properties :
#
#
# Convention : Reuss Voigt Hill
#
# Bulk Modulus (GPa) = 54.50291 63.55853 59.03072
# Shear Modulus (GPa) = -23.02213 22.28721 -0.36746
#
# Velocity S-wave (km/s) = -3.37566 3.32135 -0.42647
# Velocity P-wave (km/s) = 3.43270 6.79467 5.38289
#
# Compressibility (1/GPa) = 0.01834765
#
# Stress axis : x y z
#
# Youngs Moduli (GPa) = 46.09718 116.67003 78.76086
#
# Poissons Ratio (x) = 0.54733 0.41836
# Poissons Ratio (y) = 0.21626 0.18144
# Poissons Ratio (z) = 0.24486 0.26877
#
# Static dielectric constant tensor:
#      x y z
#    x 1.767220 0.000000 0.000000 
#    y 0.000000 1.832830 0.000000 
#    z 0.000000 0.000000 1.714380 
# 
# From -- ./inp_files/20584.got.cif
#   From: 2010.05.17/outbox.cif.g08.bks.cpg/sg40_11_cif.got.tgz:20584.got - 2010.06.03 18:35:42.
