data_PCOD9364412
_publ_section_title
;
Structure prediction by ZEFSAII (Michael W. Deem and Ramdas Pophale) SiO2 
 PCOD9364412
Probable space group: A M A 2
;
_chemical_formula_sum "Si O2"
_cell_formula_units_Z 64
_cell_length_a 19.747858
_cell_length_b 13.454581
_cell_length_c 13.958119
_cell_angle_alpha 90.000000
_cell_angle_beta 90.000000
_cell_angle_gamma 90.000000
_cell_volume 3708.660424
_symmetry_space_group_name_H-M "A M A 2"
_symmetry_group_IT_number 40
_symmetry_cell_setting 'orthorhombic'
loop_
_space_group_symop_operation_xyz
x,y,z
-x,-y,z
1/2-x,y,z
1/2+x,-y,z
x,1/2+y,1/2+z
-x,1/2-y,1/2+z
1/2-x,1/2+y,1/2+z
1/2+x,1/2-y,1/2+z
loop_
_atom_site_type_symbol
_atom_site_label
_atom_site_fract_x
_atom_site_fract_y
_atom_site_fract_z
Si Si1 0.950220 0.245779 0.358880
Si Si2 0.173973 0.014919 0.131571
Si Si3 0.527633 0.891201 0.504065
Si Si4 0.553949 0.913003 0.014401
Si Si5 0.673365 0.397866 0.941709
Si Si6 0.324642 0.722244 0.749423
Si Si7 0.466163 0.763660 0.667152
Si Si8 0.170791 0.898767 0.318894
O O1 0.940836 0.346377 0.419374
O O2 0.880090 0.185233 0.353827
O O3 0.003911 0.179650 0.417988
O O4 0.981602 0.257379 0.254185
O O5 0.250000 0.990133 0.100448
O O6 0.123144 0.033566 0.045794
O O7 0.176917 0.118972 0.189754
O O8 0.151806 0.934838 0.211421
O O9 0.608997 0.888746 0.510478
O O10 0.490067 0.850691 0.597479
O O11 0.500000 0.000000 0.481751
O O12 0.535169 0.836420 0.101354
O O13 0.500000 0.000000 0.004184
O O14 0.750000 0.393595 0.981725
O O15 0.668193 0.313313 0.859292
O O16 0.665988 0.503574 0.886395
O O17 0.250000 0.769586 0.736959
O O18 0.390609 0.777852 0.710179
O O19 0.250000 0.869368 0.318365
#
# Coordination Sequence:
#
# PCOD9364412 Si02
#       8
#     8   8   8   8   8   8   8   8
#     4  11  21  34  53  78 110 144 182 228 277 325
#     4   8  15  29  51  78 105 133 173 219 269 320
#     4  11  21  34  53  81 111 143 183 226 281 331
#     4  10  21  34  52  76 106 145 184 219 265 326
#     4   9  16  30  54  80 107 140 179 224 277 331
#     4   8  14  28  51  78 104 136 177 225 273 315
#     4  10  21  34  52  80 108 142 185 230 273 328
#     4   9  17  30  53  84 108 134 174 227 285 328
#
# _framework density 17.256903999999999
#
# number of rings (size 3 to 8) (size 9 to 14) (size 15 to 20)
#    0.000    2.500    2.500    2.250    0.000    1.500 
#    0.000    3.125    0.000    3.750    0.000    1.750 
#    0.000    0.000    0.000    0.000    0.000    0.000 
#
# Total GULP energy -178282.767936 kJ/mol
# GULP energy per Si atom -5571.336498 kJ/mol
# Density = 1.721763 g / cm^3
# Si number density = 17.256904 Si / 1000 Ang^3
#
#
#
# Elastic Constant Matrix: (Units=GPa)
#
#
# Indices 1 2 3 4 5 6 
#
# 1 117.8459 29.7379 16.2512 0.0000 0.0000 0.0000
# 2 29.7379 36.1975 6.2990 0.0000 0.0000 0.0000
# 3 16.2512 6.2990 35.9377 0.0000 0.0000 0.0000
# 4 0.0000 0.0000 0.0000 9.9515 0.0000 0.0000
# 5 0.0000 0.0000 0.0000 0.0000 11.1914 0.0000
# 6 0.0000 0.0000 0.0000 0.0000 0.0000 18.4901
#
#
#
# Elastic Compliance Matrix: (Units=1/GPa)
#
#
# Indices 1 2 3 4 5 6 
#
# 1 0.011124 -0.008524 -0.003536 0.000000 0.000000 0.000000
# 2 -0.008524 0.035026 -0.002285 0.000000 0.000000 0.000000
# 3 -0.003536 -0.002285 0.029826 0.000000 0.000000 0.000000
# 4 0.000000 0.000000 0.000000 0.100487 0.000000 0.000000
# 5 0.000000 0.000000 0.000000 0.000000 0.089354 0.000000
# 6 0.000000 0.000000 0.000000 0.000000 0.000000 0.054083
#
#
# Mechanical properties :
#
#
# Convention : Reuss Voigt Hill
#
# Bulk Modulus (GPa) = 21.14776 32.72861 26.93818
# Shear Modulus (GPa) = 13.72296 17.10613 15.41455
#
# Velocity S-wave (km/s) = 2.82302 3.15185 2.99195
# Velocity P-wave (km/s) = 4.78614 5.67910 5.25164
#
# Compressibility (1/GPa) = 0.04728634
#
# Stress axis : x y z
#
# Youngs Moduli (GPa) = 89.89356 28.54981 33.52827
#
# Poissons Ratio (x) = 0.24335 0.11857
# Poissons Ratio (y) = 0.76623 0.07661
# Poissons Ratio (z) = 0.31790 0.06523
#
# Static dielectric constant tensor:
#      x y z
#    x 1.608310 0.000000 0.000000 
#    y 0.000000 1.566250 0.000000 
#    z 0.000000 0.000000 1.586870 
# 
# From -- ./inp_files/17942.got.cif
#   From: 2010.05.17/outbox.cif.g08.bks.cpg/sg40_9_cif.got.tgz:17942.got - 2010.06.03 18:35:42.
