data_PCOD9364238
_publ_section_title
;
Structure prediction by ZEFSAII (Michael W. Deem and Ramdas Pophale) SiO2 
 PCOD9364238
Probable space group: A M A 2
;
_chemical_formula_sum "Si O2"
_cell_formula_units_Z 64
_cell_length_a 14.014216
_cell_length_b 18.824184
_cell_length_c 11.868192
_cell_angle_alpha 90.000000
_cell_angle_beta 90.000000
_cell_angle_gamma 90.000000
_cell_volume 3130.902402
_symmetry_space_group_name_H-M "A M A 2"
_symmetry_group_IT_number 40
_symmetry_cell_setting 'orthorhombic'
loop_
_space_group_symop_operation_xyz
x,y,z
-x,-y,z
1/2-x,y,z
1/2+x,-y,z
x,1/2+y,1/2+z
-x,1/2-y,1/2+z
1/2-x,1/2+y,1/2+z
1/2+x,1/2-y,1/2+z
loop_
_atom_site_type_symbol
_atom_site_label
_atom_site_fract_x
_atom_site_fract_y
_atom_site_fract_z
Si Si1 0.640789 0.405010 0.007550
Si Si2 0.643115 0.592227 0.403132
Si Si3 0.456066 0.674485 0.398743
Si Si4 0.600311 0.460563 0.255100
Si Si5 0.493972 0.173766 0.360861
Si Si6 0.861382 0.511732 0.616282
Si Si7 0.865152 0.046638 0.366317
Si Si8 0.136005 0.655188 0.636080
O O1 0.750000 0.389852 0.977484
O O2 0.634965 0.428366 0.137419
O O3 0.577486 0.338844 0.966786
O O4 0.612164 0.475878 0.937142
O O5 0.750000 0.620241 0.419878
O O6 0.567315 0.653241 0.380724
O O7 0.651002 0.527467 0.314340
O O8 0.596421 0.554113 0.512714
O O9 0.404823 0.606795 0.339986
O O10 0.451935 0.752009 0.344475
O O11 0.416703 0.686258 0.525642
O O12 0.500000 0.500000 0.232217
O O13 0.575069 0.116155 0.392341
O O14 0.426325 0.163778 0.250194
O O15 0.750000 0.530818 0.611998
O O16 0.895667 0.532944 0.737949
O O17 0.866166 0.428238 0.607968
O O18 0.750000 0.056347 0.373831
O O19 0.250000 0.675079 0.647627
#
# Coordination Sequence:
#
# PCOD9364238 Si02
#       8
#     8   8   8   8   8   8   8   8
#     4  11  23  40  64  90 122 166 216 265 314 372
#     4  10  20  38  64  93 123 159 206 263 313 367
#     4  11  26  40  63  92 131 166 210 254 318 383
#     4  10  21  39  62  90 122 165 214 263 310 372
#     4  12  25  40  64  91 132 167 209 255 316 386
#     4   9  17  34  64  94 114 143 200 254 308 360
#     4  10  21  39  63  93 122 159 208 263 314 366
#     4  11  23  42  68  95 125 165 212 262 321 381
#
# _framework density 20.441392
#
# number of rings (size 3 to 8) (size 9 to 14) (size 15 to 20)
#    0.000    1.500    2.500    2.625    1.750    3.000 
#    0.000    0.000    0.000    0.000    0.000    0.000 
#    0.000    0.000    0.000    0.000    0.000    0.000 
#
# Total GULP energy -178265.146504 kJ/mol
# GULP energy per Si atom -5570.785828 kJ/mol
# Density = 2.039487 g / cm^3
# Si number density = 20.441392 Si / 1000 Ang^3
#
#
#
# Elastic Constant Matrix: (Units=GPa)
#
#
# Indices 1 2 3 4 5 6 
#
# 1 76.0613 -2.2822 -16.5076 0.0000 0.0000 0.0000
# 2 -2.2822 35.4071 -21.4374 0.0000 0.0000 0.0000
# 3 -16.5076 -21.4374 60.9192 0.0000 0.0000 0.0000
# 4 0.0000 0.0000 0.0000 7.2429 0.0000 0.0000
# 5 0.0000 0.0000 0.0000 0.0000 25.0866 0.0000
# 6 0.0000 0.0000 0.0000 0.0000 0.0000 -34.7807
#
#
#
# Elastic Compliance Matrix: (Units=1/GPa)
#
#
# Indices 1 2 3 4 5 6 
#
# 1 0.014443 0.004194 0.005390 0.000000 0.000000 0.000000
# 2 0.004194 0.037107 0.014195 0.000000 0.000000 0.000000
# 3 0.005390 0.014195 0.022871 0.000000 0.000000 0.000000
# 4 0.000000 0.000000 0.000000 0.138066 0.000000 0.000000
# 5 0.000000 0.000000 0.000000 0.000000 0.039862 0.000000
# 6 0.000000 0.000000 0.000000 0.000000 0.000000 -0.028752
#
#
# Mechanical properties :
#
#
# Convention : Reuss Voigt Hill
#
# Bulk Modulus (GPa) = 8.19825 10.21479 9.20652
# Shear Modulus (GPa) = 23.07340 13.68409 18.37874
#
# Velocity S-wave (km/s) = 3.36335 2.59014 3.00174
# Velocity P-wave (km/s) = 4.37060 3.73538 4.06541
#
# Compressibility (1/GPa) = 0.12197727
#
# Stress axis : x y z
#
# Youngs Moduli (GPa) = 69.23854 26.94879 43.72413
#
# Poissons Ratio (x) = -0.11303 -0.23565
# Poissons Ratio (y) = -0.29039 -0.62065
# Poissons Ratio (z) = -0.37316 -0.38253
#
# Static dielectric constant tensor:
#      x y z
#    x 1.741920 0.000000 0.000000 
#    y 0.000000 1.728120 0.000000 
#    z 0.000000 0.000000 1.799060 
# 
# From -- ./inp_files/12455.got.cif
#   From: 2010.05.17/outbox.cif.g08.bks.cpg/sg40_7_cif.got.tgz:12455.got - 2010.06.03 18:35:42.
