data_PCOD9364832
_publ_section_title
;
Structure prediction by ZEFSAII (Michael W. Deem and Ramdas Pophale) SiO2 
 PCOD9364832
Probable space group: A M A 2
;
_chemical_formula_sum "Si O2"
_cell_formula_units_Z 36
_cell_length_a 17.247002
_cell_length_b 6.460141
_cell_length_c 13.277563
_cell_angle_alpha 90.000000
_cell_angle_beta 90.000000
_cell_angle_gamma 90.000000
_cell_volume 1479.360374
_symmetry_space_group_name_H-M "A M A 2"
_symmetry_group_IT_number 40
_symmetry_cell_setting 'orthorhombic'
loop_
_space_group_symop_operation_xyz
x,y,z
-x,-y,z
1/2-x,y,z
1/2+x,-y,z
x,1/2+y,1/2+z
-x,1/2-y,1/2+z
1/2-x,1/2+y,1/2+z
1/2+x,1/2-y,1/2+z
loop_
_atom_site_type_symbol
_atom_site_label
_atom_site_fract_x
_atom_site_fract_y
_atom_site_fract_z
Si Si1 0.054255 0.820690 0.939070
Si Si2 0.163634 0.358739 0.140976
Si Si3 0.500000 0.500000 0.102609
Si Si4 0.341236 0.529797 0.804429
Si Si5 0.164479 0.167298 0.930077
O O1 0.095139 0.663261 0.864147
O O2 0.122796 0.968769 0.974363
O O3 0.000000 0.000000 0.892799
O O4 0.012174 0.697016 0.027911
O O5 0.250000 0.444063 0.169750
O O6 0.158406 0.134312 0.194912
O O7 0.081574 0.471195 0.160599
O O8 0.165148 0.332181 0.020614
O O9 0.250000 0.549228 0.837448
O O10 0.363408 0.294145 0.831978
O O11 0.250000 0.095524 0.904943
#
# Coordination Sequence:
#
# PCOD9364832 Si02
#       5
#     8   8   4   8   8
#     4  12  22  39  62  97 132 182 234 294 364 429
#     4  10  22  43  68  99 141 190 240 298 366 434
#     4  12  24  44  68 102 144 190 244 304 372 436
#     4  10  22  42  65  94 136 183 240 305 366 437
#     4  10  21  42  67  92 132 182 234 295 360 428
#
# _framework density 24.334841999999998
#
# number of rings (size 3 to 8) (size 9 to 14) (size 15 to 20)
#    0.000    1.333    4.444    0.667    1.556    0.889 
#    4.000    4.444    0.000    0.000    0.000    0.000 
#    0.000    0.000    0.000    0.000    0.000    0.000 
#
# Total GULP energy -100291.637415 kJ/mol
# GULP energy per Si atom -5571.757634 kJ/mol
# Density = 2.427945 g / cm^3
# Si number density = 24.334842 Si / 1000 Ang^3
#
#
#
# Elastic Constant Matrix: (Units=GPa)
#
#
# Indices 1 2 3 4 5 6 
#
# 1 155.7343 77.8164 36.9613 0.0000 0.0000 0.0000
# 2 77.8164 90.3557 26.2544 0.0000 0.0000 0.0000
# 3 36.9613 26.2544 79.2234 0.0000 0.0000 0.0000
# 4 0.0000 0.0000 0.0000 37.2651 0.0000 0.0000
# 5 0.0000 0.0000 0.0000 0.0000 16.1816 0.0000
# 6 0.0000 0.0000 0.0000 0.0000 0.0000 28.5159
#
#
#
# Elastic Compliance Matrix: (Units=1/GPa)
#
#
# Indices 1 2 3 4 5 6 
#
# 1 0.011649 -0.009354 -0.002335 0.000000 0.000000 0.000000
# 2 -0.009354 0.019758 -0.002184 0.000000 0.000000 0.000000
# 3 -0.002335 -0.002184 0.014436 0.000000 0.000000 0.000000
# 4 0.000000 0.000000 0.000000 0.026835 0.000000 0.000000
# 5 0.000000 0.000000 0.000000 0.000000 0.061799 0.000000
# 6 0.000000 0.000000 0.000000 0.000000 0.000000 0.035068
#
#
# Mechanical properties :
#
#
# Convention : Reuss Voigt Hill
#
# Bulk Modulus (GPa) = 55.25691 67.48640 61.37165
# Shear Modulus (GPa) = 24.59143 28.67793 26.63468
#
# Velocity S-wave (km/s) = 3.18235 3.43661 3.31192
# Velocity P-wave (km/s) = 6.02158 6.59846 6.31661
#
# Compressibility (1/GPa) = 0.01809729
#
# Stress axis : x y z
#
# Youngs Moduli (GPa) = 85.84062 50.61241 69.27349
#
# Poissons Ratio (x) = 0.47345 0.16175
# Poissons Ratio (y) = 0.80298 0.15126
# Poissons Ratio (z) = 0.20044 0.11051
#
# Static dielectric constant tensor:
#      x y z
#    x 2.190750 0.000000 0.000000 
#    y 0.000000 1.950040 0.000000 
#    z 0.000000 0.000000 1.890330 
# 
# From -- ./inp_files/18004.got.cif
#   From: 2010.05.17/outbox.cif.g08.bks.cpg/sg40_10_cif.got.tgz:18004.got - 2010.06.03 18:35:42.
