data_PCOD9364596
_publ_section_title
;
Structure prediction by ZEFSAII (Michael W. Deem and Ramdas Pophale) SiO2 
 PCOD9364596
Probable space group: A M A 2
;
_chemical_formula_sum "Si O2"
_cell_formula_units_Z 64
_cell_length_a 17.727849
_cell_length_b 10.174294
_cell_length_c 19.546457
_cell_angle_alpha 90.000000
_cell_angle_beta 90.000000
_cell_angle_gamma 90.000000
_cell_volume 3525.562153
_symmetry_space_group_name_H-M "A M A 2"
_symmetry_group_IT_number 40
_symmetry_cell_setting 'orthorhombic'
loop_
_space_group_symop_operation_xyz
x,y,z
-x,-y,z
1/2-x,y,z
1/2+x,-y,z
x,1/2+y,1/2+z
-x,1/2-y,1/2+z
1/2-x,1/2+y,1/2+z
1/2+x,1/2-y,1/2+z
loop_
_atom_site_type_symbol
_atom_site_label
_atom_site_fract_x
_atom_site_fract_y
_atom_site_fract_z
Si Si1 0.338874 0.020155 0.054400
Si Si2 0.542796 0.206036 0.794074
Si Si3 0.925416 0.253419 0.064610
Si Si4 0.577691 0.267288 0.646351
Si Si5 0.009508 0.845362 0.429877
Si Si6 0.665204 0.300392 0.422850
Si Si7 0.882658 0.433372 0.285180
Si Si8 0.337220 0.009412 0.632828
O O1 0.250000 0.011207 0.067851
O O2 0.377752 0.118035 0.108309
O O3 0.376406 0.877913 0.059153
O O4 0.348757 0.086703 0.979663
O O5 0.575390 0.280052 0.728228
O O6 0.527839 0.293346 0.860023
O O7 0.461862 0.142525 0.774409
O O8 0.596204 0.081164 0.808424
O O9 0.875989 0.378838 0.086900
O O10 0.992416 0.234903 0.119174
O O11 0.967254 0.278941 0.993220
O O12 0.616359 0.126840 0.629025
O O13 0.097233 0.802558 0.430524
O O14 0.000000 0.000000 0.435577
O O15 0.750000 0.248368 0.434296
O O16 0.659300 0.361456 0.346956
O O17 0.842563 0.443682 0.212090
O O18 0.250000 0.988490 0.614419
#
# Coordination Sequence:
#
# PCOD9364596 Si02
#       8
#     8   8   8   8   8   8   8   8
#     4  11  24  40  60  89 120 154 200 252 309 358
#     4   9  19  35  60  87 118 155 203 247 284 355
#     4  12  23  39  60  88 119 161 200 251 296 362
#     4  11  21  39  62  88 119 160 204 244 298 358
#     4  11  23  39  60  88 121 159 206 245 300 362
#     4  10  21  38  61  87 117 152 195 249 304 360
#     4   9  17  35  60  89 116 152 198 244 296 354
#     4  11  22  37  61  90 123 157 198 252 303 351
#
# _framework density 18.153133
#
# number of rings (size 3 to 8) (size 9 to 14) (size 15 to 20)
#    0.000    1.500    2.500    3.375    0.000    2.000 
#    0.000    0.625    0.000    6.000    0.000    0.000 
#    0.000    0.000    0.000    0.000    0.000    0.000 
#
# Total GULP energy -178760.137042 kJ/mol
# GULP energy per Si atom -5586.254283 kJ/mol
# Density = 1.811182 g / cm^3
# Si number density = 18.153133 Si / 1000 Ang^3
#
#
#
# Elastic Constant Matrix: (Units=GPa)
#
#
# Indices 1 2 3 4 5 6 
#
# 1 84.8461 21.0688 14.2056 0.0000 0.0000 0.0000
# 2 21.0688 68.1612 24.6751 0.0000 0.0000 0.0000
# 3 14.2056 24.6751 71.1647 0.0000 0.0000 0.0000
# 4 0.0000 0.0000 0.0000 23.3832 0.0000 0.0000
# 5 0.0000 0.0000 0.0000 0.0000 21.0739 0.0000
# 6 0.0000 0.0000 0.0000 0.0000 0.0000 19.8947
#
#
#
# Elastic Compliance Matrix: (Units=1/GPa)
#
#
# Indices 1 2 3 4 5 6 
#
# 1 0.012880 -0.003488 -0.001362 0.000000 0.000000 0.000000
# 2 -0.003488 0.017722 -0.005448 0.000000 0.000000 0.000000
# 3 -0.001362 -0.005448 0.016213 0.000000 0.000000 0.000000
# 4 0.000000 0.000000 0.000000 0.042766 0.000000 0.000000
# 5 0.000000 0.000000 0.000000 0.000000 0.047452 0.000000
# 6 0.000000 0.000000 0.000000 0.000000 0.000000 0.050265
#
#
# Mechanical properties :
#
#
# Convention : Reuss Voigt Hill
#
# Bulk Modulus (GPa) = 38.14152 38.23012 38.18582
# Shear Modulus (GPa) = 23.08045 23.81850 23.44948
#
# Velocity S-wave (km/s) = 3.56958 3.62620 3.59800
# Velocity P-wave (km/s) = 6.16813 6.21595 6.19208
#
# Compressibility (1/GPa) = 0.02621815
#
# Stress axis : x y z
#
# Youngs Moduli (GPa) = 77.63826 56.42780 61.67953
#
# Poissons Ratio (x) = 0.19684 0.08398
# Poissons Ratio (y) = 0.27083 0.33605
# Poissons Ratio (z) = 0.10571 0.30744
#
# Static dielectric constant tensor:
#      x y z
#    x 1.617100 0.000000 0.000000 
#    y 0.000000 1.588010 0.000000 
#    z 0.000000 0.000000 1.618770 
# 
# From -- ./inp_files/23352.got.cif
#   From: 2010.05.17/outbox.cif.g08.bks.cpg/sg40_12_cif.got.tgz:23352.got - 2010.06.03 18:35:42.
