data_PCOD9364595
_publ_section_title
;
Structure prediction by ZEFSAII (Michael W. Deem and Ramdas Pophale) SiO2 
 PCOD9364595
Probable space group: A M A 2
;
_chemical_formula_sum "Si O2"
_cell_formula_units_Z 56
_cell_length_a 21.440147
_cell_length_b 11.912264
_cell_length_c 10.348615
_cell_angle_alpha 90.000000
_cell_angle_beta 90.000000
_cell_angle_gamma 90.000000
_cell_volume 2643.043425
_symmetry_space_group_name_H-M "A M A 2"
_symmetry_group_IT_number 40
_symmetry_cell_setting 'orthorhombic'
loop_
_space_group_symop_operation_xyz
x,y,z
-x,-y,z
1/2-x,y,z
1/2+x,-y,z
x,1/2+y,1/2+z
-x,1/2-y,1/2+z
1/2-x,1/2+y,1/2+z
1/2+x,1/2-y,1/2+z
loop_
_atom_site_type_symbol
_atom_site_label
_atom_site_fract_x
_atom_site_fract_y
_atom_site_fract_z
Si Si1 0.320722 0.344454 0.800120
Si Si2 0.612445 0.778370 0.184304
Si Si3 0.822607 0.920398 0.404256
Si Si4 0.676649 0.107604 0.829335
Si Si5 0.120565 0.629911 0.401884
Si Si6 0.618183 0.248819 0.057319
Si Si7 0.512514 0.866404 0.692996
O O1 0.250000 0.358062 0.752633
O O2 0.334599 0.447912 0.893918
O O3 0.331037 0.228685 0.871847
O O4 0.365554 0.330349 0.677589
O O5 0.633532 0.865149 0.295419
O O6 0.663145 0.676521 0.197574
O O7 0.548884 0.709040 0.206604
O O8 0.608583 0.851104 0.053524
O O9 0.750000 0.899838 0.372287
O O10 0.837058 0.857814 0.538392
O O11 0.750000 0.112877 0.858724
O O12 0.651480 0.982836 0.847172
O O13 0.635371 0.174512 0.934751
O O14 0.056968 0.643326 0.319199
O O15 0.551728 0.306654 0.078256
O O16 0.500000 0.000000 0.671568
#
# Coordination Sequence:
#
# PCOD9364595 Si02
#       7
#     8   8   8   8   8   8   8
#     4  10  21  38  60  94 131 166 217 276 336 407
#     4  11  24  41  67  97 128 182 228 280 348 415
#     4  10  22  41  66  97 135 175 226 284 343 413
#     4  11  23  43  70 102 139 178 232 294 355 424
#     4  11  25  41  65  99 134 180 230 280 353 418
#     4  10  22  40  66  93 125 178 220 274 346 401
#     4  11  25  45  65  93 137 178 227 290 344 422
#
# _framework density 21.187695999999999
#
# number of rings (size 3 to 8) (size 9 to 14) (size 15 to 20)
#    0.000    1.429    1.429    3.857    6.000    3.429 
#    0.000    8.571    0.000    0.857    0.000    0.000 
#    0.000    0.000    0.000    0.000    0.000    0.000 
#
# Total GULP energy -156067.987589 kJ/mol
# GULP energy per Si atom -5573.856700 kJ/mol
# Density = 2.113947 g / cm^3
# Si number density = 21.187696 Si / 1000 Ang^3
#
#
#
# Elastic Constant Matrix: (Units=GPa)
#
#
# Indices 1 2 3 4 5 6 
#
# 1 100.4980 28.6893 10.8543 0.0000 0.0000 0.0000
# 2 28.6893 122.9132 -1.0669 0.0000 0.0000 0.0000
# 3 10.8543 -1.0669 43.6565 0.0000 0.0000 0.0000
# 4 0.0000 0.0000 0.0000 23.3367 0.0000 0.0000
# 5 0.0000 0.0000 0.0000 0.0000 3.7604 0.0000
# 6 0.0000 0.0000 0.0000 0.0000 0.0000 28.3234
#
#
#
# Elastic Compliance Matrix: (Units=1/GPa)
#
#
# Indices 1 2 3 4 5 6 
#
# 1 0.010992 -0.002590 -0.002796 0.000000 0.000000 0.000000
# 2 -0.002590 0.008748 0.000858 0.000000 0.000000 0.000000
# 3 -0.002796 0.000858 0.023622 0.000000 0.000000 0.000000
# 4 0.000000 0.000000 0.000000 0.042851 0.000000 0.000000
# 5 0.000000 0.000000 0.000000 0.000000 0.265927 0.000000
# 6 0.000000 0.000000 0.000000 0.000000 0.000000 0.035307
#
#
# Mechanical properties :
#
#
# Convention : Reuss Voigt Hill
#
# Bulk Modulus (GPa) = 29.15018 38.22459 33.68739
# Shear Modulus (GPa) = 12.25677 26.32351 19.29014
#
# Velocity S-wave (km/s) = 2.40778 3.52859 3.02062
# Velocity P-wave (km/s) = 4.63873 5.88909 5.30090
#
# Compressibility (1/GPa) = 0.03430510
#
# Stress axis : x y z
#
# Youngs Moduli (GPa) = 90.97707 114.31484 42.33295
#
# Poissons Ratio (x) = 0.29606 0.11837
# Poissons Ratio (y) = 0.23562 -0.03631
# Poissons Ratio (z) = 0.25439 -0.09805
#
# Static dielectric constant tensor:
#      x y z
#    x 1.763960 0.000000 0.000000 
#    y 0.000000 1.746840 0.000000 
#    z 0.000000 0.000000 1.885440 
# 
# From -- ./inp_files/13558.got.cif
#   From: 2010.05.17/outbox.cif.g08.bks.cpg/sg40_7_cif.got.tgz:13558.got - 2010.06.03 18:35:42.
