data_PCOD9364393
_publ_section_title
;
Structure prediction by ZEFSAII (Michael W. Deem and Ramdas Pophale) SiO2 
 PCOD9364393
Probable space group: A M A 2
;
_chemical_formula_sum "Si O2"
_cell_formula_units_Z 36
_cell_length_a 24.374469
_cell_length_b 6.841932
_cell_length_c 7.097721
_cell_angle_alpha 90.000000
_cell_angle_beta 90.000000
_cell_angle_gamma 90.000000
_cell_volume 1183.675997
_symmetry_space_group_name_H-M "A M A 2"
_symmetry_group_IT_number 40
_symmetry_cell_setting 'orthorhombic'
loop_
_space_group_symop_operation_xyz
x,y,z
-x,-y,z
1/2-x,y,z
1/2+x,-y,z
x,1/2+y,1/2+z
-x,1/2-y,1/2+z
1/2-x,1/2+y,1/2+z
1/2+x,1/2-y,1/2+z
loop_
_atom_site_type_symbol
_atom_site_label
_atom_site_fract_x
_atom_site_fract_y
_atom_site_fract_z
Si Si1 0.250000 0.330179 0.982190
Si Si2 0.913268 0.445588 0.584136
Si Si3 0.052477 0.130467 0.694482
Si Si4 0.306294 0.443577 0.378891
Si Si5 0.346508 0.032732 0.456815
O O1 0.303307 0.387810 0.846971
O O2 0.296944 0.403755 0.156628
O O3 0.855423 0.450756 0.474730
O O4 0.892375 0.400194 0.792778
O O5 0.941840 0.655586 0.607208
O O6 0.946960 0.337134 0.421353
O O7 0.107175 0.017225 0.622498
O O8 0.000000 0.000000 0.649893
O O9 0.250000 0.573124 0.442647
O O10 0.309474 0.229975 0.464898
#
# Coordination Sequence:
#
# PCOD9364393 Si02
#       5
#     4   8   8   8   8
#     4  10  20  42  80 116 166 218 264 336 424 524
#     4  11  26  50  78 116 160 208 279 337 424 497
#     4  11  29  53  82 121 159 213 296 355 416 510
#     4   9  22  43  68 119 160 205 269 324 402 520
#     4  11  24  49  82 115 167 226 264 348 431 502
#
# _framework density 30.413729
#
# number of rings (size 3 to 8) (size 9 to 14) (size 15 to 20)
#    0.667    0.889    1.111    1.333    4.667    8.000 
#    6.000    0.000    0.000    0.000    0.000    0.000 
#    0.000    0.000    0.000    0.000    0.000    0.000 
#
# Total GULP energy -100311.338569 kJ/mol
# GULP energy per Si atom -5572.852143 kJ/mol
# Density = 3.034451 g / cm^3
# Si number density = 30.413729 Si / 1000 Ang^3
#
#
#
# Elastic Constant Matrix: (Units=GPa)
#
#
# Indices 1 2 3 4 5 6 
#
# 1 149.1570 44.0728 36.4975 0.0000 0.0000 0.0000
# 2 44.0728 146.3638 27.1615 0.0000 0.0000 0.0000
# 3 36.4975 27.1615 179.2833 0.0000 0.0000 0.0000
# 4 0.0000 0.0000 0.0000 36.2184 0.0000 0.0000
# 5 0.0000 0.0000 0.0000 0.0000 -1.7567 0.0000
# 6 0.0000 0.0000 0.0000 0.0000 0.0000 54.3732
#
#
#
# Elastic Compliance Matrix: (Units=1/GPa)
#
#
# Indices 1 2 3 4 5 6 
#
# 1 0.007617 -0.002064 -0.001238 0.000000 0.000000 0.000000
# 2 -0.002064 0.007589 -0.000730 0.000000 0.000000 0.000000
# 3 -0.001238 -0.000730 0.005940 0.000000 0.000000 0.000000
# 4 0.000000 0.000000 0.000000 0.027610 0.000000 0.000000
# 5 0.000000 0.000000 0.000000 0.000000 -0.569260 0.000000
# 6 0.000000 0.000000 0.000000 0.000000 0.000000 0.018391
#
#
# Mechanical properties :
#
#
# Convention : Reuss Voigt Hill
#
# Bulk Modulus (GPa) = 76.43137 76.69641 76.56389
# Shear Modulus (GPa) = -10.21058 42.23848 16.01395
#
# Velocity S-wave (km/s) = -1.83426 3.73070 2.29713
# Velocity P-wave (km/s) = 4.54962 6.62042 5.68019
#
# Compressibility (1/GPa) = 0.01308363
#
# Stress axis : x y z
#
# Youngs Moduli (GPa) = 131.28347 131.76676 168.34118
#
# Poissons Ratio (x) = 0.27196 0.20840
# Poissons Ratio (y) = 0.27096 0.12282
# Poissons Ratio (z) = 0.16252 0.09614
#
# Static dielectric constant tensor:
#      x y z
#    x 3.122490 0.000000 0.000000 
#    y 0.000000 2.588270 0.000000 
#    z 0.000000 0.000000 2.537970 
# 
# From -- ./inp_files/3300.got.cif
#   From: 2010.05.17/outbox.cif.g08.bks.cpg/sg40_2_cif.got.tgz:3300.got - 2010.06.03 18:35:42.
