data_PCOD9364330
_publ_section_title
;
Structure prediction by ZEFSAII (Michael W. Deem and Ramdas Pophale) SiO2 
 PCOD9364330
Probable space group: A M A 2
;
_chemical_formula_sum "Si O2"
_cell_formula_units_Z 52
_cell_length_a 14.883110
_cell_length_b 9.357409
_cell_length_c 17.370272
_cell_angle_alpha 90.000000
_cell_angle_beta 90.000000
_cell_angle_gamma 90.000000
_cell_volume 2419.111706
_symmetry_space_group_name_H-M "A M A 2"
_symmetry_group_IT_number 40
_symmetry_cell_setting 'orthorhombic'
loop_
_space_group_symop_operation_xyz
x,y,z
-x,-y,z
1/2-x,y,z
1/2+x,-y,z
x,1/2+y,1/2+z
-x,1/2-y,1/2+z
1/2-x,1/2+y,1/2+z
1/2+x,1/2-y,1/2+z
loop_
_atom_site_type_symbol
_atom_site_label
_atom_site_fract_x
_atom_site_fract_y
_atom_site_fract_z
Si Si1 0.481148 0.167635 0.120010
Si Si2 0.644991 0.541502 0.385571
Si Si3 0.250000 0.948303 0.400081
Si Si4 0.643457 0.154391 0.717581
Si Si5 0.416774 0.750242 0.450183
Si Si6 0.854237 0.377693 0.112073
Si Si7 0.891117 0.844083 0.437720
O O1 0.415031 0.214399 0.188128
O O2 0.574016 0.255079 0.130129
O O3 0.500000 0.000000 0.115882
O O4 0.434213 0.221070 0.040697
O O5 0.750000 0.500114 0.381710
O O6 0.618423 0.601891 0.302450
O O7 0.589324 0.404926 0.411046
O O8 0.635852 0.676677 0.441965
O O9 0.328552 0.835442 0.427401
O O10 0.171465 0.069525 0.380488
O O11 0.750000 0.184707 0.715371
O O12 0.626624 0.019953 0.660600
O O13 0.503779 0.838031 0.423121
O O14 0.750000 0.337442 0.125964
O O15 0.866206 0.408994 0.021310
#
# Coordination Sequence:
#
# PCOD9364330 Si02
#       7
#     8   8   4   8   8   8   8
#     4  11  24  40  64 101 136 171 226 283 342 397
#     4  11  22  45  70  97 133 181 226 279 341 417
#     4  12  22  38  62  94 138 168 222 278 344 390
#     4  10  24  42  72  98 131 179 227 272 336 413
#     4  11  24  40  67 102 134 179 229 280 343 416
#     4  10  20  40  64  94 128 177 223 273 327 405
#     4  11  22  39  66  97 134 171 223 283 341 396
#
# _framework density 21.495491999999999
#
# number of rings (size 3 to 8) (size 9 to 14) (size 15 to 20)
#    0.000    1.231    2.308    4.154    3.231    5.538 
#    0.000    3.077    0.000    0.000    0.000    0.000 
#    0.000    0.000    0.000    0.000    0.000    0.000 
#
# Total GULP energy -144915.051353 kJ/mol
# GULP energy per Si atom -5573.655821 kJ/mol
# Density = 2.144657 g / cm^3
# Si number density = 21.495492 Si / 1000 Ang^3
#
#
#
# Elastic Constant Matrix: (Units=GPa)
#
#
# Indices 1 2 3 4 5 6 
#
# 1 147.6616 47.4859 12.3714 0.0000 0.0000 0.0000
# 2 47.4859 117.3162 1.5650 0.0000 0.0000 0.0000
# 3 12.3714 1.5650 47.1022 0.0000 0.0000 0.0000
# 4 0.0000 0.0000 0.0000 26.3989 0.0000 0.0000
# 5 0.0000 0.0000 0.0000 0.0000 14.9734 0.0000
# 6 0.0000 0.0000 0.0000 0.0000 0.0000 15.4315
#
#
#
# Elastic Compliance Matrix: (Units=1/GPa)
#
#
# Indices 1 2 3 4 5 6 
#
# 1 0.007967 -0.003198 -0.001986 0.000000 0.000000 0.000000
# 2 -0.003198 0.009812 0.000514 0.000000 0.000000 0.000000
# 3 -0.001986 0.000514 0.021735 0.000000 0.000000 0.000000
# 4 0.000000 0.000000 0.000000 0.037880 0.000000 0.000000
# 5 0.000000 0.000000 0.000000 0.000000 0.066785 0.000000
# 6 0.000000 0.000000 0.000000 0.000000 0.000000 0.064802
#
#
# Mechanical properties :
#
#
# Convention : Reuss Voigt Hill
#
# Bulk Modulus (GPa) = 33.14256 48.32496 40.73376
# Shear Modulus (GPa) = 21.89325 28.07126 24.98226
#
# Velocity S-wave (km/s) = 3.19486 3.61766 3.41282
# Velocity P-wave (km/s) = 5.39086 6.32299 5.87544
#
# Compressibility (1/GPa) = 0.03017269
#
# Stress axis : x y z
#
# Youngs Moduli (GPa) = 125.51433 101.91889 46.00865
#
# Poissons Ratio (x) = 0.32598 0.09139
# Poissons Ratio (y) = 0.40144 -0.02365
# Poissons Ratio (z) = 0.24931 -0.05239
#
# Static dielectric constant tensor:
#      x y z
#    x 1.782250 0.000000 0.000000 
#    y 0.000000 1.781960 0.000000 
#    z 0.000000 0.000000 1.806510 
# 
# From -- ./inp_files/23039.got.cif
#   From: 2010.05.17/outbox.cif.g08.bks.cpg/sg40_12_cif.got.tgz:23039.got - 2010.06.03 18:35:42.
