data_PCOD9364188
_publ_section_title
;
Structure prediction by ZEFSAII (Michael W. Deem and Ramdas Pophale) SiO2 
 PCOD9364188
Probable space group: A M A 2
;
_chemical_formula_sum "Si O2"
_cell_formula_units_Z 64
_cell_length_a 18.130438
_cell_length_b 7.028365
_cell_length_c 27.012779
_cell_angle_alpha 90.000000
_cell_angle_beta 90.000000
_cell_angle_gamma 90.000000
_cell_volume 3442.166463
_symmetry_space_group_name_H-M "A M A 2"
_symmetry_group_IT_number 40
_symmetry_cell_setting 'orthorhombic'
loop_
_space_group_symop_operation_xyz
x,y,z
-x,-y,z
1/2-x,y,z
1/2+x,-y,z
x,1/2+y,1/2+z
-x,1/2-y,1/2+z
1/2-x,1/2+y,1/2+z
1/2+x,1/2-y,1/2+z
loop_
_atom_site_type_symbol
_atom_site_label
_atom_site_fract_x
_atom_site_fract_y
_atom_site_fract_z
Si Si1 0.836493 0.572804 0.770780
Si Si2 0.163809 0.259336 0.196075
Si Si3 0.416375 0.057312 0.948502
Si Si4 0.428130 0.893104 0.526005
Si Si5 0.465727 0.696713 0.626931
Si Si6 0.662939 0.336178 0.969853
Si Si7 0.662459 0.640681 0.885652
Si Si8 0.566037 0.877539 0.713545
O O1 0.750000 0.630891 0.762560
O O2 0.843636 0.364386 0.746260
O O3 0.850403 0.580341 0.829281
O O4 0.894454 0.712977 0.744466
O O5 0.250000 0.263268 0.182661
O O6 0.110204 0.159382 0.156417
O O7 0.129130 0.468959 0.200758
O O8 0.380047 0.170811 0.902919
O O9 0.500000 0.000000 0.937955
O O10 0.374145 0.866871 0.963540
O O11 0.413471 0.205143 0.994167
O O12 0.445884 0.832612 0.581610
O O13 0.500000 0.000000 0.505019
O O14 0.363790 0.045704 0.517714
O O15 0.500000 0.500000 0.608170
O O16 0.476008 0.211534 0.665766
O O17 0.750000 0.313589 0.970380
O O18 0.642168 0.471033 0.923292
O O19 0.750000 0.675401 0.891750
O O20 0.500000 0.000000 0.739089
#
# Coordination Sequence:
#
# PCOD9364188 Si02
#       8
#     8   8   8   8   8   8   8   8
#     4  10  20  38  60  87 122 164 207 254 306 365
#     4  10  21  38  60  85 119 159 202 249 298 357
#     4  11  21  38  62  92 119 154 204 254 317 374
#     4  11  22  39  64  88 118 159 202 251 307 373
#     4  11  22  40  64  88 121 164 206 251 313 369
#     4  10  22  41  62  88 123 160 203 258 313 374
#     4   9  21  38  60  87 123 163 202 252 314 371
#     4  10  21  37  59  87 118 157 202 251 304 358
#
# _framework density 18.592942000000001
#
# number of rings (size 3 to 8) (size 9 to 14) (size 15 to 20)
#    0.000    1.750    2.500    2.250    0.000    2.500 
#    0.000    6.250    0.000    0.000    0.000    0.000 
#    0.000    0.000    0.000    0.000    0.000    0.000 
#
# Total GULP energy -178533.802866 kJ/mol
# GULP energy per Si atom -5579.181340 kJ/mol
# Density = 1.855062 g / cm^3
# Si number density = 18.592942 Si / 1000 Ang^3
#
#
#
# Elastic Constant Matrix: (Units=GPa)
#
#
# Indices 1 2 3 4 5 6 
#
# 1 106.0326 66.7495 53.2691 0.0000 0.0000 0.0000
# 2 66.7495 120.5892 47.0127 0.0000 0.0000 0.0000
# 3 53.2691 47.0127 96.1706 0.0000 0.0000 0.0000
# 4 0.0000 0.0000 0.0000 8.8658 0.0000 0.0000
# 5 0.0000 0.0000 0.0000 0.0000 26.6944 0.0000
# 6 0.0000 0.0000 0.0000 0.0000 0.0000 33.2336
#
#
#
# Elastic Compliance Matrix: (Units=1/GPa)
#
#
# Indices 1 2 3 4 5 6 
#
# 1 0.016793 -0.007004 -0.005878 0.000000 0.000000 0.000000
# 2 -0.007004 0.013166 -0.002557 0.000000 0.000000 0.000000
# 3 -0.005878 -0.002557 0.014904 0.000000 0.000000 0.000000
# 4 0.000000 0.000000 0.000000 0.112792 0.000000 0.000000
# 5 0.000000 0.000000 0.000000 0.000000 0.037461 0.000000
# 6 0.000000 0.000000 0.000000 0.000000 0.000000 0.030090
#
#
# Mechanical properties :
#
#
# Convention : Reuss Voigt Hill
#
# Bulk Modulus (GPa) = 71.50007 72.98389 72.24198
# Shear Modulus (GPa) = 19.17574 24.14283 21.65928
#
# Velocity S-wave (km/s) = 3.21494 3.60737 3.41679
# Velocity P-wave (km/s) = 7.23326 7.52925 7.38274
#
# Compressibility (1/GPa) = 0.01398600
#
# Stress axis : x y z
#
# Youngs Moduli (GPa) = 59.54812 75.95162 67.09666
#
# Poissons Ratio (x) = 0.53196 0.39439
# Poissons Ratio (y) = 0.41707 0.17155
# Poissons Ratio (z) = 0.35002 0.19419
#
# Static dielectric constant tensor:
#      x y z
#    x 1.652080 0.000000 0.000000 
#    y 0.000000 1.648700 0.000000 
#    z 0.000000 0.000000 1.637030 
# 
# From -- ./inp_files/25844.got.cif
#   From: 2010.05.17/outbox.cif.g08.bks.cpg/sg40_13_cif.got.tgz:25844.got - 2010.06.03 18:35:42.
