data_PCOD9364070
_publ_section_title
;
Structure prediction by ZEFSAII (Michael W. Deem and Ramdas Pophale) SiO2 
 PCOD9364070
Probable space group: A M A 2
;
_chemical_formula_sum "Si O2"
_cell_formula_units_Z 52
_cell_length_a 23.871210
_cell_length_b 5.632380
_cell_length_c 18.478108
_cell_angle_alpha 90.000000
_cell_angle_beta 90.000000
_cell_angle_gamma 90.000000
_cell_volume 2484.413510
_symmetry_space_group_name_H-M "A M A 2"
_symmetry_group_IT_number 40
_symmetry_cell_setting 'orthorhombic'
loop_
_space_group_symop_operation_xyz
x,y,z
-x,-y,z
1/2-x,y,z
1/2+x,-y,z
x,1/2+y,1/2+z
-x,1/2-y,1/2+z
1/2-x,1/2+y,1/2+z
1/2+x,1/2-y,1/2+z
loop_
_atom_site_type_symbol
_atom_site_label
_atom_site_fract_x
_atom_site_fract_y
_atom_site_fract_z
Si Si1 0.939016 0.381991 0.273380
Si Si2 0.087816 0.832848 0.630307
Si Si3 0.137424 0.004321 0.232569
Si Si4 0.060877 0.119230 0.494232
Si Si5 0.750000 0.200175 0.281766
Si Si6 0.250000 0.304384 0.368155
Si Si7 0.868656 0.179899 0.871340
Si Si8 0.500000 0.500000 0.576361
O O1 0.916164 0.496727 0.198870
O O2 0.922290 0.111708 0.256126
O O3 0.903170 0.451608 0.344750
O O4 0.000000 0.500000 0.284123
O O5 0.130529 0.628996 0.655182
O O6 0.027487 0.705664 0.622900
O O7 0.094005 0.970259 0.555109
O O8 0.191683 0.836669 0.238366
O O9 0.146210 0.198412 0.295000
O O10 0.093209 0.154838 0.420471
O O11 0.047228 0.378452 0.527355
O O12 0.000000 0.000000 0.482969
O O13 0.750000 0.467804 0.312880
O O14 0.750000 0.972331 0.338541
O O15 0.191369 0.348406 0.408948
#
# Coordination Sequence:
#
# PCOD9364070 Si02
#       8
#     8   8   8   8   4   4   8   4
#     4  11  21  32  58  90 122 153 202 258 323 381
#     4  10  20  37  56  83 119 163 203 251 316 391
#     4  10  21  37  60  88 120 160 212 270 321 386
#     4  10  22  37  57  86 126 168 209 254 328 399
#     4  10  20  40  65  91 123 167 217 268 338 386
#     4  10  20  44  61  89 127 173 213 266 332 396
#     4  10  23  36  59  89 120 162 208 266 315 391
#     4  10  20  38  58  78 124 168 198 238 316 390
#
# _framework density 20.930495000000001
#
# number of rings (size 3 to 8) (size 9 to 14) (size 15 to 20)
#    0.000    1.846    1.538    3.231    3.231    2.462 
#    0.000    0.769    0.000    2.769    0.000    0.000 
#    0.000    0.000    0.000    0.000    0.000    0.000 
#
# Total GULP energy -144774.795063 kJ/mol
# GULP energy per Si atom -5568.261349 kJ/mol
# Density = 2.088286 g / cm^3
# Si number density = 20.930495 Si / 1000 Ang^3
#
#
#
# Elastic Constant Matrix: (Units=GPa)
#
#
# Indices 1 2 3 4 5 6 
#
# 1 84.2149 9.1913 21.5849 0.0000 0.0000 0.0000
# 2 9.1913 66.1749 12.8805 0.0000 0.0000 0.0000
# 3 21.5849 12.8805 73.5406 0.0000 0.0000 0.0000
# 4 0.0000 0.0000 0.0000 17.4592 0.0000 0.0000
# 5 0.0000 0.0000 0.0000 0.0000 10.6918 0.0000
# 6 0.0000 0.0000 0.0000 0.0000 0.0000 20.6205
#
#
#
# Elastic Compliance Matrix: (Units=1/GPa)
#
#
# Indices 1 2 3 4 5 6 
#
# 1 0.012916 -0.001093 -0.003600 0.000000 0.000000 0.000000
# 2 -0.001093 0.015737 -0.002435 0.000000 0.000000 0.000000
# 3 -0.003600 -0.002435 0.015081 0.000000 0.000000 0.000000
# 4 0.000000 0.000000 0.000000 0.057276 0.000000 0.000000
# 5 0.000000 0.000000 0.000000 0.000000 0.093530 0.000000
# 6 0.000000 0.000000 0.000000 0.000000 0.000000 0.048495
#
#
# Mechanical properties :
#
#
# Convention : Reuss Voigt Hill
#
# Bulk Modulus (GPa) = 33.92370 34.58265 34.25317
# Shear Modulus (GPa) = 18.71825 21.77254 20.24540
#
# Velocity S-wave (km/s) = 2.99374 3.22876 3.11347
# Velocity P-wave (km/s) = 5.30970 5.51891 5.41531
#
# Compressibility (1/GPa) = 0.02947791
#
# Stress axis : x y z
#
# Youngs Moduli (GPa) = 77.42147 63.54296 66.30857
#
# Poissons Ratio (x) = 0.06948 0.23868
# Poissons Ratio (y) = 0.08465 0.16149
# Poissons Ratio (z) = 0.27868 0.15476
#
# Static dielectric constant tensor:
#      x y z
#    x 1.842210 0.000000 0.000000 
#    y 0.000000 1.879650 0.000000 
#    z 0.000000 0.000000 1.728440 
# 
# From -- ./inp_files/21598.got.cif
#   From: 2010.05.17/outbox.cif.g08.bks.cpg/sg40_11_cif.got.tgz:21598.got - 2010.06.03 18:35:42.
