data_PCOD9364885
_publ_section_title
;
Structure prediction by ZEFSAII (Michael W. Deem and Ramdas Pophale) SiO2 
 PCOD9364885
Probable space group: A M A 2
;
_chemical_formula_sum "Si O2"
_cell_formula_units_Z 52
_cell_length_a 20.154420
_cell_length_b 19.549637
_cell_length_c 6.886768
_cell_angle_alpha 90.000000
_cell_angle_beta 90.000000
_cell_angle_gamma 90.000000
_cell_volume 2713.466444
_symmetry_space_group_name_H-M "A M A 2"
_symmetry_group_IT_number 40
_symmetry_cell_setting 'orthorhombic'
loop_
_space_group_symop_operation_xyz
x,y,z
-x,-y,z
1/2-x,y,z
1/2+x,-y,z
x,1/2+y,1/2+z
-x,1/2-y,1/2+z
1/2-x,1/2+y,1/2+z
1/2+x,1/2-y,1/2+z
loop_
_atom_site_type_symbol
_atom_site_label
_atom_site_fract_x
_atom_site_fract_y
_atom_site_fract_z
Si Si1 0.568039 0.307082 0.518710
Si Si2 0.500000 0.000000 0.509522
Si Si3 0.914562 0.207088 0.158638
Si Si4 0.094745 0.542245 0.354086
Si Si5 0.830094 0.800299 0.372864
Si Si6 0.909170 0.553640 0.724264
Si Si7 0.174418 0.544217 0.009186
O O1 0.580480 0.251401 0.352850
O O2 0.490770 0.299911 0.581697
O O3 0.580207 0.383813 0.440634
O O4 0.623833 0.296110 0.682546
O O5 0.550288 0.967556 0.662039
O O6 0.475252 0.942918 0.358038
O O7 0.887583 0.130624 0.190995
O O8 0.864205 0.246453 0.017356
O O9 0.082814 0.485826 0.520113
O O10 0.164266 0.534686 0.241459
O O11 0.750000 0.790414 0.345408
O O12 0.840107 0.876725 0.458486
O O13 0.865048 0.506218 0.864786
O O14 0.250000 0.531627 0.961102
#
# Coordination Sequence:
#
# PCOD9364885 Si02
#       7
#     8   4   8   8   8   8   8
#     4  12  24  41  69  99 134 179 227 280 338 405
#     4  10  22  36  62  92 130 160 210 270 330 392
#     4  12  26  41  67 101 138 174 225 285 341 398
#     4  11  22  40  66  96 126 173 222 266 335 401
#     4  11  25  46  68  98 137 181 228 277 338 416
#     4  11  24  40  64  96 132 167 215 281 338 386
#     4  10  23  43  67  95 130 176 229 276 330 414
#
# _framework density 19.163679999999999
#
# number of rings (size 3 to 8) (size 9 to 14) (size 15 to 20)
#    0.000    0.923    4.615    2.308    4.308    4.923 
#    0.000    1.538    0.000    0.000    0.000    0.000 
#    0.000    0.000    0.000    0.000    0.000    0.000 
#
# Total GULP energy -144964.711973 kJ/mol
# GULP energy per Si atom -5575.565845 kJ/mol
# Density = 1.912006 g / cm^3
# Si number density = 19.163680 Si / 1000 Ang^3
#
#
#
# Elastic Constant Matrix: (Units=GPa)
#
#
# Indices 1 2 3 4 5 6 
#
# 1 79.5920 41.1329 34.8672 0.0000 0.0000 0.0000
# 2 41.1329 147.0034 71.1746 0.0000 0.0000 0.0000
# 3 34.8672 71.1746 133.4002 0.0000 0.0000 0.0000
# 4 0.0000 0.0000 0.0000 28.4287 0.0000 0.0000
# 5 0.0000 0.0000 0.0000 0.0000 22.9216 0.0000
# 6 0.0000 0.0000 0.0000 0.0000 0.0000 17.7151
#
#
#
# Elastic Compliance Matrix: (Units=1/GPa)
#
#
# Indices 1 2 3 4 5 6 
#
# 1 0.015192 -0.003139 -0.002296 0.000000 0.000000 0.000000
# 2 -0.003139 0.009821 -0.004419 0.000000 0.000000 0.000000
# 3 -0.002296 -0.004419 0.010454 0.000000 0.000000 0.000000
# 4 0.000000 0.000000 0.000000 0.035176 0.000000 0.000000
# 5 0.000000 0.000000 0.000000 0.000000 0.043627 0.000000
# 6 0.000000 0.000000 0.000000 0.000000 0.000000 0.056449
#
#
# Mechanical properties :
#
#
# Convention : Reuss Voigt Hill
#
# Bulk Modulus (GPa) = 63.45893 72.70500 68.08197
# Shear Modulus (GPa) = 25.55190 28.00114 26.77652
#
# Velocity S-wave (km/s) = 3.65547 3.82665 3.74204
# Velocity P-wave (km/s) = 7.14161 7.58589 7.36710
#
# Compressibility (1/GPa) = 0.01575822
#
# Stress axis : x y z
#
# Youngs Moduli (GPa) = 65.82312 101.82666 95.65593
#
# Poissons Ratio (x) = 0.31967 0.21961
# Poissons Ratio (y) = 0.20664 0.42272
# Poissons Ratio (z) = 0.15112 0.44999
#
# Static dielectric constant tensor:
#      x y z
#    x 2.003460 0.000000 0.000000 
#    y 0.000000 1.652170 0.000000 
#    z 0.000000 0.000000 1.670610 
# 
# From -- ./inp_files/2356.got.cif
#   From: 2010.05.17/outbox.cif.g08.bks.cpg/sg40_2_cif.got.tgz:2356.got - 2010.06.03 18:35:42.
