data_PCOD9364499
_publ_section_title
;
Structure prediction by ZEFSAII (Michael W. Deem and Ramdas Pophale) SiO2 
 PCOD9364499
Probable space group: A M A 2
;
_chemical_formula_sum "Si O2"
_cell_formula_units_Z 64
_cell_length_a 7.635833
_cell_length_b 33.262197
_cell_length_c 12.216542
_cell_angle_alpha 90.000000
_cell_angle_beta 90.000000
_cell_angle_gamma 90.000000
_cell_volume 3102.813307
_symmetry_space_group_name_H-M "A M A 2"
_symmetry_group_IT_number 40
_symmetry_cell_setting 'orthorhombic'
loop_
_space_group_symop_operation_xyz
x,y,z
-x,-y,z
1/2-x,y,z
1/2+x,-y,z
x,1/2+y,1/2+z
-x,1/2-y,1/2+z
1/2-x,1/2+y,1/2+z
1/2+x,1/2-y,1/2+z
loop_
_atom_site_type_symbol
_atom_site_label
_atom_site_fract_x
_atom_site_fract_y
_atom_site_fract_z
Si Si1 0.949717 0.900297 0.895210
Si Si2 0.039707 0.546815 0.585571
Si Si3 0.463631 0.823361 0.032017
Si Si4 0.452418 0.120941 0.466863
Si Si5 0.538776 0.952619 0.328604
Si Si6 0.963219 0.348373 0.199365
Si Si7 0.455818 0.269007 0.337190
Si Si8 0.950071 0.180632 0.279508
O O1 0.750000 0.913025 0.871024
O O2 0.025986 0.883639 0.781957
O O3 0.033871 0.932698 0.976206
O O4 0.953042 0.860990 0.971450
O O5 0.250000 0.553500 0.584549
O O6 0.975624 0.560001 0.706286
O O7 0.000000 0.500000 0.580924
O O8 0.250000 0.826734 0.028182
O O9 0.521844 0.822550 0.156771
O O10 0.510158 0.785352 0.956654
O O11 0.250000 0.112039 0.493684
O O12 0.527864 0.079207 0.418419
O O13 0.525720 0.140995 0.577455
O O14 0.457674 0.153556 0.369916
O O15 0.750000 0.949360 0.326318
O O16 0.500000 0.000000 0.346545
O O17 0.750000 0.347661 0.202188
O O18 0.016917 0.305451 0.250890
O O19 0.250000 0.260228 0.341000
O O20 0.547050 0.227664 0.307947
O O21 0.750000 0.166308 0.277579
#
# Coordination Sequence:
#
# PCOD9364499 Si02
#       8
#     8   8   8   8   8   8   8   8
#     4   9  17  32  54  76  99 131 172 213 254 311
#     4   9  17  29  48  75 104 132 168 213 262 315
#     4   9  20  36  52  72 100 131 165 210 260 307
#     4  10  21  37  56  79 108 144 183 224 272 323
#     4   9  18  33  53  77 106 141 178 221 272 324
#     4   9  19  36  56  76 104 141 178 221 269 316
#     4  10  21  37  55  76 103 138 175 215 267 320
#     4  11  23  36  53  79 107 136 175 221 266 316
#
# _framework density 20.626443999999999
#
# number of rings (size 3 to 8) (size 9 to 14) (size 15 to 20)
#    0.000    2.500    0.000    1.500    1.750    4.000 
#    0.000    3.125    0.000    0.000    0.000    0.000 
#    0.000    0.000    0.000    0.000    0.000    0.000 
#
# Total GULP energy -178427.420596 kJ/mol
# GULP energy per Si atom -5575.856894 kJ/mol
# Density = 2.057950 g / cm^3
# Si number density = 20.626444 Si / 1000 Ang^3
#
#
#
# Elastic Constant Matrix: (Units=GPa)
#
#
# Indices 1 2 3 4 5 6 
#
# 1 40.6788 -7.8410 -0.7902 0.0000 0.0000 0.0000
# 2 -7.8410 60.9785 44.9941 0.0000 0.0000 0.0000
# 3 -0.7902 44.9941 146.5988 0.0000 0.0000 0.0000
# 4 0.0000 0.0000 0.0000 1.5015 0.0000 0.0000
# 5 0.0000 0.0000 0.0000 0.0000 -3.2433 0.0000
# 6 0.0000 0.0000 0.0000 0.0000 0.0000 21.9129
#
#
#
# Elastic Compliance Matrix: (Units=1/GPa)
#
#
# Indices 1 2 3 4 5 6 
#
# 1 0.025348 0.004083 -0.001117 0.000000 0.000000 0.000000
# 2 0.004083 0.021858 -0.006687 0.000000 0.000000 0.000000
# 3 -0.001117 -0.006687 0.008868 0.000000 0.000000 0.000000
# 4 0.000000 0.000000 0.000000 0.665990 0.000000 0.000000
# 5 0.000000 0.000000 0.000000 0.000000 -0.308327 0.000000
# 6 0.000000 0.000000 0.000000 0.000000 0.000000 0.045635
#
#
# Mechanical properties :
#
#
# Convention : Reuss Voigt Hill
#
# Bulk Modulus (GPa) = 20.56173 35.66465 28.11319
# Shear Modulus (GPa) = 10.35144 18.16043 14.25593
#
# Velocity S-wave (km/s) = 2.24264 2.97045 2.63182
# Velocity P-wave (km/s) = 4.08609 5.39379 4.78483
#
# Compressibility (1/GPa) = 0.04863405
#
# Stress axis : x y z
#
# Youngs Moduli (GPa) = 39.45052 45.74942 112.77004
#
# Poissons Ratio (x) = -0.18681 0.12592
# Poissons Ratio (y) = -0.16109 0.75406
# Poissons Ratio (z) = 0.04405 0.30591
#
# Static dielectric constant tensor:
#      x y z
#    x 1.816390 0.000000 0.000000 
#    y 0.000000 1.721850 0.000000 
#    z 0.000000 0.000000 1.774350 
# 
# From -- ./inp_files/10618.got.cif
#   From: 2010.05.17/outbox.cif.g08.bks.cpg/sg40_6_cif.got.tgz:10618.got - 2010.06.03 18:35:42.
