data_PCOD9364051
_publ_section_title
;
Structure prediction by ZEFSAII (Michael W. Deem and Ramdas Pophale) SiO2 
 PCOD9364051
Probable space group: A M A 2
;
_chemical_formula_sum "Si O2"
_cell_formula_units_Z 36
_cell_length_a 9.511346
_cell_length_b 22.145273
_cell_length_c 7.456285
_cell_angle_alpha 90.000000
_cell_angle_beta 90.000000
_cell_angle_gamma 90.000000
_cell_volume 1570.527404
_symmetry_space_group_name_H-M "A M A 2"
_symmetry_group_IT_number 40
_symmetry_cell_setting 'orthorhombic'
loop_
_space_group_symop_operation_xyz
x,y,z
-x,-y,z
1/2-x,y,z
1/2+x,-y,z
x,1/2+y,1/2+z
-x,1/2-y,1/2+z
1/2-x,1/2+y,1/2+z
1/2+x,1/2-y,1/2+z
loop_
_atom_site_type_symbol
_atom_site_label
_atom_site_fract_x
_atom_site_fract_y
_atom_site_fract_z
Si Si1 0.414223 0.441581 0.519830
Si Si2 0.910053 0.823501 0.928424
Si Si3 0.090998 0.207539 0.511033
Si Si4 0.492880 0.421194 0.927998
Si Si5 0.250000 0.490390 0.037744
O O1 0.500000 0.500000 0.454902
O O2 0.250000 0.445431 0.472040
O O3 0.495988 0.381978 0.462511
O O4 0.425133 0.441036 0.737556
O O5 0.750000 0.831020 0.997971
O O6 0.900781 0.813510 0.716122
O O7 0.988468 0.764491 0.001913
O O8 0.250000 0.222773 0.450113
O O9 0.030413 0.149136 0.410068
O O10 0.373075 0.438768 0.068126
O O11 0.628541 0.459085 0.984371
#
# Coordination Sequence:
#
# PCOD9364051 Si02
#       5
#     8   8   8   8   4
#     4  12  23  42  66  98 132 169 211 260 314 379
#     4  11  27  45  66  93 127 167 215 264 322 377
#     4  11  25  46  65  94 128 168 214 266 317 381
#     4  11  20  39  66  97 130 168 215 258 312 377
#     4  10  20  36  62 100 130 170 212 254 312 380
#
# _framework density 22.922236999999999
#
# number of rings (size 3 to 8) (size 9 to 14) (size 15 to 20)
#    0.000    0.889    4.444    2.667    3.111    5.333 
#    4.000    0.000    0.000    0.000    0.000    0.000 
#    0.000    0.000    0.000    0.000    0.000    0.000 
#
# Total GULP energy -100251.100478 kJ/mol
# GULP energy per Si atom -5569.505582 kJ/mol
# Density = 2.287006 g / cm^3
# Si number density = 22.922237 Si / 1000 Ang^3
#
#
#
# Elastic Constant Matrix: (Units=GPa)
#
#
# Indices 1 2 3 4 5 6 
#
# 1 286.7497 103.1070 14.1914 0.0000 0.0000 0.0000
# 2 103.1070 182.8641 -0.1493 0.0000 0.0000 0.0000
# 3 14.1914 -0.1493 42.7663 0.0000 0.0000 0.0000
# 4 0.0000 0.0000 0.0000 14.6110 0.0000 0.0000
# 5 0.0000 0.0000 0.0000 0.0000 13.9335 0.0000
# 6 0.0000 0.0000 0.0000 0.0000 0.0000 50.3608
#
#
#
# Elastic Compliance Matrix: (Units=1/GPa)
#
#
# Indices 1 2 3 4 5 6 
#
# 1 0.004467 -0.002520 -0.001491 0.000000 0.000000 0.000000
# 2 -0.002520 0.006890 0.000860 0.000000 0.000000 0.000000
# 3 -0.001491 0.000860 0.023881 0.000000 0.000000 0.000000
# 4 0.000000 0.000000 0.000000 0.068441 0.000000 0.000000
# 5 0.000000 0.000000 0.000000 0.000000 0.071770 0.000000
# 6 0.000000 0.000000 0.000000 0.000000 0.000000 0.019857
#
#
# Mechanical properties :
#
#
# Convention : Reuss Voigt Hill
#
# Bulk Modulus (GPa) = 34.55877 82.96428 58.76152
# Shear Modulus (GPa) = 23.66827 42.12979 32.89903
#
# Velocity S-wave (km/s) = 3.21681 4.29178 3.79257
# Velocity P-wave (km/s) = 5.37647 7.79945 6.69843
#
# Compressibility (1/GPa) = 0.02893622
#
# Stress axis : x y z
#
# Youngs Moduli (GPa) = 223.84802 145.13393 41.87479
#
# Poissons Ratio (x) = 0.36575 0.06244
# Poissons Ratio (y) = 0.56412 -0.03603
# Poissons Ratio (z) = 0.33381 -0.12486
#
# Static dielectric constant tensor:
#      x y z
#    x 1.822420 0.000000 0.000000 
#    y 0.000000 1.863530 0.000000 
#    z 0.000000 0.000000 2.008230 
# 
# From -- ./inp_files/4108.got.cif
#   From: 2010.05.17/outbox.cif.g08.bks.cpg/sg40_3_cif.got.tgz:4108.got - 2010.06.03 18:35:42.
