data_PCOD9364650
_publ_section_title
;
Structure prediction by ZEFSAII (Michael W. Deem and Ramdas Pophale) SiO2 
 PCOD9364650
Probable space group: A M A 2
;
_chemical_formula_sum "Si O2"
_cell_formula_units_Z 52
_cell_length_a 9.676237
_cell_length_b 14.991572
_cell_length_c 19.525474
_cell_angle_alpha 90.000000
_cell_angle_beta 90.000000
_cell_angle_gamma 90.000000
_cell_volume 2832.404381
_symmetry_space_group_name_H-M "A M A 2"
_symmetry_group_IT_number 40
_symmetry_cell_setting 'orthorhombic'
loop_
_space_group_symop_operation_xyz
x,y,z
-x,-y,z
1/2-x,y,z
1/2+x,-y,z
x,1/2+y,1/2+z
-x,1/2-y,1/2+z
1/2-x,1/2+y,1/2+z
1/2+x,1/2-y,1/2+z
loop_
_atom_site_type_symbol
_atom_site_label
_atom_site_fract_x
_atom_site_fract_y
_atom_site_fract_z
Si Si1 0.592687 0.332295 0.453810
Si Si2 0.405418 0.377650 0.656887
Si Si3 0.089165 0.270398 0.088057
Si Si4 0.913125 0.213788 0.825511
Si Si5 0.000000 0.500000 0.542367
Si Si6 0.915627 0.917950 0.289351
Si Si7 0.912427 0.588884 0.197190
O O1 0.750000 0.329731 0.429815
O O2 0.572396 0.250841 0.507812
O O3 0.493045 0.326035 0.389630
O O4 0.567908 0.423336 0.496274
O O5 0.250000 0.363468 0.683275
O O6 0.476522 0.291001 0.624712
O O7 0.400913 0.448541 0.595089
O O8 0.511222 0.407417 0.715570
O O9 0.250000 0.243380 0.104723
O O10 0.071304 0.366898 0.121978
O O11 0.750000 0.200483 0.834638
O O12 0.936510 0.320240 0.821862
O O13 0.950533 0.163263 0.754661
O O14 0.750000 0.934948 0.284398
O O15 0.000000 0.000000 0.322996
O O16 0.750000 0.569229 0.206438
O O17 0.000000 0.500000 0.205544
#
# Coordination Sequence:
#
# PCOD9364650 Si02
#       7
#     8   8   8   8   4   8   8
#     4  10  22  38  60  85 116 159 199 242 292 357
#     4  11  20  31  55  87 117 148 187 237 290 350
#     4   9  19  39  59  79 114 153 191 240 300 345
#     4  10  23  42  60  83 123 163 192 241 302 353
#     4  10  22  36  54  88 126 154 190 236 304 354
#     4  11  22  38  60  87 118 154 195 242 301 356
#     4  10  21  39  61  86 116 157 200 246 295 348
#
# _framework density 18.35896
#
# number of rings (size 3 to 8) (size 9 to 14) (size 15 to 20)
#    0.000    1.846    2.308    1.385    1.077    6.769 
#    0.000    0.769    0.000    3.692    0.000    0.000 
#    0.000    0.000    0.000    0.000    0.000    0.000 
#
# Total GULP energy -144905.340643 kJ/mol
# GULP energy per Si atom -5573.282332 kJ/mol
# Density = 1.831717 g / cm^3
# Si number density = 18.358960 Si / 1000 Ang^3
#
#
#
# Elastic Constant Matrix: (Units=GPa)
#
#
# Indices 1 2 3 4 5 6 
#
# 1 58.9523 43.6690 20.3501 0.0000 0.0000 0.0000
# 2 43.6690 85.1470 26.9027 0.0000 0.0000 0.0000
# 3 20.3501 26.9027 63.3081 0.0000 0.0000 0.0000
# 4 0.0000 0.0000 0.0000 18.2939 0.0000 0.0000
# 5 0.0000 0.0000 0.0000 0.0000 13.9782 0.0000
# 6 0.0000 0.0000 0.0000 0.0000 0.0000 32.6857
#
#
#
# Elastic Compliance Matrix: (Units=1/GPa)
#
#
# Indices 1 2 3 4 5 6 
#
# 1 0.027954 -0.013281 -0.003342 0.000000 0.000000 0.000000
# 2 -0.013281 0.019875 -0.004177 0.000000 0.000000 0.000000
# 3 -0.003342 -0.004177 0.018645 0.000000 0.000000 0.000000
# 4 0.000000 0.000000 0.000000 0.054663 0.000000 0.000000
# 5 0.000000 0.000000 0.000000 0.000000 0.071540 0.000000
# 6 0.000000 0.000000 0.000000 0.000000 0.000000 0.030594
#
#
# Mechanical properties :
#
#
# Convention : Reuss Voigt Hill
#
# Bulk Modulus (GPa) = 40.20105 43.25009 41.72557
# Shear Modulus (GPa) = 18.30403 20.75728 19.53066
#
# Velocity S-wave (km/s) = 3.16097 3.36614 3.26517
# Velocity P-wave (km/s) = 5.93861 6.22230 6.08211
#
# Compressibility (1/GPa) = 0.02487497
#
# Stress axis : x y z
#
# Youngs Moduli (GPa) = 35.77255 50.31331 53.63349
#
# Poissons Ratio (x) = 0.66821 0.17925
# Poissons Ratio (y) = 0.47509 0.22403
# Poissons Ratio (z) = 0.11956 0.21016
#
# Static dielectric constant tensor:
#      x y z
#    x 1.619920 0.000000 0.000000 
#    y 0.000000 1.664930 0.000000 
#    z 0.000000 0.000000 1.620420 
# 
# From -- ./inp_files/22092.got.cif
#   From: 2010.05.17/outbox.cif.g08.bks.cpg/sg40_12_cif.got.tgz:22092.got - 2010.06.03 18:35:42.
