data_PCOD9364368
_publ_section_title
;
Structure prediction by ZEFSAII (Michael W. Deem and Ramdas Pophale) SiO2 
 PCOD9364368
Probable space group: A M A 2
;
_chemical_formula_sum "Si O2"
_cell_formula_units_Z 64
_cell_length_a 17.816489
_cell_length_b 15.306342
_cell_length_c 11.905797
_cell_angle_alpha 90.000000
_cell_angle_beta 90.000000
_cell_angle_gamma 90.000000
_cell_volume 3246.773632
_symmetry_space_group_name_H-M "A M A 2"
_symmetry_group_IT_number 40
_symmetry_cell_setting 'orthorhombic'
loop_
_space_group_symop_operation_xyz
x,y,z
-x,-y,z
1/2-x,y,z
1/2+x,-y,z
x,1/2+y,1/2+z
-x,1/2-y,1/2+z
1/2-x,1/2+y,1/2+z
1/2+x,1/2-y,1/2+z
loop_
_atom_site_type_symbol
_atom_site_label
_atom_site_fract_x
_atom_site_fract_y
_atom_site_fract_z
Si Si1 0.424686 0.814690 0.571600
Si Si2 0.664711 0.509558 0.694082
Si Si3 0.339487 0.447301 0.230459
Si Si4 0.570089 0.841355 0.248266
Si Si5 0.396764 0.321321 0.812164
Si Si6 0.094877 0.202762 0.500153
Si Si7 0.336113 0.880720 0.981826
Si Si8 0.663833 0.856369 0.709087
O O1 0.387876 0.893521 0.641197
O O2 0.414695 0.728008 0.648496
O O3 0.390351 0.812229 0.446627
O O4 0.513480 0.824990 0.546339
O O5 0.750000 0.478131 0.712201
O O6 0.605268 0.435148 0.722237
O O7 0.652465 0.598958 0.764288
O O8 0.656078 0.537600 0.564228
O O9 0.250000 0.446309 0.201337
O O10 0.347290 0.404674 0.352875
O O11 0.364674 0.547831 0.240177
O O12 0.481460 0.843898 0.274042
O O13 0.603839 0.811536 0.368002
O O14 0.377483 0.226806 0.761181
O O15 0.107258 0.305609 0.518666
O O16 0.154884 0.152459 0.575183
O O17 0.250000 0.848449 0.996356
O O18 0.750000 0.850415 0.743914
#
# Coordination Sequence:
#
# PCOD9364368 Si02
#       8
#     8   8   8   8   8   8   8   8
#     4  11  24  43  65  92 132 167 210 266 323 378
#     4  11  24  41  66  97 128 170 216 264 325 385
#     4  10  24  42  64  96 131 170 214 265 323 381
#     4  11  24  43  64  95 130 169 214 265 323 386
#     4  11  24  43  65  94 131 168 211 270 325 385
#     4  11  22  41  68  92 124 171 217 257 316 384
#     4  10  20  41  68  94 128 168 213 266 317 376
#     4  11  23  42  67  95 128 168 216 264 320 386
#
# _framework density 19.711876
#
# number of rings (size 3 to 8) (size 9 to 14) (size 15 to 20)
#    0.000    1.250    3.750    1.125    3.500    3.000 
#    0.000    0.000    2.750    0.000    0.000    0.000 
#    0.000    0.000    0.000    0.000    0.000    0.000 
#
# Total GULP energy -178699.805907 kJ/mol
# GULP energy per Si atom -5584.368935 kJ/mol
# Density = 1.966701 g / cm^3
# Si number density = 19.711876 Si / 1000 Ang^3
#
#
#
# Elastic Constant Matrix: (Units=GPa)
#
#
# Indices 1 2 3 4 5 6 
#
# 1 64.6447 54.9723 39.4291 0.0000 0.0000 0.0000
# 2 54.9723 112.3700 37.4158 0.0000 0.0000 0.0000
# 3 39.4291 37.4158 121.6231 0.0000 0.0000 0.0000
# 4 0.0000 0.0000 0.0000 19.5884 0.0000 0.0000
# 5 0.0000 0.0000 0.0000 0.0000 21.6638 0.0000
# 6 0.0000 0.0000 0.0000 0.0000 0.0000 36.3319
#
#
#
# Elastic Compliance Matrix: (Units=1/GPa)
#
#
# Indices 1 2 3 4 5 6 
#
# 1 0.029705 -0.012618 -0.005748 0.000000 0.000000 0.000000
# 2 -0.012618 0.015275 -0.000608 0.000000 0.000000 0.000000
# 3 -0.005748 -0.000608 0.010273 0.000000 0.000000 0.000000
# 4 0.000000 0.000000 0.000000 0.051051 0.000000 0.000000
# 5 0.000000 0.000000 0.000000 0.000000 0.046160 0.000000
# 6 0.000000 0.000000 0.000000 0.000000 0.000000 0.027524
#
#
# Mechanical properties :
#
#
# Convention : Reuss Voigt Hill
#
# Bulk Modulus (GPa) = 57.79298 62.47469 60.13384
# Shear Modulus (GPa) = 22.35085 26.63819 24.49452
#
# Velocity S-wave (km/s) = 3.37096 3.68010 3.52892
# Velocity P-wave (km/s) = 6.67336 7.05834 6.86855
#
# Compressibility (1/GPa) = 0.01730314
#
# Stress axis : x y z
#
# Youngs Moduli (GPa) = 33.66382 65.46811 97.34370
#
# Poissons Ratio (x) = 0.82608 0.55958
# Poissons Ratio (y) = 0.42477 0.05922
# Poissons Ratio (z) = 0.19351 0.03983
#
# Static dielectric constant tensor:
#      x y z
#    x 1.700320 0.000000 0.000000 
#    y 0.000000 1.676440 0.000000 
#    z 0.000000 0.000000 1.691710 
# 
# From -- ./inp_files/13126.got.cif
#   From: 2010.05.17/outbox.cif.g08.bks.cpg/sg40_7_cif.got.tgz:13126.got - 2010.06.03 18:35:42.
