data_PCOD9364122
_publ_section_title
;
Structure prediction by ZEFSAII (Michael W. Deem and Ramdas Pophale) SiO2 
 PCOD9364122
Probable space group: A M A 2
;
_chemical_formula_sum "Si O2"
_cell_formula_units_Z 64
_cell_length_a 8.216376
_cell_length_b 33.396498
_cell_length_c 11.985542
_cell_angle_alpha 90.000000
_cell_angle_beta 90.000000
_cell_angle_gamma 90.000000
_cell_volume 3288.810967
_symmetry_space_group_name_H-M "A M A 2"
_symmetry_group_IT_number 40
_symmetry_cell_setting 'orthorhombic'
loop_
_space_group_symop_operation_xyz
x,y,z
-x,-y,z
1/2-x,y,z
1/2+x,-y,z
x,1/2+y,1/2+z
-x,1/2-y,1/2+z
1/2-x,1/2+y,1/2+z
1/2+x,1/2-y,1/2+z
loop_
_atom_site_type_symbol
_atom_site_label
_atom_site_fract_x
_atom_site_fract_y
_atom_site_fract_z
Si Si1 0.945469 0.953905 0.656570
Si Si2 0.054032 0.728130 0.650428
Si Si3 0.947404 0.350657 0.508797
Si Si4 0.061851 0.685207 0.074614
Si Si5 0.553141 0.454447 0.905446
Si Si6 0.058329 0.874296 0.763064
Si Si7 0.064626 0.825071 0.334198
Si Si8 0.563044 0.398918 0.713260
O O1 0.750000 0.953160 0.659881
O O2 0.999265 0.941501 0.530161
O O3 0.011784 0.920630 0.740996
O O4 0.000000 0.000000 0.675235
O O5 0.250000 0.730122 0.654377
O O6 0.007850 0.692268 0.563928
O O7 0.982778 0.770550 0.616034
O O8 0.983923 0.715426 0.770690
O O9 0.750000 0.351725 0.507774
O O10 0.006846 0.385472 0.594190
O O11 0.010195 0.359004 0.385674
O O12 0.250000 0.683461 0.041121
O O13 0.029990 0.652991 0.170949
O O14 0.955883 0.676800 0.965526
O O15 0.500000 0.500000 0.895053
O O16 0.750000 0.451110 0.904350
O O17 0.486746 0.430424 0.798958
O O18 0.250000 0.869485 0.747712
O O19 0.250000 0.835651 0.304848
O O20 0.944196 0.858003 0.283780
O O21 0.750000 0.411119 0.693339
#
# Coordination Sequence:
#
# PCOD9364122 Si02
#       8
#     8   8   8   8   8   8   8   8
#     4  10  20  37  61  89 123 159 198 245 305 364
#     4  10  22  41  62  85 115 152 196 243 296 354
#     4   9  20  39  61  82 114 157 199 244 297 355
#     4  12  25  40  60  85 117 154 196 246 298 353
#     4   9  18  32  55  86 117 148 183 233 291 349
#     4  12  25  40  60  88 120 156 205 254 304 365
#     4  11  22  37  58  85 114 146 187 234 290 348
#     4   9  18  36  59  82 112 152 194 235 284 344
#
# _framework density 19.459921999999999
#
# number of rings (size 3 to 8) (size 9 to 14) (size 15 to 20)
#    0.000    1.750    0.000    5.625    1.750    4.500 
#    0.000    0.625    0.000    1.500    0.000    0.000 
#    0.000    0.000    0.000    0.000    0.000    0.000 
#
# Total GULP energy -178620.253218 kJ/mol
# GULP energy per Si atom -5581.882913 kJ/mol
# Density = 1.941563 g / cm^3
# Si number density = 19.459922 Si / 1000 Ang^3
#
#
#
# Elastic Constant Matrix: (Units=GPa)
#
#
# Indices 1 2 3 4 5 6 
#
# 1 50.3663 -0.9166 -4.0372 0.0000 0.0000 0.0000
# 2 -0.9166 60.2712 27.7126 0.0000 0.0000 0.0000
# 3 -4.0372 27.7126 91.8532 0.0000 0.0000 0.0000
# 4 0.0000 0.0000 0.0000 4.1193 0.0000 0.0000
# 5 0.0000 0.0000 0.0000 0.0000 17.8166 0.0000
# 6 0.0000 0.0000 0.0000 0.0000 0.0000 25.6598
#
#
#
# Elastic Compliance Matrix: (Units=1/GPa)
#
#
# Indices 1 2 3 4 5 6 
#
# 1 0.019925 -0.000116 0.000911 0.000000 0.000000 0.000000
# 2 -0.000116 0.019265 -0.005817 0.000000 0.000000 0.000000
# 3 0.000911 -0.005817 0.012682 0.000000 0.000000 0.000000
# 4 0.000000 0.000000 0.000000 0.242761 0.000000 0.000000
# 5 0.000000 0.000000 0.000000 0.000000 0.056127 0.000000
# 6 0.000000 0.000000 0.000000 0.000000 0.000000 0.038971
#
#
# Mechanical properties :
#
#
# Convention : Reuss Voigt Hill
#
# Bulk Modulus (GPa) = 23.90772 27.55647 25.73210
# Shear Modulus (GPa) = 12.08548 21.50128 16.79338
#
# Velocity S-wave (km/s) = 2.49478 3.32761 2.94083
# Velocity P-wave (km/s) = 4.53992 5.38102 4.97826
#
# Compressibility (1/GPa) = 0.04182749
#
# Stress axis : x y z
#
# Youngs Moduli (GPa) = 50.18714 51.90836 78.85142
#
# Poissons Ratio (x) = 0.00601 -0.07181
# Poissons Ratio (y) = 0.00581 0.45871
# Poissons Ratio (z) = -0.04571 0.30197
#
# Static dielectric constant tensor:
#      x y z
#    x 1.673240 0.000000 0.000000 
#    y 0.000000 1.680530 0.000000 
#    z 0.000000 0.000000 1.691230 
# 
# From -- ./inp_files/10567.got.cif
#   From: 2010.05.17/outbox.cif.g08.bks.cpg/sg40_6_cif.got.tgz:10567.got - 2010.06.03 18:35:42.
