data_PCOD9364144
_publ_section_title
;
Structure prediction by ZEFSAII (Michael W. Deem and Ramdas Pophale) SiO2 
 PCOD9364144
Probable space group: A M A 2
;
_chemical_formula_sum "Si O2"
_cell_formula_units_Z 64
_cell_length_a 14.276609
_cell_length_b 9.650446
_cell_length_c 23.316320
_cell_angle_alpha 90.000000
_cell_angle_beta 90.000000
_cell_angle_gamma 90.000000
_cell_volume 3212.421009
_symmetry_space_group_name_H-M "A M A 2"
_symmetry_group_IT_number 40
_symmetry_cell_setting 'orthorhombic'
loop_
_space_group_symop_operation_xyz
x,y,z
-x,-y,z
1/2-x,y,z
1/2+x,-y,z
x,1/2+y,1/2+z
-x,1/2-y,1/2+z
1/2-x,1/2+y,1/2+z
1/2+x,1/2-y,1/2+z
loop_
_atom_site_type_symbol
_atom_site_label
_atom_site_fract_x
_atom_site_fract_y
_atom_site_fract_z
Si Si1 0.638575 0.107159 0.237280
Si Si2 0.860868 0.460809 0.399204
Si Si3 0.639290 0.364298 0.525985
Si Si4 0.524178 0.855260 0.788434
Si Si5 0.640314 0.775295 0.441913
Si Si6 0.361389 0.882668 0.108672
Si Si7 0.480521 0.159038 0.553731
Si Si8 0.640037 0.350688 0.818296
O O1 0.750000 0.129136 0.241139
O O2 0.587147 0.248097 0.253650
O O3 0.617167 0.062370 0.172212
O O4 0.615006 0.985764 0.281852
O O5 0.750000 0.453043 0.384964
O O6 0.878079 0.378676 0.458162
O O7 0.920953 0.400977 0.346792
O O8 0.879841 0.620174 0.418034
O O9 0.750000 0.344004 0.534652
O O10 0.613782 0.506319 0.559357
O O11 0.577724 0.241125 0.549964
O O12 0.428401 0.773503 0.801359
O O13 0.500000 0.000000 0.758220
O O14 0.750000 0.774398 0.460166
O O15 0.574270 0.820352 0.493366
O O16 0.629989 0.872941 0.386432
O O17 0.250000 0.859760 0.104631
O O18 0.416176 0.741111 0.098538
O O19 0.500000 0.000000 0.565754
O O20 0.750000 0.316522 0.808213
#
# Coordination Sequence:
#
# PCOD9364144 Si02
#       8
#     8   8   8   8   8   8   8   8
#     4  10  24  45  66  90 121 162 214 261 310 371
#     4  10  20  37  62  92 126 163 210 256 303 365
#     4  10  22  39  64  92 121 164 214 258 300 363
#     4  12  23  35  61  92 126 163 205 256 311 372
#     4  10  20  38  62  90 129 170 207 251 312 374
#     4  10  22  45  71  89 115 163 216 261 307 370
#     4  12  25  37  61  97 130 162 198 257 324 382
#     4  10  22  39  59  87 126 169 210 256 307 365
#
# _framework density 19.922668000000002
#
# number of rings (size 3 to 8) (size 9 to 14) (size 15 to 20)
#    0.000    1.500    2.500    2.250    0.000    6.000 
#    0.000    2.500    0.000    3.000    0.000    0.000 
#    0.000    0.000    0.000    0.000    0.000    0.000 
#
# Total GULP energy -178857.604677 kJ/mol
# GULP energy per Si atom -5589.300146 kJ/mol
# Density = 1.987732 g / cm^3
# Si number density = 19.922668 Si / 1000 Ang^3
#
#
#
# Elastic Constant Matrix: (Units=GPa)
#
#
# Indices 1 2 3 4 5 6 
#
# 1 76.2132 33.5783 15.8667 0.0000 0.0000 0.0000
# 2 33.5783 101.4969 13.4464 0.0000 0.0000 0.0000
# 3 15.8667 13.4464 53.5770 0.0000 0.0000 0.0000
# 4 0.0000 0.0000 0.0000 24.6737 0.0000 0.0000
# 5 0.0000 0.0000 0.0000 0.0000 2.8133 0.0000
# 6 0.0000 0.0000 0.0000 0.0000 0.0000 23.8302
#
#
#
# Elastic Compliance Matrix: (Units=1/GPa)
#
#
# Indices 1 2 3 4 5 6 
#
# 1 0.015978 -0.004819 -0.003522 0.000000 0.000000 0.000000
# 2 -0.004819 0.011645 -0.001495 0.000000 0.000000 0.000000
# 3 -0.003522 -0.001495 0.020083 0.000000 0.000000 0.000000
# 4 0.000000 0.000000 0.000000 0.040529 0.000000 0.000000
# 5 0.000000 0.000000 0.000000 0.000000 0.355457 0.000000
# 6 0.000000 0.000000 0.000000 0.000000 0.000000 0.041964
#
#
# Mechanical properties :
#
#
# Convention : Reuss Voigt Hill
#
# Bulk Modulus (GPa) = 35.67350 39.67445 37.67397
# Shear Modulus (GPa) = 9.71490 21.48981 15.60236
#
# Velocity S-wave (km/s) = 2.21063 3.28786 2.80151
# Velocity P-wave (km/s) = 4.94578 5.86266 5.42363
#
# Compressibility (1/GPa) = 0.02803201
#
# Stress axis : x y z
#
# Youngs Moduli (GPa) = 62.58733 85.87382 49.79307
#
# Poissons Ratio (x) = 0.41385 0.17538
# Poissons Ratio (y) = 0.30163 0.07446
# Poissons Ratio (z) = 0.22045 0.12841
#
# Static dielectric constant tensor:
#      x y z
#    x 1.719350 0.000000 0.000000 
#    y 0.000000 1.682200 0.000000 
#    z 0.000000 0.000000 1.703160 
# 
# From -- ./inp_files/24782.got.cif
#   From: 2010.05.17/outbox.cif.g08.bks.cpg/sg40_13_cif.got.tgz:24782.got - 2010.06.03 18:35:42.
