data_PCOD9364728
_publ_section_title
;
Structure prediction by ZEFSAII (Michael W. Deem and Ramdas Pophale) SiO2 
 PCOD9364728
Probable space group: A M A 2
;
_chemical_formula_sum "Si O2"
_cell_formula_units_Z 56
_cell_length_a 14.719690
_cell_length_b 5.701481
_cell_length_c 28.440834
_cell_angle_alpha 90.000000
_cell_angle_beta 90.000000
_cell_angle_gamma 90.000000
_cell_volume 2386.869487
_symmetry_space_group_name_H-M "A M A 2"
_symmetry_group_IT_number 40
_symmetry_cell_setting 'orthorhombic'
loop_
_space_group_symop_operation_xyz
x,y,z
-x,-y,z
1/2-x,y,z
1/2+x,-y,z
x,1/2+y,1/2+z
-x,1/2-y,1/2+z
1/2-x,1/2+y,1/2+z
1/2+x,1/2-y,1/2+z
loop_
_atom_site_type_symbol
_atom_site_label
_atom_site_fract_x
_atom_site_fract_y
_atom_site_fract_z
Si Si1 0.357461 0.592718 0.938580
Si Si2 0.000000 0.000000 0.276401
Si Si3 0.850370 0.656664 0.033911
Si Si4 0.652296 0.793325 0.726089
Si Si5 0.905620 0.377092 0.123104
Si Si6 0.101427 0.399475 0.306378
Si Si7 0.146019 0.589233 0.404798
Si Si8 0.000000 0.500000 0.559459
O O1 0.250000 0.607036 0.924629
O O2 0.396360 0.849439 0.926290
O O3 0.393388 0.348628 0.915366
O O4 0.361636 0.541219 0.994147
O O5 0.062708 0.843886 0.242473
O O6 0.922952 0.873580 0.307942
O O7 0.750000 0.763315 0.027943
O O8 0.857576 0.544746 0.085465
O O9 0.933994 0.833849 0.029883
O O10 0.750000 0.680719 0.737781
O O11 0.647060 0.830965 0.670664
O O12 0.645697 0.030795 0.757017
O O13 0.934412 0.148929 0.093611
O O14 0.000000 0.500000 0.137206
O O15 0.148471 0.524417 0.349749
O O16 0.000000 0.500000 0.307481
O O17 0.250000 0.604958 0.422726
#
# Coordination Sequence:
#
# PCOD9364728 Si02
#       8
#     8   4   8   8   8   8   8   4
#     4   9  21  39  64  95 130 173 223 279 335 394
#     4  10  23  42  62  92 136 166 212 276 331 390
#     4  10  22  41  65  93 130 174 219 271 333 397
#     4  11  23  40  66  95 126 171 218 266 332 401
#     4  10  21  40  62  91 132 168 212 272 331 394
#     4  10  23  41  60  89 127 169 213 272 330 396
#     4  10  21  40  65  94 129 171 224 279 334 398
#     4  10  23  40  62  96 130 170 216 274 327 396
#
# _framework density 23.461694999999999
#
# number of rings (size 3 to 8) (size 9 to 14) (size 15 to 20)
#    0.000    2.000    0.000    2.571    6.000    3.429 
#    1.286    0.000    0.000    0.000    0.000    0.000 
#    0.000    0.000    0.000    0.000    0.000    0.000 
#
# Total GULP energy -156264.395858 kJ/mol
# GULP energy per Si atom -5580.871281 kJ/mol
# Density = 2.340829 g / cm^3
# Si number density = 23.461695 Si / 1000 Ang^3
#
#
#
# Elastic Constant Matrix: (Units=GPa)
#
#
# Indices 1 2 3 4 5 6 
#
# 1 97.5500 20.9287 21.7844 0.0000 0.0000 0.0000
# 2 20.9287 104.4270 28.7799 0.0000 0.0000 0.0000
# 3 21.7844 28.7799 81.9182 0.0000 0.0000 0.0000
# 4 0.0000 0.0000 0.0000 23.5807 0.0000 0.0000
# 5 0.0000 0.0000 0.0000 0.0000 28.3600 0.0000
# 6 0.0000 0.0000 0.0000 0.0000 0.0000 8.0084
#
#
#
# Elastic Compliance Matrix: (Units=1/GPa)
#
#
# Indices 1 2 3 4 5 6 
#
# 1 0.011125 -0.001566 -0.002408 0.000000 0.000000 0.000000
# 2 -0.001566 0.010823 -0.003386 0.000000 0.000000 0.000000
# 3 -0.002408 -0.003386 0.014037 0.000000 0.000000 0.000000
# 4 0.000000 0.000000 0.000000 0.042408 0.000000 0.000000
# 5 0.000000 0.000000 0.000000 0.000000 0.035261 0.000000
# 6 0.000000 0.000000 0.000000 0.000000 0.000000 0.124869
#
#
# Mechanical properties :
#
#
# Convention : Reuss Voigt Hill
#
# Bulk Modulus (GPa) = 47.02574 47.43124 47.22849
# Shear Modulus (GPa) = 19.20630 26.14996 22.67813
#
# Velocity S-wave (km/s) = 2.86426 3.34216 3.11240
# Velocity P-wave (km/s) = 5.57008 5.92905 5.75237
#
# Compressibility (1/GPa) = 0.02126495
#
# Stress axis : x y z
#
# Youngs Moduli (GPa) = 89.88831 92.39521 71.23861
#
# Poissons Ratio (x) = 0.14468 0.17156
# Poissons Ratio (y) = 0.14075 0.24121
# Poissons Ratio (z) = 0.21648 0.31285
#
# Static dielectric constant tensor:
#      x y z
#    x 1.910860 0.000000 0.000000 
#    y 0.000000 2.093420 0.000000 
#    z 0.000000 0.000000 1.848810 
# 
# From -- ./inp_files/26629.got.cif
#   From: 2010.05.17/outbox.cif.g08.bks.cpg/sg40_14_cif.got.tgz:26629.got - 2010.06.03 18:35:42.
