data_PCOD9364097
_publ_section_title
;
Structure prediction by ZEFSAII (Michael W. Deem and Ramdas Pophale) SiO2 
 PCOD9364097
Probable space group: A M A 2
;
_chemical_formula_sum "Si O2"
_cell_formula_units_Z 52
_cell_length_a 28.151911
_cell_length_b 11.533812
_cell_length_c 7.102511
_cell_angle_alpha 90.000000
_cell_angle_beta 90.000000
_cell_angle_gamma 90.000000
_cell_volume 2306.177146
_symmetry_space_group_name_H-M "A M A 2"
_symmetry_group_IT_number 40
_symmetry_cell_setting 'orthorhombic'
loop_
_space_group_symop_operation_xyz
x,y,z
-x,-y,z
1/2-x,y,z
1/2+x,-y,z
x,1/2+y,1/2+z
-x,1/2-y,1/2+z
1/2-x,1/2+y,1/2+z
1/2+x,1/2-y,1/2+z
loop_
_atom_site_type_symbol
_atom_site_label
_atom_site_fract_x
_atom_site_fract_y
_atom_site_fract_z
Si Si1 0.571899 0.797274 0.995310
Si Si2 0.750000 0.651888 0.186708
Si Si3 0.668768 0.980159 0.748399
Si Si4 0.250000 0.794968 0.132311
Si Si5 0.750000 0.379102 0.435512
Si Si6 0.506575 0.626517 0.231469
Si Si7 0.414357 0.946779 0.998905
Si Si8 0.147993 0.777269 0.240765
O O1 0.543593 0.823380 0.799846
O O2 0.623097 0.744393 0.942044
O O3 0.579125 0.924627 0.083703
O O4 0.538479 0.713040 0.112168
O O5 0.703550 0.572165 0.150051
O O6 0.750000 0.688041 0.408980
O O7 0.750000 0.769427 0.068471
O O8 0.654613 0.854972 0.661392
O O9 0.620351 0.036626 0.819146
O O10 0.701062 0.948442 0.935408
O O11 0.250000 0.663940 0.216041
O O12 0.199982 0.835069 0.221059
O O13 0.500000 0.500000 0.138011
O O14 0.536093 0.600241 0.422183
O O15 0.388169 0.857400 0.130824
#
# Coordination Sequence:
#
# PCOD9364097 Si02
#       8
#     8   4   8   4   4   8   8   8
#     4  10  22  39  62  91 123 165 207 265 322 390
#     4  11  19  39  65  82 123 178 215 271 331 374
#     4   9  20  37  58  82 125 159 204 273 315 371
#     4  10  20  38  62  86 126 174 208 272 320 368
#     4   9  21  37  59  86 119 162 223 267 315 400
#     4  10  22  40  64  92 124 162 207 263 326 386
#     4  10  20  37  60  85 121 162 200 255 327 378
#     4  10  20  39  61  86 128 163 209 266 315 378
#
# _framework density 22.548138999999999
#
# number of rings (size 3 to 8) (size 9 to 14) (size 15 to 20)
#    0.000    2.154    1.538    1.385    0.000    4.923 
#    0.000    9.231    3.385    0.000    0.000    0.000 
#    0.000    0.000    0.000    0.000    0.000    0.000 
#
# Total GULP energy -144903.408247 kJ/mol
# GULP energy per Si atom -5573.208009 kJ/mol
# Density = 2.249682 g / cm^3
# Si number density = 22.548139 Si / 1000 Ang^3
#
#
#
# Elastic Constant Matrix: (Units=GPa)
#
#
# Indices 1 2 3 4 5 6 
#
# 1 126.8967 42.2044 12.8002 0.0000 0.0000 0.0000
# 2 42.2044 121.5234 45.7214 0.0000 0.0000 0.0000
# 3 12.8002 45.7214 41.6411 0.0000 0.0000 0.0000
# 4 0.0000 0.0000 0.0000 33.9187 0.0000 0.0000
# 5 0.0000 0.0000 0.0000 0.0000 19.1678 0.0000
# 6 0.0000 0.0000 0.0000 0.0000 0.0000 46.2119
#
#
#
# Elastic Compliance Matrix: (Units=1/GPa)
#
#
# Indices 1 2 3 4 5 6 
#
# 1 0.008940 -0.003529 0.001126 0.000000 0.000000 0.000000
# 2 -0.003529 0.015414 -0.015839 0.000000 0.000000 0.000000
# 3 0.001126 -0.015839 0.041060 0.000000 0.000000 0.000000
# 4 0.000000 0.000000 0.000000 0.029482 0.000000 0.000000
# 5 0.000000 0.000000 0.000000 0.000000 0.052171 0.000000
# 6 0.000000 0.000000 0.000000 0.000000 0.000000 0.021639
#
#
# Mechanical properties :
#
#
# Convention : Reuss Voigt Hill
#
# Bulk Modulus (GPa) = 34.56567 54.61258 44.58912
# Shear Modulus (GPa) = 23.27383 32.48202 27.87793
#
# Velocity S-wave (km/s) = 3.21625 3.79959 3.52003
# Velocity P-wave (km/s) = 5.39957 6.59714 6.02817
#
# Compressibility (1/GPa) = 0.02893044
#
# Stress axis : x y z
#
# Youngs Moduli (GPa) = 111.85148 64.87755 24.35467
#
# Poissons Ratio (x) = 0.22893 -0.02743
# Poissons Ratio (y) = 0.39469 0.38576
# Poissons Ratio (z) = -0.12597 1.02761
#
# Static dielectric constant tensor:
#      x y z
#    x 1.892740 0.000000 0.000000 
#    y 0.000000 1.886430 0.000000 
#    z 0.000000 0.000000 1.833620 
# 
# From -- ./inp_files/9384.got.cif
#   From: 2010.05.17/outbox.cif.g08.bks.cpg/sg40_5_cif.got.tgz:9384.got - 2010.06.03 18:35:42.
