data_PCOD9364966
_publ_section_title
;
Structure prediction by ZEFSAII (Michael W. Deem and Ramdas Pophale) SiO2 
 PCOD9364966
Probable space group: A M A 2
;
_chemical_formula_sum "Si O2"
_cell_formula_units_Z 36
_cell_length_a 10.453287
_cell_length_b 6.651727
_cell_length_c 24.947129
_cell_angle_alpha 90.000000
_cell_angle_beta 90.000000
_cell_angle_gamma 90.000000
_cell_volume 1734.634036
_symmetry_space_group_name_H-M "A M A 2"
_symmetry_group_IT_number 40
_symmetry_cell_setting 'orthorhombic'
loop_
_space_group_symop_operation_xyz
x,y,z
-x,-y,z
1/2-x,y,z
1/2+x,-y,z
x,1/2+y,1/2+z
-x,1/2-y,1/2+z
1/2-x,1/2+y,1/2+z
1/2+x,1/2-y,1/2+z
loop_
_atom_site_type_symbol
_atom_site_label
_atom_site_fract_x
_atom_site_fract_y
_atom_site_fract_z
Si Si1 0.896281 0.322858 0.272150
Si Si2 0.000000 0.500000 0.089350
Si Si3 0.895973 0.324430 0.388653
Si Si4 0.891933 0.151191 0.156555
Si Si5 0.603267 0.319399 0.507106
O O1 0.750000 0.404023 0.269683
O O2 0.909845 0.219173 0.330727
O O3 0.908694 0.185650 0.220079
O O4 0.000000 0.500000 0.268591
O O5 0.911613 0.363043 0.127112
O O6 0.923561 0.651553 0.051146
O O7 0.750000 0.405381 0.388711
O O8 0.910170 0.225196 0.446917
O O9 0.000000 0.500000 0.387865
O O10 0.750000 0.072413 0.146141
O O11 0.000000 0.000000 0.137358
O O12 0.500000 0.500000 0.511108
O O13 0.750000 0.394066 0.512127
#
# Coordination Sequence:
#
# PCOD9364966 Si02
#       5
#     8   4   8   8   8
#     4   9  17  34  60  88 118 154 194 241 295 352
#     4  12  24  40  62  88 120 162 202 248 290 358
#     4   8  15  31  57  86 118 152 190 238 293 349
#     4  11  25  42  61  88 121 159 202 249 300 355
#     4  10  22  40  63  91 122 158 200 246 296 353
#
# _framework density 20.753657
#
# number of rings (size 3 to 8) (size 9 to 14) (size 15 to 20)
#    0.000    2.222    1.111    1.333    0.000    6.222 
#    2.000    0.000    0.000    0.000    0.000    0.000 
#    0.000    0.000    0.000    0.000    0.000    0.000 
#
# Total GULP energy -100315.367742 kJ/mol
# GULP energy per Si atom -5573.075986 kJ/mol
# Density = 2.070642 g / cm^3
# Si number density = 20.753657 Si / 1000 Ang^3
#
#
#
# Elastic Constant Matrix: (Units=GPa)
#
#
# Indices 1 2 3 4 5 6 
#
# 1 147.4012 56.0784 38.5135 0.0000 0.0000 0.0000
# 2 56.0784 56.9365 31.9705 0.0000 0.0000 0.0000
# 3 38.5135 31.9705 160.2450 0.0000 0.0000 0.0000
# 4 0.0000 0.0000 0.0000 9.0558 0.0000 0.0000
# 5 0.0000 0.0000 0.0000 0.0000 166.7752 0.0000
# 6 0.0000 0.0000 0.0000 0.0000 0.0000 25.0096
#
#
#
# Elastic Compliance Matrix: (Units=1/GPa)
#
#
# Indices 1 2 3 4 5 6 
#
# 1 0.010891 -0.010425 -0.000538 0.000000 0.000000 0.000000
# 2 -0.010425 0.029758 -0.003432 0.000000 0.000000 0.000000
# 3 -0.000538 -0.003432 0.007054 0.000000 0.000000 0.000000
# 4 0.000000 0.000000 0.000000 0.110427 0.000000 0.000000
# 5 0.000000 0.000000 0.000000 0.000000 0.005996 0.000000
# 6 0.000000 0.000000 0.000000 0.000000 0.000000 0.039985
#
#
# Mechanical properties :
#
#
# Convention : Reuss Voigt Hill
#
# Bulk Modulus (GPa) = 52.86770 68.63417 60.75094
# Shear Modulus (GPa) = 20.90272 56.03613 38.46942
#
# Velocity S-wave (km/s) = 3.17706 5.20185 4.31004
# Velocity P-wave (km/s) = 6.24400 8.31995 7.35558
#
# Compressibility (1/GPa) = 0.01891514
#
# Stress axis : x y z
#
# Youngs Moduli (GPa) = 91.82119 33.60457 141.75778
#
# Poissons Ratio (x) = 0.35032 0.07622
# Poissons Ratio (y) = 0.95721 0.48644
# Poissons Ratio (z) = 0.04937 0.11531
#
# Static dielectric constant tensor:
#      x y z
#    x 1.727390 0.000000 0.000000 
#    y 0.000000 1.696300 0.000000 
#    z 0.000000 0.000000 1.820120 
# 
# From -- ./inp_files/24465.got.cif
#   From: 2010.05.17/outbox.cif.g08.bks.cpg/sg40_13_cif.got.tgz:24465.got - 2010.06.03 18:35:42.
