data_PCOD9364025
_publ_section_title
;
Structure prediction by ZEFSAII (Michael W. Deem and Ramdas Pophale) SiO2 
 PCOD9364025
Probable space group: A M A 2
;
_chemical_formula_sum "Si O2"
_cell_formula_units_Z 56
_cell_length_a 11.782359
_cell_length_b 15.891425
_cell_length_c 12.052310
_cell_angle_alpha 90.000000
_cell_angle_beta 90.000000
_cell_angle_gamma 90.000000
_cell_volume 2256.656137
_symmetry_space_group_name_H-M "A M A 2"
_symmetry_group_IT_number 40
_symmetry_cell_setting 'orthorhombic'
loop_
_space_group_symop_operation_xyz
x,y,z
-x,-y,z
1/2-x,y,z
1/2+x,-y,z
x,1/2+y,1/2+z
-x,1/2-y,1/2+z
1/2-x,1/2+y,1/2+z
1/2+x,1/2-y,1/2+z
loop_
_atom_site_type_symbol
_atom_site_label
_atom_site_fract_x
_atom_site_fract_y
_atom_site_fract_z
Si Si1 0.881919 0.534488 0.452260
Si Si2 0.125377 0.030583 0.200703
Si Si3 0.032656 0.190333 0.945193
Si Si4 0.405206 0.797810 0.624398
Si Si5 0.367646 0.702869 0.833971
Si Si6 0.875037 0.513366 0.049698
Si Si7 0.125668 0.141046 0.711450
O O1 0.750000 0.533501 0.407362
O O2 0.876011 0.481074 0.566812
O O3 0.000000 0.500000 0.394827
O O4 0.926584 0.629701 0.476046
O O5 0.250000 0.991679 0.232492
O O6 0.126645 0.122091 0.255995
O O7 0.000000 0.000000 0.234643
O O8 0.097815 0.150185 0.841205
O O9 0.977977 0.278700 0.904375
O O10 0.114900 0.220327 0.042713
O O11 0.362983 0.780306 0.747776
O O12 0.370635 0.888999 0.582479
O O13 0.539295 0.802085 0.644391
O O14 0.250000 0.698728 0.899522
O O15 0.750000 0.493210 0.997477
O O16 0.881703 0.452135 0.157714
O O17 0.000000 0.500000 0.993673
O O18 0.250000 0.173130 0.693681
#
# Coordination Sequence:
#
# PCOD9364025 Si02
#       7
#     8   8   8   8   8   8   8
#     4  10  21  37  59  90 124 161 206 257 314 379
#     4   9  18  36  60  83 114 157 202 248 305 372
#     4  11  23  38  61  95 127 161 212 271 326 381
#     4  10  20  36  60  89 124 164 210 265 323 384
#     4  10  21  38  59  87 124 164 207 260 320 383
#     4   9  18  36  60  85 117 163 210 255 313 382
#     4   9  21  39  58  85 125 168 211 262 323 387
#
# _framework density 24.815477000000001
#
# number of rings (size 3 to 8) (size 9 to 14) (size 15 to 20)
#    0.000    2.286    0.000    2.571    0.000    5.714 
#    0.000   11.429    0.000    3.429    0.000    0.000 
#    0.000    0.000    0.000    0.000    0.000    0.000 
#
# Total GULP energy -155939.984939 kJ/mol
# GULP energy per Si atom -5569.285176 kJ/mol
# Density = 2.475900 g / cm^3
# Si number density = 24.815477 Si / 1000 Ang^3
#
#
#
# Elastic Constant Matrix: (Units=GPa)
#
#
# Indices 1 2 3 4 5 6 
#
# 1 241.4943 20.0580 12.8274 0.0000 0.0000 0.0000
# 2 20.0580 60.3666 -1.3954 0.0000 0.0000 0.0000
# 3 12.8274 -1.3954 75.3040 0.0000 0.0000 0.0000
# 4 0.0000 0.0000 0.0000 24.5382 0.0000 0.0000
# 5 0.0000 0.0000 0.0000 0.0000 -39.0132 0.0000
# 6 0.0000 0.0000 0.0000 0.0000 0.0000 3.0787
#
#
#
# Elastic Compliance Matrix: (Units=1/GPa)
#
#
# Indices 1 2 3 4 5 6 
#
# 1 0.004301 -0.001447 -0.000760 0.000000 0.000000 0.000000
# 2 -0.001447 0.017059 0.000563 0.000000 0.000000 0.000000
# 3 -0.000760 0.000563 0.013419 0.000000 0.000000 0.000000
# 4 0.000000 0.000000 0.000000 0.040753 0.000000 0.000000
# 5 0.000000 0.000000 0.000000 0.000000 -0.025632 0.000000
# 6 0.000000 0.000000 0.000000 0.000000 0.000000 0.324807
#
#
# Mechanical properties :
#
#
# Convention : Reuss Voigt Hill
#
# Bulk Modulus (GPa) = 31.75368 48.90497 40.32933
# Shear Modulus (GPa) = 12.87026 20.76574 16.81800
#
# Velocity S-wave (km/s) = 2.27983 2.89590 2.60613
# Velocity P-wave (km/s) = 4.44453 5.56164 5.03417
#
# Compressibility (1/GPa) = 0.03149241
#
# Stress axis : x y z
#
# Youngs Moduli (GPa) = 232.48277 58.61947 74.51949
#
# Poissons Ratio (x) = 0.08481 0.05660
# Poissons Ratio (y) = 0.33635 -0.04192
# Poissons Ratio (z) = 0.17657 -0.03298
#
# Static dielectric constant tensor:
#      x y z
#    x 2.213180 0.000000 0.000000 
#    y 0.000000 2.003590 0.000000 
#    z 0.000000 0.000000 1.937880 
# 
# From -- ./inp_files/16397.got.cif
#   From: 2010.05.17/outbox.cif.g08.bks.cpg/sg40_9_cif.got.tgz:16397.got - 2010.06.03 18:35:42.
