data_PCOD9364558
_publ_section_title
;
Structure prediction by ZEFSAII (Michael W. Deem and Ramdas Pophale) SiO2 
 PCOD9364558
Probable space group: A M A 2
;
_chemical_formula_sum "Si O2"
_cell_formula_units_Z 56
_cell_length_a 27.057180
_cell_length_b 17.005546
_cell_length_c 6.310174
_cell_angle_alpha 90.000000
_cell_angle_beta 90.000000
_cell_angle_gamma 90.000000
_cell_volume 2903.450633
_symmetry_space_group_name_H-M "A M A 2"
_symmetry_group_IT_number 40
_symmetry_cell_setting 'orthorhombic'
loop_
_space_group_symop_operation_xyz
x,y,z
-x,-y,z
1/2-x,y,z
1/2+x,-y,z
x,1/2+y,1/2+z
-x,1/2-y,1/2+z
1/2-x,1/2+y,1/2+z
1/2+x,1/2-y,1/2+z
loop_
_atom_site_type_symbol
_atom_site_label
_atom_site_fract_x
_atom_site_fract_y
_atom_site_fract_z
Si Si1 0.123438 0.730643 0.927810
Si Si2 0.947366 0.317288 0.311334
Si Si3 0.693128 0.498085 0.304566
Si Si4 0.693311 0.646604 0.620842
Si Si5 0.623920 0.908905 0.109078
Si Si6 0.446364 0.830603 0.623804
Si Si7 0.624817 0.049194 0.423236
O O1 0.137446 0.661608 0.767031
O O2 0.091346 0.794147 0.795895
O O3 0.088588 0.697116 0.112730
O O4 0.170014 0.774319 0.028759
O O5 0.921471 0.379080 0.467241
O O6 0.952515 0.235530 0.441045
O O7 0.000761 0.343381 0.230368
O O8 0.750000 0.481253 0.250089
O O9 0.691889 0.579402 0.438880
O O10 0.668925 0.433114 0.456880
O O11 0.658842 0.508654 0.100542
O O12 0.750000 0.655266 0.689633
O O13 0.658464 0.615148 0.808563
O O14 0.610660 0.984815 0.248774
O O15 0.421678 0.908025 0.527514
#
# Coordination Sequence:
#
# PCOD9364558 Si02
#       7
#     8   8   8   8   8   8   8
#     4  11  21  41  64  94 126 162 214 268 315 381
#     4  11  22  42  65  97 123 173 213 266 321 386
#     4  10  21  41  65  92 128 173 212 256 320 386
#     4  10  21  37  66  98 125 161 212 262 314 376
#     4  10  25  41  63  91 135 163 209 267 322 379
#     4  11  22  38  73  90 125 170 215 261 326 374
#     4  11  21  42  66  96 126 169 208 266 313 382
#
# _framework density 19.287393999999999
#
# number of rings (size 3 to 8) (size 9 to 14) (size 15 to 20)
#    0.000    1.429    4.286    1.286    0.000    1.143 
#    0.000    6.429    0.000    0.000    0.000    0.000 
#    0.000    0.000    0.000    0.000    0.000    0.000 
#
# Total GULP energy -156538.882126 kJ/mol
# GULP energy per Si atom -5590.674362 kJ/mol
# Density = 1.924349 g / cm^3
# Si number density = 19.287394 Si / 1000 Ang^3
#
#
#
# Elastic Constant Matrix: (Units=GPa)
#
#
# Indices 1 2 3 4 5 6 
#
# 1 79.5279 58.1633 23.6926 0.0000 0.0000 0.0000
# 2 58.1633 87.2254 39.0003 0.0000 0.0000 0.0000
# 3 23.6926 39.0003 86.4302 0.0000 0.0000 0.0000
# 4 0.0000 0.0000 0.0000 12.1673 0.0000 0.0000
# 5 0.0000 0.0000 0.0000 0.0000 23.8704 0.0000
# 6 0.0000 0.0000 0.0000 0.0000 0.0000 24.0780
#
#
#
# Elastic Compliance Matrix: (Units=1/GPa)
#
#
# Indices 1 2 3 4 5 6 
#
# 1 0.024590 -0.016766 0.000825 0.000000 0.000000 0.000000
# 2 -0.016766 0.025793 -0.007043 0.000000 0.000000 0.000000
# 3 0.000825 -0.007043 0.014522 0.000000 0.000000 0.000000
# 4 0.000000 0.000000 0.000000 0.082187 0.000000 0.000000
# 5 0.000000 0.000000 0.000000 0.000000 0.041893 0.000000
# 6 0.000000 0.000000 0.000000 0.000000 0.000000 0.041532
#
#
# Mechanical properties :
#
#
# Convention : Reuss Voigt Hill
#
# Bulk Modulus (GPa) = 52.80618 54.98845 53.89731
# Shear Modulus (GPa) = 17.68042 20.84497 19.26269
#
# Velocity S-wave (km/s) = 3.03096 3.29105 3.16368
# Velocity P-wave (km/s) = 6.29976 6.55845 6.43041
#
# Compressibility (1/GPa) = 0.01893718
#
# Stress axis : x y z
#
# Youngs Moduli (GPa) = 40.66616 38.76962 68.86098
#
# Poissons Ratio (x) = 0.65001 -0.05678
# Poissons Ratio (y) = 0.68181 0.48498
# Poissons Ratio (z) = -0.03353 0.27305
#
# Static dielectric constant tensor:
#      x y z
#    x 1.629940 0.000000 0.000000 
#    y 0.000000 1.659770 0.000000 
#    z 0.000000 0.000000 1.667540 
# 
# From -- ./inp_files/3401.got.cif
#   From: 2010.05.17/outbox.cif.g08.bks.cpg/sg40_2_cif.got.tgz:3401.got - 2010.06.03 18:35:42.
