data_PCOD9364089
_publ_section_title
;
Structure prediction by ZEFSAII (Michael W. Deem and Ramdas Pophale) SiO2 
 PCOD9364089
Probable space group: A M A 2
;
_chemical_formula_sum "Si O2"
_cell_formula_units_Z 64
_cell_length_a 8.714531
_cell_length_b 27.288399
_cell_length_c 13.379389
_cell_angle_alpha 90.000000
_cell_angle_beta 90.000000
_cell_angle_gamma 90.000000
_cell_volume 3181.693616
_symmetry_space_group_name_H-M "A M A 2"
_symmetry_group_IT_number 40
_symmetry_cell_setting 'orthorhombic'
loop_
_space_group_symop_operation_xyz
x,y,z
-x,-y,z
1/2-x,y,z
1/2+x,-y,z
x,1/2+y,1/2+z
-x,1/2-y,1/2+z
1/2-x,1/2+y,1/2+z
1/2+x,1/2-y,1/2+z
loop_
_atom_site_type_symbol
_atom_site_label
_atom_site_fract_x
_atom_site_fract_y
_atom_site_fract_z
Si Si1 0.425187 0.733884 0.743830
Si Si2 0.574486 0.196400 0.558847
Si Si3 0.935648 0.945722 0.830725
Si Si4 0.934914 0.446676 0.902740
Si Si5 0.566419 0.904872 0.616233
Si Si6 0.432637 0.873561 0.236367
Si Si7 0.564109 0.378237 0.519841
Si Si8 0.065023 0.723293 0.421529
O O1 0.250000 0.724270 0.774354
O O2 0.420895 0.758247 0.635146
O O3 0.516545 0.683211 0.744995
O O4 0.500281 0.776274 0.810925
O O5 0.750000 0.179850 0.541471
O O6 0.480214 0.151118 0.598310
O O7 0.511187 0.223705 0.461694
O O8 0.750000 0.946608 0.828266
O O9 0.990501 0.923976 0.723835
O O10 0.978337 0.913505 0.927600
O O11 0.000000 0.000000 0.841307
O O12 0.750000 0.447183 0.900071
O O13 0.000000 0.500000 0.875816
O O14 0.994815 0.406015 0.824873
O O15 0.985894 0.433760 0.016611
O O16 0.750000 0.908652 0.618697
O O17 0.250000 0.877128 0.241818
O O18 0.491671 0.890483 0.126803
O O19 0.750000 0.378469 0.530551
O O20 0.516265 0.323652 0.484751
O O21 0.250000 0.723585 0.420916
#
# Coordination Sequence:
#
# PCOD9364089 Si02
#       8
#     8   8   8   8   8   8   8   8
#     4  11  22  38  58  86 123 162 203 250 306 364
#     4  10  21  36  57  85 119 158 197 239 297 358
#     4  10  22  40  64  91 121 160 203 253 313 370
#     4  11  24  43  67  94 125 163 208 263 322 380
#     4  10  22  40  63  93 126 161 203 253 312 376
#     4  12  25  41  63  91 125 167 216 263 311 372
#     4  10  21  41  64  87 125 168 206 257 316 372
#     4  10  20  37  59  85 119 159 201 246 303 370
#
# _framework density 20.115072000000001
#
# number of rings (size 3 to 8) (size 9 to 14) (size 15 to 20)
#    0.000    1.500    1.250    3.750    0.000    7.500 
#    0.000    1.250    0.000    0.000    0.000    0.000 
#    0.000    0.000    0.000    0.000    0.000    0.000 
#
# Total GULP energy -178702.267710 kJ/mol
# GULP energy per Si atom -5584.445866 kJ/mol
# Density = 2.006929 g / cm^3
# Si number density = 20.115072 Si / 1000 Ang^3
#
#
#
# Elastic Constant Matrix: (Units=GPa)
#
#
# Indices 1 2 3 4 5 6 
#
# 1 33.4230 15.3724 24.1436 0.0000 0.0000 0.0000
# 2 15.3724 83.9314 29.5094 0.0000 0.0000 0.0000
# 3 24.1436 29.5094 106.4999 0.0000 0.0000 0.0000
# 4 0.0000 0.0000 0.0000 31.3515 0.0000 0.0000
# 5 0.0000 0.0000 0.0000 0.0000 23.3974 0.0000
# 6 0.0000 0.0000 0.0000 0.0000 0.0000 28.7230
#
#
#
# Elastic Compliance Matrix: (Units=1/GPa)
#
#
# Indices 1 2 3 4 5 6 
#
# 1 0.037100 -0.004252 -0.007232 0.000000 0.000000 0.000000
# 2 -0.004252 0.013688 -0.002829 0.000000 0.000000 0.000000
# 3 -0.007232 -0.002829 0.011813 0.000000 0.000000 0.000000
# 4 0.000000 0.000000 0.000000 0.031896 0.000000 0.000000
# 5 0.000000 0.000000 0.000000 0.000000 0.042740 0.000000
# 6 0.000000 0.000000 0.000000 0.000000 0.000000 0.034815
#
#
# Mechanical properties :
#
#
# Convention : Reuss Voigt Hill
#
# Bulk Modulus (GPa) = 29.43415 40.21168 34.82291
# Shear Modulus (GPa) = 23.58458 27.01631 25.30044
#
# Velocity S-wave (km/s) = 3.42787 3.66879 3.55037
# Velocity P-wave (km/s) = 5.50742 6.16287 5.84434
#
# Compressibility (1/GPa) = 0.03397414
#
# Stress axis : x y z
#
# Youngs Moduli (GPa) = 26.95450 73.05759 84.65226
#
# Poissons Ratio (x) = 0.31065 0.61223
# Poissons Ratio (y) = 0.11461 0.23946
# Poissons Ratio (z) = 0.19494 0.20666
#
# Static dielectric constant tensor:
#      x y z
#    x 1.681420 0.000000 0.000000 
#    y 0.000000 1.681090 0.000000 
#    z 0.000000 0.000000 1.752720 
# 
# From -- ./inp_files/15705.got.cif
#   From: 2010.05.17/outbox.cif.g08.bks.cpg/sg40_8_cif.got.tgz:15705.got - 2010.06.03 18:35:42.
