data_PCOD9364954
_publ_section_title
;
Structure prediction by ZEFSAII (Michael W. Deem and Ramdas Pophale) SiO2 
 PCOD9364954
Probable space group: A M A 2
;
_chemical_formula_sum "Si O2"
_cell_formula_units_Z 36
_cell_length_a 25.065073
_cell_length_b 12.615488
_cell_length_c 4.892234
_cell_angle_alpha 90.000000
_cell_angle_beta 90.000000
_cell_angle_gamma 90.000000
_cell_volume 1546.964153
_symmetry_space_group_name_H-M "A M A 2"
_symmetry_group_IT_number 40
_symmetry_cell_setting 'orthorhombic'
loop_
_space_group_symop_operation_xyz
x,y,z
-x,-y,z
1/2-x,y,z
1/2+x,-y,z
x,1/2+y,1/2+z
-x,1/2-y,1/2+z
1/2-x,1/2+y,1/2+z
1/2+x,1/2-y,1/2+z
loop_
_atom_site_type_symbol
_atom_site_label
_atom_site_fract_x
_atom_site_fract_y
_atom_site_fract_z
Si Si1 0.401405 0.604592 0.871210
Si Si2 0.000000 0.000000 0.679890
Si Si3 0.250000 0.392794 0.517450
Si Si4 0.665066 0.430308 0.375530
Si Si5 0.750000 0.752644 0.018146
Si Si6 0.529611 0.210771 0.974659
O O1 0.387665 0.577269 0.561838
O O2 0.415707 0.728698 0.908838
O O3 0.452354 0.544006 0.992007
O O4 0.351575 0.573909 0.060656
O O5 0.976280 0.092843 0.868625
O O6 0.300769 0.466510 0.449873
O O7 0.250000 0.350201 0.824707
O O8 0.250000 0.289686 0.325257
O O9 0.699736 0.327310 0.452703
O O10 0.485439 0.273218 0.789654
#
# Coordination Sequence:
#
# PCOD9364954 Si02
#       6
#     8   4   4   8   4   8
#     4  11  23  41  65  94 130 171 212 264 319 372
#     4  10  24  42  64  90 132 176 218 264 306 368
#     4  11  24  45  72  98 124 165 210 259 330 394
#     4  11  25  43  65  98 130 159 213 268 316 389
#     4  11  24  45  68  92 128 165 202 265 328 384
#     4  10  22  40  60  87 124 167 212 256 305 359
#
# _framework density 23.271386
#
# number of rings (size 3 to 8) (size 9 to 14) (size 15 to 20)
#    0.000    1.333    0.000    5.333    0.000   16.889 
#    0.000    6.667    0.000    0.000    0.000    0.000 
#    0.000    0.000    0.000    0.000    0.000    0.000 
#
# Total GULP energy -100845.143188 kJ/mol
# GULP energy per Si atom -5602.507955 kJ/mol
# Density = 2.321842 g / cm^3
# Si number density = 23.271386 Si / 1000 Ang^3
#
#
#
# Elastic Constant Matrix: (Units=GPa)
#
#
# Indices 1 2 3 4 5 6 
#
# 1 66.7853 30.9937 0.9303 0.0000 0.0000 0.0000
# 2 30.9937 115.8655 -0.9056 0.0000 0.0000 0.0000
# 3 0.9303 -0.9056 68.2841 0.0000 0.0000 0.0000
# 4 0.0000 0.0000 0.0000 34.0196 0.0000 0.0000
# 5 0.0000 0.0000 0.0000 0.0000 36.4663 0.0000
# 6 0.0000 0.0000 0.0000 0.0000 0.0000 24.8556
#
#
#
# Elastic Compliance Matrix: (Units=1/GPa)
#
#
# Indices 1 2 3 4 5 6 
#
# 1 0.017101 -0.004577 -0.000294 0.000000 0.000000 0.000000
# 2 -0.004577 0.009857 0.000193 0.000000 0.000000 0.000000
# 3 -0.000294 0.000193 0.014651 0.000000 0.000000 0.000000
# 4 0.000000 0.000000 0.000000 0.029395 0.000000 0.000000
# 5 0.000000 0.000000 0.000000 0.000000 0.027423 0.000000
# 6 0.000000 0.000000 0.000000 0.000000 0.000000 0.040232
#
#
# Mechanical properties :
#
#
# Convention : Reuss Voigt Hill
#
# Bulk Modulus (GPa) = 31.00367 34.77462 32.88915
# Shear Modulus (GPa) = 31.49298 33.72939 32.61118
#
# Velocity S-wave (km/s) = 3.68270 3.81122 3.74751
# Velocity P-wave (km/s) = 5.60666 5.86027 5.73487
#
# Compressibility (1/GPa) = 0.03225425
#
# Stress axis : x y z
#
# Youngs Moduli (GPa) = 58.47441 101.45578 68.25350
#
# Poissons Ratio (x) = 0.46435 0.02005
# Poissons Ratio (y) = 0.26763 -0.01318
# Poissons Ratio (z) = 0.01717 -0.01959
#
# Static dielectric constant tensor:
#      x y z
#    x 1.875120 0.000000 0.000000 
#    y 0.000000 1.875480 0.000000 
#    z 0.000000 0.000000 1.792980 
# 
# From -- ./inp_files/2603.got.cif
#   From: 2010.05.17/outbox.cif.g08.bks.cpg/sg40_2_cif.got.tgz:2603.got - 2010.06.03 18:35:42.
