data_PCOD9364211
_publ_section_title
;
Structure prediction by ZEFSAII (Michael W. Deem and Ramdas Pophale) SiO2 
 PCOD9364211
Probable space group: A M A 2
;
_chemical_formula_sum "Si O2"
_cell_formula_units_Z 40
_cell_length_a 10.240980
_cell_length_b 33.831972
_cell_length_c 5.457276
_cell_angle_alpha 90.000000
_cell_angle_beta 90.000000
_cell_angle_gamma 90.000000
_cell_volume 1890.796324
_symmetry_space_group_name_H-M "A M A 2"
_symmetry_group_IT_number 40
_symmetry_cell_setting 'orthorhombic'
loop_
_space_group_symop_operation_xyz
x,y,z
-x,-y,z
1/2-x,y,z
1/2+x,-y,z
x,1/2+y,1/2+z
-x,1/2-y,1/2+z
1/2-x,1/2+y,1/2+z
1/2+x,1/2-y,1/2+z
loop_
_atom_site_type_symbol
_atom_site_label
_atom_site_fract_x
_atom_site_fract_y
_atom_site_fract_z
Si Si1 0.387324 0.776863 0.437120
Si Si2 0.895535 0.655934 0.586493
Si Si3 0.094433 0.916469 0.401019
Si Si4 0.590023 0.538672 0.394199
Si Si5 0.603292 0.310432 0.269153
O O1 0.250000 0.789412 0.565300
O O2 0.381188 0.799074 0.177660
O O3 0.386086 0.729841 0.429417
O O4 0.518516 0.793344 0.549100
O O5 0.750000 0.642413 0.500552
O O6 0.933397 0.628370 0.816922
O O7 0.012965 0.656923 0.396529
O O8 0.250000 0.918490 0.418259
O O9 0.051141 0.933254 0.663334
O O10 0.058963 0.942035 0.159410
O O11 0.500000 0.500000 0.370172
O O12 0.750000 0.531866 0.385800
O O13 0.750000 0.323405 0.211172
#
# Coordination Sequence:
#
# PCOD9364211 Si02
#       5
#     8   8   8   8   8
#     4  10  21  35  54  77 105 147 197 240 289 348
#     4  10  21  38  58  80 108 151 195 240 288 345
#     4   9  20  36  61  90 118 151 198 241 283 344
#     4  10  20  38  62  91 118 151 190 236 287 349
#     4  11  22  35  53  80 111 146 191 246 298 346
#
# _framework density 21.155108999999999
#
# number of rings (size 3 to 8) (size 9 to 14) (size 15 to 20)
#    0.000    2.000    2.000    1.200    2.800    1.600 
#    0.000    2.000    0.000    0.000    0.000    0.000 
#    0.000    0.000    0.000    0.000    0.000    0.000 
#
# Total GULP energy -111361.018976 kJ/mol
# GULP energy per Si atom -5568.050949 kJ/mol
# Density = 2.110696 g / cm^3
# Si number density = 21.155109 Si / 1000 Ang^3
#
#
#
# Elastic Constant Matrix: (Units=GPa)
#
#
# Indices 1 2 3 4 5 6 
#
# 1 144.6532 14.1586 30.5978 0.0000 0.0000 0.0000
# 2 14.1586 76.5070 11.8316 0.0000 0.0000 0.0000
# 3 30.5978 11.8316 64.3090 0.0000 0.0000 0.0000
# 4 0.0000 0.0000 0.0000 36.9315 0.0000 0.0000
# 5 0.0000 0.0000 0.0000 0.0000 23.6480 0.0000
# 6 0.0000 0.0000 0.0000 0.0000 0.0000 -7.1614
#
#
#
# Elastic Compliance Matrix: (Units=1/GPa)
#
#
# Indices 1 2 3 4 5 6 
#
# 1 0.007745 -0.000889 -0.003521 0.000000 0.000000 0.000000
# 2 -0.000889 0.013555 -0.002071 0.000000 0.000000 0.000000
# 3 -0.003521 -0.002071 0.017606 0.000000 0.000000 0.000000
# 4 0.000000 0.000000 0.000000 0.027077 0.000000 0.000000
# 5 0.000000 0.000000 0.000000 0.000000 0.042287 0.000000
# 6 0.000000 0.000000 0.000000 0.000000 0.000000 -0.139638
#
#
# Mechanical properties :
#
#
# Convention : Reuss Voigt Hill
#
# Bulk Modulus (GPa) = 38.54414 44.29390 41.41902
# Shear Modulus (GPa) = -512.48697 25.94235 -243.27231
#
# Velocity S-wave (km/s) = -15.58134 3.50565 -10.73519
# Velocity P-wave (km/s) = 17.47698 6.11304 11.57747
#
# Compressibility (1/GPa) = 0.02594428
#
# Stress axis : x y z
#
# Youngs Moduli (GPa) = 129.11624 73.77099 56.79727
#
# Poissons Ratio (x) = 0.06556 0.20001
# Poissons Ratio (y) = 0.11475 0.11763
# Poissons Ratio (z) = 0.45468 0.15279
#
# Static dielectric constant tensor:
#      x y z
#    x 1.750090 0.000000 0.000000 
#    y 0.000000 1.797220 0.000000 
#    z 0.000000 0.000000 1.851400 
# 
# From -- ./inp_files/869.got.cif
#   From: 2010.05.17/outbox.cif.g08.bks.cpg/sg40_1_cif.got.tgz:869.got - 2010.06.03 18:35:42.
