data_PCOD9364821
_publ_section_title
;
Structure prediction by ZEFSAII (Michael W. Deem and Ramdas Pophale) SiO2 
 PCOD9364821
Probable space group: A M A 2
;
_chemical_formula_sum "Si O2"
_cell_formula_units_Z 64
_cell_length_a 17.269666
_cell_length_b 11.865814
_cell_length_c 14.770823
_cell_angle_alpha 90.000000
_cell_angle_beta 90.000000
_cell_angle_gamma 90.000000
_cell_volume 3026.817029
_symmetry_space_group_name_H-M "A M A 2"
_symmetry_group_IT_number 40
_symmetry_cell_setting 'orthorhombic'
loop_
_space_group_symop_operation_xyz
x,y,z
-x,-y,z
1/2-x,y,z
1/2+x,-y,z
x,1/2+y,1/2+z
-x,1/2-y,1/2+z
1/2-x,1/2+y,1/2+z
1/2+x,1/2-y,1/2+z
loop_
_atom_site_type_symbol
_atom_site_label
_atom_site_fract_x
_atom_site_fract_y
_atom_site_fract_z
Si Si1 0.838963 0.039504 0.547930
Si Si2 0.599636 0.252532 0.758184
Si Si3 0.093083 0.501353 0.226765
Si Si4 0.935436 0.751525 0.998349
Si Si5 0.076662 0.734477 0.287171
Si Si6 0.164350 0.179600 0.441097
Si Si7 0.157961 0.577466 0.603119
Si Si8 0.400909 0.824868 0.097261
O O1 0.750000 0.080600 0.551626
O O2 0.861376 0.968870 0.636224
O O3 0.900992 0.139008 0.543921
O O4 0.846439 0.950348 0.467793
O O5 0.625013 0.121829 0.751864
O O6 0.508471 0.245390 0.743359
O O7 0.608445 0.289167 0.860996
O O8 0.637462 0.342536 0.690119
O O9 0.102560 0.604309 0.294943
O O10 0.000000 0.500000 0.210288
O O11 0.873589 0.848750 0.019938
O O12 0.015529 0.789875 0.048645
O O13 0.931892 0.725645 0.890675
O O14 0.119860 0.790659 0.201712
O O15 0.250000 0.194023 0.403100
O O16 0.154759 0.259759 0.527454
O O17 0.250000 0.558707 0.600799
O O18 0.112321 0.459261 0.598904
#
# Coordination Sequence:
#
# PCOD9364821 Si02
#       8
#     8   8   8   8   8   8   8   8
#     4  11  24  44  68  98 137 184 234 288 349 412
#     4  11  23  42  71 102 139 181 231 290 342 415
#     4  10  21  41  71 100 134 174 236 286 338 404
#     4  12  25  44  73 101 140 183 234 296 348 424
#     4  11  24  43  70 109 132 180 237 292 353 406
#     4  11  25  44  68 100 141 189 232 284 352 414
#     4  12  27  46  70 103 144 191 236 289 357 426
#     4  12  25  47  69 103 142 185 234 291 349 426
#
# _framework density 21.144324999999998
#
# number of rings (size 3 to 8) (size 9 to 14) (size 15 to 20)
#    0.000    0.750    5.000    2.250    3.500    1.500 
#    0.000    3.125    0.000    0.000    0.000    0.000 
#    0.000    0.000    0.000    0.000    0.000    0.000 
#
# Total GULP energy -178270.742616 kJ/mol
# GULP energy per Si atom -5570.960707 kJ/mol
# Density = 2.109620 g / cm^3
# Si number density = 21.144325 Si / 1000 Ang^3
#
#
#
# Elastic Constant Matrix: (Units=GPa)
#
#
# Indices 1 2 3 4 5 6 
#
# 1 44.1994 33.3857 10.4021 0.0000 0.0000 0.0000
# 2 33.3857 90.1170 6.4741 0.0000 0.0000 0.0000
# 3 10.4021 6.4741 89.5692 0.0000 0.0000 0.0000
# 4 0.0000 0.0000 0.0000 9.2024 0.0000 0.0000
# 5 0.0000 0.0000 0.0000 0.0000 7.9529 0.0000
# 6 0.0000 0.0000 0.0000 0.0000 0.0000 10.2562
#
#
#
# Elastic Compliance Matrix: (Units=1/GPa)
#
#
# Indices 1 2 3 4 5 6 
#
# 1 0.032142 -0.011700 -0.002887 0.000000 0.000000 0.000000
# 2 -0.011700 0.015414 0.000245 0.000000 0.000000 0.000000
# 3 -0.002887 0.000245 0.011482 0.000000 0.000000 0.000000
# 4 0.000000 0.000000 0.000000 0.108667 0.000000 0.000000
# 5 0.000000 0.000000 0.000000 0.000000 0.125740 0.000000
# 6 0.000000 0.000000 0.000000 0.000000 0.000000 0.097502
#
#
# Mechanical properties :
#
#
# Convention : Reuss Voigt Hill
#
# Bulk Modulus (GPa) = 32.94624 36.04551 34.49588
# Shear Modulus (GPa) = 11.63467 17.05721 14.34594
#
# Velocity S-wave (km/s) = 2.34829 2.84333 2.60759
# Velocity P-wave (km/s) = 4.79250 5.27862 5.04142
#
# Compressibility (1/GPa) = 0.03035248
#
# Stress axis : x y z
#
# Youngs Moduli (GPa) = 31.11208 64.87738 87.09164
#
# Poissons Ratio (x) = 0.75908 0.25144
# Poissons Ratio (y) = 0.36402 -0.02131
# Poissons Ratio (z) = 0.08982 -0.01587
#
# Static dielectric constant tensor:
#      x y z
#    x 1.792050 0.000000 0.000000 
#    y 0.000000 1.815870 0.000000 
#    z 0.000000 0.000000 1.769930 
# 
# From -- ./inp_files/17891.got.cif
#   From: 2010.05.17/outbox.cif.g08.bks.cpg/sg40_9_cif.got.tgz:17891.got - 2010.06.03 18:35:42.
