data_PCOD9364572
_publ_section_title
;
Structure prediction by ZEFSAII (Michael W. Deem and Ramdas Pophale) SiO2 
 PCOD9364572
Probable space group: A M A 2
;
_chemical_formula_sum "Si O2"
_cell_formula_units_Z 40
_cell_length_a 10.986998
_cell_length_b 13.628674
_cell_length_c 13.007882
_cell_angle_alpha 90.000000
_cell_angle_beta 90.000000
_cell_angle_gamma 90.000000
_cell_volume 1947.777018
_symmetry_space_group_name_H-M "A M A 2"
_symmetry_group_IT_number 40
_symmetry_cell_setting 'orthorhombic'
loop_
_space_group_symop_operation_xyz
x,y,z
-x,-y,z
1/2-x,y,z
1/2+x,-y,z
x,1/2+y,1/2+z
-x,1/2-y,1/2+z
1/2-x,1/2+y,1/2+z
1/2+x,1/2-y,1/2+z
loop_
_atom_site_type_symbol
_atom_site_label
_atom_site_fract_x
_atom_site_fract_y
_atom_site_fract_z
Si Si1 0.121657 0.040069 0.358970
Si Si2 0.621085 0.457891 0.096454
Si Si3 0.109811 0.922151 0.945127
Si Si4 0.614475 0.228902 0.134278
Si Si5 0.114425 0.752101 0.781331
O O1 0.250000 0.009166 0.310225
O O2 0.123192 0.006604 0.477799
O O3 0.117924 0.157382 0.355565
O O4 0.000000 0.000000 0.307960
O O5 0.500000 0.500000 0.146941
O O6 0.750000 0.486941 0.145577
O O7 0.615541 0.340700 0.093226
O O8 0.250000 0.962223 0.943653
O O9 0.096595 0.849864 0.847375
O O10 0.101298 0.850931 0.044592
O O11 0.000000 0.000000 0.946691
O O12 0.750000 0.214435 0.182210
O O13 0.497855 0.229483 0.207504
O O14 0.250000 0.756498 0.731793
#
# Coordination Sequence:
#
# PCOD9364572 Si02
#       5
#     8   8   8   8   8
#     4   9  17  32  54  78 105 138 174 218 274 332
#     4   9  17  32  54  78 105 138 174 218 274 332
#     4  10  22  42  63  84 118 162 203 246 297 354
#     4  10  21  38  59  83 115 153 193 239 291 348
#     4  10  21  38  59  83 115 153 193 239 291 348
#
# _framework density 20.536231999999998
#
# number of rings (size 3 to 8) (size 9 to 14) (size 15 to 20)
#    0.000    2.400    2.000    0.000    0.000    4.800 
#    0.000    8.000    0.000    0.000    0.000    0.000 
#    0.000    0.000    0.000    0.000    0.000    0.000 
#
# Total GULP energy -111425.698297 kJ/mol
# GULP energy per Si atom -5571.284915 kJ/mol
# Density = 2.048949 g / cm^3
# Si number density = 20.536232 Si / 1000 Ang^3
#
#
#
# Elastic Constant Matrix: (Units=GPa)
#
#
# Indices 1 2 3 4 5 6 
#
# 1 207.5875 71.5495 34.4384 0.0000 0.0000 0.0000
# 2 71.5495 84.0336 -2.1987 0.0000 0.0000 0.0000
# 3 34.4384 -2.1987 38.8093 0.0000 0.0000 0.0000
# 4 0.0000 0.0000 0.0000 14.5053 0.0000 0.0000
# 5 0.0000 0.0000 0.0000 0.0000 16.4138 0.0000
# 6 0.0000 0.0000 0.0000 0.0000 0.0000 36.0811
#
#
#
# Elastic Compliance Matrix: (Units=1/GPa)
#
#
# Indices 1 2 3 4 5 6 
#
# 1 0.008877 -0.007776 -0.008318 0.000000 0.000000 0.000000
# 2 -0.007776 0.018729 0.007962 0.000000 0.000000 0.000000
# 3 -0.008318 0.007962 0.033599 0.000000 0.000000 0.000000
# 4 0.000000 0.000000 0.000000 0.068940 0.000000 0.000000
# 5 0.000000 0.000000 0.000000 0.000000 0.060924 0.000000
# 6 0.000000 0.000000 0.000000 0.000000 0.000000 0.027715
#
#
# Mechanical properties :
#
#
# Convention : Reuss Voigt Hill
#
# Bulk Modulus (GPa) = 22.25170 59.77875 41.01522
# Shear Modulus (GPa) = 19.99743 28.50945 24.25344
#
# Velocity S-wave (km/s) = 3.12390 3.72997 3.44031
# Velocity P-wave (km/s) = 4.88575 6.90813 5.98301
#
# Compressibility (1/GPa) = 0.04494039
#
# Stress axis : x y z
#
# Youngs Moduli (GPa) = 112.64452 53.39214 29.76243
#
# Poissons Ratio (x) = 0.41519 0.24757
# Poissons Ratio (y) = 0.87596 -0.23696
# Poissons Ratio (z) = 0.93700 -0.42509
#
# Static dielectric constant tensor:
#      x y z
#    x 1.807250 0.000000 0.000000 
#    y 0.000000 1.717590 0.000000 
#    z 0.000000 0.000000 1.729280 
# 
# From -- ./inp_files/11070.got.cif
#   From: 2010.05.17/outbox.cif.g08.bks.cpg/sg40_6_cif.got.tgz:11070.got - 2010.06.03 18:35:42.
