data_PCOD9364764
_publ_section_title
;
Structure prediction by ZEFSAII (Michael W. Deem and Ramdas Pophale) SiO2 
 PCOD9364764
Probable space group: A M A 2
;
_chemical_formula_sum "Si O2"
_cell_formula_units_Z 64
_cell_length_a 14.620358
_cell_length_b 17.160076
_cell_length_c 11.861554
_cell_angle_alpha 90.000000
_cell_angle_beta 90.000000
_cell_angle_gamma 90.000000
_cell_volume 2975.903227
_symmetry_space_group_name_H-M "A M A 2"
_symmetry_group_IT_number 40
_symmetry_cell_setting 'orthorhombic'
loop_
_space_group_symop_operation_xyz
x,y,z
-x,-y,z
1/2-x,y,z
1/2+x,-y,z
x,1/2+y,1/2+z
-x,1/2-y,1/2+z
1/2-x,1/2+y,1/2+z
1/2+x,1/2-y,1/2+z
loop_
_atom_site_type_symbol
_atom_site_label
_atom_site_fract_x
_atom_site_fract_y
_atom_site_fract_z
Si Si1 0.640603 0.347215 0.380420
Si Si2 0.861407 0.804908 0.625710
Si Si3 0.146923 0.102481 0.266743
Si Si4 0.899118 0.982083 0.043991
Si Si5 0.023117 0.581348 0.966784
Si Si6 0.643317 0.157762 0.988917
Si Si7 0.141276 0.316775 0.001587
Si Si8 0.138812 0.783052 0.752177
O O1 0.750000 0.362148 0.378318
O O2 0.612076 0.325329 0.253696
O O3 0.597909 0.423348 0.438026
O O4 0.626981 0.271068 0.457839
O O5 0.750000 0.811683 0.619818
O O6 0.910898 0.863636 0.540434
O O7 0.890130 0.717824 0.584848
O O8 0.250000 0.103609 0.313723
O O9 0.079013 0.062770 0.353733
O O10 0.115512 0.191908 0.253548
O O11 0.149422 0.062050 0.145692
O O12 0.861416 0.066897 0.014664
O O13 0.000000 0.000000 0.085369
O O14 0.000000 0.500000 0.026205
O O15 0.928856 0.626163 0.940508
O O16 0.750000 0.177589 0.978834
O O17 0.602196 0.177876 0.866293
O O18 0.250000 0.334476 0.988081
O O19 0.113286 0.320527 0.133255
O O20 0.250000 0.786735 0.751211
#
# Coordination Sequence:
#
# PCOD9364764 Si02
#       8
#     8   8   8   8   8   8   8   8
#     4  10  22  43  68  94 133 184 229 279 349 414
#     4  10  23  43  68  95 132 181 230 282 347 410
#     4  11  22  44  72  95 131 177 228 284 345 414
#     4  12  26  39  64 105 140 176 228 292 347 406
#     4  12  27  42  64  98 133 176 228 283 345 413
#     4  10  21  40  66 100 133 174 230 287 340 402
#     4  10  23  43  68  98 133 179 229 280 343 417
#     4   9  18  38  71  96 123 176 230 273 337 408
#
# _framework density 21.506076
#
# number of rings (size 3 to 8) (size 9 to 14) (size 15 to 20)
#    0.000    1.500    2.500    1.875    1.750    6.500 
#    0.000    3.750    0.000    0.000    0.000    0.000 
#    0.000    0.000    0.000    0.000    0.000    0.000 
#
# Total GULP energy -178804.322896 kJ/mol
# GULP energy per Si atom -5587.635091 kJ/mol
# Density = 2.145713 g / cm^3
# Si number density = 21.506076 Si / 1000 Ang^3
#
#
#
# Elastic Constant Matrix: (Units=GPa)
#
#
# Indices 1 2 3 4 5 6 
#
# 1 67.8310 18.1407 19.2251 0.0000 0.0000 0.0000
# 2 18.1407 124.9973 48.4317 0.0000 0.0000 0.0000
# 3 19.2251 48.4317 123.7418 0.0000 0.0000 0.0000
# 4 0.0000 0.0000 0.0000 23.9188 0.0000 0.0000
# 5 0.0000 0.0000 0.0000 0.0000 29.8796 0.0000
# 6 0.0000 0.0000 0.0000 0.0000 0.0000 10.9901
#
#
#
# Elastic Compliance Matrix: (Units=1/GPa)
#
#
# Indices 1 2 3 4 5 6 
#
# 1 0.015679 -0.001570 -0.001822 0.000000 0.000000 0.000000
# 2 -0.001570 0.009587 -0.003509 0.000000 0.000000 0.000000
# 3 -0.001822 -0.003509 0.009738 0.000000 0.000000 0.000000
# 4 0.000000 0.000000 0.000000 0.041808 0.000000 0.000000
# 5 0.000000 0.000000 0.000000 0.000000 0.033468 0.000000
# 6 0.000000 0.000000 0.000000 0.000000 0.000000 0.090991
#
#
# Mechanical properties :
#
#
# Convention : Reuss Voigt Hill
#
# Bulk Modulus (GPa) = 47.16081 54.24055 50.70068
# Shear Modulus (GPa) = 22.50851 28.34254 25.42553
#
# Velocity S-wave (km/s) = 3.23865 3.63421 3.44211
# Velocity P-wave (km/s) = 5.99681 6.54872 6.27883
#
# Compressibility (1/GPa) = 0.02120405
#
# Stress axis : x y z
#
# Youngs Moduli (GPa) = 63.78128 104.30343 102.69490
#
# Poissons Ratio (x) = 0.16372 0.18706
# Poissons Ratio (y) = 0.10011 0.36031
# Poissons Ratio (z) = 0.11618 0.36596
#
# Static dielectric constant tensor:
#      x y z
#    x 1.803470 0.000000 0.000000 
#    y 0.000000 1.772520 0.000000 
#    z 0.000000 0.000000 1.805570 
# 
# From -- ./inp_files/12415.got.cif
#   From: 2010.05.17/outbox.cif.g08.bks.cpg/sg40_7_cif.got.tgz:12415.got - 2010.06.03 18:35:42.
