data_PCOD9364972
_publ_section_title
;
Structure prediction by ZEFSAII (Michael W. Deem and Ramdas Pophale) SiO2 
 PCOD9364972
Probable space group: A M A 2
;
_chemical_formula_sum "Si O2"
_cell_formula_units_Z 64
_cell_length_a 8.750505
_cell_length_b 24.301072
_cell_length_c 15.827886
_cell_angle_alpha 90.000000
_cell_angle_beta 90.000000
_cell_angle_gamma 90.000000
_cell_volume 3365.746967
_symmetry_space_group_name_H-M "A M A 2"
_symmetry_group_IT_number 40
_symmetry_cell_setting 'orthorhombic'
loop_
_space_group_symop_operation_xyz
x,y,z
-x,-y,z
1/2-x,y,z
1/2+x,-y,z
x,1/2+y,1/2+z
-x,1/2-y,1/2+z
1/2-x,1/2+y,1/2+z
1/2+x,1/2-y,1/2+z
loop_
_atom_site_type_symbol
_atom_site_label
_atom_site_fract_x
_atom_site_fract_y
_atom_site_fract_z
Si Si1 0.433367 0.747216 0.467690
Si Si2 0.567572 0.632298 0.410010
Si Si3 0.434025 0.863193 0.719557
Si Si4 0.432712 0.636758 0.720913
Si Si5 0.434260 0.439042 0.062319
Si Si6 0.932931 0.939053 0.061608
Si Si7 0.433908 0.867795 0.399118
Si Si8 0.932197 0.250038 0.156423
O O1 0.250000 0.741155 0.468286
O O2 0.508021 0.694181 0.424941
O O3 0.471648 0.804427 0.421628
O O4 0.492570 0.750375 0.563612
O O5 0.750000 0.631311 0.420867
O O6 0.531105 0.615976 0.313663
O O7 0.492748 0.593284 0.479681
O O8 0.250000 0.855404 0.713594
O O9 0.481060 0.904843 0.645462
O O10 0.512931 0.804739 0.703811
O O11 0.250000 0.643429 0.719492
O O12 0.476572 0.595814 0.644913
O O13 0.487101 0.615972 0.811951
O O14 0.510690 0.695435 0.703421
O O15 0.500000 0.500000 0.062444
O O16 0.250000 0.441619 0.062699
O O17 0.480055 0.405442 0.978422
O O18 0.750000 0.941638 0.058463
O O19 0.000000 0.000000 0.064887
O O20 0.250000 0.871229 0.390061
O O21 0.750000 0.249127 0.149254
#
# Coordination Sequence:
#
# PCOD9364972 Si02
#       8
#     8   8   8   8   8   8   8   8
#     4  11  21  38  62  89 126 165 199 246 309 366
#     4  11  23  39  64  95 124 160 203 251 305 367
#     4  10  22  42  64  90 127 164 201 249 306 363
#     4  11  24  41  63  91 125 162 200 249 309 366
#     4  10  22  42  63  87 121 162 205 254 306 356
#     4  11  25  44  65  87 120 164 207 259 310 360
#     4  10  22  40  64  90 123 163 203 250 304 362
#     4  12  23  36  62  95 125 161 204 249 302 365
#
# _framework density 19.015094000000001
#
# number of rings (size 3 to 8) (size 9 to 14) (size 15 to 20)
#    0.000    1.250    2.500    3.375    0.000    7.500 
#    0.000    3.750    0.000    0.000    0.000    0.000 
#    0.000    0.000    0.000    0.000    0.000    0.000 
#
# Total GULP energy -178962.577293 kJ/mol
# GULP energy per Si atom -5592.580540 kJ/mol
# Density = 1.897182 g / cm^3
# Si number density = 19.015094 Si / 1000 Ang^3
#
#
#
# Elastic Constant Matrix: (Units=GPa)
#
#
# Indices 1 2 3 4 5 6 
#
# 1 38.9960 42.4848 50.6046 0.0000 0.0000 0.0000
# 2 42.4848 153.0207 82.1139 0.0000 0.0000 0.0000
# 3 50.6046 82.1139 179.2026 0.0000 0.0000 0.0000
# 4 0.0000 0.0000 0.0000 -1.7885 0.0000 0.0000
# 5 0.0000 0.0000 0.0000 0.0000 34.9713 0.0000
# 6 0.0000 0.0000 0.0000 0.0000 0.0000 33.8134
#
#
#
# Elastic Compliance Matrix: (Units=1/GPa)
#
#
# Indices 1 2 3 4 5 6 
#
# 1 0.046557 -0.007785 -0.009580 0.000000 0.000000 0.000000
# 2 -0.007785 0.009968 -0.002369 0.000000 0.000000 0.000000
# 3 -0.009580 -0.002369 0.009371 0.000000 0.000000 0.000000
# 4 0.000000 0.000000 0.000000 -0.559130 0.000000 0.000000
# 5 0.000000 0.000000 0.000000 0.000000 0.028595 0.000000
# 6 0.000000 0.000000 0.000000 0.000000 0.000000 0.029574
#
#
# Mechanical properties :
#
#
# Convention : Reuss Voigt Hill
#
# Bulk Modulus (GPa) = 37.83912 80.18065 59.00989
# Shear Modulus (GPa) = -12.92697 26.46698 6.77000
#
# Velocity S-wave (km/s) = -2.61018 3.73486 1.88893
# Velocity P-wave (km/s) = 3.29525 7.80111 5.98815
#
# Compressibility (1/GPa) = 0.02642767
#
# Stress axis : x y z
#
# Youngs Moduli (GPa) = 21.47902 100.32264 106.71292
#
# Poissons Ratio (x) = 0.78106 1.02227
# Poissons Ratio (y) = 0.16722 0.25279
# Poissons Ratio (z) = 0.20576 0.23766
#
# Static dielectric constant tensor:
#      x y z
#    x 1.632730 0.000000 0.000000 
#    y 0.000000 1.624330 0.000000 
#    z 0.000000 0.000000 1.664220 
# 
# From -- ./inp_files/15630.got.cif
#   From: 2010.05.17/outbox.cif.g08.bks.cpg/sg40_8_cif.got.tgz:15630.got - 2010.06.03 18:35:42.
