data_PCOD9364281
_publ_section_title
;
Structure prediction by ZEFSAII (Michael W. Deem and Ramdas Pophale) SiO2 
 PCOD9364281
Probable space group: A M A 2
;
_chemical_formula_sum "Si O2"
_cell_formula_units_Z 52
_cell_length_a 26.709664
_cell_length_b 5.133660
_cell_length_c 19.007074
_cell_angle_alpha 90.000000
_cell_angle_beta 90.000000
_cell_angle_gamma 90.000000
_cell_volume 2606.218315
_symmetry_space_group_name_H-M "A M A 2"
_symmetry_group_IT_number 40
_symmetry_cell_setting 'orthorhombic'
loop_
_space_group_symop_operation_xyz
x,y,z
-x,-y,z
1/2-x,y,z
1/2+x,-y,z
x,1/2+y,1/2+z
-x,1/2-y,1/2+z
1/2-x,1/2+y,1/2+z
1/2+x,1/2-y,1/2+z
loop_
_atom_site_type_symbol
_atom_site_label
_atom_site_fract_x
_atom_site_fract_y
_atom_site_fract_z
Si Si1 0.943208 0.088988 0.519780
Si Si2 0.000000 0.000000 0.851454
Si Si3 0.195377 0.157350 0.043225
Si Si4 0.693992 0.840120 0.444439
Si Si5 0.902045 0.588050 0.595939
Si Si6 0.413959 0.622904 0.881892
Si Si7 0.052710 0.880344 0.244472
O O1 0.909946 0.849272 0.550327
O O2 0.928008 0.106287 0.437491
O O3 0.935071 0.357434 0.561049
O O4 0.000000 0.000000 0.528044
O O5 0.035687 0.154210 0.797145
O O6 0.960700 0.177587 0.894487
O O7 0.250000 0.173243 0.077679
O O8 0.196538 0.933720 0.984197
O O9 0.187019 0.427187 0.001602
O O10 0.152020 0.050957 0.093293
O O11 0.750000 0.885271 0.412338
O O12 0.644025 0.820128 0.397590
O O13 0.916575 0.667895 0.674671
O O14 0.419155 0.565693 0.799420
O O15 0.000000 0.000000 0.220047
#
# Coordination Sequence:
#
# PCOD9364281 Si02
#       7
#     8   4   8   8   8   8   8
#     4  12  25  37  61  93 124 156 213 267 310 370
#     4  10  24  40  64  88 136 182 216 254 334 404
#     4  10  20  39  63  93 124 159 206 265 328 376
#     4  10  21  39  65  93 124 161 210 269 327 380
#     4  12  24  41  62  92 124 165 210 261 316 374
#     4  11  23  40  63  91 127 168 218 258 329 381
#     4  10  24  41  59  85 130 176 209 249 320 392
#
# _framework density 19.952280999999999
#
# number of rings (size 3 to 8) (size 9 to 14) (size 15 to 20)
#    0.000    1.231    3.077    2.769   11.846    0.000 
#    0.000    0.769    0.000    0.923    0.000    0.000 
#    0.000    0.000    0.000    0.000    0.000    0.000 
#
# Total GULP energy -144937.458282 kJ/mol
# GULP energy per Si atom -5574.517626 kJ/mol
# Density = 1.990687 g / cm^3
# Si number density = 19.952281 Si / 1000 Ang^3
#
#
#
# Elastic Constant Matrix: (Units=GPa)
#
#
# Indices 1 2 3 4 5 6 
#
# 1 156.0924 13.2327 44.1913 0.0000 0.0000 0.0000
# 2 13.2327 78.5867 11.5627 0.0000 0.0000 0.0000
# 3 44.1913 11.5627 79.6043 0.0000 0.0000 0.0000
# 4 0.0000 0.0000 0.0000 10.0221 0.0000 0.0000
# 5 0.0000 0.0000 0.0000 0.0000 31.7675 0.0000
# 6 0.0000 0.0000 0.0000 0.0000 0.0000 23.5920
#
#
#
# Elastic Compliance Matrix: (Units=1/GPa)
#
#
# Indices 1 2 3 4 5 6 
#
# 1 0.007636 -0.000677 -0.004141 0.000000 0.000000 0.000000
# 2 -0.000677 0.013063 -0.001522 0.000000 0.000000 0.000000
# 3 -0.004141 -0.001522 0.015082 0.000000 0.000000 0.000000
# 4 0.000000 0.000000 0.000000 0.099779 0.000000 0.000000
# 5 0.000000 0.000000 0.000000 0.000000 0.031479 0.000000
# 6 0.000000 0.000000 0.000000 0.000000 0.000000 0.042387
#
#
# Mechanical properties :
#
#
# Convention : Reuss Voigt Hill
#
# Bulk Modulus (GPa) = 43.28571 50.25075 46.76823
# Shear Modulus (GPa) = 21.75761 29.42945 25.59353
#
# Velocity S-wave (km/s) = 3.30583 3.84473 3.58542
# Velocity P-wave (km/s) = 6.02603 6.70443 6.37426
#
# Compressibility (1/GPa) = 0.02310231
#
# Stress axis : x y z
#
# Youngs Moduli (GPa) = 130.95650 76.55427 66.30462
#
# Poissons Ratio (x) = 0.05179 0.27456
# Poissons Ratio (y) = 0.08860 0.10090
# Poissons Ratio (z) = 0.54227 0.11650
#
# Static dielectric constant tensor:
#      x y z
#    x 1.789520 0.000000 0.000000 
#    y 0.000000 1.787150 0.000000 
#    z 0.000000 0.000000 1.660210 
# 
# From -- ./inp_files/21578.got.cif
#   From: 2010.05.17/outbox.cif.g08.bks.cpg/sg40_11_cif.got.tgz:21578.got - 2010.06.03 18:35:42.
