data_PCOD9364392
_publ_section_title
;
Structure prediction by ZEFSAII (Michael W. Deem and Ramdas Pophale) SiO2 
 PCOD9364392
Probable space group: A M A 2
;
_chemical_formula_sum "Si O2"
_cell_formula_units_Z 64
_cell_length_a 18.104059
_cell_length_b 20.325897
_cell_length_c 7.350037
_cell_angle_alpha 90.000000
_cell_angle_beta 90.000000
_cell_angle_gamma 90.000000
_cell_volume 2704.675718
_symmetry_space_group_name_H-M "A M A 2"
_symmetry_group_IT_number 40
_symmetry_cell_setting 'orthorhombic'
loop_
_space_group_symop_operation_xyz
x,y,z
-x,-y,z
1/2-x,y,z
1/2+x,-y,z
x,1/2+y,1/2+z
-x,1/2-y,1/2+z
1/2-x,1/2+y,1/2+z
1/2+x,1/2-y,1/2+z
loop_
_atom_site_type_symbol
_atom_site_label
_atom_site_fract_x
_atom_site_fract_y
_atom_site_fract_z
Si Si1 0.666253 0.135924 0.454010
Si Si2 0.662863 0.399427 0.152725
Si Si3 0.334586 0.759361 0.156424
Si Si4 0.890021 0.684134 0.308422
Si Si5 0.446635 0.447133 0.723032
Si Si6 0.663550 0.307163 0.593442
Si Si7 0.463120 0.125911 0.902080
Si Si8 0.831895 0.953579 0.253159
O O1 0.750000 0.113653 0.413571
O O2 0.659850 0.208354 0.358452
O O3 0.656239 0.138449 0.671203
O O4 0.599121 0.096905 0.363163
O O5 0.750000 0.407974 0.210488
O O6 0.653311 0.319197 0.132922
O O7 0.596154 0.417185 0.288739
O O8 0.652766 0.439783 0.966837
O O9 0.250000 0.769058 0.099299
O O10 0.379765 0.807596 0.024082
O O11 0.860405 0.754805 0.243012
O O12 0.973854 0.660694 0.280826
O O13 0.500000 0.500000 0.819848
O O14 0.506234 0.588820 0.566118
O O15 0.383619 0.495771 0.649194
O O16 0.750000 0.296945 0.534440
O O17 0.589241 0.316359 0.475876
O O18 0.666099 0.380978 0.672739
O O19 0.750000 0.979509 0.237713
#
# Coordination Sequence:
#
# PCOD9364392 Si02
#       8
#     8   8   8   8   8   8   8   8
#     4  11  25  46  73 106 147 197 240 290 363 447
#     4  10  22  44  73 110 146 186 243 303 369 447
#     4  10  20  42  73 107 150 187 227 292 365 443
#     4  12  25  42  73 114 149 185 237 295 372 439
#     4  12  26  49  68  97 142 192 250 301 365 411
#     4  11  23  44  72 105 146 190 233 286 360 445
#     4  12  27  42  70 109 148 193 236 304 371 432
#     4  10  22  44  74  98 134 190 247 299 359 434
#
# _framework density 23.662725999999999
#
# number of rings (size 3 to 8) (size 9 to 14) (size 15 to 20)
#    0.000    1.000    3.750    2.625    3.500    2.000 
#    2.250    0.000    0.000    0.000    0.000    0.000 
#    0.000    0.000    0.000    0.000    0.000    0.000 
#
# Total GULP energy -178313.722224 kJ/mol
# GULP energy per Si atom -5572.303820 kJ/mol
# Density = 2.360887 g / cm^3
# Si number density = 23.662726 Si / 1000 Ang^3
#
#
#
# Elastic Constant Matrix: (Units=GPa)
#
#
# Indices 1 2 3 4 5 6 
#
# 1 180.1545 59.4409 50.0916 0.0000 0.0000 0.0000
# 2 59.4409 69.7425 -1.3879 0.0000 0.0000 0.0000
# 3 50.0916 -1.3879 51.5521 0.0000 0.0000 0.0000
# 4 0.0000 0.0000 0.0000 17.3811 0.0000 0.0000
# 5 0.0000 0.0000 0.0000 0.0000 43.7811 0.0000
# 6 0.0000 0.0000 0.0000 0.0000 0.0000 42.5039
#
#
#
# Elastic Compliance Matrix: (Units=1/GPa)
#
#
# Indices 1 2 3 4 5 6 
#
# 1 0.012744 -0.011114 -0.012682 0.000000 0.000000 0.000000
# 2 -0.011114 0.024039 0.011446 0.000000 0.000000 0.000000
# 3 -0.012682 0.011446 0.032029 0.000000 0.000000 0.000000
# 4 0.000000 0.000000 0.000000 0.057534 0.000000 0.000000
# 5 0.000000 0.000000 0.000000 0.000000 0.022841 0.000000
# 6 0.000000 0.000000 0.000000 0.000000 0.000000 0.023527
#
#
# Mechanical properties :
#
#
# Convention : Reuss Voigt Hill
#
# Bulk Modulus (GPa) = 22.66970 57.52650 40.09810
# Shear Modulus (GPa) = 23.57184 33.62018 28.59601
#
# Velocity S-wave (km/s) = 3.15962 3.77345 3.48010
# Velocity P-wave (km/s) = 4.78666 6.58400 5.75592
#
# Compressibility (1/GPa) = 0.04411175
#
# Stress axis : x y z
#
# Youngs Moduli (GPa) = 78.46789 41.59971 31.22178
#
# Poissons Ratio (x) = 0.46234 0.39596
# Poissons Ratio (y) = 0.87209 -0.35737
# Poissons Ratio (z) = 0.99515 -0.47616
#
# Static dielectric constant tensor:
#      x y z
#    x 1.904750 0.000000 0.000000 
#    y 0.000000 1.955520 0.000000 
#    z 0.000000 0.000000 2.110240 
# 
# From -- ./inp_files/7768.got.cif
#   From: 2010.05.17/outbox.cif.g08.bks.cpg/sg40_4_cif.got.tgz:7768.got - 2010.06.03 18:35:42.
