data_PCOD9364654
_publ_section_title
;
Structure prediction by ZEFSAII (Michael W. Deem and Ramdas Pophale) SiO2 
 PCOD9364654
Probable space group: A M A 2
;
_chemical_formula_sum "Si O2"
_cell_formula_units_Z 40
_cell_length_a 12.099462
_cell_length_b 23.372323
_cell_length_c 6.743614
_cell_angle_alpha 90.000000
_cell_angle_beta 90.000000
_cell_angle_gamma 90.000000
_cell_volume 1907.043691
_symmetry_space_group_name_H-M "A M A 2"
_symmetry_group_IT_number 40
_symmetry_cell_setting 'orthorhombic'
loop_
_space_group_symop_operation_xyz
x,y,z
-x,-y,z
1/2-x,y,z
1/2+x,-y,z
x,1/2+y,1/2+z
-x,1/2-y,1/2+z
1/2-x,1/2+y,1/2+z
1/2+x,1/2-y,1/2+z
loop_
_atom_site_type_symbol
_atom_site_label
_atom_site_fract_x
_atom_site_fract_y
_atom_site_fract_z
Si Si1 0.017455 0.334106 0.476750
Si Si2 0.876588 0.599500 0.135600
Si Si3 0.369072 0.233543 0.675280
Si Si4 0.374869 0.509006 0.876295
Si Si5 0.071727 0.136793 0.379765
O O1 0.067628 0.384585 0.344064
O O2 0.106469 0.296122 0.592578
O O3 0.958846 0.289538 0.328812
O O4 0.934346 0.356149 0.644597
O O5 0.750000 0.618274 0.139379
O O6 0.880091 0.533700 0.064413
O O7 0.947747 0.632235 0.969054
O O8 0.250000 0.231101 0.772778
O O9 0.373273 0.189329 0.491645
O O10 0.500000 0.500000 0.778261
O O11 0.250000 0.496879 0.785103
O O12 0.375460 0.575694 0.930268
#
# Coordination Sequence:
#
# PCOD9364654 Si02
#       5
#     8   8   8   8   8
#     4  11  22  41  59  94 128 165 219 266 321 396
#     4   9  20  38  63  92 125 166 213 270 328 387
#     4  11  23  39  60  89 128 169 213 269 326 388
#     4   9  18  37  63  90 122 164 211 265 325 388
#     4  10  21  39  61  89 131 167 217 266 327 392
#
# _framework density 20.974872000000001
#
# number of rings (size 3 to 8) (size 9 to 14) (size 15 to 20)
#    0.000    2.000    2.000    1.200    0.000    3.200 
#    0.000   15.000    0.000   14.400    0.000    0.000 
#    0.000    0.000    0.000    0.000    0.000    0.000 
#
# Total GULP energy -111401.307367 kJ/mol
# GULP energy per Si atom -5570.065368 kJ/mol
# Density = 2.092713 g / cm^3
# Si number density = 20.974872 Si / 1000 Ang^3
#
#
#
# Elastic Constant Matrix: (Units=GPa)
#
#
# Indices 1 2 3 4 5 6 
#
# 1 119.5706 -5.6836 8.1302 0.0000 0.0000 0.0000
# 2 -5.6836 80.7799 13.1534 0.0000 0.0000 0.0000
# 3 8.1302 13.1534 75.8151 0.0000 0.0000 0.0000
# 4 0.0000 0.0000 0.0000 17.9999 0.0000 0.0000
# 5 0.0000 0.0000 0.0000 0.0000 3.9689 0.0000
# 6 0.0000 0.0000 0.0000 0.0000 0.0000 9.8571
#
#
#
# Elastic Compliance Matrix: (Units=1/GPa)
#
#
# Indices 1 2 3 4 5 6 
#
# 1 0.008470 0.000766 -0.001041 0.000000 0.000000 0.000000
# 2 0.000766 0.012808 -0.002304 0.000000 0.000000 0.000000
# 3 -0.001041 -0.002304 0.013701 0.000000 0.000000 0.000000
# 4 0.000000 0.000000 0.000000 0.055556 0.000000 0.000000
# 5 0.000000 0.000000 0.000000 0.000000 0.251959 0.000000
# 6 0.000000 0.000000 0.000000 0.000000 0.000000 0.101450
#
#
# Mechanical properties :
#
#
# Convention : Reuss Voigt Hill
#
# Bulk Modulus (GPa) = 33.53409 34.15174 33.84292
# Shear Modulus (GPa) = 10.89218 23.73622 17.31420
#
# Velocity S-wave (km/s) = 2.28128 3.36765 2.87622
# Velocity P-wave (km/s) = 4.79181 5.60705 5.21538
#
# Compressibility (1/GPa) = 0.02982040
#
# Stress axis : x y z
#
# Youngs Moduli (GPa) = 118.05763 78.07391 72.98522
#
# Poissons Ratio (x) = -0.05977 0.07599
# Poissons Ratio (y) = -0.09037 0.16818
# Poissons Ratio (z) = 0.12292 0.17990
#
# Static dielectric constant tensor:
#      x y z
#    x 1.831980 0.000000 0.000000 
#    y 0.000000 1.749580 0.000000 
#    z 0.000000 0.000000 1.710890 
# 
# From -- ./inp_files/793.got.cif
#   From: 2010.05.17/outbox.cif.g08.bks.cpg/sg40_1_cif.got.tgz:793.got - 2010.06.03 18:35:42.
