data_PCOD9364218
_publ_section_title
;
Structure prediction by ZEFSAII (Michael W. Deem and Ramdas Pophale) SiO2 
 PCOD9364218
Probable space group: A M A 2
;
_chemical_formula_sum "Si O2"
_cell_formula_units_Z 48
_cell_length_a 14.478564
_cell_length_b 17.208388
_cell_length_c 8.995412
_cell_angle_alpha 90.000000
_cell_angle_beta 90.000000
_cell_angle_gamma 90.000000
_cell_volume 2241.231610
_symmetry_space_group_name_H-M "A M A 2"
_symmetry_group_IT_number 40
_symmetry_cell_setting 'orthorhombic'
loop_
_space_group_symop_operation_xyz
x,y,z
-x,-y,z
1/2-x,y,z
1/2+x,-y,z
x,1/2+y,1/2+z
-x,1/2-y,1/2+z
1/2-x,1/2+y,1/2+z
1/2+x,1/2-y,1/2+z
loop_
_atom_site_type_symbol
_atom_site_label
_atom_site_fract_x
_atom_site_fract_y
_atom_site_fract_z
Si Si1 0.465365 0.589039 0.724300
Si Si2 0.351021 0.442105 0.322020
Si Si3 0.411933 0.705114 0.933702
Si Si4 0.515526 0.675381 0.210703
Si Si5 0.650668 0.658659 0.622669
Si Si6 0.356984 0.618960 0.415794
O O1 0.500000 0.500000 0.733314
O O2 0.402239 0.620118 0.860965
O O3 0.559190 0.641282 0.716837
O O4 0.408865 0.606147 0.572969
O O5 0.250000 0.420498 0.261729
O O6 0.432747 0.406184 0.227494
O O7 0.357714 0.402715 0.485677
O O8 0.355640 0.533598 0.342015
O O9 0.422719 0.761259 0.793343
O O10 0.499605 0.696535 0.041587
O O11 0.349489 0.756674 0.044157
O O12 0.421330 0.669549 0.307251
O O13 0.750000 0.646342 0.697070
O O14 0.250000 0.644739 0.432127
#
# Coordination Sequence:
#
# PCOD9364218 Si02
#       6
#     8   8   8   8   8   8
#     4  12  22  40  64  98 128 164 210 268 318 379
#     4   9  18  34  61  88 114 157 201 245 307 372
#     4  11  23  39  63  88 125 163 213 259 318 375
#     4  11  20  39  59  87 122 161 210 261 311 378
#     4  10  20  38  63  86 118 165 207 249 310 377
#     4  11  21  36  62  91 123 166 212 257 313 379
#
# _framework density 21.416795
#
# number of rings (size 3 to 8) (size 9 to 14) (size 15 to 20)
#    0.000    1.333    6.667    0.500    0.000    2.667 
#    0.000    5.000    0.000    0.000    0.000    0.000 
#    0.000    0.000    0.000    0.000    0.000    0.000 
#
# Total GULP energy -133748.795504 kJ/mol
# GULP energy per Si atom -5572.866479 kJ/mol
# Density = 2.136805 g / cm^3
# Si number density = 21.416795 Si / 1000 Ang^3
#
#
#
# Elastic Constant Matrix: (Units=GPa)
#
#
# Indices 1 2 3 4 5 6 
#
# 1 94.4230 13.7251 -7.6213 0.0000 0.0000 0.0000
# 2 13.7251 69.8637 14.9569 0.0000 0.0000 0.0000
# 3 -7.6213 14.9569 47.3279 0.0000 0.0000 0.0000
# 4 0.0000 0.0000 0.0000 24.3562 0.0000 0.0000
# 5 0.0000 0.0000 0.0000 0.0000 2.4515 0.0000
# 6 0.0000 0.0000 0.0000 0.0000 0.0000 3.6412
#
#
#
# Elastic Compliance Matrix: (Units=1/GPa)
#
#
# Indices 1 2 3 4 5 6 
#
# 1 0.011211 -0.002777 0.002683 0.000000 0.000000 0.000000
# 2 -0.002777 0.016040 -0.005516 0.000000 0.000000 0.000000
# 3 0.002683 -0.005516 0.023304 0.000000 0.000000 0.000000
# 4 0.000000 0.000000 0.000000 0.041057 0.000000 0.000000
# 5 0.000000 0.000000 0.000000 0.000000 0.407910 0.000000
# 6 0.000000 0.000000 0.000000 0.000000 0.000000 0.274638
#
#
# Mechanical properties :
#
#
# Convention : Reuss Voigt Hill
#
# Bulk Modulus (GPa) = 25.42269 28.19290 26.80779
# Shear Modulus (GPa) = 6.26180 18.79337 12.52759
#
# Velocity S-wave (km/s) = 1.71176 2.96549 2.42118
# Velocity P-wave (km/s) = 3.97531 4.99179 4.51226
#
# Compressibility (1/GPa) = 0.03933495
#
# Stress axis : x y z
#
# Youngs Moduli (GPa) = 89.19961 62.34395 42.91022
#
# Poissons Ratio (x) = 0.17312 -0.11512
# Poissons Ratio (y) = 0.24769 0.23670
# Poissons Ratio (z) = -0.23931 0.34390
#
# Static dielectric constant tensor:
#      x y z
#    x 1.817450 0.000000 0.000000 
#    y 0.000000 1.823140 0.000000 
#    z 0.000000 0.000000 1.746430 
# 
# From -- ./inp_files/6433.got.cif
#   From: 2010.05.17/outbox.cif.g08.bks.cpg/sg40_4_cif.got.tgz:6433.got - 2010.06.03 18:35:42.
