data_PCOD9364733
_publ_section_title
;
Structure prediction by ZEFSAII (Michael W. Deem and Ramdas Pophale) SiO2 
 PCOD9364733
Probable space group: A M A 2
;
_chemical_formula_sum "Si O2"
_cell_formula_units_Z 48
_cell_length_a 26.253164
_cell_length_b 12.736298
_cell_length_c 6.518185
_cell_angle_alpha 90.000000
_cell_angle_beta 90.000000
_cell_angle_gamma 90.000000
_cell_volume 2179.473265
_symmetry_space_group_name_H-M "A M A 2"
_symmetry_group_IT_number 40
_symmetry_cell_setting 'orthorhombic'
loop_
_space_group_symop_operation_xyz
x,y,z
-x,-y,z
1/2-x,y,z
1/2+x,-y,z
x,1/2+y,1/2+z
-x,1/2-y,1/2+z
1/2-x,1/2+y,1/2+z
1/2+x,1/2-y,1/2+z
loop_
_atom_site_type_symbol
_atom_site_label
_atom_site_fract_x
_atom_site_fract_y
_atom_site_fract_z
Si Si1 0.430571 0.801441 0.537300
Si Si2 0.896423 0.000281 0.264261
Si Si3 0.631409 0.133979 0.904241
Si Si4 0.530407 0.892434 0.510053
Si Si5 0.630679 0.317865 0.234490
Si Si6 0.691229 0.999675 0.595651
O O1 0.420044 0.898318 0.379788
O O2 0.415991 0.830436 0.767244
O O3 0.491463 0.795575 0.518589
O O4 0.388058 0.721789 0.454471
O O5 0.940609 0.914002 0.294418
O O6 0.844750 0.983911 0.395513
O O7 0.883644 0.032585 0.036341
O O8 0.672924 0.097893 0.735653
O O9 0.643157 0.224047 0.071815
O O10 0.579027 0.873563 0.652978
O O11 0.500000 0.000000 0.568045
O O12 0.677519 0.396885 0.228687
O O13 0.750000 0.008156 0.542954
#
# Coordination Sequence:
#
# PCOD9364733 Si02
#       6
#     8   8   8   8   8   8
#     4   9  19  36  56  88 123 158 201 244 304 381
#     4   8  18  39  59  84 119 154 203 260 306 371
#     4  10  21  40  63  85 121 163 201 258 321 379
#     4   9  18  36  57  84 122 160 205 245 303 375
#     4  10  22  38  57  91 129 160 204 263 313 383
#     4  10  22  41  63  87 118 159 214 272 323 384
#
# _framework density 22.023669000000002
#
# number of rings (size 3 to 8) (size 9 to 14) (size 15 to 20)
#    0.000    2.667    0.000    1.000    2.333    4.000 
#    0.000   30.833    0.000    0.000    0.000    0.000 
#    0.000    0.000    0.000    0.000    0.000    0.000 
#
# Total GULP energy -133759.312797 kJ/mol
# GULP energy per Si atom -5573.304700 kJ/mol
# Density = 2.197354 g / cm^3
# Si number density = 22.023669 Si / 1000 Ang^3
#
#
#
# Elastic Constant Matrix: (Units=GPa)
#
#
# Indices 1 2 3 4 5 6 
#
# 1 113.4915 14.3816 18.8516 0.0000 0.0000 0.0000
# 2 14.3816 53.4127 10.0335 0.0000 0.0000 0.0000
# 3 18.8516 10.0335 89.2132 0.0000 0.0000 0.0000
# 4 0.0000 0.0000 0.0000 33.7173 0.0000 0.0000
# 5 0.0000 0.0000 0.0000 0.0000 11.7236 0.0000
# 6 0.0000 0.0000 0.0000 0.0000 0.0000 26.2467
#
#
#
# Elastic Compliance Matrix: (Units=1/GPa)
#
#
# Indices 1 2 3 4 5 6 
#
# 1 0.009378 -0.002199 -0.001734 0.000000 0.000000 0.000000
# 2 -0.002199 0.019642 -0.001744 0.000000 0.000000 0.000000
# 3 -0.001734 -0.001744 0.011772 0.000000 0.000000 0.000000
# 4 0.000000 0.000000 0.000000 0.029658 0.000000 0.000000
# 5 0.000000 0.000000 0.000000 0.000000 0.085298 0.000000
# 6 0.000000 0.000000 0.000000 0.000000 0.000000 0.038100
#
#
# Mechanical properties :
#
#
# Convention : Reuss Voigt Hill
#
# Bulk Modulus (GPa) = 33.97215 38.07231 36.02223
# Shear Modulus (GPa) = 23.25412 28.52757 25.89084
#
# Velocity S-wave (km/s) = 3.25294 3.60295 3.43241
# Velocity P-wave (km/s) = 5.43761 5.88497 5.66571
#
# Compressibility (1/GPa) = 0.02943587
#
# Stress axis : x y z
#
# Youngs Moduli (GPa) = 106.63249 50.91140 84.94901
#
# Poissons Ratio (x) = 0.11197 0.14733
# Poissons Ratio (y) = 0.23451 0.14818
# Poissons Ratio (z) = 0.18494 0.08881
#
# Static dielectric constant tensor:
#      x y z
#    x 1.775970 0.000000 0.000000 
#    y 0.000000 2.012760 0.000000 
#    z 0.000000 0.000000 1.837290 
# 
# From -- ./inp_files/3085.got.cif
#   From: 2010.05.17/outbox.cif.g08.bks.cpg/sg40_2_cif.got.tgz:3085.got - 2010.06.03 18:35:42.
