data_PCOD9364759
_publ_section_title
;
Structure prediction by ZEFSAII (Michael W. Deem and Ramdas Pophale) SiO2 
 PCOD9364759
Probable space group: A M A 2
;
_chemical_formula_sum "Si O2"
_cell_formula_units_Z 64
_cell_length_a 8.771886
_cell_length_b 31.297088
_cell_length_c 12.052534
_cell_angle_alpha 90.000000
_cell_angle_beta 90.000000
_cell_angle_gamma 90.000000
_cell_volume 3308.836252
_symmetry_space_group_name_H-M "A M A 2"
_symmetry_group_IT_number 40
_symmetry_cell_setting 'orthorhombic'
loop_
_space_group_symop_operation_xyz
x,y,z
-x,-y,z
1/2-x,y,z
1/2+x,-y,z
x,1/2+y,1/2+z
-x,1/2-y,1/2+z
1/2-x,1/2+y,1/2+z
1/2+x,1/2-y,1/2+z
loop_
_atom_site_type_symbol
_atom_site_label
_atom_site_fract_x
_atom_site_fract_y
_atom_site_fract_z
Si Si1 0.929070 0.340402 0.714810
Si Si2 0.429277 0.432290 0.723333
Si Si3 0.568007 0.294469 0.482854
Si Si4 0.067454 0.954995 0.970991
Si Si5 0.068466 0.375578 0.088197
Si Si6 0.428915 0.701674 0.952932
Si Si7 0.930710 0.955392 0.454068
Si Si8 0.933362 0.875631 0.834432
O O1 0.750000 0.353935 0.709691
O O2 0.961578 0.313287 0.605129
O O3 0.949536 0.313176 0.825907
O O4 0.033504 0.382002 0.719648
O O5 0.250000 0.439644 0.744544
O O6 0.468896 0.450028 0.601951
O O7 0.525425 0.451101 0.824488
O O8 0.750000 0.287499 0.472748
O O9 0.483924 0.249957 0.466324
O O10 0.523791 0.331280 0.395396
O O11 0.250000 0.954425 0.959127
O O12 0.996481 0.915201 0.905706
O O13 0.000000 0.000000 0.931223
O O14 0.250000 0.378981 0.091632
O O15 0.000276 0.377109 0.211393
O O16 0.001395 0.414780 0.016730
O O17 0.019573 0.331434 0.029761
O O18 0.250000 0.698001 0.980009
O O19 0.250000 0.044882 0.467199
O O20 0.000000 0.000000 0.496006
O O21 0.750000 0.877942 0.831415
#
# Coordination Sequence:
#
# PCOD9364759 Si02
#       8
#     8   8   8   8   8   8   8   8
#     4  10  21  40  65  93 128 170 210 262 321 373
#     4  11  22  38  64  98 132 169 211 260 319 376
#     4  10  23  42  65  95 129 169 213 262 319 376
#     4  11  24  41  64  96 130 169 215 262 317 378
#     4  12  26  45  67  93 129 168 212 264 321 382
#     4  11  24  41  65  97 130 168 214 263 317 378
#     4  12  25  43  67  96 130 167 213 262 317 380
#     4  11  24  44  68  94 127 168 215 265 320 379
#
# _framework density 19.342148000000002
#
# number of rings (size 3 to 8) (size 9 to 14) (size 15 to 20)
#    0.000    1.000    2.500    4.125    1.750    5.000 
#    0.000    2.500    0.000    0.000    0.000    0.000 
#    0.000    0.000    0.000    0.000    0.000    0.000 
#
# Total GULP energy -179049.422715 kJ/mol
# GULP energy per Si atom -5595.294460 kJ/mol
# Density = 1.929812 g / cm^3
# Si number density = 19.342148 Si / 1000 Ang^3
#
#
#
# Elastic Constant Matrix: (Units=GPa)
#
#
# Indices 1 2 3 4 5 6 
#
# 1 97.1126 65.4932 62.7955 0.0000 0.0000 0.0000
# 2 65.4932 152.1788 54.0242 0.0000 0.0000 0.0000
# 3 62.7955 54.0242 115.8346 0.0000 0.0000 0.0000
# 4 0.0000 0.0000 0.0000 42.8195 0.0000 0.0000
# 5 0.0000 0.0000 0.0000 0.0000 62.2540 0.0000
# 6 0.0000 0.0000 0.0000 0.0000 0.0000 33.2519
#
#
#
# Elastic Compliance Matrix: (Units=1/GPa)
#
#
# Indices 1 2 3 4 5 6 
#
# 1 0.018958 -0.005406 -0.007757 0.000000 0.000000 0.000000
# 2 -0.005406 0.009416 -0.001461 0.000000 0.000000 0.000000
# 3 -0.007757 -0.001461 0.013519 0.000000 0.000000 0.000000
# 4 0.000000 0.000000 0.000000 0.023354 0.000000 0.000000
# 5 0.000000 0.000000 0.000000 0.000000 0.016063 0.000000
# 6 0.000000 0.000000 0.000000 0.000000 0.000000 0.030073
#
#
# Mechanical properties :
#
#
# Convention : Reuss Voigt Hill
#
# Bulk Modulus (GPa) = 79.06685 81.08355 80.07520
# Shear Modulus (GPa) = 34.51913 39.85263 37.18588
#
# Velocity S-wave (km/s) = 4.22910 4.54409 4.38942
# Velocity P-wave (km/s) = 8.05071 8.33927 8.19626
#
# Compressibility (1/GPa) = 0.01264753
#
# Stress axis : x y z
#
# Youngs Moduli (GPa) = 52.74708 106.19820 73.96750
#
# Poissons Ratio (x) = 0.57406 0.57373
# Poissons Ratio (y) = 0.28513 0.10809
# Poissons Ratio (z) = 0.40913 0.15519
#
# Static dielectric constant tensor:
#      x y z
#    x 1.648450 0.000000 0.000000 
#    y 0.000000 1.636770 0.000000 
#    z 0.000000 0.000000 1.653480 
# 
# From -- ./inp_files/10556.got.cif
#   From: 2010.05.17/outbox.cif.g08.bks.cpg/sg40_6_cif.got.tgz:10556.got - 2010.06.03 18:35:42.
