data_PCOD9364209
_publ_section_title
;
Structure prediction by ZEFSAII (Michael W. Deem and Ramdas Pophale) SiO2 
 PCOD9364209
Probable space group: A M A 2
;
_chemical_formula_sum "Si O2"
_cell_formula_units_Z 56
_cell_length_a 21.588107
_cell_length_b 23.255582
_cell_length_c 5.158350
_cell_angle_alpha 90.000000
_cell_angle_beta 90.000000
_cell_angle_gamma 90.000000
_cell_volume 2589.718629
_symmetry_space_group_name_H-M "A M A 2"
_symmetry_group_IT_number 40
_symmetry_cell_setting 'orthorhombic'
loop_
_space_group_symop_operation_xyz
x,y,z
-x,-y,z
1/2-x,y,z
1/2+x,-y,z
x,1/2+y,1/2+z
-x,1/2-y,1/2+z
1/2-x,1/2+y,1/2+z
1/2+x,1/2-y,1/2+z
loop_
_atom_site_type_symbol
_atom_site_label
_atom_site_fract_x
_atom_site_fract_y
_atom_site_fract_z
Si Si1 0.674593 0.013639 0.254540
Si Si2 0.887143 0.636650 0.727163
Si Si3 0.076678 0.696390 0.532719
Si Si4 0.458957 0.817296 0.727565
Si Si5 0.678949 0.841884 0.383879
Si Si6 0.323684 0.558365 0.263067
Si Si7 0.815497 0.742275 0.733455
O O1 0.750000 0.023308 0.236436
O O2 0.635019 0.071347 0.223478
O O3 0.661320 0.986053 0.533501
O O4 0.654774 0.967755 0.034250
O O5 0.916018 0.659102 0.458550
O O6 0.824937 0.674906 0.748373
O O7 0.934557 0.653171 0.961889
O O8 0.044246 0.747243 0.702958
O O9 0.126034 0.733030 0.375465
O O10 0.027539 0.669595 0.334969
O O11 0.119933 0.653926 0.697942
O O12 0.750000 0.859399 0.302164
O O13 0.663486 0.878991 0.640837
O O14 0.682726 0.774370 0.457738
O O15 0.250000 0.558990 0.290302
O O16 0.750000 0.760119 0.851973
#
# Coordination Sequence:
#
# PCOD9364209 Si02
#       7
#     8   8   8   8   8   8   8
#     4  10  20  38  62  89 126 168 209 256 315 377
#     4  11  22  40  59  92 123 168 206 268 303 377
#     4  11  22  39  58  89 127 174 206 266 313 391
#     4  11  24  37  62  86 126 164 223 253 312 376
#     4  10  21  37  61  95 132 165 204 260 326 391
#     4   9  20  36  59  91 125 164 207 249 307 385
#     4  10  21  35  57  92 128 161 197 253 330 391
#
# _framework density 21.623971999999998
#
# number of rings (size 3 to 8) (size 9 to 14) (size 15 to 20)
#    0.000    1.714    1.429    3.429    4.000    0.000 
#    0.000    1.429    0.000    0.857    0.000    0.000 
#    0.000    0.000    0.000    0.000    0.000    0.000 
#
# Total GULP energy -156174.158031 kJ/mol
# GULP energy per Si atom -5577.648501 kJ/mol
# Density = 2.157476 g / cm^3
# Si number density = 21.623972 Si / 1000 Ang^3
#
#
#
# Elastic Constant Matrix: (Units=GPa)
#
#
# Indices 1 2 3 4 5 6 
#
# 1 86.6993 17.2004 13.5961 0.0000 0.0000 0.0000
# 2 17.2004 104.3367 23.9522 0.0000 0.0000 0.0000
# 3 13.5961 23.9522 92.1187 0.0000 0.0000 0.0000
# 4 0.0000 0.0000 0.0000 19.3349 0.0000 0.0000
# 5 0.0000 0.0000 0.0000 0.0000 32.3629 0.0000
# 6 0.0000 0.0000 0.0000 0.0000 0.0000 -70.5272
#
#
#
# Elastic Compliance Matrix: (Units=1/GPa)
#
#
# Indices 1 2 3 4 5 6 
#
# 1 0.012079 -0.001682 -0.001345 0.000000 0.000000 0.000000
# 2 -0.001682 0.010427 -0.002463 0.000000 0.000000 0.000000
# 3 -0.001345 -0.002463 0.011695 0.000000 0.000000 0.000000
# 4 0.000000 0.000000 0.000000 0.051720 0.000000 0.000000
# 5 0.000000 0.000000 0.000000 0.000000 0.030900 0.000000
# 6 0.000000 0.000000 0.000000 0.000000 0.000000 -0.014179
#
#
# Mechanical properties :
#
#
# Convention : Reuss Voigt Hill
#
# Bulk Modulus (GPa) = 43.06772 43.62802 43.34787
# Shear Modulus (GPa) = 41.19902 11.46118 26.33010
#
# Velocity S-wave (km/s) = 4.36965 2.30472 3.49325
# Velocity P-wave (km/s) = 6.73931 5.22512 6.02993
#
# Compressibility (1/GPa) = 0.02321925
#
# Stress axis : x y z
#
# Youngs Moduli (GPa) = 82.78919 95.90390 85.51024
#
# Poissons Ratio (x) = 0.16135 0.11504
# Poissons Ratio (y) = 0.13929 0.21060
# Poissons Ratio (z) = 0.11138 0.23620
#
# Static dielectric constant tensor:
#      x y z
#    x 1.794530 0.000000 0.000000 
#    y 0.000000 1.835990 0.000000 
#    z 0.000000 0.000000 1.882880 
# 
# From -- ./inp_files/2402.got.cif
#   From: 2010.05.17/outbox.cif.g08.bks.cpg/sg40_2_cif.got.tgz:2402.got - 2010.06.03 18:35:42.
