data_PCOD9364301
_publ_section_title
;
Structure prediction by ZEFSAII (Michael W. Deem and Ramdas Pophale) SiO2 
 PCOD9364301
Probable space group: A M A 2
;
_chemical_formula_sum "Si O2"
_cell_formula_units_Z 48
_cell_length_a 21.537774
_cell_length_b 8.679997
_cell_length_c 11.344596
_cell_angle_alpha 90.000000
_cell_angle_beta 90.000000
_cell_angle_gamma 90.000000
_cell_volume 2120.847420
_symmetry_space_group_name_H-M "A M A 2"
_symmetry_group_IT_number 40
_symmetry_cell_setting 'orthorhombic'
loop_
_space_group_symop_operation_xyz
x,y,z
-x,-y,z
1/2-x,y,z
1/2+x,-y,z
x,1/2+y,1/2+z
-x,1/2-y,1/2+z
1/2-x,1/2+y,1/2+z
1/2+x,1/2-y,1/2+z
loop_
_atom_site_type_symbol
_atom_site_label
_atom_site_fract_x
_atom_site_fract_y
_atom_site_fract_z
Si Si1 0.106302 0.811939 0.327460
Si Si2 0.869046 0.431582 0.652276
Si Si3 0.682275 0.605568 0.171350
Si Si4 0.034351 0.738690 0.813163
Si Si5 0.624981 0.521298 0.389020
Si Si6 0.568266 0.979392 0.536750
O O1 0.138742 0.652378 0.350446
O O2 0.087086 0.878233 0.453866
O O3 0.037258 0.777074 0.278317
O O4 0.142882 0.936899 0.250571
O O5 0.824888 0.284332 0.633152
O O6 0.929298 0.345400 0.707096
O O7 0.876642 0.519368 0.529295
O O8 0.750000 0.547519 0.137577
O O9 0.674269 0.617332 0.313416
O O10 0.627570 0.491059 0.123240
O O11 0.060805 0.907195 0.840058
O O12 0.055035 0.650234 0.935419
O O13 0.500000 0.000000 0.593080
#
# Coordination Sequence:
#
# PCOD9364301 Si02
#       6
#     8   8   8   8   8   8
#     4  10  20  39  66  98 136 175 220 273 340 411
#     4  10  22  42  64  89 131 176 223 274 333 401
#     4  11  25  45  66  95 135 181 234 291 342 408
#     4   9  21  37  63 103 140 172 216 275 338 412
#     4  11  23  40  64  95 134 177 224 274 337 407
#     4   9  19  41  66  98 139 175 218 278 344 412
#
# _framework density 22.632462
#
# number of rings (size 3 to 8) (size 9 to 14) (size 15 to 20)
#    0.000    2.000    1.667    2.000    2.333    6.000 
#    0.000    8.333    0.000    0.000    0.000    0.000 
#    0.000    0.000    0.000    0.000    0.000    0.000 
#
# Total GULP energy -133628.132701 kJ/mol
# GULP energy per Si atom -5567.838863 kJ/mol
# Density = 2.258095 g / cm^3
# Si number density = 22.632462 Si / 1000 Ang^3
#
#
#
# Elastic Constant Matrix: (Units=GPa)
#
#
# Indices 1 2 3 4 5 6 
#
# 1 96.5873 0.1192 38.2339 0.0000 0.0000 0.0000
# 2 0.1192 67.6417 12.2943 0.0000 0.0000 0.0000
# 3 38.2339 12.2943 106.2244 0.0000 0.0000 0.0000
# 4 0.0000 0.0000 0.0000 34.2496 0.0000 0.0000
# 5 0.0000 0.0000 0.0000 0.0000 -2.3766 0.0000
# 6 0.0000 0.0000 0.0000 0.0000 0.0000 9.3688
#
#
#
# Elastic Compliance Matrix: (Units=1/GPa)
#
#
# Indices 1 2 3 4 5 6 
#
# 1 0.012115 0.000788 -0.004452 0.000000 0.000000 0.000000
# 2 0.000788 0.015153 -0.002037 0.000000 0.000000 0.000000
# 3 -0.004452 -0.002037 0.011252 0.000000 0.000000 0.000000
# 4 0.000000 0.000000 0.000000 0.029197 0.000000 0.000000
# 5 0.000000 0.000000 0.000000 0.000000 -0.420775 0.000000
# 6 0.000000 0.000000 0.000000 0.000000 0.000000 0.106737
#
#
# Mechanical properties :
#
#
# Convention : Reuss Voigt Hill
#
# Bulk Modulus (GPa) = 36.87722 41.30536 39.09129
# Shear Modulus (GPa) = -22.13568 22.90210 0.38321
#
# Velocity S-wave (km/s) = -3.13077 3.18451 0.41193
# Velocity P-wave (km/s) = 1.80564 5.64018 4.18760
#
# Compressibility (1/GPa) = 0.02711701
#
# Stress axis : x y z
#
# Youngs Moduli (GPa) = 82.54560 65.99496 88.87216
#
# Poissons Ratio (x) = -0.05199 0.39562
# Poissons Ratio (y) = -0.06503 0.18106
# Poissons Ratio (z) = 0.36746 0.13445
#
# Static dielectric constant tensor:
#      x y z
#    x 1.891890 0.000000 0.000000 
#    y 0.000000 1.893740 0.000000 
#    z 0.000000 0.000000 1.909320 
# 
# From -- ./inp_files/13931.got.cif
#   From: 2010.05.17/outbox.cif.g08.bks.cpg/sg40_7_cif.got.tgz:13931.got - 2010.06.03 18:35:42.
