data_PCOD9364569
_publ_section_title
;
Structure prediction by ZEFSAII (Michael W. Deem and Ramdas Pophale) SiO2 
 PCOD9364569
Probable space group: A M A 2
;
_chemical_formula_sum "Si O2"
_cell_formula_units_Z 40
_cell_length_a 14.974457
_cell_length_b 13.440512
_cell_length_c 10.313141
_cell_angle_alpha 90.000000
_cell_angle_beta 90.000000
_cell_angle_gamma 90.000000
_cell_volume 2075.667816
_symmetry_space_group_name_H-M "A M A 2"
_symmetry_group_IT_number 40
_symmetry_cell_setting 'orthorhombic'
loop_
_space_group_symop_operation_xyz
x,y,z
-x,-y,z
1/2-x,y,z
1/2+x,-y,z
x,1/2+y,1/2+z
-x,1/2-y,1/2+z
1/2-x,1/2+y,1/2+z
1/2+x,1/2-y,1/2+z
loop_
_atom_site_type_symbol
_atom_site_label
_atom_site_fract_x
_atom_site_fract_y
_atom_site_fract_z
Si Si1 0.146987 0.167720 0.557750
Si Si2 0.146983 0.097347 0.030044
Si Si3 0.649410 0.121808 0.915481
Si Si4 0.472062 0.185835 0.805434
Si Si5 0.054925 0.100980 0.302785
O O1 0.250000 0.145004 0.587595
O O2 0.141818 0.283159 0.510711
O O3 0.084746 0.153599 0.681651
O O4 0.111658 0.106371 0.434726
O O5 0.250000 0.126514 0.010407
O O6 0.117992 0.111222 0.177829
O O7 0.081646 0.156470 0.934588
O O8 0.138382 0.981040 0.991856
O O9 0.750000 0.124004 0.859571
O O10 0.569322 0.134469 0.814050
O O11 0.490070 0.303525 0.802611
O O12 0.000000 0.000000 0.293232
#
# Coordination Sequence:
#
# PCOD9364569 Si02
#       5
#     8   8   8   8   8
#     4  10  21  38  58  85 119 153 188 238 295 342
#     4  11  22  39  63  88 112 149 197 238 279 342
#     4   9  20  38  62  86 112 149 196 241 284 337
#     4  11  21  37  59  86 117 152 190 236 287 342
#     4  11  22  38  59  85 116 155 194 237 286 339
#
# _framework density 19.270907000000001
#
# number of rings (size 3 to 8) (size 9 to 14) (size 15 to 20)
#    0.000    1.600    0.000    6.600    0.000    2.400 
#    0.000    3.000    0.000    1.200    0.000    0.000 
#    0.000    0.000    0.000    0.000    0.000    0.000 
#
# Total GULP energy -111787.264136 kJ/mol
# GULP energy per Si atom -5589.363207 kJ/mol
# Density = 1.922705 g / cm^3
# Si number density = 19.270907 Si / 1000 Ang^3
#
#
#
# Elastic Constant Matrix: (Units=GPa)
#
#
# Indices 1 2 3 4 5 6 
#
# 1 157.3220 27.2693 86.1453 0.0000 0.0000 0.0000
# 2 27.2693 41.1321 5.5117 0.0000 0.0000 0.0000
# 3 86.1453 5.5117 118.3826 0.0000 0.0000 0.0000
# 4 0.0000 0.0000 0.0000 7.9319 0.0000 0.0000
# 5 0.0000 0.0000 0.0000 0.0000 37.2814 0.0000
# 6 0.0000 0.0000 0.0000 0.0000 0.0000 22.0504
#
#
#
# Elastic Compliance Matrix: (Units=1/GPa)
#
#
# Indices 1 2 3 4 5 6 
#
# 1 0.012285 -0.006990 -0.008614 0.000000 0.000000 0.000000
# 2 -0.006990 0.028442 0.003762 0.000000 0.000000 0.000000
# 3 -0.008614 0.003762 0.014540 0.000000 0.000000 0.000000
# 4 0.000000 0.000000 0.000000 0.126073 0.000000 0.000000
# 5 0.000000 0.000000 0.000000 0.000000 0.026823 0.000000
# 6 0.000000 0.000000 0.000000 0.000000 0.000000 0.045351
#
#
# Mechanical properties :
#
#
# Convention : Reuss Voigt Hill
#
# Bulk Modulus (GPa) = 31.66200 61.63215 46.64707
# Shear Modulus (GPa) = 17.37769 26.64677 22.01223
#
# Velocity S-wave (km/s) = 3.00619 3.72256 3.38339
# Velocity P-wave (km/s) = 5.33996 7.10831 6.28662
#
# Compressibility (1/GPa) = 0.03158361
#
# Stress axis : x y z
#
# Youngs Moduli (GPa) = 81.40109 35.15923 68.77423
#
# Poissons Ratio (x) = 0.24577 0.59242
# Poissons Ratio (y) = 0.56901 -0.25876
# Poissons Ratio (z) = 0.70119 -0.13228
#
# Static dielectric constant tensor:
#      x y z
#    x 1.677150 0.000000 0.000000 
#    y 0.000000 1.664050 0.000000 
#    z 0.000000 0.000000 1.639000 
# 
# From -- ./inp_files/6129.got.cif
#   From: 2010.05.17/outbox.cif.g08.bks.cpg/sg40_4_cif.got.tgz:6129.got - 2010.06.03 18:35:42.
