data_PCOD9364155
_publ_section_title
;
Structure prediction by ZEFSAII (Michael W. Deem and Ramdas Pophale) SiO2 
 PCOD9364155
Probable space group: A M A 2
;
_chemical_formula_sum "Si O2"
_cell_formula_units_Z 60
_cell_length_a 9.443855
_cell_length_b 19.670038
_cell_length_c 15.865777
_cell_angle_alpha 90.000000
_cell_angle_beta 90.000000
_cell_angle_gamma 90.000000
_cell_volume 2947.242391
_symmetry_space_group_name_H-M "A M A 2"
_symmetry_group_IT_number 40
_symmetry_cell_setting 'orthorhombic'
loop_
_space_group_symop_operation_xyz
x,y,z
-x,-y,z
1/2-x,y,z
1/2+x,-y,z
x,1/2+y,1/2+z
-x,1/2-y,1/2+z
1/2-x,1/2+y,1/2+z
1/2+x,1/2-y,1/2+z
loop_
_atom_site_type_symbol
_atom_site_label
_atom_site_fract_x
_atom_site_fract_y
_atom_site_fract_z
Si Si1 0.082128 0.871532 0.591330
Si Si2 0.085443 0.064965 0.435626
Si Si3 0.250000 0.523308 0.567039
Si Si4 0.077457 0.787323 0.849664
Si Si5 0.418007 0.430562 0.278618
Si Si6 0.915144 0.346377 0.769453
Si Si7 0.474711 0.402954 0.603154
Si Si8 0.586964 0.245655 0.039355
O O1 0.250000 0.869237 0.573606
O O2 0.063901 0.908683 0.680968
O O3 0.995834 0.910137 0.518597
O O4 0.014801 0.796404 0.589411
O O5 0.250000 0.049495 0.454061
O O6 0.081833 0.120313 0.361733
O O7 0.000000 0.000000 0.403654
O O8 0.369831 0.463667 0.583024
O O9 0.375846 0.580391 0.560444
O O10 0.250000 0.787980 0.845973
O O11 0.032564 0.864358 0.830995
O O12 0.031331 0.730742 0.781778
O O13 0.039208 0.761285 0.942211
O O14 0.500000 0.500000 0.297436
O O15 0.250000 0.440655 0.294463
O O16 0.750000 0.344652 0.742304
O O17 0.996620 0.392599 0.702916
O O18 0.417273 0.330430 0.573638
O O19 0.750000 0.271432 0.040742
#
# Coordination Sequence:
#
# PCOD9364155 Si02
#       8
#     8   8   4   8   8   8   8   8
#     4  11  23  40  64  91 123 161 210 261 312 373
#     4  11  23  38  60  91 126 166 206 253 312 373
#     4  10  24  40  58  86 128 156 210 256 306 370
#     4   9  19  40  63  90 120 158 205 253 307 372
#     4  10  22  41  65  90 121 161 207 256 310 368
#     4  10  20  37  64  89 121 164 206 251 310 374
#     4  11  22  40  60  90 119 168 205 253 310 370
#     4  11  22  41  64  91 124 165 209 257 313 373
#
# _framework density 20.358013
#
# number of rings (size 3 to 8) (size 9 to 14) (size 15 to 20)
#    0.000    1.600    2.667    2.000    2.800    3.200 
#    3.600    0.667    0.000    0.000    0.000    0.000 
#    0.000    0.000    0.000    0.000    0.000    0.000 
#
# Total GULP energy -167009.989259 kJ/mol
# GULP energy per Si atom -5566.999642 kJ/mol
# Density = 2.031168 g / cm^3
# Si number density = 20.358013 Si / 1000 Ang^3
#
#
#
# Elastic Constant Matrix: (Units=GPa)
#
#
# Indices 1 2 3 4 5 6 
#
# 1 102.8197 25.1315 3.8737 0.0000 0.0000 0.0000
# 2 25.1315 104.0069 -11.8662 0.0000 0.0000 0.0000
# 3 3.8737 -11.8662 12.1708 0.0000 0.0000 0.0000
# 4 0.0000 0.0000 0.0000 14.9171 0.0000 0.0000
# 5 0.0000 0.0000 0.0000 0.0000 -12.4982 0.0000
# 6 0.0000 0.0000 0.0000 0.0000 0.0000 37.9848
#
#
#
# Elastic Compliance Matrix: (Units=1/GPa)
#
#
# Indices 1 2 3 4 5 6 
#
# 1 0.010805 -0.003379 -0.006734 0.000000 0.000000 0.000000
# 2 -0.003379 0.011875 0.012653 0.000000 0.000000 0.000000
# 3 -0.006734 0.012653 0.096644 0.000000 0.000000 0.000000
# 4 0.000000 0.000000 0.000000 0.067037 0.000000 0.000000
# 5 0.000000 0.000000 0.000000 0.000000 -0.080012 0.000000
# 6 0.000000 0.000000 0.000000 0.000000 0.000000 0.026326
#
#
# Mechanical properties :
#
#
# Convention : Reuss Voigt Hill
#
# Bulk Modulus (GPa) = 8.03826 28.14170 18.08998
# Shear Modulus (GPa) = 29.57460 21.53797 25.55628
#
# Velocity S-wave (km/s) = 3.81560 3.25616 3.54693
# Velocity P-wave (km/s) = 4.83412 5.29057 5.06749
#
# Compressibility (1/GPa) = 0.12440504
#
# Stress axis : x y z
#
# Youngs Moduli (GPa) = 92.54617 84.21118 10.34724
#
# Poissons Ratio (x) = 0.28457 0.06968
# Poissons Ratio (y) = 0.31273 -0.13093
# Poissons Ratio (z) = 0.62319 -1.06555
#
# Static dielectric constant tensor:
#      x y z
#    x 1.701630 0.000000 0.000000 
#    y 0.000000 1.749560 0.000000 
#    z 0.000000 0.000000 1.744650 
# 
# From -- ./inp_files/19413.got.cif
#   From: 2010.05.17/outbox.cif.g08.bks.cpg/sg40_10_cif.got.tgz:19413.got - 2010.06.03 18:35:42.
