data_PCOD9364564
_publ_section_title
;
Structure prediction by ZEFSAII (Michael W. Deem and Ramdas Pophale) SiO2 
 PCOD9364564
Probable space group: A M A 2
;
_chemical_formula_sum "Si O2"
_cell_formula_units_Z 56
_cell_length_a 17.955368
_cell_length_b 9.411339
_cell_length_c 12.873929
_cell_angle_alpha 90.000000
_cell_angle_beta 90.000000
_cell_angle_gamma 90.000000
_cell_volume 2175.488728
_symmetry_space_group_name_H-M "A M A 2"
_symmetry_group_IT_number 40
_symmetry_cell_setting 'orthorhombic'
loop_
_space_group_symop_operation_xyz
x,y,z
-x,-y,z
1/2-x,y,z
1/2+x,-y,z
x,1/2+y,1/2+z
-x,1/2-y,1/2+z
1/2-x,1/2+y,1/2+z
1/2+x,1/2-y,1/2+z
loop_
_atom_site_type_symbol
_atom_site_label
_atom_site_fract_x
_atom_site_fract_y
_atom_site_fract_z
Si Si1 0.935681 0.595136 0.556060
Si Si2 0.159343 0.972182 0.607944
Si Si3 0.528336 0.657868 0.774240
Si Si4 0.836699 0.024901 0.366350
Si Si5 0.664117 0.906773 0.816050
Si Si6 0.886429 0.720161 0.358342
Si Si7 0.661209 0.342171 0.558279
O O1 0.976104 0.666837 0.651624
O O2 0.895097 0.703019 0.481986
O O3 0.877075 0.482655 0.601920
O O4 0.000000 0.500000 0.501705
O O5 0.250000 0.980232 0.611559
O O6 0.130735 0.082895 0.696368
O O7 0.138543 0.803680 0.615634
O O8 0.138786 0.991416 0.486672
O O9 0.500000 0.500000 0.806862
O O10 0.614215 0.645220 0.808944
O O11 0.472597 0.771092 0.821778
O O12 0.750000 0.060404 0.364022
O O13 0.848319 0.865768 0.323892
O O14 0.750000 0.864043 0.805494
O O15 0.657801 0.079238 0.830347
O O16 0.641866 0.854090 0.933828
O O17 0.750000 0.351173 0.564472
#
# Coordination Sequence:
#
# PCOD9364564 Si02
#       7
#     8   8   8   8   8   8   8
#     4  10  22  38  58  86 114 149 190 242 293 348
#     4   9  19  34  57  84 112 153 190 238 302 353
#     4   9  21  37  55  82 114 147 189 233 284 350
#     4  10  21  38  57  82 114 151 193 235 291 350
#     4   9  18  34  57  83 112 149 196 242 291 350
#     4  10  21  38  57  83 115 151 188 242 288 345
#     4   9  19  35  57  85 113 145 196 246 288 350
#
# _framework density 25.741343000000001
#
# number of rings (size 3 to 8) (size 9 to 14) (size 15 to 20)
#    0.000    2.571    0.000    0.429    8.000    1.143 
#    2.571    0.000    0.000    0.857    0.000    0.000 
#    0.000    0.000    0.000    0.000    0.000    0.000 
#
# Total GULP energy -156195.773526 kJ/mol
# GULP energy per Si atom -5578.420483 kJ/mol
# Density = 2.568276 g / cm^3
# Si number density = 25.741343 Si / 1000 Ang^3
#
#
#
# Elastic Constant Matrix: (Units=GPa)
#
#
# Indices 1 2 3 4 5 6 
#
# 1 70.0804 -1.5874 -6.6052 0.0000 0.0000 0.0000
# 2 -1.5874 42.8931 4.3335 0.0000 0.0000 0.0000
# 3 -6.6052 4.3335 110.0289 0.0000 0.0000 0.0000
# 4 0.0000 0.0000 0.0000 51.1222 0.0000 0.0000
# 5 0.0000 0.0000 0.0000 0.0000 27.3430 0.0000
# 6 0.0000 0.0000 0.0000 0.0000 0.0000 23.4734
#
#
#
# Elastic Compliance Matrix: (Units=1/GPa)
#
#
# Indices 1 2 3 4 5 6 
#
# 1 0.014359 0.000446 0.000844 0.000000 0.000000 0.000000
# 2 0.000446 0.023421 -0.000896 0.000000 0.000000 0.000000
# 3 0.000844 -0.000896 0.009174 0.000000 0.000000 0.000000
# 4 0.000000 0.000000 0.000000 0.019561 0.000000 0.000000
# 5 0.000000 0.000000 0.000000 0.000000 0.036572 0.000000
# 6 0.000000 0.000000 0.000000 0.000000 0.000000 0.042601
#
#
# Mechanical properties :
#
#
# Convention : Reuss Voigt Hill
#
# Bulk Modulus (GPa) = 20.94504 23.92047 22.43276
# Shear Modulus (GPa) = 31.09180 35.51181 33.30181
#
# Velocity S-wave (km/s) = 3.47919 3.71828 3.60072
# Velocity P-wave (km/s) = 4.92890 5.26753 5.10103
#
# Compressibility (1/GPa) = 0.04774400
#
# Stress axis : x y z
#
# Youngs Moduli (GPa) = 69.64267 42.69711 108.99788
#
# Poissons Ratio (x) = -0.01905 -0.09204
# Poissons Ratio (y) = -0.03107 0.09762
# Poissons Ratio (z) = -0.05881 0.03824
#
# Static dielectric constant tensor:
#      x y z
#    x 2.046350 0.000000 0.000000 
#    y 0.000000 2.154980 0.000000 
#    z 0.000000 0.000000 2.134650 
# 
# From -- ./inp_files/13584.got.cif
#   From: 2010.05.17/outbox.cif.g08.bks.cpg/sg40_7_cif.got.tgz:13584.got - 2010.06.03 18:35:42.
