data_PCOD9364851
_publ_section_title
;
Structure prediction by ZEFSAII (Michael W. Deem and Ramdas Pophale) SiO2 
 PCOD9364851
Probable space group: A M A 2
;
_chemical_formula_sum "Si O2"
_cell_formula_units_Z 64
_cell_length_a 28.326003
_cell_length_b 16.563227
_cell_length_c 5.503362
_cell_angle_alpha 90.000000
_cell_angle_beta 90.000000
_cell_angle_gamma 90.000000
_cell_volume 2582.012447
_symmetry_space_group_name_H-M "A M A 2"
_symmetry_group_IT_number 40
_symmetry_cell_setting 'orthorhombic'
loop_
_space_group_symop_operation_xyz
x,y,z
-x,-y,z
1/2-x,y,z
1/2+x,-y,z
x,1/2+y,1/2+z
-x,1/2-y,1/2+z
1/2-x,1/2+y,1/2+z
1/2+x,1/2-y,1/2+z
loop_
_atom_site_type_symbol
_atom_site_label
_atom_site_fract_x
_atom_site_fract_y
_atom_site_fract_z
Si Si1 0.830586 0.883451 0.647240
Si Si2 0.128223 0.221931 0.277422
Si Si3 0.002453 0.800420 0.635523
Si Si4 0.948548 0.010630 0.292756
Si Si5 0.649279 0.047904 0.547242
Si Si6 0.914998 0.130772 0.913317
Si Si7 0.923839 0.873951 0.919531
Si Si8 0.695012 0.210495 0.390980
O O1 0.854214 0.858736 0.395132
O O2 0.871850 0.898889 0.839727
O O3 0.808931 0.795499 0.731280
O O4 0.813205 0.975148 0.595810
O O5 0.106335 0.281797 0.475779
O O6 0.087848 0.204923 0.080087
O O7 0.172836 0.260215 0.144980
O O8 0.956154 0.854374 0.690408
O O9 0.999364 0.760727 0.370346
O O10 0.047832 0.855721 0.693707
O O11 0.899696 0.011786 0.439377
O O12 0.943109 0.091115 0.129869
O O13 0.000000 0.000000 0.412563
O O14 0.946630 0.939583 0.092160
O O15 0.629438 0.083481 0.802203
O O16 0.667889 0.122567 0.377829
O O17 0.750000 0.191528 0.396344
#
# Coordination Sequence:
#
# PCOD9364851 Si02
#       8
#     8   8   8   8   8   8   8   8
#     4  11  22  42  73  97 136 181 229 291 373 450
#     4  10  21  43  67  92 128 177 227 290 366 433
#     4  12  26  40  63  97 142 196 261 314 364 433
#     4  12  24  38  60  98 143 192 247 296 346 434
#     4  11  25  43  72  99 145 193 241 303 383 451
#     4  11  23  40  61  92 134 189 243 297 357 425
#     4  11  22  38  60  95 135 184 236 291 345 424
#     4  10  25  47  71 105 135 169 236 308 383 479
#
# _framework density 24.786868999999999
#
# number of rings (size 3 to 8) (size 9 to 14) (size 15 to 20)
#    0.000    1.000    5.000    1.500    1.750    2.500 
#    0.000    0.000    0.000    0.000    0.000    0.000 
#    0.000    0.000    0.000    0.000    0.000    0.000 
#
# Total GULP energy -178464.281988 kJ/mol
# GULP energy per Si atom -5577.008812 kJ/mol
# Density = 2.473045 g / cm^3
# Si number density = 24.786869 Si / 1000 Ang^3
#
#
#
# Elastic Constant Matrix: (Units=GPa)
#
#
# Indices 1 2 3 4 5 6 
#
# 1 94.8439 46.7905 13.7489 0.0000 0.0000 0.0000
# 2 46.7905 143.0556 29.8948 0.0000 0.0000 0.0000
# 3 13.7489 29.8948 71.5435 0.0000 0.0000 0.0000
# 4 0.0000 0.0000 0.0000 54.1130 0.0000 0.0000
# 5 0.0000 0.0000 0.0000 0.0000 3.8612 0.0000
# 6 0.0000 0.0000 0.0000 0.0000 0.0000 17.6281
#
#
#
# Elastic Compliance Matrix: (Units=1/GPa)
#
#
# Indices 1 2 3 4 5 6 
#
# 1 0.012611 -0.003964 -0.000767 0.000000 0.000000 0.000000
# 2 -0.003964 0.008905 -0.002959 0.000000 0.000000 0.000000
# 3 -0.000767 -0.002959 0.015361 0.000000 0.000000 0.000000
# 4 0.000000 0.000000 0.000000 0.018480 0.000000 0.000000
# 5 0.000000 0.000000 0.000000 0.000000 0.258985 0.000000
# 6 0.000000 0.000000 0.000000 0.000000 0.000000 0.056728
#
#
# Mechanical properties :
#
#
# Convention : Reuss Voigt Hill
#
# Bulk Modulus (GPa) = 46.51978 54.47905 50.49942
# Shear Modulus (GPa) = 12.70272 29.72106 21.21189
#
# Velocity S-wave (km/s) = 2.26625 3.46651 2.92853
# Velocity P-wave (km/s) = 5.06523 6.16838 5.64382
#
# Compressibility (1/GPa) = 0.02149623
#
# Stress axis : x y z
#
# Youngs Moduli (GPa) = 79.29823 112.29174 65.09807
#
# Poissons Ratio (x) = 0.44517 0.04992
# Poissons Ratio (y) = 0.31437 0.19264
# Poissons Ratio (z) = 0.06081 0.33230
#
# Static dielectric constant tensor:
#      x y z
#    x 1.950150 0.000000 0.000000 
#    y 0.000000 2.147420 0.000000 
#    z 0.000000 0.000000 2.003960 
# 
# From -- ./inp_files/3483.got.cif
#   From: 2010.05.17/outbox.cif.g08.bks.cpg/sg40_2_cif.got.tgz:3483.got - 2010.06.03 18:35:42.
