data_PCOD9364293
_publ_section_title
;
Structure prediction by ZEFSAII (Michael W. Deem and Ramdas Pophale) SiO2 
 PCOD9364293
Probable space group: A M A 2
;
_chemical_formula_sum "Si O2"
_cell_formula_units_Z 52
_cell_length_a 14.852509
_cell_length_b 11.674185
_cell_length_c 14.085651
_cell_angle_alpha 90.000000
_cell_angle_beta 90.000000
_cell_angle_gamma 90.000000
_cell_volume 2442.324236
_symmetry_space_group_name_H-M "A M A 2"
_symmetry_group_IT_number 40
_symmetry_cell_setting 'orthorhombic'
loop_
_space_group_symop_operation_xyz
x,y,z
-x,-y,z
1/2-x,y,z
1/2+x,-y,z
x,1/2+y,1/2+z
-x,1/2-y,1/2+z
1/2-x,1/2+y,1/2+z
1/2+x,1/2-y,1/2+z
loop_
_atom_site_type_symbol
_atom_site_label
_atom_site_fract_x
_atom_site_fract_y
_atom_site_fract_z
Si Si1 0.107601 0.624853 0.343670
Si Si2 0.398980 0.520664 0.979356
Si Si3 0.092256 0.863205 0.886741
Si Si4 0.149863 0.764205 0.532727
Si Si5 0.149807 0.693236 0.141816
Si Si6 0.016486 0.868007 0.101012
Si Si7 0.750000 0.326383 0.881957
O O1 0.121327 0.494510 0.375871
O O2 0.140165 0.706847 0.428271
O O3 0.154938 0.636930 0.243678
O O4 0.000715 0.649153 0.328203
O O5 0.500000 0.500000 0.942324
O O6 0.365771 0.399094 0.019818
O O7 0.329406 0.576704 0.906332
O O8 0.400311 0.611041 0.067213
O O9 0.169921 0.772416 0.868285
O O10 0.056905 0.855626 0.994836
O O11 0.250000 0.742743 0.569709
O O12 0.075490 0.703920 0.598558
O O13 0.250000 0.713817 0.100176
O O14 0.094294 0.808300 0.160375
O O15 0.000000 0.000000 0.122513
#
# Coordination Sequence:
#
# PCOD9364293 Si02
#       7
#     8   8   8   8   8   8   4
#     4  10  23  40  63  98 130 166 211 279 339 390
#     4  12  22  39  65  97 131 173 220 274 325 403
#     4  10  20  39  65  95 125 167 219 272 320 384
#     4  11  21  37  61  94 124 166 214 265 321 388
#     4  12  24  41  66  98 130 172 214 274 342 400
#     4  11  21  40  64  91 125 170 221 267 319 388
#     4  12  22  40  66 104 128 176 236 274 328 402
#
# _framework density 21.291195999999999
#
# number of rings (size 3 to 8) (size 9 to 14) (size 15 to 20)
#    0.000    0.923    7.692    1.385    4.308    0.615 
#    0.000    2.308    1.692    0.000    0.000    0.000 
#    0.000    0.000    0.000    0.000    0.000    0.000 
#
# Total GULP energy -144738.844055 kJ/mol
# GULP energy per Si atom -5566.878617 kJ/mol
# Density = 2.124274 g / cm^3
# Si number density = 21.291196 Si / 1000 Ang^3
#
#
#
# Elastic Constant Matrix: (Units=GPa)
#
#
# Indices 1 2 3 4 5 6 
#
# 1 171.9742 72.4937 -2.6267 0.0000 0.0000 0.0000
# 2 72.4937 156.9206 -2.5454 0.0000 0.0000 0.0000
# 3 -2.6267 -2.5454 6.6334 0.0000 0.0000 0.0000
# 4 0.0000 0.0000 0.0000 3.8360 0.0000 0.0000
# 5 0.0000 0.0000 0.0000 0.0000 8.8077 0.0000
# 6 0.0000 0.0000 0.0000 0.0000 0.0000 17.8062
#
#
#
# Elastic Compliance Matrix: (Units=1/GPa)
#
#
# Indices 1 2 3 4 5 6 
#
# 1 0.007238 -0.003318 0.001593 0.000000 0.000000 0.000000
# 2 -0.003318 0.007933 0.001730 0.000000 0.000000 0.000000
# 3 0.001593 0.001730 0.152048 0.000000 0.000000 0.000000
# 4 0.000000 0.000000 0.000000 0.260689 0.000000 0.000000
# 5 0.000000 0.000000 0.000000 0.000000 0.113537 0.000000
# 6 0.000000 0.000000 0.000000 0.000000 0.000000 0.056160
#
#
# Mechanical properties :
#
#
# Convention : Reuss Voigt Hill
#
# Bulk Modulus (GPa) = 5.97980 52.24126 29.11053
# Shear Modulus (GPa) = 7.65301 23.97041 15.81171
#
# Velocity S-wave (km/s) = 1.89796 3.35899 2.72810
# Velocity P-wave (km/s) = 2.76001 6.29552 4.86062
#
# Compressibility (1/GPa) = 0.16722979
#
# Stress axis : x y z
#
# Youngs Moduli (GPa) = 138.16449 126.04803 6.57689
#
# Poissons Ratio (x) = 0.41821 -0.01048
# Poissons Ratio (y) = 0.45841 -0.01138
# Poissons Ratio (z) = -0.22008 -0.21812
#
# Static dielectric constant tensor:
#      x y z
#    x 1.822990 0.000000 0.000000 
#    y 0.000000 1.752480 0.000000 
#    z 0.000000 0.000000 1.836500 
# 
# From -- ./inp_files/20687.got.cif
#   From: 2010.05.17/outbox.cif.g08.bks.cpg/sg40_11_cif.got.tgz:20687.got - 2010.06.03 18:35:42.
