data_PCOD9364930
_publ_section_title
;
Structure prediction by ZEFSAII (Michael W. Deem and Ramdas Pophale) SiO2 
 PCOD9364930
Probable space group: A M A 2
;
_chemical_formula_sum "Si O2"
_cell_formula_units_Z 60
_cell_length_a 17.163623
_cell_length_b 23.947624
_cell_length_c 6.651638
_cell_angle_alpha 90.000000
_cell_angle_beta 90.000000
_cell_angle_gamma 90.000000
_cell_volume 2734.009398
_symmetry_space_group_name_H-M "A M A 2"
_symmetry_group_IT_number 40
_symmetry_cell_setting 'orthorhombic'
loop_
_space_group_symop_operation_xyz
x,y,z
-x,-y,z
1/2-x,y,z
1/2+x,-y,z
x,1/2+y,1/2+z
-x,1/2-y,1/2+z
1/2-x,1/2+y,1/2+z
1/2+x,1/2-y,1/2+z
loop_
_atom_site_type_symbol
_atom_site_label
_atom_site_fract_x
_atom_site_fract_y
_atom_site_fract_z
Si Si1 0.750000 0.931620 0.765671
Si Si2 0.896824 0.460568 0.530843
Si Si3 0.044916 0.683379 0.772398
Si Si4 0.335174 0.844145 0.722833
Si Si5 0.099822 0.275835 0.569838
Si Si6 0.967188 0.567047 0.300948
Si Si7 0.901489 0.930573 0.471132
Si Si8 0.662412 0.766424 0.964002
O O1 0.820787 0.930886 0.593930
O O2 0.818095 0.936722 0.941316
O O3 0.917816 0.517496 0.408138
O O4 0.895608 0.468096 0.770124
O O5 0.968934 0.419576 0.473380
O O6 0.077501 0.630912 0.890572
O O7 0.102852 0.697610 0.590683
O O8 0.957720 0.683100 0.688538
O O9 0.049408 0.736734 0.922658
O O10 0.250000 0.871689 0.706053
O O11 0.406671 0.886502 0.729644
O O12 0.341347 0.796725 0.552293
O O13 0.341597 0.809950 0.930991
O O14 0.142198 0.236971 0.730839
O O15 0.025224 0.555112 0.114320
O O16 0.750000 0.787582 0.992369
#
# Coordination Sequence:
#
# PCOD9364930 Si02
#       8
#     4   8   8   8   8   8   8   8
#     4  10  24  44  66  96 136 172 228 286 340 406
#     4  10  23  44  68  97 135 178 219 287 347 405
#     4  11  23  37  66  94 130 182 222 269 326 396
#     4  10  22  40  66  97 132 169 221 275 329 398
#     4  11  21  39  61  93 133 177 219 272 324 389
#     4  10  23  41  71  97 131 174 228 281 341 412
#     4  11  24  44  68 101 137 178 230 284 339 408
#     4  10  22  39  59  91 134 172 217 272 329 391
#
# _framework density 21.945789999999999
#
# number of rings (size 3 to 8) (size 9 to 14) (size 15 to 20)
#    0.000    1.600    1.333    2.400    3.733    6.933 
#    2.400    0.000    0.000    0.000    0.000    0.000 
#    0.000    0.000    0.000    0.000    0.000    0.000 
#
# Total GULP energy -167064.664410 kJ/mol
# GULP energy per Si atom -5568.822147 kJ/mol
# Density = 2.189584 g / cm^3
# Si number density = 21.945790 Si / 1000 Ang^3
#
#
#
# Elastic Constant Matrix: (Units=GPa)
#
#
# Indices 1 2 3 4 5 6 
#
# 1 119.2972 15.3161 18.5270 0.0000 0.0000 0.0000
# 2 15.3161 43.4306 1.7245 0.0000 0.0000 0.0000
# 3 18.5270 1.7245 119.0692 0.0000 0.0000 0.0000
# 4 0.0000 0.0000 0.0000 10.8490 0.0000 0.0000
# 5 0.0000 0.0000 0.0000 0.0000 16.0789 0.0000
# 6 0.0000 0.0000 0.0000 0.0000 0.0000 24.4032
#
#
#
# Elastic Compliance Matrix: (Units=1/GPa)
#
#
# Indices 1 2 3 4 5 6 
#
# 1 0.008993 -0.003118 -0.001354 0.000000 0.000000 0.000000
# 2 -0.003118 0.024119 0.000136 0.000000 0.000000 0.000000
# 3 -0.001354 0.000136 0.008607 0.000000 0.000000 0.000000
# 4 0.000000 0.000000 0.000000 0.092174 0.000000 0.000000
# 5 0.000000 0.000000 0.000000 0.000000 0.062193 0.000000
# 6 0.000000 0.000000 0.000000 0.000000 0.000000 0.040978
#
#
# Mechanical properties :
#
#
# Convention : Reuss Voigt Hill
#
# Bulk Modulus (GPa) = 30.25951 39.21470 34.73711
# Shear Modulus (GPa) = 19.47396 26.68151 23.07773
#
# Velocity S-wave (km/s) = 2.98210 3.49060 3.24632
# Velocity P-wave (km/s) = 5.06710 5.84409 5.46941
#
# Compressibility (1/GPa) = 0.03304746
#
# Stress axis : x y z
#
# Youngs Moduli (GPa) = 111.19768 41.46053 116.18165
#
# Poissons Ratio (x) = 0.12926 0.15733
# Poissons Ratio (y) = 0.34668 -0.01578
# Poissons Ratio (z) = 0.15058 -0.00563
#
# Static dielectric constant tensor:
#      x y z
#    x 1.783730 0.000000 0.000000 
#    y 0.000000 1.875840 0.000000 
#    z 0.000000 0.000000 1.823720 
# 
# From -- ./inp_files/1953.got.cif
#   From: 2010.05.17/outbox.cif.g08.bks.cpg/sg40_1_cif.got.tgz:1953.got - 2010.06.03 18:35:42.
