data_PCOD9364311
_publ_section_title
;
Structure prediction by ZEFSAII (Michael W. Deem and Ramdas Pophale) SiO2 
 PCOD9364311
Probable space group: A M A 2
;
_chemical_formula_sum "Si O2"
_cell_formula_units_Z 40
_cell_length_a 14.917781
_cell_length_b 5.223720
_cell_length_c 20.243099
_cell_angle_alpha 90.000000
_cell_angle_beta 90.000000
_cell_angle_gamma 90.000000
_cell_volume 1577.470028
_symmetry_space_group_name_H-M "A M A 2"
_symmetry_group_IT_number 40
_symmetry_cell_setting 'orthorhombic'
loop_
_space_group_symop_operation_xyz
x,y,z
-x,-y,z
1/2-x,y,z
1/2+x,-y,z
x,1/2+y,1/2+z
-x,1/2-y,1/2+z
1/2-x,1/2+y,1/2+z
1/2+x,1/2-y,1/2+z
loop_
_atom_site_type_symbol
_atom_site_label
_atom_site_fract_x
_atom_site_fract_y
_atom_site_fract_z
Si Si1 0.598145 0.097456 0.647470
Si Si2 0.750000 0.699230 0.669164
Si Si3 0.057667 0.236882 0.431736
Si Si4 0.250000 0.176027 0.057958
Si Si5 0.750000 0.439203 0.944950
Si Si6 0.908721 0.152203 0.787910
Si Si7 0.750000 0.247962 0.310581
O O1 0.657014 0.218417 0.590047
O O2 0.600665 0.269699 0.714350
O O3 0.500000 0.000000 0.629357
O O4 0.659754 0.863704 0.670411
O O5 0.750000 0.593242 0.594832
O O6 0.750000 0.582675 0.743026
O O7 0.159467 0.223285 0.459208
O O8 0.074472 0.185549 0.353463
O O9 0.000000 0.500000 0.439423
O O10 0.000000 0.000000 0.458491
O O11 0.250000 0.297387 0.986434
O O12 0.750000 0.551354 0.870690
O O13 0.833227 0.945911 0.809398
O O14 0.000000 0.000000 0.778327
#
# Coordination Sequence:
#
# PCOD9364311 Si02
#       7
#     8   4   8   4   4   8   4
#     4   9  20  42  67  95 139 187 241 302 374 442
#     4   9  21  41  69 103 139 188 246 317 370 449
#     4  11  25  46  71 113 153 195 258 325 381 460
#     4  11  25  43  63 101 145 183 244 299 358 464
#     4  12  26  43  73 107 151 205 247 302 394 453
#     4   9  18  38  66 102 137 181 242 310 370 438
#     4  10  20  39  71 103 145 194 249 310 386 446
#
# _framework density 25.357057000000001
#
# number of rings (size 3 to 8) (size 9 to 14) (size 15 to 20)
#    0.000    2.000    0.000    3.600    2.800    2.400 
#   14.400    0.000    0.000    0.000    0.000    0.000 
#    0.000    0.000    0.000    0.000    0.000    0.000 
#
# Total GULP energy -111570.878702 kJ/mol
# GULP energy per Si atom -5578.543935 kJ/mol
# Density = 2.529934 g / cm^3
# Si number density = 25.357057 Si / 1000 Ang^3
#
#
#
# Elastic Constant Matrix: (Units=GPa)
#
#
# Indices 1 2 3 4 5 6 
#
# 1 233.5313 50.6148 3.4065 0.0000 0.0000 0.0000
# 2 50.6148 61.3927 1.0081 0.0000 0.0000 0.0000
# 3 3.4065 1.0081 75.0760 0.0000 0.0000 0.0000
# 4 0.0000 0.0000 0.0000 14.1477 0.0000 0.0000
# 5 0.0000 0.0000 0.0000 0.0000 24.2199 0.0000
# 6 0.0000 0.0000 0.0000 0.0000 0.0000 -574.4000
#
#
#
# Elastic Compliance Matrix: (Units=1/GPa)
#
#
# Indices 1 2 3 4 5 6 
#
# 1 0.005216 -0.004297 -0.000179 0.000000 0.000000 0.000000
# 2 -0.004297 0.019833 -0.000071 0.000000 0.000000 0.000000
# 3 -0.000179 -0.000071 0.013329 0.000000 0.000000 0.000000
# 4 0.000000 0.000000 0.000000 0.070683 0.000000 0.000000
# 5 0.000000 0.000000 0.000000 0.000000 0.041288 0.000000
# 6 0.000000 0.000000 0.000000 0.000000 0.000000 -0.001741
#
#
# Mechanical properties :
#
#
# Convention : Reuss Voigt Hill
#
# Bulk Modulus (GPa) = 34.15032 53.33987 43.74509
# Shear Modulus (GPa) = 29.85714 -86.20843 -28.17565
#
# Velocity S-wave (km/s) = 3.43515 -5.83709 -3.33702
# Velocity P-wave (km/s) = 5.40654 4.93433 1.56254
#
# Compressibility (1/GPa) = 0.02928230
#
# Stress axis : x y z
#
# Youngs Moduli (GPa) = 191.71382 50.42164 75.02482
#
# Poissons Ratio (x) = 0.21668 0.01343
# Poissons Ratio (y) = 0.82388 0.00535
# Poissons Ratio (z) = 0.03431 0.00360
#
# Static dielectric constant tensor:
#      x y z
#    x 1.979380 0.000000 0.000000 
#    y 0.000000 2.061470 0.000000 
#    z 0.000000 0.000000 2.095310 
# 
# From -- ./inp_files/24710.got.cif
#   From: 2010.05.17/outbox.cif.g08.bks.cpg/sg40_13_cif.got.tgz:24710.got - 2010.06.03 18:35:42.
