data_PCOD9364629
_publ_section_title
;
Structure prediction by ZEFSAII (Michael W. Deem and Ramdas Pophale) SiO2 
 PCOD9364629
Probable space group: A M A 2
;
_chemical_formula_sum "Si O2"
_cell_formula_units_Z 36
_cell_length_a 16.491916
_cell_length_b 13.228844
_cell_length_c 7.237445
_cell_angle_alpha 90.000000
_cell_angle_beta 90.000000
_cell_angle_gamma 90.000000
_cell_volume 1578.986023
_symmetry_space_group_name_H-M "A M A 2"
_symmetry_group_IT_number 40
_symmetry_cell_setting 'orthorhombic'
loop_
_space_group_symop_operation_xyz
x,y,z
-x,-y,z
1/2-x,y,z
1/2+x,-y,z
x,1/2+y,1/2+z
-x,1/2-y,1/2+z
1/2-x,1/2+y,1/2+z
1/2+x,1/2-y,1/2+z
loop_
_atom_site_type_symbol
_atom_site_label
_atom_site_fract_x
_atom_site_fract_y
_atom_site_fract_z
Si Si1 0.913046 0.514530 0.375000
Si Si2 0.250000 0.503260 0.608994
Si Si3 0.750000 0.279735 0.699871
Si Si4 0.082945 0.759435 0.720878
Si Si5 0.414307 0.667743 0.095273
Si Si6 0.750000 0.221565 0.122388
O O1 0.832164 0.490250 0.487903
O O2 0.908756 0.630861 0.315902
O O3 0.918883 0.439264 0.198472
O O4 0.000000 0.500000 0.476049
O O5 0.250000 0.600667 0.737883
O O6 0.250000 0.392094 0.695975
O O7 0.834927 0.253172 0.602543
O O8 0.750000 0.221034 0.895610
O O9 0.994711 0.765475 0.633428
O O10 0.088105 0.671045 0.873343
O O11 0.332544 0.720544 0.166411
#
# Coordination Sequence:
#
# PCOD9364629 Si02
#       6
#     8   4   4   8   8   4
#     4  10  21  38  66  87 119 161 203 251 308 365
#     4  12  21  37  65  92 116 166 211 245 309 372
#     4  10  22  35  64  87 123 162 203 253 304 357
#     4  10  21  42  62  91 127 160 204 258 306 367
#     4  10  21  39  67  88 123 166 201 252 316 359
#     4  10  21  44  57  91 127 162 200 262 297 367
#
# _framework density 22.799441999999999
#
# number of rings (size 3 to 8) (size 9 to 14) (size 15 to 20)
#    0.000    1.778    4.444    0.667    6.222    0.000 
#    0.000   13.333    0.000    0.000    0.000    0.000 
#    0.000    0.000    0.000    0.000    0.000    0.000 
#
# Total GULP energy -100425.096215 kJ/mol
# GULP energy per Si atom -5579.172012 kJ/mol
# Density = 2.274755 g / cm^3
# Si number density = 22.799442 Si / 1000 Ang^3
#
#
#
# Elastic Constant Matrix: (Units=GPa)
#
#
# Indices 1 2 3 4 5 6 
#
# 1 243.9516 22.1888 20.5225 0.0000 0.0000 0.0000
# 2 22.1888 79.9688 -4.5537 0.0000 0.0000 0.0000
# 3 20.5225 -4.5537 43.1820 0.0000 0.0000 0.0000
# 4 0.0000 0.0000 0.0000 28.6455 0.0000 0.0000
# 5 0.0000 0.0000 0.0000 0.0000 20.3658 0.0000
# 6 0.0000 0.0000 0.0000 0.0000 0.0000 55.2973
#
#
#
# Elastic Compliance Matrix: (Units=1/GPa)
#
#
# Indices 1 2 3 4 5 6 
#
# 1 0.004410 -0.001351 -0.002239 0.000000 0.000000 0.000000
# 2 -0.001351 0.012994 0.002012 0.000000 0.000000 0.000000
# 3 -0.002239 0.002012 0.024434 0.000000 0.000000 0.000000
# 4 0.000000 0.000000 0.000000 0.034909 0.000000 0.000000
# 5 0.000000 0.000000 0.000000 0.000000 0.049102 0.000000
# 6 0.000000 0.000000 0.000000 0.000000 0.000000 0.018084
#
#
# Mechanical properties :
#
#
# Convention : Reuss Voigt Hill
#
# Bulk Modulus (GPa) = 25.85039 49.26863 37.55951
# Shear Modulus (GPa) = 31.25322 42.79137 37.02229
#
# Velocity S-wave (km/s) = 3.70643 4.33697 4.03404
# Velocity P-wave (km/s) = 5.44790 6.83635 6.18123
#
# Compressibility (1/GPa) = 0.03868414
#
# Stress axis : x y z
#
# Youngs Moduli (GPa) = 226.73710 76.95623 40.92671
#
# Poissons Ratio (x) = 0.10398 0.09162
# Poissons Ratio (y) = 0.30637 -0.08236
# Poissons Ratio (z) = 0.50756 -0.15487
#
# Static dielectric constant tensor:
#      x y z
#    x 1.950150 0.000000 0.000000 
#    y 0.000000 1.789000 0.000000 
#    z 0.000000 0.000000 1.872210 
# 
# From -- ./inp_files/6091.got.cif
#   From: 2010.05.17/outbox.cif.g08.bks.cpg/sg40_4_cif.got.tgz:6091.got - 2010.06.03 18:35:42.
