data_PCOD9364854
_publ_section_title
;
Structure prediction by ZEFSAII (Michael W. Deem and Ramdas Pophale) SiO2 
 PCOD9364854
Probable space group: A M A 2
;
_chemical_formula_sum "Si O2"
_cell_formula_units_Z 64
_cell_length_a 28.819040
_cell_length_b 12.365169
_cell_length_c 8.225416
_cell_angle_alpha 90.000000
_cell_angle_beta 90.000000
_cell_angle_gamma 90.000000
_cell_volume 2931.145910
_symmetry_space_group_name_H-M "A M A 2"
_symmetry_group_IT_number 40
_symmetry_cell_setting 'orthorhombic'
loop_
_space_group_symop_operation_xyz
x,y,z
-x,-y,z
1/2-x,y,z
1/2+x,-y,z
x,1/2+y,1/2+z
-x,1/2-y,1/2+z
1/2-x,1/2+y,1/2+z
1/2+x,1/2-y,1/2+z
loop_
_atom_site_type_symbol
_atom_site_label
_atom_site_fract_x
_atom_site_fract_y
_atom_site_fract_z
Si Si1 0.452930 0.943988 0.316920
Si Si2 0.432844 0.225842 0.961294
Si Si3 0.153436 0.648414 0.284074
Si Si4 0.133979 0.071342 0.417591
Si Si5 0.198099 0.423299 0.290587
Si Si6 0.976193 0.099029 0.968798
Si Si7 0.697011 0.623536 0.899724
Si Si8 0.108022 0.294473 0.285129
O O1 0.450017 0.815703 0.335353
O O2 0.500000 0.000000 0.372944
O O3 0.412273 0.000863 0.414413
O O4 0.451311 0.957101 0.122486
O O5 0.406182 0.295753 0.097169
O O6 0.395994 0.145584 0.877155
O O7 0.479829 0.170840 0.024088
O O8 0.188457 0.550128 0.324924
O O9 0.173086 0.767313 0.331221
O O10 0.144874 0.623539 0.093247
O O11 0.123678 0.171708 0.304665
O O12 0.172317 0.988358 0.350905
O O13 0.250000 0.393874 0.349662
O O14 0.151552 0.363809 0.348602
O O15 0.196994 0.390043 0.097634
O O16 0.938104 0.169812 0.878811
O O17 0.000000 0.000000 0.869658
O O18 0.750000 0.626063 0.845583
#
# Coordination Sequence:
#
# PCOD9364854 Si02
#       8
#     8   8   8   8   8   8   8   8
#     4  11  23  43  63  91 133 179 229 274 335 404
#     4  12  22  40  65  96 131 178 232 277 338 413
#     4  11  21  43  68  96 126 175 227 281 341 417
#     4  11  24  41  66  96 132 177 220 283 340 409
#     4  10  22  41  66  97 131 172 223 284 350 416
#     4  11  24  40  62  95 137 184 227 281 345 413
#     4  10  21  43  69  94 126 173 225 278 341 419
#     4  12  24  41  64  99 140 175 223 287 347 415
#
# _framework density 21.834461999999998
#
# number of rings (size 3 to 8) (size 9 to 14) (size 15 to 20)
#    0.000    1.000    2.500    5.625    0.000    2.500 
#    0.000    0.000    0.000    0.000    0.000    0.000 
#    0.000    0.000    0.000    0.000    0.000    0.000 
#
# Total GULP energy -178503.577667 kJ/mol
# GULP energy per Si atom -5578.236802 kJ/mol
# Density = 2.178477 g / cm^3
# Si number density = 21.834462 Si / 1000 Ang^3
#
#
#
# Elastic Constant Matrix: (Units=GPa)
#
#
# Indices 1 2 3 4 5 6 
#
# 1 155.6224 59.2749 28.0593 0.0000 0.0000 0.0000
# 2 59.2749 132.1273 35.2666 0.0000 0.0000 0.0000
# 3 28.0593 35.2666 38.9640 0.0000 0.0000 0.0000
# 4 0.0000 0.0000 0.0000 102.4450 0.0000 0.0000
# 5 0.0000 0.0000 0.0000 0.0000 29.5456 0.0000
# 6 0.0000 0.0000 0.0000 0.0000 0.0000 38.2686
#
#
#
# Elastic Compliance Matrix: (Units=1/GPa)
#
#
# Indices 1 2 3 4 5 6 
#
# 1 0.008067 -0.002727 -0.003341 0.000000 0.000000 0.000000
# 2 -0.002727 0.010901 -0.007903 0.000000 0.000000 0.000000
# 3 -0.003341 -0.007903 0.035224 0.000000 0.000000 0.000000
# 4 0.000000 0.000000 0.000000 0.009761 0.000000 0.000000
# 5 0.000000 0.000000 0.000000 0.000000 0.033846 0.000000
# 6 0.000000 0.000000 0.000000 0.000000 0.000000 0.026131
#
#
# Mechanical properties :
#
#
# Convention : Reuss Voigt Hill
#
# Bulk Modulus (GPa) = 38.09540 63.54613 50.82077
# Shear Modulus (GPa) = 31.12895 47.65937 39.39416
#
# Velocity S-wave (km/s) = 3.77991 4.67707 4.25222
# Velocity P-wave (km/s) = 6.04447 7.63763 6.88727
#
# Compressibility (1/GPa) = 0.02624989
#
# Stress axis : x y z
#
# Youngs Moduli (GPa) = 123.96232 91.73162 28.39012
#
# Poissons Ratio (x) = 0.25018 0.09485
# Poissons Ratio (y) = 0.33808 0.22436
# Poissons Ratio (z) = 0.41413 0.72494
#
# Static dielectric constant tensor:
#      x y z
#    x 1.824250 0.000000 0.000000 
#    y 0.000000 1.770670 0.000000 
#    z 0.000000 0.000000 1.833020 
# 
# From -- ./inp_files/9431.got.cif
#   From: 2010.05.17/outbox.cif.g08.bks.cpg/sg40_5_cif.got.tgz:9431.got - 2010.06.03 18:35:42.
