data_PCOD9364302
_publ_section_title
;
Structure prediction by ZEFSAII (Michael W. Deem and Ramdas Pophale) SiO2 
 PCOD9364302
Probable space group: A M A 2
;
_chemical_formula_sum "Si O2"
_cell_formula_units_Z 36
_cell_length_a 9.655663
_cell_length_b 22.699750
_cell_length_c 7.946813
_cell_angle_alpha 90.000000
_cell_angle_beta 90.000000
_cell_angle_gamma 90.000000
_cell_volume 1741.791502
_symmetry_space_group_name_H-M "A M A 2"
_symmetry_group_IT_number 40
_symmetry_cell_setting 'orthorhombic'
loop_
_space_group_symop_operation_xyz
x,y,z
-x,-y,z
1/2-x,y,z
1/2+x,-y,z
x,1/2+y,1/2+z
-x,1/2-y,1/2+z
1/2-x,1/2+y,1/2+z
1/2+x,1/2-y,1/2+z
loop_
_atom_site_type_symbol
_atom_site_label
_atom_site_fract_x
_atom_site_fract_y
_atom_site_fract_z
Si Si1 0.750000 0.130692 0.944281
Si Si2 0.510083 0.640168 0.885082
Si Si3 0.250000 0.040575 0.798458
Si Si4 0.750000 0.582758 0.094646
Si Si5 0.979383 0.936144 0.079265
Si Si6 0.750000 0.339353 0.103343
Si Si7 0.250000 0.781837 0.234197
O O1 0.750000 0.131639 0.743489
O O2 0.618146 0.093191 0.006371
O O3 0.750000 0.192466 0.042769
O O4 0.437159 0.607864 0.727523
O O5 0.615275 0.689794 0.819378
O O6 0.612694 0.594374 0.982917
O O7 0.391179 0.666564 0.999920
O O8 0.250000 0.094804 0.672438
O O9 0.250000 0.979648 0.693672
O O10 0.120791 0.049888 0.923758
O O11 0.000000 0.000000 0.161147
O O12 0.750000 0.288036 0.240938
#
# Coordination Sequence:
#
# PCOD9364302 Si02
#       7
#     4   8   4   4   8   4   4
#     4  10  20  39  67  85 124 173 221 257 323 397
#     4  10  25  42  68  95 134 174 220 272 331 387
#     4  12  26  37  64 101 138 163 218 274 334 389
#     4  11  22  43  62 101 131 174 209 273 342 392
#     4  11  21  40  61  93 129 178 208 258 335 405
#     4  12  26  41  68 105 128 167 229 288 305 380
#     4   9  24  48  63  92 131 185 217 256 344 392
#
# _framework density 20.668375000000001
#
# number of rings (size 3 to 8) (size 9 to 14) (size 15 to 20)
#    0.000    1.333    2.222    2.667    3.111    5.333 
#    0.000    3.333    0.000    0.000    0.000    0.000 
#    0.000    0.000    0.000    0.000    0.000    0.000 
#
# Total GULP energy -100526.192872 kJ/mol
# GULP energy per Si atom -5584.788493 kJ/mol
# Density = 2.062133 g / cm^3
# Si number density = 20.668375 Si / 1000 Ang^3
#
#
#
# Elastic Constant Matrix: (Units=GPa)
#
#
# Indices 1 2 3 4 5 6 
#
# 1 103.2950 27.0723 24.7792 0.0000 0.0000 0.0000
# 2 27.0723 57.7525 18.1161 0.0000 0.0000 0.0000
# 3 24.7792 18.1161 76.3021 0.0000 0.0000 0.0000
# 4 0.0000 0.0000 0.0000 30.1953 0.0000 0.0000
# 5 0.0000 0.0000 0.0000 0.0000 22.4990 0.0000
# 6 0.0000 0.0000 0.0000 0.0000 0.0000 15.3265
#
#
#
# Elastic Compliance Matrix: (Units=1/GPa)
#
#
# Indices 1 2 3 4 5 6 
#
# 1 0.011514 -0.004565 -0.002656 0.000000 0.000000 0.000000
# 2 -0.004565 0.020518 -0.003389 0.000000 0.000000 0.000000
# 3 -0.002656 -0.003389 0.014773 0.000000 0.000000 0.000000
# 4 0.000000 0.000000 0.000000 0.033118 0.000000 0.000000
# 5 0.000000 0.000000 0.000000 0.000000 0.044446 0.000000
# 6 0.000000 0.000000 0.000000 0.000000 0.000000 0.065246
#
#
# Mechanical properties :
#
#
# Convention : Reuss Voigt Hill
#
# Bulk Modulus (GPa) = 39.08265 41.92050 40.50158
# Shear Modulus (GPa) = 22.79325 24.76297 23.77811
#
# Velocity S-wave (km/s) = 3.32446 3.46513 3.39552
# Velocity P-wave (km/s) = 5.80400 6.02793 5.91703
#
# Compressibility (1/GPa) = 0.02558680
#
# Stress axis : x y z
#
# Youngs Moduli (GPa) = 86.84821 48.73746 67.69161
#
# Poissons Ratio (x) = 0.22246 0.17976
# Poissons Ratio (y) = 0.39642 0.22942
# Poissons Ratio (z) = 0.23063 0.16518
#
# Static dielectric constant tensor:
#      x y z
#    x 1.797230 0.000000 0.000000 
#    y 0.000000 1.718860 0.000000 
#    z 0.000000 0.000000 1.754500 
# 
# From -- ./inp_files/4155.got.cif
#   From: 2010.05.17/outbox.cif.g08.bks.cpg/sg40_3_cif.got.tgz:4155.got - 2010.06.03 18:35:42.
