data_PCOD9364752
_publ_section_title
;
Structure prediction by ZEFSAII (Michael W. Deem and Ramdas Pophale) SiO2 
 PCOD9364752
Probable space group: A M A 2
;
_chemical_formula_sum "Si O2"
_cell_formula_units_Z 56
_cell_length_a 15.446764
_cell_length_b 5.443918
_cell_length_c 28.614372
_cell_angle_alpha 90.000000
_cell_angle_beta 90.000000
_cell_angle_gamma 90.000000
_cell_volume 2406.208769
_symmetry_space_group_name_H-M "A M A 2"
_symmetry_group_IT_number 40
_symmetry_cell_setting 'orthorhombic'
loop_
_space_group_symop_operation_xyz
x,y,z
-x,-y,z
1/2-x,y,z
1/2+x,-y,z
x,1/2+y,1/2+z
-x,1/2-y,1/2+z
1/2-x,1/2+y,1/2+z
1/2+x,1/2-y,1/2+z
loop_
_atom_site_type_symbol
_atom_site_label
_atom_site_fract_x
_atom_site_fract_y
_atom_site_fract_z
Si Si1 0.348258 0.588853 0.935070
Si Si2 0.000000 0.000000 0.264444
Si Si3 0.847791 0.675473 0.028166
Si Si4 0.655737 0.771542 0.714594
Si Si5 0.909280 0.389100 0.115682
Si Si6 0.098877 0.410616 0.293113
Si Si7 0.097988 0.587891 0.390362
Si Si8 0.000000 0.500000 0.549030
O O1 0.250000 0.532243 0.921539
O O2 0.363875 0.871777 0.922679
O O3 0.398310 0.364313 0.909589
O O4 0.356672 0.541439 0.990355
O O5 0.069007 0.871226 0.229777
O O6 0.927525 0.872443 0.298044
O O7 0.750000 0.778361 0.023085
O O8 0.862082 0.575822 0.080469
O O9 0.930406 0.848163 0.019489
O O10 0.750000 0.655984 0.724415
O O11 0.647358 0.820975 0.659812
O O12 0.649336 0.017350 0.746556
O O13 0.000000 0.500000 0.133890
O O14 0.941238 0.168098 0.082716
O O15 0.136393 0.543563 0.338379
O O16 0.000000 0.500000 0.284835
O O17 0.000000 0.500000 0.384752
#
# Coordination Sequence:
#
# PCOD9364752 Si02
#       8
#     8   4   8   8   8   8   8   4
#     4  11  26  45  67 102 143 182 227 290 353 410
#     4  10  21  42  64  92 134 174 216 282 337 402
#     4  10  24  43  65  95 134 175 221 278 342 409
#     4  11  23  39  64  96 130 174 222 272 338 410
#     4  10  21  40  64  93 131 171 216 277 337 405
#     4   9  22  41  64  90 128 170 220 278 339 401
#     4  11  25  43  73 101 135 183 237 285 345 419
#     4  10  23  40  66  96 128 172 226 274 335 404
#
# _framework density 23.273125
#
# number of rings (size 3 to 8) (size 9 to 14) (size 15 to 20)
#    0.000    1.714    0.000    3.000    9.000    6.286 
#    0.000    0.000    0.000    0.000    0.000    0.000 
#    0.000    0.000    0.000    0.000    0.000    0.000 
#
# Total GULP energy -156103.190674 kJ/mol
# GULP energy per Si atom -5575.113953 kJ/mol
# Density = 2.322015 g / cm^3
# Si number density = 23.273125 Si / 1000 Ang^3
#
#
#
# Elastic Constant Matrix: (Units=GPa)
#
#
# Indices 1 2 3 4 5 6 
#
# 1 109.4917 20.3834 31.2925 0.0000 0.0000 0.0000
# 2 20.3834 45.7425 11.0590 0.0000 0.0000 0.0000
# 3 31.2925 11.0590 78.2636 0.0000 0.0000 0.0000
# 4 0.0000 0.0000 0.0000 22.8483 0.0000 0.0000
# 5 0.0000 0.0000 0.0000 0.0000 24.7468 0.0000
# 6 0.0000 0.0000 0.0000 0.0000 0.0000 25.7581
#
#
#
# Elastic Compliance Matrix: (Units=1/GPa)
#
#
# Indices 1 2 3 4 5 6 
#
# 1 0.010963 -0.003961 -0.003824 0.000000 0.000000 0.000000
# 2 -0.003961 0.024066 -0.001817 0.000000 0.000000 0.000000
# 3 -0.003824 -0.001817 0.014563 0.000000 0.000000 0.000000
# 4 0.000000 0.000000 0.000000 0.043767 0.000000 0.000000
# 5 0.000000 0.000000 0.000000 0.000000 0.040409 0.000000
# 6 0.000000 0.000000 0.000000 0.000000 0.000000 0.038823
#
#
# Mechanical properties :
#
#
# Convention : Reuss Voigt Hill
#
# Bulk Modulus (GPa) = 32.90683 39.88527 36.39605
# Shear Modulus (GPa) = 24.76182 26.05485 25.40833
#
# Velocity S-wave (km/s) = 3.26539 3.34956 3.30774
# Velocity P-wave (km/s) = 5.32796 5.66873 5.50098
#
# Compressibility (1/GPa) = 0.03038883
#
# Stress axis : x y z
#
# Youngs Moduli (GPa) = 91.21319 41.55278 68.66732
#
# Poissons Ratio (x) = 0.16459 0.26257
# Poissons Ratio (y) = 0.36129 0.12476
# Poissons Ratio (z) = 0.34878 0.07550
#
# Static dielectric constant tensor:
#      x y z
#    x 1.877910 0.000000 0.000000 
#    y 0.000000 3.123490 0.000000 
#    z 0.000000 0.000000 1.873120 
# 
# From -- ./inp_files/26630.got.cif
#   From: 2010.05.17/outbox.cif.g08.bks.cpg/sg40_14_cif.got.tgz:26630.got - 2010.06.03 18:35:42.
