data_PCOD9364718
_publ_section_title
;
Structure prediction by ZEFSAII (Michael W. Deem and Ramdas Pophale) SiO2 
 PCOD9364718
Probable space group: A M A 2
;
_chemical_formula_sum "Si O2"
_cell_formula_units_Z 64
_cell_length_a 24.220471
_cell_length_b 13.401335
_cell_length_c 9.843199
_cell_angle_alpha 90.000000
_cell_angle_beta 90.000000
_cell_angle_gamma 90.000000
_cell_volume 3194.970947
_symmetry_space_group_name_H-M "A M A 2"
_symmetry_group_IT_number 40
_symmetry_cell_setting 'orthorhombic'
loop_
_space_group_symop_operation_xyz
x,y,z
-x,-y,z
1/2-x,y,z
1/2+x,-y,z
x,1/2+y,1/2+z
-x,1/2-y,1/2+z
1/2-x,1/2+y,1/2+z
1/2+x,1/2-y,1/2+z
loop_
_atom_site_type_symbol
_atom_site_label
_atom_site_fract_x
_atom_site_fract_y
_atom_site_fract_z
Si Si1 0.040478 0.243788 0.110540
Si Si2 0.927659 0.051180 0.519672
Si Si3 0.141531 0.166957 0.946311
Si Si4 0.350595 0.859348 0.297161
Si Si5 0.067199 0.500928 0.321765
Si Si6 0.575292 0.670273 0.538594
Si Si7 0.310800 0.563740 0.699805
Si Si8 0.415728 0.145416 0.368856
O O1 0.031683 0.357426 0.062146
O O2 0.045609 0.210526 0.267245
O O3 0.990630 0.180019 0.051748
O O4 0.100528 0.221228 0.051743
O O5 0.877255 0.093571 0.432059
O O6 0.911642 0.017940 0.670223
O O7 0.943201 0.954459 0.429782
O O8 0.169169 0.250266 0.848916
O O9 0.096957 0.102084 0.864459
O O10 0.178670 0.096858 0.043098
O O11 0.399317 0.847767 0.186310
O O12 0.313253 0.944587 0.228231
O O13 0.085999 0.417203 0.430495
O O14 0.000000 0.500000 0.320296
O O15 0.598342 0.775507 0.485306
O O16 0.250000 0.600353 0.740177
O O17 0.361019 0.609745 0.788209
#
# Coordination Sequence:
#
# PCOD9364718 Si02
#       8
#     8   8   8   8   8   8   8   8
#     4  10  22  36  55  90 131 172 212 248 312 386
#     4  10  23  36  56  86 128 172 215 256 304 374
#     4  10  21  40  59  91 127 162 211 266 314 385
#     4  10  23  40  63  91 125 165 209 266 318 392
#     4  12  23  36  57  92 133 179 213 251 310 381
#     4  12  23  37  59  88 135 175 207 256 315 386
#     4  10  22  45  69  91 119 159 215 282 341 382
#     4  10  23  40  60  92 130 168 218 269 317 389
#
# _framework density 20.031480999999999
#
# number of rings (size 3 to 8) (size 9 to 14) (size 15 to 20)
#    0.000    1.500    3.750    0.750    7.000    0.500 
#    2.250    0.625    0.000    6.000    0.000    0.000 
#    0.000    0.000    0.000    0.000    0.000    0.000 
#
# Total GULP energy -178186.723648 kJ/mol
# GULP energy per Si atom -5568.335114 kJ/mol
# Density = 1.998589 g / cm^3
# Si number density = 20.031481 Si / 1000 Ang^3
#
#
#
# Elastic Constant Matrix: (Units=GPa)
#
#
# Indices 1 2 3 4 5 6 
#
# 1 62.0464 29.9554 27.2964 0.0000 0.0000 0.0000
# 2 29.9554 97.7101 40.2242 0.0000 0.0000 0.0000
# 3 27.2964 40.2242 106.2932 0.0000 0.0000 0.0000
# 4 0.0000 0.0000 0.0000 40.0523 0.0000 0.0000
# 5 0.0000 0.0000 0.0000 0.0000 1.3581 0.0000
# 6 0.0000 0.0000 0.0000 0.0000 0.0000 2.5420
#
#
#
# Elastic Compliance Matrix: (Units=1/GPa)
#
#
# Indices 1 2 3 4 5 6 
#
# 1 0.019854 -0.004724 -0.003311 0.000000 0.000000 0.000000
# 2 -0.004724 0.013247 -0.003800 0.000000 0.000000 0.000000
# 3 -0.003311 -0.003800 0.011696 0.000000 0.000000 0.000000
# 4 0.000000 0.000000 0.000000 0.024967 0.000000 0.000000
# 5 0.000000 0.000000 0.000000 0.000000 0.736332 0.000000
# 6 0.000000 0.000000 0.000000 0.000000 0.000000 0.393384
#
#
# Mechanical properties :
#
#
# Convention : Reuss Voigt Hill
#
# Bulk Modulus (GPa) = 47.33076 51.22241 49.27658
# Shear Modulus (GPa) = 4.06440 20.02873 12.04657
#
# Velocity S-wave (km/s) = 1.42598 3.16549 2.45497
# Velocity P-wave (km/s) = 5.13719 6.24395 5.71741
#
# Compressibility (1/GPa) = 0.02112791
#
# Stress axis : x y z
#
# Youngs Moduli (GPa) = 50.36724 75.48978 85.49785
#
# Poissons Ratio (x) = 0.35659 0.28309
# Poissons Ratio (y) = 0.23792 0.32488
# Poissons Ratio (z) = 0.16677 0.28685
#
# Static dielectric constant tensor:
#      x y z
#    x 1.687990 0.000000 0.000000 
#    y 0.000000 1.809540 0.000000 
#    z 0.000000 0.000000 1.730480 
# 
# From -- ./inp_files/8926.got.cif
#   From: 2010.05.17/outbox.cif.g08.bks.cpg/sg40_5_cif.got.tgz:8926.got - 2010.06.03 18:35:42.
