data_PCOD9364349
_publ_section_title
;
Structure prediction by ZEFSAII (Michael W. Deem and Ramdas Pophale) SiO2 
 PCOD9364349
Probable space group: A M A 2
;
_chemical_formula_sum "Si O2"
_cell_formula_units_Z 64
_cell_length_a 26.309920
_cell_length_b 12.216374
_cell_length_c 8.284931
_cell_angle_alpha 90.000000
_cell_angle_beta 90.000000
_cell_angle_gamma 90.000000
_cell_volume 2662.874773
_symmetry_space_group_name_H-M "A M A 2"
_symmetry_group_IT_number 40
_symmetry_cell_setting 'orthorhombic'
loop_
_space_group_symop_operation_xyz
x,y,z
-x,-y,z
1/2-x,y,z
1/2+x,-y,z
x,1/2+y,1/2+z
-x,1/2-y,1/2+z
1/2-x,1/2+y,1/2+z
1/2+x,1/2-y,1/2+z
loop_
_atom_site_type_symbol
_atom_site_label
_atom_site_fract_x
_atom_site_fract_y
_atom_site_fract_z
Si Si1 0.026372 0.179514 0.196800
Si Si2 0.609474 0.207074 0.527076
Si Si3 0.643527 0.035443 0.005591
Si Si4 0.304459 0.056527 0.541309
Si Si5 0.098109 0.007214 0.352904
Si Si6 0.035136 0.895801 0.912984
Si Si7 0.806155 0.165028 0.762036
Si Si8 0.307121 0.182552 0.860394
O O1 0.051352 0.085992 0.307616
O O2 0.024639 0.292514 0.296555
O O3 0.976871 0.141793 0.098645
O O4 0.065966 0.204043 0.050477
O O5 0.645015 0.223161 0.685659
O O6 0.651197 0.226406 0.389986
O O7 0.584859 0.091555 0.476529
O O8 0.623462 0.032111 0.185912
O O9 0.592720 0.061041 0.901679
O O10 0.670972 0.922147 0.957912
O O11 0.682330 0.127600 0.943621
O O12 0.250000 0.055899 0.453017
O O13 0.354792 0.067487 0.438734
O O14 0.304787 0.149097 0.675769
O O15 0.305823 0.944274 0.647628
O O16 0.000000 0.000000 0.877855
O O17 0.750000 0.214714 0.753440
O O18 0.250000 0.211115 0.912576
#
# Coordination Sequence:
#
# PCOD9364349 Si02
#       8
#     8   8   8   8   8   8   8   8
#     4  12  28  49  71 106 139 186 241 307 370 433
#     4  11  22  43  69  99 141 189 234 298 364 428
#     4  11  21  42  68 100 142 181 236 302 359 428
#     4   8  18  36  61  97 138 180 230 280 338 423
#     4  11  24  42  70 101 142 181 238 298 351 426
#     4  12  27  50  75 102 141 183 251 306 375 439
#     4   9  18  37  65  98 137 184 232 281 352 438
#     4  10  20  40  69 104 146 195 239 287 358 438
#
# _framework density 24.034175000000001
#
# number of rings (size 3 to 8) (size 9 to 14) (size 15 to 20)
#    0.000    1.500    3.750    1.500    1.750    3.500 
#    0.000    0.000    0.000    0.000    0.000    0.000 
#    0.000    0.000    0.000    0.000    0.000    0.000 
#
# Total GULP energy -178797.932068 kJ/mol
# GULP energy per Si atom -5587.435377 kJ/mol
# Density = 2.397947 g / cm^3
# Si number density = 24.034175 Si / 1000 Ang^3
#
#
#
# Elastic Constant Matrix: (Units=GPa)
#
#
# Indices 1 2 3 4 5 6 
#
# 1 94.9272 22.2975 18.1058 0.0000 0.0000 0.0000
# 2 22.2975 81.9760 18.0146 0.0000 0.0000 0.0000
# 3 18.1058 18.0146 51.7353 0.0000 0.0000 0.0000
# 4 0.0000 0.0000 0.0000 48.1396 0.0000 0.0000
# 5 0.0000 0.0000 0.0000 0.0000 39.8385 0.0000
# 6 0.0000 0.0000 0.0000 0.0000 0.0000 7.3174
#
#
#
# Elastic Compliance Matrix: (Units=1/GPa)
#
#
# Indices 1 2 3 4 5 6 
#
# 1 0.011735 -0.002479 -0.003244 0.000000 0.000000 0.000000
# 2 -0.002479 0.013733 -0.003914 0.000000 0.000000 0.000000
# 3 -0.003244 -0.003914 0.021827 0.000000 0.000000 0.000000
# 4 0.000000 0.000000 0.000000 0.020773 0.000000 0.000000
# 5 0.000000 0.000000 0.000000 0.000000 0.025101 0.000000
# 6 0.000000 0.000000 0.000000 0.000000 0.000000 0.136661
#
#
# Mechanical properties :
#
#
# Convention : Reuss Voigt Hill
#
# Bulk Modulus (GPa) = 35.68704 38.38604 37.03654
# Shear Modulus (GPa) = 19.34639 30.40713 24.87676
#
# Velocity S-wave (km/s) = 2.84025 3.56077 3.22072
# Velocity P-wave (km/s) = 5.06327 5.73686 5.41056
#
# Compressibility (1/GPa) = 0.02802138
#
# Stress axis : x y z
#
# Youngs Moduli (GPa) = 85.21209 72.81610 45.81395
#
# Poissons Ratio (x) = 0.18053 0.14861
# Poissons Ratio (y) = 0.21126 0.17933
# Poissons Ratio (z) = 0.27641 0.28503
#
# Static dielectric constant tensor:
#      x y z
#    x 1.915850 0.000000 0.000000 
#    y 0.000000 1.960280 0.000000 
#    z 0.000000 0.000000 1.932000 
# 
# From -- ./inp_files/8945.got.cif
#   From: 2010.05.17/outbox.cif.g08.bks.cpg/sg40_5_cif.got.tgz:8945.got - 2010.06.03 18:35:42.
