data_PCOD9364856
_publ_section_title
;
Structure prediction by ZEFSAII (Michael W. Deem and Ramdas Pophale) SiO2 
 PCOD9364856
Probable space group: A M A 2
;
_chemical_formula_sum "Si O2"
_cell_formula_units_Z 40
_cell_length_a 13.723001
_cell_length_b 18.421289
_cell_length_c 7.510607
_cell_angle_alpha 90.000000
_cell_angle_beta 90.000000
_cell_angle_gamma 90.000000
_cell_volume 1898.646656
_symmetry_space_group_name_H-M "A M A 2"
_symmetry_group_IT_number 40
_symmetry_cell_setting 'orthorhombic'
loop_
_space_group_symop_operation_xyz
x,y,z
-x,-y,z
1/2-x,y,z
1/2+x,-y,z
x,1/2+y,1/2+z
-x,1/2-y,1/2+z
1/2-x,1/2+y,1/2+z
1/2+x,1/2-y,1/2+z
loop_
_atom_site_type_symbol
_atom_site_label
_atom_site_fract_x
_atom_site_fract_y
_atom_site_fract_z
Si Si1 0.439788 0.656860 0.820040
Si Si2 0.861195 0.181780 0.842176
Si Si3 0.365210 0.046381 0.614487
Si Si4 0.359912 0.388227 0.956510
Si Si5 0.973606 0.921858 0.985174
O O1 0.409030 0.739112 0.851779
O O2 0.412770 0.625559 0.626056
O O3 0.393094 0.608284 0.974627
O O4 0.556145 0.644556 0.834540
O O5 0.750000 0.182020 0.909461
O O6 0.857956 0.159667 0.634949
O O7 0.929595 0.122740 0.935424
O O8 0.250000 0.045528 0.647544
O O9 0.418449 0.060719 0.801058
O O10 0.388605 0.968715 0.524653
O O11 0.250000 0.390986 0.881241
O O12 0.000000 0.000000 0.068450
#
# Coordination Sequence:
#
# PCOD9364856 Si02
#       5
#     8   8   8   8   8
#     4  12  24  43  67 101 133 171 221 278 332 390
#     4  11  24  44  66  95 137 176 216 273 335 395
#     4  11  23  43  69  97 132 176 224 273 329 392
#     4  10  21  43  70  94 133 179 220 271 334 397
#     4  12  24  41  70  99 131 174 222 273 328 396
#
# _framework density 21.067637999999999
#
# number of rings (size 3 to 8) (size 9 to 14) (size 15 to 20)
#    0.000    0.800    4.000    3.600    0.000    2.400 
#    0.000    1.000    0.000    0.000    0.000    0.000 
#    0.000    0.000    0.000    0.000    0.000    0.000 
#
# Total GULP energy -111893.381330 kJ/mol
# GULP energy per Si atom -5594.669066 kJ/mol
# Density = 2.101969 g / cm^3
# Si number density = 21.067638 Si / 1000 Ang^3
#
#
#
# Elastic Constant Matrix: (Units=GPa)
#
#
# Indices 1 2 3 4 5 6 
#
# 1 111.5464 57.2169 17.8688 0.0000 0.0000 0.0000
# 2 57.2169 160.0041 9.3726 0.0000 0.0000 0.0000
# 3 17.8688 9.3726 51.3058 0.0000 0.0000 0.0000
# 4 0.0000 0.0000 0.0000 25.4180 0.0000 0.0000
# 5 0.0000 0.0000 0.0000 0.0000 9.7626 0.0000
# 6 0.0000 0.0000 0.0000 0.0000 0.0000 28.3568
#
#
#
# Elastic Compliance Matrix: (Units=1/GPa)
#
#
# Indices 1 2 3 4 5 6 
#
# 1 0.011503 -0.003921 -0.003290 0.000000 0.000000 0.000000
# 2 -0.003921 0.007654 -0.000033 0.000000 0.000000 0.000000
# 3 -0.003290 -0.000033 0.020643 0.000000 0.000000 0.000000
# 4 0.000000 0.000000 0.000000 0.039342 0.000000 0.000000
# 5 0.000000 0.000000 0.000000 0.000000 0.102431 0.000000
# 6 0.000000 0.000000 0.000000 0.000000 0.000000 0.035265
#
#
# Mechanical properties :
#
#
# Convention : Reuss Voigt Hill
#
# Bulk Modulus (GPa) = 39.50580 54.64141 47.07361
# Shear Modulus (GPa) = 20.85396 28.60068 24.72732
#
# Velocity S-wave (km/s) = 3.14961 3.68851 3.42966
# Velocity P-wave (km/s) = 5.65856 6.64324 6.17058
#
# Compressibility (1/GPa) = 0.02531274
#
# Stress axis : x y z
#
# Youngs Moduli (GPa) = 86.93367 130.65415 48.44303
#
# Poissons Ratio (x) = 0.51226 0.15938
# Poissons Ratio (y) = 0.34084 0.00158
# Poissons Ratio (z) = 0.28601 0.00427
#
# Static dielectric constant tensor:
#      x y z
#    x 1.793150 0.000000 0.000000 
#    y 0.000000 1.732150 0.000000 
#    z 0.000000 0.000000 1.758260 
# 
# From -- ./inp_files/6132.got.cif
#   From: 2010.05.17/outbox.cif.g08.bks.cpg/sg40_4_cif.got.tgz:6132.got - 2010.06.03 18:35:42.
