data_PCOD9364377
_publ_section_title
;
Structure prediction by ZEFSAII (Michael W. Deem and Ramdas Pophale) SiO2 
 PCOD9364377
Probable space group: A M A 2
;
_chemical_formula_sum "Si O2"
_cell_formula_units_Z 48
_cell_length_a 9.325949
_cell_length_b 7.337263
_cell_length_c 32.836801
_cell_angle_alpha 90.000000
_cell_angle_beta 90.000000
_cell_angle_gamma 90.000000
_cell_volume 2246.921829
_symmetry_space_group_name_H-M "A M A 2"
_symmetry_group_IT_number 40
_symmetry_cell_setting 'orthorhombic'
loop_
_space_group_symop_operation_xyz
x,y,z
-x,-y,z
1/2-x,y,z
1/2+x,-y,z
x,1/2+y,1/2+z
-x,1/2-y,1/2+z
1/2-x,1/2+y,1/2+z
1/2+x,1/2-y,1/2+z
loop_
_atom_site_type_symbol
_atom_site_label
_atom_site_fract_x
_atom_site_fract_y
_atom_site_fract_z
Si Si1 0.018042 0.220251 0.619210
Si Si2 0.750000 0.095340 0.243930
Si Si3 0.580091 0.309257 0.029917
Si Si4 0.421966 0.304541 0.369341
Si Si5 0.750000 0.380521 0.182424
Si Si6 0.750000 0.315557 0.667036
Si Si7 0.500000 0.500000 0.804381
Si Si8 0.575905 0.808072 0.947675
O O1 0.067033 0.284237 0.574443
O O2 0.121654 0.211486 0.657577
O O3 0.883391 0.328848 0.636263
O O4 0.000000 0.000000 0.614094
O O5 0.750000 0.950148 0.205790
O O6 0.750000 0.299236 0.226684
O O7 0.618301 0.069852 0.273482
O O8 0.500000 0.500000 0.034831
O O9 0.750000 0.323846 0.020304
O O10 0.490545 0.235960 0.991678
O O11 0.500000 0.500000 0.359596
O O12 0.250000 0.330804 0.377714
O O13 0.441926 0.163674 0.332496
O O14 0.506705 0.213168 0.408026
O O15 0.750000 0.599821 0.180497
O O16 0.750000 0.804434 0.948003
O O17 0.500000 0.000000 0.940285
#
# Coordination Sequence:
#
# PCOD9364377 Si02
#       8
#     8   4   8   8   4   4   4   8
#     4   9  19  36  62  89 127 177 231 276 342 405
#     4  12  26  44  68 104 136 176 236 292 352 424
#     4  11  22  38  62  97 137 180 232 283 333 404
#     4  11  25  47  76 103 139 188 232 286 358 430
#     4  10  20  42  66  89 131 181 223 286 348 408
#     4  10  22  40  64  93 131 181 227 286 348 414
#     4  12  28  46  72 106 146 176 234 300 354 432
#     4  11  24  43  68  98 137 177 226 279 343 417
#
# _framework density 21.362559000000001
#
# number of rings (size 3 to 8) (size 9 to 14) (size 15 to 20)
#    0.000    1.333    1.667    4.500    8.167    1.333 
#    3.000    0.000    0.000    0.000    0.000    0.000 
#    0.000    0.000    0.000    0.000    0.000    0.000 
#
# Total GULP energy -133639.789714 kJ/mol
# GULP energy per Si atom -5568.324571 kJ/mol
# Density = 2.131394 g / cm^3
# Si number density = 21.362559 Si / 1000 Ang^3
#
#
#
# Elastic Constant Matrix: (Units=GPa)
#
#
# Indices 1 2 3 4 5 6 
#
# 1 180.3928 16.7328 48.4809 0.0000 0.0000 0.0000
# 2 16.7328 72.4093 35.5377 0.0000 0.0000 0.0000
# 3 48.4809 35.5377 140.8599 0.0000 0.0000 0.0000
# 4 0.0000 0.0000 0.0000 41.5929 0.0000 0.0000
# 5 0.0000 0.0000 0.0000 0.0000 -83.6696 0.0000
# 6 0.0000 0.0000 0.0000 0.0000 0.0000 24.2123
#
#
#
# Elastic Compliance Matrix: (Units=1/GPa)
#
#
# Indices 1 2 3 4 5 6 
#
# 1 0.006120 -0.000434 -0.001997 0.000000 0.000000 0.000000
# 2 -0.000434 0.015793 -0.003835 0.000000 0.000000 0.000000
# 3 -0.001997 -0.003835 0.008754 0.000000 0.000000 0.000000
# 4 0.000000 0.000000 0.000000 0.024043 0.000000 0.000000
# 5 0.000000 0.000000 0.000000 0.000000 -0.011952 0.000000
# 6 0.000000 0.000000 0.000000 0.000000 0.000000 0.041301
#
#
# Mechanical properties :
#
#
# Convention : Reuss Voigt Hill
#
# Bulk Modulus (GPa) = 55.14181 66.12945 60.63563
# Shear Modulus (GPa) = 48.71542 15.95449 32.33496
#
# Velocity S-wave (km/s) = 4.78055 2.73581 3.89476
# Velocity P-wave (km/s) = 7.50599 6.40332 6.97647
#
# Compressibility (1/GPa) = 0.01813506
#
# Stress axis : x y z
#
# Youngs Moduli (GPa) = 163.38732 63.31970 114.23240
#
# Poissons Ratio (x) = 0.02750 0.22812
# Poissons Ratio (y) = 0.07095 0.43807
# Poissons Ratio (z) = 0.32628 0.24283
#
# Static dielectric constant tensor:
#      x y z
#    x 1.968540 0.000000 0.000000 
#    y 0.000000 -0.139700 0.000000 
#    z 0.000000 0.000000 1.879170 
# 
# From -- ./inp_files/26245.got.cif
#   From: 2010.05.17/outbox.cif.g08.bks.cpg/sg40_14_cif.got.tgz:26245.got - 2010.06.03 18:35:42.
