data_PCOD9364197
_publ_section_title
;
Structure prediction by ZEFSAII (Michael W. Deem and Ramdas Pophale) SiO2 
 PCOD9364197
Probable space group: A M A 2
;
_chemical_formula_sum "Si O2"
_cell_formula_units_Z 48
_cell_length_a 8.707436
_cell_length_b 9.316578
_cell_length_c 31.157234
_cell_angle_alpha 90.000000
_cell_angle_beta 90.000000
_cell_angle_gamma 90.000000
_cell_volume 2527.584080
_symmetry_space_group_name_H-M "A M A 2"
_symmetry_group_IT_number 40
_symmetry_cell_setting 'orthorhombic'
loop_
_space_group_symop_operation_xyz
x,y,z
-x,-y,z
1/2-x,y,z
1/2+x,-y,z
x,1/2+y,1/2+z
-x,1/2-y,1/2+z
1/2-x,1/2+y,1/2+z
1/2+x,1/2-y,1/2+z
loop_
_atom_site_type_symbol
_atom_site_label
_atom_site_fract_x
_atom_site_fract_y
_atom_site_fract_z
Si Si1 0.934489 0.658976 0.495840
Si Si2 0.565400 0.343035 0.076768
Si Si3 0.433544 0.159288 0.252364
Si Si4 0.934912 0.341172 0.175347
Si Si5 0.933971 0.340172 0.331336
Si Si6 0.566321 0.159535 0.417180
O O1 0.750000 0.654140 0.494432
O O2 0.983523 0.728142 0.541333
O O3 0.000000 0.500000 0.490737
O O4 0.994848 0.760151 0.457931
O O5 0.500000 0.500000 0.066211
O O6 0.750000 0.352011 0.075548
O O7 0.521918 0.307989 0.125866
O O8 0.250000 0.154915 0.252287
O O9 0.494972 0.228798 0.208391
O O10 0.492861 0.258685 0.291042
O O11 0.500000 0.000000 0.257751
O O12 0.750000 0.342830 0.178930
O O13 0.000000 0.500000 0.185064
O O14 0.750000 0.346133 0.325994
O O15 0.968543 0.250923 0.374458
O O16 0.000000 0.500000 0.334688
O O17 0.750000 0.152540 0.422004
O O18 0.500000 0.000000 0.413345
#
# Coordination Sequence:
#
# PCOD9364197 Si02
#       6
#     8   8   8   8   8   8
#     4  11  23  39  59  86 120 157 198 243 293 347
#     4   9  20  37  59  86 116 153 196 242 291 347
#     4  12  25  41  61  87 119 155 196 242 294 349
#     4  10  20  38  61  87 119 155 197 242 292 347
#     4  11  24  42  64  90 120 155 195 239 289 345
#     4  11  24  41  63  90 120 155 195 240 291 347
#
# _framework density 18.990465
#
# number of rings (size 3 to 8) (size 9 to 14) (size 15 to 20)
#    0.000    1.333    0.000    5.500    0.000    9.333 
#    0.000    1.667    0.000    0.000    0.000    0.000 
#    0.000    0.000    0.000    0.000    0.000    0.000 
#
# Total GULP energy -134247.542944 kJ/mol
# GULP energy per Si atom -5593.647623 kJ/mol
# Density = 1.894724 g / cm^3
# Si number density = 18.990465 Si / 1000 Ang^3
#
#
#
# Elastic Constant Matrix: (Units=GPa)
#
#
# Indices 1 2 3 4 5 6 
#
# 1 85.8055 70.9275 64.6212 0.0000 0.0000 0.0000
# 2 70.9275 189.9856 101.0084 0.0000 0.0000 0.0000
# 3 64.6212 101.0084 116.7448 0.0000 0.0000 0.0000
# 4 0.0000 0.0000 0.0000 36.3234 0.0000 0.0000
# 5 0.0000 0.0000 0.0000 0.0000 29.6878 0.0000
# 6 0.0000 0.0000 0.0000 0.0000 0.0000 38.6111
#
#
#
# Elastic Compliance Matrix: (Units=1/GPa)
#
#
# Indices 1 2 3 4 5 6 
#
# 1 0.020904 -0.003060 -0.008923 0.000000 0.000000 0.000000
# 2 -0.003060 0.010195 -0.007127 0.000000 0.000000 0.000000
# 3 -0.008923 -0.007127 0.019672 0.000000 0.000000 0.000000
# 4 0.000000 0.000000 0.000000 0.027530 0.000000 0.000000
# 5 0.000000 0.000000 0.000000 0.000000 0.033684 0.000000
# 6 0.000000 0.000000 0.000000 0.000000 0.000000 0.025899
#
#
# Mechanical properties :
#
#
# Convention : Reuss Voigt Hill
#
# Bulk Modulus (GPa) = 79.68367 96.18333 87.93350
# Shear Modulus (GPa) = 27.73331 31.32305 29.52818
#
# Velocity S-wave (km/s) = 3.82564 4.06570 3.94749
# Velocity P-wave (km/s) = 7.84633 8.53218 8.19643
#
# Compressibility (1/GPa) = 0.01254962
#
# Stress axis : x y z
#
# Youngs Moduli (GPa) = 47.83797 98.08563 50.83463
#
# Poissons Ratio (x) = 0.30012 0.45362
# Poissons Ratio (y) = 0.14637 0.36231
# Poissons Ratio (z) = 0.42688 0.69908
#
# Static dielectric constant tensor:
#      x y z
#    x 1.637020 0.000000 0.000000 
#    y 0.000000 1.612170 0.000000 
#    z 0.000000 0.000000 1.651650 
# 
# From -- ./inp_files/26130.got.cif
#   From: 2010.05.17/outbox.cif.g08.bks.cpg/sg40_14_cif.got.tgz:26130.got - 2010.06.03 18:35:42.
