data_PCOD9364212
_publ_section_title
;
Structure prediction by ZEFSAII (Michael W. Deem and Ramdas Pophale) SiO2 
 PCOD9364212
Probable space group: A M A 2
;
_chemical_formula_sum "Si O2"
_cell_formula_units_Z 56
_cell_length_a 23.341353
_cell_length_b 8.366323
_cell_length_c 12.724046
_cell_angle_alpha 90.000000
_cell_angle_beta 90.000000
_cell_angle_gamma 90.000000
_cell_volume 2484.768224
_symmetry_space_group_name_H-M "A M A 2"
_symmetry_group_IT_number 40
_symmetry_cell_setting 'orthorhombic'
loop_
_space_group_symop_operation_xyz
x,y,z
-x,-y,z
1/2-x,y,z
1/2+x,-y,z
x,1/2+y,1/2+z
-x,1/2-y,1/2+z
1/2-x,1/2+y,1/2+z
1/2+x,1/2-y,1/2+z
loop_
_atom_site_type_symbol
_atom_site_label
_atom_site_fract_x
_atom_site_fract_y
_atom_site_fract_z
Si Si1 0.902213 0.612275 0.628970
Si Si2 0.688326 0.201241 0.806116
Si Si3 0.620526 0.185883 0.458179
Si Si4 0.688014 0.867847 0.093369
Si Si5 0.997880 0.678406 0.456596
Si Si6 0.816744 0.830895 0.755145
Si Si7 0.580214 0.889927 0.334601
O O1 0.856507 0.504645 0.565448
O O2 0.954652 0.668745 0.556278
O O3 0.862624 0.755299 0.674097
O O4 0.921423 0.491922 0.725386
O O5 0.750000 0.211973 0.864889
O O6 0.691996 0.341005 0.717440
O O7 0.625930 0.245309 0.847577
O O8 0.685272 0.022288 0.761320
O O9 0.663508 0.199930 0.554014
O O10 0.561775 0.273976 0.488291
O O11 0.656464 0.269503 0.365068
O O12 0.602241 0.014101 0.420521
O O13 0.750000 0.901495 0.048682
O O14 0.978387 0.807858 0.370418
O O15 0.000000 0.500000 0.410560
O O16 0.750000 0.775732 0.740027
#
# Coordination Sequence:
#
# PCOD9364212 Si02
#       7
#     8   8   8   8   8   8   8
#     4  10  23  42  68  94 136 175 225 281 349 416
#     4   9  20  39  63  94 131 167 220 279 342 417
#     4  11  23  40  63  94 126 173 225 278 343 412
#     4  10  20  38  62  92 129 167 213 276 340 407
#     4  12  24  43  67  94 136 176 233 286 340 421
#     4  10  21  41  68  99 132 174 226 284 354 420
#     4  10  24  44  65  92 131 178 227 276 348 413
#
# _framework density 22.537313999999999
#
# number of rings (size 3 to 8) (size 9 to 14) (size 15 to 20)
#    0.000    1.714    1.429    2.143    2.000    6.286 
#    0.000    0.714    0.000    0.000    0.000    0.000 
#    0.000    0.000    0.000    0.000    0.000    0.000 
#
# Total GULP energy -156130.752202 kJ/mol
# GULP energy per Si atom -5576.098293 kJ/mol
# Density = 2.248602 g / cm^3
# Si number density = 22.537314 Si / 1000 Ang^3
#
#
#
# Elastic Constant Matrix: (Units=GPa)
#
#
# Indices 1 2 3 4 5 6 
#
# 1 111.0464 17.9450 29.8035 0.0000 0.0000 0.0000
# 2 17.9450 76.3741 14.6251 0.0000 0.0000 0.0000
# 3 29.8035 14.6251 24.7206 0.0000 0.0000 0.0000
# 4 0.0000 0.0000 0.0000 26.4479 0.0000 0.0000
# 5 0.0000 0.0000 0.0000 0.0000 18.9357 0.0000
# 6 0.0000 0.0000 0.0000 0.0000 0.0000 33.0369
#
#
#
# Elastic Compliance Matrix: (Units=1/GPa)
#
#
# Indices 1 2 3 4 5 6 
#
# 1 0.013313 -0.000061 -0.016014 0.000000 0.000000 0.000000
# 2 -0.000061 0.014767 -0.008662 0.000000 0.000000 0.000000
# 3 -0.016014 -0.008662 0.064884 0.000000 0.000000 0.000000
# 4 0.000000 0.000000 0.000000 0.037810 0.000000 0.000000
# 5 0.000000 0.000000 0.000000 0.000000 0.052810 0.000000
# 6 0.000000 0.000000 0.000000 0.000000 0.000000 0.030269
#
#
# Mechanical properties :
#
#
# Convention : Reuss Voigt Hill
#
# Bulk Modulus (GPa) = 22.99486 37.43204 30.21345
# Shear Modulus (GPa) = 17.99696 25.66860 21.83278
#
# Velocity S-wave (km/s) = 2.82891 3.37848 3.11583
# Velocity P-wave (km/s) = 4.57116 5.64480 5.13611
#
# Compressibility (1/GPa) = 0.04348798
#
# Stress axis : x y z
#
# Youngs Moduli (GPa) = 75.11339 67.72035 15.41220
#
# Poissons Ratio (x) = 0.00416 0.24681
# Poissons Ratio (y) = 0.00462 0.13350
# Poissons Ratio (z) = 1.20288 0.58660
#
# Static dielectric constant tensor:
#      x y z
#    x 1.938490 0.000000 0.000000 
#    y 0.000000 1.828100 0.000000 
#    z 0.000000 0.000000 1.898330 
# 
# From -- ./inp_files/18226.got.cif
#   From: 2010.05.17/outbox.cif.g08.bks.cpg/sg40_10_cif.got.tgz:18226.got - 2010.06.03 18:35:42.
