data_PCOD9364774
_publ_section_title
;
Structure prediction by ZEFSAII (Michael W. Deem and Ramdas Pophale) SiO2 
 PCOD9364774
Probable space group: A M A 2
;
_chemical_formula_sum "Si O2"
_cell_formula_units_Z 64
_cell_length_a 17.497273
_cell_length_b 12.137454
_cell_length_c 15.637391
_cell_angle_alpha 90.000000
_cell_angle_beta 90.000000
_cell_angle_gamma 90.000000
_cell_volume 3320.949415
_symmetry_space_group_name_H-M "A M A 2"
_symmetry_group_IT_number 40
_symmetry_cell_setting 'orthorhombic'
loop_
_space_group_symop_operation_xyz
x,y,z
-x,-y,z
1/2-x,y,z
1/2+x,-y,z
x,1/2+y,1/2+z
-x,1/2-y,1/2+z
1/2-x,1/2+y,1/2+z
1/2+x,1/2-y,1/2+z
loop_
_atom_site_type_symbol
_atom_site_label
_atom_site_fract_x
_atom_site_fract_y
_atom_site_fract_z
Si Si1 0.410633 0.976580 0.343810
Si Si2 0.659165 0.485583 0.026761
Si Si3 0.911325 0.031510 0.024068
Si Si4 0.839265 0.249408 0.294554
Si Si5 0.836991 0.740318 0.591858
Si Si6 0.408127 0.510375 0.329161
Si Si7 0.658636 0.397257 0.680983
Si Si8 0.657491 0.642188 0.180093
O O1 0.381772 0.015206 0.436114
O O2 0.386604 0.848595 0.337550
O O3 0.500000 0.000000 0.336074
O O4 0.371077 0.040221 0.265089
O O5 0.750000 0.500993 0.012394
O O6 0.648376 0.367381 0.071078
O O7 0.633012 0.579668 0.093140
O O8 0.895441 0.157772 0.048173
O O9 0.869161 0.958380 0.095453
O O10 0.884765 0.013229 0.927007
O O11 0.000000 0.000000 0.028442
O O12 0.750000 0.250071 0.322660
O O13 0.839595 0.225470 0.193404
O O14 0.877907 0.367499 0.308483
O O15 0.750000 0.713847 0.563122
O O16 0.500000 0.500000 0.323739
O O17 0.373095 0.425079 0.261322
O O18 0.750000 0.399577 0.682536
O O19 0.633188 0.269553 0.681330
O O20 0.750000 0.638127 0.182288
#
# Coordination Sequence:
#
# PCOD9364774 Si02
#       8
#     8   8   8   8   8   8   8   8
#     4  12  27  42  65  99 136 171 214 266 328 388
#     4  10  22  44  67  95 127 166 219 269 316 384
#     4  11  25  42  62  94 132 170 211 266 325 392
#     4  11  23  44  70  95 128 178 228 266 314 392
#     4  10  21  40  68  92 121 168 222 267 313 379
#     4  11  26  42  65  97 134 169 213 271 331 394
#     4  11  24  43  66  94 130 171 215 267 325 386
#     4  10  23  43  66  94 129 168 216 270 326 387
#
# _framework density 19.271598000000001
#
# number of rings (size 3 to 8) (size 9 to 14) (size 15 to 20)
#    0.000    1.250    2.500    2.250    5.250    3.500 
#    0.000    0.000    0.000    0.000    0.000    0.000 
#    0.000    0.000    0.000    0.000    0.000    0.000 
#
# Total GULP energy -178871.166297 kJ/mol
# GULP energy per Si atom -5589.723947 kJ/mol
# Density = 1.922774 g / cm^3
# Si number density = 19.271598 Si / 1000 Ang^3
#
#
#
# Elastic Constant Matrix: (Units=GPa)
#
#
# Indices 1 2 3 4 5 6 
#
# 1 57.9180 36.7485 30.4605 0.0000 0.0000 0.0000
# 2 36.7485 82.3906 12.4263 0.0000 0.0000 0.0000
# 3 30.4605 12.4263 95.7449 0.0000 0.0000 0.0000
# 4 0.0000 0.0000 0.0000 27.1307 0.0000 0.0000
# 5 0.0000 0.0000 0.0000 0.0000 32.4194 0.0000
# 6 0.0000 0.0000 0.0000 0.0000 0.0000 10.9364
#
#
#
# Elastic Compliance Matrix: (Units=1/GPa)
#
#
# Indices 1 2 3 4 5 6 
#
# 1 0.028643 -0.011629 -0.007603 0.000000 0.000000 0.000000
# 2 -0.011629 0.017101 0.001480 0.000000 0.000000 0.000000
# 3 -0.007603 0.001480 0.012671 0.000000 0.000000 0.000000
# 4 0.000000 0.000000 0.000000 0.036859 0.000000 0.000000
# 5 0.000000 0.000000 0.000000 0.000000 0.030846 0.000000
# 6 0.000000 0.000000 0.000000 0.000000 0.000000 0.091438
#
#
# Mechanical properties :
#
#
# Convention : Reuss Voigt Hill
#
# Bulk Modulus (GPa) = 43.64681 43.92491 43.78586
# Shear Modulus (GPa) = 19.17925 24.52516 21.85221
#
# Velocity S-wave (km/s) = 3.15811 3.57123 3.37101
# Velocity P-wave (km/s) = 5.99964 6.31245 6.15803
#
# Compressibility (1/GPa) = 0.02291118
#
# Stress axis : x y z
#
# Youngs Moduli (GPa) = 34.91264 58.47663 78.91880
#
# Poissons Ratio (x) = 0.68001 0.60004
# Poissons Ratio (y) = 0.40599 -0.11681
# Poissons Ratio (z) = 0.26545 -0.08656
#
# Static dielectric constant tensor:
#      x y z
#    x 1.656160 0.000000 0.000000 
#    y 0.000000 1.659610 0.000000 
#    z 0.000000 0.000000 1.649900 
# 
# From -- ./inp_files/17841.got.cif
#   From: 2010.05.17/outbox.cif.g08.bks.cpg/sg40_9_cif.got.tgz:17841.got - 2010.06.03 18:35:42.
