data_PCOD9364958
_publ_section_title
;
Structure prediction by ZEFSAII (Michael W. Deem and Ramdas Pophale) SiO2 
 PCOD9364958
Probable space group: A M A 2
;
_chemical_formula_sum "Si O2"
_cell_formula_units_Z 64
_cell_length_a 13.522126
_cell_length_b 18.688527
_cell_length_c 11.684857
_cell_angle_alpha 90.000000
_cell_angle_beta 90.000000
_cell_angle_gamma 90.000000
_cell_volume 2952.864051
_symmetry_space_group_name_H-M "A M A 2"
_symmetry_group_IT_number 40
_symmetry_cell_setting 'orthorhombic'
loop_
_space_group_symop_operation_xyz
x,y,z
-x,-y,z
1/2-x,y,z
1/2+x,-y,z
x,1/2+y,1/2+z
-x,1/2-y,1/2+z
1/2-x,1/2+y,1/2+z
1/2+x,1/2-y,1/2+z
loop_
_atom_site_type_symbol
_atom_site_label
_atom_site_fract_x
_atom_site_fract_y
_atom_site_fract_z
Si Si1 0.141572 0.084762 0.402860
Si Si2 0.934236 0.305080 0.276168
Si Si3 0.919240 0.178673 0.114665
Si Si4 0.905207 0.041395 0.240043
Si Si5 0.134941 0.700994 0.517149
Si Si6 0.362673 0.252722 0.373520
Si Si7 0.634757 0.131651 0.458520
Si Si8 0.010913 0.572119 0.118553
O O1 0.250000 0.087971 0.454715
O O2 0.118450 0.167139 0.371558
O O3 0.071181 0.057611 0.502528
O O4 0.145547 0.027658 0.299324
O O5 0.049728 0.290012 0.303984
O O6 0.894861 0.232218 0.219274
O O7 0.880309 0.331450 0.390607
O O8 0.933045 0.365513 0.181614
O O9 0.877025 0.099990 0.144485
O O10 0.875453 0.215295 0.001147
O O11 0.040322 0.177475 0.094349
O O12 0.918596 0.094482 0.349936
O O13 0.000000 0.000000 0.193156
O O14 0.250000 0.691718 0.557175
O O15 0.117781 0.784658 0.483732
O O16 0.250000 0.264818 0.333356
O O17 0.750000 0.119891 0.437289
O O18 0.595704 0.096471 0.574309
O O19 0.000000 0.500000 0.188995
#
# Coordination Sequence:
#
# PCOD9364958 Si02
#       8
#     8   8   8   8   8   8   8   8
#     4  11  21  37  62  92 129 163 200 264 330 387
#     4  11  21  38  62  89 122 166 218 266 314 388
#     4  11  22  38  66  93 127 172 217 264 324 395
#     4  12  22  37  61  93 134 165 204 260 334 390
#     4  10  22  40  61  89 124 164 215 269 314 379
#     4  10  23  41  62  92 129 167 214 269 321 385
#     4  11  20  34  60  90 122 160 203 257 319 384
#     4  12  22  37  59  89 127 159 206 257 329 385
#
# _framework density 21.673873
#
# number of rings (size 3 to 8) (size 9 to 14) (size 15 to 20)
#    0.000    1.000    6.250    1.875    0.000    3.000 
#    0.000    3.750    0.000    1.500    0.000    0.000 
#    0.000    0.000    0.000    0.000    0.000    0.000 
#
# Total GULP energy -178370.705131 kJ/mol
# GULP energy per Si atom -5574.084535 kJ/mol
# Density = 2.162454 g / cm^3
# Si number density = 21.673873 Si / 1000 Ang^3
#
#
#
# Elastic Constant Matrix: (Units=GPa)
#
#
# Indices 1 2 3 4 5 6 
#
# 1 68.7749 12.8398 -1.7134 0.0000 0.0000 0.0000
# 2 12.8398 113.4959 20.7972 0.0000 0.0000 0.0000
# 3 -1.7134 20.7972 58.7885 0.0000 0.0000 0.0000
# 4 0.0000 0.0000 0.0000 35.1035 0.0000 0.0000
# 5 0.0000 0.0000 0.0000 0.0000 4.4404 0.0000
# 6 0.0000 0.0000 0.0000 0.0000 0.0000 10.5734
#
#
#
# Elastic Compliance Matrix: (Units=1/GPa)
#
#
# Indices 1 2 3 4 5 6 
#
# 1 0.014921 -0.001890 0.001104 0.000000 0.000000 0.000000
# 2 -0.001890 0.009661 -0.003473 0.000000 0.000000 0.000000
# 3 0.001104 -0.003473 0.018271 0.000000 0.000000 0.000000
# 4 0.000000 0.000000 0.000000 0.028487 0.000000 0.000000
# 5 0.000000 0.000000 0.000000 0.000000 0.225207 0.000000
# 6 0.000000 0.000000 0.000000 0.000000 0.000000 0.094577
#
#
# Mechanical properties :
#
#
# Convention : Reuss Voigt Hill
#
# Bulk Modulus (GPa) = 29.12600 33.87850 31.50225
# Shear Modulus (GPa) = 12.16288 23.96583 18.06435
#
# Velocity S-wave (km/s) = 2.37149 3.32889 2.89011
# Velocity P-wave (km/s) = 4.57887 5.51727 5.06983
#
# Compressibility (1/GPa) = 0.03433358
#
# Stress axis : x y z
#
# Youngs Moduli (GPa) = 67.02155 103.50788 54.73194
#
# Poissons Ratio (x) = 0.19565 -0.06040
# Poissons Ratio (y) = 0.12668 0.19007
# Poissons Ratio (z) = -0.07396 0.35947
#
# Static dielectric constant tensor:
#      x y z
#    x 1.831980 0.000000 0.000000 
#    y 0.000000 1.847150 0.000000 
#    z 0.000000 0.000000 1.797940 
# 
# From -- ./inp_files/12471.got.cif
#   From: 2010.05.17/outbox.cif.g08.bks.cpg/sg40_7_cif.got.tgz:12471.got - 2010.06.03 18:35:42.
