data_PCOD9364324
_publ_section_title
;
Structure prediction by ZEFSAII (Michael W. Deem and Ramdas Pophale) SiO2 
 PCOD9364324
Probable space group: A M A 2
;
_chemical_formula_sum "Si O2"
_cell_formula_units_Z 60
_cell_length_a 8.625455
_cell_length_b 26.993354
_cell_length_c 12.530984
_cell_angle_alpha 90.000000
_cell_angle_beta 90.000000
_cell_angle_gamma 90.000000
_cell_volume 2917.588506
_symmetry_space_group_name_H-M "A M A 2"
_symmetry_group_IT_number 40
_symmetry_cell_setting 'orthorhombic'
loop_
_space_group_symop_operation_xyz
x,y,z
-x,-y,z
1/2-x,y,z
1/2+x,-y,z
x,1/2+y,1/2+z
-x,1/2-y,1/2+z
1/2-x,1/2+y,1/2+z
1/2+x,1/2-y,1/2+z
loop_
_atom_site_type_symbol
_atom_site_label
_atom_site_fract_x
_atom_site_fract_y
_atom_site_fract_z
Si Si1 0.924272 0.184194 0.008980
Si Si2 0.500000 0.000000 0.135503
Si Si3 0.073316 0.579867 0.454904
Si Si4 0.936325 0.552719 0.224638
Si Si5 0.571053 0.926771 0.302999
Si Si6 0.564288 0.614231 0.019416
Si Si7 0.078841 0.184418 0.217056
Si Si8 0.569681 0.719664 0.922698
O O1 0.750000 0.191967 0.970816
O O2 0.942043 0.192075 0.134710
O O3 0.976268 0.128131 0.987034
O O4 0.038490 0.225698 0.964391
O O5 0.458185 0.958754 0.226667
O O6 0.573362 0.962003 0.048036
O O7 0.250000 0.595376 0.439611
O O8 0.006614 0.561065 0.342218
O O9 0.750000 0.551406 0.233827
O O10 0.000000 0.500000 0.185238
O O11 0.979745 0.593918 0.136186
O O12 0.750000 0.946541 0.299529
O O13 0.514753 0.917340 0.423885
O O14 0.578243 0.872762 0.250678
O O15 0.750000 0.607811 0.009026
O O16 0.531527 0.672757 0.000137
O O17 0.250000 0.196264 0.173110
O O18 0.042657 0.214072 0.322688
O O19 0.750000 0.713316 0.893736
#
# Coordination Sequence:
#
# PCOD9364324 Si02
#       8
#     8   4   8   8   8   8   8   8
#     4  12  25  41  64  95 129 169 215 266 324 391
#     4  12  24  40  64  96 130 168 214 262 326 388
#     4  12  26  45  67  94 129 171 219 271 325 386
#     4  11  24  43  65  93 130 172 218 266 319 382
#     4  10  22  39  63  93 126 165 209 260 318 378
#     4   9  22  43  66  95 129 167 213 264 318 380
#     4  10  20  40  63  90 127 165 209 265 322 381
#     4  10  21  41  66  93 126 167 213 268 329 386
#
# _framework density 20.56493
#
# number of rings (size 3 to 8) (size 9 to 14) (size 15 to 20)
#    0.000    1.333    2.000    3.200    0.933    5.867 
#    0.000    4.000    0.000    0.000    0.000    0.000 
#    0.000    0.000    0.000    0.000    0.000    0.000 
#
# Total GULP energy -167139.125156 kJ/mol
# GULP energy per Si atom -5571.304172 kJ/mol
# Density = 2.051812 g / cm^3
# Si number density = 20.564930 Si / 1000 Ang^3
#
#
#
# Elastic Constant Matrix: (Units=GPa)
#
#
# Indices 1 2 3 4 5 6 
#
# 1 59.3015 15.2581 12.3093 0.0000 0.0000 0.0000
# 2 15.2581 71.5334 24.2112 0.0000 0.0000 0.0000
# 3 12.3093 24.2112 52.7037 0.0000 0.0000 0.0000
# 4 0.0000 0.0000 0.0000 19.1579 0.0000 0.0000
# 5 0.0000 0.0000 0.0000 0.0000 17.7987 0.0000
# 6 0.0000 0.0000 0.0000 0.0000 0.0000 16.0862
#
#
#
# Elastic Compliance Matrix: (Units=1/GPa)
#
#
# Indices 1 2 3 4 5 6 
#
# 1 0.018215 -0.002896 -0.002924 0.000000 0.000000 0.000000
# 2 -0.002896 0.017014 -0.007139 0.000000 0.000000 0.000000
# 3 -0.002924 -0.007139 0.022937 0.000000 0.000000 0.000000
# 4 0.000000 0.000000 0.000000 0.052198 0.000000 0.000000
# 5 0.000000 0.000000 0.000000 0.000000 0.056184 0.000000
# 6 0.000000 0.000000 0.000000 0.000000 0.000000 0.062165
#
#
# Mechanical properties :
#
#
# Convention : Reuss Voigt Hill
#
# Bulk Modulus (GPa) = 31.01062 31.89953 31.45507
# Shear Modulus (GPa) = 18.84099 19.39258 19.11678
#
# Velocity S-wave (km/s) = 3.03012 3.07415 3.05221
# Velocity P-wave (km/s) = 5.23013 5.30526 5.26783
#
# Compressibility (1/GPa) = 0.03224702
#
# Stress axis : x y z
#
# Youngs Moduli (GPa) = 54.89998 58.77676 43.59833
#
# Poissons Ratio (x) = 0.17019 0.12748
# Poissons Ratio (y) = 0.15897 0.31127
# Poissons Ratio (z) = 0.16053 0.41963
#
# Static dielectric constant tensor:
#      x y z
#    x 1.719520 0.000000 0.000000 
#    y 0.000000 1.754610 0.000000 
#    z 0.000000 0.000000 1.742440 
# 
# From -- ./inp_files/10400.got.cif
#   From: 2010.05.17/outbox.cif.g08.bks.cpg/sg40_6_cif.got.tgz:10400.got - 2010.06.03 18:35:42.
