data_PCOD9364072
_publ_section_title
;
Structure prediction by ZEFSAII (Michael W. Deem and Ramdas Pophale) SiO2 
 PCOD9364072
Probable space group: A M A 2
;
_chemical_formula_sum "Si O2"
_cell_formula_units_Z 64
_cell_length_a 8.731898
_cell_length_b 25.806671
_cell_length_c 15.306853
_cell_angle_alpha 90.000000
_cell_angle_beta 90.000000
_cell_angle_gamma 90.000000
_cell_volume 3449.264912
_symmetry_space_group_name_H-M "A M A 2"
_symmetry_group_IT_number 40
_symmetry_cell_setting 'orthorhombic'
loop_
_space_group_symop_operation_xyz
x,y,z
-x,-y,z
1/2-x,y,z
1/2+x,-y,z
x,1/2+y,1/2+z
-x,1/2-y,1/2+z
1/2-x,1/2+y,1/2+z
1/2+x,1/2-y,1/2+z
loop_
_atom_site_type_symbol
_atom_site_label
_atom_site_fract_x
_atom_site_fract_y
_atom_site_fract_z
Si Si1 0.435787 0.867144 0.331810
Si Si2 0.932565 0.942406 0.476031
Si Si3 0.934716 0.652282 0.451325
Si Si4 0.069036 0.261352 0.925202
Si Si5 0.066380 0.832828 0.148960
Si Si6 0.064637 0.892676 0.651723
Si Si7 0.069050 0.276554 0.132351
Si Si8 0.434788 0.943890 0.833299
O O1 0.250000 0.870696 0.338334
O O2 0.508781 0.910459 0.392528
O O3 0.481286 0.810619 0.369164
O O4 0.482362 0.868055 0.230263
O O5 0.750000 0.944294 0.477120
O O6 0.992396 0.913853 0.563136
O O7 0.000000 0.000000 0.474875
O O8 0.750000 0.651974 0.451877
O O9 0.990400 0.652168 0.552238
O O10 0.986344 0.602086 0.397862
O O11 0.986829 0.706762 0.409987
O O12 0.250000 0.253963 0.911057
O O13 0.046899 0.276154 0.027241
O O14 0.250000 0.834540 0.146240
O O15 0.017749 0.773633 0.166792
O O16 0.250000 0.893337 0.642343
O O17 0.020025 0.832680 0.666549
O O18 0.021659 0.927207 0.734890
O O19 0.250000 0.270278 0.149403
O O20 0.250000 0.945872 0.836491
O O21 0.500000 0.000000 0.855271
#
# Coordination Sequence:
#
# PCOD9364072 Si02
#       8
#     8   8   8   8   8   8   8   8
#     4  10  20  37  57  81 116 153 188 231 282 333
#     4  12  25  40  60  84 112 149 190 236 285 341
#     4   9  19  36  55  80 112 145 187 234 282 328
#     4   9  17  31  52  78 108 145 181 221 275 330
#     4   9  19  34  55  81 115 152 186 231 278 330
#     4  10  20  37  57  81 115 152 186 227 282 338
#     4   9  17  31  52  78 113 149 180 220 273 333
#     4  10  22  38  57  79 108 147 190 236 283 331
#
# _framework density 18.554677999999999
#
# number of rings (size 3 to 8) (size 9 to 14) (size 15 to 20)
#    0.000    2.250    1.250    1.500    1.750    3.500 
#    0.000    0.625    0.000    1.500    0.000    0.000 
#    0.000    0.000    0.000    0.000    0.000    0.000 
#
# Total GULP energy -178618.464869 kJ/mol
# GULP energy per Si atom -5581.827027 kJ/mol
# Density = 1.851245 g / cm^3
# Si number density = 18.554678 Si / 1000 Ang^3
#
#
#
# Elastic Constant Matrix: (Units=GPa)
#
#
# Indices 1 2 3 4 5 6 
#
# 1 16.0656 21.0371 22.9968 0.0000 0.0000 0.0000
# 2 21.0371 105.5976 37.1761 0.0000 0.0000 0.0000
# 3 22.9968 37.1761 65.0732 0.0000 0.0000 0.0000
# 4 0.0000 0.0000 0.0000 28.6779 0.0000 0.0000
# 5 0.0000 0.0000 0.0000 0.0000 14.2480 0.0000
# 6 0.0000 0.0000 0.0000 0.0000 0.0000 32.4148
#
#
#
# Elastic Compliance Matrix: (Units=1/GPa)
#
#
# Indices 1 2 3 4 5 6 
#
# 1 0.138910 -0.013007 -0.041660 0.000000 0.000000 0.000000
# 2 -0.013007 0.013072 -0.002871 0.000000 0.000000 0.000000
# 3 -0.041660 -0.002871 0.031730 0.000000 0.000000 0.000000
# 4 0.000000 0.000000 0.000000 0.034870 0.000000 0.000000
# 5 0.000000 0.000000 0.000000 0.000000 0.070185 0.000000
# 6 0.000000 0.000000 0.000000 0.000000 0.000000 0.030850
#
#
# Mechanical properties :
#
#
# Convention : Reuss Voigt Hill
#
# Bulk Modulus (GPa) = 14.56960 38.79516 26.68238
# Shear Modulus (GPa) = 10.92720 22.10322 16.51521
#
# Velocity S-wave (km/s) = 2.42940 3.45519 2.98666
# Velocity P-wave (km/s) = 3.96719 6.07221 5.12886
#
# Compressibility (1/GPa) = 0.06863605
#
# Stress axis : x y z
#
# Youngs Moduli (GPa) = 7.19888 76.49915 31.51566
#
# Poissons Ratio (x) = 0.99503 1.31294
# Poissons Ratio (y) = 0.09364 0.09049
# Poissons Ratio (z) = 0.29990 0.21965
#
# Static dielectric constant tensor:
#      x y z
#    x 1.626200 0.000000 0.000000 
#    y 0.000000 1.610030 0.000000 
#    z 0.000000 0.000000 1.664690 
# 
# From -- ./inp_files/15653.got.cif
#   From: 2010.05.17/outbox.cif.g08.bks.cpg/sg40_8_cif.got.tgz:15653.got - 2010.06.03 18:35:42.
