data_PCOD9364483
_publ_section_title
;
Structure prediction by ZEFSAII (Michael W. Deem and Ramdas Pophale) SiO2 
 PCOD9364483
Probable space group: A M A 2
;
_chemical_formula_sum "Si O2"
_cell_formula_units_Z 48
_cell_length_a 10.689465
_cell_length_b 8.984612
_cell_length_c 23.928325
_cell_angle_alpha 90.000000
_cell_angle_beta 90.000000
_cell_angle_gamma 90.000000
_cell_volume 2298.092975
_symmetry_space_group_name_H-M "A M A 2"
_symmetry_group_IT_number 40
_symmetry_cell_setting 'orthorhombic'
loop_
_space_group_symop_operation_xyz
x,y,z
-x,-y,z
1/2-x,y,z
1/2+x,-y,z
x,1/2+y,1/2+z
-x,1/2-y,1/2+z
1/2-x,1/2+y,1/2+z
1/2+x,1/2-y,1/2+z
loop_
_atom_site_type_symbol
_atom_site_label
_atom_site_fract_x
_atom_site_fract_y
_atom_site_fract_z
Si Si1 0.604782 0.131693 0.883450
Si Si2 0.116371 0.887578 0.122950
Si Si3 0.030150 0.332841 0.185575
Si Si4 0.107202 0.626711 0.785786
Si Si5 0.530062 0.172351 0.004036
Si Si6 0.383167 0.395906 0.062219
O O1 0.750000 0.076492 0.879603
O O2 0.587228 0.258996 0.837061
O O3 0.587946 0.208651 0.944445
O O4 0.500000 0.000000 0.877132
O O5 0.250000 0.962393 0.131208
O O6 0.094390 0.755340 0.166593
O O7 0.110116 0.817951 0.060849
O O8 0.000000 0.000000 0.128389
O O9 0.095431 0.230649 0.231017
O O10 0.104327 0.347015 0.126859
O O11 0.000000 0.500000 0.205093
O O12 0.250000 0.566660 0.788884
O O13 0.000000 0.500000 0.784442
O O14 0.500000 0.000000 0.999274
O O15 0.404464 0.259271 0.020485
O O16 0.500000 0.500000 0.050628
O O17 0.250000 0.468344 0.053374
#
# Coordination Sequence:
#
# PCOD9364483 Si02
#       6
#     8   8   8   8   8   8
#     4  10  22  41  65  92 121 156 200 249 300 355
#     4  10  21  36  58  89 124 160 196 238 290 350
#     4  10  22  38  61  89 120 155 199 249 300 354
#     4  11  25  44  64  87 117 155 200 249 302 360
#     4   9  20  36  59  88 121 157 198 241 288 345
#     4  10  22  39  60  89 125 163 201 244 297 356
#
# _framework density 20.886883000000001
#
# number of rings (size 3 to 8) (size 9 to 14) (size 15 to 20)
#    0.000    2.000    0.000    2.000    0.000   20.667 
#    0.000    1.667    0.000    0.000    0.000    0.000 
#    0.000    0.000    0.000    0.000    0.000    0.000 
#
# Total GULP energy -133882.941205 kJ/mol
# GULP energy per Si atom -5578.455884 kJ/mol
# Density = 2.083934 g / cm^3
# Si number density = 20.886883 Si / 1000 Ang^3
#
#
#
# Elastic Constant Matrix: (Units=GPa)
#
#
# Indices 1 2 3 4 5 6 
#
# 1 186.2141 68.4247 29.9090 0.0000 0.0000 0.0000
# 2 68.4247 96.0683 38.4968 0.0000 0.0000 0.0000
# 3 29.9090 38.4968 87.3494 0.0000 0.0000 0.0000
# 4 0.0000 0.0000 0.0000 57.4258 0.0000 0.0000
# 5 0.0000 0.0000 0.0000 0.0000 -6.3588 0.0000
# 6 0.0000 0.0000 0.0000 0.0000 0.0000 27.9680
#
#
#
# Elastic Compliance Matrix: (Units=1/GPa)
#
#
# Indices 1 2 3 4 5 6 
#
# 1 0.007278 -0.005083 -0.000252 0.000000 0.000000 0.000000
# 2 -0.005083 0.016192 -0.005396 0.000000 0.000000 0.000000
# 3 -0.000252 -0.005396 0.013913 0.000000 0.000000 0.000000
# 4 0.000000 0.000000 0.000000 0.017414 0.000000 0.000000
# 5 0.000000 0.000000 0.000000 0.000000 -0.157262 0.000000
# 6 0.000000 0.000000 0.000000 0.000000 0.000000 0.035755
#
#
# Mechanical properties :
#
#
# Convention : Reuss Voigt Hill
#
# Bulk Modulus (GPa) = 62.80832 71.47698 67.14265
# Shear Modulus (GPa) = -125.18247 31.32708 -46.92770
#
# Velocity S-wave (km/s) = -7.75007 3.87698 -4.74514
# Velocity P-wave (km/s) = 7.06745 7.37134 1.48117
#
# Compressibility (1/GPa) = 0.01592146
#
# Stress axis : x y z
#
# Youngs Moduli (GPa) = 137.39238 61.75939 71.87775
#
# Poissons Ratio (x) = 0.31393 0.01811
# Poissons Ratio (y) = 0.69838 0.38783
# Poissons Ratio (z) = 0.03461 0.33323
#
# Static dielectric constant tensor:
#      x y z
#    x 1.786400 0.000000 0.000000 
#    y 0.000000 1.792230 0.000000 
#    z 0.000000 0.000000 1.763790 
# 
# From -- ./inp_files/24558.got.cif
#   From: 2010.05.17/outbox.cif.g08.bks.cpg/sg40_13_cif.got.tgz:24558.got - 2010.06.03 18:35:42.
