data_PCOD9364342
_publ_section_title
;
Structure prediction by ZEFSAII (Michael W. Deem and Ramdas Pophale) SiO2 
 PCOD9364342
Probable space group: A M A 2
;
_chemical_formula_sum "Si O2"
_cell_formula_units_Z 32
_cell_length_a 18.360913
_cell_length_b 14.344776
_cell_length_c 5.323595
_cell_angle_alpha 90.000000
_cell_angle_beta 90.000000
_cell_angle_gamma 90.000000
_cell_volume 1402.145402
_symmetry_space_group_name_H-M "A M A 2"
_symmetry_group_IT_number 40
_symmetry_cell_setting 'orthorhombic'
loop_
_space_group_symop_operation_xyz
x,y,z
-x,-y,z
1/2-x,y,z
1/2+x,-y,z
x,1/2+y,1/2+z
-x,1/2-y,1/2+z
1/2-x,1/2+y,1/2+z
1/2+x,1/2-y,1/2+z
loop_
_atom_site_type_symbol
_atom_site_label
_atom_site_fract_x
_atom_site_fract_y
_atom_site_fract_z
Si Si1 0.525079 0.697402 0.589470
Si Si2 0.832184 0.901479 0.766011
Si Si3 0.334042 0.414083 0.558799
Si Si4 0.602405 0.910315 0.262972
O O1 0.493008 0.740669 0.334076
O O2 0.608334 0.668049 0.546511
O O3 0.478311 0.604322 0.659614
O O4 0.750000 0.879370 0.691026
O O5 0.885755 0.874537 0.542889
O O6 0.850207 0.860777 0.042104
O O7 0.837320 0.012909 0.825367
O O8 0.250000 0.387883 0.598792
O O9 0.364711 0.485814 0.767904
#
# Coordination Sequence:
#
# PCOD9364342 Si02
#       4
#     8   8   8   8
#     4  12  27  44  62  97 142 178 211 262 337 406
#     4   9  18  35  67  98 118 153 217 278 316 358
#     4   9  22  44  70  95 125 171 227 277 321 378
#     4  10  20  40  67  93 123 168 222 273 312 380
#
# _framework density 22.822171999999998
#
# number of rings (size 3 to 8) (size 9 to 14) (size 15 to 20)
#    1.500    0.500    0.000    3.750    3.500    0.000 
#    4.500   10.000    0.000    0.000    0.000    0.000 
#    0.000    0.000    0.000    0.000    0.000    0.000 
#
# Total GULP energy -89088.436411 kJ/mol
# GULP energy per Si atom -5568.027276 kJ/mol
# Density = 2.277023 g / cm^3
# Si number density = 22.822172 Si / 1000 Ang^3
#
#
#
# Elastic Constant Matrix: (Units=GPa)
#
#
# Indices 1 2 3 4 5 6 
#
# 1 181.2072 55.1338 42.2020 0.0000 0.0000 0.0000
# 2 55.1338 73.3365 33.4939 0.0000 0.0000 0.0000
# 3 42.2020 33.4939 149.1480 0.0000 0.0000 0.0000
# 4 0.0000 0.0000 0.0000 11.1494 0.0000 0.0000
# 5 0.0000 0.0000 0.0000 0.0000 22.3094 0.0000
# 6 0.0000 0.0000 0.0000 0.0000 0.0000 18.2753
#
#
#
# Elastic Compliance Matrix: (Units=1/GPa)
#
#
# Indices 1 2 3 4 5 6 
#
# 1 0.007268 -0.005042 -0.000924 0.000000 0.000000 0.000000
# 2 -0.005042 0.018692 -0.002771 0.000000 0.000000 0.000000
# 3 -0.000924 -0.002771 0.007589 0.000000 0.000000 0.000000
# 4 0.000000 0.000000 0.000000 0.089691 0.000000 0.000000
# 5 0.000000 0.000000 0.000000 0.000000 0.044824 0.000000
# 6 0.000000 0.000000 0.000000 0.000000 0.000000 0.054719
#
#
# Mechanical properties :
#
#
# Convention : Reuss Voigt Hill
#
# Bulk Modulus (GPa) = 62.21195 73.92788 68.06992
# Shear Modulus (GPa) = 20.35719 28.53764 24.44741
#
# Velocity S-wave (km/s) = 2.98986 3.53998 3.27649
# Velocity P-wave (km/s) = 6.26400 7.01227 6.64867
#
# Compressibility (1/GPa) = 0.01607408
#
# Stress axis : x y z
#
# Youngs Moduli (GPa) = 137.59342 53.49981 131.77772
#
# Poissons Ratio (x) = 0.26973 0.12179
# Poissons Ratio (y) = 0.69371 0.36515
# Poissons Ratio (z) = 0.12717 0.14825
#
# Static dielectric constant tensor:
#      x y z
#    x 1.849560 0.000000 0.000000 
#    y 0.000000 1.937110 0.000000 
#    z 0.000000 0.000000 1.844790 
# 
# From -- ./inp_files/1619.got.cif
#   From: 2010.05.17/outbox.cif.g08.bks.cpg/sg40_1_cif.got.tgz:1619.got - 2010.06.03 18:35:42.
