data_PCOD9364582
_publ_section_title
;
Structure prediction by ZEFSAII (Michael W. Deem and Ramdas Pophale) SiO2 
 PCOD9364582
Probable space group: A M A 2
;
_chemical_formula_sum "Si O2"
_cell_formula_units_Z 64
_cell_length_a 14.000250
_cell_length_b 9.606928
_cell_length_c 23.108444
_cell_angle_alpha 90.000000
_cell_angle_beta 90.000000
_cell_angle_gamma 90.000000
_cell_volume 3108.071708
_symmetry_space_group_name_H-M "A M A 2"
_symmetry_group_IT_number 40
_symmetry_cell_setting 'orthorhombic'
loop_
_space_group_symop_operation_xyz
x,y,z
-x,-y,z
1/2-x,y,z
1/2+x,-y,z
x,1/2+y,1/2+z
-x,1/2-y,1/2+z
1/2-x,1/2+y,1/2+z
1/2+x,1/2-y,1/2+z
loop_
_atom_site_type_symbol
_atom_site_label
_atom_site_fract_x
_atom_site_fract_y
_atom_site_fract_z
Si Si1 0.466877 0.841903 0.119210
Si Si2 0.136787 0.705117 0.874716
Si Si3 0.360626 0.879259 0.628629
Si Si4 0.862057 0.849421 0.705380
Si Si5 0.984839 0.844835 0.821072
Si Si6 0.640489 0.602214 0.875482
Si Si7 0.354529 0.850778 0.503807
Si Si8 0.965981 0.156833 0.986979
O O1 0.560583 0.742367 0.128366
O O2 0.390741 0.777541 0.163424
O O3 0.500000 0.000000 0.130419
O O4 0.425886 0.838975 0.053047
O O5 0.250000 0.710112 0.879473
O O6 0.108597 0.548634 0.855039
O O7 0.093189 0.769767 0.934862
O O8 0.093314 0.792738 0.821997
O O9 0.250000 0.832439 0.637444
O O10 0.366451 0.936468 0.562357
O O11 0.379400 0.005680 0.671557
O O12 0.750000 0.842613 0.720802
O O13 0.929847 0.847336 0.760949
O O14 0.924838 0.733504 0.859601
O O15 0.000000 0.000000 0.844125
O O16 0.750000 0.632591 0.857754
O O17 0.642456 0.568807 0.944111
O O18 0.250000 0.782040 0.507170
O O19 0.436731 0.740811 0.496549
O O20 0.000000 0.000000 0.973735
#
# Coordination Sequence:
#
# PCOD9364582 Si02
#       8
#     8   8   8   8   8   8   8   8
#     4  10  22  39  64  98 138 174 214 267 334 397
#     4  11  25  41  62  94 131 173 221 273 332 396
#     4   9  19  38  63  93 129 169 221 271 322 386
#     4  11  25  45  69  96 126 172 229 282 331 395
#     4  12  25  44  66  91 130 173 224 276 333 395
#     4  10  22  40  63  94 128 168 215 268 332 394
#     4   9  18  33  60  91 124 168 212 263 324 385
#     4  10  21  38  59  95 138 179 216 266 329 399
#
# _framework density 20.591546000000001
#
# number of rings (size 3 to 8) (size 9 to 14) (size 15 to 20)
#    0.000    1.750    1.250    2.250    1.750    3.500 
#    0.000    3.125    0.000    0.000    0.000    0.000 
#    0.000    0.000    0.000    0.000    0.000    0.000 
#
# Total GULP energy -178288.966669 kJ/mol
# GULP energy per Si atom -5571.530208 kJ/mol
# Density = 2.054468 g / cm^3
# Si number density = 20.591546 Si / 1000 Ang^3
#
#
#
# Elastic Constant Matrix: (Units=GPa)
#
#
# Indices 1 2 3 4 5 6 
#
# 1 100.0909 41.1299 45.1877 0.0000 0.0000 0.0000
# 2 41.1299 114.8311 37.4764 0.0000 0.0000 0.0000
# 3 45.1877 37.4764 111.5271 0.0000 0.0000 0.0000
# 4 0.0000 0.0000 0.0000 17.4191 0.0000 0.0000
# 5 0.0000 0.0000 0.0000 0.0000 33.6634 0.0000
# 6 0.0000 0.0000 0.0000 0.0000 0.0000 16.1381
#
#
#
# Elastic Compliance Matrix: (Units=1/GPa)
#
#
# Indices 1 2 3 4 5 6 
#
# 1 0.013298 -0.003375 -0.004254 0.000000 0.000000 0.000000
# 2 -0.003375 0.010638 -0.002207 0.000000 0.000000 0.000000
# 3 -0.004254 -0.002207 0.011432 0.000000 0.000000 0.000000
# 4 0.000000 0.000000 0.000000 0.057408 0.000000 0.000000
# 5 0.000000 0.000000 0.000000 0.000000 0.029706 0.000000
# 6 0.000000 0.000000 0.000000 0.000000 0.000000 0.061965
#
#
# Mechanical properties :
#
#
# Convention : Reuss Voigt Hill
#
# Bulk Modulus (GPa) = 63.71240 63.78190 63.74715
# Shear Modulus (GPa) = 23.88341 26.95448 25.41894
#
# Velocity S-wave (km/s) = 3.40937 3.62195 3.51727
# Velocity P-wave (km/s) = 6.81958 6.96659 6.89348
#
# Compressibility (1/GPa) = 0.01569553
#
# Stress axis : x y z
#
# Youngs Moduli (GPa) = 75.19779 94.00668 87.47581
#
# Poissons Ratio (x) = 0.31725 0.37213
# Poissons Ratio (y) = 0.25378 0.19307
# Poissons Ratio (z) = 0.31990 0.20749
#
# Static dielectric constant tensor:
#      x y z
#    x 1.760700 0.000000 0.000000 
#    y 0.000000 1.850990 0.000000 
#    z 0.000000 0.000000 1.809900 
# 
# From -- ./inp_files/24788.got.cif
#   From: 2010.05.17/outbox.cif.g08.bks.cpg/sg40_13_cif.got.tgz:24788.got - 2010.06.03 18:35:42.
