data_PCOD9364156
_publ_section_title
;
Structure prediction by ZEFSAII (Michael W. Deem and Ramdas Pophale) SiO2 
 PCOD9364156
Probable space group: A M A 2
;
_chemical_formula_sum "Si O2"
_cell_formula_units_Z 64
_cell_length_a 29.141020
_cell_length_b 9.680179
_cell_length_c 11.182482
_cell_angle_alpha 90.000000
_cell_angle_beta 90.000000
_cell_angle_gamma 90.000000
_cell_volume 3154.469589
_symmetry_space_group_name_H-M "A M A 2"
_symmetry_group_IT_number 40
_symmetry_cell_setting 'orthorhombic'
loop_
_space_group_symop_operation_xyz
x,y,z
-x,-y,z
1/2-x,y,z
1/2+x,-y,z
x,1/2+y,1/2+z
-x,1/2-y,1/2+z
1/2-x,1/2+y,1/2+z
1/2+x,1/2-y,1/2+z
loop_
_atom_site_type_symbol
_atom_site_label
_atom_site_fract_x
_atom_site_fract_y
_atom_site_fract_z
Si Si1 0.526829 0.874288 0.937630
Si Si2 0.699050 0.183900 0.228836
Si Si3 0.923478 0.346981 0.660322
Si Si4 0.701100 0.129704 0.507176
Si Si5 0.602024 0.546377 0.095943
Si Si6 0.462685 0.619913 0.923070
Si Si7 0.670442 0.932925 0.067285
Si Si8 0.120822 0.115479 0.820121
O O1 0.489855 0.756199 0.960889
O O2 0.572184 0.822219 0.865597
O O3 0.500000 0.000000 0.874319
O O4 0.546862 0.930395 0.063428
O O5 0.750000 0.249630 0.212510
O O6 0.700421 0.121012 0.363101
O O7 0.693107 0.068195 0.125507
O O8 0.655297 0.285650 0.244941
O O9 0.941669 0.352125 0.793060
O O10 0.871590 0.399660 0.655661
O O11 0.922338 0.194544 0.601545
O O12 0.750000 0.071407 0.549693
O O13 0.653938 0.063768 0.550047
O O14 0.698807 0.290792 0.549779
O O15 0.605757 0.503276 0.232322
O O16 0.574678 0.436121 0.016896
O O17 0.500000 0.500000 0.911063
O O18 0.647720 0.944520 0.935171
#
# Coordination Sequence:
#
# PCOD9364156 Si02
#       8
#     8   8   8   8   8   8   8   8
#     4  11  24  42  62  90 126 170 223 271 332 401
#     4  10  20  37  64  92 120 162 215 266 318 392
#     4  10  22  39  59  91 122 162 218 266 324 385
#     4   9  19  37  62  90 123 165 210 264 325 389
#     4  11  23  41  60  92 130 165 213 273 328 396
#     4  12  25  39  67  92 126 172 218 272 333 392
#     4   9  19  37  62  88 124 162 213 263 320 388
#     4  10  24  39  61  87 131 166 209 270 337 386
#
# _framework density 20.288671000000001
#
# number of rings (size 3 to 8) (size 9 to 14) (size 15 to 20)
#    0.000    1.750    1.250    3.000    3.500    4.500 
#    0.000    0.000    0.000    0.000    0.000    0.000 
#    0.000    0.000    0.000    0.000    0.000    0.000 
#
# Total GULP energy -178352.907011 kJ/mol
# GULP energy per Si atom -5573.528344 kJ/mol
# Density = 2.024249 g / cm^3
# Si number density = 20.288671 Si / 1000 Ang^3
#
#
#
# Elastic Constant Matrix: (Units=GPa)
#
#
# Indices 1 2 3 4 5 6 
#
# 1 137.9411 41.7895 35.0145 0.0000 0.0000 0.0000
# 2 41.7895 67.3679 11.2405 0.0000 0.0000 0.0000
# 3 35.0145 11.2405 49.4393 0.0000 0.0000 0.0000
# 4 0.0000 0.0000 0.0000 29.9049 0.0000 0.0000
# 5 0.0000 0.0000 0.0000 0.0000 -16.4368 0.0000
# 6 0.0000 0.0000 0.0000 0.0000 0.0000 11.1245
#
#
#
# Elastic Compliance Matrix: (Units=1/GPa)
#
#
# Indices 1 2 3 4 5 6 
#
# 1 0.010473 -0.005466 -0.006174 0.000000 0.000000 0.000000
# 2 -0.005466 0.018282 -0.000285 0.000000 0.000000 0.000000
# 3 -0.006174 -0.000285 0.024665 0.000000 0.000000 0.000000
# 4 0.000000 0.000000 0.000000 0.033439 0.000000 0.000000
# 5 0.000000 0.000000 0.000000 0.000000 -0.060839 0.000000
# 6 0.000000 0.000000 0.000000 0.000000 0.000000 0.089892
#
#
# Mechanical properties :
#
#
# Convention : Reuss Voigt Hill
#
# Bulk Modulus (GPa) = 33.82055 47.87081 40.84568
# Shear Modulus (GPa) = 33.41822 16.03212 24.72517
#
# Velocity S-wave (km/s) = 4.06290 2.81410 3.49473
# Velocity P-wave (km/s) = 6.22217 5.84850 6.03822
#
# Compressibility (1/GPa) = 0.02956782
#
# Stress axis : x y z
#
# Youngs Moduli (GPa) = 95.48613 54.69789 40.54408
#
# Poissons Ratio (x) = 0.29899 0.25033
# Poissons Ratio (y) = 0.52195 0.01157
# Poissons Ratio (z) = 0.58956 0.01561
#
# Static dielectric constant tensor:
#      x y z
#    x 1.784970 0.000000 0.000000 
#    y 0.000000 1.743150 0.000000 
#    z 0.000000 0.000000 1.718470 
# 
# From -- ./inp_files/14412.got.cif
#   From: 2010.05.17/outbox.cif.g08.bks.cpg/sg40_8_cif.got.tgz:14412.got - 2010.06.03 18:35:42.
