data_PCOD9364846
_publ_section_title
;
Structure prediction by ZEFSAII (Michael W. Deem and Ramdas Pophale) SiO2 
 PCOD9364846
Probable space group: A M A 2
;
_chemical_formula_sum "Si O2"
_cell_formula_units_Z 40
_cell_length_a 18.877831
_cell_length_b 6.908071
_cell_length_c 13.450771
_cell_angle_alpha 90.000000
_cell_angle_beta 90.000000
_cell_angle_gamma 90.000000
_cell_volume 1754.106934
_symmetry_space_group_name_H-M "A M A 2"
_symmetry_group_IT_number 40
_symmetry_cell_setting 'orthorhombic'
loop_
_space_group_symop_operation_xyz
x,y,z
-x,-y,z
1/2-x,y,z
1/2+x,-y,z
x,1/2+y,1/2+z
-x,1/2-y,1/2+z
1/2-x,1/2+y,1/2+z
1/2+x,1/2-y,1/2+z
loop_
_atom_site_type_symbol
_atom_site_label
_atom_site_fract_x
_atom_site_fract_y
_atom_site_fract_z
Si Si1 0.132193 0.262361 0.040430
Si Si2 0.750000 0.613280 0.897326
Si Si3 0.015226 0.272230 0.623652
Si Si4 0.250000 0.426581 0.358022
Si Si5 0.250000 0.650029 0.694605
Si Si6 0.500000 0.000000 0.781620
Si Si7 0.101908 0.871315 0.939062
O O1 0.182454 0.150451 0.120804
O O2 0.060619 0.325278 0.095894
O O3 0.181373 0.399949 0.971860
O O4 0.101454 0.098067 0.967914
O O5 0.750000 0.494481 0.791678
O O6 0.750000 0.843187 0.869796
O O7 0.068408 0.263014 0.531566
O O8 0.000000 0.500000 0.643397
O O9 0.043342 0.156289 0.717546
O O10 0.250000 0.362020 0.244518
O O11 0.181812 0.334002 0.409773
O O12 0.448664 0.864257 0.845195
#
# Coordination Sequence:
#
# PCOD9364846 Si02
#       7
#     8   4   8   4   4   4   8
#     4   9  19  40  58  86 128 160 201 262 300 356
#     4   9  21  37  62  84 124 169 194 256 314 347
#     4  10  22  41  62  90 126 164 206 259 307 366
#     4  10  22  38  62  90 120 160 203 254 303 368
#     4  11  21  37  62  90 120 161 213 242 307 373
#     4  12  22  40  68  90 120 170 210 246 318 366
#     4  10  21  43  61  88 129 157 203 262 301 364
#
# _framework density 22.803626999999999
#
# number of rings (size 3 to 8) (size 9 to 14) (size 15 to 20)
#    0.000    2.000    3.000    1.800    0.000    8.000 
#    1.800    9.000    0.000    0.000    0.000    0.000 
#    0.000    0.000    0.000    0.000    0.000    0.000 
#
# Total GULP energy -111535.394803 kJ/mol
# GULP energy per Si atom -5576.769740 kJ/mol
# Density = 2.275173 g / cm^3
# Si number density = 22.803627 Si / 1000 Ang^3
#
#
#
# Elastic Constant Matrix: (Units=GPa)
#
#
# Indices 1 2 3 4 5 6 
#
# 1 109.2518 -5.2812 25.2247 0.0000 0.0000 0.0000
# 2 -5.2812 67.7287 27.1025 0.0000 0.0000 0.0000
# 3 25.2247 27.1025 114.2292 0.0000 0.0000 0.0000
# 4 0.0000 0.0000 0.0000 46.8742 0.0000 0.0000
# 5 0.0000 0.0000 0.0000 0.0000 14.0699 0.0000
# 6 0.0000 0.0000 0.0000 0.0000 0.0000 -5.5687
#
#
#
# Elastic Compliance Matrix: (Units=1/GPa)
#
#
# Indices 1 2 3 4 5 6 
#
# 1 0.009841 0.001809 -0.002602 0.000000 0.000000 0.000000
# 2 0.001809 0.016646 -0.004349 0.000000 0.000000 0.000000
# 3 -0.002602 -0.004349 0.010361 0.000000 0.000000 0.000000
# 4 0.000000 0.000000 0.000000 0.021334 0.000000 0.000000
# 5 0.000000 0.000000 0.000000 0.000000 0.071073 0.000000
# 6 0.000000 0.000000 0.000000 0.000000 0.000000 -0.179574
#
#
# Mechanical properties :
#
#
# Convention : Reuss Voigt Hill
#
# Bulk Modulus (GPa) = 37.64596 42.81132 40.22864
# Shear Modulus (GPa) = -160.36315 27.35265 -66.50525
#
# Velocity S-wave (km/s) = -8.39501 3.46712 -5.40626
# Velocity P-wave (km/s) = 8.79907 5.90276 4.61417
#
# Compressibility (1/GPa) = 0.02656327
#
# Stress axis : x y z
#
# Youngs Moduli (GPa) = 101.61091 60.07406 96.51704
#
# Poissons Ratio (x) = -0.10866 0.25118
# Poissons Ratio (y) = -0.18379 0.41975
# Poissons Ratio (z) = 0.26443 0.26126
#
# Static dielectric constant tensor:
#      x y z
#    x 1.880140 0.000000 0.000000 
#    y 0.000000 1.866620 0.000000 
#    z 0.000000 0.000000 1.941690 
# 
# From -- ./inp_files/13461.got.cif
#   From: 2010.05.17/outbox.cif.g08.bks.cpg/sg40_7_cif.got.tgz:13461.got - 2010.06.03 18:35:42.
