data_PCOD9364682
_publ_section_title
;
Structure prediction by ZEFSAII (Michael W. Deem and Ramdas Pophale) SiO2 
 PCOD9364682
Probable space group: A M A 2
;
_chemical_formula_sum "Si O2"
_cell_formula_units_Z 56
_cell_length_a 22.457419
_cell_length_b 9.867328
_cell_length_c 11.110632
_cell_angle_alpha 90.000000
_cell_angle_beta 90.000000
_cell_angle_gamma 90.000000
_cell_volume 2462.057379
_symmetry_space_group_name_H-M "A M A 2"
_symmetry_group_IT_number 40
_symmetry_cell_setting 'orthorhombic'
loop_
_space_group_symop_operation_xyz
x,y,z
-x,-y,z
1/2-x,y,z
1/2+x,-y,z
x,1/2+y,1/2+z
-x,1/2-y,1/2+z
1/2-x,1/2+y,1/2+z
1/2+x,1/2-y,1/2+z
loop_
_atom_site_type_symbol
_atom_site_label
_atom_site_fract_x
_atom_site_fract_y
_atom_site_fract_z
Si Si1 0.461052 0.676352 0.052780
Si Si2 0.638154 0.915756 0.743971
Si Si3 0.896193 0.546121 0.495770
Si Si4 0.886305 0.409123 0.848913
Si Si5 0.315660 0.438749 0.029478
Si Si6 0.682159 0.124883 0.202082
Si Si7 0.410572 0.738319 0.613214
O O1 0.418954 0.622401 0.160157
O O2 0.528089 0.680828 0.099312
O O3 0.445100 0.594027 0.931017
O O4 0.440677 0.828080 0.013554
O O5 0.617813 0.991015 0.863547
O O6 0.679559 0.013519 0.666182
O O7 0.673917 0.775582 0.751249
O O8 0.836839 0.600849 0.563806
O O9 0.919791 0.412252 0.562660
O O10 0.868381 0.539812 0.771819
O O11 0.889477 0.288442 0.751278
O O12 0.835374 0.429563 0.951179
O O13 0.250000 0.395133 0.995400
O O14 0.362473 0.315818 0.030805
O O15 0.750000 0.077676 0.219236
#
# Coordination Sequence:
#
# PCOD9364682 Si02
#       7
#     8   8   8   8   8   8   8
#     4  10  23  43  64  97 135 174 227 285 346 422
#     4  10  22  41  66  97 135 180 226 281 346 402
#     4  10  22  41  62  96 134 177 224 281 345 405
#     4  10  23  42  65  94 133 174 220 281 348 401
#     4  11  24  43  66  97 133 176 229 281 341 418
#     4  10  21  39  63  95 134 179 231 280 339 415
#     4  11  24  42  66 102 130 178 226 280 350 415
#
# _framework density 22.745207000000001
#
# number of rings (size 3 to 8) (size 9 to 14) (size 15 to 20)
#    0.000    1.714    0.000    3.000    2.000    6.286 
#   10.286    0.714    0.000    0.000    0.000    0.000 
#    0.000    0.000    0.000    0.000    0.000    0.000 
#
# Total GULP energy -156174.081513 kJ/mol
# GULP energy per Si atom -5577.645768 kJ/mol
# Density = 2.269344 g / cm^3
# Si number density = 22.745207 Si / 1000 Ang^3
#
#
#
# Elastic Constant Matrix: (Units=GPa)
#
#
# Indices 1 2 3 4 5 6 
#
# 1 135.2533 42.5065 40.2344 0.0000 0.0000 0.0000
# 2 42.5065 101.2242 34.9776 0.0000 0.0000 0.0000
# 3 40.2344 34.9776 146.2146 0.0000 0.0000 0.0000
# 4 0.0000 0.0000 0.0000 27.5260 0.0000 0.0000
# 5 0.0000 0.0000 0.0000 0.0000 13.9392 0.0000
# 6 0.0000 0.0000 0.0000 0.0000 0.0000-1200.4336
#
#
#
# Elastic Compliance Matrix: (Units=1/GPa)
#
#
# Indices 1 2 3 4 5 6 
#
# 1 0.008886 -0.003147 -0.001692 0.000000 0.000000 0.000000
# 2 -0.003147 0.011884 -0.001977 0.000000 0.000000 0.000000
# 3 -0.001692 -0.001977 0.007778 0.000000 0.000000 0.000000
# 4 0.000000 0.000000 0.000000 0.036329 0.000000 0.000000
# 5 0.000000 0.000000 0.000000 0.000000 0.071740 0.000000
# 6 0.000000 0.000000 0.000000 0.000000 0.000000 -0.000833
#
#
# Mechanical properties :
#
#
# Convention : Reuss Voigt Hill
#
# Bulk Modulus (GPa) = 67.04479 68.68100 67.86289
# Shear Modulus (GPa) = 32.38604 -214.12879 -90.87138
#
# Velocity S-wave (km/s) = 3.77750 -9.71323 -6.32761
# Velocity P-wave (km/s) = 6.96897 9.77417 4.84602
#
# Compressibility (1/GPa) = 0.01491540
#
# Stress axis : x y z
#
# Youngs Moduli (GPa) = 112.53815 84.15022 128.56946
#
# Poissons Ratio (x) = 0.26479 0.21759
# Poissons Ratio (y) = 0.35411 0.25417
# Poissons Ratio (z) = 0.19046 0.16636
#
# Static dielectric constant tensor:
#      x y z
#    x 1.861790 0.000000 0.000000 
#    y 0.000000 1.876820 0.000000 
#    z 0.000000 0.000000 1.952500 
# 
# From -- ./inp_files/13580.got.cif
#   From: 2010.05.17/outbox.cif.g08.bks.cpg/sg40_7_cif.got.tgz:13580.got - 2010.06.03 18:35:42.
