data_PCOD9364516
_publ_section_title
;
Structure prediction by ZEFSAII (Michael W. Deem and Ramdas Pophale) SiO2 
 PCOD9364516
Probable space group: A M A 2
;
_chemical_formula_sum "Si O2"
_cell_formula_units_Z 48
_cell_length_a 8.903477
_cell_length_b 31.495311
_cell_length_c 9.218176
_cell_angle_alpha 90.000000
_cell_angle_beta 90.000000
_cell_angle_gamma 90.000000
_cell_volume 2584.940423
_symmetry_space_group_name_H-M "A M A 2"
_symmetry_group_IT_number 40
_symmetry_cell_setting 'orthorhombic'
loop_
_space_group_symop_operation_xyz
x,y,z
-x,-y,z
1/2-x,y,z
1/2+x,-y,z
x,1/2+y,1/2+z
-x,1/2-y,1/2+z
1/2-x,1/2+y,1/2+z
1/2+x,1/2-y,1/2+z
loop_
_atom_site_type_symbol
_atom_site_label
_atom_site_fract_x
_atom_site_fract_y
_atom_site_fract_z
Si Si1 0.569466 0.625022 0.045220
Si Si2 0.430233 0.373758 0.384325
Si Si3 0.069317 0.790787 0.366921
Si Si4 0.570193 0.793657 0.048983
Si Si5 0.929566 0.454535 0.541025
Si Si6 0.571259 0.454740 0.883641
O O1 0.750000 0.620721 0.035226
O O2 0.530868 0.629810 0.214333
O O3 0.525948 0.667026 0.955799
O O4 0.494958 0.583645 0.976034
O O5 0.250000 0.374238 0.398339
O O6 0.496528 0.333998 0.471218
O O7 0.498079 0.416757 0.450008
O O8 0.250000 0.791724 0.346473
O O9 0.032606 0.748981 0.459859
O O10 0.990082 0.789994 0.212018
O O11 0.750000 0.798482 0.050431
O O12 0.750000 0.455442 0.522168
O O13 0.961654 0.447504 0.712491
O O14 0.000000 0.500000 0.501211
O O15 0.500000 0.500000 0.924454
O O16 0.750000 0.456873 0.900692
#
# Coordination Sequence:
#
# PCOD9364516 Si02
#       6
#     8   8   8   8   8   8
#     4  10  22  39  58  82 114 152 193 234 281 339
#     4  11  23  39  59  84 117 156 194 236 287 341
#     4  10  22  40  61  85 116 153 190 233 286 341
#     4  11  23  39  61  89 118 150 192 238 284 340
#     4  10  21  38  60  87 116 150 194 240 289 345
#     4  10  21  37  59  85 113 147 188 235 286 340
#
# _framework density 18.569092000000001
#
# number of rings (size 3 to 8) (size 9 to 14) (size 15 to 20)
#    0.000    1.667    0.000    4.000    0.000   10.000 
#    0.000    0.000    0.000    0.000    0.000    0.000 
#    0.000    0.000    0.000    0.000    0.000    0.000 
#
# Total GULP energy -134191.967589 kJ/mol
# GULP energy per Si atom -5591.331983 kJ/mol
# Density = 1.852683 g / cm^3
# Si number density = 18.569092 Si / 1000 Ang^3
#
#
#
# Elastic Constant Matrix: (Units=GPa)
#
#
# Indices 1 2 3 4 5 6 
#
# 1 56.6762 76.9828 79.5108 0.0000 0.0000 0.0000
# 2 76.9828 194.5296 128.7122 0.0000 0.0000 0.0000
# 3 79.5108 128.7122 168.9610 0.0000 0.0000 0.0000
# 4 0.0000 0.0000 0.0000 39.9616 0.0000 0.0000
# 5 0.0000 0.0000 0.0000 0.0000 32.5538 0.0000
# 6 0.0000 0.0000 0.0000 0.0000 0.0000 34.9485
#
#
#
# Elastic Compliance Matrix: (Units=1/GPa)
#
#
# Indices 1 2 3 4 5 6 
#
# 1 0.060726 -0.010330 -0.020707 0.000000 0.000000 0.000000
# 2 -0.010330 0.012122 -0.004373 0.000000 0.000000 0.000000
# 3 -0.020707 -0.004373 0.018995 0.000000 0.000000 0.000000
# 4 0.000000 0.000000 0.000000 0.025024 0.000000 0.000000
# 5 0.000000 0.000000 0.000000 0.000000 0.030718 0.000000
# 6 0.000000 0.000000 0.000000 0.000000 0.000000 0.028614
#
#
# Mechanical properties :
#
#
# Convention : Reuss Voigt Hill
#
# Bulk Modulus (GPa) = 47.57150 110.06426 78.81788
# Shear Modulus (GPa) = 19.68287 30.49018 25.08652
#
# Velocity S-wave (km/s) = 3.25927 4.05654 3.67956
# Velocity P-wave (km/s) = 6.31174 9.01899 7.78396
#
# Compressibility (1/GPa) = 0.02102099
#
# Stress axis : x y z
#
# Youngs Moduli (GPa) = 16.46740 82.49195 52.64648
#
# Poissons Ratio (x) = 0.85218 1.09017
# Poissons Ratio (y) = 0.17012 0.23024
# Poissons Ratio (z) = 0.34100 0.36076
#
# Static dielectric constant tensor:
#      x y z
#    x 1.620610 0.000000 0.000000 
#    y 0.000000 1.602430 0.000000 
#    z 0.000000 0.000000 1.614270 
# 
# From -- ./inp_files/4566.got.cif
#   From: 2010.05.17/outbox.cif.g08.bks.cpg/sg40_3_cif.got.tgz:4566.got - 2010.06.03 18:35:42.
