data_PCOD9364028
_publ_section_title
;
Structure prediction by ZEFSAII (Michael W. Deem and Ramdas Pophale) SiO2 
 PCOD9364028
Probable space group: A M A 2
;
_chemical_formula_sum "Si O2"
_cell_formula_units_Z 52
_cell_length_a 9.552617
_cell_length_b 15.773590
_cell_length_c 16.774589
_cell_angle_alpha 90.000000
_cell_angle_beta 90.000000
_cell_angle_gamma 90.000000
_cell_volume 2527.579369
_symmetry_space_group_name_H-M "A M A 2"
_symmetry_group_IT_number 40
_symmetry_cell_setting 'orthorhombic'
loop_
_space_group_symop_operation_xyz
x,y,z
-x,-y,z
1/2-x,y,z
1/2+x,-y,z
x,1/2+y,1/2+z
-x,1/2-y,1/2+z
1/2-x,1/2+y,1/2+z
1/2+x,1/2-y,1/2+z
loop_
_atom_site_type_symbol
_atom_site_label
_atom_site_fract_x
_atom_site_fract_y
_atom_site_fract_z
Si Si1 0.583866 0.722239 0.160320
Si Si2 0.586883 0.916106 0.135699
Si Si3 0.088237 0.581699 0.444297
Si Si4 0.534889 0.389077 0.868849
Si Si5 0.918906 0.914030 0.558112
Si Si6 0.904326 0.196816 0.841253
Si Si7 0.250000 0.466177 0.826952
O O1 0.750000 0.720518 0.136893
O O2 0.544457 0.822460 0.165625
O O3 0.488133 0.667296 0.101224
O O4 0.571995 0.681282 0.247749
O O5 0.750000 0.931745 0.155034
O O6 0.500000 0.000000 0.159110
O O7 0.575041 0.908556 0.039608
O O8 0.250000 0.571034 0.425229
O O9 0.000000 0.500000 0.420126
O O10 0.021262 0.659031 0.397777
O O11 0.593467 0.297022 0.851676
O O12 0.375239 0.396617 0.841737
O O13 0.630145 0.458791 0.826853
O O14 0.551685 0.406153 0.963576
O O15 0.750000 0.919558 0.569989
O O16 0.000000 0.000000 0.584822
O O17 0.750000 0.163737 0.863954
#
# Coordination Sequence:
#
# PCOD9364028 Si02
#       7
#     8   8   8   8   8   8   4
#     4  10  24  41  57  83 123 160 194 233 290 350
#     4   9  19  39  61  87 113 148 191 238 288 338
#     4  10  21  38  64  87 111 146 197 247 292 341
#     4  11  20  38  60  92 119 152 192 241 291 347
#     4  12  22  38  63  90 118 152 194 245 292 349
#     4  11  23  40  58  85 122 158 192 239 291 347
#     4  10  20  36  60  90 124 146 192 238 290 350
#
# _framework density 20.573042999999998
#
# number of rings (size 3 to 8) (size 9 to 14) (size 15 to 20)
#    0.000    1.538    3.077    1.846    2.154    2.462 
#    2.769    0.000    0.000    0.000    0.000    0.000 
#    0.000    0.000    0.000    0.000    0.000    0.000 
#
# Total GULP energy -144763.000024 kJ/mol
# GULP energy per Si atom -5567.807693 kJ/mol
# Density = 2.052622 g / cm^3
# Si number density = 20.573043 Si / 1000 Ang^3
#
#
#
# Elastic Constant Matrix: (Units=GPa)
#
#
# Indices 1 2 3 4 5 6 
#
# 1 159.2864 33.8534 47.5802 0.0000 0.0000 0.0000
# 2 33.8534 80.0256 34.8902 0.0000 0.0000 0.0000
# 3 47.5802 34.8902 65.9002 0.0000 0.0000 0.0000
# 4 0.0000 0.0000 0.0000 -88.9812 0.0000 0.0000
# 5 0.0000 0.0000 0.0000 0.0000 -0.6864 0.0000
# 6 0.0000 0.0000 0.0000 0.0000 0.0000 46.6941
#
#
#
# Elastic Compliance Matrix: (Units=1/GPa)
#
#
# Indices 1 2 3 4 5 6 
#
# 1 0.008083 -0.001138 -0.005234 0.000000 0.000000 0.000000
# 2 -0.001138 0.016406 -0.007865 0.000000 0.000000 0.000000
# 3 -0.005234 -0.007865 0.023117 0.000000 0.000000 0.000000
# 4 0.000000 0.000000 0.000000 -0.011238 0.000000 0.000000
# 5 0.000000 0.000000 0.000000 0.000000 -1.456817 0.000000
# 6 0.000000 0.000000 0.000000 0.000000 0.000000 0.021416
#
#
# Mechanical properties :
#
#
# Convention : Reuss Voigt Hill
#
# Bulk Modulus (GPa) = 52.26223 59.76221 56.01222
# Shear Modulus (GPa) = -3.66520 3.99787 0.16633
#
# Velocity S-wave (km/s) = -1.33620 1.39552 0.28465
# Velocity P-wave (km/s) = 4.80394 5.63103 5.23385
#
# Compressibility (1/GPa) = 0.01913428
#
# Stress axis : x y z
#
# Youngs Moduli (GPa) = 123.71425 60.95268 43.25783
#
# Poissons Ratio (x) = 0.06934 0.22640
# Poissons Ratio (y) = 0.14073 0.34021
# Poissons Ratio (z) = 0.64749 0.47938
#
# Static dielectric constant tensor:
#      x y z
#    x 1.723360 0.000000 0.000000 
#    y 0.000000 1.718980 0.000000 
#    z 0.000000 0.000000 1.792850 
# 
# From -- ./inp_files/22080.got.cif
#   From: 2010.05.17/outbox.cif.g08.bks.cpg/sg40_12_cif.got.tgz:22080.got - 2010.06.03 18:35:42.
