data_PCOD9364631
_publ_section_title
;
Structure prediction by ZEFSAII (Michael W. Deem and Ramdas Pophale) SiO2 
 PCOD9364631
Probable space group: A M A 2
;
_chemical_formula_sum "Si O2"
_cell_formula_units_Z 64
_cell_length_a 18.150494
_cell_length_b 28.608108
_cell_length_c 5.867939
_cell_angle_alpha 90.000000
_cell_angle_beta 90.000000
_cell_angle_gamma 90.000000
_cell_volume 3046.934911
_symmetry_space_group_name_H-M "A M A 2"
_symmetry_group_IT_number 40
_symmetry_cell_setting 'orthorhombic'
loop_
_space_group_symop_operation_xyz
x,y,z
-x,-y,z
1/2-x,y,z
1/2+x,-y,z
x,1/2+y,1/2+z
-x,1/2-y,1/2+z
1/2-x,1/2+y,1/2+z
1/2+x,1/2-y,1/2+z
loop_
_atom_site_type_symbol
_atom_site_label
_atom_site_fract_x
_atom_site_fract_y
_atom_site_fract_z
Si Si1 0.664975 0.558911 0.710620
Si Si2 0.464052 0.306974 0.239598
Si Si3 0.054146 0.136731 0.111191
Si Si4 0.331504 0.166615 0.477190
Si Si5 0.405733 0.353436 0.842608
Si Si6 0.403108 0.754236 0.107237
Si Si7 0.333678 0.081612 0.830442
Si Si8 0.662445 0.025702 0.709478
O O1 0.750000 0.542671 0.703664
O O2 0.658832 0.614544 0.751250
O O3 0.634488 0.545942 0.456485
O O4 0.633223 0.540048 0.955930
O O5 0.521682 0.330152 0.414826
O O6 0.400298 0.278107 0.361127
O O7 0.424607 0.348634 0.106550
O O8 0.516587 0.270575 0.109849
O O9 0.104198 0.095739 0.010969
O O10 0.106116 0.164435 0.285832
O O11 0.979573 0.123344 0.239492
O O12 0.250000 0.167790 0.376415
O O13 0.345271 0.212805 0.628173
O O14 0.338143 0.120809 0.633800
O O15 0.398851 0.298960 0.770746
O O16 0.250000 0.083675 0.926641
O O17 0.344695 0.030105 0.733012
O O18 0.750000 0.038110 0.702964
#
# Coordination Sequence:
#
# PCOD9364631 Si02
#       8
#     8   8   8   8   8   8   8   8
#     4  10  23  45  69  97 128 168 223 278 327 389
#     4  11  20  37  60  84 118 167 218 250 309 386
#     4  11  21  37  60  89 125 167 210 260 316 393
#     4  11  23  38  59  93 133 165 208 269 324 383
#     4  11  24  37  67  88 124 171 219 266 325 384
#     4  11  20  36  58  86 120 166 209 253 310 389
#     4  10  21  38  66  95 125 166 209 263 326 393
#     4   9  21  42  70  96 126 168 216 267 333 403
#
# _framework density 21.004714
#
# number of rings (size 3 to 8) (size 9 to 14) (size 15 to 20)
#    0.000    1.500    3.750    1.125    5.250    0.500 
#    0.000    1.250    0.000    0.000    0.000    0.000 
#    0.000    0.000    0.000    0.000    0.000    0.000 
#
# Total GULP energy -178218.404686 kJ/mol
# GULP energy per Si atom -5569.325146 kJ/mol
# Density = 2.095691 g / cm^3
# Si number density = 21.004714 Si / 1000 Ang^3
#
#
#
# Elastic Constant Matrix: (Units=GPa)
#
#
# Indices 1 2 3 4 5 6 
#
# 1 29.3969 3.8282 12.5509 0.0000 0.0000 0.0000
# 2 3.8282 80.5121 25.5843 0.0000 0.0000 0.0000
# 3 12.5509 25.5843 90.7411 0.0000 0.0000 0.0000
# 4 0.0000 0.0000 0.0000 27.5987 0.0000 0.0000
# 5 0.0000 0.0000 0.0000 0.0000 16.3365 0.0000
# 6 0.0000 0.0000 0.0000 0.0000 0.0000 14.0327
#
#
#
# Elastic Compliance Matrix: (Units=1/GPa)
#
#
# Indices 1 2 3 4 5 6 
#
# 1 0.036154 -0.000143 -0.004960 0.000000 0.000000 0.000000
# 2 -0.000143 0.013643 -0.003827 0.000000 0.000000 0.000000
# 3 -0.004960 -0.003827 0.012785 0.000000 0.000000 0.000000
# 4 0.000000 0.000000 0.000000 0.036234 0.000000 0.000000
# 5 0.000000 0.000000 0.000000 0.000000 0.061212 0.000000
# 6 0.000000 0.000000 0.000000 0.000000 0.000000 0.071262
#
#
# Mechanical properties :
#
#
# Convention : Reuss Voigt Hill
#
# Bulk Modulus (GPa) = 22.36025 31.61966 26.98995
# Shear Modulus (GPa) = 18.93523 22.17270 20.55397
#
# Velocity S-wave (km/s) = 3.00571 3.25253 3.13156
# Velocity P-wave (km/s) = 4.76594 5.40292 5.09440
#
# Compressibility (1/GPa) = 0.04472223
#
# Stress axis : x y z
#
# Youngs Moduli (GPa) = 27.65976 73.29558 78.21385
#
# Poissons Ratio (x) = 0.01047 0.38797
# Poissons Ratio (y) = 0.00395 0.29932
# Poissons Ratio (z) = 0.13720 0.28050
#
# Static dielectric constant tensor:
#      x y z
#    x 1.762140 0.000000 0.000000 
#    y 0.000000 1.767910 0.000000 
#    z 0.000000 0.000000 1.895320 
# 
# From -- ./inp_files/2475.got.cif
#   From: 2010.05.17/outbox.cif.g08.bks.cpg/sg40_2_cif.got.tgz:2475.got - 2010.06.03 18:35:42.
