data_PCOD9364837
_publ_section_title
;
Structure prediction by ZEFSAII (Michael W. Deem and Ramdas Pophale) SiO2 
 PCOD9364837
Probable space group: A M A 2
;
_chemical_formula_sum "Si O2"
_cell_formula_units_Z 60
_cell_length_a 9.274733
_cell_length_b 19.662353
_cell_length_c 14.924907
_cell_angle_alpha 90.000000
_cell_angle_beta 90.000000
_cell_angle_gamma 90.000000
_cell_volume 2721.751923
_symmetry_space_group_name_H-M "A M A 2"
_symmetry_group_IT_number 40
_symmetry_cell_setting 'orthorhombic'
loop_
_space_group_symop_operation_xyz
x,y,z
-x,-y,z
1/2-x,y,z
1/2+x,-y,z
x,1/2+y,1/2+z
-x,1/2-y,1/2+z
1/2-x,1/2+y,1/2+z
1/2+x,1/2-y,1/2+z
loop_
_atom_site_type_symbol
_atom_site_label
_atom_site_fract_x
_atom_site_fract_y
_atom_site_fract_z
Si Si1 0.750000 0.517981 0.304850
Si Si2 0.581081 0.068297 0.059267
Si Si3 0.421468 0.340983 0.080601
Si Si4 0.578347 0.431549 0.937448
Si Si5 0.422041 0.781071 0.013384
Si Si6 0.584748 0.608858 0.765763
Si Si7 0.088579 0.744354 0.338942
Si Si8 0.986904 0.401798 0.266345
O O1 0.876520 0.574719 0.323945
O O2 0.628040 0.461150 0.275824
O O3 0.750000 0.058711 0.039588
O O4 0.531828 0.140056 0.018856
O O5 0.565218 0.080586 0.166287
O O6 0.500000 0.000000 0.030905
O O7 0.250000 0.337556 0.068686
O O8 0.491747 0.265953 0.083774
O O9 0.454580 0.388299 0.165947
O O10 0.503156 0.374563 0.997232
O O11 0.500000 0.500000 0.967910
O O12 0.750000 0.433011 0.948227
O O13 0.530875 0.420109 0.834919
O O14 0.250000 0.776829 0.028933
O O15 0.468054 0.755212 0.915518
O O16 0.750000 0.591218 0.794523
O O17 0.573807 0.690794 0.773796
O O18 0.250000 0.750318 0.379605
O O19 0.075980 0.671165 0.293674
#
# Coordination Sequence:
#
# PCOD9364837 Si02
#       8
#     4   8   8   8   8   8   8   8
#     4  10  24  44  64  96 134 168 222 276 326 398
#     4  10  23  44  68  97 130 173 220 275 333 391
#     4  12  25  42  67  97 134 174 219 270 331 400
#     4  12  26  40  62  95 133 175 216 269 329 394
#     4  11  25  44  67  99 135 171 223 278 330 400
#     4  10  21  42  68  93 129 168 218 273 329 393
#     4  11  23  43  68  96 133 177 221 271 333 396
#     4  11  24  43  67  96 130 177 221 271 334 392
#
# _framework density 22.044626000000001
#
# number of rings (size 3 to 8) (size 9 to 14) (size 15 to 20)
#    0.000    1.067    2.667    3.200    4.667    3.733 
#    2.400    0.000    0.000    0.000    0.000    0.000 
#    0.000    0.000    0.000    0.000    0.000    0.000 
#
# Total GULP energy -167226.750921 kJ/mol
# GULP energy per Si atom -5574.225031 kJ/mol
# Density = 2.199445 g / cm^3
# Si number density = 22.044626 Si / 1000 Ang^3
#
#
#
# Elastic Constant Matrix: (Units=GPa)
#
#
# Indices 1 2 3 4 5 6 
#
# 1 150.5718 41.4173 7.1243 0.0000 0.0000 0.0000
# 2 41.4173 140.3994 -5.0000 0.0000 0.0000 0.0000
# 3 7.1243 -5.0000 28.0164 0.0000 0.0000 0.0000
# 4 0.0000 0.0000 0.0000 9.8634 0.0000 0.0000
# 5 0.0000 0.0000 0.0000 0.0000 16.2309 0.0000
# 6 0.0000 0.0000 0.0000 0.0000 0.0000 68.8469
#
#
#
# Elastic Compliance Matrix: (Units=1/GPa)
#
#
# Indices 1 2 3 4 5 6 
#
# 1 0.007369 -0.002255 -0.002276 0.000000 0.000000 0.000000
# 2 -0.002255 0.007858 0.001976 0.000000 0.000000 0.000000
# 3 -0.002276 0.001976 0.036625 0.000000 0.000000 0.000000
# 4 0.000000 0.000000 0.000000 0.101385 0.000000 0.000000
# 5 0.000000 0.000000 0.000000 0.000000 0.061611 0.000000
# 6 0.000000 0.000000 0.000000 0.000000 0.000000 0.014525
#
#
# Mechanical properties :
#
#
# Convention : Reuss Voigt Hill
#
# Bulk Modulus (GPa) = 21.39436 45.11897 33.25666
# Shear Modulus (GPa) = 19.99486 37.35133 28.67309
#
# Velocity S-wave (km/s) = 3.01494 4.12071 3.61041
# Velocity P-wave (km/s) = 4.67396 6.56901 5.70078
#
# Compressibility (1/GPa) = 0.04674129
#
# Stress axis : x y z
#
# Youngs Moduli (GPa) = 135.69758 127.25699 27.30381
#
# Poissons Ratio (x) = 0.28696 0.06215
# Poissons Ratio (y) = 0.30600 -0.05395
# Poissons Ratio (z) = 0.30890 -0.25144
#
# Static dielectric constant tensor:
#      x y z
#    x 1.747820 0.000000 0.000000 
#    y 0.000000 2.704720 0.000000 
#    z 0.000000 0.000000 1.883130 
# 
# From -- ./inp_files/19399.got.cif
#   From: 2010.05.17/outbox.cif.g08.bks.cpg/sg40_10_cif.got.tgz:19399.got - 2010.06.03 18:35:42.
