data_PCOD9364494
_publ_section_title
;
Structure prediction by ZEFSAII (Michael W. Deem and Ramdas Pophale) SiO2 
 PCOD9364494
Probable space group: A M A 2
;
_chemical_formula_sum "Si O2"
_cell_formula_units_Z 60
_cell_length_a 16.693523
_cell_length_b 13.554493
_cell_length_c 12.547664
_cell_angle_alpha 90.000000
_cell_angle_beta 90.000000
_cell_angle_gamma 90.000000
_cell_volume 2839.188048
_symmetry_space_group_name_H-M "A M A 2"
_symmetry_group_IT_number 40
_symmetry_cell_setting 'orthorhombic'
loop_
_space_group_symop_operation_xyz
x,y,z
-x,-y,z
1/2-x,y,z
1/2+x,-y,z
x,1/2+y,1/2+z
-x,1/2-y,1/2+z
1/2-x,1/2+y,1/2+z
1/2+x,1/2-y,1/2+z
loop_
_atom_site_type_symbol
_atom_site_label
_atom_site_fract_x
_atom_site_fract_y
_atom_site_fract_z
Si Si1 0.839934 0.425055 0.371060
Si Si2 0.659263 0.694936 0.932760
Si Si3 0.593598 0.023667 0.314688
Si Si4 0.337539 0.630357 0.986762
Si Si5 0.396526 0.769246 0.664498
Si Si6 0.910593 0.959465 0.094218
Si Si7 0.250000 0.264897 0.331647
Si Si8 0.956050 0.402238 0.175483
O O1 0.750000 0.457867 0.341421
O O2 0.839220 0.308911 0.399691
O O3 0.865288 0.473226 0.482976
O O4 0.902446 0.436460 0.275735
O O5 0.750000 0.657156 0.925824
O O6 0.604809 0.633490 0.854436
O O7 0.627035 0.682383 0.051611
O O8 0.500000 0.000000 0.308928
O O9 0.634050 0.949228 0.398646
O O10 0.628527 0.012154 0.196231
O O11 0.250000 0.598050 0.029770
O O12 0.399794 0.638981 0.081948
O O13 0.318810 0.729381 0.920731
O O14 0.411845 0.654771 0.632935
O O15 0.321386 0.779262 0.742503
O O16 0.476433 0.822579 0.705876
O O17 0.000000 0.000000 0.078761
O O18 0.000000 0.500000 0.133186
#
# Coordination Sequence:
#
# PCOD9364494 Si02
#       8
#     8   8   8   8   8   8   4   8
#     4  10  24  44  66  87 133 186 231 282 344 421
#     4  10  21  36  63  95 128 173 226 271 345 414
#     4  11  21  34  63 101 135 165 220 293 352 407
#     4  10  21  39  65  94 137 171 219 284 349 401
#     4  11  22  42  69  99 140 175 221 284 349 427
#     4  10  22  39  67  96 132 173 224 280 353 411
#     4  10  22  40  66 100 138 182 220 280 362 412
#     4  12  26  43  67  95 134 185 237 282 350 414
#
# _framework density 21.132802000000002
#
# number of rings (size 3 to 8) (size 9 to 14) (size 15 to 20)
#    0.400    1.067    2.000    3.200    4.667    3.200 
#    2.400    0.000    0.000    0.000    0.000    0.000 
#    0.000    0.000    0.000    0.000    0.000    0.000 
#
# Total GULP energy -167042.208917 kJ/mol
# GULP energy per Si atom -5568.073631 kJ/mol
# Density = 2.108470 g / cm^3
# Si number density = 21.132802 Si / 1000 Ang^3
#
#
#
# Elastic Constant Matrix: (Units=GPa)
#
#
# Indices 1 2 3 4 5 6 
#
# 1 135.9575 16.7670 56.5478 0.0000 0.0000 0.0000
# 2 16.7670 8.3168 24.6241 0.0000 0.0000 0.0000
# 3 56.5478 24.6241 123.4108 0.0000 0.0000 0.0000
# 4 0.0000 0.0000 0.0000 19.8788 0.0000 0.0000
# 5 0.0000 0.0000 0.0000 0.0000 5.2088 0.0000
# 6 0.0000 0.0000 0.0000 0.0000 0.0000 11.8965
#
#
#
# Elastic Compliance Matrix: (Units=1/GPa)
#
#
# Indices 1 2 3 4 5 6 
#
# 1 0.009880 -0.015920 -0.001351 0.000000 0.000000 0.000000
# 2 -0.015920 0.319460 -0.056447 0.000000 0.000000 0.000000
# 3 -0.001351 -0.056447 0.019985 0.000000 0.000000 0.000000
# 4 0.000000 0.000000 0.000000 0.050305 0.000000 0.000000
# 5 0.000000 0.000000 0.000000 0.000000 0.191982 0.000000
# 6 0.000000 0.000000 0.000000 0.000000 0.000000 0.084058
#
#
# Mechanical properties :
#
#
# Convention : Reuss Voigt Hill
#
# Bulk Modulus (GPa) = 4.95320 51.50698 28.23009
# Shear Modulus (GPa) = 5.61544 18.71324 12.16434
#
# Velocity S-wave (km/s) = 1.63186 2.97897 2.40180
# Velocity P-wave (km/s) = 2.42890 6.02149 4.59118
#
# Compressibility (1/GPa) = 0.20188970
#
# Stress axis : x y z
#
# Youngs Moduli (GPa) = 101.21074 3.13028 50.03794
#
# Poissons Ratio (x) = 0.04983 0.06759
# Poissons Ratio (y) = 1.61126 2.82450
# Poissons Ratio (z) = 0.13671 0.17670
#
# Static dielectric constant tensor:
#      x y z
#    x 1.909700 0.000000 0.000000 
#    y 0.000000 1.788060 0.000000 
#    z 0.000000 0.000000 1.739950 
# 
# From -- ./inp_files/13078.got.cif
#   From: 2010.05.17/outbox.cif.g08.bks.cpg/sg40_7_cif.got.tgz:13078.got - 2010.06.03 18:35:42.
