data_PCOD9364890
_publ_section_title
;
Structure prediction by ZEFSAII (Michael W. Deem and Ramdas Pophale) SiO2 
 PCOD9364890
Probable space group: A M A 2
;
_chemical_formula_sum "Si O2"
_cell_formula_units_Z 48
_cell_length_a 20.848925
_cell_length_b 11.089086
_cell_length_c 10.070932
_cell_angle_alpha 90.000000
_cell_angle_beta 90.000000
_cell_angle_gamma 90.000000
_cell_volume 2328.354384
_symmetry_space_group_name_H-M "A M A 2"
_symmetry_group_IT_number 40
_symmetry_cell_setting 'orthorhombic'
loop_
_space_group_symop_operation_xyz
x,y,z
-x,-y,z
1/2-x,y,z
1/2+x,-y,z
x,1/2+y,1/2+z
-x,1/2-y,1/2+z
1/2-x,1/2+y,1/2+z
1/2+x,1/2-y,1/2+z
loop_
_atom_site_type_symbol
_atom_site_label
_atom_site_fract_x
_atom_site_fract_y
_atom_site_fract_z
Si Si1 0.548705 0.283502 0.649300
Si Si2 0.178922 0.114008 0.768017
Si Si3 0.069181 0.001215 0.351018
Si Si4 0.322422 0.161586 0.474484
Si Si5 0.678649 0.670452 0.226696
Si Si6 0.945428 0.273949 0.354325
O O1 0.558050 0.413234 0.721914
O O2 0.618633 0.221702 0.646378
O O3 0.523795 0.286719 0.499723
O O4 0.499855 0.209801 0.743086
O O5 0.250000 0.139957 0.824818
O O6 0.171589 0.187299 0.630007
O O7 0.116170 0.141034 0.851666
O O8 0.177673 0.973135 0.730809
O O9 0.081336 0.861172 0.327430
O O10 0.124793 0.064816 0.432443
O O11 0.000000 0.000000 0.423386
O O12 0.250000 0.113403 0.455047
O O13 0.329157 0.274383 0.375292
O O14 0.750000 0.708419 0.179621
#
# Coordination Sequence:
#
# PCOD9364890 Si02
#       6
#     8   8   8   8   8   8
#     4  10  23  41  60  91 117 163 204 251 305 361
#     4  10  22  37  57  90 123 153 200 253 301 362
#     4   9  20  38  59  81 122 152 199 252 294 355
#     4   9  18  35  61  86 115 159 201 247 304 361
#     4   9  19  38  61  87 120 157 204 250 299 367
#     4  11  24  39  60  88 125 160 199 254 310 360
#
# _framework density 20.615418999999999
#
# number of rings (size 3 to 8) (size 9 to 14) (size 15 to 20)
#    0.000    2.333    0.000    1.000    7.000    3.333 
#    6.000    0.000    0.000    0.000    0.000    0.000 
#    0.000    0.000    0.000    0.000    0.000    0.000 
#
# Total GULP energy -133848.529314 kJ/mol
# GULP energy per Si atom -5577.022055 kJ/mol
# Density = 2.056850 g / cm^3
# Si number density = 20.615419 Si / 1000 Ang^3
#
#
#
# Elastic Constant Matrix: (Units=GPa)
#
#
# Indices 1 2 3 4 5 6 
#
# 1 106.3355 7.6522 42.2742 0.0000 0.0000 0.0000
# 2 7.6522 31.7113 -8.2411 0.0000 0.0000 0.0000
# 3 42.2742 -8.2411 88.6564 0.0000 0.0000 0.0000
# 4 0.0000 0.0000 0.0000 9.6951 0.0000 0.0000
# 5 0.0000 0.0000 0.0000 0.0000 29.5122 0.0000
# 6 0.0000 0.0000 0.0000 0.0000 0.0000 34.2678
#
#
#
# Elastic Compliance Matrix: (Units=1/GPa)
#
#
# Indices 1 2 3 4 5 6 
#
# 1 0.012219 -0.004573 -0.006251 0.000000 0.000000 0.000000
# 2 -0.004573 0.034027 0.005344 0.000000 0.000000 0.000000
# 3 -0.006251 0.005344 0.014757 0.000000 0.000000 0.000000
# 4 0.000000 0.000000 0.000000 0.103145 0.000000 0.000000
# 5 0.000000 0.000000 0.000000 0.000000 0.033884 0.000000
# 6 0.000000 0.000000 0.000000 0.000000 0.000000 0.029182
#
#
# Mechanical properties :
#
#
# Convention : Reuss Voigt Hill
#
# Bulk Modulus (GPa) = 19.98373 34.45266 27.21819
# Shear Modulus (GPa) = 19.61897 27.02955 23.32426
#
# Velocity S-wave (km/s) = 3.08825 3.62489 3.36728
# Velocity P-wave (km/s) = 4.73614 5.85389 5.32443
#
# Compressibility (1/GPa) = 0.05004071
#
# Stress axis : x y z
#
# Youngs Moduli (GPa) = 81.84310 29.38871 67.76441
#
# Poissons Ratio (x) = 0.13439 0.42361
# Poissons Ratio (y) = 0.37427 -0.36210
# Poissons Ratio (z) = 0.51162 -0.15704
#
# Static dielectric constant tensor:
#      x y z
#    x 1.760620 0.000000 0.000000 
#    y 0.000000 1.730400 0.000000 
#    z 0.000000 0.000000 1.760760 
# 
# From -- ./inp_files/8759.got.cif
#   From: 2010.05.17/outbox.cif.g08.bks.cpg/sg40_5_cif.got.tgz:8759.got - 2010.06.03 18:35:42.
