data_PCOD9364181
_publ_section_title
;
Structure prediction by ZEFSAII (Michael W. Deem and Ramdas Pophale) SiO2 
 PCOD9364181
Probable space group: A M A 2
;
_chemical_formula_sum "Si O2"
_cell_formula_units_Z 60
_cell_length_a 7.667079
_cell_length_b 31.762522
_cell_length_c 11.622968
_cell_angle_alpha 90.000000
_cell_angle_beta 90.000000
_cell_angle_gamma 90.000000
_cell_volume 2830.492179
_symmetry_space_group_name_H-M "A M A 2"
_symmetry_group_IT_number 40
_symmetry_cell_setting 'orthorhombic'
loop_
_space_group_symop_operation_xyz
x,y,z
-x,-y,z
1/2-x,y,z
1/2+x,-y,z
x,1/2+y,1/2+z
-x,1/2-y,1/2+z
1/2-x,1/2+y,1/2+z
1/2+x,1/2-y,1/2+z
loop_
_atom_site_type_symbol
_atom_site_label
_atom_site_fract_x
_atom_site_fract_y
_atom_site_fract_z
Si Si1 0.000000 0.500000 0.786990
Si Si2 0.456624 0.075422 0.148263
Si Si3 0.039503 0.122182 0.663168
Si Si4 0.044563 0.457037 0.006161
Si Si5 0.543845 0.378665 0.419443
Si Si6 0.044048 0.198653 0.516016
Si Si7 0.040722 0.839248 0.270529
Si Si8 0.960785 0.207059 0.039800
O O1 0.059430 0.464417 0.697324
O O2 0.059069 0.533633 0.887246
O O3 0.250000 0.063571 0.141736
O O4 0.472793 0.115224 0.233221
O O5 0.522536 0.092953 0.025251
O O6 0.250000 0.125091 0.669581
O O7 0.972296 0.113986 0.791912
O O8 0.972419 0.166124 0.610464
O O9 0.998698 0.084379 0.575931
O O10 0.250000 0.455923 0.976091
O O11 0.000000 0.500000 0.075719
O O12 0.750000 0.387262 0.416356
O O13 0.521334 0.329836 0.454788
O O14 0.250000 0.202923 0.539888
O O15 0.972688 0.246067 0.515100
O O16 0.022363 0.176895 0.392750
O O17 0.250000 0.841503 0.273664
O O18 0.988522 0.807547 0.168108
O O19 0.750000 0.206821 0.033888
#
# Coordination Sequence:
#
# PCOD9364181 Si02
#       8
#     4   8   8   8   8   8   8   8
#     4  10  22  34  60  84 116 140 186 230 280 334
#     4  10  20  38  60  83 113 149 186 229 282 337
#     4  10  21  38  59  83 115 153 190 230 280 336
#     4  10  22  38  59  84 113 146 184 232 283 336
#     4   9  20  38  61  83 112 153 193 229 277 337
#     4  10  21  35  55  81 113 153 189 229 284 336
#     4  10  21  36  56  83 114 143 187 239 281 330
#     4   9  20  37  55  80 114 150 188 235 285 329
#
# _framework density 21.197727
#
# number of rings (size 3 to 8) (size 9 to 14) (size 15 to 20)
#    0.400    1.867    0.000    2.000    1.867    5.333 
#    1.200    0.000    0.000    0.000    0.000    0.000 
#    0.000    0.000    0.000    0.000    0.000    0.000 
#
# Total GULP energy -167082.133508 kJ/mol
# GULP energy per Si atom -5569.404450 kJ/mol
# Density = 2.114948 g / cm^3
# Si number density = 21.197727 Si / 1000 Ang^3
#
#
#
# Elastic Constant Matrix: (Units=GPa)
#
#
# Indices 1 2 3 4 5 6 
#
# 1 57.6106 4.4115 -0.4693 0.0000 0.0000 0.0000
# 2 4.4115 142.6095 88.3314 0.0000 0.0000 0.0000
# 3 -0.4693 88.3314 126.9867 0.0000 0.0000 0.0000
# 4 0.0000 0.0000 0.0000 13.6951 0.0000 0.0000
# 5 0.0000 0.0000 0.0000 0.0000 -15.6289 0.0000
# 6 0.0000 0.0000 0.0000 0.0000 0.0000 1.9413
#
#
#
# Elastic Compliance Matrix: (Units=1/GPa)
#
#
# Indices 1 2 3 4 5 6 
#
# 1 0.017442 -0.001018 0.000773 0.000000 0.000000 0.000000
# 2 -0.001018 0.012380 -0.008615 0.000000 0.000000 0.000000
# 3 0.000773 -0.008615 0.013870 0.000000 0.000000 0.000000
# 4 0.000000 0.000000 0.000000 0.073019 0.000000 0.000000
# 5 0.000000 0.000000 0.000000 0.000000 -0.063984 0.000000
# 6 0.000000 0.000000 0.000000 0.000000 0.000000 0.515114
#
#
# Mechanical properties :
#
#
# Convention : Reuss Voigt Hill
#
# Bulk Modulus (GPa) = 38.50425 56.86157 47.68291
# Shear Modulus (GPa) = 8.41440 15.66371 12.03906
#
# Velocity S-wave (km/s) = 1.99452 2.72128 2.38574
# Velocity P-wave (km/s) = 4.84849 6.06271 5.48928
#
# Compressibility (1/GPa) = 0.02597116
#
# Stress axis : x y z
#
# Youngs Moduli (GPa) = 57.33227 80.77681 72.09637
#
# Poissons Ratio (x) = 0.08224 -0.05571
# Poissons Ratio (y) = 0.05837 0.62112
# Poissons Ratio (z) = -0.04430 0.69590
#
# Static dielectric constant tensor:
#      x y z
#    x 1.851650 0.000000 0.000000 
#    y 0.000000 1.763530 0.000000 
#    z 0.000000 0.000000 1.761730 
# 
# From -- ./inp_files/10528.got.cif
#   From: 2010.05.17/outbox.cif.g08.bks.cpg/sg40_6_cif.got.tgz:10528.got - 2010.06.03 18:35:42.
