data_PCOD9364147
_publ_section_title
;
Structure prediction by ZEFSAII (Michael W. Deem and Ramdas Pophale) SiO2 
 PCOD9364147
Probable space group: A M A 2
;
_chemical_formula_sum "Si O2"
_cell_formula_units_Z 56
_cell_length_a 17.163969
_cell_length_b 21.124195
_cell_length_c 7.300103
_cell_angle_alpha 90.000000
_cell_angle_beta 90.000000
_cell_angle_gamma 90.000000
_cell_volume 2646.835051
_symmetry_space_group_name_H-M "A M A 2"
_symmetry_group_IT_number 40
_symmetry_cell_setting 'orthorhombic'
loop_
_space_group_symop_operation_xyz
x,y,z
-x,-y,z
1/2-x,y,z
1/2+x,-y,z
x,1/2+y,1/2+z
-x,1/2-y,1/2+z
1/2-x,1/2+y,1/2+z
1/2+x,1/2-y,1/2+z
loop_
_atom_site_type_symbol
_atom_site_label
_atom_site_fract_x
_atom_site_fract_y
_atom_site_fract_z
Si Si1 0.339898 0.264155 0.247060
Si Si2 0.340727 0.517305 0.554444
Si Si3 0.571607 0.542898 0.206436
Si Si4 0.945815 0.198579 0.396840
Si Si5 0.080724 0.637745 0.740273
Si Si6 0.026145 0.826230 0.897689
Si Si7 0.661609 0.092445 0.350753
O O1 0.250000 0.282251 0.234820
O O2 0.350215 0.188646 0.255440
O O3 0.387531 0.296235 0.411742
O O4 0.393873 0.286505 0.076659
O O5 0.250000 0.535498 0.520972
O O6 0.382732 0.496543 0.365323
O O7 0.385253 0.571217 0.673074
O O8 0.341477 0.456695 0.685719
O O9 0.500000 0.500000 0.142215
O O10 0.538252 0.607672 0.294016
O O11 0.624466 0.561930 0.033795
O O12 0.975676 0.265963 0.320001
O O13 0.885800 0.153957 0.293294
O O14 0.023324 0.153444 0.412233
O O15 0.022248 0.657717 0.577780
O O16 0.750000 0.108937 0.391970
#
# Coordination Sequence:
#
# PCOD9364147 Si02
#       7
#     8   8   8   8   8   8   8
#     4  10  20  37  63  90 123 166 207 261 331 385
#     4  11  25  43  65  94 134 172 217 270 318 384
#     4  12  24  40  67  95 129 174 217 263 322 385
#     4  10  21  36  63  88 121 156 209 263 308 386
#     4  10  21  40  61  91 125 165 216 260 323 383
#     4  10  21  38  60  92 119 159 209 259 311 386
#     4  11  25  42  65  96 130 171 215 268 327 380
#
# _framework density 21.157343000000001
#
# number of rings (size 3 to 8) (size 9 to 14) (size 15 to 20)
#    0.000    1.429    2.857    2.143    2.000    0.571 
#    0.000    1.429    0.000    0.000    0.000    0.000 
#    0.000    0.000    0.000    0.000    0.000    0.000 
#
# Total GULP energy -156062.205524 kJ/mol
# GULP energy per Si atom -5573.650197 kJ/mol
# Density = 2.110919 g / cm^3
# Si number density = 21.157343 Si / 1000 Ang^3
#
#
#
# Elastic Constant Matrix: (Units=GPa)
#
#
# Indices 1 2 3 4 5 6 
#
# 1 171.3999 61.2245 34.1251 0.0000 0.0000 0.0000
# 2 61.2245 97.9151 9.0126 0.0000 0.0000 0.0000
# 3 34.1251 9.0126 51.5853 0.0000 0.0000 0.0000
# 4 0.0000 0.0000 0.0000 25.8281 0.0000 0.0000
# 5 0.0000 0.0000 0.0000 0.0000 30.9163 0.0000
# 6 0.0000 0.0000 0.0000 0.0000 0.0000 35.1115
#
#
#
# Elastic Compliance Matrix: (Units=1/GPa)
#
#
# Indices 1 2 3 4 5 6 
#
# 1 0.008538 -0.004897 -0.004792 0.000000 0.000000 0.000000
# 2 -0.004897 0.013189 0.000935 0.000000 0.000000 0.000000
# 3 -0.004792 0.000935 0.022392 0.000000 0.000000 0.000000
# 4 0.000000 0.000000 0.000000 0.038717 0.000000 0.000000
# 5 0.000000 0.000000 0.000000 0.000000 0.032345 0.000000
# 6 0.000000 0.000000 0.000000 0.000000 0.000000 0.028481
#
#
# Mechanical properties :
#
#
# Convention : Reuss Voigt Hill
#
# Bulk Modulus (GPa) = 37.57913 58.84719 48.21316
# Shear Modulus (GPa) = 29.40458 32.80705 31.10582
#
# Velocity S-wave (km/s) = 3.73205 3.94207 3.83850
# Velocity P-wave (km/s) = 6.03086 6.97096 6.51788
#
# Compressibility (1/GPa) = 0.02661052
#
# Stress axis : x y z
#
# Youngs Moduli (GPa) = 117.12576 75.82021 44.65835
#
# Poissons Ratio (x) = 0.37132 0.21402
# Poissons Ratio (y) = 0.57362 -0.04178
# Poissons Ratio (z) = 0.56131 -0.07093
#
# Static dielectric constant tensor:
#      x y z
#    x 1.763090 0.000000 0.000000 
#    y 0.000000 1.779350 0.000000 
#    z 0.000000 0.000000 1.891740 
# 
# From -- ./inp_files/6723.got.cif
#   From: 2010.05.17/outbox.cif.g08.bks.cpg/sg40_4_cif.got.tgz:6723.got - 2010.06.03 18:35:42.
