data_PCOD9364912
_publ_section_title
;
Structure prediction by ZEFSAII (Michael W. Deem and Ramdas Pophale) SiO2 
 PCOD9364912
Probable space group: A M A 2
;
_chemical_formula_sum "Si O2"
_cell_formula_units_Z 52
_cell_length_a 9.076079
_cell_length_b 16.230905
_cell_length_c 15.221113
_cell_angle_alpha 90.000000
_cell_angle_beta 90.000000
_cell_angle_gamma 90.000000
_cell_volume 2242.267454
_symmetry_space_group_name_H-M "A M A 2"
_symmetry_group_IT_number 40
_symmetry_cell_setting 'orthorhombic'
loop_
_space_group_symop_operation_xyz
x,y,z
-x,-y,z
1/2-x,y,z
1/2+x,-y,z
x,1/2+y,1/2+z
-x,1/2-y,1/2+z
1/2-x,1/2+y,1/2+z
1/2+x,1/2-y,1/2+z
loop_
_atom_site_type_symbol
_atom_site_label
_atom_site_fract_x
_atom_site_fract_y
_atom_site_fract_z
Si Si1 0.908955 0.871560 0.504860
Si Si2 0.070559 0.074284 0.306106
Si Si3 0.750000 0.032757 0.223367
Si Si4 0.589429 0.575022 0.544762
Si Si5 0.925496 0.232827 0.785404
Si Si6 0.581947 0.418792 0.198552
Si Si7 0.420929 0.718490 0.471625
O O1 0.750000 0.824694 0.508827
O O2 0.907667 0.915403 0.410983
O O3 0.913111 0.924245 0.592540
O O4 0.044420 0.809524 0.504978
O O5 0.250000 0.068150 0.256515
O O6 0.039963 0.169871 0.273469
O O7 0.896092 0.036854 0.295881
O O8 0.625461 0.050285 0.144726
O O9 0.500000 0.500000 0.502714
O O10 0.750000 0.588557 0.502922
O O11 0.488255 0.654110 0.539485
O O12 0.750000 0.223542 0.782169
O O13 0.002466 0.167053 0.721792
O O14 0.989358 0.210481 0.881288
O O15 0.500000 0.500000 0.233204
O O16 0.750000 0.415821 0.230952
O O17 0.250000 0.704283 0.457337
#
# Coordination Sequence:
#
# PCOD9364912 Si02
#       7
#     8   8   4   8   8   8   8
#     4  10  22  44  70  99 141 189 244 300 367 435
#     4  11  21  43  68 104 146 196 242 300 370 447
#     4  10  22  38  62  98 138 186 242 286 356 446
#     4  10  22  39  61  94 140 184 237 295 358 434
#     4  11  24  47  74 103 144 193 249 308 383 450
#     4  11  25  46  71 107 141 184 244 312 372 447
#     4  11  23  43  69 100 140 189 247 305 371 451
#
# _framework density 23.190809999999999
#
# number of rings (size 3 to 8) (size 9 to 14) (size 15 to 20)
#    0.462    0.923    1.538    4.615    0.000    4.308 
#    9.692    3.077    0.000    0.000    0.000    0.000 
#    0.000    0.000    0.000    0.000    0.000    0.000 
#
# Total GULP energy -144822.178477 kJ/mol
# GULP energy per Si atom -5570.083788 kJ/mol
# Density = 2.313803 g / cm^3
# Si number density = 23.190810 Si / 1000 Ang^3
#
#
#
# Elastic Constant Matrix: (Units=GPa)
#
#
# Indices 1 2 3 4 5 6 
#
# 1 213.7663 91.5120 34.9380 0.0000 0.0000 0.0000
# 2 91.5120 155.3857 41.7889 0.0000 0.0000 0.0000
# 3 34.9380 41.7889 53.1740 0.0000 0.0000 0.0000
# 4 0.0000 0.0000 0.0000 16.4428 0.0000 0.0000
# 5 0.0000 0.0000 0.0000 0.0000 -1.9370 0.0000
# 6 0.0000 0.0000 0.0000 0.0000 0.0000 41.0963
#
#
#
# Elastic Compliance Matrix: (Units=1/GPa)
#
#
# Indices 1 2 3 4 5 6 
#
# 1 0.006356 -0.003322 -0.001565 0.000000 0.000000 0.000000
# 2 -0.003322 0.009897 -0.005595 0.000000 0.000000 0.000000
# 3 -0.001565 -0.005595 0.024232 0.000000 0.000000 0.000000
# 4 0.000000 0.000000 0.000000 0.060817 0.000000 0.000000
# 5 0.000000 0.000000 0.000000 0.000000 -0.516270 0.000000
# 6 0.000000 0.000000 0.000000 0.000000 0.000000 0.024333
#
#
# Mechanical properties :
#
#
# Convention : Reuss Voigt Hill
#
# Bulk Modulus (GPa) = 51.23074 84.31153 67.77113
# Shear Modulus (GPa) = -13.76791 28.05958 7.14584
#
# Velocity S-wave (km/s) = -2.43920 3.48220 1.75727
# Velocity P-wave (km/s) = 3.76909 7.25273 5.77962
#
# Compressibility (1/GPa) = 0.01951953
#
# Stress axis : x y z
#
# Youngs Moduli (GPa) = 157.32867 101.04130 41.26839
#
# Poissons Ratio (x) = 0.33570 0.06460
# Poissons Ratio (y) = 0.52271 0.23089
# Poissons Ratio (z) = 0.24626 0.56532
#
# Static dielectric constant tensor:
#      x y z
#    x 1.830260 0.000000 0.000000 
#    y 0.000000 1.927500 0.000000 
#    z 0.000000 0.000000 1.847260 
# 
# From -- ./inp_files/15207.got.cif
#   From: 2010.05.17/outbox.cif.g08.bks.cpg/sg40_8_cif.got.tgz:15207.got - 2010.06.03 18:35:42.
