data_PCOD9364058
_publ_section_title
;
Structure prediction by ZEFSAII (Michael W. Deem and Ramdas Pophale) SiO2 
 PCOD9364058
Probable space group: A M A 2
;
_chemical_formula_sum "Si O2"
_cell_formula_units_Z 64
_cell_length_a 19.715558
_cell_length_b 5.642144
_cell_length_c 27.701179
_cell_angle_alpha 90.000000
_cell_angle_beta 90.000000
_cell_angle_gamma 90.000000
_cell_volume 3081.424228
_symmetry_space_group_name_H-M "A M A 2"
_symmetry_group_IT_number 40
_symmetry_cell_setting 'orthorhombic'
loop_
_space_group_symop_operation_xyz
x,y,z
-x,-y,z
1/2-x,y,z
1/2+x,-y,z
x,1/2+y,1/2+z
-x,1/2-y,1/2+z
1/2-x,1/2+y,1/2+z
1/2+x,1/2-y,1/2+z
loop_
_atom_site_type_symbol
_atom_site_label
_atom_site_fract_x
_atom_site_fract_y
_atom_site_fract_z
Si Si1 0.325499 0.301168 0.224270
Si Si2 0.331371 0.892399 0.832712
Si Si3 0.167496 0.887057 0.382819
Si Si4 0.924447 0.516704 0.970708
Si Si5 0.075241 0.043246 0.164479
Si Si6 0.569246 0.341830 0.563077
Si Si7 0.675118 0.847727 0.632711
Si Si8 0.828161 0.218076 0.029804
O O1 0.250000 0.200890 0.230570
O O2 0.346014 0.406704 0.275534
O O3 0.378956 0.108269 0.209071
O O4 0.323380 0.470042 0.177158
O O5 0.250000 0.888222 0.837547
O O6 0.352739 0.638592 0.856647
O O7 0.352341 0.143567 0.855600
O O8 0.250000 0.890873 0.388507
O O9 0.127839 0.870297 0.433270
O O10 0.000000 0.500000 0.948718
O O11 0.937249 0.657517 0.020274
O O12 0.881753 0.289008 0.988731
O O13 0.072898 0.229072 0.119525
O O14 0.110544 0.814618 0.141899
O O15 0.000000 0.000000 0.180377
O O16 0.500000 0.500000 0.561030
O O17 0.638933 0.481999 0.551809
O O18 0.750000 0.722155 0.636002
O O19 0.671906 0.904028 0.575262
O O20 0.750000 0.194503 0.013581
#
# Coordination Sequence:
#
# PCOD9364058 Si02
#       8
#     8   8   8   8   8   8   8   8
#     4  10  20  36  63  90 118 161 210 261 314 379
#     4   9  21  41  68  95 124 160 211 273 331 384
#     4  10  23  43  66  96 125 162 215 275 331 385
#     4  12  24  38  64  88 122 167 213 259 325 392
#     4  10  21  35  56  87 129 167 204 249 311 376
#     4  10  21  39  58  87 125 171 210 255 315 386
#     4   9  19  35  58  88 122 158 203 255 305 362
#     4  10  21  37  58  91 127 160 205 260 308 369
#
# _framework density 20.769618000000001
#
# number of rings (size 3 to 8) (size 9 to 14) (size 15 to 20)
#    0.000    2.000    1.250    1.500    3.500    2.000 
#    0.000    0.625    2.750    0.000    0.000    0.000 
#    0.000    0.000    0.000    0.000    0.000    0.000 
#
# Total GULP energy -178142.406973 kJ/mol
# GULP energy per Si atom -5566.950218 kJ/mol
# Density = 2.072235 g / cm^3
# Si number density = 20.769618 Si / 1000 Ang^3
#
#
#
# Elastic Constant Matrix: (Units=GPa)
#
#
# Indices 1 2 3 4 5 6 
#
# 1 126.5770 22.0778 26.5190 0.0000 0.0000 0.0000
# 2 22.0778 59.0091 23.8939 0.0000 0.0000 0.0000
# 3 26.5190 23.8939 79.2798 0.0000 0.0000 0.0000
# 4 0.0000 0.0000 0.0000 27.7873 0.0000 0.0000
# 5 0.0000 0.0000 0.0000 0.0000 70.2057 0.0000
# 6 0.0000 0.0000 0.0000 0.0000 0.0000 20.0636
#
#
#
# Elastic Compliance Matrix: (Units=1/GPa)
#
#
# Indices 1 2 3 4 5 6 
#
# 1 0.008781 -0.002387 -0.002218 0.000000 0.000000 0.000000
# 2 -0.002387 0.019951 -0.005214 0.000000 0.000000 0.000000
# 3 -0.002218 -0.005214 0.014927 0.000000 0.000000 0.000000
# 4 0.000000 0.000000 0.000000 0.035988 0.000000 0.000000
# 5 0.000000 0.000000 0.000000 0.000000 0.014244 0.000000
# 6 0.000000 0.000000 0.000000 0.000000 0.000000 0.049842
#
#
# Mechanical properties :
#
#
# Convention : Reuss Voigt Hill
#
# Bulk Modulus (GPa) = 41.63168 45.53857 43.58513
# Shear Modulus (GPa) = 29.17515 36.43634 32.80574
#
# Velocity S-wave (km/s) = 3.75200 4.19299 3.97861
# Velocity P-wave (km/s) = 6.23362 6.73905 6.49126
#
# Compressibility (1/GPa) = 0.02402017
#
# Stress axis : x y z
#
# Youngs Moduli (GPa) = 113.87697 50.12232 66.99279
#
# Poissons Ratio (x) = 0.11966 0.14858
# Poissons Ratio (y) = 0.27188 0.34933
# Poissons Ratio (z) = 0.25256 0.26136
#
# Static dielectric constant tensor:
#      x y z
#    x 1.742630 0.000000 0.000000 
#    y 0.000000 1.839040 0.000000 
#    z 0.000000 0.000000 1.771050 
# 
# From -- ./inp_files/25838.got.cif
#   From: 2010.05.17/outbox.cif.g08.bks.cpg/sg40_13_cif.got.tgz:25838.got - 2010.06.03 18:35:42.
