data_PCOD9364091
_publ_section_title
;
Structure prediction by ZEFSAII (Michael W. Deem and Ramdas Pophale) SiO2 
 PCOD9364091
Probable space group: A M A 2
;
_chemical_formula_sum "Si O2"
_cell_formula_units_Z 48
_cell_length_a 19.030815
_cell_length_b 8.515718
_cell_length_c 14.854418
_cell_angle_alpha 90.000000
_cell_angle_beta 90.000000
_cell_angle_gamma 90.000000
_cell_volume 2407.322635
_symmetry_space_group_name_H-M "A M A 2"
_symmetry_group_IT_number 40
_symmetry_cell_setting 'orthorhombic'
loop_
_space_group_symop_operation_xyz
x,y,z
-x,-y,z
1/2-x,y,z
1/2+x,-y,z
x,1/2+y,1/2+z
-x,1/2-y,1/2+z
1/2-x,1/2+y,1/2+z
1/2+x,1/2-y,1/2+z
loop_
_atom_site_type_symbol
_atom_site_label
_atom_site_fract_x
_atom_site_fract_y
_atom_site_fract_z
Si Si1 0.171402 0.652154 0.245950
Si Si2 0.398672 0.386284 0.625238
Si Si3 0.672426 0.058810 0.563444
Si Si4 0.450038 0.240609 0.135111
Si Si5 0.829690 0.248563 0.953954
Si Si6 0.068152 0.415470 0.325691
O O1 0.250000 0.674858 0.279045
O O2 0.136734 0.812539 0.213295
O O3 0.173469 0.543120 0.155962
O O4 0.123143 0.556278 0.312617
O O5 0.419513 0.564938 0.642565
O O6 0.469423 0.284581 0.605241
O O7 0.346719 0.358145 0.541636
O O8 0.750000 0.137166 0.557459
O O9 0.604275 0.167767 0.570813
O O10 0.667078 0.928539 0.486215
O O11 0.451281 0.335507 0.229821
O O12 0.750000 0.217023 0.921404
O O13 0.890641 0.210811 0.884055
O O14 0.000000 0.500000 0.366439
#
# Coordination Sequence:
#
# PCOD9364091 Si02
#       6
#     8   8   8   8   8   8
#     4   9  17  33  57  82 111 151 193 232 284 346
#     4  10  20  37  59  86 118 152 203 249 289 350
#     4   8  17  34  57  82 111 152 197 236 283 348
#     4  10  21  36  58  89 115 153 203 245 292 350
#     4  10  22  39  59  85 117 156 199 246 303 357
#     4  11  21  37  60  87 120 157 193 240 301 363
#
# _framework density 19.939162
#
# number of rings (size 3 to 8) (size 9 to 14) (size 15 to 20)
#    0.000    2.333    1.667    2.000    2.333    2.000 
#    0.000    5.000    0.000    2.000    0.000    0.000 
#    0.000    0.000    0.000    0.000    0.000    0.000 
#
# Total GULP energy -133866.091146 kJ/mol
# GULP energy per Si atom -5577.753798 kJ/mol
# Density = 1.989378 g / cm^3
# Si number density = 19.939162 Si / 1000 Ang^3
#
#
#
# Elastic Constant Matrix: (Units=GPa)
#
#
# Indices 1 2 3 4 5 6 
#
# 1 157.6185 44.9066 16.8149 0.0000 0.0000 0.0000
# 2 44.9066 51.2656 1.2077 0.0000 0.0000 0.0000
# 3 16.8149 1.2077 19.8728 0.0000 0.0000 0.0000
# 4 0.0000 0.0000 0.0000 9.6350 0.0000 0.0000
# 5 0.0000 0.0000 0.0000 0.0000 15.8818 0.0000
# 6 0.0000 0.0000 0.0000 0.0000 0.0000 19.2972
#
#
#
# Elastic Compliance Matrix: (Units=1/GPa)
#
#
# Indices 1 2 3 4 5 6 
#
# 1 0.009454 -0.008105 -0.007507 0.000000 0.000000 0.000000
# 2 -0.008105 0.026482 0.005248 0.000000 0.000000 0.000000
# 3 -0.007507 0.005248 0.056353 0.000000 0.000000 0.000000
# 4 0.000000 0.000000 0.000000 0.103789 0.000000 0.000000
# 5 0.000000 0.000000 0.000000 0.000000 0.062965 0.000000
# 6 0.000000 0.000000 0.000000 0.000000 0.000000 0.051821
#
#
# Mechanical properties :
#
#
# Convention : Reuss Voigt Hill
#
# Bulk Modulus (GPa) = 13.97378 39.40169 26.68773
# Shear Modulus (GPa) = 14.06684 20.01797 17.04241
#
# Velocity S-wave (km/s) = 2.65898 3.17196 2.92673
# Velocity P-wave (km/s) = 4.05590 5.76359 4.98344
#
# Compressibility (1/GPa) = 0.07156259
#
# Stress axis : x y z
#
# Youngs Moduli (GPa) = 105.77054 37.76129 17.74523
#
# Poissons Ratio (x) = 0.30605 0.13322
# Poissons Ratio (y) = 0.85725 -0.09313
# Poissons Ratio (z) = 0.79403 -0.19819
#
# Static dielectric constant tensor:
#      x y z
#    x 1.763000 0.000000 0.000000 
#    y 0.000000 1.678000 0.000000 
#    z 0.000000 0.000000 1.717270 
# 
# From -- ./inp_files/17620.got.cif
#   From: 2010.05.17/outbox.cif.g08.bks.cpg/sg40_9_cif.got.tgz:17620.got - 2010.06.03 18:35:42.
