data_PCOD9364915
_publ_section_title
;
Structure prediction by ZEFSAII (Michael W. Deem and Ramdas Pophale) SiO2 
 PCOD9364915
Probable space group: A M A 2
;
_chemical_formula_sum "Si O2"
_cell_formula_units_Z 48
_cell_length_a 18.765516
_cell_length_b 11.971155
_cell_length_c 8.675947
_cell_angle_alpha 90.000000
_cell_angle_beta 90.000000
_cell_angle_gamma 90.000000
_cell_volume 1949.007252
_symmetry_space_group_name_H-M "A M A 2"
_symmetry_group_IT_number 40
_symmetry_cell_setting 'orthorhombic'
loop_
_space_group_symop_operation_xyz
x,y,z
-x,-y,z
1/2-x,y,z
1/2+x,-y,z
x,1/2+y,1/2+z
-x,1/2-y,1/2+z
1/2-x,1/2+y,1/2+z
1/2+x,1/2-y,1/2+z
loop_
_atom_site_type_symbol
_atom_site_label
_atom_site_fract_x
_atom_site_fract_y
_atom_site_fract_z
Si Si1 0.534099 0.707089 0.294120
Si Si2 0.061879 0.079429 0.472823
Si Si3 0.332793 0.526453 0.718146
Si Si4 0.672733 0.586823 0.405651
Si Si5 0.169298 0.654763 0.232319
Si Si6 0.087974 0.703278 0.499042
O O1 0.527155 0.834422 0.351630
O O2 0.608407 0.658790 0.348208
O O3 0.471726 0.644998 0.388684
O O4 0.542836 0.716471 0.111137
O O5 0.118745 0.011314 0.367673
O O6 0.111387 0.142590 0.597413
O O7 0.000000 0.000000 0.537251
O O8 0.250000 0.547946 0.756654
O O9 0.334130 0.430165 0.588972
O O10 0.367078 0.628524 0.618779
O O11 0.750000 0.636758 0.370322
O O12 0.670511 0.466248 0.320104
O O13 0.250000 0.677380 0.180118
O O14 0.143597 0.739546 0.366754
#
# Coordination Sequence:
#
# PCOD9364915 Si02
#       6
#     8   8   8   8   8   8
#     4  11  24  39  61  97 133 163 220 270 323 390
#     4  11  25  40  65  92 133 175 216 273 331 391
#     4   9  20  41  66  94 130 175 219 259 324 405
#     4   9  21  39  65  93 124 168 215 264 322 388
#     4  10  22  42  64  90 126 174 223 264 326 402
#     4  10  22  38  64  92 128 169 211 272 319 397
#
# _framework density 24.627922999999999
#
# number of rings (size 3 to 8) (size 9 to 14) (size 15 to 20)
#    0.000    2.000    0.000    3.000    9.333    5.333 
#    0.000    0.000    0.000    0.000    0.000    0.000 
#    0.000    0.000    0.000    0.000    0.000    0.000 
#
# Total GULP energy -134002.742965 kJ/mol
# GULP energy per Si atom -5583.447624 kJ/mol
# Density = 2.457187 g / cm^3
# Si number density = 24.627923 Si / 1000 Ang^3
#
#
#
# Elastic Constant Matrix: (Units=GPa)
#
#
# Indices 1 2 3 4 5 6 
#
# 1 164.5515 12.8014 48.5685 0.0000 0.0000 0.0000
# 2 12.8014 48.7381 7.3247 0.0000 0.0000 0.0000
# 3 48.5685 7.3247 117.1760 0.0000 0.0000 0.0000
# 4 0.0000 0.0000 0.0000 12.2430 0.0000 0.0000
# 5 0.0000 0.0000 0.0000 0.0000 48.5910 0.0000
# 6 0.0000 0.0000 0.0000 0.0000 0.0000 26.4552
#
#
#
# Elastic Compliance Matrix: (Units=1/GPa)
#
#
# Indices 1 2 3 4 5 6 
#
# 1 0.007020 -0.001420 -0.002821 0.000000 0.000000 0.000000
# 2 -0.001420 0.021000 -0.000724 0.000000 0.000000 0.000000
# 3 -0.002821 -0.000724 0.009749 0.000000 0.000000 0.000000
# 4 0.000000 0.000000 0.000000 0.081679 0.000000 0.000000
# 5 0.000000 0.000000 0.000000 0.000000 0.020580 0.000000
# 6 0.000000 0.000000 0.000000 0.000000 0.000000 0.037800
#
#
# Mechanical properties :
#
#
# Convention : Reuss Voigt Hill
#
# Bulk Modulus (GPa) = 35.92170 51.98383 43.95277
# Shear Modulus (GPa) = 25.37592 34.90926 30.14259
#
# Velocity S-wave (km/s) = 3.21342 3.76901 3.50225
# Velocity P-wave (km/s) = 5.32781 6.33199 5.85148
#
# Compressibility (1/GPa) = 0.02783833
#
# Stress axis : x y z
#
# Youngs Moduli (GPa) = 142.44506 47.61988 102.57726
#
# Poissons Ratio (x) = 0.06762 0.28938
# Poissons Ratio (y) = 0.20226 0.07428
# Poissons Ratio (z) = 0.40185 0.03448
#
# Static dielectric constant tensor:
#      x y z
#    x 1.960600 0.000000 0.000000 
#    y 0.000000 1.994700 0.000000 
#    z 0.000000 0.000000 1.990740 
# 
# From -- ./inp_files/7451.got.cif
#   From: 2010.05.17/outbox.cif.g08.bks.cpg/sg40_4_cif.got.tgz:7451.got - 2010.06.03 18:35:42.
