data_PCOD9364863
_publ_section_title
;
Structure prediction by ZEFSAII (Michael W. Deem and Ramdas Pophale) SiO2 
 PCOD9364863
Probable space group: A M A 2
;
_chemical_formula_sum "Si O2"
_cell_formula_units_Z 32
_cell_length_a 23.364924
_cell_length_b 11.490474
_cell_length_c 4.948658
_cell_angle_alpha 90.000000
_cell_angle_beta 90.000000
_cell_angle_gamma 90.000000
_cell_volume 1328.586264
_symmetry_space_group_name_H-M "A M A 2"
_symmetry_group_IT_number 40
_symmetry_cell_setting 'orthorhombic'
loop_
_space_group_symop_operation_xyz
x,y,z
-x,-y,z
1/2-x,y,z
1/2+x,-y,z
x,1/2+y,1/2+z
-x,1/2-y,1/2+z
1/2-x,1/2+y,1/2+z
1/2+x,1/2-y,1/2+z
loop_
_atom_site_type_symbol
_atom_site_label
_atom_site_fract_x
_atom_site_fract_y
_atom_site_fract_z
Si Si1 0.750000 0.572906 0.152331
Si Si2 0.127805 0.944511 0.683845
Si Si3 0.135650 0.086999 0.176892
Si Si4 0.961813 0.744597 0.303051
Si Si5 0.750000 0.818296 0.924095
O O1 0.810741 0.600075 0.296594
O O2 0.750000 0.675048 0.912019
O O3 0.750000 0.424561 0.189136
O O4 0.074181 0.861002 0.678001
O O5 0.146092 0.983417 0.385951
O O6 0.110989 0.044951 0.892023
O O7 0.087456 0.160062 0.327810
O O8 0.193434 0.151584 0.095793
O O9 0.990354 0.718103 0.588442
#
# Coordination Sequence:
#
# PCOD9364863 Si02
#       5
#     4   8   8   8   4
#     4  10  21  44  72 107 141 181 232 294 366 433
#     4  11  24  44  68  99 135 178 225 289 353 419
#     4  11  24  44  68  99 135 178 225 289 353 419
#     4  12  26  43  66  97 132 182 234 284 340 416
#     4  10  21  44  72 107 141 181 232 294 366 433
#
# _framework density 24.085754000000001
#
# number of rings (size 3 to 8) (size 9 to 14) (size 15 to 20)
#    0.000    1.000    2.500    3.750    0.000    6.000 
#    0.000    5.000    0.000    0.000    0.000    0.000 
#    0.000    0.000    0.000    0.000    0.000    0.000 
#
# Total GULP energy -89101.899189 kJ/mol
# GULP energy per Si atom -5568.868699 kJ/mol
# Density = 2.403093 g / cm^3
# Si number density = 24.085754 Si / 1000 Ang^3
#
#
#
# Elastic Constant Matrix: (Units=GPa)
#
#
# Indices 1 2 3 4 5 6 
#
# 1 103.8601 22.1608 10.5122 0.0000 0.0000 0.0000
# 2 22.1608 102.5452 32.4967 0.0000 0.0000 0.0000
# 3 10.5122 32.4967 110.0218 0.0000 0.0000 0.0000
# 4 0.0000 0.0000 0.0000 26.8124 0.0000 0.0000
# 5 0.0000 0.0000 0.0000 0.0000 190.8786 0.0000
# 6 0.0000 0.0000 0.0000 0.0000 0.0000 46.4055
#
#
#
# Elastic Compliance Matrix: (Units=1/GPa)
#
#
# Indices 1 2 3 4 5 6 
#
# 1 0.010106 -0.002072 -0.000354 0.000000 0.000000 0.000000
# 2 -0.002072 0.011184 -0.003105 0.000000 0.000000 0.000000
# 3 -0.000354 -0.003105 0.010040 0.000000 0.000000 0.000000
# 4 0.000000 0.000000 0.000000 0.037296 0.000000 0.000000
# 5 0.000000 0.000000 0.000000 0.000000 0.005239 0.000000
# 6 0.000000 0.000000 0.000000 0.000000 0.000000 0.021549
#
#
# Mechanical properties :
#
#
# Convention : Reuss Voigt Hill
#
# Bulk Modulus (GPa) = 49.33844 49.64073 49.48959
# Shear Modulus (GPa) = 44.15712 69.56981 56.86347
#
# Velocity S-wave (km/s) = 4.28638 5.38023 4.86416
# Velocity P-wave (km/s) = 6.71017 7.69744 7.22070
#
# Compressibility (1/GPa) = 0.02026817
#
# Stress axis : x y z
#
# Youngs Moduli (GPa) = 98.94890 89.41638 99.60065
#
# Poissons Ratio (x) = 0.18527 0.03522
# Poissons Ratio (y) = 0.20502 0.30929
# Poissons Ratio (z) = 0.03499 0.27766
#
# Static dielectric constant tensor:
#      x y z
#    x 1.808780 0.000000 0.000000 
#    y 0.000000 2.133020 0.000000 
#    z 0.000000 0.000000 1.934680 
# 
# From -- ./inp_files/2123.got.cif
#   From: 2010.05.17/outbox.cif.g08.bks.cpg/sg40_2_cif.got.tgz:2123.got - 2010.06.03 18:35:42.
