data_PCOD9364300
_publ_section_title
;
Structure prediction by ZEFSAII (Michael W. Deem and Ramdas Pophale) SiO2 
 PCOD9364300
Probable space group: A M A 2
;
_chemical_formula_sum "Si O2"
_cell_formula_units_Z 56
_cell_length_a 14.385968
_cell_length_b 12.823917
_cell_length_c 13.356539
_cell_angle_alpha 90.000000
_cell_angle_beta 90.000000
_cell_angle_gamma 90.000000
_cell_volume 2464.073879
_symmetry_space_group_name_H-M "A M A 2"
_symmetry_group_IT_number 40
_symmetry_cell_setting 'orthorhombic'
loop_
_space_group_symop_operation_xyz
x,y,z
-x,-y,z
1/2-x,y,z
1/2+x,-y,z
x,1/2+y,1/2+z
-x,1/2-y,1/2+z
1/2-x,1/2+y,1/2+z
1/2+x,1/2-y,1/2+z
loop_
_atom_site_type_symbol
_atom_site_label
_atom_site_fract_x
_atom_site_fract_y
_atom_site_fract_z
Si Si1 0.390571 0.516826 0.600070
Si Si2 0.503628 0.254453 0.296003
Si Si3 0.855778 0.064470 0.314433
Si Si4 0.639022 0.033932 0.527203
Si Si5 0.642594 0.936267 0.731077
Si Si6 0.641683 0.753452 0.114605
Si Si7 0.087910 0.420735 0.407044
O O1 0.500000 0.500000 0.614775
O O2 0.351708 0.497224 0.710508
O O3 0.367613 0.633397 0.564242
O O4 0.360666 0.438290 0.511989
O O5 0.565682 0.152345 0.306709
O O6 0.577094 0.345055 0.269252
O O7 0.428829 0.242942 0.207328
O O8 0.447205 0.303827 0.389028
O O9 0.750000 0.106420 0.331737
O O10 0.881997 0.999991 0.414341
O O11 0.750000 0.026386 0.537522
O O12 0.616097 0.155911 0.544361
O O13 0.604785 0.970287 0.622446
O O14 0.750000 0.902862 0.725720
O O15 0.637324 0.034478 0.807598
O O16 0.750000 0.739796 0.144875
O O17 0.000000 0.500000 0.414919
#
# Coordination Sequence:
#
# PCOD9364300 Si02
#       7
#     8   8   8   8   8   8   8
#     4  11  23  43  62  92 129 168 216 264 320 377
#     4  11  22  40  65 100 128 162 213 266 320 375
#     4  11  24  42  63  93 131 171 210 256 315 384
#     4   9  21  40  65  93 124 166 214 254 310 386
#     4  10  20  39  66  98 129 163 209 265 321 374
#     4  11  23  42  66  91 126 171 214 259 314 382
#     4   9  21  37  63  91 126 163 208 264 315 370
#
# _framework density 22.726590000000002
#
# number of rings (size 3 to 8) (size 9 to 14) (size 15 to 20)
#    0.000    1.714    2.857    0.857    6.000    1.143 
#    2.571    1.429    0.000    0.000    0.000    0.000 
#    0.000    0.000    0.000    0.000    0.000    0.000 
#
# Total GULP energy -156364.551728 kJ/mol
# GULP energy per Si atom -5584.448276 kJ/mol
# Density = 2.267486 g / cm^3
# Si number density = 22.726590 Si / 1000 Ang^3
#
#
#
# Elastic Constant Matrix: (Units=GPa)
#
#
# Indices 1 2 3 4 5 6 
#
# 1 106.2515 -9.7988 0.6826 0.0000 0.0000 0.0000
# 2 -9.7988 37.1679 -0.5177 0.0000 0.0000 0.0000
# 3 0.6826 -0.5177 128.8171 0.0000 0.0000 0.0000
# 4 0.0000 0.0000 0.0000 24.6788 0.0000 0.0000
# 5 0.0000 0.0000 0.0000 0.0000 0.5953 0.0000
# 6 0.0000 0.0000 0.0000 0.0000 0.0000 23.0166
#
#
#
# Elastic Compliance Matrix: (Units=1/GPa)
#
#
# Indices 1 2 3 4 5 6 
#
# 1 0.009646 0.002543 -0.000041 0.000000 0.000000 0.000000
# 2 0.002543 0.027577 0.000097 0.000000 0.000000 0.000000
# 3 -0.000041 0.000097 0.007764 0.000000 0.000000 0.000000
# 4 0.000000 0.000000 0.000000 0.040521 0.000000 0.000000
# 5 0.000000 0.000000 0.000000 0.000000 1.679840 0.000000
# 6 0.000000 0.000000 0.000000 0.000000 0.000000 0.043447
#
#
# Mechanical properties :
#
#
# Convention : Reuss Voigt Hill
#
# Bulk Modulus (GPa) = 19.92644 28.10763 24.01703
# Shear Modulus (GPa) = 2.74676 28.44951 15.59814
#
# Velocity S-wave (km/s) = 1.10056 3.54194 2.62265
# Velocity P-wave (km/s) = 3.22520 5.39645 4.44542
#
# Compressibility (1/GPa) = 0.05018458
#
# Stress axis : x y z
#
# Youngs Moduli (GPa) = 103.66588 36.26263 128.80701
#
# Poissons Ratio (x) = -0.09220 0.00527
# Poissons Ratio (y) = -0.26358 -0.01254
# Poissons Ratio (z) = 0.00424 -0.00353
#
# Static dielectric constant tensor:
#      x y z
#    x 1.903970 0.000000 0.000000 
#    y 0.000000 1.835070 0.000000 
#    z 0.000000 0.000000 1.922430 
# 
# From -- ./inp_files/12219.got.cif
#   From: 2010.05.17/outbox.cif.g08.bks.cpg/sg40_7_cif.got.tgz:12219.got - 2010.06.03 18:35:42.
