data_PCOD9364255
_publ_section_title
;
Structure prediction by ZEFSAII (Michael W. Deem and Ramdas Pophale) SiO2 
 PCOD9364255
Probable space group: A M A 2
;
_chemical_formula_sum "Si O2"
_cell_formula_units_Z 48
_cell_length_a 14.442179
_cell_length_b 8.370698
_cell_length_c 18.526699
_cell_angle_alpha 90.000000
_cell_angle_beta 90.000000
_cell_angle_gamma 90.000000
_cell_volume 2239.713371
_symmetry_space_group_name_H-M "A M A 2"
_symmetry_group_IT_number 40
_symmetry_cell_setting 'orthorhombic'
loop_
_space_group_symop_operation_xyz
x,y,z
-x,-y,z
1/2-x,y,z
1/2+x,-y,z
x,1/2+y,1/2+z
-x,1/2-y,1/2+z
1/2-x,1/2+y,1/2+z
1/2+x,1/2-y,1/2+z
loop_
_atom_site_type_symbol
_atom_site_label
_atom_site_fract_x
_atom_site_fract_y
_atom_site_fract_z
Si Si1 0.527754 0.661895 0.045910
Si Si2 0.641906 0.885420 0.942887
Si Si3 0.640065 0.964514 0.215686
Si Si4 0.137127 0.197090 0.779815
Si Si5 0.137641 0.385613 0.191050
Si Si6 0.355389 0.871534 0.065479
O O1 0.500000 0.500000 0.006892
O O2 0.594072 0.621632 0.112260
O O3 0.434656 0.743617 0.074225
O O4 0.579414 0.774500 0.991297
O O5 0.750000 0.838895 0.947987
O O6 0.613563 0.862181 0.860318
O O7 0.636253 0.053957 0.985286
O O8 0.750000 0.961933 0.230180
O O9 0.604363 0.124516 0.256419
O O10 0.629050 0.999397 0.129565
O O11 0.608099 0.782378 0.229505
O O12 0.250000 0.203520 0.775948
O O13 0.108762 0.050998 0.728301
O O14 0.250000 0.383397 0.187512
O O15 0.250000 0.812216 0.075547
#
# Coordination Sequence:
#
# PCOD9364255 Si02
#       6
#     8   8   8   8   8   8
#     4  12  24  38  62  93 129 164 213 265 321 380
#     4  10  21  41  65  90 128 171 206 261 328 381
#     4   9  17  34  63  91 118 160 207 256 310 370
#     4   9  19  37  63  95 129 164 209 260 317 382
#     4  10  20  38  66  98 128 164 211 259 317 388
#     4  10  21  40  64  87 118 167 217 261 315 378
#
# _framework density 21.431311999999998
#
# number of rings (size 3 to 8) (size 9 to 14) (size 15 to 20)
#    0.000    2.000    1.667    2.000    0.000    2.667 
#    3.000    5.000    0.000    0.000    0.000    0.000 
#    0.000    0.000    0.000    0.000    0.000    0.000 
#
# Total GULP energy -133983.407154 kJ/mol
# GULP energy per Si atom -5582.641965 kJ/mol
# Density = 2.138253 g / cm^3
# Si number density = 21.431312 Si / 1000 Ang^3
#
#
#
# Elastic Constant Matrix: (Units=GPa)
#
#
# Indices 1 2 3 4 5 6 
#
# 1 42.0715 36.7763 25.3565 0.0000 0.0000 0.0000
# 2 36.7763 100.2703 15.3287 0.0000 0.0000 0.0000
# 3 25.3565 15.3287 88.1016 0.0000 0.0000 0.0000
# 4 0.0000 0.0000 0.0000 21.3542 0.0000 0.0000
# 5 0.0000 0.0000 0.0000 0.0000 -2.9355 0.0000
# 6 0.0000 0.0000 0.0000 0.0000 0.0000 12.0657
#
#
#
# Elastic Compliance Matrix: (Units=1/GPa)
#
#
# Indices 1 2 3 4 5 6 
#
# 1 0.041594 -0.013792 -0.009572 0.000000 0.000000 0.000000
# 2 -0.013792 0.014819 0.001391 0.000000 0.000000 0.000000
# 3 -0.009572 0.001391 0.013863 0.000000 0.000000 0.000000
# 4 0.000000 0.000000 0.000000 0.046829 0.000000 0.000000
# 5 0.000000 0.000000 0.000000 0.000000 -0.340653 0.000000
# 6 0.000000 0.000000 0.000000 0.000000 0.000000 0.082880
#
#
# Mechanical properties :
#
#
# Convention : Reuss Voigt Hill
#
# Bulk Modulus (GPa) = 37.97772 42.81851 40.39812
# Shear Modulus (GPa) = -56.85382 16.29566 -20.27908
#
# Velocity S-wave (km/s) = -5.15616 2.76047 -3.07943
# Velocity P-wave (km/s) = 4.20581 5.49391 2.49942
#
# Compressibility (1/GPa) = 0.02633123
#
# Stress axis : x y z
#
# Youngs Moduli (GPa) = 24.04175 67.48087 72.13321
#
# Poissons Ratio (x) = 0.93072 0.69042
# Poissons Ratio (y) = 0.33159 -0.10035
# Poissons Ratio (z) = 0.23012 -0.09388
#
# Static dielectric constant tensor:
#      x y z
#    x 1.773400 0.000000 0.000000 
#    y 0.000000 1.837000 0.000000 
#    z 0.000000 0.000000 1.753350 
# 
# From -- ./inp_files/20553.got.cif
#   From: 2010.05.17/outbox.cif.g08.bks.cpg/sg40_11_cif.got.tgz:20553.got - 2010.06.03 18:35:42.
