data_PCOD9364199
_publ_section_title
;
Structure prediction by ZEFSAII (Michael W. Deem and Ramdas Pophale) SiO2 
 PCOD9364199
Probable space group: A M A 2
;
_chemical_formula_sum "Si O2"
_cell_formula_units_Z 60
_cell_length_a 8.747090
_cell_length_b 27.236205
_cell_length_c 12.791638
_cell_angle_alpha 90.000000
_cell_angle_beta 90.000000
_cell_angle_gamma 90.000000
_cell_volume 3047.448324
_symmetry_space_group_name_H-M "A M A 2"
_symmetry_group_IT_number 40
_symmetry_cell_setting 'orthorhombic'
loop_
_space_group_symop_operation_xyz
x,y,z
-x,-y,z
1/2-x,y,z
1/2+x,-y,z
x,1/2+y,1/2+z
-x,1/2-y,1/2+z
1/2-x,1/2+y,1/2+z
1/2+x,1/2-y,1/2+z
loop_
_atom_site_type_symbol
_atom_site_label
_atom_site_fract_x
_atom_site_fract_y
_atom_site_fract_z
Si Si1 0.927624 0.186786 0.016230
Si Si2 0.500000 0.000000 0.129039
Si Si3 0.934368 0.577786 0.442662
Si Si4 0.067521 0.552584 0.215154
Si Si5 0.575919 0.928250 0.318362
Si Si6 0.567651 0.610077 0.024838
Si Si7 0.079349 0.181469 0.229328
Si Si8 0.569848 0.716335 0.929296
O O1 0.750000 0.196014 0.992183
O O2 0.955433 0.181269 0.139068
O O3 0.972590 0.134674 0.965668
O O4 0.028355 0.233124 0.984286
O O5 0.504169 0.958387 0.223252
O O6 0.488958 0.957137 0.037284
O O7 0.750000 0.572921 0.438313
O O8 0.005324 0.562955 0.331726
O O9 0.250000 0.550665 0.217239
O O10 0.000000 0.500000 0.181796
O O11 0.011053 0.592534 0.131235
O O12 0.750000 0.946631 0.334400
O O13 0.487995 0.924178 0.428162
O O14 0.584436 0.872643 0.277893
O O15 0.750000 0.606129 0.035163
O O16 0.530570 0.666849 0.994864
O O17 0.250000 0.193766 0.190586
O O18 0.026728 0.215753 0.323109
O O19 0.750000 0.712987 0.906534
#
# Coordination Sequence:
#
# PCOD9364199 Si02
#       8
#     8   4   8   8   8   8   8   8
#     4  11  23  40  63  93 128 167 210 263 318 381
#     4  12  22  40  66  96 132 168 212 254 318 370
#     4  11  25  43  65  95 131 171 217 262 317 381
#     4  12  26  44  68  94 129 172 217 266 320 381
#     4  10  22  38  62  95 129 166 210 259 313 373
#     4  10  23  44  68  94 128 168 215 266 321 380
#     4  10  20  38  61  89 124 163 207 260 314 376
#     4  10  22  41  65  93 124 165 211 264 323 381
#
# _framework density 19.688600999999998
#
# number of rings (size 3 to 8) (size 9 to 14) (size 15 to 20)
#    0.000    1.333    2.000    3.200    0.933    5.867 
#    0.000    1.333    0.000    0.000    0.000    0.000 
#    0.000    0.000    0.000    0.000    0.000    0.000 
#
# Total GULP energy -167004.227128 kJ/mol
# GULP energy per Si atom -5566.807571 kJ/mol
# Density = 1.964379 g / cm^3
# Si number density = 19.688601 Si / 1000 Ang^3
#
#
#
# Elastic Constant Matrix: (Units=GPa)
#
#
# Indices 1 2 3 4 5 6 
#
# 1 115.6109 52.7503 30.7920 0.0000 0.0000 0.0000
# 2 52.7503 93.2547 44.0796 0.0000 0.0000 0.0000
# 3 30.7920 44.0796 92.4534 0.0000 0.0000 0.0000
# 4 0.0000 0.0000 0.0000 14.9858 0.0000 0.0000
# 5 0.0000 0.0000 0.0000 0.0000 8.4154 0.0000
# 6 0.0000 0.0000 0.0000 0.0000 0.0000 11.3810
#
#
#
# Elastic Compliance Matrix: (Units=1/GPa)
#
#
# Indices 1 2 3 4 5 6 
#
# 1 0.011724 -0.006179 -0.000959 0.000000 0.000000 0.000000
# 2 -0.006179 0.017099 -0.006095 0.000000 0.000000 0.000000
# 3 -0.000959 -0.006095 0.014041 0.000000 0.000000 0.000000
# 4 0.000000 0.000000 0.000000 0.066730 0.000000 0.000000
# 5 0.000000 0.000000 0.000000 0.000000 0.118830 0.000000
# 6 0.000000 0.000000 0.000000 0.000000 0.000000 0.087866
#
#
# Mechanical properties :
#
#
# Convention : Reuss Voigt Hill
#
# Bulk Modulus (GPa) = 60.97450 61.84033 61.40742
# Shear Modulus (GPa) = 14.35869 18.53624 16.44746
#
# Velocity S-wave (km/s) = 2.70347 3.07167 2.89343
# Velocity P-wave (km/s) = 6.38605 6.63759 6.51303
#
# Compressibility (1/GPa) = 0.01640030
#
# Stress axis : x y z
#
# Youngs Moduli (GPa) = 85.29304 58.48246 71.21771
#
# Poissons Ratio (x) = 0.36134 0.06830
# Poissons Ratio (y) = 0.52700 0.43405
# Poissons Ratio (z) = 0.08180 0.35643
#
# Static dielectric constant tensor:
#      x y z
#    x 1.696340 0.000000 0.000000 
#    y 0.000000 1.709490 0.000000 
#    z 0.000000 0.000000 1.658450 
# 
# From -- ./inp_files/10404.got.cif
#   From: 2010.05.17/outbox.cif.g08.bks.cpg/sg40_6_cif.got.tgz:10404.got - 2010.06.03 18:35:42.
