data_PCOD9364918
_publ_section_title
;
Structure prediction by ZEFSAII (Michael W. Deem and Ramdas Pophale) SiO2 
 PCOD9364918
Probable space group: A M A 2
;
_chemical_formula_sum "Si O2"
_cell_formula_units_Z 40
_cell_length_a 19.217182
_cell_length_b 8.770392
_cell_length_c 10.920032
_cell_angle_alpha 90.000000
_cell_angle_beta 90.000000
_cell_angle_gamma 90.000000
_cell_volume 1840.486428
_symmetry_space_group_name_H-M "A M A 2"
_symmetry_group_IT_number 40
_symmetry_cell_setting 'orthorhombic'
loop_
_space_group_symop_operation_xyz
x,y,z
-x,-y,z
1/2-x,y,z
1/2+x,-y,z
x,1/2+y,1/2+z
-x,1/2-y,1/2+z
1/2-x,1/2+y,1/2+z
1/2+x,1/2-y,1/2+z
loop_
_atom_site_type_symbol
_atom_site_label
_atom_site_fract_x
_atom_site_fract_y
_atom_site_fract_z
Si Si1 0.597212 0.533804 0.354390
Si Si2 0.531270 0.259475 0.444208
Si Si3 0.170002 0.667601 0.865104
Si Si4 0.575389 0.045500 0.223052
Si Si5 0.585263 0.349662 0.103996
O O1 0.589739 0.391706 0.449331
O O2 0.532585 0.647614 0.381275
O O3 0.661100 0.649336 0.362444
O O4 0.592057 0.457380 0.220805
O O5 0.556043 0.131940 0.349895
O O6 0.494556 0.177800 0.558688
O O7 0.250000 0.623150 0.858803
O O8 0.125063 0.593247 0.755704
O O9 0.133491 0.608169 0.989912
O O10 0.608372 0.178793 0.142945
O O11 0.500000 0.000000 0.169621
#
# Coordination Sequence:
#
# PCOD9364918 Si02
#       5
#     8   8   8   8   8
#     4   9  19  37  61  88 121 159 201 253 307 372
#     4   9  19  37  59  97 122 148 195 265 314 358
#     4  11  25  44  59  87 133 170 208 256 310 380
#     4  11  21  38  63  97 123 157 205 270 309 361
#     4  10  22  38  66  91 124 160 204 251 325 366
#
# _framework density 21.733384999999998
#
# number of rings (size 3 to 8) (size 9 to 14) (size 15 to 20)
#    0.000    2.000    4.000    0.000    5.600    8.000 
#    0.000    3.000    0.000    0.000    0.000    0.000 
#    0.000    0.000    0.000    0.000    0.000    0.000 
#
# Total GULP energy -111664.771849 kJ/mol
# GULP energy per Si atom -5583.238592 kJ/mol
# Density = 2.168392 g / cm^3
# Si number density = 21.733385 Si / 1000 Ang^3
#
#
#
# Elastic Constant Matrix: (Units=GPa)
#
#
# Indices 1 2 3 4 5 6 
#
# 1 76.3717 15.7485 17.7600 0.0000 0.0000 0.0000
# 2 15.7485 82.2603 19.9909 0.0000 0.0000 0.0000
# 3 17.7600 19.9909 94.7380 0.0000 0.0000 0.0000
# 4 0.0000 0.0000 0.0000 43.3449 0.0000 0.0000
# 5 0.0000 0.0000 0.0000 0.0000 7.6669 0.0000
# 6 0.0000 0.0000 0.0000 0.0000 0.0000 20.8998
#
#
#
# Elastic Compliance Matrix: (Units=1/GPa)
#
#
# Indices 1 2 3 4 5 6 
#
# 1 0.014046 -0.002160 -0.002177 0.000000 0.000000 0.000000
# 2 -0.002160 0.013146 -0.002369 0.000000 0.000000 0.000000
# 3 -0.002177 -0.002369 0.011463 0.000000 0.000000 0.000000
# 4 0.000000 0.000000 0.000000 0.023071 0.000000 0.000000
# 5 0.000000 0.000000 0.000000 0.000000 0.130430 0.000000
# 6 0.000000 0.000000 0.000000 0.000000 0.000000 0.047847
#
#
# Mechanical properties :
#
#
# Convention : Reuss Voigt Hill
#
# Bulk Modulus (GPa) = 39.61580 40.04099 39.82840
# Shear Modulus (GPa) = 19.09640 27.70703 23.40171
#
# Velocity S-wave (km/s) = 2.96745 3.57439 3.28497
# Velocity P-wave (km/s) = 5.47801 5.95808 5.72309
#
# Compressibility (1/GPa) = 0.02524245
#
# Stress axis : x y z
#
# Youngs Moduli (GPa) = 71.19692 76.07016 87.23345
#
# Poissons Ratio (x) = 0.16430 0.18993
# Poissons Ratio (y) = 0.15378 0.20666
# Poissons Ratio (z) = 0.15502 0.18021
#
# Static dielectric constant tensor:
#      x y z
#    x 1.787070 0.000000 0.000000 
#    y 0.000000 1.859660 0.000000 
#    z 0.000000 0.000000 1.846430 
# 
# From -- ./inp_files/13439.got.cif
#   From: 2010.05.17/outbox.cif.g08.bks.cpg/sg40_7_cif.got.tgz:13439.got - 2010.06.03 18:35:42.
