data_PCOD9364761
_publ_section_title
;
Structure prediction by ZEFSAII (Michael W. Deem and Ramdas Pophale) SiO2 
 PCOD9364761
Probable space group: A M A 2
;
_chemical_formula_sum "Si O2"
_cell_formula_units_Z 32
_cell_length_a 10.212013
_cell_length_b 7.984161
_cell_length_c 21.038110
_cell_angle_alpha 90.000000
_cell_angle_beta 90.000000
_cell_angle_gamma 90.000000
_cell_volume 1715.328749
_symmetry_space_group_name_H-M "A M A 2"
_symmetry_group_IT_number 40
_symmetry_cell_setting 'orthorhombic'
loop_
_space_group_symop_operation_xyz
x,y,z
-x,-y,z
1/2-x,y,z
1/2+x,-y,z
x,1/2+y,1/2+z
-x,1/2-y,1/2+z
1/2-x,1/2+y,1/2+z
1/2+x,1/2-y,1/2+z
loop_
_atom_site_type_symbol
_atom_site_label
_atom_site_fract_x
_atom_site_fract_y
_atom_site_fract_z
Si Si1 0.750000 0.783409 0.008281
Si Si2 0.000000 0.000000 0.318175
Si Si3 0.510420 0.307575 0.076510
Si Si4 0.750000 0.973489 0.407501
Si Si5 0.250000 0.838776 0.999173
Si Si6 0.907903 0.650204 0.695909
O O1 0.625780 0.768886 0.054370
O O2 0.750000 0.632281 0.956405
O O3 0.750000 0.968617 0.978128
O O4 0.123393 0.025906 0.362797
O O5 0.041540 0.852003 0.268716
O O6 0.500000 0.500000 0.055227
O O7 0.550654 0.301119 0.150546
O O8 0.623882 0.205167 0.041430
O O9 0.750000 0.799357 0.444705
O O10 0.750000 0.622440 0.694199
O O11 0.000000 0.500000 0.668354
#
# Coordination Sequence:
#
# PCOD9364761 Si02
#       6
#     4   4   8   4   4   8
#     4  12  26  41  67 101 133 176 220 277 344 400
#     4  10  22  40  70  90 132 188 214 272 330 396
#     4  12  23  41  64 102 139 166 222 283 342 401
#     4  12  22  44  66  96 138 172 234 262 330 412
#     4  12  24  43  65  99 133 178 218 279 340 402
#     4  10  21  40  65  95 124 177 221 264 332 390
#
# _framework density 18.655315000000002
#
# number of rings (size 3 to 8) (size 9 to 14) (size 15 to 20)
#    0.750    0.000    5.000    3.750    1.750    0.000 
#    0.000    2.500    0.000    0.000    0.000    0.000 
#    0.000    0.000    0.000    0.000    0.000    0.000 
#
# Total GULP energy -89124.763753 kJ/mol
# GULP energy per Si atom -5570.297735 kJ/mol
# Density = 1.861285 g / cm^3
# Si number density = 18.655315 Si / 1000 Ang^3
#
#
#
# Elastic Constant Matrix: (Units=GPa)
#
#
# Indices 1 2 3 4 5 6 
#
# 1 201.2233 35.7849 70.9634 0.0000 0.0000 0.0000
# 2 35.7849 104.8508 33.1820 0.0000 0.0000 0.0000
# 3 70.9634 33.1820 125.8847 0.0000 0.0000 0.0000
# 4 0.0000 0.0000 0.0000 35.5006 0.0000 0.0000
# 5 0.0000 0.0000 0.0000 0.0000 41.3554 0.0000
# 6 0.0000 0.0000 0.0000 0.0000 0.0000 19.1601
#
#
#
# Elastic Compliance Matrix: (Units=1/GPa)
#
#
# Indices 1 2 3 4 5 6 
#
# 1 0.006322 -0.001123 -0.003268 0.000000 0.000000 0.000000
# 2 -0.001123 0.010605 -0.002162 0.000000 0.000000 0.000000
# 3 -0.003268 -0.002162 0.010356 0.000000 0.000000 0.000000
# 4 0.000000 0.000000 0.000000 0.028169 0.000000 0.000000
# 5 0.000000 0.000000 0.000000 0.000000 0.024181 0.000000
# 6 0.000000 0.000000 0.000000 0.000000 0.000000 0.052192
#
#
# Mechanical properties :
#
#
# Convention : Reuss Voigt Hill
#
# Bulk Modulus (GPa) = 70.54053 79.09103 74.81578
# Shear Modulus (GPa) = 33.41019 38.67180 36.04099
#
# Velocity S-wave (km/s) = 4.23652 4.55792 4.40016
# Velocity P-wave (km/s) = 7.86291 8.37780 8.12444
#
# Compressibility (1/GPa) = 0.01417625
#
# Stress axis : x y z
#
# Youngs Moduli (GPa) = 158.18470 94.29497 96.56584
#
# Poissons Ratio (x) = 0.10594 0.31553
# Poissons Ratio (y) = 0.17772 0.20878
# Poissons Ratio (z) = 0.51687 0.20387
#
# Static dielectric constant tensor:
#      x y z
#    x 1.412880 0.000000 0.000000 
#    y 0.000000 1.657660 0.000000 
#    z 0.000000 0.000000 1.663340 
# 
# From -- ./inp_files/21808.got.cif
#   From: 2010.05.17/outbox.cif.g08.bks.cpg/sg40_11_cif.got.tgz:21808.got - 2010.06.03 18:35:42.
