data_PCOD9364872
_publ_section_title
;
Structure prediction by ZEFSAII (Michael W. Deem and Ramdas Pophale) SiO2 
 PCOD9364872
Probable space group: A M A 2
;
_chemical_formula_sum "Si O2"
_cell_formula_units_Z 24
_cell_length_a 10.904886
_cell_length_b 11.209467
_cell_length_c 7.169789
_cell_angle_alpha 90.000000
_cell_angle_beta 90.000000
_cell_angle_gamma 90.000000
_cell_volume 876.420379
_symmetry_space_group_name_H-M "A M A 2"
_symmetry_group_IT_number 40
_symmetry_cell_setting 'orthorhombic'
loop_
_space_group_symop_operation_xyz
x,y,z
-x,-y,z
1/2-x,y,z
1/2+x,-y,z
x,1/2+y,1/2+z
-x,1/2-y,1/2+z
1/2-x,1/2+y,1/2+z
1/2+x,1/2-y,1/2+z
loop_
_atom_site_type_symbol
_atom_site_label
_atom_site_fract_x
_atom_site_fract_y
_atom_site_fract_z
Si Si1 0.250000 0.743717 0.980940
Si Si2 0.750000 0.662586 0.833804
Si Si3 0.250000 0.006311 0.693444
Si Si4 0.984609 0.864109 0.293327
Si Si5 0.500000 0.500000 0.424286
O O1 0.132374 0.708387 0.860703
O O2 0.250000 0.863782 0.106906
O O3 0.250000 0.645870 0.146466
O O4 0.750000 0.562479 0.996449
O O5 0.608980 0.702691 0.846515
O O6 0.377671 0.981059 0.801126
O O7 0.000000 0.000000 0.374103
O O8 0.976315 0.894009 0.074319
#
# Coordination Sequence:
#
# PCOD9364872 Si02
#       5
#     4   4   4   8   4
#     4  12  25  43  77 108 152 198 264 318 376 465
#     4  12  25  43  75 113 151 199 256 321 377 474
#     4  12  20  42  66 111 147 201 244 305 397 457
#     4  10  21  48  74 105 143 207 254 311 388 444
#     4  10  22  38  80  98 146 206 246 296 390 456
#
# _framework density 27.384119999999999
#
# number of rings (size 3 to 8) (size 9 to 14) (size 15 to 20)
#    1.000    0.000    3.333    4.000    0.000    2.667 
#    0.000   11.667    0.000    0.000    0.000    0.000 
#    0.000    0.000    0.000    0.000    0.000    0.000 
#
# Total GULP energy -66949.320984 kJ/mol
# GULP energy per Si atom -5579.110082 kJ/mol
# Density = 2.732179 g / cm^3
# Si number density = 27.384120 Si / 1000 Ang^3
#
#
#
# Elastic Constant Matrix: (Units=GPa)
#
#
# Indices 1 2 3 4 5 6 
#
# 1 324.0259 51.3791 113.6373 0.0000 0.0000 0.0000
# 2 51.3791 87.3445 77.7077 0.0000 0.0000 0.0000
# 3 113.6373 77.7077 155.2084 0.0000 0.0000 0.0000
# 4 0.0000 0.0000 0.0000 69.4880 0.0000 0.0000
# 5 0.0000 0.0000 0.0000 0.0000 64.0510 0.0000
# 6 0.0000 0.0000 0.0000 0.0000 0.0000 18.4861
#
#
#
# Elastic Compliance Matrix: (Units=1/GPa)
#
#
# Indices 1 2 3 4 5 6 
#
# 1 0.004163 0.000474 -0.003285 0.000000 0.000000 0.000000
# 2 0.000474 0.020699 -0.010710 0.000000 0.000000 0.000000
# 3 -0.003285 -0.010710 0.014211 0.000000 0.000000 0.000000
# 4 0.000000 0.000000 0.000000 0.014391 0.000000 0.000000
# 5 0.000000 0.000000 0.000000 0.000000 0.015613 0.000000
# 6 0.000000 0.000000 0.000000 0.000000 0.000000 0.054095
#
#
# Mechanical properties :
#
#
# Convention : Reuss Voigt Hill
#
# Bulk Modulus (GPa) = 83.13060 116.89188 100.01124
# Shear Modulus (GPa) = 32.42044 51.99533 42.20789
#
# Velocity S-wave (km/s) = 3.44454 4.36218 3.93023
# Velocity P-wave (km/s) = 6.80021 8.25531 7.56284
#
# Compressibility (1/GPa) = 0.01202926
#
# Stress axis : x y z
#
# Youngs Moduli (GPa) = 240.19731 48.31247 70.36957
#
# Poissons Ratio (x) = -0.02290 0.23120
# Poissons Ratio (y) = -0.11386 0.75367
# Poissons Ratio (z) = 0.78917 0.51743
#
# Static dielectric constant tensor:
#      x y z
#    x 2.093120 0.000000 0.000000 
#    y 0.000000 2.321340 0.000000 
#    z 0.000000 0.000000 2.177990 
# 
# From -- ./inp_files/487.got.cif
#   From: 2010.05.17/outbox.cif.g08.bks.cpg/sg40_1_cif.got.tgz:487.got - 2010.06.03 18:35:42.
