data_PCOD9364592
_publ_section_title
;
Structure prediction by ZEFSAII (Michael W. Deem and Ramdas Pophale) SiO2 
 PCOD9364592
Probable space group: A M A 2
;
_chemical_formula_sum "Si O2"
_cell_formula_units_Z 64
_cell_length_a 23.421203
_cell_length_b 18.368442
_cell_length_c 7.289992
_cell_angle_alpha 90.000000
_cell_angle_beta 90.000000
_cell_angle_gamma 90.000000
_cell_volume 3136.234813
_symmetry_space_group_name_H-M "A M A 2"
_symmetry_group_IT_number 40
_symmetry_cell_setting 'orthorhombic'
loop_
_space_group_symop_operation_xyz
x,y,z
-x,-y,z
1/2-x,y,z
1/2+x,-y,z
x,1/2+y,1/2+z
-x,1/2-y,1/2+z
1/2-x,1/2+y,1/2+z
1/2+x,1/2-y,1/2+z
loop_
_atom_site_type_symbol
_atom_site_label
_atom_site_fract_x
_atom_site_fract_y
_atom_site_fract_z
Si Si1 0.965582 0.683469 0.584160
Si Si2 0.815033 0.513461 0.914596
Si Si3 0.621064 0.214741 0.788195
Si Si4 0.083841 0.225096 0.922743
Si Si5 0.185941 0.431984 0.314488
Si Si6 0.372652 0.574763 0.478702
Si Si7 0.559916 0.022943 0.225436
Si Si8 0.314465 0.641680 0.834013
O O1 0.938735 0.700727 0.386095
O O2 0.937236 0.731523 0.745728
O O3 0.952366 0.600727 0.637261
O O4 0.031553 0.701577 0.554995
O O5 0.750000 0.521027 0.827588
O O6 0.876823 0.528697 0.819885
O O7 0.818398 0.427573 0.966881
O O8 0.813332 0.561003 0.095520
O O9 0.619985 0.225834 0.567299
O O10 0.657359 0.145280 0.852954
O O11 0.645137 0.290548 0.865948
O O12 0.112922 0.148208 0.868914
O O13 0.250000 0.433032 0.386899
O O14 0.154426 0.504376 0.384355
O O15 0.428422 0.540545 0.577054
O O16 0.331552 0.604571 0.640296
O O17 0.500000 0.000000 0.326715
O O18 0.250000 0.668705 0.828331
#
# Coordination Sequence:
#
# PCOD9364592 Si02
#       8
#     8   8   8   8   8   8   8   8
#     4  12  23  40  61  91 125 165 210 263 320 376
#     4   9  21  39  62  92 126 163 209 264 321 387
#     4  11  23  40  62  91 122 162 210 259 318 378
#     4  11  24  40  63  86 127 167 205 259 322 381
#     4  11  22  40  64  91 126 164 210 268 325 383
#     4  10  21  38  60  89 118 162 205 256 318 379
#     4  11  21  40  64  90 126 166 214 266 318 384
#     4   9  19  38  60  84 117 157 202 252 311 377
#
# _framework density 20.406635999999999
#
# number of rings (size 3 to 8) (size 9 to 14) (size 15 to 20)
#    0.000    1.500    3.750    1.500    1.750    0.500 
#    0.000    0.625    0.000    2.250    0.000    0.000 
#    0.000    0.000    0.000    0.000    0.000    0.000 
#
# Total GULP energy -178162.740033 kJ/mol
# GULP energy per Si atom -5567.585626 kJ/mol
# Density = 2.036019 g / cm^3
# Si number density = 20.406636 Si / 1000 Ang^3
#
#
#
# Elastic Constant Matrix: (Units=GPa)
#
#
# Indices 1 2 3 4 5 6 
#
# 1 107.1863 23.5504 5.1776 0.0000 0.0000 0.0000
# 2 23.5504 84.2774 16.6804 0.0000 0.0000 0.0000
# 3 5.1776 16.6804 30.5342 0.0000 0.0000 0.0000
# 4 0.0000 0.0000 0.0000 22.6918 0.0000 0.0000
# 5 0.0000 0.0000 0.0000 0.0000 10.4784 0.0000
# 6 0.0000 0.0000 0.0000 0.0000 0.0000 18.6133
#
#
#
# Elastic Compliance Matrix: (Units=1/GPa)
#
#
# Indices 1 2 3 4 5 6 
#
# 1 0.009941 -0.002741 -0.000189 0.000000 0.000000 0.000000
# 2 -0.002741 0.014060 -0.007216 0.000000 0.000000 0.000000
# 3 -0.000189 -0.007216 0.036724 0.000000 0.000000 0.000000
# 4 0.000000 0.000000 0.000000 0.044069 0.000000 0.000000
# 5 0.000000 0.000000 0.000000 0.000000 0.095434 0.000000
# 6 0.000000 0.000000 0.000000 0.000000 0.000000 0.053725
#
#
# Mechanical properties :
#
#
# Convention : Reuss Voigt Hill
#
# Bulk Modulus (GPa) = 24.73131 34.75720 29.74425
# Shear Modulus (GPa) = 17.37800 22.12935 19.75368
#
# Velocity S-wave (km/s) = 2.92136 3.29663 3.11465
# Velocity P-wave (km/s) = 4.85023 5.61779 5.24806
#
# Compressibility (1/GPa) = 0.04043458
#
# Stress axis : x y z
#
# Youngs Moduli (GPa) = 100.59562 71.12593 27.23014
#
# Poissons Ratio (x) = 0.19492 0.00513
# Poissons Ratio (y) = 0.27569 0.19649
# Poissons Ratio (z) = 0.01896 0.51323
#
# Static dielectric constant tensor:
#      x y z
#    x 1.780300 0.000000 0.000000 
#    y 0.000000 1.708390 0.000000 
#    z 0.000000 0.000000 1.752900 
# 
# From -- ./inp_files/8953.got.cif
#   From: 2010.05.17/outbox.cif.g08.bks.cpg/sg40_5_cif.got.tgz:8953.got - 2010.06.03 18:35:42.
