data_PCOD9364432
_publ_section_title
;
Structure prediction by ZEFSAII (Michael W. Deem and Ramdas Pophale) SiO2 
 PCOD9364432
Probable space group: A M A 2
;
_chemical_formula_sum "Si O2"
_cell_formula_units_Z 40
_cell_length_a 20.542048
_cell_length_b 12.411782
_cell_length_c 7.327785
_cell_angle_alpha 90.000000
_cell_angle_beta 90.000000
_cell_angle_gamma 90.000000
_cell_volume 1868.317136
_symmetry_space_group_name_H-M "A M A 2"
_symmetry_group_IT_number 40
_symmetry_cell_setting 'orthorhombic'
loop_
_space_group_symop_operation_xyz
x,y,z
-x,-y,z
1/2-x,y,z
1/2+x,-y,z
x,1/2+y,1/2+z
-x,1/2-y,1/2+z
1/2-x,1/2+y,1/2+z
1/2+x,1/2-y,1/2+z
loop_
_atom_site_type_symbol
_atom_site_label
_atom_site_fract_x
_atom_site_fract_y
_atom_site_fract_z
Si Si1 0.960482 0.391015 0.227600
Si Si2 0.323893 0.370827 0.831868
Si Si3 0.179589 0.633375 0.214177
Si Si4 0.574099 0.747871 0.070158
Si Si5 0.822669 0.898172 0.154235
O O1 0.888923 0.409199 0.140106
O O2 0.946228 0.336730 0.421800
O O3 0.000000 0.500000 0.244558
O O4 0.008273 0.306870 0.132483
O O5 0.250000 0.373446 0.908765
O O6 0.324437 0.263608 0.704935
O O7 0.378784 0.341350 0.978529
O O8 0.335499 0.481632 0.725748
O O9 0.250000 0.597817 0.139924
O O10 0.180512 0.604821 0.431807
O O11 0.621085 0.813712 0.207397
O O12 0.750000 0.865280 0.215195
#
# Coordination Sequence:
#
# PCOD9364432 Si02
#       5
#     8   8   8   8   8
#     4  10  22  37  54  78 109 141 176 220 269 319
#     4   8  14  28  53  80 106 141 180 218 263 312
#     4   8  16  32  52  76 105 136 177 223 263 314
#     4  10  21  35  53  79 111 143 178 221 266 319
#     4   8  14  28  53  81 105 137 181 222 263 310
#
# _framework density 21.409642000000002
#
# number of rings (size 3 to 8) (size 9 to 14) (size 15 to 20)
#    0.000    3.600    0.000    1.800    0.000    8.000 
#    0.000    2.000    0.000    2.400    0.000    0.000 
#    0.000    0.000    0.000    0.000    0.000    0.000 
#
# Total GULP energy -111406.633711 kJ/mol
# GULP energy per Si atom -5570.331686 kJ/mol
# Density = 2.136091 g / cm^3
# Si number density = 21.409642 Si / 1000 Ang^3
#
#
#
# Elastic Constant Matrix: (Units=GPa)
#
#
# Indices 1 2 3 4 5 6 
#
# 1 224.0002 69.3396 21.7576 0.0000 0.0000 0.0000
# 2 69.3396 119.5851 17.9080 0.0000 0.0000 0.0000
# 3 21.7576 17.9080 27.4474 0.0000 0.0000 0.0000
# 4 0.0000 0.0000 0.0000 20.1759 0.0000 0.0000
# 5 0.0000 0.0000 0.0000 0.0000 86.9685 0.0000
# 6 0.0000 0.0000 0.0000 0.0000 0.0000 10.2324
#
#
#
# Elastic Compliance Matrix: (Units=1/GPa)
#
#
# Indices 1 2 3 4 5 6 
#
# 1 0.005600 -0.002862 -0.002572 0.000000 0.000000 0.000000
# 2 -0.002862 0.010730 -0.004732 0.000000 0.000000 0.000000
# 3 -0.002572 -0.004732 0.041560 0.000000 0.000000 0.000000
# 4 0.000000 0.000000 0.000000 0.049564 0.000000 0.000000
# 5 0.000000 0.000000 0.000000 0.000000 0.011498 0.000000
# 6 0.000000 0.000000 0.000000 0.000000 0.000000 0.097729
#
#
# Mechanical properties :
#
#
# Convention : Reuss Voigt Hill
#
# Bulk Modulus (GPa) = 26.62565 65.44923 46.03744
# Shear Modulus (GPa) = 20.03742 40.94384 30.49063
#
# Velocity S-wave (km/s) = 3.06258 4.37785 3.77789
# Velocity P-wave (km/s) = 4.99691 7.49602 6.37022
#
# Compressibility (1/GPa) = 0.03755777
#
# Stress axis : x y z
#
# Youngs Moduli (GPa) = 178.57102 93.19339 24.06175
#
# Poissons Ratio (x) = 0.26671 0.06188
# Poissons Ratio (y) = 0.51106 0.11387
# Poissons Ratio (z) = 0.45926 0.44102
#
# Static dielectric constant tensor:
#      x y z
#    x 1.858240 0.000000 0.000000 
#    y 0.000000 1.755750 0.000000 
#    z 0.000000 0.000000 1.845120 
# 
# From -- ./inp_files/8085.got.cif
#   From: 2010.05.17/outbox.cif.g08.bks.cpg/sg40_5_cif.got.tgz:8085.got - 2010.06.03 18:35:42.
