data_PCOD9364647
_publ_section_title
;
Structure prediction by ZEFSAII (Michael W. Deem and Ramdas Pophale) SiO2 
 PCOD9364647
Probable space group: A M A 2
;
_chemical_formula_sum "Si O2"
_cell_formula_units_Z 40
_cell_length_a 16.500199
_cell_length_b 19.177475
_cell_length_c 5.482484
_cell_angle_alpha 90.000000
_cell_angle_beta 90.000000
_cell_angle_gamma 90.000000
_cell_volume 1734.834220
_symmetry_space_group_name_H-M "A M A 2"
_symmetry_group_IT_number 40
_symmetry_cell_setting 'orthorhombic'
loop_
_space_group_symop_operation_xyz
x,y,z
-x,-y,z
1/2-x,y,z
1/2+x,-y,z
x,1/2+y,1/2+z
-x,1/2-y,1/2+z
1/2-x,1/2+y,1/2+z
1/2+x,1/2-y,1/2+z
loop_
_atom_site_type_symbol
_atom_site_label
_atom_site_fract_x
_atom_site_fract_y
_atom_site_fract_z
Si Si1 0.750000 0.190618 0.536790
Si Si2 0.908386 0.828296 0.748210
Si Si3 0.922559 0.678776 0.977950
Si Si4 0.902544 0.987028 0.743487
Si Si5 0.750000 0.271985 0.022589
Si Si6 0.414725 0.958547 0.228917
O O1 0.836027 0.155038 0.583049
O O2 0.750000 0.215270 0.250049
O O3 0.750000 0.249400 0.743592
O O4 0.912101 0.760779 0.922778
O O5 0.890744 0.907032 0.824860
O O6 0.834400 0.811284 0.566881
O O7 0.997597 0.830231 0.634073
O O8 0.932969 0.623733 0.758858
O O9 0.873858 0.008331 0.472070
O O10 0.000000 0.000000 0.722211
O O11 0.870672 0.030455 0.972935
O O12 0.500000 0.000000 0.210626
#
# Coordination Sequence:
#
# PCOD9364647 Si02
#       6
#     4   8   8   8   4   8
#     4  10  24  44  62 100 140 162 219 288 321 388
#     4  11  23  40  70 100 127 179 223 270 334 395
#     4  11  23  40  70 100 127 179 223 270 334 395
#     4  10  21  39  60  91 134 165 210 273 315 381
#     4  10  24  44  62 100 140 162 219 288 321 388
#     4  10  21  39  60  91 134 165 210 273 315 381
#
# _framework density 23.05696
#
# number of rings (size 3 to 8) (size 9 to 14) (size 15 to 20)
#    0.000    1.600    4.000    1.200    5.600    6.400 
#    0.000    2.000    0.000    0.000    0.000    1.400 
#    0.000    0.000    0.000    0.000    0.000    0.000 
#
# Total GULP energy -111401.567753 kJ/mol
# GULP energy per Si atom -5570.078388 kJ/mol
# Density = 2.300448 g / cm^3
# Si number density = 23.056960 Si / 1000 Ang^3
#
#
#
# Elastic Constant Matrix: (Units=GPa)
#
#
# Indices 1 2 3 4 5 6 
#
# 1 123.5725 -8.6869 2.8340 0.0000 0.0000 0.0000
# 2 -8.6869 109.5064 24.8436 0.0000 0.0000 0.0000
# 3 2.8340 24.8436 124.6921 0.0000 0.0000 0.0000
# 4 0.0000 0.0000 0.0000 25.5034 0.0000 0.0000
# 5 0.0000 0.0000 0.0000 0.0000 -12.0759 0.0000
# 6 0.0000 0.0000 0.0000 0.0000 0.0000 -77.3409
#
#
#
# Elastic Compliance Matrix: (Units=1/GPa)
#
#
# Indices 1 2 3 4 5 6 
#
# 1 0.008151 0.000721 -0.000329 0.000000 0.000000 0.000000
# 2 0.000721 0.009628 -0.001935 0.000000 0.000000 0.000000
# 3 -0.000329 -0.001935 0.008413 0.000000 0.000000 0.000000
# 4 0.000000 0.000000 0.000000 0.039210 0.000000 0.000000
# 5 0.000000 0.000000 0.000000 0.000000 -0.082809 0.000000
# 6 0.000000 0.000000 0.000000 0.000000 0.000000 -0.012930
#
#
# Mechanical properties :
#
#
# Convention : Reuss Voigt Hill
#
# Bulk Modulus (GPa) = 43.27777 43.97247 43.62512
# Shear Modulus (GPa) = -255.74923 9.80267 -122.97328
#
# Velocity S-wave (km/s) = -10.54331 2.06415 -7.31097
# Velocity P-wave (km/s) = 11.37561 4.97932 7.23225
#
# Compressibility (1/GPa) = 0.02310655
#
# Stress axis : x y z
#
# Youngs Moduli (GPa) = 122.68949 103.86356 118.86802
#
# Poissons Ratio (x) = -0.07491 0.03910
# Poissons Ratio (y) = -0.08848 0.22997
# Poissons Ratio (z) = 0.04036 0.20094
#
# Static dielectric constant tensor:
#      x y z
#    x 1.808480 0.000000 0.000000 
#    y 0.000000 2.038550 0.000000 
#    z 0.000000 0.000000 1.947870 
# 
# From -- ./inp_files/1746.got.cif
#   From: 2010.05.17/outbox.cif.g08.bks.cpg/sg40_1_cif.got.tgz:1746.got - 2010.06.03 18:35:42.
