data_PCOD9364916
_publ_section_title
;
Structure prediction by ZEFSAII (Michael W. Deem and Ramdas Pophale) SiO2 
 PCOD9364916
Probable space group: A M A 2
;
_chemical_formula_sum "Si O2"
_cell_formula_units_Z 36
_cell_length_a 18.381092
_cell_length_b 8.619302
_cell_length_c 9.947505
_cell_angle_alpha 90.000000
_cell_angle_beta 90.000000
_cell_angle_gamma 90.000000
_cell_volume 1576.004933
_symmetry_space_group_name_H-M "A M A 2"
_symmetry_group_IT_number 40
_symmetry_cell_setting 'orthorhombic'
loop_
_space_group_symop_operation_xyz
x,y,z
-x,-y,z
1/2-x,y,z
1/2+x,-y,z
x,1/2+y,1/2+z
-x,1/2-y,1/2+z
1/2-x,1/2+y,1/2+z
1/2+x,1/2-y,1/2+z
loop_
_atom_site_type_symbol
_atom_site_label
_atom_site_fract_x
_atom_site_fract_y
_atom_site_fract_z
Si Si1 0.091545 0.303181 0.642740
Si Si2 0.750000 0.824413 0.589841
Si Si3 0.750000 0.526684 0.419815
Si Si4 0.496323 0.686358 0.394962
Si Si5 0.250000 0.366237 0.145621
Si Si6 0.627549 0.360568 0.586161
O O1 0.172134 0.229136 0.657611
O O2 0.031173 0.246960 0.750897
O O3 0.096483 0.490313 0.663204
O O4 0.066159 0.270553 0.487303
O O5 0.750000 0.704794 0.462398
O O6 0.750000 0.002212 0.531086
O O7 0.750000 0.509222 0.262991
O O8 0.681210 0.442939 0.481267
O O9 0.500000 0.500000 0.382303
O O10 0.432377 0.725420 0.499741
O O11 0.321156 0.262265 0.158544
#
# Coordination Sequence:
#
# PCOD9364916 Si02
#       6
#     8   4   4   8   4   8
#     4  10  22  43  68  94 132 172 214 266 323 383
#     4  10  22  38  64  96 124 167 217 265 320 384
#     4   9  19  37  58  86 128 165 211 267 316 376
#     4  10  22  41  65  94 128 169 213 264 324 384
#     4  11  21  37  64  94 128 172 214 262 322 380
#     4   9  21  39  60  90 127 169 213 261 320 385
#
# _framework density 22.842566999999999
#
# number of rings (size 3 to 8) (size 9 to 14) (size 15 to 20)
#    0.000    2.222    0.000    2.000    0.000    9.778 
#    0.000   12.222    0.000    1.333    0.000    0.000 
#    0.000    0.000    0.000    0.000    0.000    0.000 
#
# Total GULP energy -100260.106754 kJ/mol
# GULP energy per Si atom -5570.005931 kJ/mol
# Density = 2.279058 g / cm^3
# Si number density = 22.842567 Si / 1000 Ang^3
#
#
#
# Elastic Constant Matrix: (Units=GPa)
#
#
# Indices 1 2 3 4 5 6 
#
# 1 105.4155 28.4562 43.9576 0.0000 0.0000 0.0000
# 2 28.4562 67.6007 25.9693 0.0000 0.0000 0.0000
# 3 43.9576 25.9693 76.2909 0.0000 0.0000 0.0000
# 4 0.0000 0.0000 0.0000 18.4995 0.0000 0.0000
# 5 0.0000 0.0000 0.0000 0.0000 -969.3064 0.0000
# 6 0.0000 0.0000 0.0000 0.0000 0.0000 60.8694
#
#
#
# Elastic Compliance Matrix: (Units=1/GPa)
#
#
# Indices 1 2 3 4 5 6 
#
# 1 0.012989 -0.002983 -0.006469 0.000000 0.000000 0.000000
# 2 -0.002983 0.017703 -0.004308 0.000000 0.000000 0.000000
# 3 -0.006469 -0.004308 0.018301 0.000000 0.000000 0.000000
# 4 0.000000 0.000000 0.000000 0.054056 0.000000 0.000000
# 5 0.000000 0.000000 0.000000 0.000000 -0.001032 0.000000
# 6 0.000000 0.000000 0.000000 0.000000 0.000000 0.016429
#
#
# Mechanical properties :
#
#
# Convention : Reuss Voigt Hill
#
# Bulk Modulus (GPa) = 46.56503 49.56369 48.06436
# Shear Modulus (GPa) = 32.65381 -167.92589 -67.63604
#
# Velocity S-wave (km/s) = 3.78500 -8.58336 -5.44738
# Velocity P-wave (km/s) = 6.28737 8.74569 4.29860
#
# Compressibility (1/GPa) = 0.02147534
#
# Stress axis : x y z
#
# Youngs Moduli (GPa) = 76.98950 56.48748 54.64141
#
# Poissons Ratio (x) = 0.16848 0.35346
# Poissons Ratio (y) = 0.22963 0.23537
# Poissons Ratio (z) = 0.49802 0.24332
#
# Static dielectric constant tensor:
#      x y z
#    x 3.662490 0.000000 0.000000 
#    y 0.000000 1.882610 0.000000 
#    z 0.000000 0.000000 1.892330 
# 
# From -- ./inp_files/7999.got.cif
#   From: 2010.05.17/outbox.cif.g08.bks.cpg/sg40_4_cif.got.tgz:7999.got - 2010.06.03 18:35:42.
