data_PCOD9364529
_publ_section_title
;
Structure prediction by ZEFSAII (Michael W. Deem and Ramdas Pophale) SiO2 
 PCOD9364529
Probable space group: A M A 2
;
_chemical_formula_sum "Si O2"
_cell_formula_units_Z 60
_cell_length_a 24.353071
_cell_length_b 7.166379
_cell_length_c 17.232918
_cell_angle_alpha 90.000000
_cell_angle_beta 90.000000
_cell_angle_gamma 90.000000
_cell_volume 3007.546349
_symmetry_space_group_name_H-M "A M A 2"
_symmetry_group_IT_number 40
_symmetry_cell_setting 'orthorhombic'
loop_
_space_group_symop_operation_xyz
x,y,z
-x,-y,z
1/2-x,y,z
1/2+x,-y,z
x,1/2+y,1/2+z
-x,1/2-y,1/2+z
1/2-x,1/2+y,1/2+z
1/2+x,1/2-y,1/2+z
loop_
_atom_site_type_symbol
_atom_site_label
_atom_site_fract_x
_atom_site_fract_y
_atom_site_fract_z
Si Si1 0.101248 0.412942 0.932360
Si Si2 0.186000 0.296468 0.270488
Si Si3 0.312135 0.643394 0.182096
Si Si4 0.547358 0.628721 0.601243
Si Si5 0.392700 0.941371 0.257292
Si Si6 0.688482 0.918379 0.911624
Si Si7 0.846563 0.735216 0.514374
Si Si8 0.500000 0.000000 0.545501
O O1 0.081859 0.419754 0.842674
O O2 0.143493 0.238141 0.932085
O O3 0.136258 0.597691 0.956585
O O4 0.049105 0.417765 0.990863
O O5 0.250000 0.239021 0.279286
O O6 0.179408 0.423999 0.194564
O O7 0.174273 0.449589 0.337702
O O8 0.145868 0.122944 0.264660
O O9 0.250000 0.687204 0.206444
O O10 0.353459 0.769149 0.232204
O O11 0.320285 0.685187 0.092171
O O12 0.500000 0.500000 0.568934
O O13 0.565382 0.553517 0.685424
O O14 0.598365 0.633495 0.543596
O O15 0.525469 0.839867 0.599488
O O16 0.750000 0.838588 0.900402
O O17 0.689535 0.074562 0.977854
#
# Coordination Sequence:
#
# PCOD9364529 Si02
#       8
#     8   8   8   8   8   8   8   4
#     4  11  23  41  66  93 129 167 216 269 327 383
#     4  10  21  37  60  92 132 170 206 252 310 376
#     4  10  21  38  58  89 128 169 209 252 307 374
#     4  10  23  42  66  89 120 157 205 263 324 379
#     4  11  22  38  64  93 124 161 212 260 312 380
#     4  11  22  37  62  96 130 169 214 259 317 388
#     4  10  22  40  62  90 126 162 205 262 315 381
#     4  10  24  46  68  90 126 164 212 272 336 382
#
# _framework density 19.949818
#
# number of rings (size 3 to 8) (size 9 to 14) (size 15 to 20)
#    0.000    1.600    2.667    1.600    0.933    6.933 
#    0.000    2.667    1.467    0.000    0.000    0.000 
#    0.000    0.000    0.000    0.000    0.000    0.000 
#
# Total GULP energy -167342.093273 kJ/mol
# GULP energy per Si atom -5578.069776 kJ/mol
# Density = 1.990441 g / cm^3
# Si number density = 19.949818 Si / 1000 Ang^3
#
#
#
# Elastic Constant Matrix: (Units=GPa)
#
#
# Indices 1 2 3 4 5 6 
#
# 1 87.5724 44.9380 11.9113 0.0000 0.0000 0.0000
# 2 44.9380 69.5466 38.8819 0.0000 0.0000 0.0000
# 3 11.9113 38.8819 92.0361 0.0000 0.0000 0.0000
# 4 0.0000 0.0000 0.0000 74.3348 0.0000 0.0000
# 5 0.0000 0.0000 0.0000 0.0000 -23.5720 0.0000
# 6 0.0000 0.0000 0.0000 0.0000 0.0000 33.0769
#
#
#
# Elastic Compliance Matrix: (Units=1/GPa)
#
#
# Indices 1 2 3 4 5 6 
#
# 1 0.017841 -0.013402 0.003353 0.000000 0.000000 0.000000
# 2 -0.013402 0.028894 -0.010472 0.000000 0.000000 0.000000
# 3 0.003353 -0.010472 0.014855 0.000000 0.000000 0.000000
# 4 0.000000 0.000000 0.000000 0.013453 0.000000 0.000000
# 5 0.000000 0.000000 0.000000 0.000000 -0.042423 0.000000
# 6 0.000000 0.000000 0.000000 0.000000 0.000000 0.030233
#
#
# Mechanical properties :
#
#
# Convention : Reuss Voigt Hill
#
# Bulk Modulus (GPa) = 48.66904 48.95750 48.81327
# Shear Modulus (GPa) = 45.14963 26.99621 36.07292
#
# Velocity S-wave (km/s) = 4.76243 3.68259 4.25689
# Velocity P-wave (km/s) = 7.39525 6.53265 6.97729
#
# Compressibility (1/GPa) = 0.02054694
#
# Stress axis : x y z
#
# Youngs Moduli (GPa) = 56.05204 34.60980 67.31583
#
# Poissons Ratio (x) = 0.46386 -0.22572
# Poissons Ratio (y) = 0.75124 0.70493
# Poissons Ratio (z) = -0.18795 0.36243
#
# Static dielectric constant tensor:
#      x y z
#    x 1.719780 0.000000 0.000000 
#    y 0.000000 1.697240 0.000000 
#    z 0.000000 0.000000 1.747310 
# 
# From -- ./inp_files/21616.got.cif
#   From: 2010.05.17/outbox.cif.g08.bks.cpg/sg40_11_cif.got.tgz:21616.got - 2010.06.03 18:35:42.
