data_PCOD9364264
_publ_section_title
;
Structure prediction by ZEFSAII (Michael W. Deem and Ramdas Pophale) SiO2 
 PCOD9364264
Probable space group: A M A 2
;
_chemical_formula_sum "Si O2"
_cell_formula_units_Z 64
_cell_length_a 14.789857
_cell_length_b 17.059156
_cell_length_c 11.598208
_cell_angle_alpha 90.000000
_cell_angle_beta 90.000000
_cell_angle_gamma 90.000000
_cell_volume 2926.256616
_symmetry_space_group_name_H-M "A M A 2"
_symmetry_group_IT_number 40
_symmetry_cell_setting 'orthorhombic'
loop_
_space_group_symop_operation_xyz
x,y,z
-x,-y,z
1/2-x,y,z
1/2+x,-y,z
x,1/2+y,1/2+z
-x,1/2-y,1/2+z
1/2-x,1/2+y,1/2+z
1/2+x,1/2-y,1/2+z
loop_
_atom_site_type_symbol
_atom_site_label
_atom_site_fract_x
_atom_site_fract_y
_atom_site_fract_z
Si Si1 0.603329 0.335424 0.378780
Si Si2 0.857210 0.807329 0.613321
Si Si3 0.143832 0.079698 0.236464
Si Si4 0.891020 0.994748 0.994761
Si Si5 0.024366 0.580025 0.953882
Si Si6 0.605425 0.169445 0.951721
Si Si7 0.147878 0.327472 0.985102
Si Si8 0.145950 0.754749 0.710493
O O1 0.608187 0.322494 0.242256
O O2 0.639257 0.420597 0.417575
O O3 0.501555 0.331916 0.427299
O O4 0.650778 0.260281 0.434906
O O5 0.750000 0.823066 0.609420
O O6 0.873318 0.719456 0.565533
O O7 0.911856 0.862917 0.526552
O O8 0.250000 0.085762 0.269386
O O9 0.135188 0.025377 0.125440
O O10 0.108118 0.167162 0.203319
O O11 0.082087 0.055210 0.342521
O O12 0.000000 0.000000 0.988662
O O13 0.859103 0.080862 0.958536
O O14 0.930835 0.623931 0.923456
O O15 0.000000 0.500000 0.019665
O O16 0.642377 0.214814 0.840023
O O17 0.250000 0.361080 0.980586
O O18 0.111180 0.316302 0.116570
O O19 0.250000 0.746678 0.675186
#
# Coordination Sequence:
#
# PCOD9364264 Si02
#       8
#     8   8   8   8   8   8   8   8
#     4  11  23  42  69 103 144 187 233 291 355 429
#     4  12  26  45  71 105 145 191 242 297 362 434
#     4  11  22  42  72 100 136 183 235 291 361 432
#     4  10  24  42  68 106 142 186 237 298 355 419
#     4  12  27  45  67  97 138 188 239 299 361 429
#     4  11  23  42  72 104 146 189 238 290 358 423
#     4  11  23  42  70 103 134 182 240 295 356 431
#     4  10  20  38  68  97 130 180 235 280 345 423
#
# _framework density 21.870944999999999
#
# number of rings (size 3 to 8) (size 9 to 14) (size 15 to 20)
#    0.000    1.000    3.750    2.250    0.000    8.000 
#    0.000    1.250    0.000    0.000    0.000    0.000 
#    0.000    0.000    0.000    0.000    0.000    0.000 
#
# Total GULP energy -178881.520558 kJ/mol
# GULP energy per Si atom -5590.047517 kJ/mol
# Density = 2.182117 g / cm^3
# Si number density = 21.870945 Si / 1000 Ang^3
#
#
#
# Elastic Constant Matrix: (Units=GPa)
#
#
# Indices 1 2 3 4 5 6 
#
# 1 115.1729 30.6327 22.8804 0.0000 0.0000 0.0000
# 2 30.6327 119.9367 30.5408 0.0000 0.0000 0.0000
# 3 22.8804 30.5408 113.2076 0.0000 0.0000 0.0000
# 4 0.0000 0.0000 0.0000 23.1045 0.0000 0.0000
# 5 0.0000 0.0000 0.0000 0.0000 18.4725 0.0000
# 6 0.0000 0.0000 0.0000 0.0000 0.0000 -20.9212
#
#
#
# Elastic Compliance Matrix: (Units=1/GPa)
#
#
# Indices 1 2 3 4 5 6 
#
# 1 0.009506 -0.002082 -0.001360 0.000000 0.000000 0.000000
# 2 -0.002082 0.009409 -0.002117 0.000000 0.000000 0.000000
# 3 -0.001360 -0.002117 0.009679 0.000000 0.000000 0.000000
# 4 0.000000 0.000000 0.000000 0.043282 0.000000 0.000000
# 5 0.000000 0.000000 0.000000 0.000000 0.054135 0.000000
# 6 0.000000 0.000000 0.000000 0.000000 0.000000 -0.047799
#
#
# Mechanical properties :
#
#
# Convention : Reuss Voigt Hill
#
# Bulk Modulus (GPa) = 57.21979 57.38057 57.30018
# Shear Modulus (GPa) = 52.54552 21.74872 37.14712
#
# Velocity S-wave (km/s) = 4.90687 3.15685 4.12572
# Velocity P-wave (km/s) = 7.63692 6.29131 6.99654
#
# Compressibility (1/GPa) = 0.01747647
#
# Stress axis : x y z
#
# Youngs Moduli (GPa) = 105.19212 106.28547 103.31228
#
# Poissons Ratio (x) = 0.22126 0.14048
# Poissons Ratio (y) = 0.21899 0.21876
# Poissons Ratio (z) = 0.14303 0.22506
#
# Static dielectric constant tensor:
#      x y z
#    x 1.876930 0.000000 0.000000 
#    y 0.000000 1.833130 0.000000 
#    z 0.000000 0.000000 1.805080 
# 
# From -- ./inp_files/12416.got.cif
#   From: 2010.05.17/outbox.cif.g08.bks.cpg/sg40_7_cif.got.tgz:12416.got - 2010.06.03 18:35:42.
