data_PCOD9364217
_publ_section_title
;
Structure prediction by ZEFSAII (Michael W. Deem and Ramdas Pophale) SiO2 
 PCOD9364217
Probable space group: A M A 2
;
_chemical_formula_sum "Si O2"
_cell_formula_units_Z 56
_cell_length_a 8.899385
_cell_length_b 19.118986
_cell_length_c 17.399358
_cell_angle_alpha 90.000000
_cell_angle_beta 90.000000
_cell_angle_gamma 90.000000
_cell_volume 2960.452345
_symmetry_space_group_name_H-M "A M A 2"
_symmetry_group_IT_number 40
_symmetry_cell_setting 'orthorhombic'
loop_
_space_group_symop_operation_xyz
x,y,z
-x,-y,z
1/2-x,y,z
1/2+x,-y,z
x,1/2+y,1/2+z
-x,1/2-y,1/2+z
1/2-x,1/2+y,1/2+z
1/2+x,1/2-y,1/2+z
loop_
_atom_site_type_symbol
_atom_site_label
_atom_site_fract_x
_atom_site_fract_y
_atom_site_fract_z
Si Si1 0.068973 0.197220 0.466360
Si Si2 0.069961 0.662294 0.520337
Si Si3 0.927743 0.158875 0.720847
Si Si4 0.928883 0.923505 0.579980
Si Si5 0.931213 0.923127 0.173705
Si Si6 0.927348 0.576167 0.380858
Si Si7 0.566941 0.305203 0.789041
O O1 0.250000 0.206232 0.467784
O O2 0.032924 0.123356 0.505593
O O3 0.018662 0.200453 0.377556
O O4 0.995979 0.259944 0.514437
O O5 0.250000 0.665537 0.517372
O O6 0.027028 0.620649 0.597447
O O7 0.006224 0.620275 0.447562
O O8 0.750000 0.161338 0.701541
O O9 0.943985 0.115680 0.799867
O O10 0.980346 0.237530 0.739851
O O11 0.013755 0.119927 0.653361
O O12 0.750000 0.930457 0.584249
O O13 0.000000 0.000000 0.578333
O O14 0.750000 0.928883 0.174517
O O15 0.978453 0.876295 0.246706
O O16 0.000000 0.000000 0.173007
O O17 0.750000 0.570754 0.397637
O O18 0.000000 0.500000 0.376456
O O19 0.750000 0.303387 0.789814
#
# Coordination Sequence:
#
# PCOD9364217 Si02
#       7
#     8   8   8   8   8   8   8
#     4  10  21  40  63  87 116 155 197 242 294 349
#     4  11  22  37  59  87 118 153 195 243 292 352
#     4  10  20  38  63  85 113 153 196 241 294 354
#     4  11  24  39  59  87 121 156 196 245 295 351
#     4  10  22  38  58  84 116 153 193 237 287 343
#     4  11  22  36  57  85 118 157 195 238 293 352
#     4   9  18  38  63  85 112 151 194 236 290 347
#
# _framework density 18.916028000000001
#
# number of rings (size 3 to 8) (size 9 to 14) (size 15 to 20)
#    0.000    1.714    1.429    3.000    0.000    7.429 
#    0.000    1.429    0.000    0.000    0.000    0.000 
#    0.000    0.000    0.000    0.000    0.000    0.000 
#
# Total GULP energy -156465.842030 kJ/mol
# GULP energy per Si atom -5588.065787 kJ/mol
# Density = 1.887297 g / cm^3
# Si number density = 18.916028 Si / 1000 Ang^3
#
#
#
# Elastic Constant Matrix: (Units=GPa)
#
#
# Indices 1 2 3 4 5 6 
#
# 1 27.6701 50.1099 31.8306 0.0000 0.0000 0.0000
# 2 50.1099 180.0945 80.6195 0.0000 0.0000 0.0000
# 3 31.8306 80.6195 62.5832 0.0000 0.0000 0.0000
# 4 0.0000 0.0000 0.0000 8.7076 0.0000 0.0000
# 5 0.0000 0.0000 0.0000 0.0000 12.1452 0.0000
# 6 0.0000 0.0000 0.0000 0.0000 0.0000 15.5526
#
#
#
# Elastic Compliance Matrix: (Units=1/GPa)
#
#
# Indices 1 2 3 4 5 6 
#
# 1 0.096218 -0.011492 -0.034134 0.000000 0.000000 0.000000
# 2 -0.011492 0.014489 -0.012820 0.000000 0.000000 0.000000
# 3 -0.034134 -0.012820 0.049854 0.000000 0.000000 0.000000
# 4 0.000000 0.000000 0.000000 0.114842 0.000000 0.000000
# 5 0.000000 0.000000 0.000000 0.000000 0.082337 0.000000
# 6 0.000000 0.000000 0.000000 0.000000 0.000000 0.064298
#
#
# Mechanical properties :
#
#
# Convention : Reuss Voigt Hill
#
# Bulk Modulus (GPa) = 22.89907 66.16306 44.53107
# Shear Modulus (GPa) = 9.03368 14.46694 11.75031
#
# Velocity S-wave (km/s) = 2.18770 2.76850 2.49506
# Velocity P-wave (km/s) = 4.30271 6.72849 5.64739
#
# Compressibility (1/GPa) = 0.04366989
#
# Stress axis : x y z
#
# Youngs Moduli (GPa) = 10.39309 69.01853 20.05859
#
# Poissons Ratio (x) = 0.79314 0.68468
# Poissons Ratio (y) = 0.11943 0.25714
# Poissons Ratio (z) = 0.35476 0.88480
#
# Static dielectric constant tensor:
#      x y z
#    x 1.635100 0.000000 0.000000 
#    y 0.000000 1.640280 0.000000 
#    z 0.000000 0.000000 1.642800 
# 
# From -- ./inp_files/15310.got.cif
#   From: 2010.05.17/outbox.cif.g08.bks.cpg/sg40_8_cif.got.tgz:15310.got - 2010.06.03 18:35:42.
