data_PCOD9364121
_publ_section_title
;
Structure prediction by ZEFSAII (Michael W. Deem and Ramdas Pophale) SiO2 
 PCOD9364121
Probable space group: A M A 2
;
_chemical_formula_sum "Si O2"
_cell_formula_units_Z 48
_cell_length_a 8.196798
_cell_length_b 23.696018
_cell_length_c 11.934424
_cell_angle_alpha 90.000000
_cell_angle_beta 90.000000
_cell_angle_gamma 90.000000
_cell_volume 2318.040752
_symmetry_space_group_name_H-M "A M A 2"
_symmetry_group_IT_number 40
_symmetry_cell_setting 'orthorhombic'
loop_
_space_group_symop_operation_xyz
x,y,z
-x,-y,z
1/2-x,y,z
1/2+x,-y,z
x,1/2+y,1/2+z
-x,1/2-y,1/2+z
1/2-x,1/2+y,1/2+z
1/2+x,1/2-y,1/2+z
loop_
_atom_site_type_symbol
_atom_site_label
_atom_site_fract_x
_atom_site_fract_y
_atom_site_fract_z
Si Si1 0.942443 0.936511 0.233510
Si Si2 0.554909 0.143861 0.791962
Si Si3 0.447804 0.144538 0.047010
Si Si4 0.437708 0.856058 0.428734
Si Si5 0.551390 0.732121 0.103298
Si Si6 0.439816 0.063253 0.615817
O O1 0.750000 0.941141 0.223555
O O2 0.007592 0.909468 0.117555
O O3 0.978651 0.889127 0.327462
O O4 0.000000 0.000000 0.260219
O O5 0.750000 0.138362 0.781389
O O6 0.501917 0.196428 0.712697
O O7 0.468560 0.089809 0.737362
O O8 0.508409 0.148414 0.920603
O O9 0.250000 0.143237 0.045722
O O10 0.498791 0.203045 0.106513
O O11 0.250000 0.846332 0.397701
O O12 0.505499 0.799266 0.488403
O O13 0.452053 0.899744 0.531824
O O14 0.750000 0.730219 0.099474
O O15 0.250000 0.067835 0.583614
O O16 0.500000 0.000000 0.611065
#
# Coordination Sequence:
#
# PCOD9364121 Si02
#       6
#     8   8   8   8   8   8
#     4  11  24  40  60  85 121 163 208 251 298 359
#     4  10  21  38  59  86 118 152 194 244 297 357
#     4  10  22  40  60  84 117 159 201 247 301 359
#     4  10  20  37  61  89 122 154 194 247 301 357
#     4   8  18  37  60  86 118 151 190 245 303 360
#     4  11  21  36  59  86 117 153 195 241 294 351
#
# _framework density 20.707144
#
# number of rings (size 3 to 8) (size 9 to 14) (size 15 to 20)
#    0.000    2.000    0.000    4.500    2.333    2.000 
#    0.000    5.833    0.000    0.000    0.000    0.000 
#    0.000    0.000    0.000    0.000    0.000    0.000 
#
# Total GULP energy -133943.311782 kJ/mol
# GULP energy per Si atom -5580.971324 kJ/mol
# Density = 2.066001 g / cm^3
# Si number density = 20.707144 Si / 1000 Ang^3
#
#
#
# Elastic Constant Matrix: (Units=GPa)
#
#
# Indices 1 2 3 4 5 6 
#
# 1 36.0140 2.2929 -3.3298 0.0000 0.0000 0.0000
# 2 2.2929 59.2084 5.6685 0.0000 0.0000 0.0000
# 3 -3.3298 5.6685 82.7759 0.0000 0.0000 0.0000
# 4 0.0000 0.0000 0.0000 13.2437 0.0000 0.0000
# 5 0.0000 0.0000 0.0000 0.0000 30.8959 0.0000
# 6 0.0000 0.0000 0.0000 0.0000 0.0000 5.6952
#
#
#
# Elastic Compliance Matrix: (Units=1/GPa)
#
#
# Indices 1 2 3 4 5 6 
#
# 1 0.027955 -0.001198 0.001207 0.000000 0.000000 0.000000
# 2 -0.001198 0.017052 -0.001216 0.000000 0.000000 0.000000
# 3 0.001207 -0.001216 0.012213 0.000000 0.000000 0.000000
# 4 0.000000 0.000000 0.000000 0.075507 0.000000 0.000000
# 5 0.000000 0.000000 0.000000 0.000000 0.032367 0.000000
# 6 0.000000 0.000000 0.000000 0.000000 0.000000 0.175586
#
#
# Mechanical properties :
#
#
# Convention : Reuss Voigt Hill
#
# Bulk Modulus (GPa) = 18.24655 20.80682 19.52668
# Shear Modulus (GPa) = 13.83650 21.52475 17.68063
#
# Velocity S-wave (km/s) = 2.58776 3.22760 2.92523
# Velocity P-wave (km/s) = 4.21420 4.89488 4.56724
#
# Compressibility (1/GPa) = 0.05480489
#
# Stress axis : x y z
#
# Youngs Moduli (GPa) = 35.77199 58.64309 81.88256
#
# Poissons Ratio (x) = 0.07026 -0.09880
# Poissons Ratio (y) = 0.04286 0.09956
# Poissons Ratio (z) = -0.04316 0.07131
#
# Static dielectric constant tensor:
#      x y z
#    x 1.737260 0.000000 0.000000 
#    y 0.000000 1.770190 0.000000 
#    z 0.000000 0.000000 1.745850 
# 
# From -- ./inp_files/10226.got.cif
#   From: 2010.05.17/outbox.cif.g08.bks.cpg/sg40_6_cif.got.tgz:10226.got - 2010.06.03 18:35:42.
