data_PCOD9364963
_publ_section_title
;
Structure prediction by ZEFSAII (Michael W. Deem and Ramdas Pophale) SiO2 
 PCOD9364963
Probable space group: A M A 2
;
_chemical_formula_sum "Si O2"
_cell_formula_units_Z 64
_cell_length_a 8.557280
_cell_length_b 31.690234
_cell_length_c 12.195015
_cell_angle_alpha 90.000000
_cell_angle_beta 90.000000
_cell_angle_gamma 90.000000
_cell_volume 3307.071065
_symmetry_space_group_name_H-M "A M A 2"
_symmetry_group_IT_number 40
_symmetry_cell_setting 'orthorhombic'
loop_
_space_group_symop_operation_xyz
x,y,z
-x,-y,z
1/2-x,y,z
1/2+x,-y,z
x,1/2+y,1/2+z
-x,1/2-y,1/2+z
1/2-x,1/2+y,1/2+z
1/2+x,1/2-y,1/2+z
loop_
_atom_site_type_symbol
_atom_site_label
_atom_site_fract_x
_atom_site_fract_y
_atom_site_fract_z
Si Si1 0.060377 0.202607 0.642260
Si Si2 0.435361 0.044518 0.110107
Si Si3 0.934638 0.567601 0.375095
Si Si4 0.562977 0.124055 0.245874
Si Si5 0.439680 0.797770 0.092993
Si Si6 0.562904 0.338427 0.373239
Si Si7 0.937391 0.955522 0.637421
Si Si8 0.560930 0.374709 0.992245
O O1 0.250000 0.202975 0.638000
O O2 0.009117 0.250397 0.621955
O O3 0.018421 0.186008 0.762586
O O4 0.007369 0.168094 0.553220
O O5 0.250000 0.044891 0.117432
O O6 0.501766 0.084411 0.176097
O O7 0.500000 0.000000 0.153133
O O8 0.486248 0.048787 0.983336
O O9 0.750000 0.560380 0.381154
O O10 0.974618 0.617186 0.376637
O O11 0.999993 0.550103 0.260879
O O12 0.750000 0.122281 0.247649
O O13 0.517169 0.167494 0.184469
O O14 0.499732 0.122867 0.369036
O O15 0.250000 0.798404 0.082700
O O16 0.515547 0.812163 0.979483
O O17 0.750000 0.346294 0.371446
O O18 0.750000 0.956181 0.640704
O O19 0.987030 0.915407 0.564287
O O20 0.000000 0.000000 0.593186
O O21 0.750000 0.374455 0.990498
#
# Coordination Sequence:
#
# PCOD9364963 Si02
#       8
#     8   8   8   8   8   8   8   8
#     4   9  20  40  63  89 124 165 207 256 311 362
#     4  12  25  43  67  93 124 162 206 253 307 369
#     4  12  23  39  63  94 130 163 202 254 311 368
#     4  11  24  41  62  91 128 164 206 256 310 367
#     4  10  22  40  62  90 127 165 204 257 310 366
#     4  11  21  38  65  93 124 165 208 255 308 366
#     4  11  23  41  64  92 124 162 207 256 310 370
#     4  10  22  42  64  86 121 167 213 258 309 366
#
# _framework density 19.352471000000001
#
# number of rings (size 3 to 8) (size 9 to 14) (size 15 to 20)
#    0.000    1.250    2.500    3.750    1.750    2.000 
#    0.000    2.500    0.000    0.000    0.000    0.000 
#    0.000    0.000    0.000    0.000    0.000    0.000 
#
# Total GULP energy -178940.477090 kJ/mol
# GULP energy per Si atom -5591.889909 kJ/mol
# Density = 1.930842 g / cm^3
# Si number density = 19.352471 Si / 1000 Ang^3
#
#
#
# Elastic Constant Matrix: (Units=GPa)
#
#
# Indices 1 2 3 4 5 6 
#
# 1 38.8735 27.3806 24.5194 0.0000 0.0000 0.0000
# 2 27.3806 180.1093 73.0409 0.0000 0.0000 0.0000
# 3 24.5194 73.0409 142.9434 0.0000 0.0000 0.0000
# 4 0.0000 0.0000 0.0000 54.1710 0.0000 0.0000
# 5 0.0000 0.0000 0.0000 0.0000 117.6655 0.0000
# 6 0.0000 0.0000 0.0000 0.0000 0.0000 24.4123
#
#
#
# Elastic Compliance Matrix: (Units=1/GPa)
#
#
# Indices 1 2 3 4 5 6 
#
# 1 0.030191 -0.003140 -0.003574 0.000000 0.000000 0.000000
# 2 -0.003140 0.007330 -0.003207 0.000000 0.000000 0.000000
# 3 -0.003574 -0.003207 0.009247 0.000000 0.000000 0.000000
# 4 0.000000 0.000000 0.000000 0.018460 0.000000 0.000000
# 5 0.000000 0.000000 0.000000 0.000000 0.008499 0.000000
# 6 0.000000 0.000000 0.000000 0.000000 0.000000 0.040963
#
#
# Mechanical properties :
#
#
# Convention : Reuss Voigt Hill
#
# Bulk Modulus (GPa) = 37.13900 67.97869 52.55885
# Shear Modulus (GPa) = 34.84136 55.04876 44.94506
#
# Velocity S-wave (km/s) = 4.24766 5.33920 4.82440
# Velocity P-wave (km/s) = 6.57947 8.55642 7.63222
#
# Compressibility (1/GPa) = 0.02692587
#
# Stress axis : x y z
#
# Youngs Moduli (GPa) = 33.12281 136.42443 108.13758
#
# Poissons Ratio (x) = 0.42840 0.38649
# Poissons Ratio (y) = 0.10401 0.34678
# Poissons Ratio (z) = 0.11838 0.43749
#
# Static dielectric constant tensor:
#      x y z
#    x 1.655280 0.000000 0.000000 
#    y 0.000000 1.675680 0.000000 
#    z 0.000000 0.000000 1.638520 
# 
# From -- ./inp_files/10675.got.cif
#   From: 2010.05.17/outbox.cif.g08.bks.cpg/sg40_6_cif.got.tgz:10675.got - 2010.06.03 18:35:42.
