data_PCOD9364309
_publ_section_title
;
Structure prediction by ZEFSAII (Michael W. Deem and Ramdas Pophale) SiO2 
 PCOD9364309
Probable space group: A M A 2
;
_chemical_formula_sum "Si O2"
_cell_formula_units_Z 40
_cell_length_a 15.112358
_cell_length_b 13.715965
_cell_length_c 9.921955
_cell_angle_alpha 90.000000
_cell_angle_beta 90.000000
_cell_angle_gamma 90.000000
_cell_volume 2056.628522
_symmetry_space_group_name_H-M "A M A 2"
_symmetry_group_IT_number 40
_symmetry_cell_setting 'orthorhombic'
loop_
_space_group_symop_operation_xyz
x,y,z
-x,-y,z
1/2-x,y,z
1/2+x,-y,z
x,1/2+y,1/2+z
-x,1/2-y,1/2+z
1/2-x,1/2+y,1/2+z
1/2+x,1/2-y,1/2+z
loop_
_atom_site_type_symbol
_atom_site_label
_atom_site_fract_x
_atom_site_fract_y
_atom_site_fract_z
Si Si1 0.443302 0.908182 0.710030
Si Si2 0.750000 0.493664 0.741536
Si Si3 0.250000 0.395497 0.336195
Si Si4 0.750000 0.888835 0.963129
Si Si5 0.396465 0.723713 0.290464
Si Si6 0.916505 0.557227 0.892903
Si Si7 0.750000 0.710848 0.603035
O O1 0.344291 0.890739 0.762257
O O2 0.510087 0.821633 0.748576
O O3 0.428289 0.930998 0.552701
O O4 0.500000 0.000000 0.767126
O O5 0.750000 0.411488 0.624104
O O6 0.833503 0.496074 0.840149
O O7 0.750000 0.601479 0.669368
O O8 0.250000 0.503616 0.399857
O O9 0.250000 0.310473 0.446706
O O10 0.663307 0.832923 0.903160
O O11 0.409488 0.833396 0.339522
O O12 0.334360 0.731191 0.158568
O O13 0.000000 0.500000 0.836657
#
# Coordination Sequence:
#
# PCOD9364309 Si02
#       7
#     8   4   4   4   8   8   4
#     4  11  23  39  64  93 133 173 213 269 331 393
#     4   9  19  42  62  91 122 164 208 273 314 371
#     4  11  21  39  61 101 118 172 222 273 320 400
#     4  10  20  39  69  92 121 165 224 267 332 375
#     4  10  21  41  65  93 129 173 213 266 326 392
#     4  10  23  42  62  92 132 170 209 265 328 383
#     4   8  20  38  62  88 133 157 212 271 322 372
#
# _framework density 19.449309
#
# number of rings (size 3 to 8) (size 9 to 14) (size 15 to 20)
#    0.000    2.000    2.000    1.200    2.800    1.600 
#    7.200    1.000    0.000    0.000    0.000    0.000 
#    0.000    0.000    0.000    0.000    0.000    0.000 
#
# Total GULP energy -111442.575517 kJ/mol
# GULP energy per Si atom -5572.128776 kJ/mol
# Density = 1.940504 g / cm^3
# Si number density = 19.449309 Si / 1000 Ang^3
#
#
#
# Elastic Constant Matrix: (Units=GPa)
#
#
# Indices 1 2 3 4 5 6 
#
# 1 218.5459 61.6606 76.2205 0.0000 0.0000 0.0000
# 2 61.6606 73.5406 44.6049 0.0000 0.0000 0.0000
# 3 76.2205 44.6049 91.0356 0.0000 0.0000 0.0000
# 4 0.0000 0.0000 0.0000 19.9528 0.0000 0.0000
# 5 0.0000 0.0000 0.0000 0.0000 19.2017 0.0000
# 6 0.0000 0.0000 0.0000 0.0000 0.0000 31.8242
#
#
#
# Elastic Compliance Matrix: (Units=1/GPa)
#
#
# Indices 1 2 3 4 5 6 
#
# 1 0.006979 -0.003283 -0.004234 0.000000 0.000000 0.000000
# 2 -0.003283 0.020892 -0.007488 0.000000 0.000000 0.000000
# 3 -0.004234 -0.007488 0.018199 0.000000 0.000000 0.000000
# 4 0.000000 0.000000 0.000000 0.050118 0.000000 0.000000
# 5 0.000000 0.000000 0.000000 0.000000 0.052079 0.000000
# 6 0.000000 0.000000 0.000000 0.000000 0.000000 0.031423
#
#
# Mechanical properties :
#
#
# Convention : Reuss Voigt Hill
#
# Bulk Modulus (GPa) = 62.26957 83.12157 72.69557
# Shear Modulus (GPa) = 23.25002 27.57147 25.41075
#
# Velocity S-wave (km/s) = 3.46123 3.76920 3.61849
# Velocity P-wave (km/s) = 6.93248 7.85957 7.41054
#
# Compressibility (1/GPa) = 0.01605921
#
# Stress axis : x y z
#
# Youngs Moduli (GPa) = 143.29113 47.86458 54.94839
#
# Poissons Ratio (x) = 0.15714 0.23268
# Poissons Ratio (y) = 0.47043 0.41145
# Poissons Ratio (z) = 0.60676 0.35840
#
# Static dielectric constant tensor:
#      x y z
#    x 2.125260 0.000000 0.000000 
#    y 0.000000 1.696020 0.000000 
#    z 0.000000 0.000000 1.694840 
# 
# From -- ./inp_files/6192.got.cif
#   From: 2010.05.17/outbox.cif.g08.bks.cpg/sg40_4_cif.got.tgz:6192.got - 2010.06.03 18:35:42.
