data_PCOD9364143
_publ_section_title
;
Structure prediction by ZEFSAII (Michael W. Deem and Ramdas Pophale) SiO2 
 PCOD9364143
Probable space group: A M A 2
;
_chemical_formula_sum "Si O2"
_cell_formula_units_Z 36
_cell_length_a 15.002551
_cell_length_b 8.391979
_cell_length_c 14.010998
_cell_angle_alpha 90.000000
_cell_angle_beta 90.000000
_cell_angle_gamma 90.000000
_cell_volume 1763.999961
_symmetry_space_group_name_H-M "A M A 2"
_symmetry_group_IT_number 40
_symmetry_cell_setting 'orthorhombic'
loop_
_space_group_symop_operation_xyz
x,y,z
-x,-y,z
1/2-x,y,z
1/2+x,-y,z
x,1/2+y,1/2+z
-x,1/2-y,1/2+z
1/2-x,1/2+y,1/2+z
1/2+x,1/2-y,1/2+z
loop_
_atom_site_type_symbol
_atom_site_label
_atom_site_fract_x
_atom_site_fract_y
_atom_site_fract_z
Si Si1 0.940097 0.343785 0.614440
Si Si2 0.750000 0.675818 0.278184
Si Si3 0.250000 0.743061 0.555734
Si Si4 0.938294 0.639590 0.296722
Si Si5 0.250000 0.067977 0.442186
Si Si6 0.548802 0.843682 0.472390
O O1 0.844040 0.351800 0.561170
O O2 0.928670 0.287156 0.723601
O O3 0.000000 0.500000 0.608546
O O4 0.997724 0.203685 0.567248
O O5 0.750000 0.679547 0.162900
O O6 0.837480 0.583455 0.310074
O O7 0.750000 0.848834 0.334986
O O8 0.250000 0.879694 0.473236
O O9 0.970252 0.704132 0.397529
O O10 0.000000 0.500000 0.260758
O O11 0.345186 0.129629 0.482602
O O12 0.500000 0.000000 0.433593
#
# Coordination Sequence:
#
# PCOD9364143 Si02
#       6
#     8   4   4   8   4   8
#     4  11  23  39  61  91 124 162 208 257 313 381
#     4   8  20  36  60  91 126 159 216 257 312 385
#     4  10  20  39  64  87 128 165 210 266 318 377
#     4  10  21  39  60  88 123 160 204 260 310 372
#     4  10  20  37  62  92 120 168 206 265 312 382
#     4  11  21  38  62  88 119 161 206 253 315 372
#
# _framework density 20.408162999999998
#
# number of rings (size 3 to 8) (size 9 to 14) (size 15 to 20)
#    0.000    1.778    2.222    2.000    3.111    0.889 
#    0.000    5.556    0.000    0.000    0.000    0.000 
#    0.000    0.000    0.000    0.000    0.000    0.000 
#
# Total GULP energy -100218.405045 kJ/mol
# GULP energy per Si atom -5567.689169 kJ/mol
# Density = 2.036171 g / cm^3
# Si number density = 20.408163 Si / 1000 Ang^3
#
#
#
# Elastic Constant Matrix: (Units=GPa)
#
#
# Indices 1 2 3 4 5 6 
#
# 1 163.9518 55.7414 18.7997 0.0000 0.0000 0.0000
# 2 55.7414 68.6787 0.2217 0.0000 0.0000 0.0000
# 3 18.7997 0.2217 50.9009 0.0000 0.0000 0.0000
# 4 0.0000 0.0000 0.0000 26.6561 0.0000 0.0000
# 5 0.0000 0.0000 0.0000 0.0000 76.5393 0.0000
# 6 0.0000 0.0000 0.0000 0.0000 0.0000 21.9288
#
#
#
# Elastic Compliance Matrix: (Units=1/GPa)
#
#
# Indices 1 2 3 4 5 6 
#
# 1 0.008937 -0.007243 -0.003269 0.000000 0.000000 0.000000
# 2 -0.007243 0.020431 0.002586 0.000000 0.000000 0.000000
# 3 -0.003269 0.002586 0.020842 0.000000 0.000000 0.000000
# 4 0.000000 0.000000 0.000000 0.037515 0.000000 0.000000
# 5 0.000000 0.000000 0.000000 0.000000 0.013065 0.000000
# 6 0.000000 0.000000 0.000000 0.000000 0.000000 0.045602
#
#
# Mechanical properties :
#
#
# Convention : Reuss Voigt Hill
#
# Bulk Modulus (GPa) = 29.10545 48.11745 38.61145
# Shear Modulus (GPa) = 28.78602 38.94274 33.86438
#
# Velocity S-wave (km/s) = 3.75976 4.37303 4.07794
# Velocity P-wave (km/s) = 5.75676 7.00903 6.41354
#
# Compressibility (1/GPa) = 0.03435783
#
# Stress axis : x y z
#
# Youngs Moduli (GPa) = 111.89934 48.94638 47.97967
#
# Poissons Ratio (x) = 0.35450 0.15685
# Poissons Ratio (y) = 0.81045 -0.12407
# Poissons Ratio (z) = 0.36581 -0.12657
#
# Static dielectric constant tensor:
#      x y z
#    x 1.765960 0.000000 0.000000 
#    y 0.000000 1.743340 0.000000 
#    z 0.000000 0.000000 1.705580 
# 
# From -- ./inp_files/16787.got.cif
#   From: 2010.05.17/outbox.cif.g08.bks.cpg/sg40_9_cif.got.tgz:16787.got - 2010.06.03 18:35:42.
