data_PCOD9364922
_publ_section_title
;
Structure prediction by ZEFSAII (Michael W. Deem and Ramdas Pophale) SiO2 
 PCOD9364922
Probable space group: A M A 2
;
_chemical_formula_sum "Si O2"
_cell_formula_units_Z 64
_cell_length_a 14.122573
_cell_length_b 8.463963
_cell_length_c 24.173552
_cell_angle_alpha 90.000000
_cell_angle_beta 90.000000
_cell_angle_gamma 90.000000
_cell_volume 2889.535628
_symmetry_space_group_name_H-M "A M A 2"
_symmetry_group_IT_number 40
_symmetry_cell_setting 'orthorhombic'
loop_
_space_group_symop_operation_xyz
x,y,z
-x,-y,z
1/2-x,y,z
1/2+x,-y,z
x,1/2+y,1/2+z
-x,1/2-y,1/2+z
1/2-x,1/2+y,1/2+z
1/2+x,1/2-y,1/2+z
loop_
_atom_site_type_symbol
_atom_site_label
_atom_site_fract_x
_atom_site_fract_y
_atom_site_fract_z
Si Si1 0.027242 0.319773 0.838980
Si Si2 0.640772 0.780950 0.511168
Si Si3 0.134896 0.222490 0.162500
Si Si4 0.360711 0.186871 0.739322
Si Si5 0.973935 0.817123 0.948112
Si Si6 0.859412 0.917730 0.051433
Si Si7 0.639358 0.677678 0.279963
Si Si8 0.865539 0.426427 0.125075
O O1 0.075704 0.253207 0.894340
O O2 0.931911 0.217453 0.828695
O O3 0.000000 0.500000 0.845497
O O4 0.088944 0.293040 0.784328
O O5 0.750000 0.819337 0.497655
O O6 0.568482 0.783358 0.460704
O O7 0.637966 0.599765 0.533177
O O8 0.606627 0.881163 0.563607
O O9 0.250000 0.217522 0.165134
O O10 0.105062 0.103763 0.114187
O O11 0.108294 0.216404 0.226822
O O12 0.107792 0.395637 0.139999
O O13 0.250000 0.226789 0.737640
O O14 0.397123 0.184848 0.676014
O O15 0.369611 0.004575 0.760391
O O16 0.000000 0.000000 0.937326
O O17 0.915657 0.820586 0.005253
O O18 0.750000 0.865621 0.050394
O O19 0.750000 0.705101 0.292634
O O20 0.750000 0.418532 0.125896
#
# Coordination Sequence:
#
# PCOD9364922 Si02
#       8
#     8   8   8   8   8   8   8   8
#     4  12  26  39  54  81 113 144 186 238 285 326
#     4   9  18  33  54  79 106 137 172 215 269 322
#     4   8  15  30  54  83 110 136 170 213 264 323
#     4   9  19  38  62  84 110 148 188 223 267 329
#     4  10  22  39  54  71 101 142 190 230 261 318
#     4   9  18  33  54  79 106 137 172 215 269 322
#     4   9  19  38  62  84 110 148 188 223 267 329
#     4   8  15  30  54  83 110 136 170 213 264 323
#
# _framework density 22.148886000000001
#
# number of rings (size 3 to 8) (size 9 to 14) (size 15 to 20)
#    0.000    2.750    0.000    2.625    0.000    4.500 
#    0.000    7.500    0.000    0.000    0.000    0.000 
#    0.000    0.000    0.000    0.000    0.000    0.000 
#
# Total GULP energy -178724.288629 kJ/mol
# GULP energy per Si atom -5585.134020 kJ/mol
# Density = 2.209847 g / cm^3
# Si number density = 22.148886 Si / 1000 Ang^3
#
#
#
# Elastic Constant Matrix: (Units=GPa)
#
#
# Indices 1 2 3 4 5 6 
#
# 1 51.2872 7.4108 13.9543 0.0000 0.0000 0.0000
# 2 7.4108 10.4060 4.8259 0.0000 0.0000 0.0000
# 3 13.9543 4.8259 63.4744 0.0000 0.0000 0.0000
# 4 0.0000 0.0000 0.0000 31.4077 0.0000 0.0000
# 5 0.0000 0.0000 0.0000 0.0000 27.0214 0.0000
# 6 0.0000 0.0000 0.0000 0.0000 0.0000 17.0557
#
#
#
# Elastic Compliance Matrix: (Units=1/GPa)
#
#
# Indices 1 2 3 4 5 6 
#
# 1 0.022623 -0.014309 -0.003886 0.000000 0.000000 0.000000
# 2 -0.014309 0.108662 -0.005116 0.000000 0.000000 0.000000
# 3 -0.003886 -0.005116 0.016998 0.000000 0.000000 0.000000
# 4 0.000000 0.000000 0.000000 0.031839 0.000000 0.000000
# 5 0.000000 0.000000 0.000000 0.000000 0.037008 0.000000
# 6 0.000000 0.000000 0.000000 0.000000 0.000000 0.058632
#
#
# Mechanical properties :
#
#
# Convention : Reuss Voigt Hill
#
# Bulk Modulus (GPa) = 9.83660 19.72774 14.78217
# Shear Modulus (GPa) = 14.03432 21.69537 17.86485
#
# Velocity S-wave (km/s) = 2.51994 3.13313 2.84312
# Velocity P-wave (km/s) = 3.59410 4.69200 4.17926
#
# Compressibility (1/GPa) = 0.10166116
#
# Stress axis : x y z
#
# Youngs Moduli (GPa) = 44.20299 9.20285 58.83205
#
# Poissons Ratio (x) = 0.13169 0.22859
# Poissons Ratio (y) = 0.63252 0.30097
# Poissons Ratio (z) = 0.17175 0.04708
#
# Static dielectric constant tensor:
#      x y z
#    x 1.853410 0.000000 0.000000 
#    y 0.000000 1.799820 0.000000 
#    z 0.000000 0.000000 1.787190 
# 
# From -- ./inp_files/23373.got.cif
#   From: 2010.05.17/outbox.cif.g08.bks.cpg/sg40_12_cif.got.tgz:23373.got - 2010.06.03 18:35:42.
