data_PCOD9364624
_publ_section_title
;
Structure prediction by ZEFSAII (Michael W. Deem and Ramdas Pophale) SiO2 
 PCOD9364624
Probable space group: A M A 2
;
_chemical_formula_sum "Si O2"
_cell_formula_units_Z 44
_cell_length_a 15.710864
_cell_length_b 9.268581
_cell_length_c 13.705227
_cell_angle_alpha 90.000000
_cell_angle_beta 90.000000
_cell_angle_gamma 90.000000
_cell_volume 1995.719735
_symmetry_space_group_name_H-M "A M A 2"
_symmetry_group_IT_number 40
_symmetry_cell_setting 'orthorhombic'
loop_
_space_group_symop_operation_xyz
x,y,z
-x,-y,z
1/2-x,y,z
1/2+x,-y,z
x,1/2+y,1/2+z
-x,1/2-y,1/2+z
1/2-x,1/2+y,1/2+z
1/2+x,1/2-y,1/2+z
loop_
_atom_site_type_symbol
_atom_site_label
_atom_site_fract_x
_atom_site_fract_y
_atom_site_fract_z
Si Si1 0.101430 0.288141 0.562330
Si Si2 0.089613 0.419941 0.770531
Si Si3 0.250000 0.006161 0.012315
Si Si4 0.398499 0.991727 0.644254
Si Si5 0.550670 0.656319 0.973100
Si Si6 0.750000 0.551089 0.292819
Si Si7 0.250000 0.621435 0.724899
O O1 0.081132 0.325146 0.674171
O O2 0.168459 0.403155 0.527524
O O3 0.019820 0.277382 0.492597
O O4 0.132337 0.124245 0.575739
O O5 0.098630 0.333355 0.871648
O O6 0.166880 0.530529 0.756782
O O7 0.000000 0.500000 0.776616
O O8 0.250000 0.031037 0.896291
O O9 0.250000 0.115588 0.105019
O O10 0.394257 0.854621 0.571554
O O11 0.335582 0.987904 0.734055
O O12 0.500000 0.000000 0.671194
O O13 0.500000 0.500000 0.972100
O O14 0.750000 0.727003 0.282880
#
# Coordination Sequence:
#
# PCOD9364624 Si02
#       7
#     8   8   4   8   8   4   4
#     4   9  19  38  60  83 127 161 209 263 315 387
#     4  10  21  38  64  92 128 166 209 270 324 384
#     4  10  23  41  59  93 129 166 218 258 332 396
#     4   9  21  39  59  94 123 161 220 258 321 389
#     4   8  18  34  58  89 114 156 217 252 310 385
#     4  12  25  40  71  88 133 177 206 282 334 394
#     4  10  26  41  60  99 132 165 224 262 334 408
#
# _framework density 22.047183
#
# number of rings (size 3 to 8) (size 9 to 14) (size 15 to 20)
#    0.000    2.909    0.000    0.545   12.727    0.727 
#    3.273    3.636    0.000    0.000    0.000    0.000 
#    0.000    0.000    0.000    0.000    0.000    0.000 
#
# Total GULP energy -122551.988822 kJ/mol
# GULP energy per Si atom -5570.544946 kJ/mol
# Density = 2.199700 g / cm^3
# Si number density = 22.047183 Si / 1000 Ang^3
#
#
#
# Elastic Constant Matrix: (Units=GPa)
#
#
# Indices 1 2 3 4 5 6 
#
# 1 92.4191 8.0002 46.0601 0.0000 0.0000 0.0000
# 2 8.0002 20.7665 -16.0022 0.0000 0.0000 0.0000
# 3 46.0601 -16.0022 141.4099 0.0000 0.0000 0.0000
# 4 0.0000 0.0000 0.0000 11.2011 0.0000 0.0000
# 5 0.0000 0.0000 0.0000 0.0000 24.2846 0.0000
# 6 0.0000 0.0000 0.0000 0.0000 0.0000 8.2042
#
#
#
# Elastic Compliance Matrix: (Units=1/GPa)
#
#
# Indices 1 2 3 4 5 6 
#
# 1 0.014661 -0.010219 -0.005932 0.000000 0.000000 0.000000
# 2 -0.010219 0.059878 0.010104 0.000000 0.000000 0.000000
# 3 -0.005932 0.010104 0.010147 0.000000 0.000000 0.000000
# 4 0.000000 0.000000 0.000000 0.089277 0.000000 0.000000
# 5 0.000000 0.000000 0.000000 0.000000 0.041178 0.000000
# 6 0.000000 0.000000 0.000000 0.000000 0.000000 0.121888
#
#
# Mechanical properties :
#
#
# Convention : Reuss Voigt Hill
#
# Bulk Modulus (GPa) = 13.77543 36.74573 25.26058
# Shear Modulus (GPa) = 13.39331 23.17380 18.28355
#
# Velocity S-wave (km/s) = 2.46739 3.24558 2.88287
# Velocity P-wave (km/s) = 3.79198 5.54510 4.75012
#
# Compressibility (1/GPa) = 0.07259299
#
# Stress axis : x y z
#
# Youngs Moduli (GPa) = 68.20704 16.70071 98.54917
#
# Poissons Ratio (x) = 0.17067 0.58458
# Poissons Ratio (y) = 0.69702 -0.99579
# Poissons Ratio (z) = 0.40460 -0.16875
#
# Static dielectric constant tensor:
#      x y z
#    x 1.814320 0.000000 0.000000 
#    y 0.000000 2.067430 0.000000 
#    z 0.000000 0.000000 1.904600 
# 
# From -- ./inp_files/16934.got.cif
#   From: 2010.05.17/outbox.cif.g08.bks.cpg/sg40_9_cif.got.tgz:16934.got - 2010.06.03 18:35:42.
