data_PCOD9364841
_publ_section_title
;
Structure prediction by ZEFSAII (Michael W. Deem and Ramdas Pophale) SiO2 
 PCOD9364841
Probable space group: A M A 2
;
_chemical_formula_sum "Si O2"
_cell_formula_units_Z 40
_cell_length_a 24.300710
_cell_length_b 5.432337
_cell_length_c 12.674936
_cell_angle_alpha 90.000000
_cell_angle_beta 90.000000
_cell_angle_gamma 90.000000
_cell_volume 1673.213815
_symmetry_space_group_name_H-M "A M A 2"
_symmetry_group_IT_number 40
_symmetry_cell_setting 'orthorhombic'
loop_
_space_group_symop_operation_xyz
x,y,z
-x,-y,z
1/2-x,y,z
1/2+x,-y,z
x,1/2+y,1/2+z
-x,1/2-y,1/2+z
1/2-x,1/2+y,1/2+z
1/2+x,1/2-y,1/2+z
loop_
_atom_site_type_symbol
_atom_site_label
_atom_site_fract_x
_atom_site_fract_y
_atom_site_fract_z
Si Si1 0.309812 0.407708 0.939810
Si Si2 0.371751 0.016429 0.033245
Si Si3 0.615416 0.230895 0.824255
Si Si4 0.533801 0.749629 0.140304
Si Si5 0.685212 0.857970 0.673107
O O1 0.250000 0.458428 0.896858
O O2 0.351931 0.522085 0.857071
O O3 0.319870 0.125480 0.970031
O O4 0.312688 0.526272 0.055623
O O5 0.413626 0.232057 0.063627
O O6 0.351444 0.880286 0.138798
O O7 0.400240 0.863397 0.941149
O O8 0.560918 0.260767 0.755876
O O9 0.654085 0.040522 0.755193
O O10 0.500000 0.500000 0.126716
O O11 0.500000 0.000000 0.123349
O O12 0.750000 0.817532 0.701559
#
# Coordination Sequence:
#
# PCOD9364841 Si02
#       5
#     8   8   8   8   8
#     4  10  22  41  71 109 150 187 235 298 377 458
#     4  11  25  46  71 105 149 190 248 311 371 453
#     4  11  25  46  72 105 145 193 251 307 371 454
#     4  12  29  53  76 105 146 197 259 321 375 429
#     4  10  21  42  70 106 152 197 235 295 374 458
#
# _framework density 23.906089000000001
#
# number of rings (size 3 to 8) (size 9 to 14) (size 15 to 20)
#    0.000    1.200    2.000    2.400    8.400    3.200 
#    0.000    0.000    0.000    0.000    0.000    0.000 
#    0.000    0.000    0.000    0.000    0.000    0.000 
#
# Total GULP energy -111634.365505 kJ/mol
# GULP energy per Si atom -5581.718275 kJ/mol
# Density = 2.385168 g / cm^3
# Si number density = 23.906089 Si / 1000 Ang^3
#
#
#
# Elastic Constant Matrix: (Units=GPa)
#
#
# Indices 1 2 3 4 5 6 
#
# 1 98.3976 38.1381 9.8016 0.0000 0.0000 0.0000
# 2 38.1381 92.4930 28.6044 0.0000 0.0000 0.0000
# 3 9.8016 28.6044 145.9958 0.0000 0.0000 0.0000
# 4 0.0000 0.0000 0.0000 53.3519 0.0000 0.0000
# 5 0.0000 0.0000 0.0000 0.0000 35.9032 0.0000
# 6 0.0000 0.0000 0.0000 0.0000 0.0000 26.2132
#
#
#
# Elastic Compliance Matrix: (Units=1/GPa)
#
#
# Indices 1 2 3 4 5 6 
#
# 1 0.012100 -0.005044 0.000176 0.000000 0.000000 0.000000
# 2 -0.005044 0.013611 -0.002328 0.000000 0.000000 0.000000
# 3 0.000176 -0.002328 0.007294 0.000000 0.000000 0.000000
# 4 0.000000 0.000000 0.000000 0.018743 0.000000 0.000000
# 5 0.000000 0.000000 0.000000 0.000000 0.027853 0.000000
# 6 0.000000 0.000000 0.000000 0.000000 0.000000 0.038149
#
#
# Mechanical properties :
#
#
# Convention : Reuss Voigt Hill
#
# Bulk Modulus (GPa) = 53.72516 54.44164 54.08340
# Shear Modulus (GPa) = 36.14102 40.44981 38.29541
#
# Velocity S-wave (km/s) = 3.89239 4.11789 4.00673
# Velocity P-wave (km/s) = 6.53630 6.74032 6.63909
#
# Compressibility (1/GPa) = 0.01861325
#
# Stress axis : x y z
#
# Youngs Moduli (GPa) = 82.64297 73.46804 137.10158
#
# Poissons Ratio (x) = 0.37055 -0.02411
# Poissons Ratio (y) = 0.41683 0.31920
# Poissons Ratio (z) = -0.01453 0.17105
#
# Static dielectric constant tensor:
#      x y z
#    x 1.944490 0.000000 0.000000 
#    y 0.000000 2.125970 0.000000 
#    z 0.000000 0.000000 1.892410 
# 
# From -- ./inp_files/18364.got.cif
#   From: 2010.05.17/outbox.cif.g08.bks.cpg/sg40_10_cif.got.tgz:18364.got - 2010.06.03 18:35:42.
