data_PCOD9364140
_publ_section_title
;
Structure prediction by ZEFSAII (Michael W. Deem and Ramdas Pophale) SiO2 
 PCOD9364140
Probable space group: A M A 2
;
_chemical_formula_sum "Si O2"
_cell_formula_units_Z 64
_cell_length_a 15.524803
_cell_length_b 8.515023
_cell_length_c 23.818410
_cell_angle_alpha 90.000000
_cell_angle_beta 90.000000
_cell_angle_gamma 90.000000
_cell_volume 3148.652192
_symmetry_space_group_name_H-M "A M A 2"
_symmetry_group_IT_number 40
_symmetry_cell_setting 'orthorhombic'
loop_
_space_group_symop_operation_xyz
x,y,z
-x,-y,z
1/2-x,y,z
1/2+x,-y,z
x,1/2+y,1/2+z
-x,1/2-y,1/2+z
1/2-x,1/2+y,1/2+z
1/2+x,1/2-y,1/2+z
loop_
_atom_site_type_symbol
_atom_site_label
_atom_site_fract_x
_atom_site_fract_y
_atom_site_fract_z
Si Si1 0.602162 0.994817 0.764040
Si Si2 0.843655 0.863543 0.653684
Si Si3 0.146504 0.846742 0.316117
Si Si4 0.151245 0.326873 0.944903
Si Si5 0.155548 0.627901 0.024480
Si Si6 0.478292 0.681656 0.650831
Si Si7 0.852424 0.326774 0.755797
Si Si8 0.481170 0.682287 0.526464
O O1 0.650214 0.985800 0.704047
O O2 0.620805 0.826070 0.793120
O O3 0.500000 0.000000 0.756106
O O4 0.630721 0.163078 0.790076
O O5 0.750000 0.780382 0.659200
O O6 0.847547 0.924614 0.589951
O O7 0.929605 0.762369 0.662421
O O8 0.250000 0.850628 0.313233
O O9 0.121428 0.855827 0.381428
O O10 0.118524 0.007201 0.284143
O O11 0.250000 0.268031 0.943097
O O12 0.087459 0.216265 0.978691
O O13 0.151455 0.486032 0.981141
O O14 0.250000 0.706301 0.017618
O O15 0.071909 0.732712 0.015725
O O16 0.500000 0.500000 0.646748
O O17 0.409260 0.696301 0.699899
O O18 0.449495 0.735285 0.588608
O O19 0.750000 0.338456 0.745314
O O20 0.500000 0.500000 0.528464
#
# Coordination Sequence:
#
# PCOD9364140 Si02
#       8
#     8   8   8   8   8   8   8   8
#     4  12  24  40  65  98 131 170 212 265 326 383
#     4  10  20  37  62  90 128 168 207 263 321 378
#     4  10  24  47  67  91 132 173 218 271 320 381
#     4  10  22  43  67  90 121 169 215 260 318 377
#     4   9  20  39  64  91 121 166 215 258 314 378
#     4  10  21  37  60  93 132 169 210 261 322 386
#     4  11  24  42  67  97 130 173 219 264 323 387
#     4  10  22  39  61  94 130 163 207 264 322 381
#
# _framework density 20.326158
#
# number of rings (size 3 to 8) (size 9 to 14) (size 15 to 20)
#    0.000    1.750    1.250    2.250    1.750    3.000 
#    6.750    2.500    0.000    0.000    0.000    0.000 
#    0.000    0.000    0.000    0.000    0.000    0.000 
#
# Total GULP energy -178435.030946 kJ/mol
# GULP energy per Si atom -5576.094717 kJ/mol
# Density = 2.027989 g / cm^3
# Si number density = 20.326158 Si / 1000 Ang^3
#
#
#
# Elastic Constant Matrix: (Units=GPa)
#
#
# Indices 1 2 3 4 5 6 
#
# 1 107.2745 48.2058 66.3722 0.0000 0.0000 0.0000
# 2 48.2058 122.9262 55.7438 0.0000 0.0000 0.0000
# 3 66.3722 55.7438 123.7142 0.0000 0.0000 0.0000
# 4 0.0000 0.0000 0.0000 19.8295 0.0000 0.0000
# 5 0.0000 0.0000 0.0000 0.0000 27.6406 0.0000
# 6 0.0000 0.0000 0.0000 0.0000 0.0000 27.0668
#
#
#
# Elastic Compliance Matrix: (Units=1/GPa)
#
#
# Indices 1 2 3 4 5 6 
#
# 1 0.014654 -0.002742 -0.006626 0.000000 0.000000 0.000000
# 2 -0.002742 0.010737 -0.003367 0.000000 0.000000 0.000000
# 3 -0.006626 -0.003367 0.013155 0.000000 0.000000 0.000000
# 4 0.000000 0.000000 0.000000 0.050430 0.000000 0.000000
# 5 0.000000 0.000000 0.000000 0.000000 0.036179 0.000000
# 6 0.000000 0.000000 0.000000 0.000000 0.000000 0.036946
#
#
# Mechanical properties :
#
#
# Convention : Reuss Voigt Hill
#
# Bulk Modulus (GPa) = 76.47620 77.17316 76.82468
# Shear Modulus (GPa) = 26.05136 27.14693 26.59915
#
# Velocity S-wave (km/s) = 3.58392 3.65850 3.62141
# Velocity P-wave (km/s) = 7.40488 7.47637 7.44071
#
# Compressibility (1/GPa) = 0.01307596
#
# Stress axis : x y z
#
# Youngs Moduli (GPa) = 68.24240 93.13623 76.01513
#
# Poissons Ratio (x) = 0.25534 0.50370
# Poissons Ratio (y) = 0.18709 0.25595
# Poissons Ratio (z) = 0.45219 0.31359
#
# Static dielectric constant tensor:
#      x y z
#    x 1.724150 0.000000 0.000000 
#    y 0.000000 1.781880 0.000000 
#    z 0.000000 0.000000 1.749330 
# 
# From -- ./inp_files/24839.got.cif
#   From: 2010.05.17/outbox.cif.g08.bks.cpg/sg40_13_cif.got.tgz:24839.got - 2010.06.03 18:35:42.
