data_PCOD9364443
_publ_section_title
;
Structure prediction by ZEFSAII (Michael W. Deem and Ramdas Pophale) SiO2 
 PCOD9364443
Probable space group: A M A 2
;
_chemical_formula_sum "Si O2"
_cell_formula_units_Z 64
_cell_length_a 14.671708
_cell_length_b 8.691215
_cell_length_c 24.125876
_cell_angle_alpha 90.000000
_cell_angle_beta 90.000000
_cell_angle_gamma 90.000000
_cell_volume 3076.410322
_symmetry_space_group_name_H-M "A M A 2"
_symmetry_group_IT_number 40
_symmetry_cell_setting 'orthorhombic'
loop_
_space_group_symop_operation_xyz
x,y,z
-x,-y,z
1/2-x,y,z
1/2+x,-y,z
x,1/2+y,1/2+z
-x,1/2-y,1/2+z
1/2-x,1/2+y,1/2+z
1/2+x,1/2-y,1/2+z
loop_
_atom_site_type_symbol
_atom_site_label
_atom_site_fract_x
_atom_site_fract_y
_atom_site_fract_z
Si Si1 0.644616 0.984584 0.760250
Si Si2 0.851553 0.877427 0.639082
Si Si3 0.138964 0.855280 0.300293
Si Si4 0.144156 0.333049 0.927067
Si Si5 0.148306 0.608815 0.013899
Si Si6 0.467589 0.674750 0.633337
Si Si7 0.860373 0.318018 0.745712
Si Si8 0.474268 0.675438 0.511881
O O1 0.750000 0.982600 0.778984
O O2 0.642783 0.982415 0.693145
O O3 0.608440 0.814248 0.777833
O O4 0.609010 0.156254 0.775372
O O5 0.750000 0.801007 0.642923
O O6 0.855491 0.949657 0.577718
O O7 0.939549 0.770077 0.642518
O O8 0.250000 0.855124 0.295644
O O9 0.112908 0.864799 0.364828
O O10 0.110317 0.015774 0.270913
O O11 0.250000 0.289709 0.923697
O O12 0.136607 0.479360 0.967701
O O13 0.087756 0.206497 0.959331
O O14 0.250000 0.676538 0.007003
O O15 0.066528 0.726694 0.007813
O O16 0.500000 0.500000 0.632010
O O17 0.398649 0.689544 0.683648
O O18 0.430815 0.714190 0.571937
O O19 0.750000 0.315591 0.745980
O O20 0.500000 0.500000 0.513149
#
# Coordination Sequence:
#
# PCOD9364443 Si02
#       8
#     8   8   8   8   8   8   8   8
#     4   9  18  34  59  89 117 152 197 245 303 362
#     4   9  18  34  57  83 116 153 195 251 302 356
#     4   9  19  39  62  87 123 163 203 253 305 359
#     4  10  21  39  64  89 117 163 210 252 311 373
#     4   9  19  37  62  87 113 157 210 252 305 369
#     4  10  21  35  56  87 122 159 198 243 304 372
#     4  10  21  37  61  92 124 160 201 248 305 367
#     4  10  22  39  58  88 127 160 199 256 317 370
#
# _framework density 20.803466
#
# number of rings (size 3 to 8) (size 9 to 14) (size 15 to 20)
#    0.000    2.500    0.000    1.125    1.750    3.000 
#    2.250    6.250    0.000    0.000    0.000    0.000 
#    0.000    0.000    0.000    0.000    0.000    0.000 
#
# Total GULP energy -178330.652170 kJ/mol
# GULP energy per Si atom -5572.832880 kJ/mol
# Density = 2.075612 g / cm^3
# Si number density = 20.803466 Si / 1000 Ang^3
#
#
#
# Elastic Constant Matrix: (Units=GPa)
#
#
# Indices 1 2 3 4 5 6 
#
# 1 41.5326 44.3559 44.2502 0.0000 0.0000 0.0000
# 2 44.3559 133.8548 55.7438 0.0000 0.0000 0.0000
# 3 44.2502 55.7438 129.9540 0.0000 0.0000 0.0000
# 4 0.0000 0.0000 0.0000 -326.8513 0.0000 0.0000
# 5 0.0000 0.0000 0.0000 0.0000 22.2910 0.0000
# 6 0.0000 0.0000 0.0000 0.0000 0.0000 34.4473
#
#
#
# Elastic Compliance Matrix: (Units=1/GPa)
#
#
# Indices 1 2 3 4 5 6 
#
# 1 0.048523 -0.011199 -0.011719 0.000000 0.000000 0.000000
# 2 -0.011199 0.011680 -0.001197 0.000000 0.000000 0.000000
# 3 -0.011719 -0.001197 0.012199 0.000000 0.000000 0.000000
# 4 0.000000 0.000000 0.000000 -0.003059 0.000000 0.000000
# 5 0.000000 0.000000 0.000000 0.000000 0.044861 0.000000
# 6 0.000000 0.000000 0.000000 0.000000 0.000000 0.029030
#
#
# Mechanical properties :
#
#
# Convention : Reuss Voigt Hill
#
# Bulk Modulus (GPa) = 41.36841 66.00455 53.68648
# Shear Modulus (GPa) = 25.06005 -43.28982 -9.11489
#
# Velocity S-wave (km/s) = 3.47451 -4.56663 -2.09546
# Velocity P-wave (km/s) = 6.00207 1.99776 4.47302
#
# Compressibility (1/GPa) = 0.02417303
#
# Stress axis : x y z
#
# Youngs Moduli (GPa) = 20.60867 85.61415 81.97586
#
# Poissons Ratio (x) = 0.95880 0.96064
# Poissons Ratio (y) = 0.23080 0.09812
# Poissons Ratio (z) = 0.24151 0.10247
#
# Static dielectric constant tensor:
#      x y z
#    x 1.746250 0.000000 0.000000 
#    y 0.000000 2.747160 0.000000 
#    z 0.000000 0.000000 1.754620 
# 
# From -- ./inp_files/24840.got.cif
#   From: 2010.05.17/outbox.cif.g08.bks.cpg/sg40_13_cif.got.tgz:24840.got - 2010.06.03 18:35:42.
