data_PCOD9364441
_publ_section_title
;
Structure prediction by ZEFSAII (Michael W. Deem and Ramdas Pophale) SiO2 
 PCOD9364441
Probable space group: A M A 2
;
_chemical_formula_sum "Si O2"
_cell_formula_units_Z 64
_cell_length_a 20.793353
_cell_length_b 17.558410
_cell_length_c 7.371104
_cell_angle_alpha 90.000000
_cell_angle_beta 90.000000
_cell_angle_gamma 90.000000
_cell_volume 2691.176930
_symmetry_space_group_name_H-M "A M A 2"
_symmetry_group_IT_number 40
_symmetry_cell_setting 'orthorhombic'
loop_
_space_group_symop_operation_xyz
x,y,z
-x,-y,z
1/2-x,y,z
1/2+x,-y,z
x,1/2+y,1/2+z
-x,1/2-y,1/2+z
1/2-x,1/2+y,1/2+z
1/2+x,1/2-y,1/2+z
loop_
_atom_site_type_symbol
_atom_site_label
_atom_site_fract_x
_atom_site_fract_y
_atom_site_fract_z
Si Si1 0.823039 0.393263 0.032640
Si Si2 0.552252 0.186751 0.762628
Si Si3 0.425875 0.687913 0.485328
Si Si4 0.318547 0.287554 0.908399
Si Si5 0.179509 0.957091 0.273851
Si Si6 0.468609 0.578503 0.037295
Si Si7 0.064292 0.033233 0.125059
Si Si8 0.681266 0.227761 0.840961
O O1 0.750000 0.394266 0.121858
O O2 0.896542 0.402506 0.111657
O O3 0.820963 0.468601 0.904316
O O4 0.825489 0.312191 0.925906
O O5 0.563901 0.269333 0.676177
O O6 0.523580 0.138553 0.594352
O O7 0.619913 0.173154 0.863307
O O8 0.495849 0.183207 0.903244
O O9 0.379177 0.736970 0.355971
O O10 0.402716 0.603224 0.523618
O O11 0.250000 0.265960 0.824181
O O12 0.314167 0.269123 0.121992
O O13 0.327332 0.377211 0.879410
O O14 0.250000 0.956393 0.184639
O O15 0.117234 0.969106 0.152951
O O16 0.500000 0.500000 0.105411
O O17 0.458794 0.566494 0.821294
O O18 0.000000 0.000000 0.036204
O O19 0.750000 0.196479 0.906272
#
# Coordination Sequence:
#
# PCOD9364441 Si02
#       8
#     8   8   8   8   8   8   8   8
#     4   9  17  32  52  78 113 155 199 241 299 363
#     4  11  22  36  58  83 118 152 198 248 301 359
#     4  11  23  36  58  85 117 160 197 248 301 359
#     4   9  18  31  53  85 116 146 195 250 296 352
#     4   9  17  30  54  83 111 149 195 246 295 351
#     4  10  21  35  56  86 116 152 196 249 300 356
#     4  10  22  36  58  84 119 158 198 244 298 362
#     4   9  18  32  53  80 114 152 197 248 298 358
#
# _framework density 23.781416
#
# number of rings (size 3 to 8) (size 9 to 14) (size 15 to 20)
#    0.000    2.250    0.000    4.500   12.250    2.000 
#    0.000    0.625    0.000    1.500    0.000    1.750 
#    0.000    0.000    0.000    0.000    0.000    0.000 
#
# Total GULP energy -178349.101032 kJ/mol
# GULP energy per Si atom -5573.409407 kJ/mol
# Density = 2.372729 g / cm^3
# Si number density = 23.781416 Si / 1000 Ang^3
#
#
#
# Elastic Constant Matrix: (Units=GPa)
#
#
# Indices 1 2 3 4 5 6 
#
# 1 215.0114 59.0920 10.3778 0.0000 0.0000 0.0000
# 2 59.0920 108.8807 24.5783 0.0000 0.0000 0.0000
# 3 10.3778 24.5783 47.5381 0.0000 0.0000 0.0000
# 4 0.0000 0.0000 0.0000 16.9771 0.0000 0.0000
# 5 0.0000 0.0000 0.0000 0.0000 5.4338 0.0000
# 6 0.0000 0.0000 0.0000 0.0000 0.0000 82.9964
#
#
#
# Elastic Compliance Matrix: (Units=1/GPa)
#
#
# Indices 1 2 3 4 5 6 
#
# 1 0.005472 -0.003057 0.000386 0.000000 0.000000 0.000000
# 2 -0.003057 0.012106 -0.005592 0.000000 0.000000 0.000000
# 3 0.000386 -0.005592 0.023842 0.000000 0.000000 0.000000
# 4 0.000000 0.000000 0.000000 0.058903 0.000000 0.000000
# 5 0.000000 0.000000 0.000000 0.000000 0.184032 0.000000
# 6 0.000000 0.000000 0.000000 0.000000 0.000000 0.012049
#
#
# Mechanical properties :
#
#
# Convention : Reuss Voigt Hill
#
# Bulk Modulus (GPa) = 40.16840 62.16958 51.16899
# Shear Modulus (GPa) = 15.56523 39.57360 27.56942
#
# Velocity S-wave (km/s) = 2.56112 4.08371 3.40852
# Velocity P-wave (km/s) = 5.06686 6.95948 6.08718
#
# Compressibility (1/GPa) = 0.02489519
#
# Stress axis : x y z
#
# Youngs Moduli (GPa) = 182.73202 82.60514 41.94192
#
# Poissons Ratio (x) = 0.25254 -0.01619
# Poissons Ratio (y) = 0.55864 0.23452
# Poissons Ratio (z) = -0.07053 0.46189
#
# Static dielectric constant tensor:
#      x y z
#    x 2.014420 0.000000 0.000000 
#    y 0.000000 1.901040 0.000000 
#    z 0.000000 0.000000 1.945280 
# 
# From -- ./inp_files/8466.got.cif
#   From: 2010.05.17/outbox.cif.g08.bks.cpg/sg40_5_cif.got.tgz:8466.got - 2010.06.03 18:35:42.
