data_PCOD9364974
_publ_section_title
;
Structure prediction by ZEFSAII (Michael W. Deem and Ramdas Pophale) SiO2 
 PCOD9364974
Probable space group: A M A 2
;
_chemical_formula_sum "Si O2"
_cell_formula_units_Z 48
_cell_length_a 16.263685
_cell_length_b 4.908001
_cell_length_c 27.464656
_cell_angle_alpha 90.000000
_cell_angle_beta 90.000000
_cell_angle_gamma 90.000000
_cell_volume 2192.288776
_symmetry_space_group_name_H-M "A M A 2"
_symmetry_group_IT_number 40
_symmetry_cell_setting 'orthorhombic'
loop_
_space_group_symop_operation_xyz
x,y,z
-x,-y,z
1/2-x,y,z
1/2+x,-y,z
x,1/2+y,1/2+z
-x,1/2-y,1/2+z
1/2-x,1/2+y,1/2+z
1/2+x,1/2-y,1/2+z
loop_
_atom_site_type_symbol
_atom_site_label
_atom_site_fract_x
_atom_site_fract_y
_atom_site_fract_z
Si Si1 0.438879 0.745243 0.482140
Si Si2 0.444918 0.269452 0.230331
Si Si3 0.656388 0.374177 0.821680
Si Si4 0.909596 0.868601 0.876550
Si Si5 0.655978 0.964152 0.643075
Si Si6 0.158402 0.518350 0.574461
O O1 0.500000 0.500000 0.474792
O O2 0.390818 0.750171 0.430772
O O3 0.385841 0.648426 0.528006
O O4 0.500000 0.000000 0.490206
O O5 0.500000 0.500000 0.256243
O O6 0.373262 0.187197 0.267195
O O7 0.403953 0.440231 0.186087
O O8 0.500000 0.000000 0.218041
O O9 0.750000 0.469857 0.822286
O O10 0.598380 0.610338 0.841907
O O11 0.647365 0.108761 0.855862
O O12 0.000000 0.000000 0.875607
O O13 0.750000 0.881697 0.658910
O O14 0.621827 0.729847 0.606617
O O15 0.664610 0.233880 0.611423
O O16 0.250000 0.422817 0.559632
#
# Coordination Sequence:
#
# PCOD9364974 Si02
#       6
#     8   8   8   8   8   8
#     4  11  23  40  64  94 129 170 214 265 322 382
#     4  12  25  41  65  94 127 170 219 271 329 396
#     4  12  25  42  66  97 131 172 219 274 333 398
#     4  11  23  43  66  93 132 175 219 271 329 392
#     4  10  22  42  63  89 125 165 209 265 325 382
#     4  10  22  40  64  91 125 164 207 262 323 382
#
# _framework density 21.894928
#
# number of rings (size 3 to 8) (size 9 to 14) (size 15 to 20)
#    0.000    1.000    0.000    8.000    0.000    4.000 
#    0.000    6.667    0.000    0.000    0.000    0.000 
#    0.000    0.000    0.000    0.000    0.000    0.000 
#
# Total GULP energy -133978.823867 kJ/mol
# GULP energy per Si atom -5582.450994 kJ/mol
# Density = 2.184509 g / cm^3
# Si number density = 21.894928 Si / 1000 Ang^3
#
#
#
# Elastic Constant Matrix: (Units=GPa)
#
#
# Indices 1 2 3 4 5 6 
#
# 1 71.0500 19.8016 46.9296 0.0000 0.0000 0.0000
# 2 19.8016 142.6975 42.3123 0.0000 0.0000 0.0000
# 3 46.9296 42.3123 128.0832 0.0000 0.0000 0.0000
# 4 0.0000 0.0000 0.0000 27.2397 0.0000 0.0000
# 5 0.0000 0.0000 0.0000 0.0000 315.1431 0.0000
# 6 0.0000 0.0000 0.0000 0.0000 0.0000 35.3531
#
#
#
# Elastic Compliance Matrix: (Units=1/GPa)
#
#
# Indices 1 2 3 4 5 6 
#
# 1 0.018618 -0.000622 -0.006616 0.000000 0.000000 0.000000
# 2 -0.000622 0.007790 -0.002345 0.000000 0.000000 0.000000
# 3 -0.006616 -0.002345 0.011006 0.000000 0.000000 0.000000
# 4 0.000000 0.000000 0.000000 0.036711 0.000000 0.000000
# 5 0.000000 0.000000 0.000000 0.000000 0.003173 0.000000
# 6 0.000000 0.000000 0.000000 0.000000 0.000000 0.028286
#
#
# Mechanical properties :
#
#
# Convention : Reuss Voigt Hill
#
# Bulk Modulus (GPa) = 54.80316 62.21308 58.50812
# Shear Modulus (GPa) = 38.21649 91.06633 64.64141
#
# Velocity S-wave (km/s) = 4.18239 6.45622 5.43944
# Velocity P-wave (km/s) = 6.95756 9.16804 8.13820
#
# Compressibility (1/GPa) = 0.01824712
#
# Stress axis : x y z
#
# Youngs Moduli (GPa) = 53.71150 128.37657 90.85593
#
# Poissons Ratio (x) = 0.07981 0.60112
# Poissons Ratio (y) = 0.03339 0.21310
# Poissons Ratio (z) = 0.35537 0.30111
#
# Static dielectric constant tensor:
#      x y z
#    x 1.710840 0.000000 0.000000 
#    y 0.000000 1.793010 0.000000 
#    z 0.000000 0.000000 1.912360 
# 
# From -- ./inp_files/26575.got.cif
#   From: 2010.05.17/outbox.cif.g08.bks.cpg/sg40_14_cif.got.tgz:26575.got - 2010.06.03 18:35:42.
