data_PCOD9364394
_publ_section_title
;
Structure prediction by ZEFSAII (Michael W. Deem and Ramdas Pophale) SiO2 
 PCOD9364394
Probable space group: A M A 2
;
_chemical_formula_sum "Si O2"
_cell_formula_units_Z 48
_cell_length_a 11.406289
_cell_length_b 14.342975
_cell_length_c 11.974097
_cell_angle_alpha 90.000000
_cell_angle_beta 90.000000
_cell_angle_gamma 90.000000
_cell_volume 1958.963682
_symmetry_space_group_name_H-M "A M A 2"
_symmetry_group_IT_number 40
_symmetry_cell_setting 'orthorhombic'
loop_
_space_group_symop_operation_xyz
x,y,z
-x,-y,z
1/2-x,y,z
1/2+x,-y,z
x,1/2+y,1/2+z
-x,1/2-y,1/2+z
1/2-x,1/2+y,1/2+z
1/2+x,1/2-y,1/2+z
loop_
_atom_site_type_symbol
_atom_site_label
_atom_site_fract_x
_atom_site_fract_y
_atom_site_fract_z
Si Si1 0.250000 0.537129 0.694440
Si Si2 0.250000 0.139824 0.961010
Si Si3 0.886567 0.655851 0.278013
Si Si4 0.474395 0.098240 0.568175
Si Si5 0.250000 0.843249 0.263114
Si Si6 0.987592 0.862057 0.245434
Si Si7 0.250000 0.622222 0.214813
Si Si8 0.502979 0.195452 0.994170
O O1 0.250000 0.581501 0.573023
O O2 0.250000 0.427533 0.676344
O O3 0.125737 0.568253 0.753740
O O4 0.365502 0.201312 0.968316
O O5 0.250000 0.088022 0.842451
O O6 0.750000 0.649797 0.289796
O O7 0.929423 0.762213 0.267559
O O8 0.925513 0.611229 0.161853
O O9 0.944820 0.631140 0.396206
O O10 0.360804 0.090641 0.645872
O O11 0.455618 0.196490 0.504264
O O12 0.500000 0.000000 0.507133
O O13 0.384909 0.862493 0.308633
O O14 0.250000 0.735771 0.225609
O O15 0.018839 0.854236 0.113359
#
# Coordination Sequence:
#
# PCOD9364394 Si02
#       8
#     4   4   8   8   4   8   4   8
#     4  10  22  38  59  95 131 169 214 270 322 393
#     4  10  20  43  65  93 130 172 221 263 327 393
#     4  11  22  40  67  92 130 174 218 266 335 392
#     4  11  26  44  65  99 131 174 220 275 329 395
#     4  12  20  38  64  91 126 171 211 262 334 377
#     4  10  21  39  61  93 130 167 213 270 325 385
#     4  12  22  45  64  93 137 170 212 277 329 391
#     4  10  21  39  68  89 127 174 215 265 329 390
#
# _framework density 24.502752000000001
#
# number of rings (size 3 to 8) (size 9 to 14) (size 15 to 20)
#    0.000    1.333    5.833    0.500    7.000    0.000 
#    3.000    3.333    0.000    0.000    0.000    0.000 
#    0.000    0.000    0.000    0.000    0.000    0.000 
#
# Total GULP energy -133832.126556 kJ/mol
# GULP energy per Si atom -5576.338607 kJ/mol
# Density = 2.444698 g / cm^3
# Si number density = 24.502752 Si / 1000 Ang^3
#
#
#
# Elastic Constant Matrix: (Units=GPa)
#
#
# Indices 1 2 3 4 5 6 
#
# 1 162.7596 22.0928 11.6367 0.0000 0.0000 0.0000
# 2 22.0928 86.8368 -8.1198 0.0000 0.0000 0.0000
# 3 11.6367 -8.1198 62.5720 0.0000 0.0000 0.0000
# 4 0.0000 0.0000 0.0000 10.6812 0.0000 0.0000
# 5 0.0000 0.0000 0.0000 0.0000 30.5150 0.0000
# 6 0.0000 0.0000 0.0000 0.0000 0.0000 19.5719
#
#
#
# Elastic Compliance Matrix: (Units=1/GPa)
#
#
# Indices 1 2 3 4 5 6 
#
# 1 0.006489 -0.001785 -0.001439 0.000000 0.000000 0.000000
# 2 -0.001785 0.012149 0.001909 0.000000 0.000000 0.000000
# 3 -0.001439 0.001909 0.016497 0.000000 0.000000 0.000000
# 4 0.000000 0.000000 0.000000 0.093622 0.000000 0.000000
# 5 0.000000 0.000000 0.000000 0.000000 0.032771 0.000000
# 6 0.000000 0.000000 0.000000 0.000000 0.000000 0.051094
#
#
# Mechanical properties :
#
#
# Convention : Reuss Voigt Hill
#
# Bulk Modulus (GPa) = 30.76577 40.37643 35.57110
# Shear Modulus (GPa) = 22.11544 31.25756 26.68650
#
# Velocity S-wave (km/s) = 3.00754 3.57553 3.30377
# Velocity P-wave (km/s) = 4.96424 5.79310 5.39461
#
# Compressibility (1/GPa) = 0.03250366
#
# Stress axis : x y z
#
# Youngs Moduli (GPa) = 154.10119 82.31417 60.61789
#
# Poissons Ratio (x) = 0.14697 0.08720
# Poissons Ratio (y) = 0.27515 -0.11569
# Poissons Ratio (z) = 0.22168 -0.15710
#
# Static dielectric constant tensor:
#      x y z
#    x 1.920980 0.000000 0.000000 
#    y 0.000000 1.986710 0.000000 
#    z 0.000000 0.000000 2.014040 
# 
# From -- ./inp_files/16369.got.cif
#   From: 2010.05.17/outbox.cif.g08.bks.cpg/sg40_9_cif.got.tgz:16369.got - 2010.06.03 18:35:42.
