data_PCOD9364353
_publ_section_title
;
Structure prediction by ZEFSAII (Michael W. Deem and Ramdas Pophale) SiO2 
 PCOD9364353
Probable space group: A M A 2
;
_chemical_formula_sum "Si O2"
_cell_formula_units_Z 32
_cell_length_a 21.244778
_cell_length_b 13.345945
_cell_length_c 4.821669
_cell_angle_alpha 90.000000
_cell_angle_beta 90.000000
_cell_angle_gamma 90.000000
_cell_volume 1367.095713
_symmetry_space_group_name_H-M "A M A 2"
_symmetry_group_IT_number 40
_symmetry_cell_setting 'orthorhombic'
loop_
_space_group_symop_operation_xyz
x,y,z
-x,-y,z
1/2-x,y,z
1/2+x,-y,z
x,1/2+y,1/2+z
-x,1/2-y,1/2+z
1/2-x,1/2+y,1/2+z
1/2+x,1/2-y,1/2+z
loop_
_atom_site_type_symbol
_atom_site_label
_atom_site_fract_x
_atom_site_fract_y
_atom_site_fract_z
Si Si1 0.586086 0.870520 0.337470
Si Si2 0.497577 0.619962 0.329352
Si Si3 0.881677 0.100696 0.457897
Si Si4 0.677820 0.199070 0.920542
O O1 0.560063 0.846658 0.640676
O O2 0.645674 0.799256 0.292765
O O3 0.603337 0.988467 0.350710
O O4 0.525808 0.852720 0.136446
O O5 0.500000 0.500000 0.340852
O O6 0.560284 0.640685 0.150490
O O7 0.826837 0.112955 0.685051
O O8 0.861498 0.162073 0.187433
O O9 0.750000 0.217250 0.996867
#
# Coordination Sequence:
#
# PCOD9364353 Si02
#       4
#     8   8   8   8
#     4  11  23  43  68  97 134 173 216 279 342 394
#     4  10  20  40  69  99 130 165 216 277 345 410
#     4  11  24  45  69  99 137 176 222 284 342 396
#     4  12  27  44  66  99 136 184 238 268 318 410
#
# _framework density 23.407283
#
# number of rings (size 3 to 8) (size 9 to 14) (size 15 to 20)
#    0.000    1.000    0.000    9.000    0.000    6.000 
#    0.000    5.000    0.000    0.000    0.000    0.000 
#    0.000    0.000    0.000    0.000    0.000    0.000 
#
# Total GULP energy -89305.640518 kJ/mol
# GULP energy per Si atom -5581.602532 kJ/mol
# Density = 2.335401 g / cm^3
# Si number density = 23.407283 Si / 1000 Ang^3
#
#
#
# Elastic Constant Matrix: (Units=GPa)
#
#
# Indices 1 2 3 4 5 6 
#
# 1 118.0132 81.9233 26.9171 0.0000 0.0000 0.0000
# 2 81.9233 127.6858 32.1328 0.0000 0.0000 0.0000
# 3 26.9171 32.1328 146.0375 0.0000 0.0000 0.0000
# 4 0.0000 0.0000 0.0000 22.0026 0.0000 0.0000
# 5 0.0000 0.0000 0.0000 0.0000 31.4682 0.0000
# 6 0.0000 0.0000 0.0000 0.0000 0.0000 24.0286
#
#
#
# Elastic Compliance Matrix: (Units=1/GPa)
#
#
# Indices 1 2 3 4 5 6 
#
# 1 0.015346 -0.009670 -0.000701 0.000000 0.000000 0.000000
# 2 -0.009670 0.014384 -0.001383 0.000000 0.000000 0.000000
# 3 -0.000701 -0.001383 0.007281 0.000000 0.000000 0.000000
# 4 0.000000 0.000000 0.000000 0.045449 0.000000 0.000000
# 5 0.000000 0.000000 0.000000 0.000000 0.031778 0.000000
# 6 0.000000 0.000000 0.000000 0.000000 0.000000 0.041617
#
#
# Mechanical properties :
#
#
# Convention : Reuss Voigt Hill
#
# Bulk Modulus (GPa) = 74.04977 74.85367 74.45172
# Shear Modulus (GPa) = 27.19421 32.21744 29.70583
#
# Velocity S-wave (km/s) = 3.41219 3.71399 3.56629
# Velocity P-wave (km/s) = 6.87227 7.10210 6.98813
#
# Compressibility (1/GPa) = 0.01350443
#
# Stress axis : x y z
#
# Youngs Moduli (GPa) = 65.16338 69.52311 137.34461
#
# Poissons Ratio (x) = 0.67226 0.09627
# Poissons Ratio (y) = 0.63011 0.18989
# Poissons Ratio (z) = 0.04567 0.09612
#
# Static dielectric constant tensor:
#      x y z
#    x 1.929880 0.000000 0.000000 
#    y 0.000000 1.915940 0.000000 
#    z 0.000000 0.000000 1.871820 
# 
# From -- ./inp_files/1673.got.cif
#   From: 2010.05.17/outbox.cif.g08.bks.cpg/sg40_1_cif.got.tgz:1673.got - 2010.06.03 18:35:42.
