data_PCOD9364859
_publ_section_title
;
Structure prediction by ZEFSAII (Michael W. Deem and Ramdas Pophale) SiO2 
 PCOD9364859
Probable space group: A M A 2
;
_chemical_formula_sum "Si O2"
_cell_formula_units_Z 48
_cell_length_a 16.501869
_cell_length_b 14.885138
_cell_length_c 9.278817
_cell_angle_alpha 90.000000
_cell_angle_beta 90.000000
_cell_angle_gamma 90.000000
_cell_volume 2279.179920
_symmetry_space_group_name_H-M "A M A 2"
_symmetry_group_IT_number 40
_symmetry_cell_setting 'orthorhombic'
loop_
_space_group_symop_operation_xyz
x,y,z
-x,-y,z
1/2-x,y,z
1/2+x,-y,z
x,1/2+y,1/2+z
-x,1/2-y,1/2+z
1/2-x,1/2+y,1/2+z
1/2+x,1/2-y,1/2+z
loop_
_atom_site_type_symbol
_atom_site_label
_atom_site_fract_x
_atom_site_fract_y
_atom_site_fract_z
Si Si1 0.394643 0.738710 0.593810
Si Si2 0.750000 0.997010 0.169560
Si Si3 0.250000 0.805571 0.787012
Si Si4 0.750000 0.986997 0.821361
Si Si5 0.010990 0.605184 0.077830
Si Si6 0.630761 0.334037 0.285354
Si Si7 0.927746 0.924688 0.271309
Si Si8 0.250000 0.794946 0.129742
O O1 0.327209 0.762566 0.710660
O O2 0.435109 0.831744 0.542848
O O3 0.360326 0.694535 0.449275
O O4 0.447458 0.659776 0.667736
O O5 0.750000 0.104338 0.189847
O O6 0.836038 0.958280 0.230909
O O7 0.750000 0.985423 0.995673
O O8 0.250000 0.912624 0.764754
O O9 0.250000 0.793075 0.957778
O O10 0.674051 0.929828 0.767124
O O11 0.042301 0.650839 0.224132
O O12 0.000000 0.500000 0.104304
O O13 0.069018 0.607667 0.937669
O O14 0.673670 0.259429 0.189360
O O15 0.000000 0.000000 0.257450
#
# Coordination Sequence:
#
# PCOD9364859 Si02
#       8
#     8   4   4   4   8   8   8   4
#     4  12  24  44  71  97 145 185 239 294 366 430
#     4  11  23  46  72  99 139 187 237 290 358 430
#     4  11  23  44  70  99 133 189 234 295 365 429
#     4  10  21  44  65 101 132 174 240 283 350 432
#     4  11  26  43  65 104 140 188 237 293 361 423
#     4  11  23  44  64  99 140 176 235 296 350 428
#     4  11  26  47  72 105 143 191 247 295 361 436
#     4  10  25  38  71  99 132 178 241 288 355 427
#
# _framework density 21.060206000000001
#
# number of rings (size 3 to 8) (size 9 to 14) (size 15 to 20)
#    0.000    1.000    1.667    4.500    7.000    2.000 
#    6.000    0.000    0.000    0.000    0.000    0.000 
#    0.000    0.000    0.000    0.000    0.000    0.000 
#
# Total GULP energy -133986.637010 kJ/mol
# GULP energy per Si atom -5582.776542 kJ/mol
# Density = 2.101227 g / cm^3
# Si number density = 21.060206 Si / 1000 Ang^3
#
#
#
# Elastic Constant Matrix: (Units=GPa)
#
#
# Indices 1 2 3 4 5 6 
#
# 1 59.3206 28.6856 12.9045 0.0000 0.0000 0.0000
# 2 28.6856 150.5604 39.0959 0.0000 0.0000 0.0000
# 3 12.9045 39.0959 80.2272 0.0000 0.0000 0.0000
# 4 0.0000 0.0000 0.0000 35.8569 0.0000 0.0000
# 5 0.0000 0.0000 0.0000 0.0000 17.7417 0.0000
# 6 0.0000 0.0000 0.0000 0.0000 0.0000 114.1947
#
#
#
# Elastic Compliance Matrix: (Units=1/GPa)
#
#
# Indices 1 2 3 4 5 6 
#
# 1 0.018716 -0.003187 -0.001457 0.000000 0.000000 0.000000
# 2 -0.003187 0.008147 -0.003457 0.000000 0.000000 0.000000
# 3 -0.001457 -0.003457 0.014384 0.000000 0.000000 0.000000
# 4 0.000000 0.000000 0.000000 0.027889 0.000000 0.000000
# 5 0.000000 0.000000 0.000000 0.000000 0.056364 0.000000
# 6 0.000000 0.000000 0.000000 0.000000 0.000000 0.008757
#
#
# Mechanical properties :
#
#
# Convention : Reuss Voigt Hill
#
# Bulk Modulus (GPa) = 39.93199 50.16448 45.04823
# Shear Modulus (GPa) = 31.48451 47.52014 39.50232
#
# Velocity S-wave (km/s) = 3.87069 4.75531 4.33562
# Velocity P-wave (km/s) = 6.24326 7.34996 6.81910
#
# Compressibility (1/GPa) = 0.02504258
#
# Stress axis : x y z
#
# Youngs Moduli (GPa) = 53.43051 122.74558 69.52256
#
# Poissons Ratio (x) = 0.39125 0.10130
# Poissons Ratio (y) = 0.17031 0.24037
# Poissons Ratio (z) = 0.07786 0.42438
#
# Static dielectric constant tensor:
#      x y z
#    x 1.769250 0.000000 0.000000 
#    y 0.000000 1.759190 0.000000 
#    z 0.000000 0.000000 1.723140 
# 
# From -- ./inp_files/7496.got.cif
#   From: 2010.05.17/outbox.cif.g08.bks.cpg/sg40_4_cif.got.tgz:7496.got - 2010.06.03 18:35:42.
