data_PCOD9364272
_publ_section_title
;
Structure prediction by ZEFSAII (Michael W. Deem and Ramdas Pophale) SiO2 
 PCOD9364272
Probable space group: A M A 2
;
_chemical_formula_sum "Si O2"
_cell_formula_units_Z 56
_cell_length_a 28.864235
_cell_length_b 13.160304
_cell_length_c 6.604107
_cell_angle_alpha 90.000000
_cell_angle_beta 90.000000
_cell_angle_gamma 90.000000
_cell_volume 2508.650002
_symmetry_space_group_name_H-M "A M A 2"
_symmetry_group_IT_number 40
_symmetry_cell_setting 'orthorhombic'
loop_
_space_group_symop_operation_xyz
x,y,z
-x,-y,z
1/2-x,y,z
1/2+x,-y,z
x,1/2+y,1/2+z
-x,1/2-y,1/2+z
1/2-x,1/2+y,1/2+z
1/2+x,1/2-y,1/2+z
loop_
_atom_site_type_symbol
_atom_site_label
_atom_site_fract_x
_atom_site_fract_y
_atom_site_fract_z
Si Si1 0.304307 0.028002 0.697200
Si Si2 0.024463 0.392856 0.467570
Si Si3 0.941514 0.257322 0.633722
Si Si4 0.698142 0.350424 0.563618
Si Si5 0.605861 0.160740 0.239160
Si Si6 0.800497 0.133927 0.392060
Si Si7 0.129906 0.163062 0.424281
O O1 0.250000 0.064773 0.667506
O O2 0.344844 0.079551 0.564217
O O3 0.302809 0.913340 0.617251
O O4 0.315767 0.053270 0.928395
O O5 0.045970 0.341518 0.267295
O O6 0.064129 0.401644 0.638981
O O7 0.000000 0.500000 0.427953
O O8 0.986822 0.311686 0.546905
O O9 0.910755 0.217527 0.444766
O O10 0.916367 0.338232 0.784421
O O11 0.750000 0.366368 0.637803
O O12 0.697885 0.255115 0.409926
O O13 0.667455 0.320591 0.750631
O O14 0.653067 0.100121 0.281396
O O15 0.619329 0.245168 0.074853
O O16 0.750000 0.104304 0.306391
#
# Coordination Sequence:
#
# PCOD9364272 Si02
#       7
#     8   8   8   8   8   8   8
#     4  10  21  38  59  90 131 176 227 275 329 404
#     4  11  26  46  72 100 135 182 230 286 361 418
#     4  11  23  46  65  97 137 167 228 294 340 424
#     4  10  20  39  61  86 129 178 222 272 335 397
#     4  11  23  45  69  98 136 178 228 290 352 421
#     4  10  21  40  62  92 135 178 223 278 334 408
#     4  11  21  38  65  94 127 170 216 278 346 401
#
# _framework density 22.322762999999998
#
# number of rings (size 3 to 8) (size 9 to 14) (size 15 to 20)
#    0.000    1.429    4.286    0.429    2.000    1.143 
#    7.714    0.000    0.000    0.000    0.000    0.000 
#    0.000    0.000    0.000    0.000    0.000    0.000 
#
# Total GULP energy -156201.929762 kJ/mol
# GULP energy per Si atom -5578.640349 kJ/mol
# Density = 2.227196 g / cm^3
# Si number density = 22.322763 Si / 1000 Ang^3
#
#
#
# Elastic Constant Matrix: (Units=GPa)
#
#
# Indices 1 2 3 4 5 6 
#
# 1 129.3856 21.1765 65.7886 0.0000 0.0000 0.0000
# 2 21.1765 54.7762 24.1607 0.0000 0.0000 0.0000
# 3 65.7886 24.1607 114.0857 0.0000 0.0000 0.0000
# 4 0.0000 0.0000 0.0000 19.6489 0.0000 0.0000
# 5 0.0000 0.0000 0.0000 0.0000 23.9970 0.0000
# 6 0.0000 0.0000 0.0000 0.0000 0.0000 11.5401
#
#
#
# Elastic Compliance Matrix: (Units=1/GPa)
#
#
# Indices 1 2 3 4 5 6 
#
# 1 0.011063 -0.001614 -0.006038 0.000000 0.000000 0.000000
# 2 -0.001614 0.020373 -0.003384 0.000000 0.000000 0.000000
# 3 -0.006038 -0.003384 0.012964 0.000000 0.000000 0.000000
# 4 0.000000 0.000000 0.000000 0.050893 0.000000 0.000000
# 5 0.000000 0.000000 0.000000 0.000000 0.041672 0.000000
# 6 0.000000 0.000000 0.000000 0.000000 0.000000 0.086654
#
#
# Mechanical properties :
#
#
# Convention : Reuss Voigt Hill
#
# Bulk Modulus (GPa) = 44.78602 57.83322 51.30962
# Shear Modulus (GPa) = 19.75250 23.51199 21.63224
#
# Velocity S-wave (km/s) = 2.97789 3.24894 3.11636
# Velocity P-wave (km/s) = 5.65068 6.32757 5.99868
#
# Compressibility (1/GPa) = 0.02232840
#
# Stress axis : x y z
#
# Youngs Moduli (GPa) = 90.39132 49.08570 77.13835
#
# Poissons Ratio (x) = 0.07921 0.46575
# Poissons Ratio (y) = 0.14587 0.26102
# Poissons Ratio (z) = 0.54577 0.16610
#
# Static dielectric constant tensor:
#      x y z
#    x 1.890070 0.000000 0.000000 
#    y 0.000000 1.815820 0.000000 
#    z 0.000000 0.000000 1.813700 
# 
# From -- ./inp_files/3397.got.cif
#   From: 2010.05.17/outbox.cif.g08.bks.cpg/sg40_2_cif.got.tgz:3397.got - 2010.06.03 18:35:42.
