data_PCOD9364232
_publ_section_title
;
Structure prediction by ZEFSAII (Michael W. Deem and Ramdas Pophale) SiO2 
 PCOD9364232
Probable space group: A M A 2
;
_chemical_formula_sum "Si O2"
_cell_formula_units_Z 48
_cell_length_a 15.646319
_cell_length_b 7.980969
_cell_length_c 18.484275
_cell_angle_alpha 90.000000
_cell_angle_beta 90.000000
_cell_angle_gamma 90.000000
_cell_volume 2308.182933
_symmetry_space_group_name_H-M "A M A 2"
_symmetry_group_IT_number 40
_symmetry_cell_setting 'orthorhombic'
loop_
_space_group_symop_operation_xyz
x,y,z
-x,-y,z
1/2-x,y,z
1/2+x,-y,z
x,1/2+y,1/2+z
-x,1/2-y,1/2+z
1/2-x,1/2+y,1/2+z
1/2+x,1/2-y,1/2+z
loop_
_atom_site_type_symbol
_atom_site_label
_atom_site_fract_x
_atom_site_fract_y
_atom_site_fract_z
Si Si1 0.153961 0.029839 0.721150
Si Si2 0.378472 0.364616 0.640507
Si Si3 0.652785 0.336652 0.372312
Si Si4 0.656499 0.159418 0.971106
Si Si5 0.027141 0.815049 0.473486
Si Si6 0.923278 0.276037 0.632842
O O1 0.250000 0.961537 0.731422
O O2 0.160848 0.211582 0.684012
O O3 0.117946 0.072814 0.800371
O O4 0.104265 0.894759 0.672355
O O5 0.349631 0.348994 0.557624
O O6 0.478752 0.321669 0.648503
O O7 0.368559 0.561841 0.657881
O O8 0.750000 0.277537 0.357620
O O9 0.657664 0.479896 0.433092
O O10 0.591230 0.197694 0.406088
O O11 0.750000 0.239819 0.952775
O O12 0.563408 0.232795 0.951664
O O13 0.073477 0.741227 0.545240
O O14 0.000000 0.000000 0.495142
#
# Coordination Sequence:
#
# PCOD9364232 Si02
#       6
#     8   8   8   8   8   8
#     4  11  24  41  62  93 131 168 212 269 330 390
#     4  10  20  38  64  91 123 164 213 266 316 385
#     4  10  23  43  63  89 130 173 214 266 325 388
#     4  10  20  38  64  90 121 166 212 261 323 387
#     4  11  22  39  65  95 127 166 216 269 323 387
#     4  10  21  39  64  94 123 164 217 263 318 389
#
# _framework density 20.795577000000002
#
# number of rings (size 3 to 8) (size 9 to 14) (size 15 to 20)
#    0.000    1.667    1.667    3.500    0.000    5.333 
#    6.000    0.000    0.000    0.000    0.000    0.000 
#    0.000    0.000    0.000    0.000    0.000    0.000 
#
# Total GULP energy -133698.428465 kJ/mol
# GULP energy per Si atom -5570.767853 kJ/mol
# Density = 2.074825 g / cm^3
# Si number density = 20.795577 Si / 1000 Ang^3
#
#
#
# Elastic Constant Matrix: (Units=GPa)
#
#
# Indices 1 2 3 4 5 6 
#
# 1 64.8197 30.2237 34.7579 0.0000 0.0000 0.0000
# 2 30.2237 99.8950 34.2874 0.0000 0.0000 0.0000
# 3 34.7579 34.2874 86.2854 0.0000 0.0000 0.0000
# 4 0.0000 0.0000 0.0000 27.8603 0.0000 0.0000
# 5 0.0000 0.0000 0.0000 0.0000 9.5988 0.0000
# 6 0.0000 0.0000 0.0000 0.0000 0.0000 21.6231
#
#
#
# Elastic Compliance Matrix: (Units=1/GPa)
#
#
# Indices 1 2 3 4 5 6 
#
# 1 0.020966 -0.003989 -0.006861 0.000000 0.000000 0.000000
# 2 -0.003989 0.012350 -0.003301 0.000000 0.000000 0.000000
# 3 -0.006861 -0.003301 0.015665 0.000000 0.000000 0.000000
# 4 0.000000 0.000000 0.000000 0.035893 0.000000 0.000000
# 5 0.000000 0.000000 0.000000 0.000000 0.104179 0.000000
# 6 0.000000 0.000000 0.000000 0.000000 0.000000 0.046247
#
#
# Mechanical properties :
#
#
# Convention : Reuss Voigt Hill
#
# Bulk Modulus (GPa) = 48.35426 49.94867 49.15146
# Shear Modulus (GPa) = 18.48465 21.93186 20.20825
#
# Velocity S-wave (km/s) = 2.98463 3.25105 3.12068
# Velocity P-wave (km/s) = 5.93128 6.17766 6.05572
#
# Compressibility (1/GPa) = 0.02068070
#
# Stress axis : x y z
#
# Youngs Moduli (GPa) = 47.69626 80.96989 63.83736
#
# Poissons Ratio (x) = 0.32295 0.43797
# Poissons Ratio (y) = 0.19024 0.21073
# Poissons Ratio (z) = 0.32723 0.26728
#
# Static dielectric constant tensor:
#      x y z
#    x 1.826320 0.000000 0.000000 
#    y 0.000000 1.801250 0.000000 
#    z 0.000000 0.000000 1.720600 
# 
# From -- ./inp_files/20576.got.cif
#   From: 2010.05.17/outbox.cif.g08.bks.cpg/sg40_11_cif.got.tgz:20576.got - 2010.06.03 18:35:42.
