data_PCOD9364724
_publ_section_title
;
Structure prediction by ZEFSAII (Michael W. Deem and Ramdas Pophale) SiO2 
 PCOD9364724
Probable space group: A M A 2
;
_chemical_formula_sum "Si O2"
_cell_formula_units_Z 48
_cell_length_a 14.317024
_cell_length_b 15.691559
_cell_length_c 11.138374
_cell_angle_alpha 90.000000
_cell_angle_beta 90.000000
_cell_angle_gamma 90.000000
_cell_volume 2502.307303
_symmetry_space_group_name_H-M "A M A 2"
_symmetry_group_IT_number 40
_symmetry_cell_setting 'orthorhombic'
loop_
_space_group_symop_operation_xyz
x,y,z
-x,-y,z
1/2-x,y,z
1/2+x,-y,z
x,1/2+y,1/2+z
-x,1/2-y,1/2+z
1/2-x,1/2+y,1/2+z
1/2+x,1/2-y,1/2+z
loop_
_atom_site_type_symbol
_atom_site_label
_atom_site_fract_x
_atom_site_fract_y
_atom_site_fract_z
Si Si1 0.250000 0.670952 0.070691
Si Si2 0.250000 0.666206 0.469203
Si Si3 0.114842 0.431429 0.658192
Si Si4 0.750000 0.193502 0.282676
Si Si5 0.250000 0.528138 0.255212
Si Si6 0.409057 0.938599 0.889522
Si Si7 0.143214 0.254941 0.367525
Si Si8 0.400929 0.119616 0.165679
O O1 0.250000 0.732816 0.183581
O O2 0.250000 0.576697 0.127212
O O3 0.161398 0.699848 0.988814
O O4 0.250000 0.760300 0.410515
O O5 0.250000 0.599746 0.360003
O O6 0.340384 0.648232 0.551461
O O7 0.163518 0.365657 0.746194
O O8 0.144254 0.440079 0.518447
O O9 0.131220 0.525957 0.708547
O O10 0.009004 0.399467 0.641804
O O11 0.342230 0.473428 0.284455
O O12 0.423176 0.837078 0.872968
O O13 0.500000 0.000000 0.895955
O O14 0.250000 0.286327 0.341403
O O15 0.112348 0.190485 0.265584
#
# Coordination Sequence:
#
# PCOD9364724 Si02
#       8
#     4   4   8   4   4   8   8   8
#     4   9  20  37  60  87 120 169 196 248 319 357
#     4  11  20  37  62 101 118 159 204 268 301 363
#     4  11  21  39  61  95 120 164 212 256 303 374
#     4  11  22  36  62  94 130 156 205 260 311 361
#     4  11  20  36  66  92 124 156 211 252 303 375
#     4  12  21  39  64  92 121 163 208 258 301 367
#     4  10  21  40  62  86 124 167 205 250 313 373
#     4  11  22  38  65  91 124 164 211 252 313 364
#
# _framework density 19.182295
#
# number of rings (size 3 to 8) (size 9 to 14) (size 15 to 20)
#    0.500    0.667    6.667    1.000    0.000    4.000 
#    0.000    3.333    3.667    0.000    0.000    0.000 
#    0.000    0.000    0.000    0.000    0.000    0.000 
#
# Total GULP energy -133683.885015 kJ/mol
# GULP energy per Si atom -5570.161876 kJ/mol
# Density = 1.913864 g / cm^3
# Si number density = 19.182295 Si / 1000 Ang^3
#
#
#
# Elastic Constant Matrix: (Units=GPa)
#
#
# Indices 1 2 3 4 5 6 
#
# 1 91.4731 28.8619 30.9818 0.0000 0.0000 0.0000
# 2 28.8619 121.5970 68.4329 0.0000 0.0000 0.0000
# 3 30.9818 68.4329 82.2117 0.0000 0.0000 0.0000
# 4 0.0000 0.0000 0.0000 45.4812 0.0000 0.0000
# 5 0.0000 0.0000 0.0000 0.0000 19.0988 0.0000
# 6 0.0000 0.0000 0.0000 0.0000 0.0000 29.5150
#
#
#
# Elastic Compliance Matrix: (Units=1/GPa)
#
#
# Indices 1 2 3 4 5 6 
#
# 1 0.012555 -0.000597 -0.004234 0.000000 0.000000 0.000000
# 2 -0.000597 0.015500 -0.012677 0.000000 0.000000 0.000000
# 3 -0.004234 -0.012677 0.024312 0.000000 0.000000 0.000000
# 4 0.000000 0.000000 0.000000 0.021987 0.000000 0.000000
# 5 0.000000 0.000000 0.000000 0.000000 0.052359 0.000000
# 6 0.000000 0.000000 0.000000 0.000000 0.000000 0.033881
#
#
# Mechanical properties :
#
#
# Convention : Reuss Voigt Hill
#
# Bulk Modulus (GPa) = 57.63827 61.31499 59.47663
# Shear Modulus (GPa) = 24.82681 29.95268 27.38974
#
# Velocity S-wave (km/s) = 3.60148 3.95584 3.78281
# Velocity P-wave (km/s) = 6.88528 7.27314 7.08187
#
# Compressibility (1/GPa) = 0.01734958
#
# Stress axis : x y z
#
# Youngs Moduli (GPa) = 79.65138 64.51528 41.13174
#
# Poissons Ratio (x) = 0.03851 0.17417
# Poissons Ratio (y) = 0.04754 0.52144
# Poissons Ratio (z) = 0.33728 0.81789
#
# Static dielectric constant tensor:
#      x y z
#    x 1.729000 0.000000 0.000000 
#    y 0.000000 1.708530 0.000000 
#    z 0.000000 0.000000 1.655700 
# 
# From -- ./inp_files/12198.got.cif
#   From: 2010.05.17/outbox.cif.g08.bks.cpg/sg40_7_cif.got.tgz:12198.got - 2010.06.03 18:35:42.
