data_PCOD9364905
_publ_section_title
;
Structure prediction by ZEFSAII (Michael W. Deem and Ramdas Pophale) SiO2 
 PCOD9364905
Probable space group: A M A 2
;
_chemical_formula_sum "Si O2"
_cell_formula_units_Z 36
_cell_length_a 9.829171
_cell_length_b 19.760671
_cell_length_c 9.714703
_cell_angle_alpha 90.000000
_cell_angle_beta 90.000000
_cell_angle_gamma 90.000000
_cell_volume 1886.896618
_symmetry_space_group_name_H-M "A M A 2"
_symmetry_group_IT_number 40
_symmetry_cell_setting 'orthorhombic'
loop_
_space_group_symop_operation_xyz
x,y,z
-x,-y,z
1/2-x,y,z
1/2+x,-y,z
x,1/2+y,1/2+z
-x,1/2-y,1/2+z
1/2-x,1/2+y,1/2+z
1/2+x,1/2-y,1/2+z
loop_
_atom_site_type_symbol
_atom_site_label
_atom_site_fract_x
_atom_site_fract_y
_atom_site_fract_z
Si Si1 0.750000 0.278520 0.388590
Si Si2 0.250000 0.662913 0.682862
Si Si3 0.750000 0.299117 0.082193
Si Si4 0.452725 0.334698 0.984402
Si Si5 0.750000 0.178260 0.728672
Si Si6 0.522263 0.579598 0.733894
Si Si7 0.250000 0.361132 0.540193
O O1 0.750000 0.327079 0.518725
O O2 0.618117 0.229789 0.408742
O O3 0.750000 0.315769 0.244197
O O4 0.250000 0.739566 0.743600
O O5 0.382997 0.621310 0.720934
O O6 0.750000 0.217678 0.081354
O O7 0.611918 0.324445 0.011975
O O8 0.378298 0.339109 0.131609
O O9 0.422618 0.396873 0.883045
O O10 0.750000 0.141311 0.874662
O O11 0.500000 0.500000 0.727876
O O12 0.620995 0.603950 0.611953
#
# Coordination Sequence:
#
# PCOD9364905 Si02
#       7
#     4   4   4   8   4   8   4
#     4  10  22  38  60  94 130 148 200 266 318 366
#     4  10  23  38  62  97 122 154 201 265 307 355
#     4  12  22  34  69  93 126 158 196 264 320 360
#     4  10  22  40  59  96 121 164 204 247 317 363
#     4  10  23  40  66  93 132 148 197 276 317 359
#     4  12  24  42  64  87 124 170 212 241 292 383
#     4  12  22  38  65  93 120 166 202 247 324 356
#
# _framework density 19.078946999999999
#
# number of rings (size 3 to 8) (size 9 to 14) (size 15 to 20)
#    0.000    1.333    2.222    6.000    6.222    0.000 
#    0.000    1.111    4.889    0.000    0.000    0.000 
#    0.000    0.000    0.000    0.000    0.000    0.000 
#
# Total GULP energy -100586.985611 kJ/mol
# GULP energy per Si atom -5588.165867 kJ/mol
# Density = 1.903552 g / cm^3
# Si number density = 19.078947 Si / 1000 Ang^3
#
#
#
# Elastic Constant Matrix: (Units=GPa)
#
#
# Indices 1 2 3 4 5 6 
#
# 1 158.9391 41.5656 66.1602 0.0000 0.0000 0.0000
# 2 41.5656 112.4783 71.3853 0.0000 0.0000 0.0000
# 3 66.1602 71.3853 162.6212 0.0000 0.0000 0.0000
# 4 0.0000 0.0000 0.0000 21.2177 0.0000 0.0000
# 5 0.0000 0.0000 0.0000 0.0000 14.7087 0.0000
# 6 0.0000 0.0000 0.0000 0.0000 0.0000 18.9363
#
#
#
# Elastic Compliance Matrix: (Units=1/GPa)
#
#
# Indices 1 2 3 4 5 6 
#
# 1 0.007687 -0.001186 -0.002607 0.000000 0.000000 0.000000
# 2 -0.001186 0.012507 -0.005008 0.000000 0.000000 0.000000
# 3 -0.002607 -0.005008 0.009408 0.000000 0.000000 0.000000
# 4 0.000000 0.000000 0.000000 0.047130 0.000000 0.000000
# 5 0.000000 0.000000 0.000000 0.000000 0.067987 0.000000
# 6 0.000000 0.000000 0.000000 0.000000 0.000000 0.052809
#
#
# Mechanical properties :
#
#
# Convention : Reuss Voigt Hill
#
# Bulk Modulus (GPa) = 83.32668 88.02897 85.67783
# Shear Modulus (GPa) = 22.81759 27.96772 25.39265
#
# Velocity S-wave (km/s) = 3.46201 3.83285 3.65214
# Velocity P-wave (km/s) = 7.72982 8.11339 7.92393
#
# Compressibility (1/GPa) = 0.01200096
#
# Stress axis : x y z
#
# Youngs Moduli (GPa) = 130.08994 79.95450 106.29429
#
# Poissons Ratio (x) = 0.09486 0.27706
# Poissons Ratio (y) = 0.15434 0.53227
# Poissons Ratio (z) = 0.33909 0.40038
#
# Static dielectric constant tensor:
#      x y z
#    x 1.697940 0.000000 0.000000 
#    y 0.000000 1.613300 0.000000 
#    z 0.000000 0.000000 1.693330 
# 
# From -- ./inp_files/4156.got.cif
#   From: 2010.05.17/outbox.cif.g08.bks.cpg/sg40_3_cif.got.tgz:4156.got - 2010.06.03 18:35:42.
