data_PCOD9364639
_publ_section_title
;
Structure prediction by ZEFSAII (Michael W. Deem and Ramdas Pophale) SiO2 
 PCOD9364639
Probable space group: A M A 2
;
_chemical_formula_sum "Si O2"
_cell_formula_units_Z 56
_cell_length_a 19.825207
_cell_length_b 5.507678
_cell_length_c 23.944778
_cell_angle_alpha 90.000000
_cell_angle_beta 90.000000
_cell_angle_gamma 90.000000
_cell_volume 2614.550817
_symmetry_space_group_name_H-M "A M A 2"
_symmetry_group_IT_number 40
_symmetry_cell_setting 'orthorhombic'
loop_
_space_group_symop_operation_xyz
x,y,z
-x,-y,z
1/2-x,y,z
1/2+x,-y,z
x,1/2+y,1/2+z
-x,1/2-y,1/2+z
1/2-x,1/2+y,1/2+z
1/2+x,1/2-y,1/2+z
loop_
_atom_site_type_symbol
_atom_site_label
_atom_site_fract_x
_atom_site_fract_y
_atom_site_fract_z
Si Si1 0.671237 0.715124 0.747570
Si Si2 0.076623 0.965066 0.812674
Si Si3 0.583539 0.262201 0.922081
Si Si4 0.172518 0.157387 0.620079
Si Si5 0.599392 0.833561 0.091585
Si Si6 0.570280 0.261325 0.467110
Si Si7 0.437530 0.159271 0.212006
O O1 0.750000 0.678277 0.760123
O O2 0.668473 0.860755 0.688001
O O3 0.631580 0.475877 0.727779
O O4 0.631658 0.826618 0.801185
O O5 0.099231 0.757616 0.856145
O O6 0.064713 0.891940 0.749255
O O7 0.000000 0.000000 0.833804
O O8 0.607034 0.511557 0.950154
O O9 0.503540 0.254894 0.938558
O O10 0.607689 0.002717 0.945648
O O11 0.250000 0.206319 0.605922
O O12 0.130473 0.394172 0.598687
O O13 0.150257 0.896094 0.596217
O O14 0.562361 0.795915 0.033156
O O15 0.554339 0.799179 0.146719
O O16 0.500000 0.000000 0.232625
#
# Coordination Sequence:
#
# PCOD9364639 Si02
#       7
#     8   8   8   8   8   8   8
#     4  10  23  41  62  96 139 178 217 266 340 417
#     4  12  22  40  67  95 132 173 225 281 333 400
#     4  10  23  38  61  89 124 171 216 264 331 390
#     4  10  21  40  63  93 129 173 217 264 332 412
#     4  11  22  39  62  96 131 166 216 273 338 397
#     4  10  21  39  58  90 122 169 210 266 325 398
#     4  11  24  36  63 101 136 172 212 285 344 401
#
# _framework density 21.418592
#
# number of rings (size 3 to 8) (size 9 to 14) (size 15 to 20)
#    0.000    1.429    4.286    1.286    6.000    1.143 
#    5.143    0.000    0.000    5.143    0.000    0.000 
#    0.000    0.000    0.000    0.000    0.000    0.000 
#
# Total GULP energy -155898.727980 kJ/mol
# GULP energy per Si atom -5567.811714 kJ/mol
# Density = 2.136984 g / cm^3
# Si number density = 21.418592 Si / 1000 Ang^3
#
#
#
# Elastic Constant Matrix: (Units=GPa)
#
#
# Indices 1 2 3 4 5 6 
#
# 1 61.2389 20.6674 31.8969 0.0000 0.0000 0.0000
# 2 20.6674 124.2202 30.0935 0.0000 0.0000 0.0000
# 3 31.8969 30.0935 110.2513 0.0000 0.0000 0.0000
# 4 0.0000 0.0000 0.0000 43.3286 0.0000 0.0000
# 5 0.0000 0.0000 0.0000 0.0000 -0.3260 0.0000
# 6 0.0000 0.0000 0.0000 0.0000 0.0000 19.5788
#
#
#
# Elastic Compliance Matrix: (Units=1/GPa)
#
#
# Indices 1 2 3 4 5 6 
#
# 1 0.019694 -0.002031 -0.005143 0.000000 0.000000 0.000000
# 2 -0.002031 0.008830 -0.001823 0.000000 0.000000 0.000000
# 3 -0.005143 -0.001823 0.011056 0.000000 0.000000 0.000000
# 4 0.000000 0.000000 0.000000 0.023079 0.000000 0.000000
# 5 0.000000 0.000000 0.000000 0.000000 -3.067334 0.000000
# 6 0.000000 0.000000 0.000000 0.000000 0.000000 0.051076
#
#
# Mechanical properties :
#
#
# Convention : Reuss Voigt Hill
#
# Bulk Modulus (GPa) = 46.32637 51.22513 48.77575
# Shear Modulus (GPa) = -1.70741 26.71978 12.50618
#
# Velocity S-wave (km/s) = -0.89381 3.53583 2.41901
# Velocity P-wave (km/s) = 4.53991 6.37476 5.53391
#
# Compressibility (1/GPa) = 0.02158598
#
# Stress axis : x y z
#
# Youngs Moduli (GPa) = 50.77752 113.25541 90.45100
#
# Poissons Ratio (x) = 0.22997 0.46522
# Poissons Ratio (y) = 0.10311 0.16486
# Poissons Ratio (z) = 0.26117 0.20642
#
# Static dielectric constant tensor:
#      x y z
#    x 1.705770 0.000000 0.000000 
#    y 0.000000 1.820600 0.000000 
#    z 0.000000 0.000000 1.797150 
# 
# From -- ./inp_files/24963.got.cif
#   From: 2010.05.17/outbox.cif.g08.bks.cpg/sg40_13_cif.got.tgz:24963.got - 2010.06.03 18:35:42.
