data_PCOD9364835
_publ_section_title
;
Structure prediction by ZEFSAII (Michael W. Deem and Ramdas Pophale) SiO2 
 PCOD9364835
Probable space group: A M A 2
;
_chemical_formula_sum "Si O2"
_cell_formula_units_Z 64
_cell_length_a 23.851584
_cell_length_b 10.706706
_cell_length_c 11.826990
_cell_angle_alpha 90.000000
_cell_angle_beta 90.000000
_cell_angle_gamma 90.000000
_cell_volume 3020.280878
_symmetry_space_group_name_H-M "A M A 2"
_symmetry_group_IT_number 40
_symmetry_cell_setting 'orthorhombic'
loop_
_space_group_symop_operation_xyz
x,y,z
-x,-y,z
1/2-x,y,z
1/2+x,-y,z
x,1/2+y,1/2+z
-x,1/2-y,1/2+z
1/2-x,1/2+y,1/2+z
1/2+x,1/2-y,1/2+z
loop_
_atom_site_type_symbol
_atom_site_label
_atom_site_fract_x
_atom_site_fract_y
_atom_site_fract_z
Si Si1 0.313495 0.463008 0.446780
Si Si2 0.942132 0.572336 0.784547
Si Si3 0.939356 0.068659 0.894501
Si Si4 0.584511 0.976174 0.525487
Si Si5 0.662904 0.424164 0.687228
Si Si6 0.526335 0.735178 0.601592
Si Si7 0.410132 0.296193 0.175891
Si Si8 0.690986 0.337446 0.932048
O O1 0.250000 0.501914 0.402126
O O2 0.377298 0.500019 0.401562
O O3 0.312895 0.505998 0.578429
O O4 0.314503 0.312680 0.430435
O O5 0.930925 0.560549 0.917331
O O6 0.892448 0.499053 0.723799
O O7 0.947807 0.706002 0.724818
O O8 0.000000 0.500000 0.762771
O O9 0.929425 0.181592 0.804757
O O10 0.949629 0.134015 0.015236
O O11 0.000000 0.000000 0.867801
O O12 0.538869 0.873677 0.558796
O O13 0.638689 0.896158 0.494371
O O14 0.595849 0.066037 0.628743
O O15 0.644577 0.284094 0.655531
O O16 0.692375 0.398970 0.807241
O O17 0.459979 0.725787 0.612127
O O18 0.750000 0.366659 0.989980
#
# Coordination Sequence:
#
# PCOD9364835 Si02
#       8
#     8   8   8   8   8   8   8   8
#     4  11  22  41  69  99 127 170 228 286 340 404
#     4  11  20  36  61  88 124 172 216 269 325 396
#     4  12  23  42  64  98 136 174 226 281 340 412
#     4  11  24  41  57  93 133 168 223 263 337 408
#     4  11  20  39  62  96 124 164 226 273 327 401
#     4  12  22  39  61  93 131 171 221 272 335 396
#     4  12  25  39  61  96 138 178 214 274 343 411
#     4  10  21  42  68  90 123 169 224 281 331 398
#
# _framework density 21.190083000000001
#
# number of rings (size 3 to 8) (size 9 to 14) (size 15 to 20)
#    0.000    0.750    5.000    4.125    1.750    0.000 
#    2.250    1.875    0.000    0.000    0.000    0.000 
#    0.000    0.000    0.000    0.000    0.000    0.000 
#
# Total GULP energy -178410.337539 kJ/mol
# GULP energy per Si atom -5575.323048 kJ/mol
# Density = 2.114185 g / cm^3
# Si number density = 21.190083 Si / 1000 Ang^3
#
#
#
# Elastic Constant Matrix: (Units=GPa)
#
#
# Indices 1 2 3 4 5 6 
#
# 1 127.8062 12.6732 14.9703 0.0000 0.0000 0.0000
# 2 12.6732 35.8267 17.6723 0.0000 0.0000 0.0000
# 3 14.9703 17.6723 66.1913 0.0000 0.0000 0.0000
# 4 0.0000 0.0000 0.0000 37.5616 0.0000 0.0000
# 5 0.0000 0.0000 0.0000 0.0000 7.9671 0.0000
# 6 0.0000 0.0000 0.0000 0.0000 0.0000 19.2770
#
#
#
# Elastic Compliance Matrix: (Units=1/GPa)
#
#
# Indices 1 2 3 4 5 6 
#
# 1 0.008197 -0.002286 -0.001243 0.000000 0.000000 0.000000
# 2 -0.002286 0.032783 -0.008236 0.000000 0.000000 0.000000
# 3 -0.001243 -0.008236 0.017588 0.000000 0.000000 0.000000
# 4 0.000000 0.000000 0.000000 0.026623 0.000000 0.000000
# 5 0.000000 0.000000 0.000000 0.000000 0.125516 0.000000
# 6 0.000000 0.000000 0.000000 0.000000 0.000000 0.051875
#
#
# Mechanical properties :
#
#
# Convention : Reuss Voigt Hill
#
# Bulk Modulus (GPa) = 28.54108 35.60620 32.07364
# Shear Modulus (GPa) = 16.79025 25.26169 21.02597
#
# Velocity S-wave (km/s) = 2.81795 3.45649 3.15343
# Velocity P-wave (km/s) = 4.90776 5.72447 5.33177
#
# Compressibility (1/GPa) = 0.03503722
#
# Stress axis : x y z
#
# Youngs Moduli (GPa) = 122.00051 30.50333 56.85757
#
# Poissons Ratio (x) = 0.06973 0.07070
# Poissons Ratio (y) = 0.27891 0.46826
# Poissons Ratio (z) = 0.15170 0.25122
#
# Static dielectric constant tensor:
#      x y z
#    x 1.829040 0.000000 0.000000 
#    y 0.000000 1.752260 0.000000 
#    z 0.000000 0.000000 1.797420 
# 
# From -- ./inp_files/14057.got.cif
#   From: 2010.05.17/outbox.cif.g08.bks.cpg/sg40_8_cif.got.tgz:14057.got - 2010.06.03 18:35:42.
