data_PCOD9364187
_publ_section_title
;
Structure prediction by ZEFSAII (Michael W. Deem and Ramdas Pophale) SiO2 
 PCOD9364187
Probable space group: A M A 2
;
_chemical_formula_sum "Si O2"
_cell_formula_units_Z 56
_cell_length_a 23.555334
_cell_length_b 8.158335
_cell_length_c 13.228298
_cell_angle_alpha 90.000000
_cell_angle_beta 90.000000
_cell_angle_gamma 90.000000
_cell_volume 2542.112529
_symmetry_space_group_name_H-M "A M A 2"
_symmetry_group_IT_number 40
_symmetry_cell_setting 'orthorhombic'
loop_
_space_group_symop_operation_xyz
x,y,z
-x,-y,z
1/2-x,y,z
1/2+x,-y,z
x,1/2+y,1/2+z
-x,1/2-y,1/2+z
1/2-x,1/2+y,1/2+z
1/2+x,1/2-y,1/2+z
loop_
_atom_site_type_symbol
_atom_site_label
_atom_site_fract_x
_atom_site_fract_y
_atom_site_fract_z
Si Si1 0.811616 0.753689 0.896200
Si Si2 0.311057 0.611394 0.814174
Si Si3 0.082407 0.241110 0.210494
Si Si4 0.183258 0.309910 0.523262
Si Si5 0.024534 0.666916 0.302175
Si Si6 0.633623 0.392494 0.206659
Si Si7 0.907357 0.892414 0.006331
O O1 0.750000 0.792355 0.938568
O O2 0.810040 0.577113 0.845808
O O3 0.827630 0.881025 0.807244
O O4 0.860023 0.756504 0.979322
O O5 0.250000 0.653954 0.767226
O O6 0.363399 0.637709 0.742317
O O7 0.317993 0.718871 0.915286
O O8 0.109074 0.423952 0.197456
O O9 0.032130 0.226547 0.293613
O O10 0.060677 0.165339 0.105947
O O11 0.250000 0.360636 0.540287
O O12 0.165810 0.182595 0.611577
O O13 0.133388 0.448134 0.518385
O O14 0.078472 0.718813 0.235966
O O15 0.050381 0.614828 0.410404
O O16 0.000000 0.500000 0.254208
#
# Coordination Sequence:
#
# PCOD9364187 Si02
#       7
#     8   8   8   8   8   8   8
#     4  10  20  38  60  87 122 160 200 247 299 357
#     4  10  22  38  59  88 124 160 200 248 302 363
#     4  11  23  40  62  89 121 159 204 251 309 369
#     4  11  22  38  62  94 127 163 203 250 307 370
#     4   9  21  41  61  84 117 159 205 254 304 361
#     4  10  21  38  60  87 122 159 200 248 299 361
#     4  11  23  39  62  89 119 158 204 254 307 365
#
# _framework density 22.028924
#
# number of rings (size 3 to 8) (size 9 to 14) (size 15 to 20)
#    0.000    1.714    0.000    5.143    0.000    6.857 
#    0.000    7.143    0.000    1.714    0.000    0.000 
#    0.000    0.000    0.000    0.000    0.000    0.000 
#
# Total GULP energy -156149.462099 kJ/mol
# GULP energy per Si atom -5576.766504 kJ/mol
# Density = 2.197878 g / cm^3
# Si number density = 22.028924 Si / 1000 Ang^3
#
#
#
# Elastic Constant Matrix: (Units=GPa)
#
#
# Indices 1 2 3 4 5 6 
#
# 1 115.4825 20.4550 17.4828 0.0000 0.0000 0.0000
# 2 20.4550 64.6513 14.9934 0.0000 0.0000 0.0000
# 3 17.4828 14.9934 51.3963 0.0000 0.0000 0.0000
# 4 0.0000 0.0000 0.0000 31.2823 0.0000 0.0000
# 5 0.0000 0.0000 0.0000 0.0000 26.3100 0.0000
# 6 0.0000 0.0000 0.0000 0.0000 0.0000 43.9728
#
#
#
# Elastic Compliance Matrix: (Units=1/GPa)
#
#
# Indices 1 2 3 4 5 6 
#
# 1 0.009468 -0.002412 -0.002517 0.000000 0.000000 0.000000
# 2 -0.002412 0.017204 -0.004198 0.000000 0.000000 0.000000
# 3 -0.002517 -0.004198 0.021538 0.000000 0.000000 0.000000
# 4 0.000000 0.000000 0.000000 0.031967 0.000000 0.000000
# 5 0.000000 0.000000 0.000000 0.000000 0.038008 0.000000
# 6 0.000000 0.000000 0.000000 0.000000 0.000000 0.022741
#
#
# Mechanical properties :
#
#
# Convention : Reuss Voigt Hill
#
# Bulk Modulus (GPa) = 33.38318 37.48805 35.43562
# Shear Modulus (GPa) = 29.55688 32.21962 30.88825
#
# Velocity S-wave (km/s) = 3.66694 3.82855 3.74862
# Velocity P-wave (km/s) = 5.75463 6.04966 5.90398
#
# Compressibility (1/GPa) = 0.02995520
#
# Stress axis : x y z
#
# Youngs Moduli (GPa) = 105.62418 58.12493 46.43044
#
# Poissons Ratio (x) = 0.14018 0.11686
# Poissons Ratio (y) = 0.25474 0.19494
# Poissons Ratio (z) = 0.26584 0.24404
#
# Static dielectric constant tensor:
#      x y z
#    x 1.900850 0.000000 0.000000 
#    y 0.000000 1.851370 0.000000 
#    z 0.000000 0.000000 1.796930 
# 
# From -- ./inp_files/18216.got.cif
#   From: 2010.05.17/outbox.cif.g08.bks.cpg/sg40_10_cif.got.tgz:18216.got - 2010.06.03 18:35:42.
