data_PCOD9364674
_publ_section_title
;
Structure prediction by ZEFSAII (Michael W. Deem and Ramdas Pophale) SiO2 
 PCOD9364674
Probable space group: A M A 2
;
_chemical_formula_sum "Si O2"
_cell_formula_units_Z 56
_cell_length_a 14.630539
_cell_length_b 16.362069
_cell_length_c 10.598973
_cell_angle_alpha 90.000000
_cell_angle_beta 90.000000
_cell_angle_gamma 90.000000
_cell_volume 2537.244570
_symmetry_space_group_name_H-M "A M A 2"
_symmetry_group_IT_number 40
_symmetry_cell_setting 'orthorhombic'
loop_
_space_group_symop_operation_xyz
x,y,z
-x,-y,z
1/2-x,y,z
1/2+x,-y,z
x,1/2+y,1/2+z
-x,1/2-y,1/2+z
1/2-x,1/2+y,1/2+z
1/2+x,1/2-y,1/2+z
loop_
_atom_site_type_symbol
_atom_site_label
_atom_site_fract_x
_atom_site_fract_y
_atom_site_fract_z
Si Si1 0.495147 0.684180 0.548650
Si Si2 0.855163 0.792861 0.636005
Si Si3 0.146180 0.288914 0.898685
Si Si4 0.856392 0.546437 0.483191
Si Si5 0.852637 0.963284 0.727514
Si Si6 0.910783 0.442077 0.715719
Si Si7 0.104126 0.975342 0.462559
O O1 0.566130 0.759265 0.548396
O O2 0.414748 0.718037 0.460752
O O3 0.564638 0.611768 0.511627
O O4 0.445750 0.648169 0.675836
O O5 0.750000 0.802887 0.588480
O O6 0.851605 0.728020 0.749652
O O7 0.894379 0.877171 0.690789
O O8 0.250000 0.282390 0.946787
O O9 0.113465 0.381515 0.920825
O O10 0.750000 0.577093 0.475232
O O11 0.886688 0.509126 0.349468
O O12 0.858811 0.478947 0.594417
O O13 0.750000 0.939811 0.766385
O O14 0.850280 0.014027 0.598774
O O15 0.863436 0.462985 0.849993
O O16 0.000000 0.500000 0.725979
O O17 0.000000 0.000000 0.487392
#
# Coordination Sequence:
#
# PCOD9364674 Si02
#       7
#     8   8   8   8   8   8   8
#     4  11  22  38  63  94 124 160 212 264 312 366
#     4  10  21  39  63  91 125 166 209 255 313 381
#     4  11  24  41  61  89 129 171 206 249 315 385
#     4  10  21  39  64  93 125 164 212 263 313 370
#     4  10  22  39  59  88 123 159 204 253 307 371
#     4   9  20  37  60  89 119 155 206 258 306 367
#     4  11  22  39  62  88 119 159 207 258 309 366
#
# _framework density 22.071187999999999
#
# number of rings (size 3 to 8) (size 9 to 14) (size 15 to 20)
#    0.000    1.714    0.000    5.143    0.000    8.000 
#    0.000    0.000    0.000    2.571    0.000    0.000 
#    0.000    0.000    0.000    0.000    0.000    0.000 
#
# Total GULP energy -156094.444454 kJ/mol
# GULP energy per Si atom -5574.801588 kJ/mol
# Density = 2.202095 g / cm^3
# Si number density = 22.071188 Si / 1000 Ang^3
#
#
#
# Elastic Constant Matrix: (Units=GPa)
#
#
# Indices 1 2 3 4 5 6 
#
# 1 112.2137 12.7281 9.8625 0.0000 0.0000 0.0000
# 2 12.7281 52.7131 -2.7628 0.0000 0.0000 0.0000
# 3 9.8625 -2.7628 85.2971 0.0000 0.0000 0.0000
# 4 0.0000 0.0000 0.0000 29.3853 0.0000 0.0000
# 5 0.0000 0.0000 0.0000 0.0000 12.2342 0.0000
# 6 0.0000 0.0000 0.0000 0.0000 0.0000 18.7692
#
#
#
# Elastic Compliance Matrix: (Units=1/GPa)
#
#
# Indices 1 2 3 4 5 6 
#
# 1 0.009273 -0.002299 -0.001147 0.000000 0.000000 0.000000
# 2 -0.002299 0.019573 0.000900 0.000000 0.000000 0.000000
# 3 -0.001147 0.000900 0.011885 0.000000 0.000000 0.000000
# 4 0.000000 0.000000 0.000000 0.034031 0.000000 0.000000
# 5 0.000000 0.000000 0.000000 0.000000 0.081738 0.000000
# 6 0.000000 0.000000 0.000000 0.000000 0.000000 0.053279
#
#
# Mechanical properties :
#
#
# Convention : Reuss Voigt Hill
#
# Bulk Modulus (GPa) = 28.05882 32.20883 30.13382
# Shear Modulus (GPa) = 22.05064 27.43750 24.74407
#
# Velocity S-wave (km/s) = 3.16423 3.52964 3.35192
# Velocity P-wave (km/s) = 5.10787 5.58891 5.35380
#
# Compressibility (1/GPa) = 0.03563942
#
# Stress axis : x y z
#
# Youngs Moduli (GPa) = 107.83836 51.09098 84.13646
#
# Poissons Ratio (x) = 0.11747 0.09648
# Poissons Ratio (y) = 0.24794 -0.07571
# Poissons Ratio (z) = 0.12366 -0.04597
#
# Static dielectric constant tensor:
#      x y z
#    x 1.825910 0.000000 0.000000 
#    y 0.000000 1.847720 0.000000 
#    z 0.000000 0.000000 1.883470 
# 
# From -- ./inp_files/12244.got.cif
#   From: 2010.05.17/outbox.cif.g08.bks.cpg/sg40_7_cif.got.tgz:12244.got - 2010.06.03 18:35:42.
