data_PCOD9364713
_publ_section_title
;
Structure prediction by ZEFSAII (Michael W. Deem and Ramdas Pophale) SiO2 
 PCOD9364713
Probable space group: A M A 2
;
_chemical_formula_sum "Si O2"
_cell_formula_units_Z 56
_cell_length_a 22.675031
_cell_length_b 13.289788
_cell_length_c 8.053195
_cell_angle_alpha 90.000000
_cell_angle_beta 90.000000
_cell_angle_gamma 90.000000
_cell_volume 2426.800958
_symmetry_space_group_name_H-M "A M A 2"
_symmetry_group_IT_number 40
_symmetry_cell_setting 'orthorhombic'
loop_
_space_group_symop_operation_xyz
x,y,z
-x,-y,z
1/2-x,y,z
1/2+x,-y,z
x,1/2+y,1/2+z
-x,1/2-y,1/2+z
1/2-x,1/2+y,1/2+z
1/2+x,1/2-y,1/2+z
loop_
_atom_site_type_symbol
_atom_site_label
_atom_site_fract_x
_atom_site_fract_y
_atom_site_fract_z
Si Si1 0.680094 0.144331 0.894780
Si Si2 0.925158 0.809883 0.907718
Si Si3 0.683331 0.532355 0.719335
Si Si4 0.505224 0.351973 0.743569
Si Si5 0.432878 0.983639 0.775161
Si Si6 0.923270 0.502951 0.907323
Si Si7 0.317474 0.696016 0.612307
O O1 0.750000 0.108874 0.862327
O O2 0.677135 0.248802 0.791736
O O3 0.619477 0.087888 0.838424
O O4 0.674752 0.125490 0.093280
O O5 0.961848 0.839798 0.072132
O O6 0.865848 0.761953 0.984073
O O7 0.907068 0.904969 0.797997
O O8 0.970464 0.745450 0.800759
O O9 0.750000 0.531937 0.771198
O O10 0.644068 0.523621 0.880911
O O11 0.671605 0.424682 0.626682
O O12 0.553839 0.390416 0.876789
O O13 0.454222 0.436297 0.756862
O O14 0.442446 0.955760 0.583351
O O15 0.500000 0.000000 0.844793
O O16 0.250000 0.710630 0.556762
#
# Coordination Sequence:
#
# PCOD9364713 Si02
#       7
#     8   8   8   8   8   8   8
#     4  10  22  41  68  97 130 178 228 276 343 413
#     4  12  25  41  65  97 131 180 225 278 346 413
#     4  10  21  42  68  97 129 175 226 280 340 407
#     4  11  24  39  61  91 132 170 220 276 338 400
#     4  12  25  39  65  96 136 177 226 279 343 411
#     4  11  23  43  59  94 136 170 217 282 331 409
#     4  10  21  39  67  98 130 169 226 286 335 410
#
# _framework density 23.075647
#
# number of rings (size 3 to 8) (size 9 to 14) (size 15 to 20)
#    0.000    1.143    4.286    1.714    6.000    0.571 
#    2.571    0.714    0.000    0.000    0.000    0.000 
#    0.000    0.000    0.000    0.000    0.000    0.000 
#
# Total GULP energy -156011.430466 kJ/mol
# GULP energy per Si atom -5571.836802 kJ/mol
# Density = 2.302313 g / cm^3
# Si number density = 23.075647 Si / 1000 Ang^3
#
#
#
# Elastic Constant Matrix: (Units=GPa)
#
#
# Indices 1 2 3 4 5 6 
#
# 1 105.7182 -4.1914 33.5889 0.0000 0.0000 0.0000
# 2 -4.1914 43.6735 5.0302 0.0000 0.0000 0.0000
# 3 33.5889 5.0302 36.7714 0.0000 0.0000 0.0000
# 4 0.0000 0.0000 0.0000 28.7740 0.0000 0.0000
# 5 0.0000 0.0000 0.0000 0.0000 23.9320 0.0000
# 6 0.0000 0.0000 0.0000 0.0000 0.0000 25.2979
#
#
#
# Elastic Compliance Matrix: (Units=1/GPa)
#
#
# Indices 1 2 3 4 5 6 
#
# 1 0.013654 0.002791 -0.012854 0.000000 0.000000 0.000000
# 2 0.002791 0.023834 -0.005810 0.000000 0.000000 0.000000
# 3 -0.012854 -0.005810 0.039731 0.000000 0.000000 0.000000
# 4 0.000000 0.000000 0.000000 0.034754 0.000000 0.000000
# 5 0.000000 0.000000 0.000000 0.000000 0.041785 0.000000
# 6 0.000000 0.000000 0.000000 0.000000 0.000000 0.039529
#
#
# Mechanical properties :
#
#
# Convention : Reuss Voigt Hill
#
# Bulk Modulus (GPa) = 21.99079 28.33541 25.16310
# Shear Modulus (GPa) = 20.81689 25.71649 23.26669
#
# Velocity S-wave (km/s) = 3.00678 3.34195 3.17879
# Velocity P-wave (km/s) = 4.64810 5.21512 4.93976
#
# Compressibility (1/GPa) = 0.04547357
#
# Stress axis : x y z
#
# Youngs Moduli (GPa) = 73.24049 41.95659 25.16924
#
# Poissons Ratio (x) = -0.11709 0.32352
# Poissons Ratio (y) = -0.20440 0.14623
# Poissons Ratio (z) = 0.94141 0.24376
#
# Static dielectric constant tensor:
#      x y z
#    x 1.935220 0.000000 0.000000 
#    y 0.000000 1.969700 0.000000 
#    z 0.000000 0.000000 1.830000 
# 
# From -- ./inp_files/8339.got.cif
#   From: 2010.05.17/outbox.cif.g08.bks.cpg/sg40_5_cif.got.tgz:8339.got - 2010.06.03 18:35:42.
