data_PCOD9364902
_publ_section_title
;
Structure prediction by ZEFSAII (Michael W. Deem and Ramdas Pophale) SiO2 
 PCOD9364902
Probable space group: A M A 2
;
_chemical_formula_sum "Si O2"
_cell_formula_units_Z 36
_cell_length_a 7.743042
_cell_length_b 12.715089
_cell_length_c 15.712398
_cell_angle_alpha 90.000000
_cell_angle_beta 90.000000
_cell_angle_gamma 90.000000
_cell_volume 1546.940076
_symmetry_space_group_name_H-M "A M A 2"
_symmetry_group_IT_number 40
_symmetry_cell_setting 'orthorhombic'
loop_
_space_group_symop_operation_xyz
x,y,z
-x,-y,z
1/2-x,y,z
1/2+x,-y,z
x,1/2+y,1/2+z
-x,1/2-y,1/2+z
1/2-x,1/2+y,1/2+z
1/2+x,1/2-y,1/2+z
loop_
_atom_site_type_symbol
_atom_site_label
_atom_site_fract_x
_atom_site_fract_y
_atom_site_fract_z
Si Si1 0.954768 0.115923 0.465750
Si Si2 0.454358 0.660376 0.771645
Si Si3 0.544400 0.158058 0.008551
Si Si4 0.500000 0.000000 0.143412
Si Si5 0.956139 0.115307 0.814856
O O1 0.750000 0.124364 0.458441
O O2 0.032335 0.128670 0.370698
O O3 0.019664 0.217084 0.517664
O O4 0.000000 0.000000 0.498958
O O5 0.250000 0.650217 0.747681
O O6 0.565490 0.583758 0.713408
O O7 0.514661 0.781120 0.765157
O O8 0.750000 0.133978 0.017991
O O9 0.441113 0.087493 0.074996
O O10 0.485377 0.127889 0.913021
O O11 0.750000 0.124820 0.818057
O O12 0.000000 0.000000 0.782110
#
# Coordination Sequence:
#
# PCOD9364902 Si02
#       5
#     8   8   8   4   8
#     4  11  22  39  64  90 120 164 212 259 310 376
#     4  10  22  38  59  90 127 163 205 258 310 369
#     4  10  22  38  59  90 127 163 207 261 313 372
#     4  12  22  38  66  94 128 168 206 256 316 374
#     4   9  18  36  58  84 117 157 203 251 296 358
#
# _framework density 23.271749
#
# number of rings (size 3 to 8) (size 9 to 14) (size 15 to 20)
#    0.000    1.778    2.222    4.000    0.000    6.222 
#    0.000    1.111    0.000    2.667    0.000    0.000 
#    0.000    0.000    0.000    0.000    0.000    0.000 
#
# Total GULP energy -100334.654140 kJ/mol
# GULP energy per Si atom -5574.147452 kJ/mol
# Density = 2.321878 g / cm^3
# Si number density = 23.271749 Si / 1000 Ang^3
#
#
#
# Elastic Constant Matrix: (Units=GPa)
#
#
# Indices 1 2 3 4 5 6 
#
# 1 104.9001 20.8409 19.8902 0.0000 0.0000 0.0000
# 2 20.8409 262.5095 61.9668 0.0000 0.0000 0.0000
# 3 19.8902 61.9668 69.4769 0.0000 0.0000 0.0000
# 4 0.0000 0.0000 0.0000 53.7596 0.0000 0.0000
# 5 0.0000 0.0000 0.0000 0.0000 31.2227 0.0000
# 6 0.0000 0.0000 0.0000 0.0000 0.0000 39.7386
#
#
#
# Elastic Compliance Matrix: (Units=1/GPa)
#
#
# Indices 1 2 3 4 5 6 
#
# 1 0.010085 -0.000151 -0.002753 0.000000 0.000000 0.000000
# 2 -0.000151 0.004828 -0.004263 0.000000 0.000000 0.000000
# 3 -0.002753 -0.004263 0.018983 0.000000 0.000000 0.000000
# 4 0.000000 0.000000 0.000000 0.018601 0.000000 0.000000
# 5 0.000000 0.000000 0.000000 0.000000 0.032028 0.000000
# 6 0.000000 0.000000 0.000000 0.000000 0.000000 0.025164
#
#
# Mechanical properties :
#
#
# Convention : Reuss Voigt Hill
#
# Bulk Modulus (GPa) = 51.11565 71.36469 61.24017
# Shear Modulus (GPa) = 38.30180 47.22342 42.76261
#
# Velocity S-wave (km/s) = 4.06131 4.50957 4.29130
# Velocity P-wave (km/s) = 6.63360 7.60574 7.13625
#
# Compressibility (1/GPa) = 0.01956348
#
# Stress axis : x y z
#
# Youngs Moduli (GPa) = 99.15948 207.14397 52.67853
#
# Poissons Ratio (x) = 0.03126 0.14500
# Poissons Ratio (y) = 0.01496 0.22454
# Poissons Ratio (z) = 0.27294 0.88296
#
# Static dielectric constant tensor:
#      x y z
#    x 1.961460 0.000000 0.000000 
#    y 0.000000 1.907940 0.000000 
#    z 0.000000 0.000000 1.834850 
# 
# From -- ./inp_files/14751.got.cif
#   From: 2010.05.17/outbox.cif.g08.bks.cpg/sg40_8_cif.got.tgz:14751.got - 2010.06.03 18:35:42.
