data_PCOD9364886
_publ_section_title
;
Structure prediction by ZEFSAII (Michael W. Deem and Ramdas Pophale) SiO2 
 PCOD9364886
Probable space group: A M A 2
;
_chemical_formula_sum "Si O2"
_cell_formula_units_Z 28
_cell_length_a 10.773363
_cell_length_b 16.192654
_cell_length_c 7.521388
_cell_angle_alpha 90.000000
_cell_angle_beta 90.000000
_cell_angle_gamma 90.000000
_cell_volume 1312.101169
_symmetry_space_group_name_H-M "A M A 2"
_symmetry_group_IT_number 40
_symmetry_cell_setting 'orthorhombic'
loop_
_space_group_symop_operation_xyz
x,y,z
-x,-y,z
1/2-x,y,z
1/2+x,-y,z
x,1/2+y,1/2+z
-x,1/2-y,1/2+z
1/2-x,1/2+y,1/2+z
1/2+x,1/2-y,1/2+z
loop_
_atom_site_type_symbol
_atom_site_label
_atom_site_fract_x
_atom_site_fract_y
_atom_site_fract_z
Si Si1 0.387539 0.211122 0.904290
Si Si2 0.381609 0.030524 0.820098
Si Si3 0.893566 0.835983 0.315842
Si Si4 0.500000 0.000000 0.481712
O O1 0.250000 0.249615 0.873127
O O2 0.394658 0.128208 0.784909
O O3 0.506395 0.268497 0.881307
O O4 0.388422 0.176039 0.104007
O O5 0.250000 0.015038 0.906269
O O6 0.393436 0.982867 0.631686
O O7 0.500000 0.000000 0.928093
O O8 0.750000 0.826919 0.380396
O O9 0.950514 0.923922 0.369902
#
# Coordination Sequence:
#
# PCOD9364886 Si02
#       4
#     8   8   8   4
#     4  10  23  43  65  91 124 162 206 254 308 366
#     4   9  20  38  62  88 120 158 202 249 302 360
#     4  11  24  42  64  92 124 163 208 253 305 367
#     4  10  22  36  64  86 126 154 204 244 308 352
#
# _framework density 21.339818999999999
#
# number of rings (size 3 to 8) (size 9 to 14) (size 15 to 20)
#    0.857    1.143    0.000    2.571    2.000    6.857 
#    0.000    0.000    0.000    0.000    0.000    0.000 
#    0.000    0.000    0.000    0.000    0.000    0.000 
#
# Total GULP energy -77942.656806 kJ/mol
# GULP energy per Si atom -5567.332629 kJ/mol
# Density = 2.129125 g / cm^3
# Si number density = 21.339819 Si / 1000 Ang^3
#
#
#
# Elastic Constant Matrix: (Units=GPa)
#
#
# Indices 1 2 3 4 5 6 
#
# 1 243.1826 105.2702 29.8117 0.0000 0.0000 0.0000
# 2 105.2702 64.1504 17.5639 0.0000 0.0000 0.0000
# 3 29.8117 17.5639 60.2403 0.0000 0.0000 0.0000
# 4 0.0000 0.0000 0.0000 32.3414 0.0000 0.0000
# 5 0.0000 0.0000 0.0000 0.0000 22.8260 0.0000
# 6 0.0000 0.0000 0.0000 0.0000 0.0000 35.2801
#
#
#
# Elastic Compliance Matrix: (Units=1/GPa)
#
#
# Indices 1 2 3 4 5 6 
#
# 1 0.014201 -0.023234 -0.000254 0.000000 0.000000 0.000000
# 2 -0.023234 0.054954 -0.004525 0.000000 0.000000 0.000000
# 3 -0.000254 -0.004525 0.018045 0.000000 0.000000 0.000000
# 4 0.000000 0.000000 0.000000 0.030920 0.000000 0.000000
# 5 0.000000 0.000000 0.000000 0.000000 0.043810 0.000000
# 6 0.000000 0.000000 0.000000 0.000000 0.000000 0.028345
#
#
# Mechanical properties :
#
#
# Convention : Reuss Voigt Hill
#
# Bulk Modulus (GPa) = 32.07638 74.76275 53.41957
# Shear Modulus (GPa) = 19.47866 32.41800 25.94833
#
# Velocity S-wave (km/s) = 3.02451 3.90183 3.49084
# Velocity P-wave (km/s) = 5.22118 7.44376 6.42924
#
# Compressibility (1/GPa) = 0.03117558
#
# Stress axis : x y z
#
# Youngs Moduli (GPa) = 70.41756 18.19690 55.41751
#
# Poissons Ratio (x) = 0.42279 0.01405
# Poissons Ratio (y) = 1.63610 0.25074
# Poissons Ratio (z) = 0.01785 0.08233
#
# Static dielectric constant tensor:
#      x y z
#    x 1.852820 0.000000 0.000000 
#    y 0.000000 1.767550 0.000000 
#    z 0.000000 0.000000 1.812630 
# 
# From -- ./inp_files/3941.got.cif
#   From: 2010.05.17/outbox.cif.g08.bks.cpg/sg40_2_cif.got.tgz:3941.got - 2010.06.03 18:35:42.
