data_PCOD9364227
_publ_section_title
;
Structure prediction by ZEFSAII (Michael W. Deem and Ramdas Pophale) SiO2 
 PCOD9364227
Probable space group: A M A 2
;
_chemical_formula_sum "Si O2"
_cell_formula_units_Z 48
_cell_length_a 9.820196
_cell_length_b 8.764665
_cell_length_c 29.298267
_cell_angle_alpha 90.000000
_cell_angle_beta 90.000000
_cell_angle_gamma 90.000000
_cell_volume 2521.723175
_symmetry_space_group_name_H-M "A M A 2"
_symmetry_group_IT_number 40
_symmetry_cell_setting 'orthorhombic'
loop_
_space_group_symop_operation_xyz
x,y,z
-x,-y,z
1/2-x,y,z
1/2+x,-y,z
x,1/2+y,1/2+z
-x,1/2-y,1/2+z
1/2-x,1/2+y,1/2+z
1/2+x,1/2-y,1/2+z
loop_
_atom_site_type_symbol
_atom_site_label
_atom_site_fract_x
_atom_site_fract_y
_atom_site_fract_z
Si Si1 0.250000 0.323641 0.575410
Si Si2 0.750000 0.672219 0.472101
Si Si3 0.919273 0.662113 0.726219
Si Si4 0.494054 0.316054 0.409072
Si Si5 0.250000 0.698311 0.469133
Si Si6 0.507006 0.318202 0.131396
Si Si7 0.418371 0.160498 0.314321
Si Si8 0.750000 0.308250 0.576999
O O1 0.250000 0.275182 0.523284
O O2 0.376448 0.252375 0.600470
O O3 0.250000 0.507339 0.577239
O O4 0.622894 0.726007 0.444037
O O5 0.750000 0.487134 0.472344
O O6 0.750000 0.648447 0.730778
O O7 0.958050 0.760733 0.682218
O O8 0.000000 0.500000 0.719655
O O9 0.999641 0.728229 0.770539
O O10 0.500000 0.500000 0.405271
O O11 0.625088 0.258763 0.436487
O O12 0.455495 0.252228 0.359806
O O13 0.250000 0.744046 0.523092
O O14 0.500000 0.500000 0.130915
O O15 0.374983 0.251216 0.106796
O O16 0.250000 0.148348 0.308814
O O17 0.500000 0.000000 0.319595
#
# Coordination Sequence:
#
# PCOD9364227 Si02
#       8
#     4   4   8   8   4   8   8   4
#     4  11  21  43  68  93 122 175 226 261 306 385
#     4   9  18  37  62  89 124 161 216 271 296 367
#     4  11  24  44  69  94 121 167 221 264 315 392
#     4  10  20  38  63  93 125 163 211 265 316 367
#     4   9  20  35  62  95 122 163 220 261 306 361
#     4  12  26  42  62  98 137 164 204 272 336 378
#     4  11  24  42  64  95 129 167 211 262 317 380
#     4  11  23  41  70  93 124 177 228 259 306 385
#
# _framework density 19.034603000000001
#
# number of rings (size 3 to 8) (size 9 to 14) (size 15 to 20)
#    0.000    1.333    1.667    5.000    4.667    3.333 
#    0.000    6.667    0.000    0.000    0.000    0.000 
#    0.000    0.000    0.000    0.000    0.000    0.000 
#
# Total GULP energy -133651.138214 kJ/mol
# GULP energy per Si atom -5568.797426 kJ/mol
# Density = 1.899128 g / cm^3
# Si number density = 19.034603 Si / 1000 Ang^3
#
#
#
# Elastic Constant Matrix: (Units=GPa)
#
#
# Indices 1 2 3 4 5 6 
#
# 1 235.5645 46.6940 111.0161 0.0000 0.0000 0.0000
# 2 46.6940 66.2648 63.5180 0.0000 0.0000 0.0000
# 3 111.0161 63.5180 228.2374 0.0000 0.0000 0.0000
# 4 0.0000 0.0000 0.0000 27.5202 0.0000 0.0000
# 5 0.0000 0.0000 0.0000 0.0000 9.1775 0.0000
# 6 0.0000 0.0000 0.0000 0.0000 0.0000 20.2284
#
#
#
# Elastic Compliance Matrix: (Units=1/GPa)
#
#
# Indices 1 2 3 4 5 6 
#
# 1 0.005668 -0.001843 -0.002244 0.000000 0.000000 0.000000
# 2 -0.001843 0.021180 -0.004998 0.000000 0.000000 0.000000
# 3 -0.002244 -0.004998 0.006864 0.000000 0.000000 0.000000
# 4 0.000000 0.000000 0.000000 0.036337 0.000000 0.000000
# 5 0.000000 0.000000 0.000000 0.000000 0.108963 0.000000
# 6 0.000000 0.000000 0.000000 0.000000 0.000000 0.049435
#
#
# Mechanical properties :
#
#
# Convention : Reuss Voigt Hill
#
# Bulk Modulus (GPa) = 64.34089 108.05810 86.19950
# Shear Modulus (GPa) = 19.85716 31.97446 25.91581
#
# Velocity S-wave (km/s) = 3.23339 4.10299 3.69387
# Velocity P-wave (km/s) = 6.91485 8.90722 7.97351
#
# Compressibility (1/GPa) = 0.01554221
#
# Stress axis : x y z
#
# Youngs Moduli (GPa) = 176.42870 47.21325 145.69017
#
# Poissons Ratio (x) = 0.08701 0.32694
# Poissons Ratio (y) = 0.32515 0.72817
# Poissons Ratio (z) = 0.39592 0.23597
#
# Static dielectric constant tensor:
#      x y z
#    x 1.566040 0.000000 0.000000 
#    y 0.000000 1.671140 0.000000 
#    z 0.000000 0.000000 1.673920 
# 
# From -- ./inp_files/26224.got.cif
#   From: 2010.05.17/outbox.cif.g08.bks.cpg/sg40_14_cif.got.tgz:26224.got - 2010.06.03 18:35:42.
