data_PCOD9364914
_publ_section_title
;
Structure prediction by ZEFSAII (Michael W. Deem and Ramdas Pophale) SiO2 
 PCOD9364914
Probable space group: A M A 2
;
_chemical_formula_sum "Si O2"
_cell_formula_units_Z 48
_cell_length_a 16.568081
_cell_length_b 5.179388
_cell_length_c 24.322462
_cell_angle_alpha 90.000000
_cell_angle_beta 90.000000
_cell_angle_gamma 90.000000
_cell_volume 2087.171755
_symmetry_space_group_name_H-M "A M A 2"
_symmetry_group_IT_number 40
_symmetry_cell_setting 'orthorhombic'
loop_
_space_group_symop_operation_xyz
x,y,z
-x,-y,z
1/2-x,y,z
1/2+x,-y,z
x,1/2+y,1/2+z
-x,1/2-y,1/2+z
1/2-x,1/2+y,1/2+z
1/2+x,1/2-y,1/2+z
loop_
_atom_site_type_symbol
_atom_site_label
_atom_site_fract_x
_atom_site_fract_y
_atom_site_fract_z
Si Si1 0.921291 0.680542 0.929930
Si Si2 0.051698 0.239728 0.049087
Si Si3 0.153756 0.428305 0.148742
Si Si4 0.750000 0.580195 0.901119
Si Si5 0.250000 0.407834 0.328996
Si Si6 0.151712 0.936048 0.216773
Si Si7 0.415678 0.119161 0.806784
O O1 0.834652 0.536870 0.931497
O O2 0.921742 0.832517 0.872299
O O3 0.000000 0.500000 0.927142
O O4 0.922606 0.836206 0.987020
O O5 0.120540 0.333463 0.090330
O O6 0.000000 0.500000 0.043068
O O7 0.000000 0.000000 0.071444
O O8 0.250000 0.429847 0.145980
O O9 0.130147 0.706117 0.173494
O O10 0.127788 0.205234 0.190521
O O11 0.750000 0.872297 0.877055
O O12 0.750000 0.377333 0.852015
O O13 0.333275 0.457469 0.297514
O O14 0.250000 0.930302 0.224796
O O15 0.104720 0.875420 0.272773
O O16 0.500000 0.000000 0.788795
#
# Coordination Sequence:
#
# PCOD9364914 Si02
#       7
#     8   8   8   4   4   8   8
#     4  10  23  42  65  99 137 170 218 272 327 387
#     4  11  24  43  68  95 133 172 213 278 329 384
#     4  10  23  43  69  93 130 170 222 269 331 382
#     4  10  22  38  64  88 124 176 214 254 319 382
#     4  10  22  40  58  90 128 168 218 264 305 382
#     4  10  22  42  63  96 131 171 214 282 322 384
#     4  11  22  39  66  95 135 176 217 263 331 392
#
# _framework density 22.997630000000001
#
# number of rings (size 3 to 8) (size 9 to 14) (size 15 to 20)
#    0.000    1.667    0.833    2.500    1.167   10.000 
#    0.000    0.000    1.833    0.000    0.000    0.000 
#    0.000    0.000    0.000    0.000    0.000    0.000 
#
# Total GULP energy -134161.167107 kJ/mol
# GULP energy per Si atom -5590.048629 kJ/mol
# Density = 2.294529 g / cm^3
# Si number density = 22.997630 Si / 1000 Ang^3
#
#
#
# Elastic Constant Matrix: (Units=GPa)
#
#
# Indices 1 2 3 4 5 6 
#
# 1 135.6879 18.5651 14.7170 0.0000 0.0000 0.0000
# 2 18.5651 65.3206 18.9332 0.0000 0.0000 0.0000
# 3 14.7170 18.9332 112.3672 0.0000 0.0000 0.0000
# 4 0.0000 0.0000 0.0000 40.2954 0.0000 0.0000
# 5 0.0000 0.0000 0.0000 0.0000 -43.9780 0.0000
# 6 0.0000 0.0000 0.0000 0.0000 0.0000 22.2232
#
#
#
# Elastic Compliance Matrix: (Units=1/GPa)
#
#
# Indices 1 2 3 4 5 6 
#
# 1 0.007716 -0.001998 -0.000674 0.000000 0.000000 0.000000
# 2 -0.001998 0.016612 -0.002537 0.000000 0.000000 0.000000
# 3 -0.000674 -0.002537 0.009415 0.000000 0.000000 0.000000
# 4 0.000000 0.000000 0.000000 0.024817 0.000000 0.000000
# 5 0.000000 0.000000 0.000000 0.000000 -0.022739 0.000000
# 6 0.000000 0.000000 0.000000 0.000000 0.000000 0.044998
#
#
# Mechanical properties :
#
#
# Convention : Reuss Voigt Hill
#
# Bulk Modulus (GPa) = 42.87149 46.42292 44.64721
# Shear Modulus (GPa) = 50.49812 21.11879 35.80845
#
# Velocity S-wave (km/s) = 4.69102 3.03364 3.95023
# Velocity P-wave (km/s) = 6.92986 5.70091 6.34521
#
# Compressibility (1/GPa) = 0.02332552
#
# Stress axis : x y z
#
# Youngs Moduli (GPa) = 129.59589 60.19611 106.21106
#
# Poissons Ratio (x) = 0.12025 0.07159
# Poissons Ratio (y) = 0.25890 0.26950
# Poissons Ratio (z) = 0.08735 0.15274
#
# Static dielectric constant tensor:
#      x y z
#    x 1.862380 0.000000 0.000000 
#    y 0.000000 1.869560 0.000000 
#    z 0.000000 0.000000 1.917840 
# 
# From -- ./inp_files/24897.got.cif
#   From: 2010.05.17/outbox.cif.g08.bks.cpg/sg40_13_cif.got.tgz:24897.got - 2010.06.03 18:35:42.
