data_PCOD9364045
_publ_section_title
;
Structure prediction by ZEFSAII (Michael W. Deem and Ramdas Pophale) SiO2 
 PCOD9364045
Probable space group: A M A 2
;
_chemical_formula_sum "Si O2"
_cell_formula_units_Z 64
_cell_length_a 17.225736
_cell_length_b 16.037581
_cell_length_c 12.462611
_cell_angle_alpha 90.000000
_cell_angle_beta 90.000000
_cell_angle_gamma 90.000000
_cell_volume 3442.910152
_symmetry_space_group_name_H-M "A M A 2"
_symmetry_group_IT_number 40
_symmetry_cell_setting 'orthorhombic'
loop_
_space_group_symop_operation_xyz
x,y,z
-x,-y,z
1/2-x,y,z
1/2+x,-y,z
x,1/2+y,1/2+z
-x,1/2-y,1/2+z
1/2-x,1/2+y,1/2+z
1/2+x,1/2-y,1/2+z
loop_
_atom_site_type_symbol
_atom_site_label
_atom_site_fract_x
_atom_site_fract_y
_atom_site_fract_z
Si Si1 0.426812 0.869337 0.519110
Si Si2 0.407849 0.484776 0.209626
Si Si3 0.338653 0.503253 0.875034
Si Si4 0.612069 0.870261 0.544160
Si Si5 0.411842 0.472267 0.652038
Si Si6 0.159103 0.226094 0.904674
Si Si7 0.342187 0.532137 0.429489
Si Si8 0.159797 0.794490 0.163278
O O1 0.519798 0.867810 0.522533
O O2 0.391903 0.781646 0.484000
O O3 0.398458 0.904237 0.633964
O O4 0.395731 0.937261 0.433096
O O5 0.500000 0.500000 0.221956
O O6 0.375107 0.563112 0.140891
O O7 0.369564 0.481357 0.325315
O O8 0.250000 0.473334 0.885432
O O9 0.361843 0.507881 0.751219
O O10 0.348536 0.589275 0.939826
O O11 0.641938 0.780782 0.581903
O O12 0.500000 0.500000 0.669825
O O13 0.383466 0.505002 0.537802
O O14 0.396460 0.373094 0.650906
O O15 0.250000 0.235067 0.932938
O O16 0.138786 0.129031 0.907903
O O17 0.149744 0.259456 0.783670
O O18 0.250000 0.523992 0.441705
O O19 0.250000 0.821037 0.151105
#
# Coordination Sequence:
#
# PCOD9364045 Si02
#       8
#     8   8   8   8   8   8   8   8
#     4  10  20  36  61  91 126 157 205 256 307 360
#     4   9  19  37  58  88 121 157 198 250 305 360
#     4  11  21  38  63  92 125 164 207 259 314 371
#     4  10  21  37  63  95 126 155 205 264 307 360
#     4  12  26  42  62  89 124 165 211 254 317 375
#     4  10  21  37  61  89 120 159 207 251 299 366
#     4  11  23  40  60  86 122 161 204 254 310 374
#     4  11  22  41  65  91 120 161 209 253 303 372
#
# _framework density 18.588923999999999
#
# number of rings (size 3 to 8) (size 9 to 14) (size 15 to 20)
#    0.000    1.500    2.500    4.125    1.750    2.500 
#    0.000    1.250    0.000    1.500    0.000    0.000 
#    0.000    0.000    0.000    0.000    0.000    0.000 
#
# Total GULP energy -178784.989744 kJ/mol
# GULP energy per Si atom -5587.030930 kJ/mol
# Density = 1.854662 g / cm^3
# Si number density = 18.588924 Si / 1000 Ang^3
#
#
#
# Elastic Constant Matrix: (Units=GPa)
#
#
# Indices 1 2 3 4 5 6 
#
# 1 55.5578 23.0496 29.7782 0.0000 0.0000 0.0000
# 2 23.0496 53.8528 18.1988 0.0000 0.0000 0.0000
# 3 29.7782 18.1988 98.0937 0.0000 0.0000 0.0000
# 4 0.0000 0.0000 0.0000 34.6240 0.0000 0.0000
# 5 0.0000 0.0000 0.0000 0.0000 -71.6582 0.0000
# 6 0.0000 0.0000 0.0000 0.0000 0.0000 7.7031
#
#
#
# Elastic Compliance Matrix: (Units=1/GPa)
#
#
# Indices 1 2 3 4 5 6 
#
# 1 0.024732 -0.008587 -0.005915 0.000000 0.000000 0.000000
# 2 -0.008587 0.022792 -0.001622 0.000000 0.000000 0.000000
# 3 -0.005915 -0.001622 0.012291 0.000000 0.000000 0.000000
# 4 0.000000 0.000000 0.000000 0.028882 0.000000 0.000000
# 5 0.000000 0.000000 0.000000 0.000000 -0.013955 0.000000
# 6 0.000000 0.000000 0.000000 0.000000 0.000000 0.129818
#
#
# Mechanical properties :
#
#
# Convention : Reuss Voigt Hill
#
# Bulk Modulus (GPa) = 36.27350 38.83972 37.55661
# Shear Modulus (GPa) = 20.32551 3.23229 11.77890
#
# Velocity S-wave (km/s) = 3.31028 1.32008 2.51997
# Velocity P-wave (km/s) = 5.84521 4.82316 5.35860
#
# Compressibility (1/GPa) = 0.02756834
#
# Stress axis : x y z
#
# Youngs Moduli (GPa) = 40.43352 43.87422 81.36180
#
# Poissons Ratio (x) = 0.37674 0.48124
# Poissons Ratio (y) = 0.34719 0.13196
# Poissons Ratio (z) = 0.23916 0.07116
#
# Static dielectric constant tensor:
#      x y z
#    x 1.632780 0.000000 0.000000 
#    y 0.000000 1.638610 0.000000 
#    z 0.000000 0.000000 1.626730 
# 
# From -- ./inp_files/12447.got.cif
#   From: 2010.05.17/outbox.cif.g08.bks.cpg/sg40_7_cif.got.tgz:12447.got - 2010.06.03 18:35:42.
