data_PCOD9364754
_publ_section_title
;
Structure prediction by ZEFSAII (Michael W. Deem and Ramdas Pophale) SiO2 
 PCOD9364754
Probable space group: A M A 2
;
_chemical_formula_sum "Si O2"
_cell_formula_units_Z 64
_cell_length_a 15.288779
_cell_length_b 17.331773
_cell_length_c 11.806816
_cell_angle_alpha 90.000000
_cell_angle_beta 90.000000
_cell_angle_gamma 90.000000
_cell_volume 3128.589550
_symmetry_space_group_name_H-M "A M A 2"
_symmetry_group_IT_number 40
_symmetry_cell_setting 'orthorhombic'
loop_
_space_group_symop_operation_xyz
x,y,z
-x,-y,z
1/2-x,y,z
1/2+x,-y,z
x,1/2+y,1/2+z
-x,1/2-y,1/2+z
1/2-x,1/2+y,1/2+z
1/2+x,1/2-y,1/2+z
loop_
_atom_site_type_symbol
_atom_site_label
_atom_site_fract_x
_atom_site_fract_y
_atom_site_fract_z
Si Si1 0.151332 0.349650 0.846020
Si Si2 0.355013 0.647938 0.079085
Si Si3 0.855315 0.579817 0.599668
Si Si4 0.595058 0.319579 0.334053
Si Si5 0.853919 0.910598 0.040285
Si Si6 0.349505 0.182046 0.249133
Si Si7 0.099304 0.293895 0.418953
Si Si8 0.477633 0.584641 0.907050
O O1 0.250000 0.378965 0.868981
O O2 0.123418 0.378741 0.719300
O O3 0.152575 0.257263 0.849629
O O4 0.072241 0.376673 0.926048
O O5 0.250000 0.635194 0.078009
O O6 0.391544 0.657917 0.204522
O O7 0.375108 0.726625 0.008588
O O8 0.413458 0.584302 0.015082
O O9 0.750000 0.579299 0.597940
O O10 0.888046 0.491558 0.589906
O O11 0.883708 0.628567 0.489529
O O12 0.618530 0.390549 0.414486
O O13 0.499272 0.294975 0.374884
O O14 0.750000 0.917941 0.039653
O O15 0.873421 0.836299 0.119657
O O16 0.250000 0.152448 0.267401
O O17 0.351415 0.267093 0.303776
O O18 0.420358 0.132453 0.317493
O O19 0.500000 0.500000 0.865757
#
# Coordination Sequence:
#
# PCOD9364754 Si02
#       8
#     8   8   8   8   8   8   8   8
#     4  11  22  38  65  97 130 168 215 268 324 390
#     4  11  23  44  68  91 125 177 223 261 322 403
#     4  10  21  40  64  96 129 170 220 268 324 394
#     4  12  24  40  64  92 130 168 220 265 317 389
#     4  10  23  40  62  94 132 167 212 269 335 387
#     4  10  21  40  64  96 133 172 210 268 334 390
#     4  11  22  36  65  95 126 161 219 267 316 380
#     4  11  23  40  64  96 130 163 218 269 326 385
#
# _framework density 20.456503000000001
#
# number of rings (size 3 to 8) (size 9 to 14) (size 15 to 20)
#    0.000    1.250    3.750    4.125    3.500    2.500 
#    2.250    0.000    0.000    1.500    0.000    0.000 
#    0.000    0.000    0.000    0.000    0.000    0.000 
#
# Total GULP energy -178383.871303 kJ/mol
# GULP energy per Si atom -5574.495978 kJ/mol
# Density = 2.040994 g / cm^3
# Si number density = 20.456503 Si / 1000 Ang^3
#
#
#
# Elastic Constant Matrix: (Units=GPa)
#
#
# Indices 1 2 3 4 5 6 
#
# 1 129.6858 15.1624 34.5647 0.0000 0.0000 0.0000
# 2 15.1624 50.7785 10.8681 0.0000 0.0000 0.0000
# 3 34.5647 10.8681 79.8917 0.0000 0.0000 0.0000
# 4 0.0000 0.0000 0.0000 23.6690 0.0000 0.0000
# 5 0.0000 0.0000 0.0000 0.0000 8.7669 0.0000
# 6 0.0000 0.0000 0.0000 0.0000 0.0000 9.9917
#
#
#
# Elastic Compliance Matrix: (Units=1/GPa)
#
#
# Indices 1 2 3 4 5 6 
#
# 1 0.008888 -0.001886 -0.003589 0.000000 0.000000 0.000000
# 2 -0.001886 0.020684 -0.001998 0.000000 0.000000 0.000000
# 3 -0.003589 -0.001998 0.014341 0.000000 0.000000 0.000000
# 4 0.000000 0.000000 0.000000 0.042249 0.000000 0.000000
# 5 0.000000 0.000000 0.000000 0.000000 0.114066 0.000000
# 6 0.000000 0.000000 0.000000 0.000000 0.000000 0.100083
#
#
# Mechanical properties :
#
#
# Convention : Reuss Voigt Hill
#
# Bulk Modulus (GPa) = 34.52032 42.39404 38.45718
# Shear Modulus (GPa) = 15.38875 21.80290 18.59583
#
# Velocity S-wave (km/s) = 2.74572 3.26823 3.01830
# Velocity P-wave (km/s) = 5.19265 5.91699 5.56661
#
# Compressibility (1/GPa) = 0.02896844
#
# Stress axis : x y z
#
# Youngs Moduli (GPa) = 112.51208 48.34639 69.72819
#
# Poissons Ratio (x) = 0.09117 0.25024
# Poissons Ratio (y) = 0.21218 0.13931
# Poissons Ratio (z) = 0.40378 0.09659
#
# Static dielectric constant tensor:
#      x y z
#    x 1.820830 0.000000 0.000000 
#    y 0.000000 1.777290 0.000000 
#    z 0.000000 0.000000 1.744480 
# 
# From -- ./inp_files/12488.got.cif
#   From: 2010.05.17/outbox.cif.g08.bks.cpg/sg40_7_cif.got.tgz:12488.got - 2010.06.03 18:35:42.
