data_PCOD9364668
_publ_section_title
;
Structure prediction by ZEFSAII (Michael W. Deem and Ramdas Pophale) SiO2 
 PCOD9364668
Probable space group: A M A 2
;
_chemical_formula_sum "Si O2"
_cell_formula_units_Z 48
_cell_length_a 14.178033
_cell_length_b 27.264338
_cell_length_c 5.052886
_cell_angle_alpha 90.000000
_cell_angle_beta 90.000000
_cell_angle_gamma 90.000000
_cell_volume 1953.216750
_symmetry_space_group_name_H-M "A M A 2"
_symmetry_group_IT_number 40
_symmetry_cell_setting 'orthorhombic'
loop_
_space_group_symop_operation_xyz
x,y,z
-x,-y,z
1/2-x,y,z
1/2+x,-y,z
x,1/2+y,1/2+z
-x,1/2-y,1/2+z
1/2-x,1/2+y,1/2+z
1/2+x,1/2-y,1/2+z
loop_
_atom_site_type_symbol
_atom_site_label
_atom_site_fract_x
_atom_site_fract_y
_atom_site_fract_z
Si Si1 0.943194 0.795128 0.055270
Si Si2 0.854845 0.113312 0.790003
Si Si3 0.648181 0.726357 0.430096
Si Si4 0.043973 0.635316 0.049118
Si Si5 0.635846 0.525634 0.665617
Si Si6 0.636593 0.467508 0.166723
O O1 0.869653 0.753540 0.148781
O O2 0.936267 0.836364 0.281435
O O3 0.934293 0.826276 0.786815
O O4 0.047128 0.769760 0.074483
O O5 0.750000 0.097730 0.695725
O O6 0.845491 0.167979 0.900964
O O7 0.889177 0.075932 0.016260
O O8 0.934583 0.119698 0.571489
O O9 0.750000 0.743676 0.537293
O O10 0.101282 0.585549 0.084070
O O11 0.750000 0.526581 0.672289
O O12 0.605566 0.509352 0.956999
O O13 0.606336 0.483017 0.460252
O O14 0.750000 0.466862 0.164661
#
# Coordination Sequence:
#
# PCOD9364668 Si02
#       6
#     8   8   8   8   8   8
#     4  11  24  43  64  96 133 165 221 275 314 393
#     4   9  20  39  62  90 123 162 210 261 319 381
#     4  10  22  43  70  96 131 176 215 269 339 391
#     4  11  24  41  64  93 130 171 211 268 324 378
#     4   9  19  37  61  88 121 161 208 261 311 374
#     4  10  21  39  62  90 126 166 208 257 316 377
#
# _framework density 24.574847999999999
#
# number of rings (size 3 to 8) (size 9 to 14) (size 15 to 20)
#    0.000    2.000    0.000    3.000    0.000    5.333 
#    0.000   14.167    0.000    0.000    0.000    0.000 
#    0.000    0.000    0.000    0.000    0.000    0.000 
#
# Total GULP energy -134235.168544 kJ/mol
# GULP energy per Si atom -5593.132023 kJ/mol
# Density = 2.451891 g / cm^3
# Si number density = 24.574848 Si / 1000 Ang^3
#
#
#
# Elastic Constant Matrix: (Units=GPa)
#
#
# Indices 1 2 3 4 5 6 
#
# 1 90.0251 13.9750 -10.8818 0.0000 0.0000 0.0000
# 2 13.9750 142.3903 27.2037 0.0000 0.0000 0.0000
# 3 -10.8818 27.2037 95.3337 0.0000 0.0000 0.0000
# 4 0.0000 0.0000 0.0000 -15.5232 0.0000 0.0000
# 5 0.0000 0.0000 0.0000 0.0000 17.0670 0.0000
# 6 0.0000 0.0000 0.0000 0.0000 0.0000 8.2327
#
#
#
# Elastic Compliance Matrix: (Units=1/GPa)
#
#
# Indices 1 2 3 4 5 6 
#
# 1 0.011545 -0.001465 0.001736 0.000000 0.000000 0.000000
# 2 -0.001465 0.007614 -0.002340 0.000000 0.000000 0.000000
# 3 0.001736 -0.002340 0.011355 0.000000 0.000000 0.000000
# 4 0.000000 0.000000 0.000000 -0.064420 0.000000 0.000000
# 5 0.000000 0.000000 0.000000 0.000000 0.058593 0.000000
# 6 0.000000 0.000000 0.000000 0.000000 0.000000 0.121467
#
#
# Mechanical properties :
#
#
# Convention : Reuss Voigt Hill
#
# Bulk Modulus (GPa) = 37.91222 43.14921 40.53072
# Shear Modulus (GPa) = 31.43000 21.78545 26.60772
#
# Velocity S-wave (km/s) = 3.58012 2.98063 3.29404
# Velocity P-wave (km/s) = 5.70530 5.42605 5.56742
#
# Compressibility (1/GPa) = 0.02637672
#
# Stress axis : x y z
#
# Youngs Moduli (GPa) = 86.61605 131.34179 88.06489
#
# Poissons Ratio (x) = 0.19238 -0.15286
# Poissons Ratio (y) = 0.12687 0.20605
# Poissons Ratio (z) = -0.15035 0.30731
#
# Static dielectric constant tensor:
#      x y z
#    x 2.036450 0.000000 0.000000 
#    y 0.000000 1.925750 0.000000 
#    z 0.000000 0.000000 1.972990 
# 
# From -- ./inp_files/1332.got.cif
#   From: 2010.05.17/outbox.cif.g08.bks.cpg/sg40_1_cif.got.tgz:1332.got - 2010.06.03 18:35:42.
