data_PCOD9364870
_publ_section_title
;
Structure prediction by ZEFSAII (Michael W. Deem and Ramdas Pophale) SiO2 
 PCOD9364870
Probable space group: A M A 2
;
_chemical_formula_sum "Si O2"
_cell_formula_units_Z 48
_cell_length_a 10.657785
_cell_length_b 24.879856
_cell_length_c 8.089885
_cell_angle_alpha 90.000000
_cell_angle_beta 90.000000
_cell_angle_gamma 90.000000
_cell_volume 2145.147529
_symmetry_space_group_name_H-M "A M A 2"
_symmetry_group_IT_number 40
_symmetry_cell_setting 'orthorhombic'
loop_
_space_group_symop_operation_xyz
x,y,z
-x,-y,z
1/2-x,y,z
1/2+x,-y,z
x,1/2+y,1/2+z
-x,1/2-y,1/2+z
1/2-x,1/2+y,1/2+z
1/2+x,1/2-y,1/2+z
loop_
_atom_site_type_symbol
_atom_site_label
_atom_site_fract_x
_atom_site_fract_y
_atom_site_fract_z
Si Si1 0.497948 0.180197 0.792360
Si Si2 0.250000 0.497828 0.272000
Si Si3 0.100124 0.790930 0.431993
Si Si4 0.250000 0.085576 0.272546
Si Si5 0.750000 0.382060 0.397468
Si Si6 0.978594 0.099577 0.303079
Si Si7 0.885175 0.584999 0.471252
Si Si8 0.250000 0.973244 0.398792
O O1 0.545274 0.189736 0.607275
O O2 0.471492 0.237554 0.875487
O O3 0.370152 0.146893 0.818699
O O4 0.596601 0.141604 0.882904
O O5 0.250000 0.555777 0.350338
O O6 0.132689 0.462057 0.338823
O O7 0.250000 0.500951 0.076845
O O8 0.250000 0.781485 0.442427
O O9 0.072342 0.839879 0.307129
O O10 0.379416 0.099030 0.366025
O O11 0.250000 0.020452 0.261860
O O12 0.250000 0.118285 0.098796
O O13 0.876181 0.062395 0.391003
O O14 0.985779 0.078102 0.114285
O O15 0.750000 0.585614 0.561775
#
# Coordination Sequence:
#
# PCOD9364870 Si02
#       8
#     8   4   8   4   4   8   8   4
#     4  12  26  46  77 105 146 190 250 312 379 448
#     4  10  26  44  72 111 149 193 248 309 367 452
#     4  12  27  49  75 107 147 197 251 320 376 458
#     4  12  28  46  69 110 149 187 253 314 370 449
#     4  12  26  49  71 107 152 190 242 311 387 445
#     4  12  24  47  77 103 149 196 250 305 385 450
#     4  10  21  46  73 107 140 199 240 295 371 456
#     4  12  24  47  74 108 148 202 253 306 380 466
#
# _framework density 22.376083000000001
#
# number of rings (size 3 to 8) (size 9 to 14) (size 15 to 20)
#    0.500    0.000    4.167    4.000    2.333    0.667 
#    7.500    0.000    0.000    0.000    0.000    0.000 
#    0.000    0.000    0.000    0.000    0.000    0.000 
#
# Total GULP energy -134167.110801 kJ/mol
# GULP energy per Si atom -5590.296283 kJ/mol
# Density = 2.232515 g / cm^3
# Si number density = 22.376083 Si / 1000 Ang^3
#
#
#
# Elastic Constant Matrix: (Units=GPa)
#
#
# Indices 1 2 3 4 5 6 
#
# 1 99.1112 -3.1212 2.6258 0.0000 0.0000 0.0000
# 2 -3.1212 103.3528 10.7324 0.0000 0.0000 0.0000
# 3 2.6258 10.7324 75.3037 0.0000 0.0000 0.0000
# 4 0.0000 0.0000 0.0000 34.3602 0.0000 0.0000
# 5 0.0000 0.0000 0.0000 0.0000 19.1893 0.0000
# 6 0.0000 0.0000 0.0000 0.0000 0.0000 31.5021
#
#
#
# Elastic Compliance Matrix: (Units=1/GPa)
#
#
# Indices 1 2 3 4 5 6 
#
# 1 0.010111 0.000347 -0.000402 0.000000 0.000000 0.000000
# 2 0.000347 0.009833 -0.001414 0.000000 0.000000 0.000000
# 3 -0.000402 -0.001414 0.013495 0.000000 0.000000 0.000000
# 4 0.000000 0.000000 0.000000 0.029103 0.000000 0.000000
# 5 0.000000 0.000000 0.000000 0.000000 0.052112 0.000000
# 6 0.000000 0.000000 0.000000 0.000000 0.000000 0.031744
#
#
# Mechanical properties :
#
#
# Convention : Reuss Voigt Hill
#
# Bulk Modulus (GPa) = 32.78444 33.13797 32.96120
# Shear Modulus (GPa) = 31.34733 34.84570 33.09652
#
# Velocity S-wave (km/s) = 3.74696 3.95051 3.85008
# Velocity P-wave (km/s) = 5.77953 5.97080 5.87594
#
# Compressibility (1/GPa) = 0.03050228
#
# Stress axis : x y z
#
# Youngs Moduli (GPa) = 98.89964 101.69976 74.10137
#
# Poissons Ratio (x) = -0.03530 0.02979
# Poissons Ratio (y) = -0.03433 0.10474
# Poissons Ratio (z) = 0.03976 0.14375
#
# Static dielectric constant tensor:
#      x y z
#    x 2.046660 0.000000 0.000000 
#    y 0.000000 1.776680 0.000000 
#    z 0.000000 0.000000 1.808460 
# 
# From -- ./inp_files/5468.got.cif
#   From: 2010.05.17/outbox.cif.g08.bks.cpg/sg40_3_cif.got.tgz:5468.got - 2010.06.03 18:35:42.
