data_PCOD9364418
_publ_section_title
;
Structure prediction by ZEFSAII (Michael W. Deem and Ramdas Pophale) SiO2 
 PCOD9364418
Probable space group: A M A 2
;
_chemical_formula_sum "Si O2"
_cell_formula_units_Z 48
_cell_length_a 23.502631
_cell_length_b 7.346543
_cell_length_c 13.849605
_cell_angle_alpha 90.000000
_cell_angle_beta 90.000000
_cell_angle_gamma 90.000000
_cell_volume 2391.315584
_symmetry_space_group_name_H-M "A M A 2"
_symmetry_group_IT_number 40
_symmetry_cell_setting 'orthorhombic'
loop_
_space_group_symop_operation_xyz
x,y,z
-x,-y,z
1/2-x,y,z
1/2+x,-y,z
x,1/2+y,1/2+z
-x,1/2-y,1/2+z
1/2-x,1/2+y,1/2+z
1/2+x,1/2-y,1/2+z
loop_
_atom_site_type_symbol
_atom_site_label
_atom_site_fract_x
_atom_site_fract_y
_atom_site_fract_z
Si Si1 0.457939 0.369172 0.604160
Si Si2 0.859905 0.855309 0.159614
Si Si3 0.538982 0.676982 0.251249
Si Si4 0.815438 0.546527 0.850594
Si Si5 0.316782 0.584480 0.449155
Si Si6 0.397751 0.727614 0.939482
O O1 0.500000 0.500000 0.542722
O O2 0.405752 0.486398 0.640725
O O3 0.496740 0.300852 0.689653
O O4 0.432142 0.214117 0.538179
O O5 0.899457 0.685202 0.194688
O O6 0.823740 0.943125 0.247593
O O7 0.828014 0.833470 0.057281
O O8 0.500000 0.500000 0.263726
O O9 0.557112 0.757031 0.353571
O O10 0.750000 0.525201 0.879089
O O11 0.828057 0.761442 0.867136
O O12 0.857050 0.440022 0.921215
O O13 0.250000 0.531390 0.442658
O O14 0.358765 0.411536 0.438335
#
# Coordination Sequence:
#
# PCOD9364418 Si02
#       6
#     8   8   8   8   8   8
#     4   9  19  37  54  79 111 148 191 233 293 348
#     4   9  20  38  57  82 119 152 195 251 294 359
#     4  10  21  34  55  84 112 151 194 240 293 355
#     4  10  21  37  59  87 115 151 197 245 303 359
#     4  10  21  38  62  87 116 157 199 245 306 362
#     4  10  21  38  59  81 118 152 190 249 291 358
#
# _framework density 20.072631999999999
#
# number of rings (size 3 to 8) (size 9 to 14) (size 15 to 20)
#    0.000    2.333    0.000    1.500    4.667    0.000 
#    0.000    0.833    0.000   10.000    0.000    0.000 
#    0.000    0.000    0.000    0.000    0.000    0.000 
#
# Total GULP energy -133604.725835 kJ/mol
# GULP energy per Si atom -5566.863576 kJ/mol
# Density = 2.002695 g / cm^3
# Si number density = 20.072632 Si / 1000 Ang^3
#
#
#
# Elastic Constant Matrix: (Units=GPa)
#
#
# Indices 1 2 3 4 5 6 
#
# 1 84.1183 19.6756 28.8238 0.0000 0.0000 0.0000
# 2 19.6756 30.4246 7.8152 0.0000 0.0000 0.0000
# 3 28.8238 7.8152 62.3690 0.0000 0.0000 0.0000
# 4 0.0000 0.0000 0.0000 15.9845 0.0000 0.0000
# 5 0.0000 0.0000 0.0000 0.0000 17.2319 0.0000
# 6 0.0000 0.0000 0.0000 0.0000 0.0000 29.2335
#
#
#
# Elastic Compliance Matrix: (Units=1/GPa)
#
#
# Indices 1 2 3 4 5 6 
#
# 1 0.016120 -0.008794 -0.006348 0.000000 0.000000 0.000000
# 2 -0.008794 0.038759 -0.000792 0.000000 0.000000 0.000000
# 3 -0.006348 -0.000792 0.019067 0.000000 0.000000 0.000000
# 4 0.000000 0.000000 0.000000 0.062561 0.000000 0.000000
# 5 0.000000 0.000000 0.000000 0.000000 0.058032 0.000000
# 6 0.000000 0.000000 0.000000 0.000000 0.000000 0.034207
#
#
# Mechanical properties :
#
#
# Convention : Reuss Voigt Hill
#
# Bulk Modulus (GPa) = 23.76633 32.17122 27.96877
# Shear Modulus (GPa) = 18.20562 20.52980 19.36771
#
# Velocity S-wave (km/s) = 3.01489 3.20156 3.10962
# Velocity P-wave (km/s) = 4.89748 5.45241 5.18238
#
# Compressibility (1/GPa) = 0.04207634
#
# Stress axis : x y z
#
# Youngs Moduli (GPa) = 62.03386 25.80045 52.44773
#
# Poissons Ratio (x) = 0.22690 0.33294
# Poissons Ratio (y) = 0.54555 0.04156
# Poissons Ratio (z) = 0.39379 0.02045
#
# Static dielectric constant tensor:
#      x y z
#    x 1.748180 0.000000 0.000000 
#    y 0.000000 1.791250 0.000000 
#    z 0.000000 0.000000 1.753820 
# 
# From -- ./inp_files/18070.got.cif
#   From: 2010.05.17/outbox.cif.g08.bks.cpg/sg40_10_cif.got.tgz:18070.got - 2010.06.03 18:35:42.
