data_PCOD9364059
_publ_section_title
;
Structure prediction by ZEFSAII (Michael W. Deem and Ramdas Pophale) SiO2 
 PCOD9364059
Probable space group: A M A 2
;
_chemical_formula_sum "Si O2"
_cell_formula_units_Z 56
_cell_length_a 15.781541
_cell_length_b 11.548621
_cell_length_c 13.923392
_cell_angle_alpha 90.000000
_cell_angle_beta 90.000000
_cell_angle_gamma 90.000000
_cell_volume 2537.608307
_symmetry_space_group_name_H-M "A M A 2"
_symmetry_group_IT_number 40
_symmetry_cell_setting 'orthorhombic'
loop_
_space_group_symop_operation_xyz
x,y,z
-x,-y,z
1/2-x,y,z
1/2+x,-y,z
x,1/2+y,1/2+z
-x,1/2-y,1/2+z
1/2-x,1/2+y,1/2+z
1/2+x,1/2-y,1/2+z
loop_
_atom_site_type_symbol
_atom_site_label
_atom_site_fract_x
_atom_site_fract_y
_atom_site_fract_z
Si Si1 0.653376 0.189729 0.023960
Si Si2 0.151678 0.898496 0.241182
Si Si3 0.508957 0.865552 0.566588
Si Si4 0.653713 0.830501 0.275365
Si Si5 0.480581 0.705216 0.290103
Si Si6 0.660251 0.261709 0.552485
Si Si7 0.912373 0.970882 0.948920
O O1 0.750000 0.228483 0.021517
O O2 0.641377 0.122606 0.126323
O O3 0.589445 0.297195 0.025272
O O4 0.634339 0.093176 0.943241
O O5 0.250000 0.872151 0.263745
O O6 0.088452 0.807861 0.289519
O O7 0.136018 0.031716 0.269435
O O8 0.513166 0.844633 0.681724
O O9 0.423705 0.807214 0.527665
O O10 0.500000 0.000000 0.546003
O O11 0.750000 0.814282 0.315813
O O12 0.571209 0.763621 0.314380
O O13 0.659249 0.785062 0.165883
O O14 0.447056 0.601981 0.358104
O O15 0.750000 0.206481 0.525703
O O16 0.649775 0.385199 0.503026
O O17 0.000000 0.000000 0.005077
#
# Coordination Sequence:
#
# PCOD9364059 Si02
#       7
#     8   8   8   8   8   8   8
#     4  10  20  36  63  94 125 164 218 276 324 381
#     4   9  17  32  58  92 123 162 219 271 316 380
#     4  10  21  40  62  92 127 169 219 264 318 392
#     4   9  17  34  60  89 121 166 221 269 318 384
#     4  10  22  34  57  90 133 171 207 265 334 390
#     4  10  20  36  64  94 121 161 216 271 319 376
#     4  12  22  37  59  91 127 163 207 267 330 381
#
# _framework density 22.068024000000001
#
# number of rings (size 3 to 8) (size 9 to 14) (size 15 to 20)
#    0.000    2.000    2.857    1.286    0.000    1.714 
#    0.000    2.857    0.000    5.143    0.000    0.000 
#    0.000    0.000    0.000    0.000    0.000    0.000 
#
# Total GULP energy -156396.856251 kJ/mol
# GULP energy per Si atom -5585.602009 kJ/mol
# Density = 2.201780 g / cm^3
# Si number density = 22.068024 Si / 1000 Ang^3
#
#
#
# Elastic Constant Matrix: (Units=GPa)
#
#
# Indices 1 2 3 4 5 6 
#
# 1 199.8237 100.1755 37.0860 0.0000 0.0000 0.0000
# 2 100.1755 166.2470 36.6801 0.0000 0.0000 0.0000
# 3 37.0860 36.6801 79.9625 0.0000 0.0000 0.0000
# 4 0.0000 0.0000 0.0000 27.4874 0.0000 0.0000
# 5 0.0000 0.0000 0.0000 0.0000 4.5230 0.0000
# 6 0.0000 0.0000 0.0000 0.0000 0.0000 -58.1296
#
#
#
# Elastic Compliance Matrix: (Units=1/GPa)
#
#
# Indices 1 2 3 4 5 6 
#
# 1 0.007335 -0.004082 -0.001529 0.000000 0.000000 0.000000
# 2 -0.004082 0.008965 -0.002219 0.000000 0.000000 0.000000
# 3 -0.001529 -0.002219 0.014233 0.000000 0.000000 0.000000
# 4 0.000000 0.000000 0.000000 0.036380 0.000000 0.000000
# 5 0.000000 0.000000 0.000000 0.000000 0.221093 0.000000
# 6 0.000000 0.000000 0.000000 0.000000 0.000000 -0.017203
#
#
# Mechanical properties :
#
#
# Convention : Reuss Voigt Hill
#
# Bulk Modulus (GPa) = 67.24250 88.21294 77.72772
# Shear Modulus (GPa) = 17.15731 12.91558 15.03645
#
# Velocity S-wave (km/s) = 2.79135 2.42184 2.61313
# Velocity P-wave (km/s) = 6.39731 6.91957 6.66356
#
# Compressibility (1/GPa) = 0.01487155
#
# Stress axis : x y z
#
# Youngs Moduli (GPa) = 136.33708 111.55003 70.25974
#
# Poissons Ratio (x) = 0.45538 0.10744
# Poissons Ratio (y) = 0.55657 0.15590
# Poissons Ratio (z) = 0.20848 0.24751
#
# Static dielectric constant tensor:
#      x y z
#    x 1.821640 0.000000 0.000000 
#    y 0.000000 1.784480 0.000000 
#    z 0.000000 0.000000 1.862250 
# 
# From -- ./inp_files/17079.got.cif
#   From: 2010.05.17/outbox.cif.g08.bks.cpg/sg40_9_cif.got.tgz:17079.got - 2010.06.03 18:35:42.
