data_PCOD9364488
_publ_section_title
;
Structure prediction by ZEFSAII (Michael W. Deem and Ramdas Pophale) SiO2 
 PCOD9364488
Probable space group: A M A 2
;
_chemical_formula_sum "Si O2"
_cell_formula_units_Z 56
_cell_length_a 13.923971
_cell_length_b 5.302018
_cell_length_c 30.522559
_cell_angle_alpha 90.000000
_cell_angle_beta 90.000000
_cell_angle_gamma 90.000000
_cell_volume 2253.332340
_symmetry_space_group_name_H-M "A M A 2"
_symmetry_group_IT_number 40
_symmetry_cell_setting 'orthorhombic'
loop_
_space_group_symop_operation_xyz
x,y,z
-x,-y,z
1/2-x,y,z
1/2+x,-y,z
x,1/2+y,1/2+z
-x,1/2-y,1/2+z
1/2-x,1/2+y,1/2+z
1/2+x,1/2-y,1/2+z
loop_
_atom_site_type_symbol
_atom_site_label
_atom_site_fract_x
_atom_site_fract_y
_atom_site_fract_z
Si Si1 0.862666 0.820431 0.871020
Si Si2 0.367686 0.649979 0.110830
Si Si3 0.403049 0.845643 0.749871
Si Si4 0.000000 0.000000 0.313864
Si Si5 0.250000 0.968582 0.818521
Si Si6 0.637331 0.851584 0.153701
Si Si7 0.367604 0.844786 0.014820
Si Si8 0.864671 0.153953 0.470574
O O1 0.750000 0.746621 0.852349
O O2 0.873798 0.752215 0.920956
O O3 0.947241 0.700883 0.844393
O O4 0.838060 0.103257 0.856443
O O5 0.250000 0.633620 0.111845
O O6 0.402269 0.370009 0.122573
O O7 0.393906 0.748923 0.062856
O O8 0.399673 0.865837 0.145255
O O9 0.421725 0.606687 0.780569
O O10 0.331675 0.002965 0.779928
O O11 0.369635 0.748835 0.702910
O O12 0.500000 0.000000 0.743784
O O13 0.750000 0.871949 0.142662
O O14 0.250000 0.857601 0.013483
O O15 0.399816 0.627861 0.980581
O O16 0.401288 0.124424 0.002223
O O17 0.750000 0.138100 0.478199
#
# Coordination Sequence:
#
# PCOD9364488 Si02
#       8
#     8   8   8   4   4   8   8   8
#     4   9  21  41  61  96 132 168 224 268 330 394
#     4   9  18  33  55  91 129 165 213 265 328 390
#     4  12  25  44  65  94 130 171 225 275 339 395
#     4  12  26  42  66  98 126 176 228 276 336 404
#     4  10  22  44  64  90 134 176 210 282 330 400
#     4  10  21  36  60  91 128 170 214 271 325 392
#     4   9  16  29  54  88 127 162 209 267 319 388
#     4   9  17  31  54  89 126 166 212 264 320 387
#
# _framework density 24.852081999999999
#
# number of rings (size 3 to 8) (size 9 to 14) (size 15 to 20)
#    0.429    1.714    2.143    0.857    3.000    4.571 
#    5.143    0.000    0.000    0.000   11.143    0.000 
#    0.000    0.000    0.000    0.000    0.000    0.000 
#
# Total GULP energy -155999.292899 kJ/mol
# GULP energy per Si atom -5571.403318 kJ/mol
# Density = 2.479552 g / cm^3
# Si number density = 24.852082 Si / 1000 Ang^3
#
#
#
# Elastic Constant Matrix: (Units=GPa)
#
#
# Indices 1 2 3 4 5 6 
#
# 1 64.9541 13.9974 -1.3726 0.0000 0.0000 0.0000
# 2 13.9974 97.2409 35.1822 0.0000 0.0000 0.0000
# 3 -1.3726 35.1822 92.8920 0.0000 0.0000 0.0000
# 4 0.0000 0.0000 0.0000 23.2797 0.0000 0.0000
# 5 0.0000 0.0000 0.0000 0.0000 25.3067 0.0000
# 6 0.0000 0.0000 0.0000 0.0000 0.0000 -9.9643
#
#
#
# Elastic Compliance Matrix: (Units=1/GPa)
#
#
# Indices 1 2 3 4 5 6 
#
# 1 0.016020 -0.002771 0.001286 0.000000 0.000000 0.000000
# 2 -0.002771 0.012396 -0.004736 0.000000 0.000000 0.000000
# 3 0.001286 -0.004736 0.012578 0.000000 0.000000 0.000000
# 4 0.000000 0.000000 0.000000 0.042956 0.000000 0.000000
# 5 0.000000 0.000000 0.000000 0.000000 0.039515 0.000000
# 6 0.000000 0.000000 0.000000 0.000000 0.000000 -0.100358
#
#
# Mechanical properties :
#
#
# Convention : Reuss Voigt Hill
#
# Bulk Modulus (GPa) = 35.02376 38.96677 36.99526
# Shear Modulus (GPa) = 110.94802 21.54309 66.24555
#
# Velocity S-wave (km/s) = 6.68882 2.94743 5.16854
# Velocity P-wave (km/s) = 8.58936 5.22462 7.10893
#
# Compressibility (1/GPa) = 0.02855205
#
# Stress axis : x y z
#
# Youngs Moduli (GPa) = 62.42241 80.67031 79.50460
#
# Poissons Ratio (x) = 0.22357 -0.10227
# Poissons Ratio (y) = 0.17300 0.37653
# Poissons Ratio (z) = -0.08030 0.38205
#
# Static dielectric constant tensor:
#      x y z
#    x 2.038120 0.000000 0.000000 
#    y 0.000000 1.980920 0.000000 
#    z 0.000000 0.000000 1.911550 
# 
# From -- ./inp_files/26679.got.cif
#   From: 2010.05.17/outbox.cif.g08.bks.cpg/sg40_14_cif.got.tgz:26679.got - 2010.06.03 18:35:42.
