data_PCOD9364246
_publ_section_title
;
Structure prediction by ZEFSAII (Michael W. Deem and Ramdas Pophale) SiO2 
 PCOD9364246
Probable space group: A M A 2
;
_chemical_formula_sum "Si O2"
_cell_formula_units_Z 56
_cell_length_a 21.975630
_cell_length_b 9.093078
_cell_length_c 11.983351
_cell_angle_alpha 90.000000
_cell_angle_beta 90.000000
_cell_angle_gamma 90.000000
_cell_volume 2394.586507
_symmetry_space_group_name_H-M "A M A 2"
_symmetry_group_IT_number 40
_symmetry_cell_setting 'orthorhombic'
loop_
_space_group_symop_operation_xyz
x,y,z
-x,-y,z
1/2-x,y,z
1/2+x,-y,z
x,1/2+y,1/2+z
-x,1/2-y,1/2+z
1/2-x,1/2+y,1/2+z
1/2+x,1/2-y,1/2+z
loop_
_atom_site_type_symbol
_atom_site_label
_atom_site_fract_x
_atom_site_fract_y
_atom_site_fract_z
Si Si1 0.684871 0.281896 0.881770
Si Si2 0.949871 0.612550 0.079189
Si Si3 0.817652 0.586238 0.608349
Si Si4 0.818645 0.823106 0.804918
Si Si5 0.414759 0.415868 0.313231
Si Si6 0.940840 0.946471 0.047719
Si Si7 0.182526 0.409223 0.996528
O O1 0.750000 0.252125 0.826906
O O2 0.682721 0.451803 0.913200
O O3 0.627570 0.227479 0.815121
O O4 0.682770 0.185117 0.995772
O O5 0.960066 0.615672 0.212433
O O6 0.000000 0.500000 0.031547
O O7 0.951939 0.774540 0.028160
O O8 0.878981 0.567981 0.065529
O O9 0.750000 0.517020 0.616969
O O10 0.824914 0.700567 0.709340
O O11 0.875153 0.478512 0.602173
O O12 0.750000 0.884902 0.797373
O O13 0.869615 0.945803 0.794275
O O14 0.822687 0.738146 0.922823
O O15 0.440355 0.454384 0.435107
O O16 0.000000 0.000000 0.115933
O O17 0.250000 0.410903 0.051357
#
# Coordination Sequence:
#
# PCOD9364246 Si02
#       7
#     8   8   8   8   8   8   8
#     4   9  19  36  63  98 132 171 218 274 339 403
#     4  12  28  46  68 100 135 181 230 281 341 412
#     4   9  20  39  67  95 131 175 222 278 341 400
#     4  10  20  38  65 101 138 172 221 284 340 404
#     4  11  23  42  69  95 134 175 229 276 340 405
#     4  11  26  47  67  96 137 179 222 287 339 406
#     4  10  22  42  67  99 136 177 227 280 341 408
#
# _framework density 23.386085000000001
#
# number of rings (size 3 to 8) (size 9 to 14) (size 15 to 20)
#    0.000    1.714    1.429    1.714    8.000    3.429 
#    0.000    0.714    0.000    0.000    0.000    0.000 
#    0.000    0.000    0.000    0.000    0.000    0.000 
#
# Total GULP energy -156436.006410 kJ/mol
# GULP energy per Si atom -5587.000229 kJ/mol
# Density = 2.333286 g / cm^3
# Si number density = 23.386085 Si / 1000 Ang^3
#
#
#
# Elastic Constant Matrix: (Units=GPa)
#
#
# Indices 1 2 3 4 5 6 
#
# 1 132.8250 36.2186 5.5528 0.0000 0.0000 0.0000
# 2 36.2186 87.6864 -8.0975 0.0000 0.0000 0.0000
# 3 5.5528 -8.0975 33.7857 0.0000 0.0000 0.0000
# 4 0.0000 0.0000 0.0000 22.5913 0.0000 0.0000
# 5 0.0000 0.0000 0.0000 0.0000 16.3842 0.0000
# 6 0.0000 0.0000 0.0000 0.0000 0.0000 24.2345
#
#
#
# Elastic Compliance Matrix: (Units=1/GPa)
#
#
# Indices 1 2 3 4 5 6 
#
# 1 0.008660 -0.003793 -0.002332 0.000000 0.000000 0.000000
# 2 -0.003793 0.013323 0.003817 0.000000 0.000000 0.000000
# 3 -0.002332 0.003817 0.030896 0.000000 0.000000 0.000000
# 4 0.000000 0.000000 0.000000 0.044265 0.000000 0.000000
# 5 0.000000 0.000000 0.000000 0.000000 0.061034 0.000000
# 6 0.000000 0.000000 0.000000 0.000000 0.000000 0.041263
#
#
# Mechanical properties :
#
#
# Convention : Reuss Voigt Hill
#
# Bulk Modulus (GPa) = 20.71970 35.73835 28.22902
# Shear Modulus (GPa) = 22.71210 27.35022 25.03116
#
# Velocity S-wave (km/s) = 3.11976 3.42352 3.27516
# Velocity P-wave (km/s) = 4.67507 5.56259 5.13803
#
# Compressibility (1/GPa) = 0.04826325
#
# Stress axis : x y z
#
# Youngs Moduli (GPa) = 115.46883 75.05705 32.36627
#
# Poissons Ratio (x) = 0.28465 0.07549
# Poissons Ratio (y) = 0.43792 -0.12353
# Poissons Ratio (z) = 0.26931 -0.28646
#
# Static dielectric constant tensor:
#      x y z
#    x 1.937910 0.000000 0.000000 
#    y 0.000000 1.841730 0.000000 
#    z 0.000000 0.000000 1.909600 
# 
# From -- ./inp_files/18204.got.cif
#   From: 2010.05.17/outbox.cif.g08.bks.cpg/sg40_10_cif.got.tgz:18204.got - 2010.06.03 18:35:42.
