data_PCOD9364929
_publ_section_title
;
Structure prediction by ZEFSAII (Michael W. Deem and Ramdas Pophale) SiO2 
 PCOD9364929
Probable space group: A M A 2
;
_chemical_formula_sum "Si O2"
_cell_formula_units_Z 64
_cell_length_a 30.969246
_cell_length_b 10.945823
_cell_length_c 9.654437
_cell_angle_alpha 90.000000
_cell_angle_beta 90.000000
_cell_angle_gamma 90.000000
_cell_volume 3272.698563
_symmetry_space_group_name_H-M "A M A 2"
_symmetry_group_IT_number 40
_symmetry_cell_setting 'orthorhombic'
loop_
_space_group_symop_operation_xyz
x,y,z
-x,-y,z
1/2-x,y,z
1/2+x,-y,z
x,1/2+y,1/2+z
-x,1/2-y,1/2+z
1/2-x,1/2+y,1/2+z
1/2+x,1/2-y,1/2+z
loop_
_atom_site_type_symbol
_atom_site_label
_atom_site_fract_x
_atom_site_fract_y
_atom_site_fract_z
Si Si1 0.095578 0.642238 0.253110
Si Si2 0.441763 0.223437 0.030521
Si Si3 0.799757 0.499610 0.892390
Si Si4 0.577703 0.425033 0.789840
Si Si5 0.477529 0.112732 0.546745
Si Si6 0.636013 0.100528 0.625264
Si Si7 0.643367 0.625010 0.676706
Si Si8 0.844167 0.250433 0.883986
O O1 0.074532 0.641767 0.403724
O O2 0.057992 0.674996 0.143627
O O3 0.114903 0.515522 0.200924
O O4 0.132320 0.745422 0.247232
O O5 0.446994 0.144810 0.168798
O O6 0.486138 0.292626 0.000347
O O7 0.403046 0.318973 0.063190
O O8 0.750000 0.528481 0.916436
O O9 0.816253 0.555602 0.746283
O O10 0.807795 0.353803 0.900983
O O11 0.831840 0.557631 0.005757
O O12 0.603398 0.536588 0.719269
O O13 0.612918 0.332435 0.856785
O O14 0.546134 0.450487 0.916596
O O15 0.500000 0.000000 0.626946
O O16 0.660924 0.175814 0.742822
O O17 0.649907 0.661396 0.515864
#
# Coordination Sequence:
#
# PCOD9364929 Si02
#       8
#     8   8   8   8   8   8   8   8
#     4  12  21  39  65  90 125 172 216 259 317 380
#     4  11  23  38  60  89 128 168 217 263 315 369
#     4  11  24  43  67  97 127 160 204 258 324 389
#     4  10  22  39  59  90 121 168 212 261 314 372
#     4  12  22  38  57  87 128 168 218 271 312 365
#     4  11  22  42  67  93 124 169 208 258 318 382
#     4  11  20  41  67  92 124 171 210 257 320 387
#     4  10  22  41  68  90 125 160 209 254 313 377
#
# _framework density 19.555727999999998
#
# number of rings (size 3 to 8) (size 9 to 14) (size 15 to 20)
#    0.000    1.000    5.000    3.000    0.000    1.000 
#    0.000    0.625    0.000    0.000    0.000    0.000 
#    0.000    0.000    0.000    0.000    0.000    0.000 
#
# Total GULP energy -178723.914575 kJ/mol
# GULP energy per Si atom -5585.122330 kJ/mol
# Density = 1.951122 g / cm^3
# Si number density = 19.555728 Si / 1000 Ang^3
#
#
#
# Elastic Constant Matrix: (Units=GPa)
#
#
# Indices 1 2 3 4 5 6 
#
# 1 51.9144 16.8717 18.0853 0.0000 0.0000 0.0000
# 2 16.8717 71.5156 39.2575 0.0000 0.0000 0.0000
# 3 18.0853 39.2575 108.1945 0.0000 0.0000 0.0000
# 4 0.0000 0.0000 0.0000 41.9048 0.0000 0.0000
# 5 0.0000 0.0000 0.0000 0.0000 7.8500 0.0000
# 6 0.0000 0.0000 0.0000 0.0000 0.0000 15.0367
#
#
#
# Elastic Compliance Matrix: (Units=1/GPa)
#
#
# Indices 1 2 3 4 5 6 
#
# 1 0.021261 -0.003827 -0.002165 0.000000 0.000000 0.000000
# 2 -0.003827 0.018150 -0.005946 0.000000 0.000000 0.000000
# 3 -0.002165 -0.005946 0.011762 0.000000 0.000000 0.000000
# 4 0.000000 0.000000 0.000000 0.023864 0.000000 0.000000
# 5 0.000000 0.000000 0.000000 0.000000 0.127389 0.000000
# 6 0.000000 0.000000 0.000000 0.000000 0.000000 0.066504
#
#
# Mechanical properties :
#
#
# Convention : Reuss Voigt Hill
#
# Bulk Modulus (GPa) = 36.63542 42.22818 39.43180
# Shear Modulus (GPa) = 16.56160 23.45229 20.00694
#
# Velocity S-wave (km/s) = 2.91330 3.46678 3.20202
# Velocity P-wave (km/s) = 5.48552 6.13722 5.82050
#
# Compressibility (1/GPa) = 0.02729599
#
# Stress axis : x y z
#
# Youngs Moduli (GPa) = 47.03547 55.09735 85.02030
#
# Poissons Ratio (x) = 0.21087 0.18408
# Poissons Ratio (y) = 0.18001 0.50551
# Poissons Ratio (z) = 0.10184 0.32759
#
# Static dielectric constant tensor:
#      x y z
#    x 1.672090 0.000000 0.000000 
#    y 0.000000 1.709060 0.000000 
#    z 0.000000 0.000000 1.695640 
# 
# From -- ./inp_files/9455.got.cif
#   From: 2010.05.17/outbox.cif.g08.bks.cpg/sg40_5_cif.got.tgz:9455.got - 2010.06.03 18:35:42.
