data_PCOD9364348
_publ_section_title
;
Structure prediction by ZEFSAII (Michael W. Deem and Ramdas Pophale) SiO2 
 PCOD9364348
Probable space group: A M A 2
;
_chemical_formula_sum "Si O2"
_cell_formula_units_Z 36
_cell_length_a 22.194044
_cell_length_b 4.991187
_cell_length_c 13.648451
_cell_angle_alpha 90.000000
_cell_angle_beta 90.000000
_cell_angle_gamma 90.000000
_cell_volume 1511.902026
_symmetry_space_group_name_H-M "A M A 2"
_symmetry_group_IT_number 40
_symmetry_cell_setting 'orthorhombic'
loop_
_space_group_symop_operation_xyz
x,y,z
-x,-y,z
1/2-x,y,z
1/2+x,-y,z
x,1/2+y,1/2+z
-x,1/2-y,1/2+z
1/2-x,1/2+y,1/2+z
1/2+x,1/2-y,1/2+z
loop_
_atom_site_type_symbol
_atom_site_label
_atom_site_fract_x
_atom_site_fract_y
_atom_site_fract_z
Si Si1 0.250000 0.918865 0.067840
Si Si2 0.433463 0.609270 0.700522
Si Si3 0.250000 0.061117 0.421239
Si Si4 0.383700 0.081475 0.807015
Si Si5 0.141606 0.757683 0.522023
Si Si6 0.250000 0.119516 0.759309
O O1 0.250000 0.681909 0.144583
O O2 0.189209 0.077096 0.081354
O O3 0.250000 0.871902 0.949495
O O4 0.500000 0.500000 0.683373
O O5 0.427872 0.839549 0.781910
O O6 0.409844 0.768416 0.603688
O O7 0.397543 0.348800 0.743261
O O8 0.187665 0.979516 0.477350
O O9 0.250000 0.902378 0.320335
O O10 0.315001 0.990562 0.780893
O O11 0.385545 0.139522 0.922394
#
# Coordination Sequence:
#
# PCOD9364348 Si02
#       6
#     4   8   4   8   8   4
#     4  11  19  37  66 100 135 170 211 278 347 409
#     4  12  27  47  69  96 135 186 234 274 328 397
#     4   9  21  37  63 103 133 170 215 272 349 411
#     4  11  26  45  71 103 134 177 223 284 340 405
#     4  10  24  40  67 100 134 174 224 278 343 398
#     4  10  20  40  69 101 138 170 212 282 350 402
#
# _framework density 23.811066
#
# number of rings (size 3 to 8) (size 9 to 14) (size 15 to 20)
#    0.000    1.333    2.222    2.667    6.222    3.556 
#    0.000    0.000    0.000    0.000    0.000    0.000 
#    0.000    0.000    0.000    0.000    0.000    0.000 
#
# Total GULP energy -100388.498540 kJ/mol
# GULP energy per Si atom -5577.138808 kJ/mol
# Density = 2.375687 g / cm^3
# Si number density = 23.811066 Si / 1000 Ang^3
#
#
#
# Elastic Constant Matrix: (Units=GPa)
#
#
# Indices 1 2 3 4 5 6 
#
# 1 71.1395 -6.9208 29.1189 0.0000 0.0000 0.0000
# 2 -6.9208 52.3828 1.3423 0.0000 0.0000 0.0000
# 3 29.1189 1.3423 105.7456 0.0000 0.0000 0.0000
# 4 0.0000 0.0000 0.0000 27.8866 0.0000 0.0000
# 5 0.0000 0.0000 0.0000 0.0000 -25.8588 0.0000
# 6 0.0000 0.0000 0.0000 0.0000 0.0000 2.5274
#
#
#
# Elastic Compliance Matrix: (Units=1/GPa)
#
#
# Indices 1 2 3 4 5 6 
#
# 1 0.016101 0.002242 -0.004462 0.000000 0.000000 0.000000
# 2 0.002242 0.019409 -0.000864 0.000000 0.000000 0.000000
# 3 -0.004462 -0.000864 0.010696 0.000000 0.000000 0.000000
# 4 0.000000 0.000000 0.000000 0.035859 0.000000 0.000000
# 5 0.000000 0.000000 0.000000 0.000000 -0.038672 0.000000
# 6 0.000000 0.000000 0.000000 0.000000 0.000000 0.395670
#
#
# Mechanical properties :
#
#
# Convention : Reuss Voigt Hill
#
# Bulk Modulus (GPa) = 24.97635 30.70542 27.84088
# Shear Modulus (GPa) = 10.90326 14.62621 12.76474
#
# Velocity S-wave (km/s) = 2.14220 2.48112 2.31786
# Velocity P-wave (km/s) = 4.07809 4.59689 4.34524
#
# Compressibility (1/GPa) = 0.04003788
#
# Stress axis : x y z
#
# Youngs Moduli (GPa) = 62.10612 51.52369 93.48951
#
# Poissons Ratio (x) = -0.11550 0.41718
# Poissons Ratio (y) = -0.13922 0.08074
# Poissons Ratio (z) = 0.27713 0.04450
#
# Static dielectric constant tensor:
#      x y z
#    x 2.250670 0.000000 0.000000 
#    y 0.000000 2.111650 0.000000 
#    z 0.000000 0.000000 1.877840 
# 
# From -- ./inp_files/13817.got.cif
#   From: 2010.05.17/outbox.cif.g08.bks.cpg/sg40_7_cif.got.tgz:13817.got - 2010.06.03 18:35:42.
