data_PCOD9364383
_publ_section_title
;
Structure prediction by ZEFSAII (Michael W. Deem and Ramdas Pophale) SiO2 
 PCOD9364383
Probable space group: A M A 2
;
_chemical_formula_sum "Si O2"
_cell_formula_units_Z 36
_cell_length_a 12.266803
_cell_length_b 18.055593
_cell_length_c 6.627705
_cell_angle_alpha 90.000000
_cell_angle_beta 90.000000
_cell_angle_gamma 90.000000
_cell_volume 1467.933281
_symmetry_space_group_name_H-M "A M A 2"
_symmetry_group_IT_number 40
_symmetry_cell_setting 'orthorhombic'
loop_
_space_group_symop_operation_xyz
x,y,z
-x,-y,z
1/2-x,y,z
1/2+x,-y,z
x,1/2+y,1/2+z
-x,1/2-y,1/2+z
1/2-x,1/2+y,1/2+z
1/2+x,1/2-y,1/2+z
loop_
_atom_site_type_symbol
_atom_site_label
_atom_site_fract_x
_atom_site_fract_y
_atom_site_fract_z
Si Si1 0.590198 0.271503 0.892160
Si Si2 0.250000 0.183514 0.042431
Si Si3 0.250000 0.511145 0.451665
Si Si4 0.250000 0.900370 0.574607
Si Si5 0.500000 0.000000 0.970287
Si Si6 0.989138 0.142466 0.705771
Si Si7 0.750000 0.195137 0.195194
O O1 0.651702 0.299073 0.695108
O O2 0.492866 0.219415 0.821031
O O3 0.558270 0.345973 0.006327
O O4 0.653089 0.213774 0.038637
O O5 0.250000 0.100112 0.961882
O O6 0.250000 0.240109 0.859604
O O7 0.250000 0.474940 0.221625
O O8 0.371660 0.489734 0.549272
O O9 0.137471 0.863232 0.644836
O O10 0.250000 0.880104 0.331454
O O11 0.516555 0.927872 0.834316
#
# Coordination Sequence:
#
# PCOD9364383 Si02
#       7
#     8   4   4   4   4   8   4
#     4  11  24  38  74 110 141 193 262 323 397 475
#     4  11  23  45  73 105 148 203 259 329 399 470
#     4  10  23  43  74 103 149 203 257 318 404 478
#     4  10  20  42  67  97 141 195 240 318 393 465
#     4  10  24  44  76  98 152 208 238 318 404 462
#     4  11  22  42  68 104 143 189 254 318 394 469
#     4  11  20  42  70 101 146 189 256 321 390 481
#
# _framework density 24.524274999999999
#
# number of rings (size 3 to 8) (size 9 to 14) (size 15 to 20)
#    0.000    1.333    2.222    3.333    3.111    0.889 
#    0.000    1.111   53.778    0.000    0.000    0.000 
#    0.000    0.000    0.000    0.000    0.000    0.000 
#
# Total GULP energy -100214.409442 kJ/mol
# GULP energy per Si atom -5567.467191 kJ/mol
# Density = 2.446846 g / cm^3
# Si number density = 24.524275 Si / 1000 Ang^3
#
#
#
# Elastic Constant Matrix: (Units=GPa)
#
#
# Indices 1 2 3 4 5 6 
#
# 1 140.2940 9.7372 49.4422 0.0000 0.0000 0.0000
# 2 9.7372 126.8435 30.4532 0.0000 0.0000 0.0000
# 3 49.4422 30.4532 105.1492 0.0000 0.0000 0.0000
# 4 0.0000 0.0000 0.0000 35.1383 0.0000 0.0000
# 5 0.0000 0.0000 0.0000 0.0000 52.5505 0.0000
# 6 0.0000 0.0000 0.0000 0.0000 0.0000 23.7284
#
#
#
# Elastic Compliance Matrix: (Units=1/GPa)
#
#
# Indices 1 2 3 4 5 6 
#
# 1 0.008557 0.000332 -0.004120 0.000000 0.000000 0.000000
# 2 0.000332 0.008486 -0.002614 0.000000 0.000000 0.000000
# 3 -0.004120 -0.002614 0.012204 0.000000 0.000000 0.000000
# 4 0.000000 0.000000 0.000000 0.028459 0.000000 0.000000
# 5 0.000000 0.000000 0.000000 0.000000 0.019029 0.000000
# 6 0.000000 0.000000 0.000000 0.000000 0.000000 0.042144
#
#
# Mechanical properties :
#
#
# Convention : Reuss Voigt Hill
#
# Bulk Modulus (GPa) = 60.81140 61.28355 61.04747
# Shear Modulus (GPa) = 36.45304 41.12705 38.79004
#
# Velocity S-wave (km/s) = 3.85958 4.09955 3.98137
# Velocity P-wave (km/s) = 6.68670 6.88851 6.78836
#
# Compressibility (1/GPa) = 0.01644429
#
# Stress axis : x y z
#
# Youngs Moduli (GPa) = 116.86794 117.84431 81.93757
#
# Poissons Ratio (x) = -0.03915 0.33755
# Poissons Ratio (y) = -0.03882 0.21417
# Poissons Ratio (z) = 0.48145 0.30803
#
# Static dielectric constant tensor:
#      x y z
#    x 2.110670 0.000000 0.000000 
#    y 0.000000 1.913080 0.000000 
#    z 0.000000 0.000000 1.938690 
# 
# From -- ./inp_files/1174.got.cif
#   From: 2010.05.17/outbox.cif.g08.bks.cpg/sg40_1_cif.got.tgz:1174.got - 2010.06.03 18:35:42.
