data_PCOD9364048
_publ_section_title
;
Structure prediction by ZEFSAII (Michael W. Deem and Ramdas Pophale) SiO2 
 PCOD9364048
Probable space group: A M A 2
;
_chemical_formula_sum "Si O2"
_cell_formula_units_Z 64
_cell_length_a 14.739669
_cell_length_b 9.391590
_cell_length_c 23.164989
_cell_angle_alpha 90.000000
_cell_angle_beta 90.000000
_cell_angle_gamma 90.000000
_cell_volume 3206.704594
_symmetry_space_group_name_H-M "A M A 2"
_symmetry_group_IT_number 40
_symmetry_cell_setting 'orthorhombic'
loop_
_space_group_symop_operation_xyz
x,y,z
-x,-y,z
1/2-x,y,z
1/2+x,-y,z
x,1/2+y,1/2+z
-x,1/2-y,1/2+z
1/2-x,1/2+y,1/2+z
1/2+x,1/2-y,1/2+z
loop_
_atom_site_type_symbol
_atom_site_label
_atom_site_fract_x
_atom_site_fract_y
_atom_site_fract_z
Si Si1 0.647950 0.342381 0.446380
Si Si2 0.974912 0.849212 0.478699
Si Si3 0.856615 0.953650 0.369869
Si Si4 0.481316 0.163487 0.713061
Si Si5 0.597357 0.074501 0.035984
Si Si6 0.355998 0.139884 0.241034
Si Si7 0.856387 0.774328 0.823601
Si Si8 0.648347 0.629124 0.661275
O O1 0.750000 0.280104 0.450787
O O2 0.568558 0.234760 0.465237
O O3 0.642715 0.481728 0.485728
O O4 0.632826 0.376719 0.378898
O O5 0.919906 0.894286 0.420615
O O6 0.916465 0.736489 0.515119
O O7 0.000000 0.000000 0.507612
O O8 0.750000 0.944463 0.386162
O O9 0.869780 0.871430 0.309662
O O10 0.874728 0.117267 0.350446
O O11 0.576482 0.243460 0.717620
O O12 0.422883 0.187195 0.771846
O O13 0.421991 0.243053 0.665155
O O14 0.500000 0.000000 0.702625
O O15 0.645510 0.065703 0.097368
O O16 0.500000 0.000000 0.044323
O O17 0.250000 0.168870 0.230024
O O18 0.376452 0.990112 0.209007
O O19 0.750000 0.775544 0.805828
O O20 0.750000 0.677501 0.674371
#
# Coordination Sequence:
#
# PCOD9364048 Si02
#       8
#     8   8   8   8   8   8   8   8
#     4  10  21  38  59  87 127 170 209 256 308 364
#     4  11  22  36  61  91 126 164 205 257 309 372
#     4  10  20  36  61  93 126 163 211 256 303 365
#     4  12  25  38  62  95 129 164 197 257 325 380
#     4  10  23  41  62  91 124 166 214 257 308 370
#     4  10  22  39  64  93 121 163 214 258 302 364
#     4  10  20  37  61  91 130 170 207 250 311 375
#     4  11  23  44  70  90 116 162 216 261 306 372
#
# _framework density 19.958182999999998
#
# number of rings (size 3 to 8) (size 9 to 14) (size 15 to 20)
#    0.000    1.500    2.500    2.625    0.000    5.000 
#    0.000    2.500    0.000    0.000    0.000    0.000 
#    0.000    0.000    0.000    0.000    0.000    0.000 
#
# Total GULP energy -178747.212940 kJ/mol
# GULP energy per Si atom -5585.850404 kJ/mol
# Density = 1.991276 g / cm^3
# Si number density = 19.958183 Si / 1000 Ang^3
#
#
#
# Elastic Constant Matrix: (Units=GPa)
#
#
# Indices 1 2 3 4 5 6 
#
# 1 72.6967 38.7756 11.6215 0.0000 0.0000 0.0000
# 2 38.7756 102.8602 18.4825 0.0000 0.0000 0.0000
# 3 11.6215 18.4825 70.9361 0.0000 0.0000 0.0000
# 4 0.0000 0.0000 0.0000 24.9315 0.0000 0.0000
# 5 0.0000 0.0000 0.0000 0.0000 -3.7131 0.0000
# 6 0.0000 0.0000 0.0000 0.0000 0.0000 -4.1811
#
#
#
# Elastic Compliance Matrix: (Units=1/GPa)
#
#
# Indices 1 2 3 4 5 6 
#
# 1 0.017313 -0.006313 -0.001192 0.000000 0.000000 0.000000
# 2 -0.006313 0.012501 -0.002223 0.000000 0.000000 0.000000
# 3 -0.001192 -0.002223 0.014872 0.000000 0.000000 0.000000
# 4 0.000000 0.000000 0.000000 0.040110 0.000000 0.000000
# 5 0.000000 0.000000 0.000000 0.000000 -0.269314 0.000000
# 6 0.000000 0.000000 0.000000 0.000000 0.000000 -0.239173
#
#
# Mechanical properties :
#
#
# Convention : Reuss Voigt Hill
#
# Bulk Modulus (GPa) = 39.63291 42.69467 41.16379
# Shear Modulus (GPa) = -12.63181 15.24836 1.30827
#
# Velocity S-wave (km/s) = -2.51851 2.76708 0.81051
# Velocity P-wave (km/s) = 3.38289 5.62561 4.64173
#
# Compressibility (1/GPa) = 0.02523156
#
# Stress axis : x y z
#
# Youngs Moduli (GPa) = 57.75897 79.99344 67.24210
#
# Poissons Ratio (x) = 0.50496 0.08013
# Poissons Ratio (y) = 0.36461 0.14948
# Poissons Ratio (z) = 0.06883 0.17782
#
# Static dielectric constant tensor:
#      x y z
#    x 1.731850 0.000000 0.000000 
#    y 0.000000 1.703870 0.000000 
#    z 0.000000 0.000000 1.706610 
# 
# From -- ./inp_files/24791.got.cif
#   From: 2010.05.17/outbox.cif.g08.bks.cpg/sg40_13_cif.got.tgz:24791.got - 2010.06.03 18:35:42.
