data_PCOD9364504
_publ_section_title
;
Structure prediction by ZEFSAII (Michael W. Deem and Ramdas Pophale) SiO2 
 PCOD9364504
Probable space group: A M A 2
;
_chemical_formula_sum "Si O2"
_cell_formula_units_Z 64
_cell_length_a 8.764276
_cell_length_b 29.144185
_cell_length_c 13.221642
_cell_angle_alpha 90.000000
_cell_angle_beta 90.000000
_cell_angle_gamma 90.000000
_cell_volume 3377.173357
_symmetry_space_group_name_H-M "A M A 2"
_symmetry_group_IT_number 40
_symmetry_cell_setting 'orthorhombic'
loop_
_space_group_symop_operation_xyz
x,y,z
-x,-y,z
1/2-x,y,z
1/2+x,-y,z
x,1/2+y,1/2+z
-x,1/2-y,1/2+z
1/2-x,1/2+y,1/2+z
1/2+x,1/2-y,1/2+z
loop_
_atom_site_type_symbol
_atom_site_label
_atom_site_fract_x
_atom_site_fract_y
_atom_site_fract_z
Si Si1 0.932167 0.859503 0.434330
Si Si2 0.433108 0.551210 0.548211
Si Si3 0.419687 0.292777 0.285678
Si Si4 0.423328 0.205781 0.146075
Si Si5 0.930190 0.114627 0.223492
Si Si6 0.571182 0.741696 0.950301
Si Si7 0.933382 0.448637 0.319749
Si Si8 0.431975 0.381110 0.151140
O O1 0.750000 0.860414 0.431464
O O2 0.996801 0.885680 0.335675
O O3 0.988246 0.806401 0.429695
O O4 0.992675 0.880017 0.540419
O O5 0.500000 0.500000 0.553582
O O6 0.250000 0.550036 0.555513
O O7 0.499993 0.580081 0.640982
O O8 0.471734 0.568970 0.434054
O O9 0.250000 0.303703 0.327845
O O10 0.408911 0.243883 0.231537
O O11 0.543987 0.281942 0.369416
O O12 0.457601 0.331858 0.205166
O O13 0.250000 0.188474 0.123608
O O14 0.529226 0.164811 0.180175
O O15 0.484807 0.234689 0.052432
O O16 0.750000 0.107817 0.231491
O O17 0.750000 0.730876 0.960805
O O18 0.750000 0.449930 0.311681
O O19 0.000000 0.500000 0.312429
O O20 0.001522 0.417970 0.229950
O O21 0.250000 0.387259 0.140102
#
# Coordination Sequence:
#
# PCOD9364504 Si02
#       8
#     8   8   8   8   8   8   8   8
#     4  12  24  40  61  85 121 164 207 254 307 363
#     4  10  22  43  69  96 127 159 197 248 304 363
#     4  10  21  37  56  82 119 160 202 249 301 356
#     4  10  21  38  56  81 119 161 203 252 302 353
#     4  12  25  40  62  91 122 162 209 252 304 365
#     4  11  22  37  56  80 116 160 206 255 304 356
#     4  10  22  42  68  97 126 160 198 245 304 363
#     4  11  23  41  63  90 124 162 206 255 304 362
#
# _framework density 18.950758
#
# number of rings (size 3 to 8) (size 9 to 14) (size 15 to 20)
#    0.000    1.250    2.500    3.750    1.750    3.500 
#    0.000    0.625    0.000    0.000    0.000    0.000 
#    0.000    0.000    0.000    0.000    0.000    0.000 
#
# Total GULP energy -178631.153848 kJ/mol
# GULP energy per Si atom -5582.223558 kJ/mol
# Density = 1.890763 g / cm^3
# Si number density = 18.950758 Si / 1000 Ang^3
#
#
#
# Elastic Constant Matrix: (Units=GPa)
#
#
# Indices 1 2 3 4 5 6 
#
# 1 103.4128 46.0050 71.7426 0.0000 0.0000 0.0000
# 2 46.0050 72.9307 66.6360 0.0000 0.0000 0.0000
# 3 71.7426 66.6360 162.8255 0.0000 0.0000 0.0000
# 4 0.0000 0.0000 0.0000 37.0894 0.0000 0.0000
# 5 0.0000 0.0000 0.0000 0.0000 28.1621 0.0000
# 6 0.0000 0.0000 0.0000 0.0000 0.0000 8.5572
#
#
#
# Elastic Compliance Matrix: (Units=1/GPa)
#
#
# Indices 1 2 3 4 5 6 
#
# 1 0.015213 -0.005545 -0.004433 0.000000 0.000000 0.000000
# 2 -0.005545 0.023922 -0.007347 0.000000 0.000000 0.000000
# 3 -0.004433 -0.007347 0.011102 0.000000 0.000000 0.000000
# 4 0.000000 0.000000 0.000000 0.026962 0.000000 0.000000
# 5 0.000000 0.000000 0.000000 0.000000 0.035509 0.000000
# 6 0.000000 0.000000 0.000000 0.000000 0.000000 0.116861
#
#
# Mechanical properties :
#
#
# Convention : Reuss Voigt Hill
#
# Bulk Modulus (GPa) = 64.16275 78.65958 71.41116
# Shear Modulus (GPa) = 18.55878 25.08078 21.81978
#
# Velocity S-wave (km/s) = 3.13280 3.64190 3.39690
# Velocity P-wave (km/s) = 6.85689 7.69948 7.29037
#
# Compressibility (1/GPa) = 0.01558537
#
# Stress axis : x y z
#
# Youngs Moduli (GPa) = 65.73482 41.80173 90.07712
#
# Poissons Ratio (x) = 0.23181 0.39935
# Poissons Ratio (y) = 0.36453 0.66178
# Poissons Ratio (z) = 0.29143 0.30711
#
# Static dielectric constant tensor:
#      x y z
#    x 1.659460 0.000000 0.000000 
#    y 0.000000 1.630940 0.000000 
#    z 0.000000 0.000000 1.704600 
# 
# From -- ./inp_files/10665.got.cif
#   From: 2010.05.17/outbox.cif.g08.bks.cpg/sg40_6_cif.got.tgz:10665.got - 2010.06.03 18:35:42.
