data_PCOD9364545
_publ_section_title
;
Structure prediction by ZEFSAII (Michael W. Deem and Ramdas Pophale) SiO2 
 PCOD9364545
Probable space group: A M A 2
;
_chemical_formula_sum "Si O2"
_cell_formula_units_Z 64
_cell_length_a 14.182163
_cell_length_b 10.978469
_cell_length_c 17.281139
_cell_angle_alpha 90.000000
_cell_angle_beta 90.000000
_cell_angle_gamma 90.000000
_cell_volume 2690.646329
_symmetry_space_group_name_H-M "A M A 2"
_symmetry_group_IT_number 40
_symmetry_cell_setting 'orthorhombic'
loop_
_space_group_symop_operation_xyz
x,y,z
-x,-y,z
1/2-x,y,z
1/2+x,-y,z
x,1/2+y,1/2+z
-x,1/2-y,1/2+z
1/2-x,1/2+y,1/2+z
1/2+x,1/2-y,1/2+z
loop_
_atom_site_type_symbol
_atom_site_label
_atom_site_fract_x
_atom_site_fract_y
_atom_site_fract_z
Si Si1 0.441018 0.167685 0.000000
Si Si2 0.359563 0.781540 0.236225
Si Si3 0.552020 0.797598 0.173305
Si Si4 0.394960 0.449725 0.972104
Si Si5 0.362125 0.415229 0.438339
Si Si6 0.355051 0.554021 0.305937
Si Si7 0.609928 0.534570 0.140525
Si Si8 0.146776 0.551189 0.803227
O O1 0.401054 0.301398 0.977288
O O2 0.553066 0.161001 0.977470
O O3 0.384225 0.056089 0.961813
O O4 0.430796 0.137812 0.091463
O O5 0.250000 0.757646 0.216184
O O6 0.440545 0.768213 0.173026
O O7 0.392662 0.691548 0.306171
O O8 0.359892 0.920378 0.262729
O O9 0.612648 0.675979 0.163542
O O10 0.575609 0.865730 0.253529
O O11 0.500000 0.500000 0.974846
O O12 0.359447 0.514037 0.893739
O O13 0.351377 0.487024 0.054918
O O14 0.250000 0.381162 0.449998
O O15 0.391788 0.432757 0.347534
O O16 0.250000 0.561903 0.337461
O O17 0.351598 0.533298 0.214466
O O18 0.500000 0.500000 0.138116
O O19 0.250000 0.606997 0.790905
#
# Coordination Sequence:
#
# PCOD9364545 Si02
#       8
#     8   8   8   8   8   8   8   8
#     4  10  24  41  67  99 130 180 229 273 349 407
#     4  10  21  37  63  92 123 168 217 264 327 403
#     4  11  23  41  64  95 133 173 224 279 331 407
#     4  10  22  43  65  92 132 179 226 276 333 411
#     4  10  23  41  66  98 134 169 220 285 339 404
#     4  10  21  38  62  95 122 160 217 273 329 395
#     4  10  21  39  67  93 124 171 223 274 340 398
#     4  11  25  41  63  96 135 179 221 271 341 411
#
# _framework density 23.786107000000001
#
# number of rings (size 3 to 8) (size 9 to 14) (size 15 to 20)
#    0.000    1.750    1.250    1.875    5.250    5.500 
#    0.000    4.375    0.000    0.750    0.000    0.000 
#    0.000    0.000    0.000    0.000    0.000    0.000 
#
# Total GULP energy -178187.728089 kJ/mol
# GULP energy per Si atom -5568.366503 kJ/mol
# Density = 2.373197 g / cm^3
# Si number density = 23.786107 Si / 1000 Ang^3
#
#
#
# Elastic Constant Matrix: (Units=GPa)
#
#
# Indices 1 2 3 4 5 6 
#
# 1 116.4592 4.1807 25.0636 0.0000 0.0000 0.0000
# 2 4.1807 51.6834 25.4283 0.0000 0.0000 0.0000
# 3 25.0636 25.4283 120.1342 0.0000 0.0000 0.0000
# 4 0.0000 0.0000 0.0000 21.9077 0.0000 0.0000
# 5 0.0000 0.0000 0.0000 0.0000 3.3307 0.0000
# 6 0.0000 0.0000 0.0000 0.0000 0.0000 -7.4504
#
#
#
# Elastic Compliance Matrix: (Units=1/GPa)
#
#
# Indices 1 2 3 4 5 6 
#
# 1 0.008993 0.000218 -0.001922 0.000000 0.000000 0.000000
# 2 0.000218 0.021603 -0.004618 0.000000 0.000000 0.000000
# 3 -0.001922 -0.004618 0.009703 0.000000 0.000000 0.000000
# 4 0.000000 0.000000 0.000000 0.045646 0.000000 0.000000
# 5 0.000000 0.000000 0.000000 0.000000 0.300241 0.000000
# 6 0.000000 0.000000 0.000000 0.000000 0.000000 -0.134221
#
#
# Mechanical properties :
#
#
# Convention : Reuss Voigt Hill
#
# Bulk Modulus (GPa) = 36.16121 44.18021 40.17071
# Shear Modulus (GPa) = 18.25974 19.13120 18.69547
#
# Velocity S-wave (km/s) = 2.77368 2.83910 2.80658
# Velocity P-wave (km/s) = 5.04910 5.41863 5.23713
#
# Compressibility (1/GPa) = 0.02765394
#
# Stress axis : x y z
#
# Youngs Moduli (GPa) = 111.20284 46.28970 103.06521
#
# Poissons Ratio (x) = -0.01011 0.19813
# Poissons Ratio (y) = -0.02428 0.47597
# Poissons Ratio (z) = 0.21377 0.21377
#
# Static dielectric constant tensor:
#      x y z
#    x 1.899820 0.000000 0.000000 
#    y 0.000000 3.217080 0.000000 
#    z 0.000000 0.000000 2.042230 
# 
# From -- ./inp_files/20812.got.cif
#   From: 2010.05.17/outbox.cif.g08.bks.cpg/sg40_11_cif.got.tgz:20812.got - 2010.06.03 18:35:42.
