data_PCOD9364977
_publ_section_title
;
Structure prediction by ZEFSAII (Michael W. Deem and Ramdas Pophale) SiO2 
 PCOD9364977
Probable space group: A M A 2
;
_chemical_formula_sum "Si O2"
_cell_formula_units_Z 44
_cell_length_a 25.966282
_cell_length_b 13.689023
_cell_length_c 4.784496
_cell_angle_alpha 90.000000
_cell_angle_beta 90.000000
_cell_angle_gamma 90.000000
_cell_volume 1700.663608
_symmetry_space_group_name_H-M "A M A 2"
_symmetry_group_IT_number 40
_symmetry_cell_setting 'orthorhombic'
loop_
_space_group_symop_operation_xyz
x,y,z
-x,-y,z
1/2-x,y,z
1/2+x,-y,z
x,1/2+y,1/2+z
-x,1/2-y,1/2+z
1/2-x,1/2+y,1/2+z
1/2+x,1/2-y,1/2+z
loop_
_atom_site_type_symbol
_atom_site_label
_atom_site_fract_x
_atom_site_fract_y
_atom_site_fract_z
Si Si1 0.138928 0.605381 0.470100
Si Si2 0.500000 0.500000 0.271456
Si Si3 0.635552 0.191193 0.795961
Si Si4 0.477309 0.303648 0.562599
Si Si5 0.750000 0.733471 0.396577
Si Si6 0.250000 0.635800 0.398816
Si Si7 0.105483 0.497779 0.973477
O O1 0.131115 0.711434 0.602994
O O2 0.199046 0.581510 0.484879
O O3 0.110961 0.523228 0.651877
O O4 0.124680 0.592554 0.148115
O O5 0.502286 0.404304 0.461569
O O6 0.452141 0.486731 0.069940
O O7 0.583828 0.192420 0.990359
O O8 0.692314 0.190275 0.943176
O O9 0.633812 0.097167 0.592349
O O10 0.493681 0.278506 0.876088
O O11 0.750000 0.833231 0.577262
O O12 0.750000 0.762188 0.069425
#
# Coordination Sequence:
#
# PCOD9364977 Si02
#       7
#     8   4   8   8   4   4   8
#     4  11  23  42  63  91 126 165 210 263 317 380
#     4  10  24  42  62  96 132 162 214 270 314 382
#     4  10  24  42  65  94 130 169 216 268 326 389
#     4  11  24  41  66  94 127 172 215 265 329 388
#     4  10  22  40  64  92 127 168 211 268 324 384
#     4  10  22  40  66  92 125 166 211 264 320 376
#     4  11  25  40  66  95 126 170 214 261 323 386
#
# _framework density 25.872252
#
# number of rings (size 3 to 8) (size 9 to 14) (size 15 to 20)
#    0.000    1.455    0.000    4.364    0.000   16.000 
#    0.000    0.000    0.000    0.000    0.000    0.000 
#    0.000    0.000    0.000    0.000    0.000    0.000 
#
# Total GULP energy -123328.887924 kJ/mol
# GULP energy per Si atom -5605.858542 kJ/mol
# Density = 2.581337 g / cm^3
# Si number density = 25.872252 Si / 1000 Ang^3
#
#
#
# Elastic Constant Matrix: (Units=GPa)
#
#
# Indices 1 2 3 4 5 6 
#
# 1 158.5766 31.8314 18.1161 0.0000 0.0000 0.0000
# 2 31.8314 125.3973 21.1839 0.0000 0.0000 0.0000
# 3 18.1161 21.1839 80.8946 0.0000 0.0000 0.0000
# 4 0.0000 0.0000 0.0000 30.8786 0.0000 0.0000
# 5 0.0000 0.0000 0.0000 0.0000 19.8095 0.0000
# 6 0.0000 0.0000 0.0000 0.0000 0.0000 27.6261
#
#
#
# Elastic Compliance Matrix: (Units=1/GPa)
#
#
# Indices 1 2 3 4 5 6 
#
# 1 0.006739 -0.001523 -0.001110 0.000000 0.000000 0.000000
# 2 -0.001523 0.008688 -0.001934 0.000000 0.000000 0.000000
# 3 -0.001110 -0.001934 0.013117 0.000000 0.000000 0.000000
# 4 0.000000 0.000000 0.000000 0.032385 0.000000 0.000000
# 5 0.000000 0.000000 0.000000 0.000000 0.050481 0.000000
# 6 0.000000 0.000000 0.000000 0.000000 0.000000 0.036198
#
#
# Mechanical properties :
#
#
# Convention : Reuss Voigt Hill
#
# Bulk Modulus (GPa) = 51.52288 56.34793 53.93540
# Shear Modulus (GPa) = 30.63517 35.24533 32.94025
#
# Velocity S-wave (km/s) = 3.44480 3.69492 3.57205
# Velocity P-wave (km/s) = 5.98162 6.32691 6.15668
#
# Compressibility (1/GPa) = 0.01940885
#
# Stress axis : x y z
#
# Youngs Moduli (GPa) = 148.39756 115.10149 76.23770
#
# Poissons Ratio (x) = 0.17530 0.08464
# Poissons Ratio (y) = 0.22601 0.14745
# Poissons Ratio (z) = 0.16476 0.22261
#
# Static dielectric constant tensor:
#      x y z
#    x 2.062240 0.000000 0.000000 
#    y 0.000000 2.009150 0.000000 
#    z 0.000000 0.000000 1.952410 
# 
# From -- ./inp_files/3060.got.cif
#   From: 2010.05.17/outbox.cif.g08.bks.cpg/sg40_2_cif.got.tgz:3060.got - 2010.06.03 18:35:42.
