data_PCOD9364367
_publ_section_title
;
Structure prediction by ZEFSAII (Michael W. Deem and Ramdas Pophale) SiO2 
 PCOD9364367
Probable space group: A M A 2
;
_chemical_formula_sum "Si O2"
_cell_formula_units_Z 48
_cell_length_a 15.645838
_cell_length_b 12.653455
_cell_length_c 11.240626
_cell_angle_alpha 90.000000
_cell_angle_beta 90.000000
_cell_angle_gamma 90.000000
_cell_volume 2225.350647
_symmetry_space_group_name_H-M "A M A 2"
_symmetry_group_IT_number 40
_symmetry_cell_setting 'orthorhombic'
loop_
_space_group_symop_operation_xyz
x,y,z
-x,-y,z
1/2-x,y,z
1/2+x,-y,z
x,1/2+y,1/2+z
-x,1/2-y,1/2+z
1/2-x,1/2+y,1/2+z
1/2+x,1/2-y,1/2+z
loop_
_atom_site_type_symbol
_atom_site_label
_atom_site_fract_x
_atom_site_fract_y
_atom_site_fract_z
Si Si1 0.419636 0.290758 0.453360
Si Si2 0.250000 0.496087 0.010243
Si Si3 0.750000 0.249728 0.580084
Si Si4 0.145949 0.374324 0.702941
Si Si5 0.910872 0.948399 0.354609
Si Si6 0.250000 0.841344 0.820652
Si Si7 0.611718 0.802544 0.895163
Si Si8 0.250000 0.576662 0.248387
O O1 0.400868 0.313998 0.593325
O O2 0.418968 0.174429 0.391151
O O3 0.336188 0.341260 0.394978
O O4 0.514102 0.331987 0.420197
O O5 0.250000 0.373510 0.045197
O O6 0.250000 0.590658 0.107656
O O7 0.166565 0.513438 0.934377
O O8 0.750000 0.252210 0.722617
O O9 0.665843 0.295839 0.517208
O O10 0.250000 0.372574 0.689640
O O11 0.112718 0.494689 0.727409
O O12 0.121035 0.306779 0.820752
O O13 0.000000 0.000000 0.390251
O O14 0.250000 0.952546 0.757138
O O15 0.666069 0.879955 0.811405
#
# Coordination Sequence:
#
# PCOD9364367 Si02
#       8
#     8   4   4   8   8   4   8   4
#     4  12  27  45  69 106 149 190 247 311 369 459
#     4  11  19  41  70  99 135 174 235 301 357 442
#     4  10  20  41  68  93 136 179 227 298 362 445
#     4  12  23  46  74 101 143 191 246 311 380 448
#     4  12  23  43  71 111 141 187 244 305 380 441
#     4  11  27  46  60 103 143 184 244 303 381 443
#     4  11  22  45  70 102 138 187 244 304 376 449
#     4  10  24  46  70  95 136 197 242 300 378 444
#
# _framework density 21.569634000000001
#
# number of rings (size 3 to 8) (size 9 to 14) (size 15 to 20)
#    0.000    0.667    6.667    1.500    2.333    0.667 
#   15.000    0.000    0.000    0.000    0.000    0.000 
#    0.000    0.000    0.000    0.000    0.000    0.000 
#
# Total GULP energy -133784.816711 kJ/mol
# GULP energy per Si atom -5574.367363 kJ/mol
# Density = 2.152054 g / cm^3
# Si number density = 21.569634 Si / 1000 Ang^3
#
#
#
# Elastic Constant Matrix: (Units=GPa)
#
#
# Indices 1 2 3 4 5 6 
#
# 1 214.1858 11.9242 50.5062 0.0000 0.0000 0.0000
# 2 11.9242 50.8166 6.6216 0.0000 0.0000 0.0000
# 3 50.5062 6.6216 96.0802 0.0000 0.0000 0.0000
# 4 0.0000 0.0000 0.0000 26.1441 0.0000 0.0000
# 5 0.0000 0.0000 0.0000 0.0000 71.2168 0.0000
# 6 0.0000 0.0000 0.0000 0.0000 0.0000 15.2641
#
#
#
# Elastic Compliance Matrix: (Units=1/GPa)
#
#
# Indices 1 2 3 4 5 6 
#
# 1 0.005370 -0.000900 -0.002761 0.000000 0.000000 0.000000
# 2 -0.000900 0.020008 -0.000906 0.000000 0.000000 0.000000
# 3 -0.002761 -0.000906 0.011922 0.000000 0.000000 0.000000
# 4 0.000000 0.000000 0.000000 0.038250 0.000000 0.000000
# 5 0.000000 0.000000 0.000000 0.000000 0.014042 0.000000
# 6 0.000000 0.000000 0.000000 0.000000 0.000000 0.065513
#
#
# Mechanical properties :
#
#
# Convention : Reuss Voigt Hill
#
# Bulk Modulus (GPa) = 35.50374 55.46518 45.48446
# Shear Modulus (GPa) = 28.79754 41.99371 35.39563
#
# Velocity S-wave (km/s) = 3.65786 4.41714 4.05531
# Velocity P-wave (km/s) = 5.85967 7.19619 6.56205
#
# Compressibility (1/GPa) = 0.02816604
#
# Stress axis : x y z
#
# Youngs Moduli (GPa) = 186.22076 49.98034 83.88120
#
# Poissons Ratio (x) = 0.04500 0.23158
# Poissons Ratio (y) = 0.16766 0.07596
# Poissons Ratio (z) = 0.51411 0.04526
#
# Static dielectric constant tensor:
#      x y z
#    x 1.636800 0.000000 0.000000 
#    y 0.000000 1.860580 0.000000 
#    z 0.000000 0.000000 1.925380 
# 
# From -- ./inp_files/12185.got.cif
#   From: 2010.05.17/outbox.cif.g08.bks.cpg/sg40_7_cif.got.tgz:12185.got - 2010.06.03 18:35:42.
