data_PCOD9364789
_publ_section_title
;
Structure prediction by ZEFSAII (Michael W. Deem and Ramdas Pophale) SiO2 
 PCOD9364789
Probable space group: A M A 2
;
_chemical_formula_sum "Si O2"
_cell_formula_units_Z 48
_cell_length_a 8.808351
_cell_length_b 27.940213
_cell_length_c 9.964279
_cell_angle_alpha 90.000000
_cell_angle_beta 90.000000
_cell_angle_gamma 90.000000
_cell_volume 2452.280836
_symmetry_space_group_name_H-M "A M A 2"
_symmetry_group_IT_number 40
_symmetry_cell_setting 'orthorhombic'
loop_
_space_group_symop_operation_xyz
x,y,z
-x,-y,z
1/2-x,y,z
1/2+x,-y,z
x,1/2+y,1/2+z
-x,1/2-y,1/2+z
1/2-x,1/2+y,1/2+z
1/2+x,1/2-y,1/2+z
loop_
_atom_site_type_symbol
_atom_site_label
_atom_site_fract_x
_atom_site_fract_y
_atom_site_fract_z
Si Si1 0.567328 0.303213 0.129360
Si Si2 0.567800 0.093193 0.700569
Si Si3 0.571152 0.952523 0.448743
Si Si4 0.431006 0.382321 0.742900
Si Si5 0.432352 0.947293 0.989803
Si Si6 0.068541 0.777988 0.340087
O O1 0.750000 0.305910 0.125511
O O2 0.499609 0.355228 0.162068
O O3 0.521953 0.267107 0.249542
O O4 0.509714 0.284449 0.984640
O O5 0.750000 0.095736 0.694514
O O6 0.506948 0.056037 0.591304
O O7 0.520699 0.074959 0.847208
O O8 0.750000 0.957300 0.461721
O O9 0.525698 0.907517 0.359184
O O10 0.500000 0.000000 0.384367
O O11 0.250000 0.389674 0.767229
O O12 0.471514 0.409426 0.606073
O O13 0.459139 0.325892 0.752166
O O14 0.250000 0.952006 0.988872
O O15 0.500000 0.000000 0.011170
O O16 0.250000 0.774983 0.363113
#
# Coordination Sequence:
#
# PCOD9364789 Si02
#       6
#     8   8   8   8   8   8
#     4  11  24  41  65  97 126 161 209 257 309 374
#     4  11  23  41  64  90 124 166 206 256 314 368
#     4  12  24  39  62  92 123 161 206 256 309 372
#     4  10  21  41  64  89 124 164 205 253 310 371
#     4  10  23  40  62  90 122 164 208 252 307 365
#     4  10  23  42  65  92 127 166 205 255 313 372
#
# _framework density 19.573615
#
# number of rings (size 3 to 8) (size 9 to 14) (size 15 to 20)
#    0.000    1.333    1.667    3.500    2.333    6.000 
#    0.000    0.000    0.000    0.000    0.000    0.000 
#    0.000    0.000    0.000    0.000    0.000    0.000 
#
# Total GULP energy -134156.080522 kJ/mol
# GULP energy per Si atom -5589.836688 kJ/mol
# Density = 1.952906 g / cm^3
# Si number density = 19.573615 Si / 1000 Ang^3
#
#
#
# Elastic Constant Matrix: (Units=GPa)
#
#
# Indices 1 2 3 4 5 6 
#
# 1 41.7876 23.7099 20.9820 0.0000 0.0000 0.0000
# 2 23.7099 94.2583 7.9447 0.0000 0.0000 0.0000
# 3 20.9820 7.9447 86.7746 0.0000 0.0000 0.0000
# 4 0.0000 0.0000 0.0000 24.9700 0.0000 0.0000
# 5 0.0000 0.0000 0.0000 0.0000 56.7779 0.0000
# 6 0.0000 0.0000 0.0000 0.0000 0.0000 18.5294
#
#
#
# Elastic Compliance Matrix: (Units=1/GPa)
#
#
# Indices 1 2 3 4 5 6 
#
# 1 0.031607 -0.007363 -0.006968 0.000000 0.000000 0.000000
# 2 -0.007363 0.012407 0.000644 0.000000 0.000000 0.000000
# 3 -0.006968 0.000644 0.013150 0.000000 0.000000 0.000000
# 4 0.000000 0.000000 0.000000 0.040048 0.000000 0.000000
# 5 0.000000 0.000000 0.000000 0.000000 0.017612 0.000000
# 6 0.000000 0.000000 0.000000 0.000000 0.000000 0.053968
#
#
# Mechanical properties :
#
#
# Convention : Reuss Voigt Hill
#
# Bulk Modulus (GPa) = 33.56833 36.45485 35.01159
# Shear Modulus (GPa) = 24.26032 31.40104 27.83068
#
# Velocity S-wave (km/s) = 3.52439 4.00966 3.77483
# Velocity P-wave (km/s) = 5.80937 6.33257 6.07660
#
# Compressibility (1/GPa) = 0.02978998
#
# Stress axis : x y z
#
# Youngs Moduli (GPa) = 31.63820 80.59975 76.04519
#
# Poissons Ratio (x) = 0.59347 0.52992
# Poissons Ratio (y) = 0.23296 -0.04901
# Poissons Ratio (z) = 0.22047 -0.05195
#
# Static dielectric constant tensor:
#      x y z
#    x 1.644570 0.000000 0.000000 
#    y 0.000000 1.716930 0.000000 
#    z 0.000000 0.000000 1.683650 
# 
# From -- ./inp_files/4598.got.cif
#   From: 2010.05.17/outbox.cif.g08.bks.cpg/sg40_3_cif.got.tgz:4598.got - 2010.06.03 18:35:42.
