data_PCOD9364308
_publ_section_title
;
Structure prediction by ZEFSAII (Michael W. Deem and Ramdas Pophale) SiO2 
 PCOD9364308
Probable space group: A M A 2
;
_chemical_formula_sum "Si O2"
_cell_formula_units_Z 40
_cell_length_a 19.523589
_cell_length_b 12.594943
_cell_length_c 7.367513
_cell_angle_alpha 90.000000
_cell_angle_beta 90.000000
_cell_angle_gamma 90.000000
_cell_volume 1811.660326
_symmetry_space_group_name_H-M "A M A 2"
_symmetry_group_IT_number 40
_symmetry_cell_setting 'orthorhombic'
loop_
_space_group_symop_operation_xyz
x,y,z
-x,-y,z
1/2-x,y,z
1/2+x,-y,z
x,1/2+y,1/2+z
-x,1/2-y,1/2+z
1/2-x,1/2+y,1/2+z
1/2+x,1/2-y,1/2+z
loop_
_atom_site_type_symbol
_atom_site_label
_atom_site_fract_x
_atom_site_fract_y
_atom_site_fract_z
Si Si1 0.969023 0.387844 0.227600
Si Si2 0.327204 0.358718 0.962002
Si Si3 0.174391 0.536471 0.252611
Si Si4 0.562156 0.799740 0.084713
Si Si5 0.828150 0.949556 0.186359
O O1 0.888671 0.394251 0.182777
O O2 0.974060 0.379558 0.446219
O O3 0.000000 0.500000 0.164052
O O4 0.008935 0.285192 0.159225
O O5 0.250000 0.315552 0.944378
O O6 0.383435 0.268694 0.967608
O O7 0.338206 0.445460 0.805345
O O8 0.331479 0.423621 0.151350
O O9 0.250000 0.578599 0.207490
O O10 0.169137 0.526414 0.470222
O O11 0.610989 0.865509 0.220152
O O12 0.750000 0.911053 0.224612
#
# Coordination Sequence:
#
# PCOD9364308 Si02
#       5
#     8   8   8   8   8
#     4  11  24  41  60  90 129 162 208 261 311 373
#     4  10  20  39  68  95 125 167 210 262 317 369
#     4   9  19  39  64  88 124 161 200 264 313 360
#     4  11  24  39  64  91 127 172 211 255 316 381
#     4   9  20  39  63  95 127 163 214 264 311 371
#
# _framework density 22.079194000000001
#
# number of rings (size 3 to 8) (size 9 to 14) (size 15 to 20)
#    0.000    2.000    2.000    0.600    2.800    4.000 
#    0.000    0.000    0.000   10.800    0.000    0.000 
#    0.000    0.000    0.000    0.000    0.000    0.000 
#
# Total GULP energy -111668.388130 kJ/mol
# GULP energy per Si atom -5583.419406 kJ/mol
# Density = 2.202894 g / cm^3
# Si number density = 22.079194 Si / 1000 Ang^3
#
#
#
# Elastic Constant Matrix: (Units=GPa)
#
#
# Indices 1 2 3 4 5 6 
#
# 1 101.4430 32.0494 10.8229 0.0000 0.0000 0.0000
# 2 32.0494 66.4028 12.3279 0.0000 0.0000 0.0000
# 3 10.8229 12.3279 36.8215 0.0000 0.0000 0.0000
# 4 0.0000 0.0000 0.0000 34.9168 0.0000 0.0000
# 5 0.0000 0.0000 0.0000 0.0000 -3.8933 0.0000
# 6 0.0000 0.0000 0.0000 0.0000 0.0000 42.4198
#
#
#
# Elastic Compliance Matrix: (Units=1/GPa)
#
#
# Indices 1 2 3 4 5 6 
#
# 1 0.011725 -0.005352 -0.001655 0.000000 0.000000 0.000000
# 2 -0.005352 0.018501 -0.004621 0.000000 0.000000 0.000000
# 3 -0.001655 -0.004621 0.029191 0.000000 0.000000 0.000000
# 4 0.000000 0.000000 0.000000 0.028640 0.000000 0.000000
# 5 0.000000 0.000000 0.000000 0.000000 -0.256855 0.000000
# 6 0.000000 0.000000 0.000000 0.000000 0.000000 0.023574
#
#
# Mechanical properties :
#
#
# Convention : Reuss Voigt Hill
#
# Bulk Modulus (GPa) = 27.65305 35.00752 31.33029
# Shear Modulus (GPa) = -45.48972 24.65314 -10.41829
#
# Velocity S-wave (km/s) = -4.54397 3.34515 -2.17459
# Velocity P-wave (km/s) = 3.87022 5.55066 2.81347
#
# Compressibility (1/GPa) = 0.03616237
#
# Stress axis : x y z
#
# Youngs Moduli (GPa) = 85.28676 54.05214 34.25661
#
# Poissons Ratio (x) = 0.28929 0.05668
# Poissons Ratio (y) = 0.45645 0.15830
# Poissons Ratio (z) = 0.14111 0.24977
#
# Static dielectric constant tensor:
#      x y z
#    x 1.864820 0.000000 0.000000 
#    y 0.000000 1.808710 0.000000 
#    z 0.000000 0.000000 1.850550 
# 
# From -- ./inp_files/7140.got.cif
#   From: 2010.05.17/outbox.cif.g08.bks.cpg/sg40_4_cif.got.tgz:7140.got - 2010.06.03 18:35:42.
