data_PCOD9364468
_publ_section_title
;
Structure prediction by ZEFSAII (Michael W. Deem and Ramdas Pophale) SiO2 
 PCOD9364468
Probable space group: A M A 2
;
_chemical_formula_sum "Si O2"
_cell_formula_units_Z 64
_cell_length_a 8.826725
_cell_length_b 18.259750
_cell_length_c 21.048448
_cell_angle_alpha 90.000000
_cell_angle_beta 90.000000
_cell_angle_gamma 90.000000
_cell_volume 3392.458176
_symmetry_space_group_name_H-M "A M A 2"
_symmetry_group_IT_number 40
_symmetry_cell_setting 'orthorhombic'
loop_
_space_group_symop_operation_xyz
x,y,z
-x,-y,z
1/2-x,y,z
1/2+x,-y,z
x,1/2+y,1/2+z
-x,1/2-y,1/2+z
1/2-x,1/2+y,1/2+z
1/2+x,1/2-y,1/2+z
loop_
_atom_site_type_symbol
_atom_site_label
_atom_site_fract_x
_atom_site_fract_y
_atom_site_fract_z
Si Si1 0.067216 0.166172 0.964040
Si Si2 0.568635 0.581075 0.088123
Si Si3 0.430476 0.081099 0.335825
Si Si4 0.432784 0.666172 0.207610
Si Si5 0.932352 0.662716 0.714852
Si Si6 0.567282 0.918923 0.835825
Si Si7 0.068635 0.418925 0.583526
Si Si8 0.432352 0.337284 0.956798
O O1 0.250000 0.161693 0.969633
O O2 0.022206 0.125072 0.899153
O O3 0.026386 0.251733 0.960845
O O4 0.993909 0.126778 0.024195
O O5 0.500000 0.500000 0.088709
O O6 0.750000 0.576498 0.092247
O O7 0.506091 0.626778 0.147455
O O8 0.529217 0.621981 0.022429
O O9 0.250000 0.076285 0.335825
O O10 0.487984 0.123831 0.273727
O O11 0.487984 0.123831 0.397923
O O12 0.500000 0.000000 0.335825
O O13 0.250000 0.661693 0.202017
O O14 0.473614 0.751733 0.210805
O O15 0.477794 0.625072 0.272497
O O16 0.750000 0.658293 0.723774
O O17 0.970783 0.621981 0.649221
O O18 0.750000 0.923720 0.835825
O O19 0.500000 0.000000 0.835825
O O20 0.250000 0.423502 0.579403
O O21 0.000000 0.500000 0.582941
O O22 0.250000 0.341707 0.947876
#
# Coordination Sequence:
#
# PCOD9364468 Si02
#       8
#     8   8   8   8   8   8   8   8
#     4  10  21  39  62  86 116 154 194 240 295 351
#     4  11  23  38  59  87 118 154 196 242 293 351
#     4  12  25  40  62  90 120 156 199 246 293 348
#     4  10  21  39  62  86 116 154 194 240 295 351
#     4  10  22  41  63  87 118 155 195 243 298 353
#     4  10  21  36  56  82 112 150 191 232 284 344
#     4  11  23  38  59  87 118 154 196 242 293 351
#     4  10  22  41  63  87 118 155 195 243 298 353
#
# _framework density 18.865376000000001
#
# number of rings (size 3 to 8) (size 9 to 14) (size 15 to 20)
#    0.000    1.500    0.000    4.875    0.000   10.000 
#    0.000    1.250    0.000    0.000    0.000    0.000 
#    0.000    0.000    0.000    0.000    0.000    0.000 
#
# Total GULP energy -178984.640619 kJ/mol
# GULP energy per Si atom -5593.270019 kJ/mol
# Density = 1.882244 g / cm^3
# Si number density = 18.865376 Si / 1000 Ang^3
#
#
#
# Elastic Constant Matrix: (Units=GPa)
#
#
# Indices 1 2 3 4 5 6 
#
# 1 46.9620 76.2030 84.3718 0.0000 0.0000 0.0000
# 2 76.2030 234.0205 146.4405 0.0000 0.0000 0.0000
# 3 84.3718 146.4405 232.7004 0.0000 0.0000 0.0000
# 4 0.0000 0.0000 0.0000 43.2878 0.0000 0.0000
# 5 0.0000 0.0000 0.0000 0.0000 45.5914 0.0000
# 6 0.0000 0.0000 0.0000 0.0000 0.0000 29.1147
#
#
#
# Elastic Compliance Matrix: (Units=1/GPa)
#
#
# Indices 1 2 3 4 5 6 
#
# 1 0.079321 -0.012920 -0.020629 0.000000 0.000000 0.000000
# 2 -0.012920 0.009153 -0.001076 0.000000 0.000000 0.000000
# 3 -0.020629 -0.001076 0.012454 0.000000 0.000000 0.000000
# 4 0.000000 0.000000 0.000000 0.023101 0.000000 0.000000
# 5 0.000000 0.000000 0.000000 0.000000 0.021934 0.000000
# 6 0.000000 0.000000 0.000000 0.000000 0.000000 0.034347
#
#
# Mechanical properties :
#
#
# Convention : Reuss Voigt Hill
#
# Bulk Modulus (GPa) = 31.56740 125.30151 78.43445
# Shear Modulus (GPa) = 19.22189 37.37660 28.29925
#
# Velocity S-wave (km/s) = 3.19548 4.45593 3.87727
# Velocity P-wave (km/s) = 5.51218 9.64555 7.85560
#
# Compressibility (1/GPa) = 0.03167825
#
# Stress axis : x y z
#
# Youngs Moduli (GPa) = 12.60703 109.24892 80.29456
#
# Poissons Ratio (x) = 1.41148 1.65642
# Poissons Ratio (y) = 0.16288 0.08639
# Poissons Ratio (z) = 0.26007 0.11754
#
# Static dielectric constant tensor:
#      x y z
#    x 1.637730 0.000000 0.000000 
#    y 0.000000 1.615510 0.000000 
#    z 0.000000 0.000000 1.618170 
# 
# From -- ./inp_files/22419.got.cif
#   From: 2010.05.17/outbox.cif.g08.bks.cpg/sg40_12_cif.got.tgz:22419.got - 2010.06.03 18:35:42.
