data_PCOD9364751
_publ_section_title
;
Structure prediction by ZEFSAII (Michael W. Deem and Ramdas Pophale) SiO2 
 PCOD9364751
Probable space group: A M A 2
;
_chemical_formula_sum "Si O2"
_cell_formula_units_Z 48
_cell_length_a 13.492856
_cell_length_b 29.133344
_cell_length_c 5.313577
_cell_angle_alpha 90.000000
_cell_angle_beta 90.000000
_cell_angle_gamma 90.000000
_cell_volume 2088.724692
_symmetry_space_group_name_H-M "A M A 2"
_symmetry_group_IT_number 40
_symmetry_cell_setting 'orthorhombic'
loop_
_space_group_symop_operation_xyz
x,y,z
-x,-y,z
1/2-x,y,z
1/2+x,-y,z
x,1/2+y,1/2+z
-x,1/2-y,1/2+z
1/2-x,1/2+y,1/2+z
1/2+x,1/2-y,1/2+z
loop_
_atom_site_type_symbol
_atom_site_label
_atom_site_fract_x
_atom_site_fract_y
_atom_site_fract_z
Si Si1 0.019263 0.187107 0.873890
Si Si2 0.363964 0.468070 0.388357
Si Si3 0.363545 0.029364 0.381102
Si Si4 0.642924 0.243968 0.623616
Si Si5 0.857265 0.156096 0.257395
Si Si6 0.017319 0.900366 0.586358
O O1 0.950826 0.230364 0.791976
O O2 0.031622 0.148258 0.663425
O O3 0.117897 0.208814 0.984911
O O4 0.948883 0.162872 0.075508
O O5 0.250000 0.451207 0.410035
O O6 0.384018 0.497756 0.638104
O O7 0.443861 0.428983 0.326604
O O8 0.368369 0.499669 0.137798
O O9 0.250000 0.046229 0.354038
O O10 0.442060 0.069623 0.423953
O O11 0.750000 0.245854 0.754941
O O12 0.647139 0.201701 0.428643
O O13 0.750000 0.151054 0.131784
O O14 0.883732 0.113243 0.433481
#
# Coordination Sequence:
#
# PCOD9364751 Si02
#       6
#     8   8   8   8   8   8
#     4  11  22  40  64  96 134 175 223 280 341 412
#     4  10  23  44  69  96 133 182 230 278 347 418
#     4  10  24  45  69  98 137 183 227 280 347 418
#     4  10  21  40  64  93 129 176 225 270 336 413
#     4  10  22  40  65  96 133 172 220 285 343 404
#     4  11  25  39  67 101 135 171 231 288 340 409
#
# _framework density 22.980530000000002
#
# number of rings (size 3 to 8) (size 9 to 14) (size 15 to 20)
#    0.000    1.667    1.667    1.500    4.667    4.000 
#    0.000    0.833    0.000    0.000    0.000    0.000 
#    0.000    0.000    0.000    0.000    0.000    0.000 
#
# Total GULP energy -134209.470936 kJ/mol
# GULP energy per Si atom -5592.061289 kJ/mol
# Density = 2.292823 g / cm^3
# Si number density = 22.980530 Si / 1000 Ang^3
#
#
#
# Elastic Constant Matrix: (Units=GPa)
#
#
# Indices 1 2 3 4 5 6 
#
# 1 109.7255 58.4889 24.9648 0.0000 0.0000 0.0000
# 2 58.4889 100.1276 33.0591 0.0000 0.0000 0.0000
# 3 24.9648 33.0591 94.4101 0.0000 0.0000 0.0000
# 4 0.0000 0.0000 0.0000 33.5839 0.0000 0.0000
# 5 0.0000 0.0000 0.0000 0.0000 -9.2798 0.0000
# 6 0.0000 0.0000 0.0000 0.0000 0.0000 -16.2530
#
#
#
# Elastic Compliance Matrix: (Units=1/GPa)
#
#
# Indices 1 2 3 4 5 6 
#
# 1 0.013302 -0.007473 -0.000901 0.000000 0.000000 0.000000
# 2 -0.007473 0.015491 -0.003448 0.000000 0.000000 0.000000
# 3 -0.000901 -0.003448 0.012038 0.000000 0.000000 0.000000
# 4 0.000000 0.000000 0.000000 0.029776 0.000000 0.000000
# 5 0.000000 0.000000 0.000000 0.000000 -0.107761 0.000000
# 6 0.000000 0.000000 0.000000 0.000000 0.000000 -0.061527
#
#
# Mechanical properties :
#
#
# Convention : Reuss Voigt Hill
#
# Bulk Modulus (GPa) = 58.18390 59.69875 58.94133
# Shear Modulus (GPa) = -72.14136 14.12693 -29.00722
#
# Velocity S-wave (km/s) = -5.60897 2.48207 -3.55667
# Velocity P-wave (km/s) = 4.07107 5.85223 2.97279
#
# Compressibility (1/GPa) = 0.01718689
#
# Stress axis : x y z
#
# Youngs Moduli (GPa) = 75.17686 64.55351 83.07193
#
# Poissons Ratio (x) = 0.48240 0.07482
# Poissons Ratio (y) = 0.56179 0.28646
# Poissons Ratio (z) = 0.06771 0.22260
#
# Static dielectric constant tensor:
#      x y z
#    x 1.904630 0.000000 0.000000 
#    y 0.000000 1.850860 0.000000 
#    z 0.000000 0.000000 1.926430 
# 
# From -- ./inp_files/1347.got.cif
#   From: 2010.05.17/outbox.cif.g08.bks.cpg/sg40_1_cif.got.tgz:1347.got - 2010.06.03 18:35:42.
