data_PCOD9364585
_publ_section_title
;
Structure prediction by ZEFSAII (Michael W. Deem and Ramdas Pophale) SiO2 
 PCOD9364585
Probable space group: A M A 2
;
_chemical_formula_sum "Si O2"
_cell_formula_units_Z 40
_cell_length_a 18.210090
_cell_length_b 12.305149
_cell_length_c 8.034816
_cell_angle_alpha 90.000000
_cell_angle_beta 90.000000
_cell_angle_gamma 90.000000
_cell_volume 1800.424461
_symmetry_space_group_name_H-M "A M A 2"
_symmetry_group_IT_number 40
_symmetry_cell_setting 'orthorhombic'
loop_
_space_group_symop_operation_xyz
x,y,z
-x,-y,z
1/2-x,y,z
1/2+x,-y,z
x,1/2+y,1/2+z
-x,1/2-y,1/2+z
1/2-x,1/2+y,1/2+z
1/2+x,1/2-y,1/2+z
loop_
_atom_site_type_symbol
_atom_site_label
_atom_site_fract_x
_atom_site_fract_y
_atom_site_fract_z
Si Si1 0.932786 0.226328 0.423690
Si Si2 0.420358 0.057638 0.701487
Si Si3 0.163810 0.124746 0.366373
Si Si4 0.523954 0.891048 0.163269
Si Si5 0.334043 0.856293 0.719970
O O1 0.916901 0.331193 0.307978
O O2 0.986404 0.282765 0.556934
O O3 0.868917 0.180312 0.542026
O O4 0.973340 0.132200 0.323108
O O5 0.375499 0.082703 0.532124
O O6 0.500000 0.000000 0.671963
O O7 0.375639 0.960464 0.787629
O O8 0.250000 0.092899 0.353384
O O9 0.108458 0.092832 0.216993
O O10 0.160944 0.255650 0.346967
O O11 0.500000 0.000000 0.073700
O O12 0.250000 0.882502 0.691772
#
# Coordination Sequence:
#
# PCOD9364585 Si02
#       5
#     8   8   8   8   8
#     4  11  24  39  62  92 120 156 206 253 302 366
#     4  12  23  38  63  91 121 162 206 252 308 367
#     4  10  21  38  60  86 119 157 198 246 300 362
#     4  11  22  39  62  88 119 156 199 249 303 358
#     4  10  23  42  62  89 125 161 201 254 311 367
#
# _framework density 22.216985999999999
#
# number of rings (size 3 to 8) (size 9 to 14) (size 15 to 20)
#    0.000    1.200    0.000    7.800    0.000    3.200 
#    0.000    0.000    0.000    6.000    0.000    0.000 
#    0.000    0.000    0.000    0.000    0.000    0.000 
#
# Total GULP energy -111659.594636 kJ/mol
# GULP energy per Si atom -5582.979732 kJ/mol
# Density = 2.216642 g / cm^3
# Si number density = 22.216986 Si / 1000 Ang^3
#
#
#
# Elastic Constant Matrix: (Units=GPa)
#
#
# Indices 1 2 3 4 5 6 
#
# 1 130.5742 57.0256 17.2187 0.0000 0.0000 0.0000
# 2 57.0256 94.5648 14.6604 0.0000 0.0000 0.0000
# 3 17.2187 14.6604 51.4607 0.0000 0.0000 0.0000
# 4 0.0000 0.0000 0.0000 27.9375 0.0000 0.0000
# 5 0.0000 0.0000 0.0000 0.0000 14.8582 0.0000
# 6 0.0000 0.0000 0.0000 0.0000 0.0000 30.6490
#
#
#
# Elastic Compliance Matrix: (Units=1/GPa)
#
#
# Indices 1 2 3 4 5 6 
#
# 1 0.010553 -0.006085 -0.001797 0.000000 0.000000 0.000000
# 2 -0.006085 0.014572 -0.002115 0.000000 0.000000 0.000000
# 3 -0.001797 -0.002115 0.020636 0.000000 0.000000 0.000000
# 4 0.000000 0.000000 0.000000 0.035794 0.000000 0.000000
# 5 0.000000 0.000000 0.000000 0.000000 0.067303 0.000000
# 6 0.000000 0.000000 0.000000 0.000000 0.000000 0.032628
#
#
# Mechanical properties :
#
#
# Convention : Reuss Voigt Hill
#
# Bulk Modulus (GPa) = 38.81123 50.48990 44.65056
# Shear Modulus (GPa) = 23.80151 27.20194 25.50173
#
# Velocity S-wave (km/s) = 3.27665 3.50290 3.39167
# Velocity P-wave (km/s) = 5.64113 6.25585 5.95642
#
# Compressibility (1/GPa) = 0.02576574
#
# Stress axis : x y z
#
# Youngs Moduli (GPa) = 94.75888 68.62344 48.45815
#
# Poissons Ratio (x) = 0.41759 0.08710
# Poissons Ratio (y) = 0.57663 0.10251
# Poissons Ratio (z) = 0.17033 0.14516
#
# Static dielectric constant tensor:
#      x y z
#    x 1.806080 0.000000 0.000000 
#    y 0.000000 1.817650 0.000000 
#    z 0.000000 0.000000 1.869750 
# 
# From -- ./inp_files/7138.got.cif
#   From: 2010.05.17/outbox.cif.g08.bks.cpg/sg40_4_cif.got.tgz:7138.got - 2010.06.03 18:35:42.
