data_PCOD9364589
_publ_section_title
;
Structure prediction by ZEFSAII (Michael W. Deem and Ramdas Pophale) SiO2 
 PCOD9364589
Probable space group: A M A 2
;
_chemical_formula_sum "Si O2"
_cell_formula_units_Z 64
_cell_length_a 8.593624
_cell_length_b 15.863933
_cell_length_c 24.396767
_cell_angle_alpha 90.000000
_cell_angle_beta 90.000000
_cell_angle_gamma 90.000000
_cell_volume 3325.978928
_symmetry_space_group_name_H-M "A M A 2"
_symmetry_group_IT_number 40
_symmetry_cell_setting 'orthorhombic'
loop_
_space_group_symop_operation_xyz
x,y,z
-x,-y,z
1/2-x,y,z
1/2+x,-y,z
x,1/2+y,1/2+z
-x,1/2-y,1/2+z
1/2-x,1/2+y,1/2+z
1/2+x,1/2-y,1/2+z
loop_
_atom_site_type_symbol
_atom_site_label
_atom_site_fract_x
_atom_site_fract_y
_atom_site_fract_z
Si Si1 0.937456 0.591208 0.541730
Si Si2 0.562824 0.658238 0.422467
Si Si3 0.064133 0.348671 0.921915
Si Si4 0.439602 0.748479 0.112264
Si Si5 0.061690 0.252591 0.738607
Si Si6 0.437045 0.590469 0.038059
Si Si7 0.063462 0.089306 0.809694
Si Si8 0.935275 0.410267 0.806591
O O1 0.750000 0.589348 0.543297
O O2 0.983571 0.614110 0.479410
O O3 0.990919 0.666943 0.581038
O O4 0.000000 0.500000 0.557459
O O5 0.750000 0.665331 0.421349
O O6 0.491201 0.751626 0.420570
O O7 0.504712 0.607477 0.369867
O O8 0.250000 0.352717 0.921476
O O9 0.999119 0.393227 0.867709
O O10 0.999179 0.389922 0.977249
O O11 0.250000 0.748512 0.111634
O O12 0.488228 0.747464 0.175396
O O13 0.488098 0.666188 0.078100
O O14 0.250000 0.259216 0.740414
O O15 0.018271 0.167744 0.771209
O O16 0.992368 0.333533 0.768879
O O17 0.500000 0.500000 0.056244
O O18 0.250000 0.589169 0.036494
O O19 0.250000 0.086470 0.812871
O O20 0.000000 0.000000 0.789325
O O21 0.750000 0.412309 0.808069
O O22 0.000000 0.500000 0.786928
#
# Coordination Sequence:
#
# PCOD9364589 Si02
#       8
#     8   8   8   8   8   8   8   8
#     4  10  21  38  60  88 119 158 198 241 297 356
#     4  11  21  37  62  90 123 159 198 246 308 369
#     4  12  23  38  62  93 126 160 200 249 308 372
#     4   9  20  41  64  85 120 164 204 250 304 359
#     4  10  22  42  65  89 120 162 210 256 306 359
#     4  11  22  40  63  91 125 163 205 251 306 364
#     4  11  23  38  60  90 124 162 204 251 305 363
#     4  12  25  42  65  92 125 162 203 253 307 369
#
# _framework density 19.242456000000001
#
# number of rings (size 3 to 8) (size 9 to 14) (size 15 to 20)
#    0.000    1.250    2.500    4.125    0.000    3.500 
#    0.000    3.125    0.000    0.000    0.000    0.000 
#    0.000    0.000    0.000    0.000    0.000    0.000 
#
# Total GULP energy -178966.326855 kJ/mol
# GULP energy per Si atom -5592.697714 kJ/mol
# Density = 1.919866 g / cm^3
# Si number density = 19.242456 Si / 1000 Ang^3
#
#
#
# Elastic Constant Matrix: (Units=GPa)
#
#
# Indices 1 2 3 4 5 6 
#
# 1 68.5558 49.7042 40.8818 0.0000 0.0000 0.0000
# 2 49.7042 197.2504 86.5484 0.0000 0.0000 0.0000
# 3 40.8818 86.5484 156.1102 0.0000 0.0000 0.0000
# 4 0.0000 0.0000 0.0000 13.7108 0.0000 0.0000
# 5 0.0000 0.0000 0.0000 0.0000 20.6184 0.0000
# 6 0.0000 0.0000 0.0000 0.0000 0.0000 31.9903
#
#
#
# Elastic Compliance Matrix: (Units=1/GPa)
#
#
# Indices 1 2 3 4 5 6 
#
# 1 0.018885 -0.003421 -0.003049 0.000000 0.000000 0.000000
# 2 -0.003421 0.007319 -0.003162 0.000000 0.000000 0.000000
# 3 -0.003049 -0.003162 0.008957 0.000000 0.000000 0.000000
# 4 0.000000 0.000000 0.000000 0.072935 0.000000 0.000000
# 5 0.000000 0.000000 0.000000 0.000000 0.048500 0.000000
# 6 0.000000 0.000000 0.000000 0.000000 0.000000 0.031259
#
#
# Mechanical properties :
#
#
# Convention : Reuss Voigt Hill
#
# Bulk Modulus (GPa) = 62.90215 86.24280 74.57247
# Shear Modulus (GPa) = 23.53836 29.58270 26.56053
#
# Velocity S-wave (km/s) = 3.50129 3.92518 3.71928
# Velocity P-wave (km/s) = 7.00754 8.09068 7.56851
#
# Compressibility (1/GPa) = 0.01589771
#
# Stress axis : x y z
#
# Youngs Moduli (GPa) = 52.95179 136.62933 111.64265
#
# Poissons Ratio (x) = 0.46740 0.34040
# Poissons Ratio (y) = 0.18115 0.35300
# Poissons Ratio (z) = 0.16145 0.43200
#
# Static dielectric constant tensor:
#      x y z
#    x 1.652590 0.000000 0.000000 
#    y 0.000000 1.671160 0.000000 
#    z 0.000000 0.000000 1.649330 
# 
# From -- ./inp_files/24242.got.cif
#   From: 2010.05.17/outbox.cif.g08.bks.cpg/sg40_13_cif.got.tgz:24242.got - 2010.06.03 18:35:42.
