data_PCOD9364833
_publ_section_title
;
Structure prediction by ZEFSAII (Michael W. Deem and Ramdas Pophale) SiO2 
 PCOD9364833
Probable space group: A M A 2
;
_chemical_formula_sum "Si O2"
_cell_formula_units_Z 60
_cell_length_a 17.567514
_cell_length_b 17.250692
_cell_length_c 9.863056
_cell_angle_alpha 90.000000
_cell_angle_beta 90.000000
_cell_angle_gamma 90.000000
_cell_volume 2989.016610
_symmetry_space_group_name_H-M "A M A 2"
_symmetry_group_IT_number 40
_symmetry_cell_setting 'orthorhombic'
loop_
_space_group_symop_operation_xyz
x,y,z
-x,-y,z
1/2-x,y,z
1/2+x,-y,z
x,1/2+y,1/2+z
-x,1/2-y,1/2+z
1/2-x,1/2+y,1/2+z
1/2+x,1/2-y,1/2+z
loop_
_atom_site_type_symbol
_atom_site_label
_atom_site_fract_x
_atom_site_fract_y
_atom_site_fract_z
Si Si1 0.466675 0.085794 0.965160
Si Si2 0.161668 0.075293 0.744916
Si Si3 0.837718 0.602541 0.154983
Si Si4 0.622379 0.967897 0.217799
Si Si5 0.958272 0.073427 0.433900
Si Si6 0.750000 0.566771 0.561455
Si Si7 0.120649 0.324032 0.423076
Si Si8 0.883207 0.855458 0.453461
O O1 0.399399 0.101190 0.856903
O O2 0.536089 0.145921 0.959299
O O3 0.500000 0.000000 0.933002
O O4 0.430505 0.079106 0.114044
O O5 0.250000 0.093014 0.781241
O O6 0.140761 0.110789 0.599061
O O7 0.157587 0.982152 0.726106
O O8 0.750000 0.616551 0.122026
O O9 0.868520 0.662806 0.263085
O O10 0.889016 0.601937 0.022809
O O11 0.651652 0.909871 0.335393
O O12 0.575609 0.034905 0.298367
O O13 0.684774 0.010240 0.129011
O O14 0.026063 0.134396 0.425115
O O15 0.000000 0.000000 0.506290
O O16 0.817008 0.622715 0.496663
O O17 0.135079 0.234470 0.452598
#
# Coordination Sequence:
#
# PCOD9364833 Si02
#       8
#     8   8   8   8   8   4   8   8
#     4  12  23  41  70 103 141 182 235 282 348 424
#     4  11  24  41  70 105 135 181 233 284 339 423
#     4  11  21  39  68 102 134 177 234 281 339 419
#     4  11  25  44  73 103 136 189 239 290 343 432
#     4  10  21  42  68 102 134 180 237 286 343 422
#     4  12  26  44  68 102 142 194 236 286 352 430
#     4  12  27  44  72 105 144 186 228 297 361 412
#     4  11  26  46  73 102 144 180 234 294 359 413
#
# _framework density 20.073492000000002
#
# number of rings (size 3 to 8) (size 9 to 14) (size 15 to 20)
#    0.000    0.800    6.000    2.000    5.600    2.133 
#    0.000    0.000    0.000    0.800    0.000    0.000 
#    0.000    0.000    0.000    0.000    0.000    0.000 
#
# Total GULP energy -167113.377993 kJ/mol
# GULP energy per Si atom -5570.445933 kJ/mol
# Density = 2.002780 g / cm^3
# Si number density = 20.073492 Si / 1000 Ang^3
#
#
#
# Elastic Constant Matrix: (Units=GPa)
#
#
# Indices 1 2 3 4 5 6 
#
# 1 105.6070 3.4174 43.0316 0.0000 0.0000 0.0000
# 2 3.4174 60.6898 35.1050 0.0000 0.0000 0.0000
# 3 43.0316 35.1050 91.9683 0.0000 0.0000 0.0000
# 4 0.0000 0.0000 0.0000 18.6898 0.0000 0.0000
# 5 0.0000 0.0000 0.0000 0.0000 1522.6617 0.0000
# 6 0.0000 0.0000 0.0000 0.0000 0.0000 -11.2710
#
#
#
# Elastic Compliance Matrix: (Units=1/GPa)
#
#
# Indices 1 2 3 4 5 6 
#
# 1 0.012211 0.003359 -0.006996 0.000000 0.000000 0.000000
# 2 0.003359 0.022070 -0.009996 0.000000 0.000000 0.000000
# 3 -0.006996 -0.009996 0.017962 0.000000 0.000000 0.000000
# 4 0.000000 0.000000 0.000000 0.053505 0.000000 0.000000
# 5 0.000000 0.000000 0.000000 0.000000 0.000657 0.000000
# 6 0.000000 0.000000 0.000000 0.000000 0.000000 -0.088723
#
#
# Mechanical properties :
#
#
# Convention : Reuss Voigt Hill
#
# Bulk Modulus (GPa) = 40.03560 46.81925 43.42742
# Shear Modulus (GPa) = 93.85638 317.79682 205.82660
#
# Velocity S-wave (km/s) = 6.84528 12.59605 10.13702
# Velocity P-wave (km/s) = 9.08102 15.32716 12.59735
#
# Compressibility (1/GPa) = 0.02497777
#
# Stress axis : x y z
#
# Youngs Moduli (GPa) = 81.89448 45.31025 55.67310
#
# Poissons Ratio (x) = -0.15219 0.38946
# Poissons Ratio (y) = -0.27507 0.55650
# Poissons Ratio (z) = 0.57289 0.45292
#
# Static dielectric constant tensor:
#      x y z
#    x 1.746550 0.000000 0.000000 
#    y 0.000000 1.677370 0.000000 
#    z 0.000000 0.000000 1.726900 
# 
# From -- ./inp_files/7677.got.cif
#   From: 2010.05.17/outbox.cif.g08.bks.cpg/sg40_4_cif.got.tgz:7677.got - 2010.06.03 18:35:42.
