data_PCOD9364408
_publ_section_title
;
Structure prediction by ZEFSAII (Michael W. Deem and Ramdas Pophale) SiO2 
 PCOD9364408
Probable space group: A M A 2
;
_chemical_formula_sum "Si O2"
_cell_formula_units_Z 64
_cell_length_a 23.519654
_cell_length_b 19.731816
_cell_length_c 6.688561
_cell_angle_alpha 90.000000
_cell_angle_beta 90.000000
_cell_angle_gamma 90.000000
_cell_volume 3104.064076
_symmetry_space_group_name_H-M "A M A 2"
_symmetry_group_IT_number 40
_symmetry_cell_setting 'orthorhombic'
loop_
_space_group_symop_operation_xyz
x,y,z
-x,-y,z
1/2-x,y,z
1/2+x,-y,z
x,1/2+y,1/2+z
-x,1/2-y,1/2+z
1/2-x,1/2+y,1/2+z
1/2+x,1/2-y,1/2+z
loop_
_atom_site_type_symbol
_atom_site_label
_atom_site_fract_x
_atom_site_fract_y
_atom_site_fract_z
Si Si1 0.115294 0.078692 0.317470
Si Si2 0.928226 0.642358 0.051678
Si Si3 0.185487 0.199903 0.152536
Si Si4 0.493158 0.572004 0.613551
Si Si5 0.378158 0.425047 0.694932
Si Si6 0.406461 0.233592 0.810092
Si Si7 0.456565 0.592370 0.183367
Si Si8 0.641733 0.686062 0.429954
O O1 0.163000 0.134062 0.274039
O O2 0.095036 0.067105 0.545657
O O3 0.057246 0.111042 0.223090
O O4 0.128008 0.006029 0.213841
O O5 0.904518 0.663517 0.265292
O O6 0.982531 0.594396 0.074800
O O7 0.879813 0.605809 0.918364
O O8 0.942710 0.710736 0.930892
O O9 0.250000 0.189871 0.086325
O O10 0.181700 0.265059 0.298959
O O11 0.143893 0.212236 0.963162
O O12 0.500000 0.500000 0.721613
O O13 0.557865 0.595280 0.617078
O O14 0.466831 0.557930 0.395756
O O15 0.338394 0.382641 0.544658
O O16 0.442398 0.169391 0.744081
O O17 0.381936 0.267998 0.610666
#
# Coordination Sequence:
#
# PCOD9364408 Si02
#       8
#     8   8   8   8   8   8   8   8
#     4  11  23  38  58  92 127 162 210 250 301 373
#     4  10  22  32  57  88 129 170 199 238 292 370
#     4  11  24  45  66  87 112 153 213 277 334 374
#     4  10  21  33  53  85 128 173 201 233 290 367
#     4  10  21  38  58  91 132 167 203 240 298 373
#     4  10  23  37  56  88 122 159 208 255 303 366
#     4  12  21  32  55  88 130 168 201 236 296 368
#     4  10  21  42  60  90 120 161 205 255 312 366
#
# _framework density 20.618131999999999
#
# number of rings (size 3 to 8) (size 9 to 14) (size 15 to 20)
#    0.000    1.500    5.000    0.000    3.500    0.500 
#    0.000    0.625    0.000    3.000    0.000    0.000 
#    0.000    0.000    0.000    0.000    0.000    0.000 
#
# Total GULP energy -178338.344309 kJ/mol
# GULP energy per Si atom -5573.073260 kJ/mol
# Density = 2.057120 g / cm^3
# Si number density = 20.618132 Si / 1000 Ang^3
#
#
#
# Elastic Constant Matrix: (Units=GPa)
#
#
# Indices 1 2 3 4 5 6 
#
# 1 42.1944 12.7228 12.2663 0.0000 0.0000 0.0000
# 2 12.7228 94.8930 24.0928 0.0000 0.0000 0.0000
# 3 12.2663 24.0928 111.5591 0.0000 0.0000 0.0000
# 4 0.0000 0.0000 0.0000 29.6076 0.0000 0.0000
# 5 0.0000 0.0000 0.0000 0.0000 12.4087 0.0000
# 6 0.0000 0.0000 0.0000 0.0000 0.0000 7.9242
#
#
#
# Elastic Compliance Matrix: (Units=1/GPa)
#
#
# Indices 1 2 3 4 5 6 
#
# 1 0.025180 -0.002828 -0.002158 0.000000 0.000000 0.000000
# 2 -0.002828 0.011467 -0.002166 0.000000 0.000000 0.000000
# 3 -0.002158 -0.002166 0.009669 0.000000 0.000000 0.000000
# 4 0.000000 0.000000 0.000000 0.033775 0.000000 0.000000
# 5 0.000000 0.000000 0.000000 0.000000 0.080588 0.000000
# 6 0.000000 0.000000 0.000000 0.000000 0.000000 0.126195
#
#
# Mechanical properties :
#
#
# Convention : Reuss Voigt Hill
#
# Bulk Modulus (GPa) = 31.23745 38.53449 34.88597
# Shear Modulus (GPa) = 16.03343 23.29242 19.66293
#
# Velocity S-wave (km/s) = 2.79164 3.36476 3.09151
# Velocity P-wave (km/s) = 5.05711 5.81598 5.44977
#
# Compressibility (1/GPa) = 0.03201286
#
# Stress axis : x y z
#
# Youngs Moduli (GPa) = 39.71420 87.20531 103.42548
#
# Poissons Ratio (x) = 0.24663 0.22317
# Poissons Ratio (y) = 0.11232 0.22397
# Poissons Ratio (z) = 0.08570 0.18885
#
# Static dielectric constant tensor:
#      x y z
#    x 1.740380 0.000000 0.000000 
#    y 0.000000 1.775510 0.000000 
#    z 0.000000 0.000000 1.812150 
# 
# From -- ./inp_files/2868.got.cif
#   From: 2010.05.17/outbox.cif.g08.bks.cpg/sg40_2_cif.got.tgz:2868.got - 2010.06.03 18:35:42.
