data_PCOD9364254
_publ_section_title
;
Structure prediction by ZEFSAII (Michael W. Deem and Ramdas Pophale) SiO2 
 PCOD9364254
Probable space group: A M A 2
;
_chemical_formula_sum "Si O2"
_cell_formula_units_Z 36
_cell_length_a 14.915100
_cell_length_b 7.645720
_cell_length_c 17.744798
_cell_angle_alpha 90.000000
_cell_angle_beta 90.000000
_cell_angle_gamma 90.000000
_cell_volume 2023.557822
_symmetry_space_group_name_H-M "A M A 2"
_symmetry_group_IT_number 40
_symmetry_cell_setting 'orthorhombic'
loop_
_space_group_symop_operation_xyz
x,y,z
-x,-y,z
1/2-x,y,z
1/2+x,-y,z
x,1/2+y,1/2+z
-x,1/2-y,1/2+z
1/2-x,1/2+y,1/2+z
1/2+x,1/2-y,1/2+z
loop_
_atom_site_type_symbol
_atom_site_label
_atom_site_fract_x
_atom_site_fract_y
_atom_site_fract_z
Si Si1 0.500000 0.297646 0.938470
Si Si2 0.643858 0.796458 0.063475
Si Si3 0.500000 0.500000 0.314193
Si Si4 0.143858 0.796457 0.063475
Si Si5 0.643419 0.000000 0.684499
O O1 0.500000 0.500000 0.916350
O O2 0.500000 0.168108 0.868220
O O3 0.414701 0.258005 0.991817
O O4 0.585300 0.258005 0.991817
O O5 0.750000 0.776324 0.048035
O O6 0.621924 0.668735 0.132803
O O7 0.626236 0.000000 0.080835
O O8 0.585789 0.500000 0.259636
O O9 0.250000 0.776323 0.048035
O O10 0.121923 0.668734 0.132802
O O11 0.750000 0.000000 0.699552
#
# Coordination Sequence:
#
# PCOD9364254 Si02
#       5
#     8   8   4   8   8
#     4  12  23  37  59  89 122 157 196 242 295 350
#     4  10  20  38  66  90 111 151 205 249 286 344
#     4  12  26  38  54  90 130 160 184 240 308 356
#     4  10  20  38  66  90 111 151 205 249 286 344
#     4  10  22  40  62  88 119 156 196 244 297 350
#
# _framework density 17.790448999999999
#
# number of rings (size 3 to 8) (size 9 to 14) (size 15 to 20)
#    0.000    1.333    4.444    1.333    0.000    3.556 
#    0.000    0.000    0.000    0.000    0.000    0.000 
#    0.000    0.000    0.000    0.000    0.000    0.000 
#
# Total GULP energy -100587.388737 kJ/mol
# GULP energy per Si atom -5588.188263 kJ/mol
# Density = 1.774996 g / cm^3
# Si number density = 17.790449 Si / 1000 Ang^3
#
#
#
# Elastic Constant Matrix: (Units=GPa)
#
#
# Indices 1 2 3 4 5 6 
#
# 1 80.7931 61.7054 78.8236 0.0000 0.0000 0.0000
# 2 61.7054 198.6563 100.6071 0.0000 0.0000 0.0000
# 3 78.8236 100.6071 164.7106 0.0000 0.0000 0.0000
# 4 0.0000 0.0000 0.0000 39.0164 0.0000 0.0000
# 5 0.0000 0.0000 0.0000 0.0000 -28.9583 0.0000
# 6 0.0000 0.0000 0.0000 0.0000 0.0000 22.1373
#
#
#
# Elastic Compliance Matrix: (Units=1/GPa)
#
#
# Indices 1 2 3 4 5 6 
#
# 1 0.023963 -0.002368 -0.010021 0.000000 0.000000 0.000000
# 2 -0.002368 0.007522 -0.003462 0.000000 0.000000 0.000000
# 3 -0.010021 -0.003462 0.012981 0.000000 0.000000 0.000000
# 4 0.000000 0.000000 0.000000 0.025630 0.000000 0.000000
# 5 0.000000 0.000000 0.000000 0.000000 -0.034532 0.000000
# 6 0.000000 0.000000 0.000000 0.000000 0.000000 0.045173
#
#
# Mechanical properties :
#
#
# Convention : Reuss Voigt Hill
#
# Bulk Modulus (GPa) = 78.33914 102.93691 90.63802
# Shear Modulus (GPa) = 42.84735 19.97400 31.41068
#
# Velocity S-wave (km/s) = 4.91292 3.35436 4.20645
# Velocity P-wave (km/s) = 8.73569 8.54334 8.64005
#
# Compressibility (1/GPa) = 0.01276501
#
# Stress axis : x y z
#
# Youngs Moduli (GPa) = 41.73146 132.93584 77.03408
#
# Poissons Ratio (x) = 0.31480 0.77197
# Poissons Ratio (y) = 0.09882 0.26665
# Poissons Ratio (z) = 0.41820 0.46016
#
# Static dielectric constant tensor:
#      x y z
#    x 1.621360 0.000000 0.000000 
#    y 0.000000 1.612030 0.000000 
#    z 0.000000 0.000000 1.547730 
# 
# From -- ./inp_files/16766.got.cif
#   From: 2010.05.17/outbox.cif.g08.bks.cpg/sg40_9_cif.got.tgz:16766.got - 2010.06.03 18:35:42.
