data_PCOD9364243
_publ_section_title
;
Structure prediction by ZEFSAII (Michael W. Deem and Ramdas Pophale) SiO2 
 PCOD9364243
Probable space group: A M A 2
;
_chemical_formula_sum "Si O2"
_cell_formula_units_Z 56
_cell_length_a 14.938112
_cell_length_b 12.932464
_cell_length_c 12.478855
_cell_angle_alpha 90.000000
_cell_angle_beta 90.000000
_cell_angle_gamma 90.000000
_cell_volume 2410.747515
_symmetry_space_group_name_H-M "A M A 2"
_symmetry_group_IT_number 40
_symmetry_cell_setting 'orthorhombic'
loop_
_space_group_symop_operation_xyz
x,y,z
-x,-y,z
1/2-x,y,z
1/2+x,-y,z
x,1/2+y,1/2+z
-x,1/2-y,1/2+z
1/2-x,1/2+y,1/2+z
1/2+x,1/2-y,1/2+z
loop_
_atom_site_type_symbol
_atom_site_label
_atom_site_fract_x
_atom_site_fract_y
_atom_site_fract_z
Si Si1 0.650727 0.531504 0.364480
Si Si2 0.149040 0.019270 0.299306
Si Si3 0.854704 0.370225 0.200492
Si Si4 0.859086 0.259793 0.905781
Si Si5 0.993717 0.737852 0.096027
Si Si6 0.901340 0.038540 0.523176
Si Si7 0.088177 0.041090 0.076640
O O1 0.750000 0.531257 0.316008
O O2 0.607719 0.439974 0.297508
O O3 0.622188 0.649441 0.351798
O O4 0.657147 0.496338 0.488204
O O5 0.250000 0.022233 0.259885
O O6 0.127601 0.136441 0.337375
O O7 0.096728 0.988456 0.192757
O O8 0.143903 0.951920 0.407246
O O9 0.750000 0.335014 0.212229
O O10 0.931030 0.282821 0.186786
O O11 0.858401 0.449794 0.098115
O O12 0.750000 0.258975 0.936727
O O13 0.935304 0.261540 0.996969
O O14 0.932534 0.839287 0.096258
O O15 0.923488 0.643477 0.085153
O O16 0.000000 0.000000 0.493757
O O17 0.000000 0.000000 0.019240
#
# Coordination Sequence:
#
# PCOD9364243 Si02
#       7
#     8   8   8   8   8   8   8
#     4  10  23  44  64  90 127 167 215 260 316 385
#     4  11  23  42  65  90 128 172 216 259 311 388
#     4  10  21  41  68  95 124 165 212 266 317 381
#     4  10  20  39  67  93 122 170 215 253 311 388
#     4  11  23  40  64  98 128 161 211 272 320 382
#     4  10  20  38  64  95 124 156 208 267 313 364
#     4  12  26  42  61  93 130 172 205 266 327 380
#
# _framework density 23.229310000000002
#
# number of rings (size 3 to 8) (size 9 to 14) (size 15 to 20)
#    0.000    1.429    4.286    1.714    2.000    2.857 
#    0.000    2.143    0.000    0.000    0.000    0.000 
#    0.000    0.000    0.000    0.000    0.000    0.000 
#
# Total GULP energy -155951.369441 kJ/mol
# GULP energy per Si atom -5569.691766 kJ/mol
# Density = 2.317644 g / cm^3
# Si number density = 23.229310 Si / 1000 Ang^3
#
#
#
# Elastic Constant Matrix: (Units=GPa)
#
#
# Indices 1 2 3 4 5 6 
#
# 1 52.6748 -1.7833 3.4033 0.0000 0.0000 0.0000
# 2 -1.7833 70.1610 -20.3642 0.0000 0.0000 0.0000
# 3 3.4033 -20.3642 83.1083 0.0000 0.0000 0.0000
# 4 0.0000 0.0000 0.0000 15.6746 0.0000 0.0000
# 5 0.0000 0.0000 0.0000 0.0000 21.5272 0.0000
# 6 0.0000 0.0000 0.0000 0.0000 0.0000 -8.6602
#
#
#
# Elastic Compliance Matrix: (Units=1/GPa)
#
#
# Indices 1 2 3 4 5 6 
#
# 1 0.019040 0.000277 -0.000712 0.000000 0.000000 0.000000
# 2 0.000277 0.015348 0.003749 0.000000 0.000000 0.000000
# 3 -0.000712 0.003749 0.012980 0.000000 0.000000 0.000000
# 4 0.000000 0.000000 0.000000 0.063797 0.000000 0.000000
# 5 0.000000 0.000000 0.000000 0.000000 0.046453 0.000000
# 6 0.000000 0.000000 0.000000 0.000000 0.000000 -0.115470
#
#
# Mechanical properties :
#
#
# Convention : Reuss Voigt Hill
#
# Bulk Modulus (GPa) = 18.51899 18.71730 18.61814
# Shear Modulus (GPa) = 93.42713 20.68754 57.05733
#
# Velocity S-wave (km/s) = 6.34876 2.98749 4.96145
# Velocity P-wave (km/s) = 7.85697 4.46937 6.39168
#
# Compressibility (1/GPa) = 0.05399863
#
# Stress axis : x y z
#
# Youngs Moduli (GPa) = 52.52165 65.15393 77.03933
#
# Poissons Ratio (x) = -0.01807 0.05483
# Poissons Ratio (y) = -0.01457 -0.28886
# Poissons Ratio (z) = 0.03738 -0.24429
#
# Static dielectric constant tensor:
#      x y z
#    x 1.871450 0.000000 0.000000 
#    y 0.000000 1.916790 0.000000 
#    z 0.000000 0.000000 1.923090 
# 
# From -- ./inp_files/12236.got.cif
#   From: 2010.05.17/outbox.cif.g08.bks.cpg/sg40_7_cif.got.tgz:12236.got - 2010.06.03 18:35:42.
