data_PCOD9364575
_publ_section_title
;
Structure prediction by ZEFSAII (Michael W. Deem and Ramdas Pophale) SiO2 
 PCOD9364575
Probable space group: A M A 2
;
_chemical_formula_sum "Si O2"
_cell_formula_units_Z 48
_cell_length_a 13.783937
_cell_length_b 25.494859
_cell_length_c 6.961844
_cell_angle_alpha 90.000000
_cell_angle_beta 90.000000
_cell_angle_gamma 90.000000
_cell_volume 2446.527948
_symmetry_space_group_name_H-M "A M A 2"
_symmetry_group_IT_number 40
_symmetry_cell_setting 'orthorhombic'
loop_
_space_group_symop_operation_xyz
x,y,z
-x,-y,z
1/2-x,y,z
1/2+x,-y,z
x,1/2+y,1/2+z
-x,1/2-y,1/2+z
1/2-x,1/2+y,1/2+z
1/2+x,1/2-y,1/2+z
loop_
_atom_site_type_symbol
_atom_site_label
_atom_site_fract_x
_atom_site_fract_y
_atom_site_fract_z
Si Si1 0.137579 0.039421 0.364440
Si Si2 0.993276 0.811324 0.609249
Si Si3 0.476434 0.570312 0.240016
Si Si4 0.862721 0.504421 0.465279
Si Si5 0.637980 0.762082 0.924808
Si Si6 0.357628 0.159528 0.263477
O O1 0.250000 0.029839 0.431082
O O2 0.137568 0.096955 0.268306
O O3 0.061959 0.045909 0.538048
O O4 0.115672 0.998331 0.193738
O O5 0.935975 0.819350 0.411191
O O6 0.996381 0.868650 0.706591
O O7 0.094926 0.784970 0.553667
O O8 0.930529 0.773030 0.743815
O O9 0.569244 0.543454 0.342996
O O10 0.388839 0.552806 0.379307
O O11 0.750000 0.516129 0.441316
O O12 0.750000 0.753518 0.872444
O O13 0.631609 0.813869 0.057848
O O14 0.250000 0.174178 0.336239
#
# Coordination Sequence:
#
# PCOD9364575 Si02
#       6
#     8   8   8   8   8   8
#     4   9  18  35  60  87 117 152 196 246 297 352
#     4  11  21  38  58  87 122 157 199 247 296 355
#     4  10  22  36  60  89 117 157 196 246 299 357
#     4  10  21  38  59  86 117 153 199 248 300 362
#     4  11  22  36  59  86 117 159 202 247 297 351
#     4   9  18  34  58  87 116 151 198 246 292 347
#
# _framework density 19.619641999999999
#
# number of rings (size 3 to 8) (size 9 to 14) (size 15 to 20)
#    0.000    2.000    1.667    2.000    0.000    6.667 
#    0.000    0.000    0.000    1.000    0.000    0.000 
#    0.000    0.000    0.000    0.000    0.000    0.000 
#
# Total GULP energy -133793.054829 kJ/mol
# GULP energy per Si atom -5574.710618 kJ/mol
# Density = 1.957499 g / cm^3
# Si number density = 19.619642 Si / 1000 Ang^3
#
#
#
# Elastic Constant Matrix: (Units=GPa)
#
#
# Indices 1 2 3 4 5 6 
#
# 1 124.0172 43.4023 52.5550 0.0000 0.0000 0.0000
# 2 43.4023 64.5049 30.9492 0.0000 0.0000 0.0000
# 3 52.5550 30.9492 87.5347 0.0000 0.0000 0.0000
# 4 0.0000 0.0000 0.0000 25.4825 0.0000 0.0000
# 5 0.0000 0.0000 0.0000 0.0000 19.3216 0.0000
# 6 0.0000 0.0000 0.0000 0.0000 0.0000 25.6616
#
#
#
# Elastic Compliance Matrix: (Units=1/GPa)
#
#
# Indices 1 2 3 4 5 6 
#
# 1 0.012352 -0.005724 -0.005392 0.000000 0.000000 0.000000
# 2 -0.005724 0.021322 -0.004102 0.000000 0.000000 0.000000
# 3 -0.005392 -0.004102 0.016112 0.000000 0.000000 0.000000
# 4 0.000000 0.000000 0.000000 0.039243 0.000000 0.000000
# 5 0.000000 0.000000 0.000000 0.000000 0.051755 0.000000
# 6 0.000000 0.000000 0.000000 0.000000 0.000000 0.038969
#
#
# Mechanical properties :
#
#
# Convention : Reuss Voigt Hill
#
# Bulk Modulus (GPa) = 51.68116 58.87443 55.27780
# Shear Modulus (GPa) = 23.07994 24.03648 23.55821
#
# Velocity S-wave (km/s) = 3.43354 3.50397 3.46894
# Velocity P-wave (km/s) = 6.48982 6.81495 6.65437
#
# Compressibility (1/GPa) = 0.01934941
#
# Stress axis : x y z
#
# Youngs Moduli (GPa) = 80.96171 46.89950 62.06621
#
# Poissons Ratio (x) = 0.26844 0.33466
# Poissons Ratio (y) = 0.46340 0.25462
# Poissons Ratio (z) = 0.43655 0.19240
#
# Static dielectric constant tensor:
#      x y z
#    x 1.695570 0.000000 0.000000 
#    y 0.000000 1.702590 0.000000 
#    z 0.000000 0.000000 1.724200 
# 
# From -- ./inp_files/1343.got.cif
#   From: 2010.05.17/outbox.cif.g08.bks.cpg/sg40_1_cif.got.tgz:1343.got - 2010.06.03 18:35:42.
