data_PCOD9364110
_publ_section_title
;
Structure prediction by ZEFSAII (Michael W. Deem and Ramdas Pophale) SiO2 
 PCOD9364110
Probable space group: A M A 2
;
_chemical_formula_sum "Si O2"
_cell_formula_units_Z 52
_cell_length_a 14.037023
_cell_length_b 15.927286
_cell_length_c 11.831975
_cell_angle_alpha 90.000000
_cell_angle_beta 90.000000
_cell_angle_gamma 90.000000
_cell_volume 2645.294527
_symmetry_space_group_name_H-M "A M A 2"
_symmetry_group_IT_number 40
_symmetry_cell_setting 'orthorhombic'
loop_
_space_group_symop_operation_xyz
x,y,z
-x,-y,z
1/2-x,y,z
1/2+x,-y,z
x,1/2+y,1/2+z
-x,1/2-y,1/2+z
1/2-x,1/2+y,1/2+z
1/2+x,1/2-y,1/2+z
loop_
_atom_site_type_symbol
_atom_site_label
_atom_site_fract_x
_atom_site_fract_y
_atom_site_fract_z
Si Si1 0.000000 0.000000 0.350040
Si Si2 0.858659 0.898933 0.202593
Si Si3 0.640606 0.332440 0.466359
Si Si4 0.964192 0.673105 0.982257
Si Si5 0.569136 0.620304 0.217166
Si Si6 0.856859 0.434666 0.243784
Si Si7 0.641505 0.252179 0.889925
O O1 0.030216 0.918895 0.425060
O O2 0.915948 0.970320 0.267691
O O3 0.750000 0.925868 0.181246
O O4 0.857406 0.821523 0.290062
O O5 0.901827 0.867288 0.083870
O O6 0.750000 0.309904 0.490110
O O7 0.590425 0.248776 0.418759
O O8 0.640622 0.406044 0.374264
O O9 0.908430 0.666848 0.100389
O O10 0.071823 0.709609 0.984151
O O11 0.624714 0.532874 0.225133
O O12 0.455655 0.605383 0.200615
O O13 0.596267 0.671561 0.328590
O O14 0.750000 0.412144 0.200595
O O15 0.750000 0.237211 0.926584
#
# Coordination Sequence:
#
# PCOD9364110 Si02
#       7
#     4   8   8   8   8   8   8
#     4  10  22  36  56  86 122 150 192 254 300 344
#     4   9  19  37  59  83 115 155 196 239 293 355
#     4  10  20  37  61  85 114 156 201 242 293 359
#     4  11  22  39  59  89 116 156 205 248 297 363
#     4  11  21  37  62  87 120 160 199 246 309 370
#     4  10  22  37  57  90 125 153 198 257 303 354
#     4  10  20  37  61  88 120 159 203 251 303 365
#
# _framework density 19.657547000000001
#
# number of rings (size 3 to 8) (size 9 to 14) (size 15 to 20)
#    0.000    1.846    3.077    1.385    0.000    3.077 
#    0.000    3.077    0.000    0.000    0.000    0.000 
#    0.000    0.000    0.000    0.000    0.000    0.000 
#
# Total GULP energy -144788.878662 kJ/mol
# GULP energy per Si atom -5568.803025 kJ/mol
# Density = 1.961281 g / cm^3
# Si number density = 19.657547 Si / 1000 Ang^3
#
#
#
# Elastic Constant Matrix: (Units=GPa)
#
#
# Indices 1 2 3 4 5 6 
#
# 1 82.3763 29.0899 -4.8879 0.0000 0.0000 0.0000
# 2 29.0899 72.7850 19.2820 0.0000 0.0000 0.0000
# 3 -4.8879 19.2820 34.9536 0.0000 0.0000 0.0000
# 4 0.0000 0.0000 0.0000 23.9678 0.0000 0.0000
# 5 0.0000 0.0000 0.0000 0.0000 20.0622 0.0000
# 6 0.0000 0.0000 0.0000 0.0000 0.0000 23.1547
#
#
#
# Elastic Compliance Matrix: (Units=1/GPa)
#
#
# Indices 1 2 3 4 5 6 
#
# 1 0.015282 -0.007816 0.006449 0.000000 0.000000 0.000000
# 2 -0.007816 0.020088 -0.012175 0.000000 0.000000 0.000000
# 3 0.006449 -0.012175 0.036227 0.000000 0.000000 0.000000
# 4 0.000000 0.000000 0.000000 0.041723 0.000000 0.000000
# 5 0.000000 0.000000 0.000000 0.000000 0.049845 0.000000
# 6 0.000000 0.000000 0.000000 0.000000 0.000000 0.043188
#
#
# Mechanical properties :
#
#
# Convention : Reuss Voigt Hill
#
# Bulk Modulus (GPa) = 22.46500 30.78700 26.62600
# Shear Modulus (GPa) = 20.13897 23.21234 21.67566
#
# Velocity S-wave (km/s) = 3.20424 3.44006 3.32424
# Velocity P-wave (km/s) = 5.01423 5.61020 5.32057
#
# Compressibility (1/GPa) = 0.04451369
#
# Stress axis : x y z
#
# Youngs Moduli (GPa) = 65.43541 49.78033 27.60358
#
# Poissons Ratio (x) = 0.38910 -0.17801
# Poissons Ratio (y) = 0.51146 0.33606
# Poissons Ratio (z) = -0.42198 0.60606
#
# Static dielectric constant tensor:
#      x y z
#    x 1.735490 0.000000 0.000000 
#    y 0.000000 1.680530 0.000000 
#    z 0.000000 0.000000 1.698420 
# 
# From -- ./inp_files/12227.got.cif
#   From: 2010.05.17/outbox.cif.g08.bks.cpg/sg40_7_cif.got.tgz:12227.got - 2010.06.03 18:35:42.
