data_PCOD9364241
_publ_section_title
;
Structure prediction by ZEFSAII (Michael W. Deem and Ramdas Pophale) SiO2 
 PCOD9364241
Probable space group: A M A 2
;
_chemical_formula_sum "Si O2"
_cell_formula_units_Z 64
_cell_length_a 15.611389
_cell_length_b 16.877759
_cell_length_c 10.770757
_cell_angle_alpha 90.000000
_cell_angle_beta 90.000000
_cell_angle_gamma 90.000000
_cell_volume 2837.935721
_symmetry_space_group_name_H-M "A M A 2"
_symmetry_group_IT_number 40
_symmetry_cell_setting 'orthorhombic'
loop_
_space_group_symop_operation_xyz
x,y,z
-x,-y,z
1/2-x,y,z
1/2+x,-y,z
x,1/2+y,1/2+z
-x,1/2-y,1/2+z
1/2-x,1/2+y,1/2+z
1/2+x,1/2-y,1/2+z
loop_
_atom_site_type_symbol
_atom_site_label
_atom_site_fract_x
_atom_site_fract_y
_atom_site_fract_z
Si Si1 0.347803 0.754543 0.705230
Si Si2 0.905744 0.403918 0.614072
Si Si3 0.408619 0.538170 0.114415
Si Si4 0.852821 0.805562 0.470870
Si Si5 0.347695 0.459708 0.774243
Si Si6 0.346524 0.882443 0.517106
Si Si7 0.148880 0.996515 0.875895
Si Si8 0.899778 0.635993 0.545717
O O1 0.250000 0.780335 0.733509
O O2 0.350019 0.674465 0.626002
O O3 0.386315 0.722165 0.834593
O O4 0.387766 0.822859 0.617665
O O5 0.896910 0.460300 0.735376
O O6 0.872080 0.454368 0.499030
O O7 0.002690 0.379634 0.585491
O O8 0.500000 0.500000 0.084132
O O9 0.343343 0.468713 0.077929
O O10 0.398126 0.540449 0.262796
O O11 0.391523 0.617411 0.037317
O O12 0.750000 0.817842 0.461687
O O13 0.874311 0.726995 0.547912
O O14 0.250000 0.482153 0.809187
O O15 0.345336 0.408358 0.650045
O O16 0.385304 0.404077 0.882848
O O17 0.250000 0.851211 0.494026
O O18 0.250000 0.994094 0.853095
O O19 0.117754 0.907618 0.913257
#
# Coordination Sequence:
#
# PCOD9364241 Si02
#       8
#     8   8   8   8   8   8   8   8
#     4  10  22  41  66  94 129 177 230 279 339 413
#     4  11  22  38  63  95 135 175 221 280 348 409
#     4  12  26  41  65  96 135 171 226 287 351 408
#     4  11  24  44  69  96 132 185 236 279 344 427
#     4  10  20  38  64  94 129 174 228 278 333 406
#     4  10  22  40  64  93 128 172 226 279 332 401
#     4  11  22  42  69  95 130 178 228 280 342 418
#     4  11  23  40  65  96 136 173 225 282 344 408
#
# _framework density 22.551601000000002
#
# number of rings (size 3 to 8) (size 9 to 14) (size 15 to 20)
#    0.000    1.250    0.000    7.875    1.750    6.000 
#    0.000    2.500    0.000    0.000    0.000    0.000 
#    0.000    0.000    0.000    0.000    0.000    0.000 
#
# Total GULP energy -178670.812310 kJ/mol
# GULP energy per Si atom -5583.462885 kJ/mol
# Density = 2.250027 g / cm^3
# Si number density = 22.551601 Si / 1000 Ang^3
#
#
#
# Elastic Constant Matrix: (Units=GPa)
#
#
# Indices 1 2 3 4 5 6 
#
# 1 75.7277 -4.3510 6.1617 0.0000 0.0000 0.0000
# 2 -4.3510 152.9794 62.3215 0.0000 0.0000 0.0000
# 3 6.1617 62.3215 137.5136 0.0000 0.0000 0.0000
# 4 0.0000 0.0000 0.0000 37.0577 0.0000 0.0000
# 5 0.0000 0.0000 0.0000 0.0000 21.6160 0.0000
# 6 0.0000 0.0000 0.0000 0.0000 0.0000 33.5770
#
#
#
# Elastic Compliance Matrix: (Units=1/GPa)
#
#
# Indices 1 2 3 4 5 6 
#
# 1 0.013326 0.000763 -0.000943 0.000000 0.000000 0.000000
# 2 0.000763 0.008061 -0.003687 0.000000 0.000000 0.000000
# 3 -0.000943 -0.003687 0.008985 0.000000 0.000000 0.000000
# 4 0.000000 0.000000 0.000000 0.026985 0.000000 0.000000
# 5 0.000000 0.000000 0.000000 0.000000 0.046262 0.000000
# 6 0.000000 0.000000 0.000000 0.000000 0.000000 0.029782
#
#
# Mechanical properties :
#
#
# Convention : Reuss Voigt Hill
#
# Bulk Modulus (GPa) = 44.17433 54.94279 49.55856
# Shear Modulus (GPa) = 33.62899 38.58937 36.10918
#
# Velocity S-wave (km/s) = 3.86580 4.14110 4.00582
# Velocity P-wave (km/s) = 6.28940 6.87612 6.58929
#
# Compressibility (1/GPa) = 0.02263758
#
# Stress axis : x y z
#
# Youngs Moduli (GPa) = 75.04246 124.05886 111.29209
#
# Poissons Ratio (x) = -0.09468 0.10494
# Poissons Ratio (y) = -0.05727 0.41037
# Poissons Ratio (z) = 0.07076 0.45744
#
# Static dielectric constant tensor:
#      x y z
#    x 1.899530 0.000000 0.000000 
#    y 0.000000 1.837810 0.000000 
#    z 0.000000 0.000000 1.929630 
# 
# From -- ./inp_files/13115.got.cif
#   From: 2010.05.17/outbox.cif.g08.bks.cpg/sg40_7_cif.got.tgz:13115.got - 2010.06.03 18:35:42.
