data_PCOD9364120
_publ_section_title
;
Structure prediction by ZEFSAII (Michael W. Deem and Ramdas Pophale) SiO2 
 PCOD9364120
Probable space group: A M A 2
;
_chemical_formula_sum "Si O2"
_cell_formula_units_Z 56
_cell_length_a 16.001195
_cell_length_b 5.007693
_cell_length_c 31.725263
_cell_angle_alpha 90.000000
_cell_angle_beta 90.000000
_cell_angle_gamma 90.000000
_cell_volume 2542.115889
_symmetry_space_group_name_H-M "A M A 2"
_symmetry_group_IT_number 40
_symmetry_cell_setting 'orthorhombic'
loop_
_space_group_symop_operation_xyz
x,y,z
-x,-y,z
1/2-x,y,z
1/2+x,-y,z
x,1/2+y,1/2+z
-x,1/2-y,1/2+z
1/2-x,1/2+y,1/2+z
1/2+x,1/2-y,1/2+z
loop_
_atom_site_type_symbol
_atom_site_label
_atom_site_fract_x
_atom_site_fract_y
_atom_site_fract_z
Si Si1 0.653811 0.363700 0.353610
Si Si2 0.591815 0.378442 0.900429
Si Si3 0.904338 0.399909 0.541823
Si Si4 0.653801 0.890054 0.492162
Si Si5 0.851468 0.093139 0.267933
Si Si6 0.059074 0.251433 0.130978
Si Si7 0.649320 0.095878 0.716600
O O1 0.750000 0.447669 0.345701
O O2 0.606510 0.622262 0.370950
O O3 0.618572 0.223831 0.311384
O O4 0.651061 0.124254 0.387253
O O5 0.500000 0.500000 0.896401
O O6 0.611005 0.303446 0.948529
O O7 0.851369 0.645081 0.524441
O O8 0.886203 0.320532 0.590064
O O9 0.000000 0.500000 0.540981
O O10 0.891602 0.144895 0.512208
O O11 0.750000 0.959612 0.484069
O O12 0.750000 0.082810 0.271903
O O13 0.872895 0.298253 0.230715
O O14 0.878859 0.801044 0.253372
O O15 0.110329 0.327034 0.172275
O O16 0.000000 0.500000 0.118943
O O17 0.000000 0.000000 0.140290
O O18 0.750000 0.113079 0.714110
#
# Coordination Sequence:
#
# PCOD9364120 Si02
#       7
#     8   8   8   8   8   8   8
#     4  11  22  41  66  90 121 164 214 260 307 369
#     4  12  25  42  62  91 128 164 202 254 319 379
#     4  11  23  43  65  89 124 166 203 249 314 379
#     4  12  25  42  65  94 123 157 208 260 309 369
#     4   9  19  36  60  88 119 158 202 250 303 356
#     4  11  23  41  62  89 124 161 200 244 304 368
#     4  10  20  37  61  89 120 158 204 249 297 356
#
# _framework density 22.028893
#
# number of rings (size 3 to 8) (size 9 to 14) (size 15 to 20)
#    0.000    1.143    0.000    7.714    0.000    3.429 
#    0.000    8.571    0.000    0.000    0.000    0.000 
#    0.000    0.000    0.000    0.000    0.000    0.000 
#
# Total GULP energy -156703.499151 kJ/mol
# GULP energy per Si atom -5596.553541 kJ/mol
# Density = 2.197875 g / cm^3
# Si number density = 22.028893 Si / 1000 Ang^3
#
#
#
# Elastic Constant Matrix: (Units=GPa)
#
#
# Indices 1 2 3 4 5 6 
#
# 1 38.2212 0.2269 15.4877 0.0000 0.0000 0.0000
# 2 0.2269 93.1778 -0.1084 0.0000 0.0000 0.0000
# 3 15.4877 -0.1084 77.2057 0.0000 0.0000 0.0000
# 4 0.0000 0.0000 0.0000 34.2100 0.0000 0.0000
# 5 0.0000 0.0000 0.0000 0.0000 17.8362 0.0000
# 6 0.0000 0.0000 0.0000 0.0000 0.0000 32.1071
#
#
#
# Elastic Compliance Matrix: (Units=1/GPa)
#
#
# Indices 1 2 3 4 5 6 
#
# 1 0.028479 -0.000076 -0.005713 0.000000 0.000000 0.000000
# 2 -0.000076 0.010732 0.000030 0.000000 0.000000 0.000000
# 3 -0.005713 0.000030 0.014099 0.000000 0.000000 0.000000
# 4 0.000000 0.000000 0.000000 0.029231 0.000000 0.000000
# 5 0.000000 0.000000 0.000000 0.000000 0.056066 0.000000
# 6 0.000000 0.000000 0.000000 0.000000 0.000000 0.031146
#
#
# Mechanical properties :
#
#
# Convention : Reuss Voigt Hill
#
# Bulk Modulus (GPa) = 23.92781 26.64632 25.28707
# Shear Modulus (GPa) = 25.61465 29.69723 27.65594
#
# Velocity S-wave (km/s) = 3.41365 3.67564 3.54706
# Velocity P-wave (km/s) = 5.14032 5.48963 5.31785
#
# Compressibility (1/GPa) = 0.04179238
#
# Stress axis : x y z
#
# Youngs Moduli (GPa) = 35.11368 93.17586 70.92948
#
# Poissons Ratio (x) = 0.00708 0.40522
# Poissons Ratio (y) = 0.00267 -0.00215
# Poissons Ratio (z) = 0.20061 -0.00282
#
# Static dielectric constant tensor:
#      x y z
#    x 1.812940 0.000000 0.000000 
#    y 0.000000 1.842190 0.000000 
#    z 0.000000 0.000000 1.804700 
# 
# From -- ./inp_files/26598.got.cif
#   From: 2010.05.17/outbox.cif.g08.bks.cpg/sg40_14_cif.got.tgz:26598.got - 2010.06.03 18:35:42.
