data_PCOD9364170
_publ_section_title
;
Structure prediction by ZEFSAII (Michael W. Deem and Ramdas Pophale) SiO2 
 PCOD9364170
Probable space group: A M A 2
;
_chemical_formula_sum "Si O2"
_cell_formula_units_Z 60
_cell_length_a 9.403449
_cell_length_b 25.845059
_cell_length_c 12.662971
_cell_angle_alpha 90.000000
_cell_angle_beta 90.000000
_cell_angle_gamma 90.000000
_cell_volume 3077.515959
_symmetry_space_group_name_H-M "A M A 2"
_symmetry_group_IT_number 40
_symmetry_cell_setting 'orthorhombic'
loop_
_space_group_symop_operation_xyz
x,y,z
-x,-y,z
1/2-x,y,z
1/2+x,-y,z
x,1/2+y,1/2+z
-x,1/2-y,1/2+z
1/2-x,1/2+y,1/2+z
1/2+x,1/2-y,1/2+z
loop_
_atom_site_type_symbol
_atom_site_label
_atom_site_fract_x
_atom_site_fract_y
_atom_site_fract_z
Si Si1 0.582080 0.445535 0.408150
Si Si2 0.416219 0.618764 0.625689
Si Si3 0.418036 0.447913 0.787677
Si Si4 0.506574 0.431030 0.029519
Si Si5 0.750000 0.014519 0.591112
Si Si6 0.585619 0.820585 0.599866
Si Si7 0.584177 0.707801 0.517935
Si Si8 0.917427 0.647446 0.301874
O O1 0.500000 0.500000 0.402756
O O2 0.750000 0.452252 0.382391
O O3 0.570884 0.420631 0.525577
O O4 0.508626 0.403587 0.331836
O O5 0.250000 0.621827 0.653395
O O6 0.510188 0.597192 0.720859
O O7 0.479794 0.673200 0.588393
O O8 0.500000 0.500000 0.755522
O O9 0.250000 0.452344 0.768333
O O10 0.444300 0.440963 0.912375
O O11 0.628598 0.471080 0.060013
O O12 0.375563 0.442013 0.106981
O O13 0.562640 0.372926 0.034493
O O14 0.750000 0.819098 0.636396
O O15 0.558527 0.768375 0.534853
O O16 0.481167 0.826234 0.698546
O O17 0.750000 0.697154 0.546434
O O18 0.564395 0.687422 0.399321
O O19 0.750000 0.635747 0.295742
#
# Coordination Sequence:
#
# PCOD9364170 Si02
#       8
#     8   8   8   8   4   8   8   8
#     4  10  20  38  58  86 120 157 199 248 298 353
#     4  10  22  36  59  87 118 158 204 250 301 353
#     4  12  22  35  56  87 123 163 201 247 298 356
#     4  11  21  39  59  86 121 163 193 245 293 358
#     4  10  20  40  60  80 122 162 196 240 298 350
#     4  11  24  41  64  92 119 156 198 242 296 355
#     4   9  21  44  64  83 118 157 196 250 298 345
#     4  10  22  41  64  88 118 155 198 245 296 350
#
# _framework density 19.496244000000001
#
# number of rings (size 3 to 8) (size 9 to 14) (size 15 to 20)
#    0.000    1.600    2.667    2.000    1.867    4.800 
#    2.400    1.333    0.000    0.000    0.000    0.000 
#    0.000    0.000    0.000    0.000    0.000    0.000 
#
# Total GULP energy -167087.102040 kJ/mol
# GULP energy per Si atom -5569.570068 kJ/mol
# Density = 1.945187 g / cm^3
# Si number density = 19.496244 Si / 1000 Ang^3
#
#
#
# Elastic Constant Matrix: (Units=GPa)
#
#
# Indices 1 2 3 4 5 6 
#
# 1 158.5174 53.4901 27.2846 0.0000 0.0000 0.0000
# 2 53.4901 134.6956 20.3940 0.0000 0.0000 0.0000
# 3 27.2846 20.3940 33.9921 0.0000 0.0000 0.0000
# 4 0.0000 0.0000 0.0000 19.0061 0.0000 0.0000
# 5 0.0000 0.0000 0.0000 0.0000 8.0680 0.0000
# 6 0.0000 0.0000 0.0000 0.0000 0.0000 34.4572
#
#
#
# Elastic Compliance Matrix: (Units=1/GPa)
#
#
# Indices 1 2 3 4 5 6 
#
# 1 0.007977 -0.002418 -0.004952 0.000000 0.000000 0.000000
# 2 -0.002418 0.008899 -0.003398 0.000000 0.000000 0.000000
# 3 -0.004952 -0.003398 0.035432 0.000000 0.000000 0.000000
# 4 0.000000 0.000000 0.000000 0.052615 0.000000 0.000000
# 5 0.000000 0.000000 0.000000 0.000000 0.123946 0.000000
# 6 0.000000 0.000000 0.000000 0.000000 0.000000 0.029022
#
#
# Mechanical properties :
#
#
# Convention : Reuss Voigt Hill
#
# Bulk Modulus (GPa) = 32.49754 58.83804 45.66779
# Shear Modulus (GPa) = 17.26022 27.37535 22.31779
#
# Velocity S-wave (km/s) = 2.97864 3.75124 3.38704
# Velocity P-wave (km/s) = 5.34177 7.00051 6.22662
#
# Compressibility (1/GPa) = 0.03077156
#
# Stress axis : x y z
#
# Youngs Moduli (GPa) = 125.36471 112.37388 28.22285
#
# Poissons Ratio (x) = 0.27171 0.13976
# Poissons Ratio (y) = 0.30312 0.09591
# Poissons Ratio (z) = 0.62081 0.38187
#
# Static dielectric constant tensor:
#      x y z
#    x 1.660750 0.000000 0.000000 
#    y 0.000000 1.670410 0.000000 
#    z 0.000000 0.000000 1.727980 
# 
# From -- ./inp_files/15501.got.cif
#   From: 2010.05.17/outbox.cif.g08.bks.cpg/sg40_8_cif.got.tgz:15501.got - 2010.06.03 18:35:42.
