data_PCOD9364421
_publ_section_title
;
Structure prediction by ZEFSAII (Michael W. Deem and Ramdas Pophale) SiO2 
 PCOD9364421
Probable space group: A M A 2
;
_chemical_formula_sum "Si O2"
_cell_formula_units_Z 48
_cell_length_a 23.608129
_cell_length_b 9.585023
_cell_length_c 10.483831
_cell_angle_alpha 90.000000
_cell_angle_beta 90.000000
_cell_angle_gamma 90.000000
_cell_volume 2372.328031
_symmetry_space_group_name_H-M "A M A 2"
_symmetry_group_IT_number 40
_symmetry_cell_setting 'orthorhombic'
loop_
_space_group_symop_operation_xyz
x,y,z
-x,-y,z
1/2-x,y,z
1/2+x,-y,z
x,1/2+y,1/2+z
-x,1/2-y,1/2+z
1/2-x,1/2+y,1/2+z
1/2+x,1/2-y,1/2+z
loop_
_atom_site_type_symbol
_atom_site_label
_atom_site_fract_x
_atom_site_fract_y
_atom_site_fract_z
Si Si1 0.656380 0.321742 0.772570
Si Si2 0.750000 0.097569 0.699250
Si Si3 0.750000 0.946474 0.441845
Si Si4 0.474684 0.158162 0.256509
Si Si5 0.750000 0.641549 0.559348
Si Si6 0.750000 0.287839 0.316053
Si Si7 0.339197 0.583416 0.483911
Si Si8 0.965165 0.859121 0.955443
O O1 0.695207 0.182687 0.750702
O O2 0.693063 0.428185 0.858354
O O3 0.589994 0.318685 0.808968
O O4 0.654936 0.376426 0.629861
O O5 0.750000 0.068811 0.546571
O O6 0.750000 0.941022 0.751040
O O7 0.750000 0.798367 0.513620
O O8 0.472357 0.194296 0.103497
O O9 0.514070 0.251876 0.347753
O O10 0.500000 0.000000 0.263198
O O11 0.750000 0.664457 0.712782
O O12 0.696601 0.558570 0.501682
O O13 0.695725 0.301901 0.405719
O O14 0.401522 0.588367 0.429366
O O15 0.000000 0.000000 0.947302
#
# Coordination Sequence:
#
# PCOD9364421 Si02
#       8
#     8   4   4   8   4   4   8   8
#     4  10  21  37  62  82 126 162 199 262 313 374
#     4  10  21  36  55  93 122 154 207 246 315 381
#     4  10  21  36  59  95 122 164 195 253 320 375
#     4  10  24  45  64  95 128 170 223 272 323 385
#     4  10  21  36  59  91 128 160 197 252 319 377
#     4  10  21  34  57  91 124 156 201 253 310 389
#     4  10  21  37  58  86 120 159 206 252 310 385
#     4  10  24  42  67  92 125 172 219 271 322 379
#
# _framework density 20.233291000000001
#
# number of rings (size 3 to 8) (size 9 to 14) (size 15 to 20)
#    0.000    2.000    0.000    4.000    4.667   10.000 
#    3.000    0.000    0.000    0.000    0.000    0.000 
#    0.000    0.000    0.000    0.000    0.000    0.000 
#
# Total GULP energy -133637.653978 kJ/mol
# GULP energy per Si atom -5568.235582 kJ/mol
# Density = 2.018724 g / cm^3
# Si number density = 20.233291 Si / 1000 Ang^3
#
#
#
# Elastic Constant Matrix: (Units=GPa)
#
#
# Indices 1 2 3 4 5 6 
#
# 1 183.7875 56.0338 48.5460 0.0000 0.0000 0.0000
# 2 56.0338 99.8796 30.6751 0.0000 0.0000 0.0000
# 3 48.5460 30.6751 71.3074 0.0000 0.0000 0.0000
# 4 0.0000 0.0000 0.0000 34.8662 0.0000 0.0000
# 5 0.0000 0.0000 0.0000 0.0000 34.7322 0.0000
# 6 0.0000 0.0000 0.0000 0.0000 0.0000 -27.6289
#
#
#
# Elastic Compliance Matrix: (Units=1/GPa)
#
#
# Indices 1 2 3 4 5 6 
#
# 1 0.007327 -0.002971 -0.003710 0.000000 0.000000 0.000000
# 2 -0.002971 0.012741 -0.003458 0.000000 0.000000 0.000000
# 3 -0.003710 -0.003458 0.018037 0.000000 0.000000 0.000000
# 4 0.000000 0.000000 0.000000 0.028681 0.000000 0.000000
# 5 0.000000 0.000000 0.000000 0.000000 0.028792 0.000000
# 6 0.000000 0.000000 0.000000 0.000000 0.000000 -0.036194
#
#
# Mechanical properties :
#
#
# Convention : Reuss Voigt Hill
#
# Bulk Modulus (GPa) = 56.09646 69.49826 62.79736
# Shear Modulus (GPa) = 58.40805 23.04187 40.72496
#
# Velocity S-wave (km/s) = 5.37866 3.37829 4.49126
# Velocity P-wave (km/s) = 8.14606 7.04558 7.61572
#
# Compressibility (1/GPa) = 0.01782644
#
# Stress axis : x y z
#
# Youngs Moduli (GPa) = 136.48394 78.48716 55.44079
#
# Poissons Ratio (x) = 0.23319 0.20569
# Poissons Ratio (y) = 0.40550 0.19173
# Poissons Ratio (z) = 0.50636 0.27143
#
# Static dielectric constant tensor:
#      x y z
#    x 1.830780 0.000000 0.000000 
#    y 0.000000 1.735980 0.000000 
#    z 0.000000 0.000000 1.799500 
# 
# From -- ./inp_files/13969.got.cif
#   From: 2010.05.17/outbox.cif.g08.bks.cpg/sg40_7_cif.got.tgz:13969.got - 2010.06.03 18:35:42.
