data_PCOD9364676
_publ_section_title
;
Structure prediction by ZEFSAII (Michael W. Deem and Ramdas Pophale) SiO2 
 PCOD9364676
Probable space group: A M A 2
;
_chemical_formula_sum "Si O2"
_cell_formula_units_Z 48
_cell_length_a 8.768658
_cell_length_b 23.379998
_cell_length_c 11.796669
_cell_angle_alpha 90.000000
_cell_angle_beta 90.000000
_cell_angle_gamma 90.000000
_cell_volume 2418.449344
_symmetry_space_group_name_H-M "A M A 2"
_symmetry_group_IT_number 40
_symmetry_cell_setting 'orthorhombic'
loop_
_space_group_symop_operation_xyz
x,y,z
-x,-y,z
1/2-x,y,z
1/2+x,-y,z
x,1/2+y,1/2+z
-x,1/2-y,1/2+z
1/2-x,1/2+y,1/2+z
1/2+x,1/2-y,1/2+z
loop_
_atom_site_type_symbol
_atom_site_label
_atom_site_fract_x
_atom_site_fract_y
_atom_site_fract_z
Si Si1 0.930668 0.229756 0.884200
Si Si2 0.565036 0.860011 0.047295
Si Si3 0.922074 0.441010 0.345912
Si Si4 0.067801 0.435966 0.748083
Si Si5 0.574979 0.339483 0.176605
Si Si6 0.070510 0.347594 0.934324
O O1 0.750000 0.220900 0.882728
O O2 0.999690 0.199859 0.998351
O O3 0.007162 0.201516 0.773430
O O4 0.973476 0.296146 0.881339
O O5 0.750000 0.855786 0.050070
O O6 0.512173 0.904321 0.949197
O O7 0.502916 0.889386 0.160865
O O8 0.750000 0.453482 0.380910
O O9 0.921490 0.400854 0.237331
O O10 0.000000 0.500000 0.324112
O O11 0.250000 0.439110 0.729897
O O12 0.038910 0.407598 0.871527
O O13 0.000000 0.500000 0.735592
O O14 0.750000 0.322595 0.149056
O O15 0.474335 0.345372 0.065516
O O16 0.250000 0.335407 0.919312
#
# Coordination Sequence:
#
# PCOD9364676 Si02
#       6
#     8   8   8   8   8   8
#     4  11  23  40  65  94 125 162 206 259 322 382
#     4  10  21  39  63  92 127 164 209 263 315 372
#     4   9  19  34  56  86 118 155 195 247 302 358
#     4  11  25  43  64  92 129 172 219 265 318 383
#     4  10  22  41  61  87 122 158 204 256 310 374
#     4  11  25  43  63  89 123 165 211 260 316 381
#
# _framework density 19.847427
#
# number of rings (size 3 to 8) (size 9 to 14) (size 15 to 20)
#    0.000    1.667    0.000    5.000    2.333    8.667 
#    0.000    3.333    0.000    0.000    0.000    0.000 
#    0.000    0.000    0.000    0.000    0.000    0.000 
#
# Total GULP energy -133976.547105 kJ/mol
# GULP energy per Si atom -5582.356129 kJ/mol
# Density = 1.980225 g / cm^3
# Si number density = 19.847427 Si / 1000 Ang^3
#
#
#
# Elastic Constant Matrix: (Units=GPa)
#
#
# Indices 1 2 3 4 5 6 
#
# 1 77.6888 27.1021 5.6935 0.0000 0.0000 0.0000
# 2 27.1021 72.6328 9.9938 0.0000 0.0000 0.0000
# 3 5.6935 9.9938 63.5819 0.0000 0.0000 0.0000
# 4 0.0000 0.0000 0.0000 7.8150 0.0000 0.0000
# 5 0.0000 0.0000 0.0000 0.0000 34.8388 0.0000
# 6 0.0000 0.0000 0.0000 0.0000 0.0000 31.3558
#
#
#
# Elastic Compliance Matrix: (Units=1/GPa)
#
#
# Indices 1 2 3 4 5 6 
#
# 1 0.014812 -0.005462 -0.000468 0.000000 0.000000 0.000000
# 2 -0.005462 0.016087 -0.002039 0.000000 0.000000 0.000000
# 3 -0.000468 -0.002039 0.016090 0.000000 0.000000 0.000000
# 4 0.000000 0.000000 0.000000 0.127959 0.000000 0.000000
# 5 0.000000 0.000000 0.000000 0.000000 0.028704 0.000000
# 6 0.000000 0.000000 0.000000 0.000000 0.000000 0.031892
#
#
# Mechanical properties :
#
#
# Convention : Reuss Voigt Hill
#
# Bulk Modulus (GPa) = 32.20662 33.27580 32.74121
# Shear Modulus (GPa) = 19.09619 26.20952 22.65285
#
# Velocity S-wave (km/s) = 3.10522 3.63788 3.38205
# Velocity P-wave (km/s) = 5.39619 5.86922 5.63767
#
# Compressibility (1/GPa) = 0.03104952
#
# Stress axis : x y z
#
# Youngs Moduli (GPa) = 67.51394 62.16297 62.14971
#
# Poissons Ratio (x) = 0.33956 0.02907
# Poissons Ratio (y) = 0.36879 0.12675
# Poissons Ratio (z) = 0.03158 0.12677
#
# Static dielectric constant tensor:
#      x y z
#    x 1.677800 0.000000 0.000000 
#    y 0.000000 1.708150 0.000000 
#    z 0.000000 0.000000 1.707430 
# 
# From -- ./inp_files/10248.got.cif
#   From: 2010.05.17/outbox.cif.g08.bks.cpg/sg40_6_cif.got.tgz:10248.got - 2010.06.03 18:35:42.
