data_PCOD9364024
_publ_section_title
;
Structure prediction by ZEFSAII (Michael W. Deem and Ramdas Pophale) SiO2 
 PCOD9364024
Probable space group: A M A 2
;
_chemical_formula_sum "Si O2"
_cell_formula_units_Z 40
_cell_length_a 8.938218
_cell_length_b 17.660276
_cell_length_c 12.976599
_cell_angle_alpha 90.000000
_cell_angle_beta 90.000000
_cell_angle_gamma 90.000000
_cell_volume 2048.374278
_symmetry_space_group_name_H-M "A M A 2"
_symmetry_group_IT_number 40
_symmetry_cell_setting 'orthorhombic'
loop_
_space_group_symop_operation_xyz
x,y,z
-x,-y,z
1/2-x,y,z
1/2+x,-y,z
x,1/2+y,1/2+z
-x,1/2-y,1/2+z
1/2-x,1/2+y,1/2+z
1/2+x,1/2-y,1/2+z
loop_
_atom_site_type_symbol
_atom_site_label
_atom_site_fract_x
_atom_site_fract_y
_atom_site_fract_z
Si Si1 0.578334 0.682013 0.273080
Si Si2 0.420563 0.420429 0.472773
Si Si3 0.931096 0.085424 0.571843
Si Si4 0.072470 0.082538 0.166784
Si Si5 0.571168 0.166592 0.355744
O O1 0.750000 0.709130 0.252666
O O2 0.583033 0.623214 0.366417
O O3 0.525493 0.636810 0.171208
O O4 0.481619 0.750399 0.319455
O O5 0.500000 0.500000 0.452446
O O6 0.250000 0.432128 0.508291
O O7 0.510485 0.377452 0.563285
O O8 0.750000 0.077045 0.575227
O O9 0.969883 0.133623 0.468701
O O10 0.000000 0.000000 0.571867
O O11 0.250000 0.081250 0.166820
O O12 0.008784 0.115323 0.271081
O O13 0.000000 0.000000 0.158066
O O14 0.750000 0.161578 0.347750
#
# Coordination Sequence:
#
# PCOD9364024 Si02
#       5
#     8   8   8   8   8
#     4  10  23  41  61  90 127 162 203 257 309 368
#     4  10  20  36  60  89 121 157 202 248 302 365
#     4  10  23  43  66  93 126 165 211 259 312 376
#     4  11  22  38  61  87 120 158 201 251 306 363
#     4  11  24  40  61  91 125 162 207 255 311 372
#
# _framework density 19.52768
#
# number of rings (size 3 to 8) (size 9 to 14) (size 15 to 20)
#    0.000    1.600    0.000    5.400    2.800    5.600 
#    0.000    0.000    0.000    0.000    0.000    0.000 
#    0.000    0.000    0.000    0.000    0.000    0.000 
#
# Total GULP energy -111554.456588 kJ/mol
# GULP energy per Si atom -5577.722829 kJ/mol
# Density = 1.948323 g / cm^3
# Si number density = 19.527680 Si / 1000 Ang^3
#
#
#
# Elastic Constant Matrix: (Units=GPa)
#
#
# Indices 1 2 3 4 5 6 
#
# 1 112.2605 47.0448 63.7414 0.0000 0.0000 0.0000
# 2 47.0448 89.2529 65.4137 0.0000 0.0000 0.0000
# 3 63.7414 65.4137 186.8914 0.0000 0.0000 0.0000
# 4 0.0000 0.0000 0.0000 229.5836 0.0000 0.0000
# 5 0.0000 0.0000 0.0000 0.0000 23.1077 0.0000
# 6 0.0000 0.0000 0.0000 0.0000 0.0000 26.4982
#
#
#
# Elastic Compliance Matrix: (Units=1/GPa)
#
#
# Indices 1 2 3 4 5 6 
#
# 1 0.012300 -0.004585 -0.002590 0.000000 0.000000 0.000000
# 2 -0.004585 0.016779 -0.004309 0.000000 0.000000 0.000000
# 3 -0.002590 -0.004309 0.007742 0.000000 0.000000 0.000000
# 4 0.000000 0.000000 0.000000 0.004356 0.000000 0.000000
# 5 0.000000 0.000000 0.000000 0.000000 0.043276 0.000000
# 6 0.000000 0.000000 0.000000 0.000000 0.000000 0.037738
#
#
# Mechanical properties :
#
#
# Convention : Reuss Voigt Hill
#
# Bulk Modulus (GPa) = 72.18733 82.31161 77.24947
# Shear Modulus (GPa) = 33.38296 69.98488 51.68392
#
# Velocity S-wave (km/s) = 4.13912 5.99305 5.15019
# Velocity P-wave (km/s) = 7.73886 9.49377 8.66088
#
# Compressibility (1/GPa) = 0.01385285
#
# Stress axis : x y z
#
# Youngs Moduli (GPa) = 81.30099 59.59877 129.15952
#
# Poissons Ratio (x) = 0.27325 0.33456
# Poissons Ratio (y) = 0.37275 0.55656
# Poissons Ratio (z) = 0.21060 0.25681
#
# Static dielectric constant tensor:
#      x y z
#    x 1.683520 0.000000 0.000000 
#    y 0.000000 1.604930 0.000000 
#    z 0.000000 0.000000 1.748310 
# 
# From -- ./inp_files/10002.got.cif
#   From: 2010.05.17/outbox.cif.g08.bks.cpg/sg40_6_cif.got.tgz:10002.got - 2010.06.03 18:35:42.
