data_PCOD9364340
_publ_section_title
;
Structure prediction by ZEFSAII (Michael W. Deem and Ramdas Pophale) SiO2 
 PCOD9364340
Probable space group: A M A 2
;
_chemical_formula_sum "Si O2"
_cell_formula_units_Z 44
_cell_length_a 20.501163
_cell_length_b 16.728807
_cell_length_c 5.140783
_cell_angle_alpha 90.000000
_cell_angle_beta 90.000000
_cell_angle_gamma 90.000000
_cell_volume 1763.082933
_symmetry_space_group_name_H-M "A M A 2"
_symmetry_group_IT_number 40
_symmetry_cell_setting 'orthorhombic'
loop_
_space_group_symop_operation_xyz
x,y,z
-x,-y,z
1/2-x,y,z
1/2+x,-y,z
x,1/2+y,1/2+z
-x,1/2-y,1/2+z
1/2-x,1/2+y,1/2+z
1/2+x,1/2-y,1/2+z
loop_
_atom_site_type_symbol
_atom_site_label
_atom_site_fract_x
_atom_site_fract_y
_atom_site_fract_z
Si Si1 0.453970 0.077364 0.925950
Si Si2 0.364586 0.754862 0.569890
Si Si3 0.750000 0.124870 0.394434
Si Si4 0.021804 0.371718 0.930301
Si Si5 0.135108 0.495369 0.805131
Si Si6 0.172035 0.158057 0.572061
O O1 0.466854 0.117116 0.648623
O O2 0.500000 0.000000 0.912496
O O3 0.486027 0.131493 0.153413
O O4 0.388504 0.038549 0.042623
O O5 0.307198 0.819208 0.528430
O O6 0.432073 0.799019 0.509141
O O7 0.357961 0.716338 0.852926
O O8 0.352655 0.687367 0.351894
O O9 0.807445 0.067528 0.267184
O O10 0.071888 0.447596 0.914037
O O11 0.159732 0.566285 0.992137
O O12 0.250000 0.171381 0.569333
#
# Coordination Sequence:
#
# PCOD9364340 Si02
#       6
#     8   8   4   8   8   8
#     4  10  20  40  66  99 133 173 225 288 337 389
#     4  11  24  43  68  95 142 184 229 278 345 421
#     4  10  20  44  68 106 130 184 232 280 348 426
#     4  10  22  42  69  96 131 182 232 275 331 408
#     4  10  23  40  75 102 142 175 234 288 349 410
#     4  12  23  44  65 104 144 181 219 285 356 407
#
# _framework density 24.956287
#
# number of rings (size 3 to 8) (size 9 to 14) (size 15 to 20)
#    0.000    1.455    2.727    2.727    0.000    4.364 
#    0.000    9.091    0.000    2.182    0.000    0.000 
#    0.000    0.000    0.000    0.000    0.000    0.000 
#
# Total GULP energy -122788.047405 kJ/mol
# GULP energy per Si atom -5581.274882 kJ/mol
# Density = 2.489949 g / cm^3
# Si number density = 24.956287 Si / 1000 Ang^3
#
#
#
# Elastic Constant Matrix: (Units=GPa)
#
#
# Indices 1 2 3 4 5 6 
#
# 1 102.5790 30.6434 25.3179 0.0000 0.0000 0.0000
# 2 30.6434 102.6388 34.1869 0.0000 0.0000 0.0000
# 3 25.3179 34.1869 146.7252 0.0000 0.0000 0.0000
# 4 0.0000 0.0000 0.0000 23.5283 0.0000 0.0000
# 5 0.0000 0.0000 0.0000 0.0000 23.8830 0.0000
# 6 0.0000 0.0000 0.0000 0.0000 0.0000 50.2155
#
#
#
# Elastic Compliance Matrix: (Units=1/GPa)
#
#
# Indices 1 2 3 4 5 6 
#
# 1 0.010900 -0.002849 -0.001217 0.000000 0.000000 0.000000
# 2 -0.002849 0.011307 -0.002143 0.000000 0.000000 0.000000
# 3 -0.001217 -0.002143 0.007525 0.000000 0.000000 0.000000
# 4 0.000000 0.000000 0.000000 0.042502 0.000000 0.000000
# 5 0.000000 0.000000 0.000000 0.000000 0.041871 0.000000
# 6 0.000000 0.000000 0.000000 0.000000 0.000000 0.019914
#
#
# Mechanical properties :
#
#
# Convention : Reuss Voigt Hill
#
# Bulk Modulus (GPa) = 57.75609 59.13769 58.44689
# Shear Modulus (GPa) = 32.84970 36.97834 34.91402
#
# Velocity S-wave (km/s) = 3.63201 3.85349 3.74439
# Velocity P-wave (km/s) = 6.38606 6.59903 6.49342
#
# Compressibility (1/GPa) = 0.01731419
#
# Stress axis : x y z
#
# Youngs Moduli (GPa) = 91.74302 88.43885 132.89419
#
# Poissons Ratio (x) = 0.25195 0.16174
# Poissons Ratio (y) = 0.26137 0.28479
# Poissons Ratio (z) = 0.11165 0.18952
#
# Static dielectric constant tensor:
#      x y z
#    x 1.986310 0.000000 0.000000 
#    y 0.000000 2.047830 0.000000 
#    z 0.000000 0.000000 1.947880 
# 
# From -- ./inp_files/2693.got.cif
#   From: 2010.05.17/outbox.cif.g08.bks.cpg/sg40_2_cif.got.tgz:2693.got - 2010.06.03 18:35:42.
