data_PCOD9364010
_publ_section_title
;
Structure prediction by ZEFSAII (Michael W. Deem and Ramdas Pophale) SiO2 
 PCOD9364010
Probable space group: A M A 2
;
_chemical_formula_sum "Si O2"
_cell_formula_units_Z 64
_cell_length_a 18.879657
_cell_length_b 15.935882
_cell_length_c 12.143107
_cell_angle_alpha 90.000000
_cell_angle_beta 90.000000
_cell_angle_gamma 90.000000
_cell_volume 3653.423576
_symmetry_space_group_name_H-M "A M A 2"
_symmetry_group_IT_number 40
_symmetry_cell_setting 'orthorhombic'
loop_
_space_group_symop_operation_xyz
x,y,z
-x,-y,z
1/2-x,y,z
1/2+x,-y,z
x,1/2+y,1/2+z
-x,1/2-y,1/2+z
1/2-x,1/2+y,1/2+z
1/2+x,1/2-y,1/2+z
loop_
_atom_site_type_symbol
_atom_site_label
_atom_site_fract_x
_atom_site_fract_y
_atom_site_fract_z
Si Si1 0.422070 0.722695 0.031950
Si Si2 0.666402 0.355660 0.434019
Si Si3 0.558066 0.120167 0.180275
Si Si4 0.167315 0.134548 0.361670
Si Si5 0.832446 0.401210 0.183133
Si Si6 0.832433 0.531710 0.007819
Si Si7 0.896331 0.436308 0.646328
Si Si8 0.925240 0.185894 0.429638
O O1 0.418994 0.813338 0.088022
O O2 0.386971 0.660039 0.121446
O O3 0.376436 0.707070 0.921908
O O4 0.502042 0.700644 0.996177
O O5 0.750000 0.340226 0.452024
O O6 0.658109 0.395539 0.312994
O O7 0.635673 0.415844 0.527918
O O8 0.622661 0.269038 0.435660
O O9 0.477530 0.093548 0.154804
O O10 0.560944 0.161422 0.301724
O O11 0.603942 0.035043 0.175247
O O12 0.250000 0.151436 0.371544
O O13 0.145647 0.116807 0.237341
O O14 0.152099 0.047521 0.427606
O O15 0.750000 0.376327 0.157750
O O16 0.841455 0.492659 0.129329
O O17 0.750000 0.554960 0.991761
O O18 0.883009 0.608127 0.981623
#
# Coordination Sequence:
#
# PCOD9364010 Si02
#       8
#     8   8   8   8   8   8   8   8
#     4  11  21  37  61  89 120 152 200 248 303 353
#     4  11  23  40  59  85 122 165 196 237 304 364
#     4  11  23  39  60  90 123 154 201 252 301 360
#     4  10  20  36  59  88 121 154 196 252 305 349
#     4   9  20  38  59  83 120 157 195 245 299 356
#     4   9  19  36  58  90 117 146 196 249 291 347
#     4  11  22  40  60  86 123 161 197 250 302 365
#     4  12  21  37  63  89 119 154 201 248 297 356
#
# _framework density 17.517814000000001
#
# number of rings (size 3 to 8) (size 9 to 14) (size 15 to 20)
#    0.000    1.500    5.000    1.875    0.000    2.000 
#    0.000    7.500    0.000    1.500    0.000    0.000 
#    0.000    0.000    0.000    0.000    0.000    0.000 
#
# Total GULP energy -178570.361816 kJ/mol
# GULP energy per Si atom -5580.323807 kJ/mol
# Density = 1.747794 g / cm^3
# Si number density = 17.517814 Si / 1000 Ang^3
#
#
#
# Elastic Constant Matrix: (Units=GPa)
#
#
# Indices 1 2 3 4 5 6 
#
# 1 64.1528 32.7334 41.6406 0.0000 0.0000 0.0000
# 2 32.7334 71.7616 39.0548 0.0000 0.0000 0.0000
# 3 41.6406 39.0548 107.1253 0.0000 0.0000 0.0000
# 4 0.0000 0.0000 0.0000 30.4078 0.0000 0.0000
# 5 0.0000 0.0000 0.0000 0.0000 29.0936 0.0000
# 6 0.0000 0.0000 0.0000 0.0000 0.0000 15.6274
#
#
#
# Elastic Compliance Matrix: (Units=1/GPa)
#
#
# Indices 1 2 3 4 5 6 
#
# 1 0.023468 -0.007161 -0.006512 0.000000 0.000000 0.000000
# 2 -0.007161 0.019569 -0.004351 0.000000 0.000000 0.000000
# 3 -0.006512 -0.004351 0.013452 0.000000 0.000000 0.000000
# 4 0.000000 0.000000 0.000000 0.032886 0.000000 0.000000
# 5 0.000000 0.000000 0.000000 0.000000 0.034372 0.000000
# 6 0.000000 0.000000 0.000000 0.000000 0.000000 0.063990
#
#
# Mechanical properties :
#
#
# Convention : Reuss Voigt Hill
#
# Bulk Modulus (GPa) = 48.91709 52.21084 50.56396
# Shear Modulus (GPa) = 21.68264 23.66648 22.67456
#
# Velocity S-wave (km/s) = 3.52198 3.67958 3.60164
# Velocity P-wave (km/s) = 6.67263 6.92254 6.79873
#
# Compressibility (1/GPa) = 0.02044275
#
# Stress axis : x y z
#
# Youngs Moduli (GPa) = 42.61079 51.10039 74.33726
#
# Poissons Ratio (x) = 0.36593 0.48406
# Poissons Ratio (y) = 0.30514 0.32343
# Poissons Ratio (z) = 0.27747 0.22233
#
# Static dielectric constant tensor:
#      x y z
#    x 1.594750 0.000000 0.000000 
#    y 0.000000 1.575230 0.000000 
#    z 0.000000 0.000000 1.596530 
# 
# From -- ./inp_files/13099.got.cif
#   From: 2010.05.17/outbox.cif.g08.bks.cpg/sg40_7_cif.got.tgz:13099.got - 2010.06.03 18:35:42.
