data_PCOD9364743
_publ_section_title
;
Structure prediction by ZEFSAII (Michael W. Deem and Ramdas Pophale) SiO2 
 PCOD9364743
Probable space group: A M A 2
;
_chemical_formula_sum "Si O2"
_cell_formula_units_Z 56
_cell_length_a 14.840129
_cell_length_b 29.154679
_cell_length_c 6.034364
_cell_angle_alpha 90.000000
_cell_angle_beta 90.000000
_cell_angle_gamma 90.000000
_cell_volume 2610.823085
_symmetry_space_group_name_H-M "A M A 2"
_symmetry_group_IT_number 40
_symmetry_cell_setting 'orthorhombic'
loop_
_space_group_symop_operation_xyz
x,y,z
-x,-y,z
1/2-x,y,z
1/2+x,-y,z
x,1/2+y,1/2+z
-x,1/2-y,1/2+z
1/2-x,1/2+y,1/2+z
1/2+x,1/2-y,1/2+z
loop_
_atom_site_type_symbol
_atom_site_label
_atom_site_fract_x
_atom_site_fract_y
_atom_site_fract_z
Si Si1 0.145158 0.065301 0.275850
Si Si2 0.350448 0.992890 0.895700
Si Si3 0.453835 0.754577 0.785093
Si Si4 0.148469 0.901924 0.199458
Si Si5 0.027620 0.439369 0.079644
Si Si6 0.148072 0.169882 0.124224
Si Si7 0.523633 0.149212 0.875316
O O1 0.250000 0.054402 0.339561
O O2 0.140791 0.120119 0.241487
O O3 0.062193 0.052542 0.434774
O O4 0.128580 0.036855 0.048342
O O5 0.250000 0.999537 0.802736
O O6 0.422762 0.979247 0.715045
O O7 0.348290 0.947746 0.049520
O O8 0.507828 0.749057 0.543816
O O9 0.382358 0.713255 0.769584
O O10 0.424555 0.807861 0.768836
O O11 0.250000 0.884064 0.219661
O O12 0.106250 0.919692 0.423730
O O13 0.079944 0.865896 0.090995
O O14 0.009279 0.396779 0.239698
O O15 0.250000 0.175347 0.047954
O O16 0.076140 0.166937 0.928058
#
# Coordination Sequence:
#
# PCOD9364743 Si02
#       7
#     8   8   8   8   8   8   8
#     4  10  21  41  67  97 137 177 229 289 348 424
#     4   9  21  42  63  92 131 173 225 288 348 417
#     4  10  22  41  71  99 139 186 236 291 354 424
#     4  10  21  40  63  93 131 171 227 291 348 415
#     4  11  21  40  70  96 129 181 234 284 360 422
#     4  10  21  42  68 100 141 185 229 281 353 435
#     4  10  22  40  67  98 141 174 227 295 356 420
#
# _framework density 21.449173999999999
#
# number of rings (size 3 to 8) (size 9 to 14) (size 15 to 20)
#    0.000    2.000    1.429    1.286    2.000    2.286 
#    5.143    4.286    0.000    1.714    0.000    0.000 
#    0.000    0.000    0.000    0.000    0.000    0.000 
#
# Total GULP energy -156063.287619 kJ/mol
# GULP energy per Si atom -5573.688844 kJ/mol
# Density = 2.140035 g / cm^3
# Si number density = 21.449174 Si / 1000 Ang^3
#
#
#
# Elastic Constant Matrix: (Units=GPa)
#
#
# Indices 1 2 3 4 5 6 
#
# 1 148.2037 63.3625 64.0731 0.0000 0.0000 0.0000
# 2 63.3625 118.4293 29.5820 0.0000 0.0000 0.0000
# 3 64.0731 29.5820 71.0657 0.0000 0.0000 0.0000
# 4 0.0000 0.0000 0.0000 24.7937 0.0000 0.0000
# 5 0.0000 0.0000 0.0000 0.0000 8.6718 0.0000
# 6 0.0000 0.0000 0.0000 0.0000 0.0000 26.7854
#
#
#
# Elastic Compliance Matrix: (Units=1/GPa)
#
#
# Indices 1 2 3 4 5 6 
#
# 1 0.012862 -0.004447 -0.009745 0.000000 0.000000 0.000000
# 2 -0.004447 0.010961 -0.000553 0.000000 0.000000 0.000000
# 3 -0.009745 -0.000553 0.023088 0.000000 0.000000 0.000000
# 4 0.000000 0.000000 0.000000 0.040333 0.000000 0.000000
# 5 0.000000 0.000000 0.000000 0.000000 0.115316 0.000000
# 6 0.000000 0.000000 0.000000 0.000000 0.000000 0.037334
#
#
# Mechanical properties :
#
#
# Convention : Reuss Voigt Hill
#
# Bulk Modulus (GPa) = 57.40453 72.41488 64.90970
# Shear Modulus (GPa) = 18.16911 24.09559 21.13235
#
# Velocity S-wave (km/s) = 2.91362 3.35532 3.14224
# Velocity P-wave (km/s) = 6.17576 6.98895 6.59490
#
# Compressibility (1/GPa) = 0.01742023
#
# Stress axis : x y z
#
# Youngs Moduli (GPa) = 77.74847 91.22906 43.31245
#
# Poissons Ratio (x) = 0.40572 0.42209
# Poissons Ratio (y) = 0.34577 0.02396
# Poissons Ratio (z) = 0.75767 0.05047
#
# Static dielectric constant tensor:
#      x y z
#    x 1.786400 0.000000 0.000000 
#    y 0.000000 1.891370 0.000000 
#    z 0.000000 0.000000 1.829780 
# 
# From -- ./inp_files/1458.got.cif
#   From: 2010.05.17/outbox.cif.g08.bks.cpg/sg40_1_cif.got.tgz:1458.got - 2010.06.03 18:35:42.
