data_PCOD9364161
_publ_section_title
;
Structure prediction by ZEFSAII (Michael W. Deem and Ramdas Pophale) SiO2 
 PCOD9364161
Probable space group: A M A 2
;
_chemical_formula_sum "Si O2"
_cell_formula_units_Z 48
_cell_length_a 30.564848
_cell_length_b 12.623506
_cell_length_c 5.288674
_cell_angle_alpha 90.000000
_cell_angle_beta 90.000000
_cell_angle_gamma 90.000000
_cell_volume 2040.558400
_symmetry_space_group_name_H-M "A M A 2"
_symmetry_group_IT_number 40
_symmetry_cell_setting 'orthorhombic'
loop_
_space_group_symop_operation_xyz
x,y,z
-x,-y,z
1/2-x,y,z
1/2+x,-y,z
x,1/2+y,1/2+z
-x,1/2-y,1/2+z
1/2-x,1/2+y,1/2+z
1/2+x,1/2-y,1/2+z
loop_
_atom_site_type_symbol
_atom_site_label
_atom_site_fract_x
_atom_site_fract_y
_atom_site_fract_z
Si Si1 0.250000 0.452941 0.721570
Si Si2 0.750000 0.683538 0.219677
Si Si3 0.156124 0.298113 0.205800
Si Si4 0.026383 0.772833 0.327523
Si Si5 0.111905 0.153154 0.640154
Si Si6 0.094867 0.435823 0.876185
Si Si7 0.337341 0.017255 0.986398
O O1 0.250000 0.357466 0.511916
O O2 0.294856 0.515643 0.664901
O O3 0.250000 0.408440 0.004389
O O4 0.795062 0.745527 0.167668
O O5 0.130369 0.225464 0.409364
O O6 0.169029 0.415278 0.310287
O O7 0.124455 0.337855 0.981398
O O8 0.067879 0.702527 0.248928
O O9 0.046781 0.890550 0.334752
O O10 0.008479 0.741691 0.602903
O O11 0.096913 0.035923 0.557060
O O12 0.150714 0.123851 0.836719
O O13 0.119185 0.482353 0.634624
#
# Coordination Sequence:
#
# PCOD9364161 Si02
#       7
#     4   4   8   8   8   8   8
#     4  10  20  41  67 108 148 194 246 301 350 432
#     4  10  20  37  69 102 146 200 248 297 356 426
#     4  10  21  43  68 103 150 195 246 298 365 439
#     4  12  29  53  75 106 147 185 245 316 372 452
#     4  11  26  45  74 107 142 197 242 307 379 452
#     4  11  24  46  74 102 142 195 236 306 379 445
#     4  10  22  41  73 102 148 193 242 298 367 435
#
# _framework density 23.522970999999998
#
# number of rings (size 3 to 8) (size 9 to 14) (size 15 to 20)
#    0.000    1.333    3.333    1.000    7.000    1.333 
#    0.000    1.667    0.000    0.000    0.000    0.000 
#    0.000    0.000    0.000    0.000    0.000    0.000 
#
# Total GULP energy -134022.098553 kJ/mol
# GULP energy per Si atom -5584.254106 kJ/mol
# Density = 2.346943 g / cm^3
# Si number density = 23.522971 Si / 1000 Ang^3
#
#
#
# Elastic Constant Matrix: (Units=GPa)
#
#
# Indices 1 2 3 4 5 6 
#
# 1 59.1033 26.6996 -0.2580 0.0000 0.0000 0.0000
# 2 26.6996 111.9624 18.0685 0.0000 0.0000 0.0000
# 3 -0.2580 18.0685 76.3944 0.0000 0.0000 0.0000
# 4 0.0000 0.0000 0.0000 27.7415 0.0000 0.0000
# 5 0.0000 0.0000 0.0000 0.0000 54.6989 0.0000
# 6 0.0000 0.0000 0.0000 0.0000 0.0000 -44.3691
#
#
#
# Elastic Compliance Matrix: (Units=1/GPa)
#
#
# Indices 1 2 3 4 5 6 
#
# 1 0.019065 -0.004738 0.001185 0.000000 0.000000 0.000000
# 2 -0.004738 0.010463 -0.002491 0.000000 0.000000 0.000000
# 3 0.001185 -0.002491 0.013683 0.000000 0.000000 0.000000
# 4 0.000000 0.000000 0.000000 0.036047 0.000000 0.000000
# 5 0.000000 0.000000 0.000000 0.000000 0.018282 0.000000
# 6 0.000000 0.000000 0.000000 0.000000 0.000000 -0.022538
#
#
# Mechanical properties :
#
#
# Convention : Reuss Voigt Hill
#
# Bulk Modulus (GPa) = 32.12915 37.38669 34.75792
# Shear Modulus (GPa) = 51.30115 21.14426 36.22270
#
# Velocity S-wave (km/s) = 4.67507 3.00138 3.92840
# Velocity P-wave (km/s) = 6.54446 5.28576 5.94850
#
# Compressibility (1/GPa) = 0.03112438
#
# Stress axis : x y z
#
# Youngs Moduli (GPa) = 52.45242 95.57211 73.08303
#
# Poissons Ratio (x) = 0.45278 -0.08660
# Poissons Ratio (y) = 0.24850 0.18203
# Poissons Ratio (z) = -0.06215 0.23805
#
# Static dielectric constant tensor:
#      x y z
#    x 1.458650 0.000000 0.000000 
#    y 0.000000 2.013750 0.000000 
#    z 0.000000 0.000000 1.993950 
# 
# From -- ./inp_files/3103.got.cif
#   From: 2010.05.17/outbox.cif.g08.bks.cpg/sg40_2_cif.got.tgz:3103.got - 2010.06.03 18:35:42.
