data_PCOD9364633
_publ_section_title
;
Structure prediction by ZEFSAII (Michael W. Deem and Ramdas Pophale) SiO2 
 PCOD9364633
Probable space group: A M A 2
;
_chemical_formula_sum "Si O2"
_cell_formula_units_Z 44
_cell_length_a 14.239925
_cell_length_b 22.758882
_cell_length_c 5.811141
_cell_angle_alpha 90.000000
_cell_angle_beta 90.000000
_cell_angle_gamma 90.000000
_cell_volume 1883.302310
_symmetry_space_group_name_H-M "A M A 2"
_symmetry_group_IT_number 40
_symmetry_cell_setting 'orthorhombic'
loop_
_space_group_symop_operation_xyz
x,y,z
-x,-y,z
1/2-x,y,z
1/2+x,-y,z
x,1/2+y,1/2+z
-x,1/2-y,1/2+z
1/2-x,1/2+y,1/2+z
1/2+x,1/2-y,1/2+z
loop_
_atom_site_type_symbol
_atom_site_label
_atom_site_fract_x
_atom_site_fract_y
_atom_site_fract_z
Si Si1 0.750000 0.283891 0.248040
Si Si2 0.035521 0.775650 0.639734
Si Si3 0.250000 0.422553 0.351150
Si Si4 0.390420 0.509256 0.135556
Si Si5 0.250000 0.300394 0.098334
Si Si6 0.750000 0.512351 0.734489
Si Si7 0.395401 0.637983 0.028568
Si Si8 0.750000 0.883589 0.134351
O O1 0.750000 0.217354 0.328558
O O2 0.750000 0.331060 0.455580
O O3 0.659566 0.304265 0.110783
O O4 0.148427 0.773781 0.668603
O O5 0.993421 0.758857 0.897184
O O6 0.001703 0.841699 0.567338
O O7 0.250000 0.423144 0.625064
O O8 0.340567 0.463032 0.300526
O O9 0.250000 0.365270 0.200235
O O10 0.500000 0.500000 0.128427
O O11 0.340341 0.494706 0.895149
O O12 0.374008 0.579011 0.172401
O O13 0.750000 0.452888 0.580774
O O14 0.345549 0.625297 0.785769
#
# Coordination Sequence:
#
# PCOD9364633 Si02
#       8
#     4   8   4   8   4   4   8   4
#     4  11  19  40  65  93 129 180 237 302 363 441
#     4  12  27  50  73 112 154 199 255 320 389 468
#     4  11  23  44  65 102 145 185 245 310 379 445
#     4  10  21  41  65  95 139 186 237 296 369 450
#     4  12  26  46  72 105 149 197 250 323 395 459
#     4   9  20  39  60  98 132 178 234 294 361 441
#     4  10  21  38  67 100 134 186 249 301 365 455
#     4   9  18  35  68  96 129 180 242 303 352 434
#
# _framework density 23.363218
#
# number of rings (size 3 to 8) (size 9 to 14) (size 15 to 20)
#    0.000    1.455    1.818    4.909    0.000    2.182 
#    9.818    0.000    0.000    0.000    0.000    0.000 
#    0.000    0.000    0.000    0.000    0.000    0.000 
#
# Total GULP energy -122472.998145 kJ/mol
# GULP energy per Si atom -5566.954461 kJ/mol
# Density = 2.331004 g / cm^3
# Si number density = 23.363218 Si / 1000 Ang^3
#
#
#
# Elastic Constant Matrix: (Units=GPa)
#
#
# Indices 1 2 3 4 5 6 
#
# 1 164.4034 29.1296 31.0819 0.0000 0.0000 0.0000
# 2 29.1296 106.5225 42.7321 0.0000 0.0000 0.0000
# 3 31.0819 42.7321 75.0398 0.0000 0.0000 0.0000
# 4 0.0000 0.0000 0.0000 42.8333 0.0000 0.0000
# 5 0.0000 0.0000 0.0000 0.0000 51.6767 0.0000
# 6 0.0000 0.0000 0.0000 0.0000 0.0000 30.1257
#
#
#
# Elastic Compliance Matrix: (Units=1/GPa)
#
#
# Indices 1 2 3 4 5 6 
#
# 1 0.006669 -0.000927 -0.002234 0.000000 0.000000 0.000000
# 2 -0.000927 0.012296 -0.006618 0.000000 0.000000 0.000000
# 3 -0.002234 -0.006618 0.018020 0.000000 0.000000 0.000000
# 4 0.000000 0.000000 0.000000 0.023346 0.000000 0.000000
# 5 0.000000 0.000000 0.000000 0.000000 0.019351 0.000000
# 6 0.000000 0.000000 0.000000 0.000000 0.000000 0.033194
#
#
# Mechanical properties :
#
#
# Convention : Reuss Voigt Hill
#
# Bulk Modulus (GPa) = 57.38442 61.31697 59.35070
# Shear Modulus (GPa) = 36.16742 41.12861 38.64802
#
# Velocity S-wave (km/s) = 3.93879 4.20026 4.07163
# Velocity P-wave (km/s) = 6.73058 7.05868 6.89658
#
# Compressibility (1/GPa) = 0.01742633
#
# Stress axis : x y z
#
# Youngs Moduli (GPa) = 149.93960 81.32612 55.49260
#
# Poissons Ratio (x) = 0.07543 0.12399
# Poissons Ratio (y) = 0.13907 0.36725
# Poissons Ratio (z) = 0.33501 0.53822
#
# Static dielectric constant tensor:
#      x y z
#    x 1.988880 0.000000 0.000000 
#    y 0.000000 1.894520 0.000000 
#    z 0.000000 0.000000 1.995920 
# 
# From -- ./inp_files/1319.got.cif
#   From: 2010.05.17/outbox.cif.g08.bks.cpg/sg40_1_cif.got.tgz:1319.got - 2010.06.03 18:35:42.
