data_PCOD9364579
_publ_section_title
;
Structure prediction by ZEFSAII (Michael W. Deem and Ramdas Pophale) SiO2 
 PCOD9364579
Probable space group: A M A 2
;
_chemical_formula_sum "Si O2"
_cell_formula_units_Z 40
_cell_length_a 9.022849
_cell_length_b 23.440507
_cell_length_c 10.219396
_cell_angle_alpha 90.000000
_cell_angle_beta 90.000000
_cell_angle_gamma 90.000000
_cell_volume 2161.403839
_symmetry_space_group_name_H-M "A M A 2"
_symmetry_group_IT_number 40
_symmetry_cell_setting 'orthorhombic'
loop_
_space_group_symop_operation_xyz
x,y,z
-x,-y,z
1/2-x,y,z
1/2+x,-y,z
x,1/2+y,1/2+z
-x,1/2-y,1/2+z
1/2-x,1/2+y,1/2+z
1/2+x,1/2-y,1/2+z
loop_
_atom_site_type_symbol
_atom_site_label
_atom_site_fract_x
_atom_site_fract_y
_atom_site_fract_z
Si Si1 0.073114 0.122151 0.491750
Si Si2 0.077247 0.657845 0.275171
Si Si3 0.922498 0.352703 0.565218
Si Si4 0.073851 0.939912 0.261013
Si Si5 0.574765 0.746656 0.434221
O O1 0.250000 0.111442 0.477863
O O2 0.034711 0.124134 0.645583
O O3 0.042997 0.186535 0.440402
O O4 0.982135 0.078557 0.404618
O O5 0.250000 0.674788 0.258159
O O6 0.067834 0.624972 0.414041
O O7 0.981680 0.714282 0.304270
O O8 0.750000 0.350372 0.603853
O O9 0.013353 0.391654 0.662697
O O10 0.989885 0.289529 0.545980
O O11 0.250000 0.943638 0.255837
O O12 0.000000 0.000000 0.225929
O O13 0.750000 0.739070 0.449203
#
# Coordination Sequence:
#
# PCOD9364579 Si02
#       5
#     8   8   8   8   8
#     4  10  21  38  59  88 125 162 200 250 304 362
#     4   8  18  35  56  83 119 157 194 240 297 356
#     4   9  19  37  60  86 118 156 198 247 298 357
#     4  12  26  43  63  87 118 162 210 256 305 364
#     4   9  18  31  55  90 125 157 195 242 297 358
#
# _framework density 18.506492000000001
#
# number of rings (size 3 to 8) (size 9 to 14) (size 15 to 20)
#    1.200    1.200    0.000    2.400    2.800    2.400 
#    0.000    1.000    0.000    0.000    0.000    0.000 
#    0.000    0.000    0.000    0.000    0.000    0.000 
#
# Total GULP energy -111419.486372 kJ/mol
# GULP energy per Si atom -5570.974319 kJ/mol
# Density = 1.846437 g / cm^3
# Si number density = 18.506492 Si / 1000 Ang^3
#
#
#
# Elastic Constant Matrix: (Units=GPa)
#
#
# Indices 1 2 3 4 5 6 
#
# 1 93.1856 30.7991 26.4713 0.0000 0.0000 0.0000
# 2 30.7991 44.0812 5.0619 0.0000 0.0000 0.0000
# 3 26.4713 5.0619 71.6361 0.0000 0.0000 0.0000
# 4 0.0000 0.0000 0.0000 -48.3041 0.0000 0.0000
# 5 0.0000 0.0000 0.0000 0.0000 16.6866 0.0000
# 6 0.0000 0.0000 0.0000 0.0000 0.0000 21.4846
#
#
#
# Elastic Compliance Matrix: (Units=1/GPa)
#
#
# Indices 1 2 3 4 5 6 
#
# 1 0.015561 -0.010295 -0.005023 0.000000 0.000000 0.000000
# 2 -0.010295 0.029683 0.001707 0.000000 0.000000 0.000000
# 3 -0.005023 0.001707 0.015695 0.000000 0.000000 0.000000
# 4 0.000000 0.000000 0.000000 -0.020702 0.000000 0.000000
# 5 0.000000 0.000000 0.000000 0.000000 0.059928 0.000000
# 6 0.000000 0.000000 0.000000 0.000000 0.000000 0.046545
#
#
# Mechanical properties :
#
#
# Convention : Reuss Voigt Hill
#
# Bulk Modulus (GPa) = 29.65932 37.06304 33.36118
# Shear Modulus (GPa) = 27.00217 7.74480 17.37348
#
# Velocity S-wave (km/s) = 3.82391 2.04792 3.06727
# Velocity P-wave (km/s) = 5.96302 5.06582 5.53264
#
# Compressibility (1/GPa) = 0.03371622
#
# Stress axis : x y z
#
# Youngs Moduli (GPa) = 64.26393 33.68969 63.71532
#
# Poissons Ratio (x) = 0.34685 0.32002
# Poissons Ratio (y) = 0.66162 -0.10876
# Poissons Ratio (z) = 0.32277 -0.05751
#
# Static dielectric constant tensor:
#      x y z
#    x 1.618840 0.000000 0.000000 
#    y 0.000000 1.624890 0.000000 
#    z 0.000000 0.000000 1.698880 
# 
# From -- ./inp_files/4369.got.cif
#   From: 2010.05.17/outbox.cif.g08.bks.cpg/sg40_3_cif.got.tgz:4369.got - 2010.06.03 18:35:42.
