data_PCOD9364521
_publ_section_title
;
Structure prediction by ZEFSAII (Michael W. Deem and Ramdas Pophale) SiO2 
 PCOD9364521
Probable space group: A M A 2
;
_chemical_formula_sum "Si O2"
_cell_formula_units_Z 40
_cell_length_a 11.346151
_cell_length_b 23.691012
_cell_length_c 5.429732
_cell_angle_alpha 90.000000
_cell_angle_beta 90.000000
_cell_angle_gamma 90.000000
_cell_volume 1459.521732
_symmetry_space_group_name_H-M "A M A 2"
_symmetry_group_IT_number 40
_symmetry_cell_setting 'orthorhombic'
loop_
_space_group_symop_operation_xyz
x,y,z
-x,-y,z
1/2-x,y,z
1/2+x,-y,z
x,1/2+y,1/2+z
-x,1/2-y,1/2+z
1/2-x,1/2+y,1/2+z
1/2+x,1/2-y,1/2+z
loop_
_atom_site_type_symbol
_atom_site_label
_atom_site_fract_x
_atom_site_fract_y
_atom_site_fract_z
Si Si1 0.119828 0.070367 0.069790
Si Si2 0.375784 0.179592 0.348318
Si Si3 0.124328 0.281718 0.045345
Si Si4 0.622481 0.520893 0.957864
Si Si5 0.379027 0.387193 0.319643
O O1 0.250000 0.079434 0.953102
O O2 0.120608 0.113243 0.301706
O O3 0.118664 0.007464 0.186883
O O4 0.000053 0.090202 0.936690
O O5 0.250000 0.192693 0.475555
O O6 0.371160 0.215328 0.095392
O O7 0.498503 0.201228 0.446703
O O8 0.250000 0.296787 0.921567
O O9 0.123746 0.319834 0.294988
O O10 0.500000 0.500000 0.073670
O O11 0.750000 0.500906 0.053962
O O12 0.622453 0.586085 0.040731
O O13 0.250000 0.403794 0.430049
#
# Coordination Sequence:
#
# PCOD9364521 Si02
#       5
#     8   8   8   8   8
#     4  10  22  40  62  90 124 163 209 259 313 374
#     4  10  21  37  59  89 123 159 203 256 313 373
#     4  10  21  37  59  89 123 159 203 256 313 373
#     4  10  22  40  60  84 118 160 204 252 306 366
#     4  10  22  40  62  90 124 163 209 259 313 374
#
# _framework density 27.40624
#
# number of rings (size 3 to 8) (size 9 to 14) (size 15 to 20)
#    0.000    2.000    0.000    2.400    0.000    4.800 
#    0.000    4.000    0.000    0.000    0.000    0.000 
#    0.000    0.000    0.000    0.000    0.000    0.000 
#
# Total GULP energy -111334.882164 kJ/mol
# GULP energy per Si atom -5566.744108 kJ/mol
# Density = 2.734386 g / cm^3
# Si number density = 27.406240 Si / 1000 Ang^3
#
#
#
# Elastic Constant Matrix: (Units=GPa)
#
#
# Indices 1 2 3 4 5 6 
#
# 1 347.5140 10.2467 48.3833 0.0000 0.0000 0.0000
# 2 10.2467 77.7831 11.1454 0.0000 0.0000 0.0000
# 3 48.3833 11.1454 27.7302 0.0000 0.0000 0.0000
# 4 0.0000 0.0000 0.0000 40.8112 0.0000 0.0000
# 5 0.0000 0.0000 0.0000 0.0000 28.4378 0.0000
# 6 0.0000 0.0000 0.0000 0.0000 0.0000 46.6652
#
#
#
# Elastic Compliance Matrix: (Units=1/GPa)
#
#
# Indices 1 2 3 4 5 6 
#
# 1 0.003818 0.000479 -0.006854 0.000000 0.000000 0.000000
# 2 0.000479 0.013702 -0.006343 0.000000 0.000000 0.000000
# 3 -0.006854 -0.006343 0.050569 0.000000 0.000000 0.000000
# 4 0.000000 0.000000 0.000000 0.024503 0.000000 0.000000
# 5 0.000000 0.000000 0.000000 0.000000 0.035165 0.000000
# 6 0.000000 0.000000 0.000000 0.000000 0.000000 0.021429
#
#
# Mechanical properties :
#
#
# Convention : Reuss Voigt Hill
#
# Bulk Modulus (GPa) = 23.44454 65.84201 44.64327
# Shear Modulus (GPa) = 26.47760 48.73295 37.60527
#
# Velocity S-wave (km/s) = 3.11161 4.22141 3.70826
# Velocity P-wave (km/s) = 4.63492 6.91643 5.88726
#
# Compressibility (1/GPa) = 0.04265386
#
# Stress axis : x y z
#
# Youngs Moduli (GPa) = 261.94077 72.98188 19.77485
#
# Poissons Ratio (x) = -0.03497 0.13553
# Poissons Ratio (y) = -0.12550 0.12543
# Poissons Ratio (z) = 1.79523 0.46293
#
# Static dielectric constant tensor:
#      x y z
#    x 2.180250 0.000000 0.000000 
#    y 0.000000 2.055630 0.000000 
#    z 0.000000 0.000000 2.205790 
# 
# From -- ./inp_files/808.got.cif
#   From: 2010.05.17/outbox.cif.g08.bks.cpg/sg40_1_cif.got.tgz:808.got - 2010.06.03 18:35:42.
