data_PCOD9364805
_publ_section_title
;
Structure prediction by ZEFSAII (Michael W. Deem and Ramdas Pophale) SiO2 
 PCOD9364805
Probable space group: A M A 2
;
_chemical_formula_sum "Si O2"
_cell_formula_units_Z 56
_cell_length_a 15.541908
_cell_length_b 5.550968
_cell_length_c 28.464332
_cell_angle_alpha 90.000000
_cell_angle_beta 90.000000
_cell_angle_gamma 90.000000
_cell_volume 2455.692896
_symmetry_space_group_name_H-M "A M A 2"
_symmetry_group_IT_number 40
_symmetry_cell_setting 'orthorhombic'
loop_
_space_group_symop_operation_xyz
x,y,z
-x,-y,z
1/2-x,y,z
1/2+x,-y,z
x,1/2+y,1/2+z
-x,1/2-y,1/2+z
1/2-x,1/2+y,1/2+z
1/2+x,1/2-y,1/2+z
loop_
_atom_site_type_symbol
_atom_site_label
_atom_site_fract_x
_atom_site_fract_y
_atom_site_fract_z
Si Si1 0.402253 0.545278 0.932180
Si Si2 0.000000 0.000000 0.250157
Si Si3 0.844701 0.693973 0.019953
Si Si4 0.654951 0.780871 0.704389
Si Si5 0.910960 0.393484 0.105879
Si Si6 0.097417 0.400140 0.284891
Si Si7 0.151329 0.544820 0.386456
Si Si8 0.000000 0.500000 0.539839
O O1 0.500000 0.500000 0.945306
O O2 0.392837 0.809705 0.909795
O O3 0.378874 0.314713 0.899319
O O4 0.348493 0.509241 0.979800
O O5 0.072418 0.121583 0.283397
O O6 0.933870 0.142907 0.216722
O O7 0.750000 0.807022 0.019739
O O8 0.865509 0.579163 0.070507
O O9 0.925610 0.868337 0.010495
O O10 0.750000 0.672883 0.714778
O O11 0.648698 0.829593 0.649191
O O12 0.645175 0.015834 0.737814
O O13 0.000000 0.500000 0.126207
O O14 0.945681 0.178165 0.073198
O O15 0.142313 0.498464 0.330872
O O16 0.000000 0.500000 0.283938
O O17 0.250000 0.531582 0.401252
#
# Coordination Sequence:
#
# PCOD9364805 Si02
#       8
#     8   4   8   8   8   8   8   4
#     4  12  27  48  73 104 143 193 240 293 365 431
#     4  10  23  42  66  96 138 178 230 284 353 422
#     4  11  25  44  68 100 137 178 231 290 350 423
#     4  11  23  40  66  98 135 180 229 286 350 419
#     4  10  21  41  66  95 136 178 225 282 351 423
#     4  10  23  43  66  95 132 178 224 284 348 419
#     4  12  27  46  73 107 143 185 241 302 359 427
#     4  10  23  42  66  98 134 182 224 286 351 420
#
# _framework density 22.804155999999999
#
# number of rings (size 3 to 8) (size 9 to 14) (size 15 to 20)
#    0.000    1.143    0.000    6.429    9.000    3.429 
#    0.000    0.000    0.000    0.000    0.000    0.000 
#    0.000    0.000    0.000    0.000    0.000    0.000 
#
# Total GULP energy -156252.469384 kJ/mol
# GULP energy per Si atom -5580.445335 kJ/mol
# Density = 2.275225 g / cm^3
# Si number density = 22.804156 Si / 1000 Ang^3
#
#
#
# Elastic Constant Matrix: (Units=GPa)
#
#
# Indices 1 2 3 4 5 6 
#
# 1 130.0564 21.3350 16.8079 0.0000 0.0000 0.0000
# 2 21.3350 59.2341 16.5852 0.0000 0.0000 0.0000
# 3 16.8079 16.5852 71.6623 0.0000 0.0000 0.0000
# 4 0.0000 0.0000 0.0000 22.3508 0.0000 0.0000
# 5 0.0000 0.0000 0.0000 0.0000 66.0877 0.0000
# 6 0.0000 0.0000 0.0000 0.0000 0.0000 25.5852
#
#
#
# Elastic Compliance Matrix: (Units=1/GPa)
#
#
# Indices 1 2 3 4 5 6 
#
# 1 0.008290 -0.002611 -0.001340 0.000000 0.000000 0.000000
# 2 -0.002611 0.018874 -0.003756 0.000000 0.000000 0.000000
# 3 -0.001340 -0.003756 0.015138 0.000000 0.000000 0.000000
# 4 0.000000 0.000000 0.000000 0.044741 0.000000 0.000000
# 5 0.000000 0.000000 0.000000 0.000000 0.015131 0.000000
# 6 0.000000 0.000000 0.000000 0.000000 0.000000 0.039085
#
#
# Mechanical properties :
#
#
# Convention : Reuss Voigt Hill
#
# Bulk Modulus (GPa) = 37.19017 41.15654 39.17335
# Shear Modulus (GPa) = 30.18652 36.55304 33.36978
#
# Velocity S-wave (km/s) = 3.64226 4.00798 3.82949
# Velocity P-wave (km/s) = 5.83369 6.28534 6.06372
#
# Compressibility (1/GPa) = 0.02688883
#
# Stress axis : x y z
#
# Youngs Moduli (GPa) = 120.62046 52.98263 66.05932
#
# Poissons Ratio (x) = 0.13833 0.08854
# Poissons Ratio (y) = 0.31492 0.24810
# Poissons Ratio (z) = 0.16166 0.19899
#
# Static dielectric constant tensor:
#      x y z
#    x 1.778470 0.000000 0.000000 
#    y 0.000000 2.254500 0.000000 
#    z 0.000000 0.000000 1.823820 
# 
# From -- ./inp_files/26628.got.cif
#   From: 2010.05.17/outbox.cif.g08.bks.cpg/sg40_14_cif.got.tgz:26628.got - 2010.06.03 18:35:42.
