data_PCOD9364840
_publ_section_title
;
Structure prediction by ZEFSAII (Michael W. Deem and Ramdas Pophale) SiO2 
 PCOD9364840
Probable space group: A M A 2
;
_chemical_formula_sum "Si O2"
_cell_formula_units_Z 40
_cell_length_a 17.696327
_cell_length_b 11.610162
_cell_length_c 7.060991
_cell_angle_alpha 90.000000
_cell_angle_beta 90.000000
_cell_angle_gamma 90.000000
_cell_volume 1450.731604
_symmetry_space_group_name_H-M "A M A 2"
_symmetry_group_IT_number 40
_symmetry_cell_setting 'orthorhombic'
loop_
_space_group_symop_operation_xyz
x,y,z
-x,-y,z
1/2-x,y,z
1/2+x,-y,z
x,1/2+y,1/2+z
-x,1/2-y,1/2+z
1/2-x,1/2+y,1/2+z
1/2+x,1/2-y,1/2+z
loop_
_atom_site_type_symbol
_atom_site_label
_atom_site_fract_x
_atom_site_fract_y
_atom_site_fract_z
Si Si1 0.839152 0.836930 0.661450
Si Si2 0.836277 0.575639 0.317223
Si Si3 0.835598 0.578421 0.883021
Si Si4 0.062072 0.833344 0.140991
Si Si5 0.059759 0.586300 0.902090
O O1 0.750000 0.813039 0.629481
O O2 0.859696 0.708221 0.770181
O O3 0.931876 0.809454 0.575560
O O4 0.844342 0.937842 0.816703
O O5 0.750000 0.602712 0.379402
O O6 0.902796 0.624903 0.442140
O O7 0.841356 0.619609 0.101567
O O8 0.750000 0.566009 0.817545
O O9 0.912235 0.536254 0.761765
O O10 0.848675 0.428702 0.962664
O O11 0.979222 0.840632 0.233130
O O12 0.000000 0.500000 0.009580
#
# Coordination Sequence:
#
# PCOD9364840 Si02
#       5
#     8   8   8   8   8
#     4  10  21  42  69  98 135 179 235 288 338 421
#     4   9  19  38  66  92 122 176 223 269 342 410
#     4   9  18  38  65  91 124 168 224 280 337 413
#     4  11  21  40  64  98 138 171 224 286 349 409
#     4   9  20  40  57  90 130 168 212 276 346 393
#
# _framework density 27.572295
#
# number of rings (size 3 to 8) (size 9 to 14) (size 15 to 20)
#    0.000    2.400    0.000    3.600    0.000    0.000 
#   21.600   11.000    0.000   12.000    0.000    0.000 
#    0.000    0.000    0.000    0.000    0.000    0.000 
#
# Total GULP energy -111335.951105 kJ/mol
# GULP energy per Si atom -5566.797555 kJ/mol
# Density = 2.750954 g / cm^3
# Si number density = 27.572295 Si / 1000 Ang^3
#
#
#
# Elastic Constant Matrix: (Units=GPa)
#
#
# Indices 1 2 3 4 5 6 
#
# 1 175.2568 113.5917 93.5735 0.0000 0.0000 0.0000
# 2 113.5917 261.5595 75.1560 0.0000 0.0000 0.0000
# 3 93.5735 75.1560 156.0771 0.0000 0.0000 0.0000
# 4 0.0000 0.0000 0.0000 73.1186 0.0000 0.0000
# 5 0.0000 0.0000 0.0000 0.0000 158.9872 0.0000
# 6 0.0000 0.0000 0.0000 0.0000 0.0000 -12.4765
#
#
#
# Elastic Compliance Matrix: (Units=1/GPa)
#
#
# Indices 1 2 3 4 5 6 
#
# 1 0.010171 -0.003093 -0.004609 0.000000 0.000000 0.000000
# 2 -0.003093 0.005378 -0.000735 0.000000 0.000000 0.000000
# 3 -0.004609 -0.000735 0.009524 0.000000 0.000000 0.000000
# 4 0.000000 0.000000 0.000000 0.013676 0.000000 0.000000
# 5 0.000000 0.000000 0.000000 0.000000 0.006290 0.000000
# 6 0.000000 0.000000 0.000000 0.000000 0.000000 -0.080151
#
#
# Mechanical properties :
#
#
# Convention : Reuss Voigt Hill
#
# Bulk Modulus (GPa) = 121.95901 128.61509 125.28705
# Shear Modulus (GPa) = -322.48143 64.63067 -128.92538
#
# Velocity S-wave (km/s) = -10.82647 4.84679 -6.84548
# Velocity P-wave (km/s) = 10.58087 8.83570 4.11614
#
# Compressibility (1/GPa) = 0.00819948
#
# Stress axis : x y z
#
# Youngs Moduli (GPa) = 98.31590 185.95247 104.99627
#
# Poissons Ratio (x) = 0.57515 0.48389
# Poissons Ratio (y) = 0.30409 0.07719
# Poissons Ratio (z) = 0.45310 0.13671
#
# Static dielectric constant tensor:
#      x y z
#    x 2.045870 0.000000 0.000000 
#    y 0.000000 2.582230 0.000000 
#    z 0.000000 0.000000 2.161060 
# 
# From -- ./inp_files/7291.got.cif
#   From: 2010.05.17/outbox.cif.g08.bks.cpg/sg40_4_cif.got.tgz:7291.got - 2010.06.03 18:35:42.
