data_PCOD9364795
_publ_section_title
;
Structure prediction by ZEFSAII (Michael W. Deem and Ramdas Pophale) SiO2 
 PCOD9364795
Probable space group: A M A 2
;
_chemical_formula_sum "Si O2"
_cell_formula_units_Z 60
_cell_length_a 9.601848
_cell_length_b 17.605304
_cell_length_c 17.082566
_cell_angle_alpha 90.000000
_cell_angle_beta 90.000000
_cell_angle_gamma 90.000000
_cell_volume 2887.695943
_symmetry_space_group_name_H-M "A M A 2"
_symmetry_group_IT_number 40
_symmetry_cell_setting 'orthorhombic'
loop_
_space_group_symop_operation_xyz
x,y,z
-x,-y,z
1/2-x,y,z
1/2+x,-y,z
x,1/2+y,1/2+z
-x,1/2-y,1/2+z
1/2-x,1/2+y,1/2+z
1/2+x,1/2-y,1/2+z
loop_
_atom_site_type_symbol
_atom_site_label
_atom_site_fract_x
_atom_site_fract_y
_atom_site_fract_z
Si Si1 0.414035 0.369054 0.237840
Si Si2 0.750000 0.525837 0.886310
Si Si3 0.412029 0.422727 0.687979
Si Si4 0.088203 0.813500 0.038423
Si Si5 0.086884 0.149235 0.590560
Si Si6 0.965880 0.395818 0.918376
Si Si7 0.081788 0.925760 0.909441
Si Si8 0.090624 0.695673 0.784677
O O1 0.250000 0.378225 0.221206
O O2 0.503972 0.387454 0.161980
O O3 0.445888 0.413119 0.317712
O O4 0.440734 0.280568 0.258207
O O5 0.870061 0.459032 0.877742
O O6 0.626365 0.586937 0.905980
O O7 0.500000 0.500000 0.684741
O O8 0.250000 0.437424 0.712549
O O9 0.414136 0.378304 0.605541
O O10 0.485508 0.364315 0.746704
O O11 0.250000 0.795278 0.022473
O O12 0.029027 0.734436 0.071459
O O13 0.032469 0.853844 0.960767
O O14 0.250000 0.154632 0.611666
O O15 0.071346 0.103908 0.509807
O O16 0.923645 0.316778 0.877604
O O17 0.250000 0.933293 0.919854
O O18 0.000000 0.000000 0.936761
O O19 0.250000 0.679302 0.760946
#
# Coordination Sequence:
#
# PCOD9364795 Si02
#       8
#     8   4   8   8   8   8   8   8
#     4  10  23  41  62  92 125 159 205 258 306 366
#     4  10  24  42  60  90 126 150 212 252 300 366
#     4  11  23  36  56  89 124 161 200 247 305 365
#     4   9  19  38  64  87 117 156 204 254 303 361
#     4  11  21  41  65  90 121 162 208 252 306 367
#     4  11  23  41  63  90 118 168 200 253 304 368
#     4  10  21  41  65  89 120 160 205 254 309 364
#     4  11  22  39  63  89 123 161 204 250 307 367
#
# _framework density 20.777809999999999
#
# number of rings (size 3 to 8) (size 9 to 14) (size 15 to 20)
#    0.000    1.600    2.667    1.600    3.733    2.667 
#    2.400    1.333    2.933    0.000    0.000    0.000 
#    0.000    0.000    0.000    0.000    0.000    0.000 
#
# Total GULP energy -167067.698540 kJ/mol
# GULP energy per Si atom -5568.923285 kJ/mol
# Density = 2.073052 g / cm^3
# Si number density = 20.777810 Si / 1000 Ang^3
#
#
#
# Elastic Constant Matrix: (Units=GPa)
#
#
# Indices 1 2 3 4 5 6 
#
# 1 102.9711 17.1848 10.1386 0.0000 0.0000 0.0000
# 2 17.1848 40.8075 -15.6619 0.0000 0.0000 0.0000
# 3 10.1386 -15.6619 69.8766 0.0000 0.0000 0.0000
# 4 0.0000 0.0000 0.0000 7.8491 0.0000 0.0000
# 5 0.0000 0.0000 0.0000 0.0000 25.4184 0.0000
# 6 0.0000 0.0000 0.0000 0.0000 0.0000 30.0579
#
#
#
# Elastic Compliance Matrix: (Units=1/GPa)
#
#
# Indices 1 2 3 4 5 6 
#
# 1 0.010947 -0.005711 -0.002868 0.000000 0.000000 0.000000
# 2 -0.005711 0.029791 0.007506 0.000000 0.000000 0.000000
# 3 -0.002868 0.007506 0.016409 0.000000 0.000000 0.000000
# 4 0.000000 0.000000 0.000000 0.127403 0.000000 0.000000
# 5 0.000000 0.000000 0.000000 0.000000 0.039342 0.000000
# 6 0.000000 0.000000 0.000000 0.000000 0.000000 0.033269
#
#
# Mechanical properties :
#
#
# Convention : Reuss Voigt Hill
#
# Bulk Modulus (GPa) = 18.18156 26.33091 22.25624
# Shear Modulus (GPa) = 18.00887 26.13134 22.07010
#
# Velocity S-wave (km/s) = 2.94723 3.55019 3.26267
# Velocity P-wave (km/s) = 4.51121 5.43188 4.99281
#
# Compressibility (1/GPa) = 0.05500077
#
# Stress axis : x y z
#
# Youngs Moduli (GPa) = 91.34965 33.56721 60.94052
#
# Poissons Ratio (x) = 0.19170 0.17480
# Poissons Ratio (y) = 0.52168 -0.45741
# Poissons Ratio (z) = 0.26202 -0.25195
#
# Static dielectric constant tensor:
#      x y z
#    x 1.704060 0.000000 0.000000 
#    y 0.000000 1.786280 0.000000 
#    z 0.000000 0.000000 1.823410 
# 
# From -- ./inp_files/19398.got.cif
#   From: 2010.05.17/outbox.cif.g08.bks.cpg/sg40_10_cif.got.tgz:19398.got - 2010.06.03 18:35:42.
