data_PCOD9364063
_publ_section_title
;
Structure prediction by ZEFSAII (Michael W. Deem and Ramdas Pophale) SiO2 
 PCOD9364063
Probable space group: A M A 2
;
_chemical_formula_sum "Si O2"
_cell_formula_units_Z 48
_cell_length_a 14.679817
_cell_length_b 15.054660
_cell_length_c 11.472506
_cell_angle_alpha 90.000000
_cell_angle_beta 90.000000
_cell_angle_gamma 90.000000
_cell_volume 2535.419854
_symmetry_space_group_name_H-M "A M A 2"
_symmetry_group_IT_number 40
_symmetry_cell_setting 'orthorhombic'
loop_
_space_group_symop_operation_xyz
x,y,z
-x,-y,z
1/2-x,y,z
1/2+x,-y,z
x,1/2+y,1/2+z
-x,1/2-y,1/2+z
1/2-x,1/2+y,1/2+z
1/2+x,1/2-y,1/2+z
loop_
_atom_site_type_symbol
_atom_site_label
_atom_site_fract_x
_atom_site_fract_y
_atom_site_fract_z
Si Si1 0.908618 0.131390 0.349380
Si Si2 0.250000 0.341271 0.681336
Si Si3 0.553183 0.715137 0.331078
Si Si4 0.855326 0.689146 0.094764
Si Si5 0.500000 0.500000 0.704457
Si Si6 0.750000 0.009322 0.993075
Si Si7 0.750000 0.703460 0.428193
Si Si8 0.081001 0.620262 0.507440
O O1 0.834683 0.174874 0.264465
O O2 0.877023 0.129011 0.482539
O O3 0.996933 0.193582 0.338135
O O4 0.924056 0.036288 0.291295
O O5 0.250000 0.440381 0.620434
O O6 0.250000 0.281293 0.567019
O O7 0.574164 0.679941 0.201211
O O8 0.654119 0.734829 0.379500
O O9 0.494098 0.646373 0.409825
O O10 0.750000 0.677792 0.131232
O O11 0.869939 0.789128 0.046215
O O12 0.470566 0.578300 0.617968
O O13 0.840269 0.950490 0.975762
O O14 0.750000 0.095932 0.911715
#
# Coordination Sequence:
#
# PCOD9364063 Si02
#       8
#     8   4   8   8   4   4   4   8
#     4  11  23  37  65  95 127 162 215 267 320 382
#     4  10  20  38  60 100 122 160 207 277 316 360
#     4  11  23  38  60  93 129 173 208 260 321 403
#     4  11  22  39  60  89 128 172 201 253 327 391
#     4  12  20  40  62  96 122 160 218 266 308 370
#     4  10  20  36  66 100 121 158 212 281 314 366
#     4  10  22  38  60  90 129 168 211 274 322 360
#     4  11  21  36  64  96 124 162 216 265 316 377
#
# _framework density 18.931774999999998
#
# number of rings (size 3 to 8) (size 9 to 14) (size 15 to 20)
#    0.500    0.667    5.833    2.000    2.333    0.000 
#    0.000    3.333    0.000    0.000    0.000    0.000 
#    0.000    0.000    0.000    0.000    0.000    0.000 
#
# Total GULP energy -133754.784322 kJ/mol
# GULP energy per Si atom -5573.116013 kJ/mol
# Density = 1.888869 g / cm^3
# Si number density = 18.931775 Si / 1000 Ang^3
#
#
#
# Elastic Constant Matrix: (Units=GPa)
#
#
# Indices 1 2 3 4 5 6 
#
# 1 124.5708 16.9785 42.1816 0.0000 0.0000 0.0000
# 2 16.9785 33.8333 16.7943 0.0000 0.0000 0.0000
# 3 42.1816 16.7943 112.7385 0.0000 0.0000 0.0000
# 4 0.0000 0.0000 0.0000 26.5654 0.0000 0.0000
# 5 0.0000 0.0000 0.0000 0.0000 25.4829 0.0000
# 6 0.0000 0.0000 0.0000 0.0000 0.0000 23.3083
#
#
#
# Elastic Compliance Matrix: (Units=1/GPa)
#
#
# Indices 1 2 3 4 5 6 
#
# 1 0.009511 -0.003247 -0.003075 0.000000 0.000000 0.000000
# 2 -0.003247 0.033025 -0.003705 0.000000 0.000000 0.000000
# 3 -0.003075 -0.003705 0.010573 0.000000 0.000000 0.000000
# 4 0.000000 0.000000 0.000000 0.037643 0.000000 0.000000
# 5 0.000000 0.000000 0.000000 0.000000 0.039242 0.000000
# 6 0.000000 0.000000 0.000000 0.000000 0.000000 0.042903
#
#
# Mechanical properties :
#
#
# Convention : Reuss Voigt Hill
#
# Bulk Modulus (GPa) = 30.25198 47.00572 38.62885
# Shear Modulus (GPa) = 24.51355 28.08385 26.29870
#
# Velocity S-wave (km/s) = 3.60229 3.85570 3.73115
# Velocity P-wave (km/s) = 5.77201 6.68617 6.24584
#
# Compressibility (1/GPa) = 0.03305569
#
# Stress axis : x y z
#
# Youngs Moduli (GPa) = 105.13773 30.28008 94.58471
#
# Poissons Ratio (x) = 0.09831 0.29085
# Poissons Ratio (y) = 0.34135 0.35042
# Poissons Ratio (z) = 0.32331 0.11218
#
# Static dielectric constant tensor:
#      x y z
#    x 2.032650 0.000000 0.000000 
#    y 0.000000 1.663990 0.000000 
#    z 0.000000 0.000000 1.676860 
# 
# From -- ./inp_files/12196.got.cif
#   From: 2010.05.17/outbox.cif.g08.bks.cpg/sg40_7_cif.got.tgz:12196.got - 2010.06.03 18:35:42.
