data_PCOD9364201
_publ_section_title
;
Structure prediction by ZEFSAII (Michael W. Deem and Ramdas Pophale) SiO2 
 PCOD9364201
Probable space group: A M A 2
;
_chemical_formula_sum "Si O2"
_cell_formula_units_Z 44
_cell_length_a 14.540706
_cell_length_b 8.794032
_cell_length_c 17.673086
_cell_angle_alpha 90.000000
_cell_angle_beta 90.000000
_cell_angle_gamma 90.000000
_cell_volume 2259.882848
_symmetry_space_group_name_H-M "A M A 2"
_symmetry_group_IT_number 40
_symmetry_cell_setting 'orthorhombic'
loop_
_space_group_symop_operation_xyz
x,y,z
-x,-y,z
1/2-x,y,z
1/2+x,-y,z
x,1/2+y,1/2+z
-x,1/2-y,1/2+z
1/2-x,1/2+y,1/2+z
1/2+x,1/2-y,1/2+z
loop_
_atom_site_type_symbol
_atom_site_label
_atom_site_fract_x
_atom_site_fract_y
_atom_site_fract_z
Si Si1 0.750000 0.739448 0.864120
Si Si2 0.406106 0.917060 0.098924
Si Si3 0.750000 0.090011 0.643283
Si Si4 0.250000 0.852017 0.213975
Si Si5 0.750000 0.313109 0.786942
Si Si6 0.094761 0.583739 0.059479
Si Si7 0.250000 0.624180 0.527522
Si Si8 0.108864 0.026014 0.386560
O O1 0.750000 0.782681 0.775796
O O2 0.838567 0.629431 0.866891
O O3 0.750000 0.842973 0.937874
O O4 0.342961 0.853425 0.166239
O O5 0.426493 0.762367 0.055447
O O6 0.500000 0.000000 0.121715
O O7 0.340047 0.028623 0.051562
O O8 0.750000 0.176893 0.725041
O O9 0.750000 0.224649 0.579445
O O10 0.835868 0.982445 0.621892
O O11 0.250000 0.027581 0.242079
O O12 0.840969 0.337449 0.839908
O O13 0.000000 0.500000 0.072604
O O14 0.129041 0.546017 0.975293
O O15 0.000000 0.000000 0.374167
#
# Coordination Sequence:
#
# PCOD9364201 Si02
#       8
#     4   8   4   4   4   8   4   8
#     4  10  20  38  61  93 121 164 209 250 305 376
#     4  11  23  39  63  92 129 160 211 260 314 375
#     4  12  19  40  63  89 131 154 210 259 307 381
#     4   9  21  37  58  92 123 168 199 247 314 363
#     4  10  21  36  59  98 117 169 203 255 305 372
#     4  11  23  39  64  91 122 169 209 257 315 372
#     4  11  21  39  63  92 120 165 201 267 309 364
#     4   9  19  37  63  91 124 164 215 245 304 380
#
# _framework density 19.470034999999999
#
# number of rings (size 3 to 8) (size 9 to 14) (size 15 to 20)
#    0.000    1.818    3.636    2.727    2.545    2.909 
#    0.000    3.636    0.000    2.182    0.000    0.000 
#    0.000    0.000    0.000    0.000    0.000    0.000 
#
# Total GULP energy -122506.614448 kJ/mol
# GULP energy per Si atom -5568.482475 kJ/mol
# Density = 1.942572 g / cm^3
# Si number density = 19.470035 Si / 1000 Ang^3
#
#
#
# Elastic Constant Matrix: (Units=GPa)
#
#
# Indices 1 2 3 4 5 6 
#
# 1 126.7177 36.3050 49.8796 0.0000 0.0000 0.0000
# 2 36.3050 88.8781 22.2662 0.0000 0.0000 0.0000
# 3 49.8796 22.2662 113.9722 0.0000 0.0000 0.0000
# 4 0.0000 0.0000 0.0000 21.4139 0.0000 0.0000
# 5 0.0000 0.0000 0.0000 0.0000 5.1238 0.0000
# 6 0.0000 0.0000 0.0000 0.0000 0.0000 -8.7455
#
#
#
# Elastic Compliance Matrix: (Units=1/GPa)
#
#
# Indices 1 2 3 4 5 6 
#
# 1 0.010358 -0.003255 -0.003897 0.000000 0.000000 0.000000
# 2 -0.003255 0.012853 -0.001087 0.000000 0.000000 0.000000
# 3 -0.003897 -0.001087 0.010692 0.000000 0.000000 0.000000
# 4 0.000000 0.000000 0.000000 0.046699 0.000000 0.000000
# 5 0.000000 0.000000 0.000000 0.000000 0.195169 0.000000
# 6 0.000000 0.000000 0.000000 0.000000 0.000000 -0.114345
#
#
# Mechanical properties :
#
#
# Convention : Reuss Voigt Hill
#
# Bulk Modulus (GPa) = 57.38598 60.71884 59.05241
# Shear Modulus (GPa) = 27.21653 18.29957 22.75805
#
# Velocity S-wave (km/s) = 3.74286 3.06908 3.42259
# Velocity P-wave (km/s) = 6.94382 6.61910 6.78340
#
# Compressibility (1/GPa) = 0.01742586
#
# Stress axis : x y z
#
# Youngs Moduli (GPa) = 96.54228 77.80229 93.52763
#
# Poissons Ratio (x) = 0.25323 0.36451
# Poissons Ratio (y) = 0.31422 0.10163
# Poissons Ratio (z) = 0.37626 0.08454
#
# Static dielectric constant tensor:
#      x y z
#    x 1.615660 0.000000 0.000000 
#    y 0.000000 1.677380 0.000000 
#    z 0.000000 0.000000 1.768840 
# 
# From -- ./inp_files/20519.got.cif
#   From: 2010.05.17/outbox.cif.g08.bks.cpg/sg40_11_cif.got.tgz:20519.got - 2010.06.03 18:35:42.
