data_PCOD9364580
_publ_section_title
;
Structure prediction by ZEFSAII (Michael W. Deem and Ramdas Pophale) SiO2 
 PCOD9364580
Probable space group: A M A 2
;
_chemical_formula_sum "Si O2"
_cell_formula_units_Z 40
_cell_length_a 22.934282
_cell_length_b 9.667043
_cell_length_c 9.781055
_cell_angle_alpha 90.000000
_cell_angle_beta 90.000000
_cell_angle_gamma 90.000000
_cell_volume 2168.525331
_symmetry_space_group_name_H-M "A M A 2"
_symmetry_group_IT_number 40
_symmetry_cell_setting 'orthorhombic'
loop_
_space_group_symop_operation_xyz
x,y,z
-x,-y,z
1/2-x,y,z
1/2+x,-y,z
x,1/2+y,1/2+z
-x,1/2-y,1/2+z
1/2-x,1/2+y,1/2+z
1/2+x,1/2-y,1/2+z
loop_
_atom_site_type_symbol
_atom_site_label
_atom_site_fract_x
_atom_site_fract_y
_atom_site_fract_z
Si Si1 0.523838 0.143542 0.106150
Si Si2 0.383520 0.925246 0.868525
Si Si3 0.122509 0.750232 0.305408
Si Si4 0.894701 0.764024 0.106607
Si Si5 0.815695 0.038624 0.120062
O O1 0.564824 0.212037 0.218907
O O2 0.464117 0.223890 0.080422
O O3 0.500000 0.000000 0.164721
O O4 0.560896 0.108999 0.968273
O O5 0.384671 0.828380 0.738223
O O6 0.379253 0.083995 0.818810
O O7 0.328685 0.903878 0.968489
O O8 0.127533 0.796420 0.463079
O O9 0.171053 0.835637 0.222660
O O10 0.862378 0.912084 0.132824
O O11 0.750000 0.987582 0.134295
#
# Coordination Sequence:
#
# PCOD9364580 Si02
#       5
#     8   8   8   8   8
#     4  11  19  39  59  88 126 156 187 231 295 354
#     4  10  23  40  61  90 120 157 194 243 294 352
#     4  10  21  38  59  90 121 154 195 243 291 353
#     4  11  22  38  63  89 119 154 196 240 293 353
#     4  10  23  43  62  81 117 159 199 250 298 344
#
# _framework density 18.445715
#
# number of rings (size 3 to 8) (size 9 to 14) (size 15 to 20)
#    0.000    1.600    6.000    1.200    0.000    7.200 
#    3.600    0.000    0.000    0.000    0.000    0.000 
#    0.000    0.000    0.000    0.000    0.000    0.000 
#
# Total GULP energy -111364.095921 kJ/mol
# GULP energy per Si atom -5568.204796 kJ/mol
# Density = 1.840373 g / cm^3
# Si number density = 18.445715 Si / 1000 Ang^3
#
#
#
# Elastic Constant Matrix: (Units=GPa)
#
#
# Indices 1 2 3 4 5 6 
#
# 1 91.9882 26.4037 36.7916 0.0000 0.0000 0.0000
# 2 26.4037 71.8105 80.6354 0.0000 0.0000 0.0000
# 3 36.7916 80.6354 145.7272 0.0000 0.0000 0.0000
# 4 0.0000 0.0000 0.0000 42.2285 0.0000 0.0000
# 5 0.0000 0.0000 0.0000 0.0000 6.7896 0.0000
# 6 0.0000 0.0000 0.0000 0.0000 0.0000 11.6825
#
#
#
# Elastic Compliance Matrix: (Units=1/GPa)
#
#
# Indices 1 2 3 4 5 6 
#
# 1 0.012292 -0.002733 -0.001591 0.000000 0.000000 0.000000
# 2 -0.002733 0.037382 -0.019995 0.000000 0.000000 0.000000
# 3 -0.001591 -0.019995 0.018328 0.000000 0.000000 0.000000
# 4 0.000000 0.000000 0.000000 0.023681 0.000000 0.000000
# 5 0.000000 0.000000 0.000000 0.000000 0.147285 0.000000
# 6 0.000000 0.000000 0.000000 0.000000 0.000000 0.085598
#
#
# Mechanical properties :
#
#
# Convention : Reuss Voigt Hill
#
# Bulk Modulus (GPa) = 51.64197 66.35415 58.99806
# Shear Modulus (GPa) = 13.16975 23.18647 18.17811
#
# Velocity S-wave (km/s) = 2.67493 3.54928 3.14266
# Velocity P-wave (km/s) = 6.13171 7.26961 6.72477
#
# Compressibility (1/GPa) = 0.01936410
#
# Stress axis : x y z
#
# Youngs Moduli (GPa) = 81.35529 26.75050 54.56240
#
# Poissons Ratio (x) = 0.07311 0.08681
# Poissons Ratio (y) = 0.22233 1.09097
# Poissons Ratio (z) = 0.12944 0.53487
#
# Static dielectric constant tensor:
#      x y z
#    x 1.676500 0.000000 0.000000 
#    y 0.000000 1.649100 0.000000 
#    z 0.000000 0.000000 1.636820 
# 
# From -- ./inp_files/8598.got.cif
#   From: 2010.05.17/outbox.cif.g08.bks.cpg/sg40_5_cif.got.tgz:8598.got - 2010.06.03 18:35:42.
