data_PCOD9364956
_publ_section_title
;
Structure prediction by ZEFSAII (Michael W. Deem and Ramdas Pophale) SiO2 
 PCOD9364956
Probable space group: A M A 2
;
_chemical_formula_sum "Si O2"
_cell_formula_units_Z 64
_cell_length_a 22.349666
_cell_length_b 8.033716
_cell_length_c 16.010409
_cell_angle_alpha 90.000000
_cell_angle_beta 90.000000
_cell_angle_gamma 90.000000
_cell_volume 2874.682854
_symmetry_space_group_name_H-M "A M A 2"
_symmetry_group_IT_number 40
_symmetry_cell_setting 'orthorhombic'
loop_
_space_group_symop_operation_xyz
x,y,z
-x,-y,z
1/2-x,y,z
1/2+x,-y,z
x,1/2+y,1/2+z
-x,1/2-y,1/2+z
1/2-x,1/2+y,1/2+z
1/2+x,1/2-y,1/2+z
loop_
_atom_site_type_symbol
_atom_site_label
_atom_site_fract_x
_atom_site_fract_y
_atom_site_fract_z
Si Si1 0.020901 0.690987 0.937460
Si Si2 0.816406 0.528245 0.707121
Si Si3 0.858951 0.430160 0.874882
Si Si4 0.641996 0.825717 0.054480
Si Si5 0.315608 0.039140 0.554678
Si Si6 0.901718 0.839985 0.698531
Si Si7 0.102082 0.178865 0.878797
Si Si8 0.506484 0.808899 0.114084
O O1 0.078878 0.667815 0.881330
O O2 0.000000 0.500000 0.956718
O O3 0.968124 0.788930 0.892395
O O4 0.028529 0.780751 0.026390
O O5 0.750000 0.601803 0.716972
O O6 0.826722 0.407782 0.786667
O O7 0.823376 0.438512 0.619176
O O8 0.869840 0.660248 0.705468
O O9 0.871944 0.630862 0.877827
O O10 0.826387 0.389144 0.961928
O O11 0.679340 0.658397 0.044266
O O12 0.576193 0.780679 0.093173
O O13 0.628740 0.900526 0.962809
O O14 0.250000 0.088692 0.585210
O O15 0.366957 0.080332 0.621241
O O16 0.889851 0.912214 0.790742
O O17 0.971343 0.809448 0.677841
O O18 0.500000 0.000000 0.141361
#
# Coordination Sequence:
#
# PCOD9364956 Si02
#       8
#     8   8   8   8   8   8   8   8
#     4   9  17  34  59  86 119 155 194 240 295 359
#     4  11  22  38  58  86 119 156 204 249 294 355
#     4   9  18  34  59  87 111 152 199 246 289 346
#     4  10  22  40  61  86 117 160 199 242 302 357
#     4  11  22  40  61  86 119 158 202 248 296 353
#     4  11  22  37  61  91 118 155 199 250 301 353
#     4   8  19  34  58  85 118 152 197 236 295 359
#     4  11  21  35  59  91 123 151 189 246 306 361
#
# _framework density 22.263324999999998
#
# number of rings (size 3 to 8) (size 9 to 14) (size 15 to 20)
#    0.000    2.000    2.500    1.875    1.750    0.500 
#    0.000    5.625    0.000    0.000    0.000    0.000 
#    0.000    0.000    0.000    0.000    0.000    0.000 
#
# Total GULP energy -178570.341273 kJ/mol
# GULP energy per Si atom -5580.323165 kJ/mol
# Density = 2.221265 g / cm^3
# Si number density = 22.263325 Si / 1000 Ang^3
#
#
#
# Elastic Constant Matrix: (Units=GPa)
#
#
# Indices 1 2 3 4 5 6 
#
# 1 70.9098 -1.7963 10.8569 0.0000 0.0000 0.0000
# 2 -1.7963 19.1086 10.5531 0.0000 0.0000 0.0000
# 3 10.8569 10.5531 121.1365 0.0000 0.0000 0.0000
# 4 0.0000 0.0000 0.0000 20.9021 0.0000 0.0000
# 5 0.0000 0.0000 0.0000 0.0000 18.8423 0.0000
# 6 0.0000 0.0000 0.0000 0.0000 0.0000 7.2130
#
#
#
# Elastic Compliance Matrix: (Units=1/GPa)
#
#
# Indices 1 2 3 4 5 6 
#
# 1 0.014384 0.002168 -0.001478 0.000000 0.000000 0.000000
# 2 0.002168 0.055305 -0.005012 0.000000 0.000000 0.000000
# 3 -0.001478 -0.005012 0.008824 0.000000 0.000000 0.000000
# 4 0.000000 0.000000 0.000000 0.047842 0.000000 0.000000
# 5 0.000000 0.000000 0.000000 0.000000 0.053072 0.000000
# 6 0.000000 0.000000 0.000000 0.000000 0.000000 0.138638
#
#
# Mechanical properties :
#
#
# Convention : Reuss Voigt Hill
#
# Bulk Modulus (GPa) = 14.31259 27.82025 21.06642
# Shear Modulus (GPa) = 14.28581 22.16092 18.22337
#
# Velocity S-wave (km/s) = 2.53588 3.15842 2.86411
# Velocity P-wave (km/s) = 3.87517 5.08173 4.51890
#
# Compressibility (1/GPa) = 0.06986854
#
# Stress axis : x y z
#
# Youngs Moduli (GPa) = 69.52333 18.08171 113.32370
#
# Poissons Ratio (x) = -0.03921 0.16750
# Poissons Ratio (y) = -0.15076 0.56802
# Poissons Ratio (z) = 0.10276 0.09063
#
# Static dielectric constant tensor:
#      x y z
#    x 1.812340 0.000000 0.000000 
#    y 0.000000 1.828500 0.000000 
#    z 0.000000 0.000000 1.874500 
# 
# From -- ./inp_files/18506.got.cif
#   From: 2010.05.17/outbox.cif.g08.bks.cpg/sg40_10_cif.got.tgz:18506.got - 2010.06.03 18:35:42.
