data_PCOD9364664
_publ_section_title
;
Structure prediction by ZEFSAII (Michael W. Deem and Ramdas Pophale) SiO2 
 PCOD9364664
Probable space group: A M A 2
;
_chemical_formula_sum "Si O2"
_cell_formula_units_Z 56
_cell_length_a 19.294555
_cell_length_b 15.909747
_cell_length_c 9.348449
_cell_angle_alpha 90.000000
_cell_angle_beta 90.000000
_cell_angle_gamma 90.000000
_cell_volume 2869.707305
_symmetry_space_group_name_H-M "A M A 2"
_symmetry_group_IT_number 40
_symmetry_cell_setting 'orthorhombic'
loop_
_space_group_symop_operation_xyz
x,y,z
-x,-y,z
1/2-x,y,z
1/2+x,-y,z
x,1/2+y,1/2+z
-x,1/2-y,1/2+z
1/2-x,1/2+y,1/2+z
1/2+x,1/2-y,1/2+z
loop_
_atom_site_type_symbol
_atom_site_label
_atom_site_fract_x
_atom_site_fract_y
_atom_site_fract_z
Si Si1 0.887165 0.522287 0.875000
Si Si2 0.174587 0.209607 0.017674
Si Si3 0.020616 0.641240 0.852830
Si Si4 0.021968 0.206410 0.030822
Si Si5 0.172324 0.392593 0.153244
Si Si6 0.174871 0.021368 0.088697
Si Si7 0.438439 0.442844 0.385325
O O1 0.921097 0.429422 0.879994
O O2 0.836506 0.521708 0.740241
O O3 0.949330 0.588015 0.846330
O O4 0.848161 0.551451 0.016573
O O5 0.250000 0.210981 0.938014
O O6 0.097420 0.207260 0.951617
O O7 0.173056 0.295022 0.107616
O O8 0.175600 0.122176 0.103599
O O9 0.030744 0.690123 0.701281
O O10 0.013857 0.707096 0.982537
O O11 0.975787 0.130450 0.972928
O O12 0.250000 0.414429 0.201959
O O13 0.112891 0.406684 0.268060
O O14 0.250000 0.997064 0.027743
O O15 0.110081 0.996884 0.990841
O O16 0.500000 0.500000 0.322735
#
# Coordination Sequence:
#
# PCOD9364664 Si02
#       7
#     8   8   8   8   8   8   8
#     4  11  22  41  63  95 124 164 214 266 307 382
#     4  10  21  39  62  89 122 166 209 251 310 379
#     4  11  24  38  65  96 129 161 214 265 322 373
#     4  12  22  42  65  97 128 169 211 268 321 380
#     4  11  25  43  63  93 130 170 212 261 321 379
#     4  11  22  42  67  90 124 169 214 261 316 381
#     4  12  24  39  65  97 129 163 213 264 322 374
#
# _framework density 19.514185000000001
#
# number of rings (size 3 to 8) (size 9 to 14) (size 15 to 20)
#    0.000    0.857    5.714    1.714    2.000    0.000 
#    0.000    0.000    0.000    0.000    0.000    0.000 
#    0.000    0.000    0.000    0.000    0.000    0.000 
#
# Total GULP energy -156189.919331 kJ/mol
# GULP energy per Si atom -5578.211405 kJ/mol
# Density = 1.946977 g / cm^3
# Si number density = 19.514185 Si / 1000 Ang^3
#
#
#
# Elastic Constant Matrix: (Units=GPa)
#
#
# Indices 1 2 3 4 5 6 
#
# 1 150.8963 41.0368 24.9773 0.0000 0.0000 0.0000
# 2 41.0368 115.6280 34.2267 0.0000 0.0000 0.0000
# 3 24.9773 34.2267 54.2949 0.0000 0.0000 0.0000
# 4 0.0000 0.0000 0.0000 20.9638 0.0000 0.0000
# 5 0.0000 0.0000 0.0000 0.0000 22.5481 0.0000
# 6 0.0000 0.0000 0.0000 0.0000 0.0000 22.7345
#
#
#
# Elastic Compliance Matrix: (Units=1/GPa)
#
#
# Indices 1 2 3 4 5 6 
#
# 1 0.007541 -0.002028 -0.002191 0.000000 0.000000 0.000000
# 2 -0.002028 0.011178 -0.006113 0.000000 0.000000 0.000000
# 3 -0.002191 -0.006113 0.023280 0.000000 0.000000 0.000000
# 4 0.000000 0.000000 0.000000 0.047701 0.000000 0.000000
# 5 0.000000 0.000000 0.000000 0.000000 0.044350 0.000000
# 6 0.000000 0.000000 0.000000 0.000000 0.000000 0.043986
#
#
# Mechanical properties :
#
#
# Convention : Reuss Voigt Hill
#
# Bulk Modulus (GPa) = 46.87290 57.92232 52.39761
# Shear Modulus (GPa) = 24.29412 27.95450 26.12431
#
# Velocity S-wave (km/s) = 3.53221 3.78897 3.66284
# Velocity P-wave (km/s) = 6.38023 6.99202 6.69312
#
# Compressibility (1/GPa) = 0.02133429
#
# Stress axis : x y z
#
# Youngs Moduli (GPa) = 132.60488 89.46352 42.95612
#
# Poissons Ratio (x) = 0.18142 0.09411
# Poissons Ratio (y) = 0.26891 0.26261
# Poissons Ratio (z) = 0.29051 0.54692
#
# Static dielectric constant tensor:
#      x y z
#    x 1.717480 0.000000 0.000000 
#    y 0.000000 1.677470 0.000000 
#    z 0.000000 0.000000 1.662800 
# 
# From -- ./inp_files/8295.got.cif
#   From: 2010.05.17/outbox.cif.g08.bks.cpg/sg40_5_cif.got.tgz:8295.got - 2010.06.03 18:35:42.
