data_PCOD9364403
_publ_section_title
;
Structure prediction by ZEFSAII (Michael W. Deem and Ramdas Pophale) SiO2 
 PCOD9364403
Probable space group: A M A 2
;
_chemical_formula_sum "Si O2"
_cell_formula_units_Z 16
_cell_length_a 5.573305
_cell_length_b 16.963143
_cell_length_c 6.802819
_cell_angle_alpha 90.000000
_cell_angle_beta 90.000000
_cell_angle_gamma 90.000000
_cell_volume 643.143744
_symmetry_space_group_name_H-M "A M A 2"
_symmetry_group_IT_number 40
_symmetry_cell_setting 'orthorhombic'
loop_
_space_group_symop_operation_xyz
x,y,z
-x,-y,z
1/2-x,y,z
1/2+x,-y,z
x,1/2+y,1/2+z
-x,1/2-y,1/2+z
1/2-x,1/2+y,1/2+z
1/2+x,1/2-y,1/2+z
loop_
_atom_site_type_symbol
_atom_site_label
_atom_site_fract_x
_atom_site_fract_y
_atom_site_fract_z
Si Si1 0.750000 0.705955 0.252890
Si Si2 0.250000 0.619352 0.656036
Si Si3 0.250000 0.170237 0.578355
Si Si4 0.000000 0.500000 0.406415
O O1 0.750000 0.787213 0.123073
O O2 0.750000 0.743700 0.470298
O O3 0.499175 0.664480 0.196621
O O4 0.030849 0.573721 0.554620
O O5 0.250000 0.612588 0.891114
O O6 0.250000 0.496027 0.294321
#
# Coordination Sequence:
#
# PCOD9364403 Si02
#       4
#     4   4   4   4
#     4  10  21  32  51  76 109 134 166 208 256 310
#     4   8  20  28  54  72 108 116 188 194 274 264
#     4  10  21  32  51  76 109 134 166 208 256 310
#     4   8  16  28  48  72  98 124 168 230 228 276
#
# _framework density 24.877797999999999
#
# number of rings (size 3 to 8) (size 9 to 14) (size 15 to 20)
#    3.000    0.000    0.000    1.500    7.000    0.000 
#    0.000    0.000    0.000    0.000    0.000   35.000 
#    0.000    0.000    0.000    0.000    0.000    0.000 
#
# Total GULP energy -44570.004796 kJ/mol
# GULP energy per Si atom -5571.250600 kJ/mol
# Density = 2.482118 g / cm^3
# Si number density = 24.877798 Si / 1000 Ang^3
#
#
#
# Elastic Constant Matrix: (Units=GPa)
#
#
# Indices 1 2 3 4 5 6 
#
# 1 259.9189 27.8783 59.4686 0.0000 0.0000 0.0000
# 2 27.8783 95.3092 25.7126 0.0000 0.0000 0.0000
# 3 59.4686 25.7126 117.6665 0.0000 0.0000 0.0000
# 4 0.0000 0.0000 0.0000 29.9285 0.0000 0.0000
# 5 0.0000 0.0000 0.0000 0.0000 27.8454 0.0000
# 6 0.0000 0.0000 0.0000 0.0000 0.0000 36.7437
#
#
#
# Elastic Compliance Matrix: (Units=1/GPa)
#
#
# Indices 1 2 3 4 5 6 
#
# 1 0.004398 -0.000730 -0.002063 0.000000 0.000000 0.000000
# 2 -0.000730 0.011271 -0.002094 0.000000 0.000000 0.000000
# 3 -0.002063 -0.002094 0.009999 0.000000 0.000000 0.000000
# 4 0.000000 0.000000 0.000000 0.033413 0.000000 0.000000
# 5 0.000000 0.000000 0.000000 0.000000 0.035913 0.000000
# 6 0.000000 0.000000 0.000000 0.000000 0.000000 0.027216
#
#
# Mechanical properties :
#
#
# Convention : Reuss Voigt Hill
#
# Bulk Modulus (GPa) = 62.91956 77.66817 70.29387
# Shear Modulus (GPa) = 36.42200 42.89254 39.65727
#
# Velocity S-wave (km/s) = 3.83042 4.15677 3.99693
# Velocity P-wave (km/s) = 6.70143 7.37061 7.04397
#
# Compressibility (1/GPa) = 0.01589331
#
# Stress axis : x y z
#
# Youngs Moduli (GPa) = 227.39385 88.72678 100.01126
#
# Poissons Ratio (x) = 0.06475 0.20633
# Poissons Ratio (y) = 0.16594 0.20943
# Poissons Ratio (z) = 0.46914 0.18580
#
# Static dielectric constant tensor:
#      x y z
#    x 1.959590 0.000000 0.000000 
#    y 0.000000 2.053910 0.000000 
#    z 0.000000 0.000000 1.887850 
# 
# From -- ./inp_files/3582.got.cif
#   From: 2010.05.17/outbox.cif.g08.bks.cpg/sg40_2_cif.got.tgz:3582.got - 2010.06.03 18:35:42.
