data_PCOD9364226
_publ_section_title
;
Structure prediction by ZEFSAII (Michael W. Deem and Ramdas Pophale) SiO2 
 PCOD9364226
Probable space group: A M A 2
;
_chemical_formula_sum "Si O2"
_cell_formula_units_Z 56
_cell_length_a 16.569775
_cell_length_b 5.004790
_cell_length_c 32.301982
_cell_angle_alpha 90.000000
_cell_angle_beta 90.000000
_cell_angle_gamma 90.000000
_cell_volume 2678.746652
_symmetry_space_group_name_H-M "A M A 2"
_symmetry_group_IT_number 40
_symmetry_cell_setting 'orthorhombic'
loop_
_space_group_symop_operation_xyz
x,y,z
-x,-y,z
1/2-x,y,z
1/2+x,-y,z
x,1/2+y,1/2+z
-x,1/2-y,1/2+z
1/2-x,1/2+y,1/2+z
1/2+x,1/2-y,1/2+z
loop_
_atom_site_type_symbol
_atom_site_label
_atom_site_fract_x
_atom_site_fract_y
_atom_site_fract_z
Si Si1 0.091937 0.607497 0.051160
Si Si2 0.655956 0.387241 0.597137
Si Si3 0.560095 0.251753 0.962045
Si Si4 0.590235 0.379262 0.872429
Si Si5 0.156605 0.611946 0.232047
Si Si6 0.910061 0.883737 0.186897
Si Si7 0.343030 0.617514 0.327999
O O1 0.144786 0.356275 0.065204
O O2 0.000000 0.500000 0.053225
O O3 0.107459 0.854487 0.081467
O O4 0.107966 0.718909 0.004896
O O5 0.750000 0.455529 0.601039
O O6 0.620382 0.303929 0.641420
O O7 0.500000 0.500000 0.962027
O O8 0.607900 0.277479 0.919106
O O9 0.500000 0.000000 0.962234
O O10 0.500000 0.500000 0.871427
O O11 0.644443 0.620460 0.855762
O O12 0.601153 0.122745 0.843551
O O13 0.250000 0.523637 0.228576
O O14 0.100717 0.372445 0.216088
O O15 0.140191 0.679324 0.279977
O O16 0.143294 0.874393 0.204749
O O17 0.000000 0.000000 0.185321
O O18 0.250000 0.527762 0.331182
#
# Coordination Sequence:
#
# PCOD9364226 Si02
#       7
#     8   8   8   8   8   8   8
#     4  11  22  41  66  91 121 163 212 259 306 370
#     4  12  25  42  62  91 129 164 202 254 321 381
#     4  10  20  38  63  93 124 159 204 255 308 359
#     4  11  22  39  64  92 123 163 212 260 307 369
#     4  11  24  43  64  88 124 167 207 254 319 382
#     4  12  25  42  65  93 122 159 211 264 312 372
#     4  11  24  41  61  90 128 167 205 254 320 381
#
# _framework density 20.9053
#
# number of rings (size 3 to 8) (size 9 to 14) (size 15 to 20)
#    0.000    0.857    0.000    9.429    0.000    5.714 
#    0.000    4.286    0.000    0.000    0.000    0.000 
#    0.000    0.000    0.000    0.000    0.000    0.000 
#
# Total GULP energy -156595.834860 kJ/mol
# GULP energy per Si atom -5592.708388 kJ/mol
# Density = 2.085772 g / cm^3
# Si number density = 20.905300 Si / 1000 Ang^3
#
#
#
# Elastic Constant Matrix: (Units=GPa)
#
#
# Indices 1 2 3 4 5 6 
#
# 1 61.6902 9.7431 45.8035 0.0000 0.0000 0.0000
# 2 9.7431 120.7162 28.6677 0.0000 0.0000 0.0000
# 3 45.8035 28.6677 113.9024 0.0000 0.0000 0.0000
# 4 0.0000 0.0000 0.0000 34.1879 0.0000 0.0000
# 5 0.0000 0.0000 0.0000 0.0000 34.7768 0.0000
# 6 0.0000 0.0000 0.0000 0.0000 0.0000 30.6342
#
#
#
# Elastic Compliance Matrix: (Units=1/GPa)
#
#
# Indices 1 2 3 4 5 6 
#
# 1 0.023125 0.000364 -0.009391 0.000000 0.000000 0.000000
# 2 0.000364 0.008816 -0.002365 0.000000 0.000000 0.000000
# 3 -0.009391 -0.002365 0.013151 0.000000 0.000000 0.000000
# 4 0.000000 0.000000 0.000000 0.029250 0.000000 0.000000
# 5 0.000000 0.000000 0.000000 0.000000 0.028755 0.000000
# 6 0.000000 0.000000 0.000000 0.000000 0.000000 0.032643
#
#
# Mechanical properties :
#
#
# Convention : Reuss Voigt Hill
#
# Bulk Modulus (GPa) = 44.82748 51.63747 48.23247
# Shear Modulus (GPa) = 30.12759 34.05942 32.09350
#
# Velocity S-wave (km/s) = 3.80036 4.04074 3.92239
# Velocity P-wave (km/s) = 6.38331 6.82088 6.60572
#
# Compressibility (1/GPa) = 0.02230774
#
# Stress axis : x y z
#
# Youngs Moduli (GPa) = 43.24321 113.42734 76.03966
#
# Poissons Ratio (x) = -0.04125 0.71407
# Poissons Ratio (y) = -0.01573 0.17985
# Poissons Ratio (z) = 0.40609 0.26827
#
# Static dielectric constant tensor:
#      x y z
#    x 1.754530 0.000000 0.000000 
#    y 0.000000 1.704960 0.000000 
#    z 0.000000 0.000000 1.804520 
# 
# From -- ./inp_files/26590.got.cif
#   From: 2010.05.17/outbox.cif.g08.bks.cpg/sg40_14_cif.got.tgz:26590.got - 2010.06.03 18:35:42.
