data_PCOD9364398
_publ_section_title
;
Structure prediction by ZEFSAII (Michael W. Deem and Ramdas Pophale) SiO2 
 PCOD9364398
Probable space group: A M A 2
;
_chemical_formula_sum "Si O2"
_cell_formula_units_Z 48
_cell_length_a 15.505672
_cell_length_b 9.687684
_cell_length_c 15.023841
_cell_angle_alpha 90.000000
_cell_angle_beta 90.000000
_cell_angle_gamma 90.000000
_cell_volume 2256.792011
_symmetry_space_group_name_H-M "A M A 2"
_symmetry_group_IT_number 40
_symmetry_cell_setting 'orthorhombic'
loop_
_space_group_symop_operation_xyz
x,y,z
-x,-y,z
1/2-x,y,z
1/2+x,-y,z
x,1/2+y,1/2+z
-x,1/2-y,1/2+z
1/2-x,1/2+y,1/2+z
1/2+x,1/2-y,1/2+z
loop_
_atom_site_type_symbol
_atom_site_label
_atom_site_fract_x
_atom_site_fract_y
_atom_site_fract_z
Si Si1 0.750000 0.445634 0.362471
Si Si2 0.395428 0.972699 0.226858
Si Si3 0.966136 0.155945 0.071863
Si Si4 0.103863 0.782358 0.687523
Si Si5 0.250000 0.123658 0.469022
Si Si6 0.250000 0.003237 0.654933
Si Si7 0.750000 0.632738 0.859744
Si Si8 0.890445 0.674435 0.389598
O O1 0.750000 0.437110 0.254966
O O2 0.750000 0.289356 0.391979
O O3 0.832059 0.536174 0.393173
O O4 0.389230 0.866995 0.142987
O O5 0.335410 0.908570 0.302904
O O6 0.500000 0.000000 0.250614
O O7 0.361209 0.124644 0.198540
O O8 0.026811 0.266303 0.118558
O O9 0.957694 0.180034 0.968340
O O10 0.000000 0.000000 0.075736
O O11 0.168852 0.898430 0.654467
O O12 0.076793 0.815621 0.789157
O O13 0.171272 0.200058 0.419960
O O14 0.250000 0.115720 0.576161
O O15 0.250000 0.964979 0.444264
#
# Coordination Sequence:
#
# PCOD9364398 Si02
#       8
#     4   8   8   8   4   4   4   8
#     4   9  24  38  66  91 128 169 216 277 331 395
#     4   9  20  38  63  96 127 169 218 264 324 402
#     4   9  21  39  61  95 124 174 216 256 329 399
#     4   9  18  41  64  86 129 174 205 266 336 388
#     4  11  24  37  65  94 125 164 221 267 331 395
#     4  10  21  40  58  96 129 159 224 279 324 387
#     4  12  21  39  65 101 120 178 219 267 326 399
#     4  10  20  44  63  89 131 169 212 271 339 389
#
# _framework density 21.269127000000001
#
# number of rings (size 3 to 8) (size 9 to 14) (size 15 to 20)
#    0.000    2.667    1.667    1.000    2.333    3.333 
#   12.000    1.667    0.000    0.000    0.000    0.000 
#    0.000    0.000    0.000    0.000    0.000    0.000 
#
# Total GULP energy -133603.198731 kJ/mol
# GULP energy per Si atom -5566.799947 kJ/mol
# Density = 2.122072 g / cm^3
# Si number density = 21.269127 Si / 1000 Ang^3
#
#
#
# Elastic Constant Matrix: (Units=GPa)
#
#
# Indices 1 2 3 4 5 6 
#
# 1 45.0659 9.1959 42.2013 0.0000 0.0000 0.0000
# 2 9.1959 90.3675 6.4777 0.0000 0.0000 0.0000
# 3 42.2013 6.4777 129.4772 0.0000 0.0000 0.0000
# 4 0.0000 0.0000 0.0000 1.7318 0.0000 0.0000
# 5 0.0000 0.0000 0.0000 0.0000 21.9858 0.0000
# 6 0.0000 0.0000 0.0000 0.0000 0.0000 3.0152
#
#
#
# Elastic Compliance Matrix: (Units=1/GPa)
#
#
# Indices 1 2 3 4 5 6 
#
# 1 0.032517 -0.002558 -0.010470 0.000000 0.000000 0.000000
# 2 -0.002558 0.011307 0.000268 0.000000 0.000000 0.000000
# 3 -0.010470 0.000268 0.011123 0.000000 0.000000 0.000000
# 4 0.000000 0.000000 0.000000 0.577444 0.000000 0.000000
# 5 0.000000 0.000000 0.000000 0.000000 0.045484 0.000000
# 6 0.000000 0.000000 0.000000 0.000000 0.000000 0.331648
#
#
# Mechanical properties :
#
#
# Convention : Reuss Voigt Hill
#
# Bulk Modulus (GPa) = 33.98455 42.29561 38.14008
# Shear Modulus (GPa) = 4.78537 19.14895 11.96716
#
# Velocity S-wave (km/s) = 1.50160 3.00378 2.37461
# Velocity P-wave (km/s) = 4.36113 5.65326 5.04870
#
# Compressibility (1/GPa) = 0.02942514
#
# Stress axis : x y z
#
# Youngs Moduli (GPa) = 30.75359 88.44049 89.90693
#
# Poissons Ratio (x) = 0.22626 0.94136
# Poissons Ratio (y) = 0.07868 -0.02411
# Poissons Ratio (z) = 0.32200 -0.02372
#
# Static dielectric constant tensor:
#      x y z
#    x 1.209960 0.000000 0.000000 
#    y 0.000000 1.765200 0.000000 
#    z 0.000000 0.000000 1.829980 
# 
# From -- ./inp_files/17682.got.cif
#   From: 2010.05.17/outbox.cif.g08.bks.cpg/sg40_9_cif.got.tgz:17682.got - 2010.06.03 18:35:42.
