data_PCOD9364454
_publ_section_title
;
Structure prediction by ZEFSAII (Michael W. Deem and Ramdas Pophale) SiO2 
 PCOD9364454
Probable space group: A M A 2
;
_chemical_formula_sum "Si O2"
_cell_formula_units_Z 40
_cell_length_a 14.059272
_cell_length_b 30.236947
_cell_length_c 5.264287
_cell_angle_alpha 90.000000
_cell_angle_beta 90.000000
_cell_angle_gamma 90.000000
_cell_volume 2237.898216
_symmetry_space_group_name_H-M "A M A 2"
_symmetry_group_IT_number 40
_symmetry_cell_setting 'orthorhombic'
loop_
_space_group_symop_operation_xyz
x,y,z
-x,-y,z
1/2-x,y,z
1/2+x,-y,z
x,1/2+y,1/2+z
-x,1/2-y,1/2+z
1/2-x,1/2+y,1/2+z
1/2+x,1/2-y,1/2+z
loop_
_atom_site_type_symbol
_atom_site_label
_atom_site_fract_x
_atom_site_fract_y
_atom_site_fract_z
Si Si1 0.044546 0.771447 0.739250
Si Si2 0.750000 0.267245 0.815583
Si Si3 0.357167 0.078199 0.309487
Si Si4 0.547594 0.364724 0.159414
Si Si5 0.560658 0.955979 0.805700
Si Si6 0.750000 0.328102 0.318653
O O1 0.154735 0.761621 0.791383
O O2 0.012129 0.744578 0.489134
O O3 0.015924 0.821963 0.685376
O O4 0.750000 0.301952 0.582581
O O5 0.750000 0.293485 0.082559
O O6 0.250000 0.093905 0.282888
O O7 0.424895 0.120142 0.372454
O O8 0.386513 0.049332 0.070964
O O9 0.370030 0.048769 0.563691
O O10 0.503788 0.409348 0.278031
O O11 0.651956 0.355601 0.285162
O O12 0.500000 0.000000 0.792405
#
# Coordination Sequence:
#
# PCOD9364454 Si02
#       6
#     8   4   8   8   8   4
#     4  12  24  39  60  90 122 169 197 247 311 358
#     4  12  24  40  58  89 128 159 208 252 292 376
#     4  10  21  35  61  90 114 149 200 254 300 347
#     4  10  23  36  63  89 123 157 204 246 309 361
#     4  10  22  38  59  86 120 156 192 249 308 359
#     4  12  22  36  64  93 116 155 200 264 306 346
#
# _framework density 17.873915
#
# number of rings (size 3 to 8) (size 9 to 14) (size 15 to 20)
#    1.200    0.000    5.000    1.200    7.000    0.000 
#    0.000    0.000    4.400    0.000    0.000    0.000 
#    0.000    0.000    0.000    0.000    0.000    0.000 
#
# Total GULP energy -111482.419003 kJ/mol
# GULP energy per Si atom -5574.120950 kJ/mol
# Density = 1.783323 g / cm^3
# Si number density = 17.873915 Si / 1000 Ang^3
#
#
#
# Elastic Constant Matrix: (Units=GPa)
#
#
# Indices 1 2 3 4 5 6 
#
# 1 77.8428 62.0147 21.7509 0.0000 0.0000 0.0000
# 2 62.0147 138.1168 31.6382 0.0000 0.0000 0.0000
# 3 21.7509 31.6382 116.1755 0.0000 0.0000 0.0000
# 4 0.0000 0.0000 0.0000 18.3561 0.0000 0.0000
# 5 0.0000 0.0000 0.0000 0.0000 22.2904 0.0000
# 6 0.0000 0.0000 0.0000 0.0000 0.0000 32.0931
#
#
#
# Elastic Compliance Matrix: (Units=1/GPa)
#
#
# Indices 1 2 3 4 5 6 
#
# 1 0.020212 -0.008755 -0.001400 0.000000 0.000000 0.000000
# 2 -0.008755 0.011514 -0.001497 0.000000 0.000000 0.000000
# 3 -0.001400 -0.001497 0.009277 0.000000 0.000000 0.000000
# 4 0.000000 0.000000 0.000000 0.054478 0.000000 0.000000
# 5 0.000000 0.000000 0.000000 0.000000 0.044862 0.000000
# 6 0.000000 0.000000 0.000000 0.000000 0.000000 0.031159
#
#
# Mechanical properties :
#
#
# Convention : Reuss Voigt Hill
#
# Bulk Modulus (GPa) = 56.49395 62.54920 59.52158
# Shear Modulus (GPa) = 24.91214 28.99666 26.95440
#
# Velocity S-wave (km/s) = 3.73737 4.03214 3.88755
# Velocity P-wave (km/s) = 7.09221 7.53314 7.31600
#
# Compressibility (1/GPa) = 0.01770101
#
# Stress axis : x y z
#
# Youngs Moduli (GPa) = 49.47551 86.85195 107.78952
#
# Poissons Ratio (x) = 0.76035 0.15091
# Poissons Ratio (y) = 0.43313 0.16131
# Poissons Ratio (z) = 0.06927 0.12998
#
# Static dielectric constant tensor:
#      x y z
#    x 1.594610 0.000000 0.000000 
#    y 0.000000 1.621830 0.000000 
#    z 0.000000 0.000000 1.672670 
# 
# From -- ./inp_files/1395.got.cif
#   From: 2010.05.17/outbox.cif.g08.bks.cpg/sg40_1_cif.got.tgz:1395.got - 2010.06.03 18:35:42.
