data_PCOD9364162
_publ_section_title
;
Structure prediction by ZEFSAII (Michael W. Deem and Ramdas Pophale) SiO2 
 PCOD9364162
Probable space group: A M A 2
;
_chemical_formula_sum "Si O2"
_cell_formula_units_Z 40
_cell_length_a 18.589591
_cell_length_b 14.693650
_cell_length_c 6.923118
_cell_angle_alpha 90.000000
_cell_angle_beta 90.000000
_cell_angle_gamma 90.000000
_cell_volume 1891.042369
_symmetry_space_group_name_H-M "A M A 2"
_symmetry_group_IT_number 40
_symmetry_cell_setting 'orthorhombic'
loop_
_space_group_symop_operation_xyz
x,y,z
-x,-y,z
1/2-x,y,z
1/2+x,-y,z
x,1/2+y,1/2+z
-x,1/2-y,1/2+z
1/2-x,1/2+y,1/2+z
1/2+x,1/2-y,1/2+z
loop_
_atom_site_type_symbol
_atom_site_label
_atom_site_fract_x
_atom_site_fract_y
_atom_site_fract_z
Si Si1 0.053773 0.832232 0.053680
Si Si2 0.665352 0.246147 0.742438
Si Si3 0.391205 0.892652 0.450021
Si Si4 0.973310 0.865622 0.701340
Si Si5 0.169393 0.084955 0.490376
O O1 0.086487 0.886522 0.228968
O O2 0.021068 0.741941 0.152026
O O3 0.116733 0.803869 0.904350
O O4 0.993571 0.879569 0.923246
O O5 0.750000 0.226983 0.764954
O O6 0.641047 0.200865 0.539991
O O7 0.655462 0.353006 0.798188
O O8 0.464173 0.909884 0.571801
O O9 0.337858 0.977218 0.466537
O O10 0.893400 0.890764 0.640090
O O11 0.250000 0.108643 0.555967
#
# Coordination Sequence:
#
# PCOD9364162 Si02
#       5
#     8   8   8   8   8
#     4  10  20  37  69  91 125 166 218 269 327 398
#     4   9  21  40  61  91 129 170 218 269 325 399
#     4  11  21  39  67  95 130 176 216 276 333 393
#     4  10  20  39  64  95 124 164 221 276 323 392
#     4  10  22  41  65  96 137 175 217 273 343 410
#
# _framework density 21.152356000000001
#
# number of rings (size 3 to 8) (size 9 to 14) (size 15 to 20)
#    0.000    2.000    2.000    1.200    0.000    1.600 
#    0.000   18.000    0.000   15.600    0.000    0.000 
#    0.000    0.000    0.000    0.000    0.000    0.000 
#
# Total GULP energy -111600.750005 kJ/mol
# GULP energy per Si atom -5580.037500 kJ/mol
# Density = 2.110421 g / cm^3
# Si number density = 21.152356 Si / 1000 Ang^3
#
#
#
# Elastic Constant Matrix: (Units=GPa)
#
#
# Indices 1 2 3 4 5 6 
#
# 1 135.1907 26.8560 38.0663 0.0000 0.0000 0.0000
# 2 26.8560 32.4705 -5.6125 0.0000 0.0000 0.0000
# 3 38.0663 -5.6125 97.2193 0.0000 0.0000 0.0000
# 4 0.0000 0.0000 0.0000 9.0502 0.0000 0.0000
# 5 0.0000 0.0000 0.0000 0.0000 24.9031 0.0000
# 6 0.0000 0.0000 0.0000 0.0000 0.0000 19.0750
#
#
#
# Elastic Compliance Matrix: (Units=1/GPa)
#
#
# Indices 1 2 3 4 5 6 
#
# 1 0.010635 -0.009612 -0.004719 0.000000 0.000000 0.000000
# 2 -0.009612 0.039795 0.006061 0.000000 0.000000 0.000000
# 3 -0.004719 0.006061 0.012484 0.000000 0.000000 0.000000
# 4 0.000000 0.000000 0.000000 0.110495 0.000000 0.000000
# 5 0.000000 0.000000 0.000000 0.000000 0.040156 0.000000
# 6 0.000000 0.000000 0.000000 0.000000 0.000000 0.052425
#
#
# Mechanical properties :
#
#
# Convention : Reuss Voigt Hill
#
# Bulk Modulus (GPa) = 21.56408 42.61109 32.08758
# Shear Modulus (GPa) = 16.77925 24.31038 20.54482
#
# Velocity S-wave (km/s) = 2.81954 3.39381 3.11991
# Velocity P-wave (km/s) = 4.56251 5.96203 5.30859
#
# Compressibility (1/GPa) = 0.04637341
#
# Stress axis : x y z
#
# Youngs Moduli (GPa) = 94.02761 25.12894 80.10445
#
# Poissons Ratio (x) = 0.24154 0.37802
# Poissons Ratio (y) = 0.90379 -0.48551
# Poissons Ratio (z) = 0.44373 -0.15230
#
# Static dielectric constant tensor:
#      x y z
#    x 1.772010 0.000000 0.000000 
#    y 0.000000 1.814000 0.000000 
#    z 0.000000 0.000000 1.745430 
# 
# From -- ./inp_files/1745.got.cif
#   From: 2010.05.17/outbox.cif.g08.bks.cpg/sg40_1_cif.got.tgz:1745.got - 2010.06.03 18:35:42.
