data_PCOD9364547
_publ_section_title
;
Structure prediction by ZEFSAII (Michael W. Deem and Ramdas Pophale) SiO2 
 PCOD9364547
Probable space group: A M A 2
;
_chemical_formula_sum "Si O2"
_cell_formula_units_Z 64
_cell_length_a 16.832953
_cell_length_b 12.234753
_cell_length_c 15.020497
_cell_angle_alpha 90.000000
_cell_angle_beta 90.000000
_cell_angle_gamma 90.000000
_cell_volume 3093.426629
_symmetry_space_group_name_H-M "A M A 2"
_symmetry_group_IT_number 40
_symmetry_cell_setting 'orthorhombic'
loop_
_space_group_symop_operation_xyz
x,y,z
-x,-y,z
1/2-x,y,z
1/2+x,-y,z
x,1/2+y,1/2+z
-x,1/2-y,1/2+z
1/2-x,1/2+y,1/2+z
1/2+x,1/2-y,1/2+z
loop_
_atom_site_type_symbol
_atom_site_label
_atom_site_fract_x
_atom_site_fract_y
_atom_site_fract_z
Si Si1 0.157872 0.144759 0.616580
Si Si2 0.839021 0.761421 0.422823
Si Si3 0.889027 0.803105 0.236181
Si Si4 0.456853 0.339133 0.651126
Si Si5 0.842977 0.058598 0.726234
Si Si6 0.000094 0.132133 0.954093
Si Si7 0.835333 0.474836 0.602009
Si Si8 0.839430 0.401609 0.396824
O O1 0.250000 0.158691 0.645235
O O2 0.155604 0.165358 0.510962
O O3 0.101163 0.236065 0.658184
O O4 0.132942 0.025284 0.648935
O O5 0.750000 0.709299 0.423577
O O6 0.849086 0.825348 0.330940
O O7 0.914880 0.680863 0.426056
O O8 0.888651 0.672200 0.224846
O O9 0.842056 0.864124 0.158106
O O10 0.979415 0.843140 0.228758
O O11 0.403454 0.445317 0.635985
O O12 0.421037 0.168547 0.900381
O O13 0.750000 0.087211 0.715656
O O14 0.849095 0.989618 0.817790
O O15 0.005578 0.167291 0.057639
O O16 0.000000 0.000000 0.946525
O O17 0.750000 0.528520 0.618895
O O18 0.839585 0.452788 0.496583
O O19 0.750000 0.353098 0.385349
#
# Coordination Sequence:
#
# PCOD9364547 Si02
#       8
#     8   8   8   8   8   8   8   8
#     4   9  21  42  65  88 127 175 224 269 318 394
#     4  10  23  40  64  93 126 180 229 266 324 401
#     4  12  23  38  65  99 131 160 217 280 329 391
#     4  11  22  38  59  94 131 165 215 266 327 391
#     4  10  22  40  65  97 128 163 218 271 325 393
#     4  11  19  35  58  89 125 160 207 269 316 373
#     4  11  22  40  67  94 131 174 215 271 334 398
#     4  10  21  37  63  97 130 169 214 268 331 390
#
# _framework density 20.689032000000001
#
# number of rings (size 3 to 8) (size 9 to 14) (size 15 to 20)
#    0.000    1.500    2.500    2.625    3.500    2.500 
#    0.000    0.000   13.750    0.000    0.000    0.000 
#    0.000    0.000    0.000    0.000    0.000    0.000 
#
# Total GULP energy -178618.355081 kJ/mol
# GULP energy per Si atom -5581.823596 kJ/mol
# Density = 2.064194 g / cm^3
# Si number density = 20.689032 Si / 1000 Ang^3
#
#
#
# Elastic Constant Matrix: (Units=GPa)
#
#
# Indices 1 2 3 4 5 6 
#
# 1 139.8921 20.7936 38.5522 0.0000 0.0000 0.0000
# 2 20.7936 49.3696 31.2154 0.0000 0.0000 0.0000
# 3 38.5522 31.2154 72.2717 0.0000 0.0000 0.0000
# 4 0.0000 0.0000 0.0000 24.0085 0.0000 0.0000
# 5 0.0000 0.0000 0.0000 0.0000 28.4562 0.0000
# 6 0.0000 0.0000 0.0000 0.0000 0.0000 24.2041
#
#
#
# Elastic Compliance Matrix: (Units=1/GPa)
#
#
# Indices 1 2 3 4 5 6 
#
# 1 0.008414 -0.000971 -0.004069 0.000000 0.000000 0.000000
# 2 -0.000971 0.027977 -0.011566 0.000000 0.000000 0.000000
# 3 -0.004069 -0.011566 0.021003 0.000000 0.000000 0.000000
# 4 0.000000 0.000000 0.000000 0.041652 0.000000 0.000000
# 5 0.000000 0.000000 0.000000 0.000000 0.035142 0.000000
# 6 0.000000 0.000000 0.000000 0.000000 0.000000 0.041315
#
#
# Mechanical properties :
#
#
# Convention : Reuss Voigt Hill
#
# Bulk Modulus (GPa) = 41.35271 49.18395 45.26833
# Shear Modulus (GPa) = 23.06538 26.73192 24.89865
#
# Velocity S-wave (km/s) = 3.34257 3.59845 3.47287
# Velocity P-wave (km/s) = 5.91001 6.41013 6.16514
#
# Compressibility (1/GPa) = 0.02418221
#
# Stress axis : x y z
#
# Youngs Moduli (GPa) = 118.84893 35.74339 47.61312
#
# Poissons Ratio (x) = 0.03471 0.19373
# Poissons Ratio (y) = 0.11542 0.55068
# Poissons Ratio (z) = 0.48358 0.41340
#
# Static dielectric constant tensor:
#      x y z
#    x 1.843520 0.000000 0.000000 
#    y 0.000000 1.728720 0.000000 
#    z 0.000000 0.000000 1.756320 
# 
# From -- ./inp_files/17936.got.cif
#   From: 2010.05.17/outbox.cif.g08.bks.cpg/sg40_9_cif.got.tgz:17936.got - 2010.06.03 18:35:42.
