data_PCOD9364588
_publ_section_title
;
Structure prediction by ZEFSAII (Michael W. Deem and Ramdas Pophale) SiO2 
 PCOD9364588
Probable space group: A M A 2
;
_chemical_formula_sum "Si O2"
_cell_formula_units_Z 64
_cell_length_a 15.048498
_cell_length_b 16.574684
_cell_length_c 12.195979
_cell_angle_alpha 90.000000
_cell_angle_beta 90.000000
_cell_angle_gamma 90.000000
_cell_volume 3041.971074
_symmetry_space_group_name_H-M "A M A 2"
_symmetry_group_IT_number 40
_symmetry_cell_setting 'orthorhombic'
loop_
_space_group_symop_operation_xyz
x,y,z
-x,-y,z
1/2-x,y,z
1/2+x,-y,z
x,1/2+y,1/2+z
-x,1/2-y,1/2+z
1/2-x,1/2+y,1/2+z
1/2+x,1/2-y,1/2+z
loop_
_atom_site_type_symbol
_atom_site_label
_atom_site_fract_x
_atom_site_fract_y
_atom_site_fract_z
Si Si1 0.848274 0.380732 0.395690
Si Si2 0.851164 0.010862 0.502082
Si Si3 0.851672 0.600157 0.783008
Si Si4 0.647926 0.313140 0.745165
Si Si5 0.024048 0.269178 0.872389
Si Si6 0.397976 0.025901 0.110729
Si Si7 0.914034 0.671412 0.103659
Si Si8 0.439499 0.074019 0.691926
O O1 0.750000 0.343936 0.409269
O O2 0.928618 0.316765 0.393975
O O3 0.861887 0.444825 0.493219
O O4 0.858454 0.418062 0.274568
O O5 0.750000 0.983186 0.493590
O O6 0.880628 0.038584 0.380937
O O7 0.857962 0.091241 0.577714
O O8 0.909183 0.946979 0.568476
O O9 0.750000 0.623915 0.809059
O O10 0.915189 0.677476 0.789093
O O11 0.854078 0.550729 0.670491
O O12 0.750000 0.320972 0.782385
O O13 0.577245 0.282082 0.834907
O O14 0.616596 0.397386 0.691285
O O15 0.641406 0.245356 0.650118
O O16 0.038937 0.308395 0.990513
O O17 0.500000 0.000000 0.099793
O O18 0.993856 0.649297 0.186125
O O19 0.500000 0.000000 0.731635
#
# Coordination Sequence:
#
# PCOD9364588 Si02
#       8
#     8   8   8   8   8   8   8   8
#     4  12  24  41  66  94 129 176 220 265 329 411
#     4   9  19  35  61  93 123 159 211 270 325 390
#     4  10  21  39  63  95 130 167 213 270 333 398
#     4  12  24  42  68  95 128 178 233 282 342 417
#     4  11  23  41  66  96 131 169 221 278 338 394
#     4  12  25  42  66  95 136 177 226 281 343 411
#     4  10  21  39  65  89 125 167 220 273 336 393
#     4  10  21  38  60  87 125 166 209 264 325 390
#
# _framework density 21.038990999999999
#
# number of rings (size 3 to 8) (size 9 to 14) (size 15 to 20)
#    0.000    1.250    3.750    2.625    1.750    1.500 
#    0.000    0.625    0.000    1.500    0.000    0.000 
#    0.000    0.000    0.000    0.000    0.000    0.000 
#
# Total GULP energy -178581.178257 kJ/mol
# GULP energy per Si atom -5580.661821 kJ/mol
# Density = 2.099110 g / cm^3
# Si number density = 21.038991 Si / 1000 Ang^3
#
#
#
# Elastic Constant Matrix: (Units=GPa)
#
#
# Indices 1 2 3 4 5 6 
#
# 1 121.4624 14.9244 26.5418 0.0000 0.0000 0.0000
# 2 14.9244 56.8932 8.7055 0.0000 0.0000 0.0000
# 3 26.5418 8.7055 60.7512 0.0000 0.0000 0.0000
# 4 0.0000 0.0000 0.0000 26.6335 0.0000 0.0000
# 5 0.0000 0.0000 0.0000 0.0000 24.7317 0.0000
# 6 0.0000 0.0000 0.0000 0.0000 0.0000 19.8446
#
#
#
# Elastic Compliance Matrix: (Units=1/GPa)
#
#
# Indices 1 2 3 4 5 6 
#
# 1 0.009290 -0.001857 -0.003793 0.000000 0.000000 0.000000
# 2 -0.001857 0.018342 -0.001817 0.000000 0.000000 0.000000
# 3 -0.003793 -0.001817 0.018378 0.000000 0.000000 0.000000
# 4 0.000000 0.000000 0.000000 0.037547 0.000000 0.000000
# 5 0.000000 0.000000 0.000000 0.000000 0.040434 0.000000
# 6 0.000000 0.000000 0.000000 0.000000 0.000000 0.050392
#
#
# Mechanical properties :
#
#
# Convention : Reuss Voigt Hill
#
# Bulk Modulus (GPa) = 32.17833 37.71668 34.94751
# Shear Modulus (GPa) = 25.04083 26.83763 25.93923
#
# Velocity S-wave (km/s) = 3.45369 3.57545 3.51509
# Velocity P-wave (km/s) = 5.58854 5.91701 5.75512
#
# Compressibility (1/GPa) = 0.03107681
#
# Stress axis : x y z
#
# Youngs Moduli (GPa) = 107.64387 54.51996 54.41303
#
# Poissons Ratio (x) = 0.10122 0.20637
# Poissons Ratio (y) = 0.19985 0.09888
# Poissons Ratio (z) = 0.40825 0.09907
#
# Static dielectric constant tensor:
#      x y z
#    x 1.773510 0.000000 0.000000 
#    y 0.000000 1.781150 0.000000 
#    z 0.000000 0.000000 1.778050 
# 
# From -- ./inp_files/12422.got.cif
#   From: 2010.05.17/outbox.cif.g08.bks.cpg/sg40_7_cif.got.tgz:12422.got - 2010.06.03 18:35:42.
