data_PCOD9364041
_publ_section_title
;
Structure prediction by ZEFSAII (Michael W. Deem and Ramdas Pophale) SiO2 
 PCOD9364041
Probable space group: A M A 2
;
_chemical_formula_sum "Si O2"
_cell_formula_units_Z 48
_cell_length_a 16.875387
_cell_length_b 25.617104
_cell_length_c 5.108970
_cell_angle_alpha 90.000000
_cell_angle_beta 90.000000
_cell_angle_gamma 90.000000
_cell_volume 2208.600291
_symmetry_space_group_name_H-M "A M A 2"
_symmetry_group_IT_number 40
_symmetry_cell_setting 'orthorhombic'
loop_
_space_group_symop_operation_xyz
x,y,z
-x,-y,z
1/2-x,y,z
1/2+x,-y,z
x,1/2+y,1/2+z
-x,1/2-y,1/2+z
1/2-x,1/2+y,1/2+z
1/2+x,1/2-y,1/2+z
loop_
_atom_site_type_symbol
_atom_site_label
_atom_site_fract_x
_atom_site_fract_y
_atom_site_fract_z
Si Si1 0.659587 0.467076 0.474250
Si Si2 0.163054 0.912487 0.884780
Si Si3 0.162208 0.815535 0.494128
Si Si4 0.954384 0.265078 0.694682
Si Si5 0.441775 0.048827 0.501088
Si Si6 0.473103 0.865473 0.189164
O O1 0.750000 0.448981 0.507139
O O2 0.663879 0.525474 0.349298
O O3 0.614328 0.465860 0.752116
O O4 0.608750 0.437472 0.256864
O O5 0.250000 0.903075 0.026587
O O6 0.076088 0.903468 0.004450
O O7 0.165043 0.870219 0.653190
O O8 0.250000 0.802527 0.404411
O O9 0.125166 0.768210 0.660530
O O10 0.099579 0.827506 0.268912
O O11 0.016182 0.237669 0.493542
O O12 0.958288 0.325499 0.605126
O O13 0.492740 0.098650 0.415806
O O14 0.500000 0.000000 0.550532
#
# Coordination Sequence:
#
# PCOD9364041 Si02
#       6
#     8   8   8   8   8   8
#     4  11  25  43  61  90 129 172 210 262 317 374
#     4  10  20  36  61  90 121 157 204 259 319 371
#     4  10  21  38  61  91 124 158 202 259 322 376
#     4  10  21  38  61  87 123 158 197 249 311 373
#     4  12  24  39  66  93 128 166 218 261 313 374
#     4  11  22  37  62  92 126 160 214 256 317 362
#
# _framework density 21.733221
#
# number of rings (size 3 to 8) (size 9 to 14) (size 15 to 20)
#    0.000    1.333    3.333    2.500    2.333    0.000 
#    0.000    1.667    0.000    0.000    0.000    0.000 
#    0.000    0.000    0.000    0.000    0.000    0.000 
#
# Total GULP energy -133772.744468 kJ/mol
# GULP energy per Si atom -5573.864353 kJ/mol
# Density = 2.168375 g / cm^3
# Si number density = 21.733221 Si / 1000 Ang^3
#
#
#
# Elastic Constant Matrix: (Units=GPa)
#
#
# Indices 1 2 3 4 5 6 
#
# 1 111.9486 15.4055 25.3055 0.0000 0.0000 0.0000
# 2 15.4055 53.5687 -15.3831 0.0000 0.0000 0.0000
# 3 25.3055 -15.3831 56.7960 0.0000 0.0000 0.0000
# 4 0.0000 0.0000 0.0000 24.0611 0.0000 0.0000
# 5 0.0000 0.0000 0.0000 0.0000 18.9356 0.0000
# 6 0.0000 0.0000 0.0000 0.0000 0.0000 14.4307
#
#
#
# Elastic Compliance Matrix: (Units=1/GPa)
#
#
# Indices 1 2 3 4 5 6 
#
# 1 0.011032 -0.004971 -0.006262 0.000000 0.000000 0.000000
# 2 -0.004971 0.022482 0.008304 0.000000 0.000000 0.000000
# 3 -0.006262 0.008304 0.022646 0.000000 0.000000 0.000000
# 4 0.000000 0.000000 0.000000 0.041561 0.000000 0.000000
# 5 0.000000 0.000000 0.000000 0.000000 0.052811 0.000000
# 6 0.000000 0.000000 0.000000 0.000000 0.000000 0.069297
#
#
# Mechanical properties :
#
#
# Convention : Reuss Voigt Hill
#
# Bulk Modulus (GPa) = 19.87972 30.32990 25.10481
# Shear Modulus (GPa) = 20.62257 24.61784 22.62021
#
# Velocity S-wave (km/s) = 3.08376 3.36925 3.22966
# Velocity P-wave (km/s) = 4.67402 5.39645 5.04817
#
# Compressibility (1/GPa) = 0.05030253
#
# Stress axis : x y z
#
# Youngs Moduli (GPa) = 90.64414 44.48048 44.15811
#
# Poissons Ratio (x) = 0.22111 0.27651
# Poissons Ratio (y) = 0.45058 -0.36669
# Poissons Ratio (z) = 0.56759 -0.36936
#
# Static dielectric constant tensor:
#      x y z
#    x 1.869660 0.000000 0.000000 
#    y 0.000000 1.839250 0.000000 
#    z 0.000000 0.000000 1.853130 
# 
# From -- ./inp_files/1327.got.cif
#   From: 2010.05.17/outbox.cif.g08.bks.cpg/sg40_1_cif.got.tgz:1327.got - 2010.06.03 18:35:42.
