data_PCOD9364334
_publ_section_title
;
Structure prediction by ZEFSAII (Michael W. Deem and Ramdas Pophale) SiO2 
 PCOD9364334
Probable space group: A M A 2
;
_chemical_formula_sum "Si O2"
_cell_formula_units_Z 48
_cell_length_a 18.339957
_cell_length_b 13.681414
_cell_length_c 7.931926
_cell_angle_alpha 90.000000
_cell_angle_beta 90.000000
_cell_angle_gamma 90.000000
_cell_volume 1990.251463
_symmetry_space_group_name_H-M "A M A 2"
_symmetry_group_IT_number 40
_symmetry_cell_setting 'orthorhombic'
loop_
_space_group_symop_operation_xyz
x,y,z
-x,-y,z
1/2-x,y,z
1/2+x,-y,z
x,1/2+y,1/2+z
-x,1/2-y,1/2+z
1/2-x,1/2+y,1/2+z
1/2+x,1/2-y,1/2+z
loop_
_atom_site_type_symbol
_atom_site_label
_atom_site_fract_x
_atom_site_fract_y
_atom_site_fract_z
Si Si1 0.833623 0.008865 0.041710
Si Si2 0.833040 0.598068 0.074006
Si Si3 0.567241 0.120798 0.845787
Si Si4 0.463419 0.210757 0.574450
Si Si5 0.422591 0.048524 0.342544
Si Si6 0.171950 0.783274 0.241440
O O1 0.750000 0.985361 0.988723
O O2 0.830829 0.117827 0.127677
O O3 0.863042 0.945104 0.196180
O O4 0.903342 0.016336 0.914684
O O5 0.750000 0.561452 0.078469
O O6 0.854442 0.643895 0.254328
O O7 0.885656 0.513427 0.996526
O O8 0.836760 0.681197 0.931726
O O9 0.519242 0.147391 0.682639
O O10 0.529400 0.179470 0.999592
O O11 0.445392 0.153998 0.404824
O O12 0.392621 0.215516 0.688905
O O13 0.500000 0.000000 0.292989
O O14 0.250000 0.736090 0.216724
#
# Coordination Sequence:
#
# PCOD9364334 Si02
#       6
#     8   8   8   8   8   8
#     4   9  20  40  64  87 121 170 213 253 314 393
#     4  10  20  40  65  88 126 175 214 249 313 402
#     4  11  22  39  63  93 128 167 213 257 326 388
#     4  11  23  37  63  95 129 160 212 272 320 370
#     4  11  22  40  59  94 127 168 210 270 326 374
#     4   8  17  35  60  88 122 166 205 247 309 374
#
# _framework density 24.117557000000001
#
# number of rings (size 3 to 8) (size 9 to 14) (size 15 to 20)
#    0.000    2.000    1.667    3.000    4.667    2.000 
#    3.000    0.000    0.000    2.000    0.000    0.000 
#    0.000    0.000    0.000    0.000    0.000    0.000 
#
# Total GULP energy -133624.012069 kJ/mol
# GULP energy per Si atom -5567.667170 kJ/mol
# Density = 2.406266 g / cm^3
# Si number density = 24.117557 Si / 1000 Ang^3
#
#
#
# Elastic Constant Matrix: (Units=GPa)
#
#
# Indices 1 2 3 4 5 6 
#
# 1 44.4272 11.3831 -6.7124 0.0000 0.0000 0.0000
# 2 11.3831 22.9810 -3.9426 0.0000 0.0000 0.0000
# 3 -6.7124 -3.9426 85.7910 0.0000 0.0000 0.0000
# 4 0.0000 0.0000 0.0000 15.5580 0.0000 0.0000
# 5 0.0000 0.0000 0.0000 0.0000 32.3977 0.0000
# 6 0.0000 0.0000 0.0000 0.0000 0.0000 26.4385
#
#
#
# Elastic Compliance Matrix: (Units=1/GPa)
#
#
# Indices 1 2 3 4 5 6 
#
# 1 0.025959 -0.012609 0.001452 0.000000 0.000000 0.000000
# 2 -0.012609 0.049985 0.001311 0.000000 0.000000 0.000000
# 3 0.001452 0.001311 0.011830 0.000000 0.000000 0.000000
# 4 0.000000 0.000000 0.000000 0.064276 0.000000 0.000000
# 5 0.000000 0.000000 0.000000 0.000000 0.030866 0.000000
# 6 0.000000 0.000000 0.000000 0.000000 0.000000 0.037824
#
#
# Mechanical properties :
#
#
# Convention : Reuss Voigt Hill
#
# Bulk Modulus (GPa) = 14.68870 17.18395 15.93632
# Shear Modulus (GPa) = 19.00229 25.04357 22.02293
#
# Velocity S-wave (km/s) = 2.81001 3.22591 3.02511
# Velocity P-wave (km/s) = 4.07822 4.58431 4.33865
#
# Compressibility (1/GPa) = 0.06807955
#
# Stress axis : x y z
#
# Youngs Moduli (GPa) = 38.52268 20.00613 84.53059
#
# Poissons Ratio (x) = 0.25226 -0.12270
# Poissons Ratio (y) = 0.48573 -0.11078
# Poissons Ratio (z) = -0.05592 -0.02622
#
# Static dielectric constant tensor:
#      x y z
#    x 1.958730 0.000000 0.000000 
#    y 0.000000 2.317230 0.000000 
#    z 0.000000 0.000000 2.032610 
# 
# From -- ./inp_files/7464.got.cif
#   From: 2010.05.17/outbox.cif.g08.bks.cpg/sg40_4_cif.got.tgz:7464.got - 2010.06.03 18:35:42.
