data_PCOD9364416
_publ_section_title
;
Structure prediction by ZEFSAII (Michael W. Deem and Ramdas Pophale) SiO2 
 PCOD9364416
Probable space group: A M A 2
;
_chemical_formula_sum "Si O2"
_cell_formula_units_Z 64
_cell_length_a 31.189569
_cell_length_b 5.504481
_cell_length_c 18.036809
_cell_angle_alpha 90.000000
_cell_angle_beta 90.000000
_cell_angle_gamma 90.000000
_cell_volume 3096.602476
_symmetry_space_group_name_H-M "A M A 2"
_symmetry_group_IT_number 40
_symmetry_cell_setting 'orthorhombic'
loop_
_space_group_symop_operation_xyz
x,y,z
-x,-y,z
1/2-x,y,z
1/2+x,-y,z
x,1/2+y,1/2+z
-x,1/2-y,1/2+z
1/2-x,1/2+y,1/2+z
1/2+x,1/2-y,1/2+z
loop_
_atom_site_type_symbol
_atom_site_label
_atom_site_fract_x
_atom_site_fract_y
_atom_site_fract_z
Si Si1 0.882073 0.445852 0.379430
Si Si2 0.868784 0.422989 0.219698
Si Si3 0.583231 0.466701 0.071581
Si Si4 0.703994 0.284048 0.745031
Si Si5 0.795294 0.150465 0.380514
Si Si6 0.049204 0.549688 0.506696
Si Si7 0.799613 0.127884 0.119735
Si Si8 0.839988 0.316554 0.978454
O O1 0.893023 0.359034 0.295953
O O2 0.837368 0.306011 0.391532
O O3 0.921542 0.402176 0.434520
O O4 0.867186 0.712058 0.409442
O O5 0.903215 0.480728 0.157113
O O6 0.833135 0.265527 0.174744
O O7 0.838541 0.632528 0.253478
O O8 0.554314 0.699506 0.052613
O O9 0.565955 0.196606 0.048928
O O10 0.627550 0.485652 0.024679
O O11 0.750000 0.157665 0.758312
O O12 0.703447 0.509974 0.801866
O O13 0.703376 0.369623 0.659936
O O14 0.750000 0.282874 0.386648
O O15 0.799618 0.950141 0.443998
O O16 0.000000 0.500000 0.487998
O O17 0.750000 0.221466 0.118286
O O18 0.821713 0.129491 0.039591
#
# Coordination Sequence:
#
# PCOD9364416 Si02
#       8
#     8   8   8   8   8   8   8   8
#     4  11  23  39  61  93 125 172 217 267 331 392
#     4  11  22  37  61  85 129 166 215 273 327 384
#     4  10  24  41  72  99 127 167 211 261 333 394
#     4  10  21  34  54  84 125 178 227 270 321 375
#     4  11  21  34  55  88 130 174 222 272 320 379
#     4  11  24  48  73 100 132 166 210 271 338 406
#     4  10  21  35  52  81 120 170 226 270 317 369
#     4  10  21  38  55  87 125 167 215 270 316 380
#
# _framework density 20.667811
#
# number of rings (size 3 to 8) (size 9 to 14) (size 15 to 20)
#    0.000    1.500    3.750    1.125    5.250    1.500 
#    0.000    3.750    0.000    0.000    0.000    0.000 
#    0.000    0.000    0.000    0.000    0.000    0.000 
#
# Total GULP energy -178144.502077 kJ/mol
# GULP energy per Si atom -5567.015690 kJ/mol
# Density = 2.062077 g / cm^3
# Si number density = 20.667811 Si / 1000 Ang^3
#
#
#
# Elastic Constant Matrix: (Units=GPa)
#
#
# Indices 1 2 3 4 5 6 
#
# 1 99.9188 12.7674 35.5596 0.0000 0.0000 0.0000
# 2 12.7674 43.2907 18.9597 0.0000 0.0000 0.0000
# 3 35.5596 18.9597 133.2015 0.0000 0.0000 0.0000
# 4 0.0000 0.0000 0.0000 24.3107 0.0000 0.0000
# 5 0.0000 0.0000 0.0000 0.0000 36.2748 0.0000
# 6 0.0000 0.0000 0.0000 0.0000 0.0000 27.5139
#
#
#
# Elastic Compliance Matrix: (Units=1/GPa)
#
#
# Indices 1 2 3 4 5 6 
#
# 1 0.011241 -0.002134 -0.002697 0.000000 0.000000 0.000000
# 2 -0.002134 0.025040 -0.002995 0.000000 0.000000 0.000000
# 3 -0.002697 -0.002995 0.008654 0.000000 0.000000 0.000000
# 4 0.000000 0.000000 0.000000 0.041134 0.000000 0.000000
# 5 0.000000 0.000000 0.000000 0.000000 0.027567 0.000000
# 6 0.000000 0.000000 0.000000 0.000000 0.000000 0.036345
#
#
# Mechanical properties :
#
#
# Convention : Reuss Voigt Hill
#
# Bulk Modulus (GPa) = 34.14867 45.66495 39.90681
# Shear Modulus (GPa) = 28.50729 31.56153 30.03441
#
# Velocity S-wave (km/s) = 3.71793 3.91203 3.81622
# Velocity P-wave (km/s) = 5.91517 6.52289 6.22645
#
# Compressibility (1/GPa) = 0.02928372
#
# Stress axis : x y z
#
# Youngs Moduli (GPa) = 88.96295 39.93533 115.55783
#
# Poissons Ratio (x) = 0.08522 0.31167
# Poissons Ratio (y) = 0.18984 0.34605
# Poissons Ratio (z) = 0.23994 0.11959
#
# Static dielectric constant tensor:
#      x y z
#    x 1.728780 0.000000 0.000000 
#    y 0.000000 1.861960 0.000000 
#    z 0.000000 0.000000 1.764360 
# 
# From -- ./inp_files/21671.got.cif
#   From: 2010.05.17/outbox.cif.g08.bks.cpg/sg40_11_cif.got.tgz:21671.got - 2010.06.03 18:35:42.
