data_PCOD9364112
_publ_section_title
;
Structure prediction by ZEFSAII (Michael W. Deem and Ramdas Pophale) SiO2 
 PCOD9364112
Probable space group: A M A 2
;
_chemical_formula_sum "Si O2"
_cell_formula_units_Z 40
_cell_length_a 16.868173
_cell_length_b 4.877340
_cell_length_c 22.218677
_cell_angle_alpha 90.000000
_cell_angle_beta 90.000000
_cell_angle_gamma 90.000000
_cell_volume 1827.970881
_symmetry_space_group_name_H-M "A M A 2"
_symmetry_group_IT_number 40
_symmetry_cell_setting 'orthorhombic'
loop_
_space_group_symop_operation_xyz
x,y,z
-x,-y,z
1/2-x,y,z
1/2+x,-y,z
x,1/2+y,1/2+z
-x,1/2-y,1/2+z
1/2-x,1/2+y,1/2+z
1/2+x,1/2-y,1/2+z
loop_
_atom_site_type_symbol
_atom_site_label
_atom_site_fract_x
_atom_site_fract_y
_atom_site_fract_z
Si Si1 0.342993 0.018714 0.559450
Si Si2 0.555396 0.250519 0.876187
Si Si3 0.157080 0.962175 0.693384
Si Si4 0.342124 0.536483 0.479051
Si Si5 0.406667 0.964835 0.257302
O O1 0.250000 0.934829 0.564973
O O2 0.375194 0.816200 0.507829
O O3 0.377103 0.004700 0.626328
O O4 0.344752 0.322675 0.533950
O O5 0.500000 0.500000 0.899750
O O6 0.608940 0.101309 0.925558
O O7 0.604273 0.406117 0.823717
O O8 0.500000 0.000000 0.852073
O O9 0.250000 0.027319 0.692753
O O10 0.117155 0.155577 0.743235
O O11 0.142887 0.650478 0.711762
O O12 0.250000 0.573405 0.460035
O O13 0.500000 0.000000 0.245651
#
# Coordination Sequence:
#
# PCOD9364112 Si02
#       5
#     8   8   8   8   8
#     4   9  19  36  58  86 119 151 186 243 309 352
#     4  11  23  41  60  83 121 162 198 246 308 362
#     4  11  22  39  64  90 118 156 205 252 297 362
#     4  10  20  37  61  86 114 152 198 243 293 358
#     4  11  23  41  60  85 123 163 198 246 312 362
#
# _framework density 21.882186000000001
#
# number of rings (size 3 to 8) (size 9 to 14) (size 15 to 20)
#    0.000    1.600    0.000    6.000    0.000    4.800 
#    0.000   12.000    0.000    0.000    0.000    0.000 
#    0.000    0.000    0.000    0.000    0.000    0.000 
#
# Total GULP energy -111687.772041 kJ/mol
# GULP energy per Si atom -5584.388602 kJ/mol
# Density = 2.183238 g / cm^3
# Si number density = 21.882186 Si / 1000 Ang^3
#
#
#
# Elastic Constant Matrix: (Units=GPa)
#
#
# Indices 1 2 3 4 5 6 
#
# 1 31.1216 1.0721 17.3568 0.0000 0.0000 0.0000
# 2 1.0721 81.6748 -11.8872 0.0000 0.0000 0.0000
# 3 17.3568 -11.8872 78.6557 0.0000 0.0000 0.0000
# 4 0.0000 0.0000 0.0000 21.6497 0.0000 0.0000
# 5 0.0000 0.0000 0.0000 0.0000 32.5581 0.0000
# 6 0.0000 0.0000 0.0000 0.0000 0.0000 31.7655
#
#
#
# Elastic Compliance Matrix: (Units=1/GPa)
#
#
# Indices 1 2 3 4 5 6 
#
# 1 0.036872 -0.001706 -0.008394 0.000000 0.000000 0.000000
# 2 -0.001706 0.012598 0.002280 0.000000 0.000000 0.000000
# 3 -0.008394 0.002280 0.014911 0.000000 0.000000 0.000000
# 4 0.000000 0.000000 0.000000 0.046190 0.000000 0.000000
# 5 0.000000 0.000000 0.000000 0.000000 0.030714 0.000000
# 6 0.000000 0.000000 0.000000 0.000000 0.000000 0.031481
#
#
# Mechanical properties :
#
#
# Convention : Reuss Voigt Hill
#
# Bulk Modulus (GPa) = 20.51641 22.72616 21.62128
# Shear Modulus (GPa) = 24.43165 29.52203 26.97684
#
# Velocity S-wave (km/s) = 3.34505 3.67704 3.51497
# Velocity P-wave (km/s) = 4.93106 5.33252 5.13571
#
# Compressibility (1/GPa) = 0.04874147
#
# Stress axis : x y z
#
# Youngs Moduli (GPa) = 27.12058 79.37795 67.06630
#
# Poissons Ratio (x) = 0.13540 0.56298
# Poissons Ratio (y) = 0.04626 -0.15293
# Poissons Ratio (z) = 0.22766 -0.18101
#
# Static dielectric constant tensor:
#      x y z
#    x 1.794210 0.000000 0.000000 
#    y 0.000000 1.765760 0.000000 
#    z 0.000000 0.000000 1.826570 
# 
# From -- ./inp_files/23248.got.cif
#   From: 2010.05.17/outbox.cif.g08.bks.cpg/sg40_12_cif.got.tgz:23248.got - 2010.06.03 18:35:42.
