data_PCOD9364562
_publ_section_title
;
Structure prediction by ZEFSAII (Michael W. Deem and Ramdas Pophale) SiO2 
 PCOD9364562
Probable space group: A M A 2
;
_chemical_formula_sum "Si O2"
_cell_formula_units_Z 64
_cell_length_a 14.213484
_cell_length_b 24.440286
_cell_length_c 9.641284
_cell_angle_alpha 90.000000
_cell_angle_beta 90.000000
_cell_angle_gamma 90.000000
_cell_volume 3349.204797
_symmetry_space_group_name_H-M "A M A 2"
_symmetry_group_IT_number 40
_symmetry_cell_setting 'orthorhombic'
loop_
_space_group_symop_operation_xyz
x,y,z
-x,-y,z
1/2-x,y,z
1/2+x,-y,z
x,1/2+y,1/2+z
-x,1/2-y,1/2+z
1/2-x,1/2+y,1/2+z
1/2+x,1/2-y,1/2+z
loop_
_atom_site_type_symbol
_atom_site_label
_atom_site_fract_x
_atom_site_fract_y
_atom_site_fract_z
Si Si1 0.635689 0.966333 0.105500
Si Si2 0.356836 0.414519 0.961379
Si Si3 0.489894 0.817893 0.177139
Si Si4 0.361471 0.714647 0.198953
Si Si5 0.461255 0.143308 0.478402
Si Si6 0.857923 0.087129 0.122879
Si Si7 0.360688 0.651312 0.480441
Si Si8 0.363243 0.035158 0.427125
O O1 0.750000 0.969257 0.107506
O O2 0.604688 0.960538 0.266099
O O3 0.606402 0.028389 0.066439
O O4 0.612711 0.911916 0.018110
O O5 0.250000 0.405342 0.007465
O O6 0.430516 0.370289 0.015022
O O7 0.356123 0.415147 0.792220
O O8 0.388419 0.476628 0.992008
O O9 0.422254 0.769004 0.224434
O O10 0.535197 0.842636 0.315991
O O11 0.424448 0.861794 0.096920
O O12 0.576136 0.808293 0.073469
O O13 0.250000 0.726335 0.184889
O O14 0.372547 0.670545 0.322538
O O15 0.407783 0.689305 0.062233
O O16 0.405547 0.087058 0.501794
O O17 0.750000 0.095625 0.077766
O O18 0.250000 0.656504 0.514938
O O19 0.250000 0.037382 0.426238
#
# Coordination Sequence:
#
# PCOD9364562 Si02
#       8
#     8   8   8   8   8   8   8   8
#     4   8  14  28  52  83 112 138 175 225 283 334
#     4   8  16  29  50  83 117 140 170 227 292 337
#     4  11  21  36  59  83 108 144 197 239 278 330
#     4  11  25  41  55  77 114 154 188 234 291 343
#     4  11  20  33  58  84 107 144 195 236 275 332
#     4   8  15  28  52  85 114 139 176 234 288 331
#     4  10  21  38  57  80 115 150 184 230 285 346
#     4   9  15  27  51  85 115 136 173 232 281 326
#
# _framework density 19.109013999999998
#
# number of rings (size 3 to 8) (size 9 to 14) (size 15 to 20)
#    0.000    2.500    1.250    3.375    0.000    1.500 
#    0.000    0.625    5.500    1.500    0.000    0.000 
#    0.000    0.000    0.000    0.000    0.000    0.000 
#
# Total GULP energy -178308.026289 kJ/mol
# GULP energy per Si atom -5572.125822 kJ/mol
# Density = 1.906552 g / cm^3
# Si number density = 19.109014 Si / 1000 Ang^3
#
#
#
# Elastic Constant Matrix: (Units=GPa)
#
#
# Indices 1 2 3 4 5 6 
#
# 1 63.3469 15.8687 25.4141 0.0000 0.0000 0.0000
# 2 15.8687 41.9690 6.0406 0.0000 0.0000 0.0000
# 3 25.4141 6.0406 24.2830 0.0000 0.0000 0.0000
# 4 0.0000 0.0000 0.0000 -1.7557 0.0000 0.0000
# 5 0.0000 0.0000 0.0000 0.0000 14.5859 0.0000
# 6 0.0000 0.0000 0.0000 0.0000 0.0000 36.6146
#
#
#
# Elastic Compliance Matrix: (Units=1/GPa)
#
#
# Indices 1 2 3 4 5 6 
#
# 1 0.028988 -0.006839 -0.028637 0.000000 0.000000 0.000000
# 2 -0.006839 0.026325 0.000609 0.000000 0.000000 0.000000
# 3 -0.028637 0.000609 0.071001 0.000000 0.000000 0.000000
# 4 0.000000 0.000000 0.000000 -0.569585 0.000000 0.000000
# 5 0.000000 0.000000 0.000000 0.000000 0.068559 0.000000
# 6 0.000000 0.000000 0.000000 0.000000 0.000000 0.027311
#
#
# Mechanical properties :
#
#
# Convention : Reuss Voigt Hill
#
# Bulk Modulus (GPa) = 17.67422 24.91619 21.29521
# Shear Modulus (GPa) = -19.31953 15.37401 -1.97276
#
# Velocity S-wave (km/s) = -3.18310 2.83952 -1.01716
# Velocity P-wave (km/s) = 2.05919 4.88035 3.12870
#
# Compressibility (1/GPa) = 0.05657959
#
# Stress axis : x y z
#
# Youngs Moduli (GPa) = 34.49684 37.98623 14.08437
#
# Poissons Ratio (x) = 0.25978 0.40334
# Poissons Ratio (y) = 0.23592 -0.00857
# Poissons Ratio (z) = 0.98789 -0.02312
#
# Static dielectric constant tensor:
#      x y z
#    x 1.701530 0.000000 0.000000 
#    y 0.000000 1.713430 0.000000 
#    z 0.000000 0.000000 1.638400 
# 
# From -- ./inp_files/6886.got.cif
#   From: 2010.05.17/outbox.cif.g08.bks.cpg/sg40_4_cif.got.tgz:6886.got - 2010.06.03 18:35:42.
