data_PCOD9364086
_publ_section_title
;
Structure prediction by ZEFSAII (Michael W. Deem and Ramdas Pophale) SiO2 
 PCOD9364086
Probable space group: A M A 2
;
_chemical_formula_sum "Si O2"
_cell_formula_units_Z 48
_cell_length_a 14.118134
_cell_length_b 9.396716
_cell_length_c 17.513276
_cell_angle_alpha 90.000000
_cell_angle_beta 90.000000
_cell_angle_gamma 90.000000
_cell_volume 2323.382922
_symmetry_space_group_name_H-M "A M A 2"
_symmetry_group_IT_number 40
_symmetry_cell_setting 'orthorhombic'
loop_
_space_group_symop_operation_xyz
x,y,z
-x,-y,z
1/2-x,y,z
1/2+x,-y,z
x,1/2+y,1/2+z
-x,1/2-y,1/2+z
1/2-x,1/2+y,1/2+z
1/2+x,1/2-y,1/2+z
loop_
_atom_site_type_symbol
_atom_site_label
_atom_site_fract_x
_atom_site_fract_y
_atom_site_fract_z
Si Si1 0.638165 0.643907 0.896910
Si Si2 0.023186 0.351489 0.742693
Si Si3 0.514935 0.653480 0.460552
Si Si4 0.641569 0.657725 0.308712
Si Si5 0.602523 0.431519 0.184193
Si Si6 0.353656 0.609996 0.017432
O O1 0.750000 0.667748 0.884656
O O2 0.581807 0.611065 0.819407
O O3 0.583710 0.779338 0.931976
O O4 0.627523 0.512363 0.955373
O O5 0.087617 0.234870 0.700706
O O6 0.000000 0.500000 0.702452
O O7 0.924959 0.272199 0.765140
O O8 0.500000 0.500000 0.496694
O O9 0.584105 0.632282 0.386990
O O10 0.566276 0.771011 0.511677
O O11 0.750000 0.705401 0.320643
O O12 0.643992 0.515479 0.256657
O O13 0.500000 0.500000 0.176019
O O14 0.649116 0.452457 0.102402
O O15 0.250000 0.672295 0.000366
#
# Coordination Sequence:
#
# PCOD9364086 Si02
#       6
#     8   8   8   8   8   8
#     4  10  21  37  59  85 116 155 197 236 280 339
#     4  10  21  36  57  87 120 151 188 237 291 340
#     4  11  22  36  57  86 119 152 188 238 292 341
#     4  10  20  37  59  85 117 155 196 235 279 340
#     4  10  21  38  60  85 116 155 194 234 281 339
#     4  11  23  40  62  86 113 152 196 238 285 343
#
# _framework density 20.659528999999999
#
# number of rings (size 3 to 8) (size 9 to 14) (size 15 to 20)
#    0.000    1.667    0.000    7.000    0.000    6.667 
#    0.000    0.000    0.000    0.000    0.000    0.000 
#    0.000    0.000    0.000    0.000    0.000    0.000 
#
# Total GULP energy -134048.271877 kJ/mol
# GULP energy per Si atom -5585.344662 kJ/mol
# Density = 2.061251 g / cm^3
# Si number density = 20.659529 Si / 1000 Ang^3
#
#
#
# Elastic Constant Matrix: (Units=GPa)
#
#
# Indices 1 2 3 4 5 6 
#
# 1 140.2852 24.1465 13.6659 0.0000 0.0000 0.0000
# 2 24.1465 85.8417 8.5042 0.0000 0.0000 0.0000
# 3 13.6659 8.5042 77.3492 0.0000 0.0000 0.0000
# 4 0.0000 0.0000 0.0000 10.6125 0.0000 0.0000
# 5 0.0000 0.0000 0.0000 0.0000 25.4633 0.0000
# 6 0.0000 0.0000 0.0000 0.0000 0.0000 -21.4144
#
#
#
# Elastic Compliance Matrix: (Units=1/GPa)
#
#
# Indices 1 2 3 4 5 6 
#
# 1 0.007585 -0.002023 -0.001118 0.000000 0.000000 0.000000
# 2 -0.002023 0.012317 -0.000997 0.000000 0.000000 0.000000
# 3 -0.001118 -0.000997 0.013235 0.000000 0.000000 0.000000
# 4 0.000000 0.000000 0.000000 0.094228 0.000000 0.000000
# 5 0.000000 0.000000 0.000000 0.000000 0.039272 0.000000
# 6 0.000000 0.000000 0.000000 0.000000 0.000000 -0.046698
#
#
# Mechanical properties :
#
#
# Convention : Reuss Voigt Hill
#
# Bulk Modulus (GPa) = 40.22048 44.01214 42.11631
# Shear Modulus (GPa) = 36.62908 20.07625 28.35267
#
# Velocity S-wave (km/s) = 4.21525 3.12070 3.70858
# Velocity P-wave (km/s) = 6.57280 5.85959 6.22642
#
# Compressibility (1/GPa) = 0.02486296
#
# Stress axis : x y z
#
# Youngs Moduli (GPa) = 131.83175 81.18765 75.55457
#
# Poissons Ratio (x) = 0.16424 0.08445
# Poissons Ratio (y) = 0.26669 0.07531
# Poissons Ratio (z) = 0.14736 0.08093
#
# Static dielectric constant tensor:
#      x y z
#    x 1.747800 0.000000 0.000000 
#    y 0.000000 1.753690 0.000000 
#    z 0.000000 0.000000 1.734780 
# 
# From -- ./inp_files/20555.got.cif
#   From: 2010.05.17/outbox.cif.g08.bks.cpg/sg40_11_cif.got.tgz:20555.got - 2010.06.03 18:35:42.
