data_PCOD9364675
_publ_section_title
;
Structure prediction by ZEFSAII (Michael W. Deem and Ramdas Pophale) SiO2 
 PCOD9364675
Probable space group: A M A 2
;
_chemical_formula_sum "Si O2"
_cell_formula_units_Z 48
_cell_length_a 14.424825
_cell_length_b 28.230570
_cell_length_c 5.355474
_cell_angle_alpha 90.000000
_cell_angle_beta 90.000000
_cell_angle_gamma 90.000000
_cell_volume 2180.861649
_symmetry_space_group_name_H-M "A M A 2"
_symmetry_group_IT_number 40
_symmetry_cell_setting 'orthorhombic'
loop_
_space_group_symop_operation_xyz
x,y,z
-x,-y,z
1/2-x,y,z
1/2+x,-y,z
x,1/2+y,1/2+z
-x,1/2-y,1/2+z
1/2-x,1/2+y,1/2+z
1/2+x,1/2-y,1/2+z
loop_
_atom_site_type_symbol
_atom_site_label
_atom_site_fract_x
_atom_site_fract_y
_atom_site_fract_z
Si Si1 0.362118 0.051002 0.895170
Si Si2 0.988042 0.864780 0.926063
Si Si3 0.647438 0.596004 0.132876
Si Si4 0.649340 0.178028 0.258093
Si Si5 0.360888 0.000037 0.386409
Si Si6 0.547763 0.765730 0.702836
O O1 0.250000 0.051877 0.886176
O O2 0.400138 0.102462 0.974124
O O3 0.394166 0.030640 0.625504
O O4 0.394156 0.016943 0.118745
O O5 0.062110 0.901633 0.814549
O O6 0.953801 0.821707 0.750162
O O7 0.054759 0.839996 0.129319
O O8 0.750000 0.584204 0.236816
O O9 0.651497 0.648309 0.012728
O O10 0.625662 0.555654 0.931797
O O11 0.750000 0.167350 0.135006
O O12 0.637457 0.234431 0.272840
O O13 0.250000 0.006824 0.382638
O O14 0.523539 0.754364 0.414950
#
# Coordination Sequence:
#
# PCOD9364675 Si02
#       6
#     8   8   8   8   8   8
#     4  10  23  42  63  89 128 172 213 263 313 374
#     4  11  23  38  65  94 131 163 219 261 317 377
#     4  10  21  39  63  91 125 167 210 261 322 375
#     4  10  22  40  63  93 128 166 209 261 321 379
#     4   9  21  41  62  87 125 168 213 262 315 372
#     4  10  21  40  61  86 123 161 200 254 312 368
#
# _framework density 22.009649
#
# number of rings (size 3 to 8) (size 9 to 14) (size 15 to 20)
#    0.000    2.000    1.667    0.500    4.667    1.333 
#    0.000    0.000    0.000    1.000    0.000    0.000 
#    0.000    0.000    0.000    0.000    0.000    0.000 
#
# Total GULP energy -133706.840178 kJ/mol
# GULP energy per Si atom -5571.118341 kJ/mol
# Density = 2.195955 g / cm^3
# Si number density = 22.009649 Si / 1000 Ang^3
#
#
#
# Elastic Constant Matrix: (Units=GPa)
#
#
# Indices 1 2 3 4 5 6 
#
# 1 71.6573 18.7753 8.9896 0.0000 0.0000 0.0000
# 2 18.7753 65.4795 -2.5346 0.0000 0.0000 0.0000
# 3 8.9896 -2.5346 51.2215 0.0000 0.0000 0.0000
# 4 0.0000 0.0000 0.0000 28.0621 0.0000 0.0000
# 5 0.0000 0.0000 0.0000 0.0000 11.5824 0.0000
# 6 0.0000 0.0000 0.0000 0.0000 0.0000 38.5336
#
#
#
# Elastic Compliance Matrix: (Units=1/GPa)
#
#
# Indices 1 2 3 4 5 6 
#
# 1 0.015521 -0.004565 -0.002950 0.000000 0.000000 0.000000
# 2 -0.004565 0.016644 0.001625 0.000000 0.000000 0.000000
# 3 -0.002950 0.001625 0.020121 0.000000 0.000000 0.000000
# 4 0.000000 0.000000 0.000000 0.035635 0.000000 0.000000
# 5 0.000000 0.000000 0.000000 0.000000 0.086338 0.000000
# 6 0.000000 0.000000 0.000000 0.000000 0.000000 0.025951
#
#
# Mechanical properties :
#
#
# Convention : Reuss Voigt Hill
#
# Bulk Modulus (GPa) = 24.68745 26.53542 25.61143
# Shear Modulus (GPa) = 22.17365 26.51082 24.34223
#
# Velocity S-wave (km/s) = 3.17748 3.47437 3.32924
# Velocity P-wave (km/s) = 4.97020 5.30824 5.14200
#
# Compressibility (1/GPa) = 0.04050641
#
# Stress axis : x y z
#
# Youngs Moduli (GPa) = 64.42711 60.08270 49.69884
#
# Poissons Ratio (x) = 0.27426 0.14661
# Poissons Ratio (y) = 0.29409 -0.08075
# Poissons Ratio (z) = 0.19006 -0.09762
#
# Static dielectric constant tensor:
#      x y z
#    x 1.862810 0.000000 0.000000 
#    y 0.000000 1.873150 0.000000 
#    z 0.000000 0.000000 1.866220 
# 
# From -- ./inp_files/1328.got.cif
#   From: 2010.05.17/outbox.cif.g08.bks.cpg/sg40_1_cif.got.tgz:1328.got - 2010.06.03 18:35:42.
