data_PCOD9364151
_publ_section_title
;
Structure prediction by ZEFSAII (Michael W. Deem and Ramdas Pophale) SiO2 
 PCOD9364151
Probable space group: A M A 2
;
_chemical_formula_sum "Si O2"
_cell_formula_units_Z 64
_cell_length_a 21.627007
_cell_length_b 8.120178
_cell_length_c 16.539367
_cell_angle_alpha 90.000000
_cell_angle_beta 90.000000
_cell_angle_gamma 90.000000
_cell_volume 2904.563358
_symmetry_space_group_name_H-M "A M A 2"
_symmetry_group_IT_number 40
_symmetry_cell_setting 'orthorhombic'
loop_
_space_group_symop_operation_xyz
x,y,z
-x,-y,z
1/2-x,y,z
1/2+x,-y,z
x,1/2+y,1/2+z
-x,1/2-y,1/2+z
1/2-x,1/2+y,1/2+z
1/2+x,1/2-y,1/2+z
loop_
_atom_site_type_symbol
_atom_site_label
_atom_site_fract_x
_atom_site_fract_y
_atom_site_fract_z
Si Si1 0.320822 0.536549 0.375000
Si Si2 0.821070 0.040017 0.066007
Si Si3 0.600858 0.649110 0.827281
Si Si4 0.179887 0.088102 0.529325
Si Si5 0.481078 0.309374 0.276444
Si Si6 0.939682 0.604881 0.010311
Si Si7 0.442212 0.120449 0.125998
Si Si8 0.635749 0.308606 0.851122
O O1 0.250000 0.583131 0.369425
O O2 0.333679 0.504139 0.470785
O O3 0.359180 0.687883 0.340240
O O4 0.331645 0.363299 0.328965
O O5 0.750000 0.988278 0.083013
O O6 0.875660 0.963581 0.118074
O O7 0.823722 0.238060 0.075073
O O8 0.542864 0.700888 0.774462
O O9 0.572778 0.605677 0.915182
O O10 0.635568 0.481174 0.802633
O O11 0.250000 0.021546 0.536241
O O12 0.166631 0.140469 0.436168
O O13 0.123588 0.966946 0.549492
O O14 0.500000 0.500000 0.282315
O O15 0.444607 0.259309 0.195655
O O16 0.436196 0.250771 0.349358
O O17 0.000000 0.500000 0.030516
O O18 0.951607 0.786263 0.041533
O O19 0.500000 0.000000 0.136466
#
# Coordination Sequence:
#
# PCOD9364151 Si02
#       8
#     8   8   8   8   8   8   8   8
#     4  10  20  37  63  98 130 162 212 267 324 391
#     4   9  19  39  62  91 130 170 210 268 333 392
#     4  11  21  38  64  95 128 170 213 266 332 391
#     4   9  19  37  65  97 131 164 206 274 338 395
#     4  12  25  43  64  87 131 178 220 280 335 388
#     4  11  22  37  60  96 129 162 218 268 327 393
#     4  12  25  40  62  94 129 174 223 277 330 402
#     4  10  20  38  61  94 129 167 213 262 328 389
#
# _framework density 22.034293000000002
#
# number of rings (size 3 to 8) (size 9 to 14) (size 15 to 20)
#    0.000    1.500    2.500    4.875    0.000    4.500 
#    0.000    1.250    0.000    2.250    0.000    0.000 
#    0.000    0.000    0.000    0.000    0.000    0.000 
#
# Total GULP energy -178593.175996 kJ/mol
# GULP energy per Si atom -5581.036750 kJ/mol
# Density = 2.198414 g / cm^3
# Si number density = 22.034293 Si / 1000 Ang^3
#
#
#
# Elastic Constant Matrix: (Units=GPa)
#
#
# Indices 1 2 3 4 5 6 
#
# 1 127.9813 47.6180 31.8911 0.0000 0.0000 0.0000
# 2 47.6180 104.0259 20.6431 0.0000 0.0000 0.0000
# 3 31.8911 20.6431 39.4290 0.0000 0.0000 0.0000
# 4 0.0000 0.0000 0.0000 20.8431 0.0000 0.0000
# 5 0.0000 0.0000 0.0000 0.0000 32.8264 0.0000
# 6 0.0000 0.0000 0.0000 0.0000 0.0000 33.0104
#
#
#
# Elastic Compliance Matrix: (Units=1/GPa)
#
#
# Indices 1 2 3 4 5 6 
#
# 1 0.010878 -0.003608 -0.006909 0.000000 0.000000 0.000000
# 2 -0.003608 0.011924 -0.003325 0.000000 0.000000 0.000000
# 3 -0.006909 -0.003325 0.032691 0.000000 0.000000 0.000000
# 4 0.000000 0.000000 0.000000 0.047977 0.000000 0.000000
# 5 0.000000 0.000000 0.000000 0.000000 0.030463 0.000000
# 6 0.000000 0.000000 0.000000 0.000000 0.000000 0.030293
#
#
# Mechanical properties :
#
#
# Convention : Reuss Voigt Hill
#
# Bulk Modulus (GPa) = 35.95939 52.41562 44.18751
# Shear Modulus (GPa) = 24.85324 28.75493 26.80409
#
# Velocity S-wave (km/s) = 3.36212 3.61641 3.49158
# Velocity P-wave (km/s) = 5.60597 6.42477 6.02929
#
# Compressibility (1/GPa) = 0.02780914
#
# Stress axis : x y z
#
# Youngs Moduli (GPa) = 91.93013 83.86152 30.58958
#
# Poissons Ratio (x) = 0.30260 0.21135
# Poissons Ratio (y) = 0.33171 0.10170
# Poissons Ratio (z) = 0.63516 0.27881
#
# Static dielectric constant tensor:
#      x y z
#    x 1.794800 0.000000 0.000000 
#    y 0.000000 1.818590 0.000000 
#    z 0.000000 0.000000 1.831110 
# 
# From -- ./inp_files/23335.got.cif
#   From: 2010.05.17/outbox.cif.g08.bks.cpg/sg40_12_cif.got.tgz:23335.got - 2010.06.03 18:35:42.
