data_PCOD9364830
_publ_section_title
;
Structure prediction by ZEFSAII (Michael W. Deem and Ramdas Pophale) SiO2 
 PCOD9364830
Probable space group: A M A 2
;
_chemical_formula_sum "Si O2"
_cell_formula_units_Z 40
_cell_length_a 15.217194
_cell_length_b 11.474643
_cell_length_c 9.702594
_cell_angle_alpha 90.000000
_cell_angle_beta 90.000000
_cell_angle_gamma 90.000000
_cell_volume 1694.188069
_symmetry_space_group_name_H-M "A M A 2"
_symmetry_group_IT_number 40
_symmetry_cell_setting 'orthorhombic'
loop_
_space_group_symop_operation_xyz
x,y,z
-x,-y,z
1/2-x,y,z
1/2+x,-y,z
x,1/2+y,1/2+z
-x,1/2-y,1/2+z
1/2-x,1/2+y,1/2+z
1/2+x,1/2-y,1/2+z
loop_
_atom_site_type_symbol
_atom_site_label
_atom_site_fract_x
_atom_site_fract_y
_atom_site_fract_z
Si Si1 0.851942 0.032252 0.251990
Si Si2 0.843208 0.171265 0.713052
Si Si3 0.101116 0.036519 0.535208
Si Si4 0.082306 0.437689 0.463070
Si Si5 0.959754 0.743925 0.676361
O O1 0.750000 0.063210 0.242626
O O2 0.911243 0.149467 0.273768
O O3 0.866515 0.944984 0.378838
O O4 0.884085 0.993791 0.099063
O O5 0.750000 0.237276 0.702496
O O6 0.845714 0.098805 0.855374
O O7 0.939255 0.230835 0.710680
O O8 0.847516 0.074070 0.593996
O O9 0.099288 0.142511 0.643897
O O10 0.000000 0.000000 0.524446
O O11 0.042762 0.320891 0.529301
O O12 0.000000 0.500000 0.392769
#
# Coordination Sequence:
#
# PCOD9364830 Si02
#       5
#     8   8   8   8   8
#     4  10  22  38  65 101 134 177 232 279 336 418
#     4  11  23  42  66  98 133 177 230 279 345 419
#     4  10  21  42  66  93 131 180 225 282 346 410
#     4  10  22  42  65  91 134 177 221 284 341 405
#     4   9  24  40  70  93 139 180 224 282 353 399
#
# _framework density 23.610129000000001
#
# number of rings (size 3 to 8) (size 9 to 14) (size 15 to 20)
#    1.200    0.800    0.000    3.600    5.600    1.600 
#    0.000    4.000    0.000    0.000    0.000    0.000 
#    0.000    0.000    0.000    0.000    0.000    0.000 
#
# Total GULP energy -111515.950015 kJ/mol
# GULP energy per Si atom -5575.797501 kJ/mol
# Density = 2.355639 g / cm^3
# Si number density = 23.610129 Si / 1000 Ang^3
#
#
#
# Elastic Constant Matrix: (Units=GPa)
#
#
# Indices 1 2 3 4 5 6 
#
# 1 171.1767 25.6488 23.1675 0.0000 0.0000 0.0000
# 2 25.6488 44.0113 4.9416 0.0000 0.0000 0.0000
# 3 23.1675 4.9416 106.3897 0.0000 0.0000 0.0000
# 4 0.0000 0.0000 0.0000 23.2407 0.0000 0.0000
# 5 0.0000 0.0000 0.0000 0.0000 1.1306 0.0000
# 6 0.0000 0.0000 0.0000 0.0000 0.0000 26.5830
#
#
#
# Elastic Compliance Matrix: (Units=1/GPa)
#
#
# Indices 1 2 3 4 5 6 
#
# 1 0.006564 -0.003684 -0.001258 0.000000 0.000000 0.000000
# 2 -0.003684 0.024908 -0.000355 0.000000 0.000000 0.000000
# 3 -0.001258 -0.000355 0.009690 0.000000 0.000000 0.000000
# 4 0.000000 0.000000 0.000000 0.043028 0.000000 0.000000
# 5 0.000000 0.000000 0.000000 0.000000 0.884505 0.000000
# 6 0.000000 0.000000 0.000000 0.000000 0.000000 0.037618
#
#
# Mechanical properties :
#
#
# Convention : Reuss Voigt Hill
#
# Bulk Modulus (GPa) = 32.71385 47.67704 40.19545
# Shear Modulus (GPa) = 4.86809 28.04552 16.45681
#
# Velocity S-wave (km/s) = 1.43748 3.45027 2.64298
# Velocity P-wave (km/s) = 4.07934 6.00914 5.13570
#
# Compressibility (1/GPa) = 0.03056810
#
# Stress axis : x y z
#
# Youngs Moduli (GPa) = 152.34029 40.14720 103.20039
#
# Poissons Ratio (x) = 0.14791 0.12986
# Poissons Ratio (y) = 0.56125 0.03660
# Poissons Ratio (z) = 0.19169 0.01424
#
# Static dielectric constant tensor:
#      x y z
#    x 1.851220 0.000000 0.000000 
#    y 0.000000 2.045470 0.000000 
#    z 0.000000 0.000000 1.907140 
# 
# From -- ./inp_files/11942.got.cif
#   From: 2010.05.17/outbox.cif.g08.bks.cpg/sg40_6_cif.got.tgz:11942.got - 2010.06.03 18:35:42.
