data_PCOD9364555
_publ_section_title
;
Structure prediction by ZEFSAII (Michael W. Deem and Ramdas Pophale) SiO2 
 PCOD9364555
Probable space group: A M A 2
;
_chemical_formula_sum "Si O2"
_cell_formula_units_Z 56
_cell_length_a 14.513506
_cell_length_b 5.444477
_cell_length_c 30.898179
_cell_angle_alpha 90.000000
_cell_angle_beta 90.000000
_cell_angle_gamma 90.000000
_cell_volume 2441.526200
_symmetry_space_group_name_H-M "A M A 2"
_symmetry_group_IT_number 40
_symmetry_cell_setting 'orthorhombic'
loop_
_space_group_symop_operation_xyz
x,y,z
-x,-y,z
1/2-x,y,z
1/2+x,-y,z
x,1/2+y,1/2+z
-x,1/2-y,1/2+z
1/2-x,1/2+y,1/2+z
1/2+x,1/2-y,1/2+z
loop_
_atom_site_type_symbol
_atom_site_label
_atom_site_fract_x
_atom_site_fract_y
_atom_site_fract_z
Si Si1 0.750000 0.493054 0.722430
Si Si2 0.137660 0.920471 0.405652
Si Si3 0.921689 0.326839 0.775386
Si Si4 0.400768 0.871340 0.151105
Si Si5 0.640825 0.625366 0.550088
Si Si6 0.363214 0.375064 0.005584
Si Si7 0.000000 0.000000 0.700137
Si Si8 0.138574 0.924832 0.858559
O O1 0.831159 0.469477 0.759733
O O2 0.670979 0.512560 0.684111
O O3 0.250000 0.919501 0.404861
O O4 0.109915 0.886283 0.455417
O O5 0.107142 0.682984 0.378335
O O6 0.110113 0.184059 0.386200
O O7 0.965354 0.205983 0.732851
O O8 0.893827 0.120756 0.809758
O O9 0.000000 0.500000 0.794562
O O10 0.370929 0.873087 0.101590
O O11 0.418567 0.598291 0.169895
O O12 0.500000 0.000000 0.152711
O O13 0.750000 0.625104 0.540839
O O14 0.604490 0.373655 0.529077
O O15 0.604797 0.877633 0.529494
O O16 0.250000 0.373315 0.007019
O O17 0.250000 0.928107 0.858599
#
# Coordination Sequence:
#
# PCOD9364555 Si02
#       8
#     4   8   8   8   8   8   4   8
#     4  12  22  50  68  94 140 184 234 290 348 436
#     4   9  18  35  62  99 137 175 227 283 341 413
#     4  12  26  46  67 102 139 180 234 292 356 413
#     4  12  26  46  67 102 139 180 234 292 356 413
#     4  10  21  37  64  99 135 181 228 281 344 417
#     4   9  18  35  62  99 137 175 227 283 341 413
#     4  12  26  46  68  98 134 184 234 286 358 408
#     4  10  21  37  64  99 135 181 228 281 344 417
#
# _framework density 22.936472999999999
#
# number of rings (size 3 to 8) (size 9 to 14) (size 15 to 20)
#    0.000    1.429    4.286    0.857    4.000    4.000 
#    5.143    0.000    0.000    3.429    0.000    0.000 
#    0.000    0.000    0.000    0.286    0.000    0.000 
#
# Total GULP energy -156143.643949 kJ/mol
# GULP energy per Si atom -5576.558712 kJ/mol
# Density = 2.288427 g / cm^3
# Si number density = 22.936473 Si / 1000 Ang^3
#
#
#
# Elastic Constant Matrix: (Units=GPa)
#
#
# Indices 1 2 3 4 5 6 
#
# 1 99.1618 44.8816 21.0983 0.0000 0.0000 0.0000
# 2 44.8816 110.9760 34.0508 0.0000 0.0000 0.0000
# 3 21.0983 34.0508 106.8445 0.0000 0.0000 0.0000
# 4 0.0000 0.0000 0.0000 -169.7680 0.0000 0.0000
# 5 0.0000 0.0000 0.0000 0.0000 -4.2936 0.0000
# 6 0.0000 0.0000 0.0000 0.0000 0.0000 14.6584
#
#
#
# Elastic Compliance Matrix: (Units=1/GPa)
#
#
# Indices 1 2 3 4 5 6 
#
# 1 0.012430 -0.004737 -0.000945 0.000000 0.000000 0.000000
# 2 -0.004737 0.011793 -0.002823 0.000000 0.000000 0.000000
# 3 -0.000945 -0.002823 0.010446 0.000000 0.000000 0.000000
# 4 0.000000 0.000000 0.000000 -0.005890 0.000000 0.000000
# 5 0.000000 0.000000 0.000000 0.000000 -0.232907 0.000000
# 6 0.000000 0.000000 0.000000 0.000000 0.000000 0.068220
#
#
# Mechanical properties :
#
#
# Convention : Reuss Voigt Hill
#
# Bulk Modulus (GPa) = 56.62937 57.44931 57.03934
# Shear Modulus (GPa) = -44.24245 -17.41720 -30.82982
#
# Velocity S-wave (km/s) = -4.39670 -2.75865 -3.67023
# Velocity P-wave (km/s) = 1.01558 3.86712 2.63849
#
# Compressibility (1/GPa) = 0.01765868
#
# Stress axis : x y z
#
# Youngs Moduli (GPa) = 80.45352 84.79710 95.73401
#
# Poissons Ratio (x) = 0.40168 0.09045
# Poissons Ratio (y) = 0.38110 0.27025
# Poissons Ratio (z) = 0.07601 0.23938
#
# Static dielectric constant tensor:
#      x y z
#    x 1.875110 0.000000 0.000000 
#    y 0.000000 1.903870 0.000000 
#    z 0.000000 0.000000 1.777370 
# 
# From -- ./inp_files/26616.got.cif
#   From: 2010.05.17/outbox.cif.g08.bks.cpg/sg40_14_cif.got.tgz:26616.got - 2010.06.03 18:35:42.
