data_PCOD9364681
_publ_section_title
;
Structure prediction by ZEFSAII (Michael W. Deem and Ramdas Pophale) SiO2 
 PCOD9364681
Probable space group: A M A 2
;
_chemical_formula_sum "Si O2"
_cell_formula_units_Z 48
_cell_length_a 21.919999
_cell_length_b 12.356495
_cell_length_c 7.589236
_cell_angle_alpha 90.000000
_cell_angle_beta 90.000000
_cell_angle_gamma 90.000000
_cell_volume 2055.577645
_symmetry_space_group_name_H-M "A M A 2"
_symmetry_group_IT_number 40
_symmetry_cell_setting 'orthorhombic'
loop_
_space_group_symop_operation_xyz
x,y,z
-x,-y,z
1/2-x,y,z
1/2+x,-y,z
x,1/2+y,1/2+z
-x,1/2-y,1/2+z
1/2-x,1/2+y,1/2+z
1/2+x,1/2-y,1/2+z
loop_
_atom_site_type_symbol
_atom_site_label
_atom_site_fract_x
_atom_site_fract_y
_atom_site_fract_z
Si Si1 0.088786 0.753672 0.105810
Si Si2 0.633694 0.352760 0.603849
Si Si3 0.679935 0.129988 0.532343
Si Si4 0.819345 0.572416 0.444717
Si Si5 0.678983 0.898999 0.478134
Si Si6 0.986838 0.875058 0.311675
O O1 0.130464 0.849178 0.027654
O O2 0.138404 0.657365 0.127343
O O3 0.045473 0.809664 0.246626
O O4 0.043830 0.694681 0.966483
O O5 0.641569 0.237595 0.511222
O O6 0.664362 0.451112 0.501678
O O7 0.563992 0.377265 0.655694
O O8 0.668940 0.339267 0.792008
O O9 0.750000 0.153659 0.483584
O O10 0.658766 0.021785 0.434463
O O11 0.678633 0.090423 0.735189
O O12 0.750000 0.598402 0.503820
O O13 0.750000 0.900346 0.524933
O O14 0.000000 0.000000 0.361104
#
# Coordination Sequence:
#
# PCOD9364681 Si02
#       6
#     8   8   8   8   8   8
#     4  11  24  43  66  91 128 170 210 265 312 373
#     4  11  22  41  66  89 129 170 209 260 317 376
#     4  10  21  39  63  95 128 161 204 258 318 375
#     4  11  21  39  68  96 124 163 206 259 323 374
#     4  10  21  41  66  95 130 166 210 264 322 377
#     4  11  24  44  62  91 129 170 218 258 311 380
#
# _framework density 23.351102000000001
#
# number of rings (size 3 to 8) (size 9 to 14) (size 15 to 20)
#    0.000    1.333    5.000    2.000    0.000    4.000 
#    3.000    0.000    0.000    0.000    0.000    0.000 
#    0.000    0.000    0.000    0.000    0.000    0.000 
#
# Total GULP energy -134267.489253 kJ/mol
# GULP energy per Si atom -5594.478719 kJ/mol
# Density = 2.329795 g / cm^3
# Si number density = 23.351102 Si / 1000 Ang^3
#
#
#
# Elastic Constant Matrix: (Units=GPa)
#
#
# Indices 1 2 3 4 5 6 
#
# 1 143.3339 71.3087 46.2200 0.0000 0.0000 0.0000
# 2 71.3087 175.4830 42.9555 0.0000 0.0000 0.0000
# 3 46.2200 42.9555 48.0828 0.0000 0.0000 0.0000
# 4 0.0000 0.0000 0.0000 33.9133 0.0000 0.0000
# 5 0.0000 0.0000 0.0000 0.0000 19.1778 0.0000
# 6 0.0000 0.0000 0.0000 0.0000 0.0000 45.9668
#
#
#
# Elastic Compliance Matrix: (Units=1/GPa)
#
#
# Indices 1 2 3 4 5 6 
#
# 1 0.010830 -0.002371 -0.008293 0.000000 0.000000 0.000000
# 2 -0.002371 0.007813 -0.004700 0.000000 0.000000 0.000000
# 3 -0.008293 -0.004700 0.032968 0.000000 0.000000 0.000000
# 4 0.000000 0.000000 0.000000 0.029487 0.000000 0.000000
# 5 0.000000 0.000000 0.000000 0.000000 0.052144 0.000000
# 6 0.000000 0.000000 0.000000 0.000000 0.000000 0.021755
#
#
# Mechanical properties :
#
#
# Convention : Reuss Voigt Hill
#
# Bulk Modulus (GPa) = 47.88597 76.42978 62.15787
# Shear Modulus (GPa) = 25.94908 33.57261 29.76085
#
# Velocity S-wave (km/s) = 3.33717 3.79586 3.57388
# Velocity P-wave (km/s) = 5.94982 7.21201 6.61111
#
# Compressibility (1/GPa) = 0.02088294
#
# Stress axis : x y z
#
# Youngs Moduli (GPa) = 92.33281 127.99787 30.33270
#
# Poissons Ratio (x) = 0.30350 0.25153
# Poissons Ratio (y) = 0.21893 0.14257
# Poissons Ratio (z) = 0.76567 0.60162
#
# Static dielectric constant tensor:
#      x y z
#    x 1.857920 0.000000 0.000000 
#    y 0.000000 1.872220 0.000000 
#    z 0.000000 0.000000 1.894950 
# 
# From -- ./inp_files/8715.got.cif
#   From: 2010.05.17/outbox.cif.g08.bks.cpg/sg40_5_cif.got.tgz:8715.got - 2010.06.03 18:35:42.
