data_PCOD9364987
_publ_section_title
;
Structure prediction by ZEFSAII (Michael W. Deem and Ramdas Pophale) SiO2 
 PCOD9364987
Probable space group: A M A 2
;
_chemical_formula_sum "Si O2"
_cell_formula_units_Z 44
_cell_length_a 7.513597
_cell_length_b 8.370650
_cell_length_c 30.553054
_cell_angle_alpha 90.000000
_cell_angle_beta 90.000000
_cell_angle_gamma 90.000000
_cell_volume 1921.594329
_symmetry_space_group_name_H-M "A M A 2"
_symmetry_group_IT_number 40
_symmetry_cell_setting 'orthorhombic'
loop_
_space_group_symop_operation_xyz
x,y,z
-x,-y,z
1/2-x,y,z
1/2+x,-y,z
x,1/2+y,1/2+z
-x,1/2-y,1/2+z
1/2-x,1/2+y,1/2+z
1/2+x,1/2-y,1/2+z
loop_
_atom_site_type_symbol
_atom_site_label
_atom_site_fract_x
_atom_site_fract_y
_atom_site_fract_z
Si Si1 0.036988 0.812601 0.625000
Si Si2 0.462172 0.313982 0.310504
Si Si3 0.038151 0.185597 0.032174
Si Si4 0.538000 0.814040 0.217409
Si Si5 0.448632 0.184582 0.440638
Si Si6 0.750000 0.754612 0.879031
O O1 0.250000 0.786916 0.625132
O O2 0.969360 0.733810 0.580233
O O3 0.964733 0.742308 0.670562
O O4 0.000000 0.000000 0.623759
O O5 0.500000 0.500000 0.320967
O O6 0.250000 0.282409 0.315021
O O7 0.519825 0.281366 0.260438
O O8 0.591370 0.219333 0.342737
O O9 0.250000 0.213730 0.031108
O O10 0.000000 0.000000 0.024739
O O11 0.956993 0.285030 0.992413
O O12 0.750000 0.791002 0.215565
O O13 0.500000 0.000000 0.223785
O O14 0.250000 0.214974 0.424559
O O15 0.594740 0.287460 0.416080
O O16 0.500000 0.000000 0.431969
#
# Coordination Sequence:
#
# PCOD9364987 Si02
#       6
#     8   8   8   8   8   4
#     4  10  22  40  66  99 135 179 227 272 334 408
#     4  11  24  46  71 100 137 182 232 284 345 411
#     4  11  23  42  66 101 140 180 225 283 343 405
#     4  10  23  41  64 100 137 177 223 281 340 406
#     4  12  25  48  72 100 137 181 230 285 345 411
#     4  12  26  46  72 104 132 182 228 298 336 416
#
# _framework density 22.897653999999999
#
# number of rings (size 3 to 8) (size 9 to 14) (size 15 to 20)
#    0.000    1.091    2.727    2.727    1.273    5.091 
#    6.545    0.000    0.000    0.000    0.000    0.000 
#    0.000    0.000    0.000    0.000    0.000    0.000 
#
# Total GULP energy -122573.195139 kJ/mol
# GULP energy per Si atom -5571.508870 kJ/mol
# Density = 2.284554 g / cm^3
# Si number density = 22.897654 Si / 1000 Ang^3
#
#
#
# Elastic Constant Matrix: (Units=GPa)
#
#
# Indices 1 2 3 4 5 6 
#
# 1 171.5397 -0.2337 54.8839 0.0000 0.0000 0.0000
# 2 -0.2337 45.6431 -6.3204 0.0000 0.0000 0.0000
# 3 54.8839 -6.3204 147.8530 0.0000 0.0000 0.0000
# 4 0.0000 0.0000 0.0000 0.9108 0.0000 0.0000
# 5 0.0000 0.0000 0.0000 0.0000 27.7134 0.0000
# 6 0.0000 0.0000 0.0000 0.0000 0.0000 14.1190
#
#
#
# Elastic Compliance Matrix: (Units=1/GPa)
#
#
# Indices 1 2 3 4 5 6 
#
# 1 0.006620 -0.000308 -0.002470 0.000000 0.000000 0.000000
# 2 -0.000308 0.022054 0.001057 0.000000 0.000000 0.000000
# 3 -0.002470 0.001057 0.007726 0.000000 0.000000 0.000000
# 4 0.000000 0.000000 0.000000 1.097949 0.000000 0.000000
# 5 0.000000 0.000000 0.000000 0.000000 0.036084 0.000000
# 6 0.000000 0.000000 0.000000 0.000000 0.000000 0.070827
#
#
# Mechanical properties :
#
#
# Convention : Reuss Voigt Hill
#
# Bulk Modulus (GPa) = 30.34319 51.29950 40.82135
# Shear Modulus (GPa) = 3.98189 29.66236 16.82212
#
# Velocity S-wave (km/s) = 1.32014 3.60312 2.71341
# Velocity P-wave (km/s) = 3.95020 6.30574 5.26149
#
# Compressibility (1/GPa) = 0.03295632
#
# Stress axis : x y z
#
# Youngs Moduli (GPa) = 151.06811 45.34337 129.43830
#
# Poissons Ratio (x) = 0.01397 0.31976
# Poissons Ratio (y) = 0.04656 -0.13684
# Poissons Ratio (z) = 0.37320 -0.04793
#
# Static dielectric constant tensor:
#      x y z
#    x 1.876190 0.000000 0.000000 
#    y 0.000000 1.991580 0.000000 
#    z 0.000000 0.000000 1.883920 
# 
# From -- ./inp_files/25946.got.cif
#   From: 2010.05.17/outbox.cif.g08.bks.cpg/sg40_13_cif.got.tgz:25946.got - 2010.06.03 18:35:42.
