data_PCOD9364050
_publ_section_title
;
Structure prediction by ZEFSAII (Michael W. Deem and Ramdas Pophale) SiO2 
 PCOD9364050
Probable space group: A M A 2
;
_chemical_formula_sum "Si O2"
_cell_formula_units_Z 48
_cell_length_a 23.506479
_cell_length_b 8.905508
_cell_length_c 10.212655
_cell_angle_alpha 90.000000
_cell_angle_beta 90.000000
_cell_angle_gamma 90.000000
_cell_volume 2137.887957
_symmetry_space_group_name_H-M "A M A 2"
_symmetry_group_IT_number 40
_symmetry_cell_setting 'orthorhombic'
loop_
_space_group_symop_operation_xyz
x,y,z
-x,-y,z
1/2-x,y,z
1/2+x,-y,z
x,1/2+y,1/2+z
-x,1/2-y,1/2+z
1/2-x,1/2+y,1/2+z
1/2+x,1/2-y,1/2+z
loop_
_atom_site_type_symbol
_atom_site_label
_atom_site_fract_x
_atom_site_fract_y
_atom_site_fract_z
Si Si1 0.994460 0.319945 0.491120
Si Si2 0.688057 0.464821 0.004483
Si Si3 0.686454 0.869167 0.791119
Si Si4 0.433154 0.689357 0.761594
Si Si5 0.317284 0.822707 0.835324
Si Si6 0.598706 0.134799 0.339766
O O1 0.976744 0.273951 0.641252
O O2 0.943720 0.251897 0.404264
O O3 0.000000 0.500000 0.485551
O O4 0.046194 0.247326 0.405813
O O5 0.750000 0.517911 0.957367
O O6 0.688033 0.464129 0.158601
O O7 0.681720 0.295837 0.953766
O O8 0.636876 0.560425 0.951548
O O9 0.750000 0.817561 0.822003
O O10 0.643725 0.735921 0.764089
O O11 0.670078 0.007312 0.885719
O O12 0.369564 0.759407 0.745774
O O13 0.428343 0.507527 0.766828
O O14 0.250000 0.814392 0.791342
#
# Coordination Sequence:
#
# PCOD9364050 Si02
#       6
#     8   8   8   8   8   8
#     4  12  26  44  66  94 129 173 222 273 327 388
#     4   9  19  36  59  89 127 167 211 266 324 385
#     4  10  20  36  61  94 131 171 212 259 321 387
#     4  11  26  46  69  98 131 172 221 272 327 388
#     4   9  19  39  67  97 129 167 212 264 324 386
#     4  11  23  39  63  92 125 168 219 270 322 386
#
# _framework density 22.452065000000001
#
# number of rings (size 3 to 8) (size 9 to 14) (size 15 to 20)
#    0.000    1.667    0.000    4.000    0.000    8.667 
#    0.000    2.500    0.000    9.000    0.000    1.167 
#    0.000    0.000    0.000    0.000    0.000    0.000 
#
# Total GULP energy -133654.409984 kJ/mol
# GULP energy per Si atom -5568.933749 kJ/mol
# Density = 2.240096 g / cm^3
# Si number density = 22.452065 Si / 1000 Ang^3
#
#
#
# Elastic Constant Matrix: (Units=GPa)
#
#
# Indices 1 2 3 4 5 6 
#
# 1 117.0606 61.1124 34.9193 0.0000 0.0000 0.0000
# 2 61.1124 98.9671 30.9960 0.0000 0.0000 0.0000
# 3 34.9193 30.9960 59.2907 0.0000 0.0000 0.0000
# 4 0.0000 0.0000 0.0000 19.3220 0.0000 0.0000
# 5 0.0000 0.0000 0.0000 0.0000 30.9603 0.0000
# 6 0.0000 0.0000 0.0000 0.0000 0.0000 57.7777
#
#
#
# Elastic Compliance Matrix: (Units=1/GPa)
#
#
# Indices 1 2 3 4 5 6 
#
# 1 0.013459 -0.006969 -0.004283 0.000000 0.000000 0.000000
# 2 -0.006969 0.015692 -0.004099 0.000000 0.000000 0.000000
# 3 -0.004283 -0.004099 0.021531 0.000000 0.000000 0.000000
# 4 0.000000 0.000000 0.000000 0.051755 0.000000 0.000000
# 5 0.000000 0.000000 0.000000 0.000000 0.032299 0.000000
# 6 0.000000 0.000000 0.000000 0.000000 0.000000 0.017308
#
#
# Mechanical properties :
#
#
# Convention : Reuss Voigt Hill
#
# Bulk Modulus (GPa) = 50.05151 58.81932 54.43541
# Shear Modulus (GPa) = 26.39845 31.49803 28.94824
#
# Velocity S-wave (km/s) = 3.43267 3.74960 3.59463
# Velocity P-wave (km/s) = 6.16863 6.70825 6.44409
#
# Compressibility (1/GPa) = 0.01997942
#
# Stress axis : x y z
#
# Youngs Moduli (GPa) = 74.30193 63.72832 46.44413
#
# Poissons Ratio (x) = 0.44414 0.19892
# Poissons Ratio (y) = 0.51783 0.19036
# Poissons Ratio (z) = 0.31824 0.26120
#
# Static dielectric constant tensor:
#      x y z
#    x 1.898210 0.000000 0.000000 
#    y 0.000000 1.850850 0.000000 
#    z 0.000000 0.000000 1.834370 
# 
# From -- ./inp_files/13901.got.cif
#   From: 2010.05.17/outbox.cif.g08.bks.cpg/sg40_7_cif.got.tgz:13901.got - 2010.06.03 18:35:42.
