data_PCOD9364215
_publ_section_title
;
Structure prediction by ZEFSAII (Michael W. Deem and Ramdas Pophale) SiO2 
 PCOD9364215
Probable space group: A M A 2
;
_chemical_formula_sum "Si O2"
_cell_formula_units_Z 44
_cell_length_a 7.741793
_cell_length_b 7.584014
_cell_length_c 30.521229
_cell_angle_alpha 90.000000
_cell_angle_beta 90.000000
_cell_angle_gamma 90.000000
_cell_volume 1792.019365
_symmetry_space_group_name_H-M "A M A 2"
_symmetry_group_IT_number 40
_symmetry_cell_setting 'orthorhombic'
loop_
_space_group_symop_operation_xyz
x,y,z
-x,-y,z
1/2-x,y,z
1/2+x,-y,z
x,1/2+y,1/2+z
-x,1/2-y,1/2+z
1/2-x,1/2+y,1/2+z
1/2+x,1/2-y,1/2+z
loop_
_atom_site_type_symbol
_atom_site_label
_atom_site_fract_x
_atom_site_fract_y
_atom_site_fract_z
Si Si1 0.043244 0.792284 0.675060
Si Si2 0.955747 0.709168 0.080512
Si Si3 0.550412 0.794107 0.485624
Si Si4 0.445385 0.200434 0.892040
Si Si5 0.750000 0.750562 0.332383
Si Si6 0.448103 0.299402 0.771362
O O1 0.250000 0.769578 0.677222
O O2 0.980398 0.721733 0.627652
O O3 0.963938 0.715776 0.719013
O O4 0.000000 0.000000 0.675714
O O5 0.750000 0.725317 0.079739
O O6 0.000000 0.500000 0.080772
O O7 0.022337 0.781432 0.034352
O O8 0.750000 0.776424 0.474797
O O9 0.450222 0.716842 0.444538
O O10 0.500000 0.000000 0.487833
O O11 0.750000 0.764171 0.877773
O O12 0.596411 0.305658 0.867982
O O13 0.500000 0.000000 0.881671
O O14 0.596617 0.694960 0.296690
O O15 0.500000 0.500000 0.782667
O O16 0.250000 0.263414 0.783087
#
# Coordination Sequence:
#
# PCOD9364215 Si02
#       6
#     8   8   8   8   4   8
#     4  10  20  38  62  97 133 171 217 267 319 383
#     4   9  17  31  57  90 131 170 212 262 317 378
#     4  11  21  38  62  97 132 172 217 267 319 383
#     4  12  25  48  70  95 132 170 213 270 327 384
#     4  12  26  48  68  98 122 176 214 270 324 394
#     4  12  25  47  70  94 132 171 213 271 328 384
#
# _framework density 24.553308000000001
#
# number of rings (size 3 to 8) (size 9 to 14) (size 15 to 20)
#    0.000    1.091    3.636    4.364    0.000    3.636 
#    6.545    0.909    0.000    4.364    0.000    0.000 
#    0.000    0.000    0.000    0.000    0.000    0.000 
#
# Total GULP energy -122537.583253 kJ/mol
# GULP energy per Si atom -5569.890148 kJ/mol
# Density = 2.449742 g / cm^3
# Si number density = 24.553308 Si / 1000 Ang^3
#
#
#
# Elastic Constant Matrix: (Units=GPa)
#
#
# Indices 1 2 3 4 5 6 
#
# 1 246.4672 7.2296 71.9874 0.0000 0.0000 0.0000
# 2 7.2296 51.2837 12.1702 0.0000 0.0000 0.0000
# 3 71.9874 12.1702 234.5049 0.0000 0.0000 0.0000
# 4 0.0000 0.0000 0.0000 83.9758 0.0000 0.0000
# 5 0.0000 0.0000 0.0000 0.0000 443.3919 0.0000
# 6 0.0000 0.0000 0.0000 0.0000 0.0000 13.3906
#
#
#
# Elastic Compliance Matrix: (Units=1/GPa)
#
#
# Indices 1 2 3 4 5 6 
#
# 1 0.004462 -0.000308 -0.001354 0.000000 0.000000 0.000000
# 2 -0.000308 0.019764 -0.000931 0.000000 0.000000 0.000000
# 3 -0.001354 -0.000931 0.004728 0.000000 0.000000 0.000000
# 4 0.000000 0.000000 0.000000 0.011908 0.000000 0.000000
# 5 0.000000 0.000000 0.000000 0.000000 0.002255 0.000000
# 6 0.000000 0.000000 0.000000 0.000000 0.000000 0.074679
#
#
# Mechanical properties :
#
#
# Convention : Reuss Voigt Hill
#
# Bulk Modulus (GPa) = 42.07267 79.44779 60.76023
# Shear Modulus (GPa) = 38.19584 137.54291 87.86938
#
# Velocity S-wave (km/s) = 3.94843 7.49264 5.98873
# Velocity P-wave (km/s) = 6.16110 10.35763 8.52173
#
# Compressibility (1/GPa) = 0.02376840
#
# Stress axis : x y z
#
# Youngs Moduli (GPa) = 224.12784 50.59769 211.49802
#
# Poissons Ratio (x) = 0.01557 0.28630
# Poissons Ratio (y) = 0.06897 0.19695
# Poissons Ratio (z) = 0.30340 0.04712
#
# Static dielectric constant tensor:
#      x y z
#    x 1.765630 0.000000 0.000000 
#    y 0.000000 2.518530 0.000000 
#    z 0.000000 0.000000 2.013450 
# 
# From -- ./inp_files/25978.got.cif
#   From: 2010.05.17/outbox.cif.g08.bks.cpg/sg40_13_cif.got.tgz:25978.got - 2010.06.03 18:35:42.
