data_PCOD9364357
_publ_section_title
;
Structure prediction by ZEFSAII (Michael W. Deem and Ramdas Pophale) SiO2 
 PCOD9364357
Probable space group: A M A 2
;
_chemical_formula_sum "Si O2"
_cell_formula_units_Z 64
_cell_length_a 17.274921
_cell_length_b 15.961521
_cell_length_c 12.029521
_cell_angle_alpha 90.000000
_cell_angle_beta 90.000000
_cell_angle_gamma 90.000000
_cell_volume 3316.948116
_symmetry_space_group_name_H-M "A M A 2"
_symmetry_group_IT_number 40
_symmetry_cell_setting 'orthorhombic'
loop_
_space_group_symop_operation_xyz
x,y,z
-x,-y,z
1/2-x,y,z
1/2+x,-y,z
x,1/2+y,1/2+z
-x,1/2-y,1/2+z
1/2-x,1/2+y,1/2+z
1/2+x,1/2-y,1/2+z
loop_
_atom_site_type_symbol
_atom_site_label
_atom_site_fract_x
_atom_site_fract_y
_atom_site_fract_z
Si Si1 0.912847 0.975255 0.293790
Si Si2 0.417708 0.048964 0.049991
Si Si3 0.908223 0.826132 0.469547
Si Si4 0.589677 0.975977 0.620585
Si Si5 0.161082 0.483183 0.336024
Si Si6 0.567198 0.253499 0.557137
Si Si7 0.339709 0.286843 0.283878
Si Si8 0.840323 0.107323 0.459690
O O1 0.879616 0.958775 0.172435
O O2 0.921996 0.894432 0.371788
O O3 0.871883 0.049982 0.359804
O O4 0.000000 0.000000 0.271519
O O5 0.430430 0.148044 0.033097
O O6 0.500000 0.000000 0.041869
O O7 0.362283 0.009045 0.958802
O O8 0.880743 0.890176 0.565183
O O9 0.857000 0.760803 0.400302
O O10 0.981616 0.781137 0.527071
O O11 0.500000 0.000000 0.593674
O O12 0.603263 0.972001 0.750714
O O13 0.638601 0.051947 0.568224
O O14 0.250000 0.505945 0.312071
O O15 0.152278 0.384536 0.312645
O O16 0.601121 0.237374 0.682906
O O17 0.620050 0.196655 0.476578
O O18 0.250000 0.270341 0.249299
O O19 0.750000 0.117423 0.449673
#
# Coordination Sequence:
#
# PCOD9364357 Si02
#       8
#     8   8   8   8   8   8   8   8
#     4  10  20  41  61  90 130 165 211 264 323 395
#     4  11  25  43  64  92 129 175 217 263 329 401
#     4  11  21  38  67  96 125 168 218 269 327 388
#     4  11  20  39  66  94 126 164 216 272 324 391
#     4  11  24  43  62  89 129 170 213 266 331 399
#     4  12  22  41  67  97 128 168 221 279 321 397
#     4  11  24  42  64  96 136 173 220 273 333 401
#     4  11  21  36  64  97 126 162 211 272 328 381
#
# _framework density 19.294844000000001
#
# number of rings (size 3 to 8) (size 9 to 14) (size 15 to 20)
#    0.000    1.000    5.000    2.625    0.000    5.000 
#    0.000    1.250    0.000    0.000    0.000    0.000 
#    0.000    0.000    0.000    0.000    0.000    0.000 
#
# Total GULP energy -178429.067698 kJ/mol
# GULP energy per Si atom -5575.908366 kJ/mol
# Density = 1.925093 g / cm^3
# Si number density = 19.294844 Si / 1000 Ang^3
#
#
#
# Elastic Constant Matrix: (Units=GPa)
#
#
# Indices 1 2 3 4 5 6 
#
# 1 40.3589 33.7016 15.6715 0.0000 0.0000 0.0000
# 2 33.7016 121.1918 37.9006 0.0000 0.0000 0.0000
# 3 15.6715 37.9006 93.5701 0.0000 0.0000 0.0000
# 4 0.0000 0.0000 0.0000 28.6730 0.0000 0.0000
# 5 0.0000 0.0000 0.0000 0.0000 133.8358 0.0000
# 6 0.0000 0.0000 0.0000 0.0000 0.0000 16.4038
#
#
#
# Elastic Compliance Matrix: (Units=1/GPa)
#
#
# Indices 1 2 3 4 5 6 
#
# 1 0.032611 -0.008428 -0.002048 0.000000 0.000000 0.000000
# 2 -0.008428 0.011626 -0.003298 0.000000 0.000000 0.000000
# 3 -0.002048 -0.003298 0.012366 0.000000 0.000000 0.000000
# 4 0.000000 0.000000 0.000000 0.034876 0.000000 0.000000
# 5 0.000000 0.000000 0.000000 0.000000 0.007472 0.000000
# 6 0.000000 0.000000 0.000000 0.000000 0.000000 0.060962
#
#
# Mechanical properties :
#
#
# Convention : Reuss Voigt Hill
#
# Bulk Modulus (GPa) = 34.41685 47.74091 41.07888
# Shear Modulus (GPa) = 25.36200 46.97232 36.16716
#
# Velocity S-wave (km/s) = 3.62946 4.93937 4.33419
# Velocity P-wave (km/s) = 5.95315 7.57142 6.81052
#
# Compressibility (1/GPa) = 0.02905554
#
# Stress axis : x y z
#
# Youngs Moduli (GPa) = 30.66469 86.01105 80.86742
#
# Poissons Ratio (x) = 0.72491 0.16562
# Poissons Ratio (y) = 0.25844 0.26668
# Poissons Ratio (z) = 0.06280 0.28364
#
# Static dielectric constant tensor:
#      x y z
#    x 0.328810 0.000000 0.000000 
#    y 0.000000 1.669580 0.000000 
#    z 0.000000 0.000000 1.709870 
# 
# From -- ./inp_files/13130.got.cif
#   From: 2010.05.17/outbox.cif.g08.bks.cpg/sg40_7_cif.got.tgz:13130.got - 2010.06.03 18:35:42.
