data_PCOD9364770
_publ_section_title
;
Structure prediction by ZEFSAII (Michael W. Deem and Ramdas Pophale) SiO2 
 PCOD9364770
Probable space group: A M A 2
;
_chemical_formula_sum "Si O2"
_cell_formula_units_Z 64
_cell_length_a 21.984732
_cell_length_b 14.990588
_cell_length_c 9.133814
_cell_angle_alpha 90.000000
_cell_angle_beta 90.000000
_cell_angle_gamma 90.000000
_cell_volume 3010.176822
_symmetry_space_group_name_H-M "A M A 2"
_symmetry_group_IT_number 40
_symmetry_cell_setting 'orthorhombic'
loop_
_space_group_symop_operation_xyz
x,y,z
-x,-y,z
1/2-x,y,z
1/2+x,-y,z
x,1/2+y,1/2+z
-x,1/2-y,1/2+z
1/2-x,1/2+y,1/2+z
1/2+x,1/2-y,1/2+z
loop_
_atom_site_type_symbol
_atom_site_label
_atom_site_fract_x
_atom_site_fract_y
_atom_site_fract_z
Si Si1 0.495676 0.106004 0.862660
Si Si2 0.082721 0.236548 0.373023
Si Si3 0.604045 0.834470 0.058273
Si Si4 0.181450 0.010386 0.923455
Si Si5 0.180408 0.818441 0.411602
Si Si6 0.451991 0.081612 0.542705
Si Si7 0.179852 0.507403 0.072468
Si Si8 0.819293 0.182084 0.070436
O O1 0.555197 0.165969 0.837172
O O2 0.457929 0.111873 0.711763
O O3 0.500000 0.000000 0.888987
O O4 0.464061 0.150660 0.002049
O O5 0.108107 0.192417 0.226254
O O6 0.034832 0.165572 0.438731
O O7 0.133455 0.251795 0.496470
O O8 0.634926 0.755501 0.968112
O O9 0.636906 0.925286 0.010306
O O10 0.250000 0.042427 0.951400
O O11 0.172765 0.009632 0.748604
O O12 0.176716 0.910690 0.983846
O O13 0.250000 0.784943 0.423181
O O14 0.176935 0.907531 0.508061
O O15 0.168397 0.836155 0.240726
O O16 0.500000 0.000000 0.523505
O O17 0.381937 0.053039 0.513542
O O18 0.250000 0.539713 0.039834
O O19 0.750000 0.215804 0.058119
#
# Coordination Sequence:
#
# PCOD9364770 Si02
#       8
#     8   8   8   8   8   8   8   8
#     4  11  25  46  69  91 131 181 233 288 353 415
#     4  12  27  43  65 104 133 181 233 289 347 420
#     4  12  24  40  68  94 134 175 226 285 339 421
#     4  10  21  40  66  99 134 173 224 282 343 408
#     4  10  23  41  67  99 132 175 223 281 348 414
#     4  11  26  46  70  99 140 183 228 288 352 419
#     4  10  22  43  72  99 132 182 235 282 343 416
#     4  10  23  43  67  97 139 176 223 289 351 413
#
# _framework density 21.261209000000001
#
# number of rings (size 3 to 8) (size 9 to 14) (size 15 to 20)
#    0.000    1.250    1.250    3.375    8.750    3.000 
#    0.000    0.000    0.000    0.000    0.000    0.000 
#    0.000    0.000    0.000    0.000    0.000    0.000 
#
# Total GULP energy -178786.383867 kJ/mol
# GULP energy per Si atom -5587.074496 kJ/mol
# Density = 2.121282 g / cm^3
# Si number density = 21.261209 Si / 1000 Ang^3
#
#
#
# Elastic Constant Matrix: (Units=GPa)
#
#
# Indices 1 2 3 4 5 6 
#
# 1 71.5876 34.6827 31.9285 0.0000 0.0000 0.0000
# 2 34.6827 86.9113 28.7376 0.0000 0.0000 0.0000
# 3 31.9285 28.7376 55.3814 0.0000 0.0000 0.0000
# 4 0.0000 0.0000 0.0000 34.4707 0.0000 0.0000
# 5 0.0000 0.0000 0.0000 0.0000 21.2956 0.0000
# 6 0.0000 0.0000 0.0000 0.0000 0.0000 34.3671
#
#
#
# Elastic Compliance Matrix: (Units=1/GPa)
#
#
# Indices 1 2 3 4 5 6 
#
# 1 0.020567 -0.005175 -0.009172 0.000000 0.000000 0.000000
# 2 -0.005175 0.015191 -0.004899 0.000000 0.000000 0.000000
# 3 -0.009172 -0.004899 0.025887 0.000000 0.000000 0.000000
# 4 0.000000 0.000000 0.000000 0.029010 0.000000 0.000000
# 5 0.000000 0.000000 0.000000 0.000000 0.046958 0.000000
# 6 0.000000 0.000000 0.000000 0.000000 0.000000 0.029098
#
#
# Mechanical properties :
#
#
# Convention : Reuss Voigt Hill
#
# Bulk Modulus (GPa) = 43.19193 44.95308 44.07251
# Shear Modulus (GPa) = 23.48306 25.92878 24.70592
#
# Velocity S-wave (km/s) = 3.32701 3.49597 3.41254
# Velocity P-wave (km/s) = 5.92602 6.12249 6.02505
#
# Compressibility (1/GPa) = 0.02315247
#
# Stress axis : x y z
#
# Youngs Moduli (GPa) = 48.62253 65.82875 38.62977
#
# Poissons Ratio (x) = 0.34063 0.35431
# Poissons Ratio (y) = 0.25160 0.18926
# Poissons Ratio (z) = 0.44596 0.32252
#
# Static dielectric constant tensor:
#      x y z
#    x 1.833970 0.000000 0.000000 
#    y 0.000000 1.759800 0.000000 
#    z 0.000000 0.000000 1.722410 
# 
# From -- ./inp_files/8924.got.cif
#   From: 2010.05.17/outbox.cif.g08.bks.cpg/sg40_5_cif.got.tgz:8924.got - 2010.06.03 18:35:42.
