data_PCOD9364055
_publ_section_title
;
Structure prediction by ZEFSAII (Michael W. Deem and Ramdas Pophale) SiO2 
 PCOD9364055
Probable space group: A M A 2
;
_chemical_formula_sum "Si O2"
_cell_formula_units_Z 60
_cell_length_a 14.746086
_cell_length_b 5.373223
_cell_length_c 33.174030
_cell_angle_alpha 90.000000
_cell_angle_beta 90.000000
_cell_angle_gamma 90.000000
_cell_volume 2628.511374
_symmetry_space_group_name_H-M "A M A 2"
_symmetry_group_IT_number 40
_symmetry_cell_setting 'orthorhombic'
loop_
_space_group_symop_operation_xyz
x,y,z
-x,-y,z
1/2-x,y,z
1/2+x,-y,z
x,1/2+y,1/2+z
-x,1/2-y,1/2+z
1/2-x,1/2+y,1/2+z
1/2+x,1/2-y,1/2+z
loop_
_atom_site_type_symbol
_atom_site_label
_atom_site_fract_x
_atom_site_fract_y
_atom_site_fract_z
Si Si1 0.639184 0.392186 0.791000
Si Si2 0.105500 0.990808 0.652597
Si Si3 0.359976 0.105572 0.745325
Si Si4 0.943774 0.743669 0.010118
Si Si5 0.098384 0.109831 0.090957
Si Si6 0.638481 0.882390 0.384366
Si Si7 0.357747 0.120529 0.927806
Si Si8 0.250000 0.788660 0.101058
O O1 0.750000 0.399066 0.790433
O O2 0.609022 0.635329 0.765651
O O3 0.611578 0.382885 0.837582
O O4 0.610880 0.134077 0.770772
O O5 0.136647 0.729244 0.632421
O O6 0.111238 0.046274 0.699717
O O7 0.170398 0.183166 0.630932
O O8 0.000000 0.000000 0.640730
O O9 0.250000 0.113344 0.745214
O O10 0.877379 0.818661 0.974204
O O11 0.000000 0.500000 0.997878
O O12 0.905990 0.688147 0.055012
O O13 0.000000 0.000000 0.015878
O O14 0.169928 0.915317 0.074023
O O15 0.000000 0.000000 0.099338
O O16 0.750000 0.880387 0.385213
O O17 0.607480 0.642284 0.410170
O O18 0.607289 0.142176 0.403139
O O19 0.250000 0.112126 0.921994
#
# Coordination Sequence:
#
# PCOD9364055 Si02
#       8
#     8   8   8   8   8   8   8   4
#     4   9  18  33  57  91 125 172 218 279 332 406
#     4  12  25  44  69 100 141 185 234 297 363 428
#     4  10  21  34  59  90 129 171 231 276 340 414
#     4  11  25  45  67  94 136 176 224 280 346 416
#     4  11  26  46  71  99 140 189 239 297 361 433
#     4   9  17  33  58  91 131 164 219 276 335 393
#     4  10  20  36  62  96 127 168 218 277 328 407
#     4  12  26  46  74 102 136 186 244 292 360 438
#
# _framework density 22.826609000000001
#
# number of rings (size 3 to 8) (size 9 to 14) (size 15 to 20)
#    0.000    1.600    2.000    2.400    4.667    3.200 
#    0.000    0.000    0.000    8.000    0.000    0.000 
#    0.000    0.000    0.000    0.000    0.000    0.000 
#
# Total GULP energy -167034.288530 kJ/mol
# GULP energy per Si atom -5567.809618 kJ/mol
# Density = 2.277465 g / cm^3
# Si number density = 22.826609 Si / 1000 Ang^3
#
#
#
# Elastic Constant Matrix: (Units=GPa)
#
#
# Indices 1 2 3 4 5 6 
#
# 1 85.7258 24.4976 5.1473 0.0000 0.0000 0.0000
# 2 24.4976 147.3289 48.7869 0.0000 0.0000 0.0000
# 3 5.1473 48.7869 95.2545 0.0000 0.0000 0.0000
# 4 0.0000 0.0000 0.0000 32.4177 0.0000 0.0000
# 5 0.0000 0.0000 0.0000 0.0000 36.4375 0.0000
# 6 0.0000 0.0000 0.0000 0.0000 0.0000 19.2386
#
#
#
# Elastic Compliance Matrix: (Units=1/GPa)
#
#
# Indices 1 2 3 4 5 6 
#
# 1 0.012264 -0.002191 0.000460 0.000000 0.000000 0.000000
# 2 -0.002191 0.008565 -0.004269 0.000000 0.000000 0.000000
# 3 0.000460 -0.004269 0.012660 0.000000 0.000000 0.000000
# 4 0.000000 0.000000 0.000000 0.030847 0.000000 0.000000
# 5 0.000000 0.000000 0.000000 0.000000 0.027444 0.000000
# 6 0.000000 0.000000 0.000000 0.000000 0.000000 0.051979
#
#
# Mechanical properties :
#
#
# Convention : Reuss Voigt Hill
#
# Bulk Modulus (GPa) = 46.53724 53.90808 50.22266
# Shear Modulus (GPa) = 30.68943 34.27724 32.48334
#
# Velocity S-wave (km/s) = 3.67066 3.87930 3.77642
# Velocity P-wave (km/s) = 6.19650 6.61308 6.40818
#
# Compressibility (1/GPa) = 0.02148817
#
# Stress axis : x y z
#
# Youngs Moduli (GPa) = 81.54124 116.74841 78.99141
#
# Poissons Ratio (x) = 0.25584 -0.03631
# Poissons Ratio (y) = 0.17869 0.33718
# Poissons Ratio (z) = -0.03748 0.49835
#
# Static dielectric constant tensor:
#      x y z
#    x 1.860990 0.000000 0.000000 
#    y 0.000000 2.012000 0.000000 
#    z 0.000000 0.000000 1.869980 
# 
# From -- ./inp_files/26681.got.cif
#   From: 2010.05.17/outbox.cif.g08.bks.cpg/sg40_14_cif.got.tgz:26681.got - 2010.06.03 18:35:42.
