data_PCOD9364075
_publ_section_title
;
Structure prediction by ZEFSAII (Michael W. Deem and Ramdas Pophale) SiO2 
 PCOD9364075
Probable space group: A M A 2
;
_chemical_formula_sum "Si O2"
_cell_formula_units_Z 64
_cell_length_a 18.034003
_cell_length_b 20.701465
_cell_length_c 9.268840
_cell_angle_alpha 90.000000
_cell_angle_beta 90.000000
_cell_angle_gamma 90.000000
_cell_volume 3460.338650
_symmetry_space_group_name_H-M "A M A 2"
_symmetry_group_IT_number 40
_symmetry_cell_setting 'orthorhombic'
loop_
_space_group_symop_operation_xyz
x,y,z
-x,-y,z
1/2-x,y,z
1/2+x,-y,z
x,1/2+y,1/2+z
-x,1/2-y,1/2+z
1/2-x,1/2+y,1/2+z
1/2+x,1/2-y,1/2+z
loop_
_atom_site_type_symbol
_atom_site_label
_atom_site_fract_x
_atom_site_fract_y
_atom_site_fract_z
Si Si1 0.922980 0.036648 0.018560
Si Si2 0.108564 0.703790 0.326140
Si Si3 0.835887 0.417892 0.488628
Si Si4 0.839834 0.056703 0.320033
Si Si5 0.661913 0.409734 0.817434
Si Si6 0.914539 0.670587 0.002323
Si Si7 0.590537 0.795530 0.495826
Si Si8 0.934854 0.666688 0.334604
O O1 0.876095 0.056676 0.160175
O O2 0.931050 0.099883 0.921313
O O3 0.000000 0.000000 0.057485
O O4 0.878171 0.980956 0.934777
O O5 0.152764 0.643761 0.390090
O O6 0.120826 0.766616 0.424996
O O7 0.021872 0.684588 0.331468
O O8 0.121184 0.713708 0.157039
O O9 0.750000 0.434148 0.502547
O O10 0.865250 0.403833 0.651244
O O11 0.750000 0.067247 0.315912
O O12 0.882755 0.108708 0.417545
O O13 0.853333 0.982641 0.370332
O O14 0.750000 0.402223 0.813485
O O15 0.629343 0.354191 0.914992
O O16 0.902210 0.663171 0.173365
O O17 0.003225 0.684262 0.992400
O O18 0.600931 0.727606 0.415452
#
# Coordination Sequence:
#
# PCOD9364075 Si02
#       8
#     8   8   8   8   8   8   8   8
#     4  11  21  37  64  88 118 156 200 240 292 347
#     4  10  20  37  57  87 116 153 197 246 292 347
#     4  10  21  37  58  85 120 157 193 237 291 352
#     4  10  23  41  59  89 123 155 198 242 291 356
#     4   9  20  38  57  82 116 153 192 238 289 346
#     4  10  22  37  61  85 119 157 193 246 298 344
#     4  10  21  36  61  86 117 148 203 248 289 348
#     4  10  21  39  57  90 117 149 200 250 289 346
#
# _framework density 18.495298999999999
#
# number of rings (size 3 to 8) (size 9 to 14) (size 15 to 20)
#    0.000    2.000    1.250    2.625    3.500    4.000 
#    0.000    5.625    0.000    0.000    0.000    0.000 
#    0.000    0.000    0.000    0.000    0.000    0.000 
#
# Total GULP energy -178444.874752 kJ/mol
# GULP energy per Si atom -5576.402336 kJ/mol
# Density = 1.845320 g / cm^3
# Si number density = 18.495299 Si / 1000 Ang^3
#
#
#
# Elastic Constant Matrix: (Units=GPa)
#
#
# Indices 1 2 3 4 5 6 
#
# 1 36.2398 35.2402 28.5640 0.0000 0.0000 0.0000
# 2 35.2402 145.0301 77.8624 0.0000 0.0000 0.0000
# 3 28.5640 77.8624 97.7508 0.0000 0.0000 0.0000
# 4 0.0000 0.0000 0.0000 36.6366 0.0000 0.0000
# 5 0.0000 0.0000 0.0000 0.0000 19.4251 0.0000
# 6 0.0000 0.0000 0.0000 0.0000 0.0000 26.9574
#
#
#
# Elastic Compliance Matrix: (Units=1/GPa)
#
#
# Indices 1 2 3 4 5 6 
#
# 1 0.038440 -0.005783 -0.006626 0.000000 0.000000 0.000000
# 2 -0.005783 0.012917 -0.008599 0.000000 0.000000 0.000000
# 3 -0.006626 -0.008599 0.019016 0.000000 0.000000 0.000000
# 4 0.000000 0.000000 0.000000 0.027295 0.000000 0.000000
# 5 0.000000 0.000000 0.000000 0.000000 0.051480 0.000000
# 6 0.000000 0.000000 0.000000 0.000000 0.000000 0.037096
#
#
# Mechanical properties :
#
#
# Convention : Reuss Voigt Hill
#
# Bulk Modulus (GPa) = 35.26539 62.48377 48.87458
# Shear Modulus (GPa) = 21.03388 25.76078 23.39733
#
# Velocity S-wave (km/s) = 3.37598 3.73611 3.56060
# Velocity P-wave (km/s) = 5.85704 7.24350 6.58685
#
# Compressibility (1/GPa) = 0.02835642
#
# Stress axis : x y z
#
# Youngs Moduli (GPa) = 26.01437 77.41882 52.58795
#
# Poissons Ratio (x) = 0.44770 0.34847
# Poissons Ratio (y) = 0.15044 0.45220
# Poissons Ratio (z) = 0.17238 0.66571
#
# Static dielectric constant tensor:
#      x y z
#    x 1.645000 0.000000 0.000000 
#    y 0.000000 1.620560 0.000000 
#    z 0.000000 0.000000 1.636770 
# 
# From -- ./inp_files/7791.got.cif
#   From: 2010.05.17/outbox.cif.g08.bks.cpg/sg40_4_cif.got.tgz:7791.got - 2010.06.03 18:35:42.
