data_PCOD9364826
_publ_section_title
;
Structure prediction by ZEFSAII (Michael W. Deem and Ramdas Pophale) SiO2 
 PCOD9364826
Probable space group: A M A 2
;
_chemical_formula_sum "Si O2"
_cell_formula_units_Z 64
_cell_length_a 8.395526
_cell_length_b 31.751868
_cell_length_c 12.246210
_cell_angle_alpha 90.000000
_cell_angle_beta 90.000000
_cell_angle_gamma 90.000000
_cell_volume 3264.516694
_symmetry_space_group_name_H-M "A M A 2"
_symmetry_group_IT_number 40
_symmetry_cell_setting 'orthorhombic'
loop_
_space_group_symop_operation_xyz
x,y,z
-x,-y,z
1/2-x,y,z
1/2+x,-y,z
x,1/2+y,1/2+z
-x,1/2-y,1/2+z
1/2-x,1/2+y,1/2+z
1/2+x,1/2-y,1/2+z
loop_
_atom_site_type_symbol
_atom_site_label
_atom_site_fract_x
_atom_site_fract_y
_atom_site_fract_z
Si Si1 0.438100 0.567424 0.117530
Si Si2 0.056512 0.872844 0.249700
Si Si3 0.440746 0.545021 0.359493
Si Si4 0.941486 0.297389 0.898664
Si Si5 0.561328 0.544786 0.881880
Si Si6 0.443562 0.297407 0.348895
Si Si7 0.440194 0.338206 0.119911
Si Si8 0.442531 0.375102 0.496979
O O1 0.250000 0.559235 0.110375
O O2 0.498880 0.550418 0.233950
O O3 0.471954 0.617190 0.117440
O O4 0.517352 0.549119 0.009216
O O5 0.250000 0.871478 0.254676
O O6 0.000990 0.914121 0.316860
O O7 0.991725 0.830953 0.306961
O O8 0.008069 0.875782 0.123310
O O9 0.500000 0.500000 0.401717
O O10 0.250000 0.545665 0.357809
O O11 0.499706 0.584175 0.430883
O O12 0.750000 0.297568 0.908246
O O13 0.996588 0.250019 0.872087
O O14 0.016497 0.312776 0.011867
O O15 0.500000 0.500000 0.839726
O O16 0.750000 0.544971 0.871872
O O17 0.250000 0.296893 0.352595
O O18 0.488098 0.313109 0.228465
O O19 0.497368 0.332543 0.435794
O O20 0.250000 0.346034 0.123308
O O21 0.250000 0.375359 0.494390
#
# Coordination Sequence:
#
# PCOD9364826 Si02
#       8
#     8   8   8   8   8   8   8   8
#     4  11  22  38  61  92 124 156 198 248 304 359
#     4  10  23  41  62  88 119 161 205 248 301 358
#     4  11  24  40  61  91 123 156 200 247 300 360
#     4  11  23  39  61  91 125 161 203 249 299 357
#     4  11  23  39  60  88 121 157 202 249 302 361
#     4   9  21  39  61  89 121 160 201 246 301 355
#     4  11  21  38  63  90 122 160 201 248 305 358
#     4  10  21  42  65  85 118 161 204 251 301 355
#
# _framework density 19.604738000000001
#
# number of rings (size 3 to 8) (size 9 to 14) (size 15 to 20)
#    0.000    1.500    2.500    2.250    1.750    4.000 
#    0.000    4.375    0.000    0.000    0.000    0.000 
#    0.000    0.000    0.000    0.000    0.000    0.000 
#
# Total GULP energy -178861.148027 kJ/mol
# GULP energy per Si atom -5589.410876 kJ/mol
# Density = 1.956012 g / cm^3
# Si number density = 19.604738 Si / 1000 Ang^3
#
#
#
# Elastic Constant Matrix: (Units=GPa)
#
#
# Indices 1 2 3 4 5 6 
#
# 1 18.0201 6.8713 12.3637 0.0000 0.0000 0.0000
# 2 6.8713 177.0122 69.9010 0.0000 0.0000 0.0000
# 3 12.3637 69.9010 137.2075 0.0000 0.0000 0.0000
# 4 0.0000 0.0000 0.0000 38.6010 0.0000 0.0000
# 5 0.0000 0.0000 0.0000 0.0000 -78.3673 0.0000
# 6 0.0000 0.0000 0.0000 0.0000 0.0000 21.3304
#
#
#
# Elastic Compliance Matrix: (Units=1/GPa)
#
#
# Indices 1 2 3 4 5 6 
#
# 1 0.059159 -0.000240 -0.005209 0.000000 0.000000 0.000000
# 2 -0.000240 0.007073 -0.003582 0.000000 0.000000 0.000000
# 3 -0.005209 -0.003582 0.009582 0.000000 0.000000 0.000000
# 4 0.000000 0.000000 0.000000 0.025906 0.000000 0.000000
# 5 0.000000 0.000000 0.000000 0.000000 -0.012760 0.000000
# 6 0.000000 0.000000 0.000000 0.000000 0.000000 0.046881
#
#
# Mechanical properties :
#
#
# Convention : Reuss Voigt Hill
#
# Bulk Modulus (GPa) = 17.31483 56.72354 37.01918
# Shear Modulus (GPa) = 28.87623 12.51973 20.69798
#
# Velocity S-wave (km/s) = 3.84203 2.52981 3.25278
# Velocity P-wave (km/s) = 5.34160 6.12614 5.74728
#
# Compressibility (1/GPa) = 0.05775396
#
# Stress axis : x y z
#
# Youngs Moduli (GPa) = 16.90368 141.38138 104.35835
#
# Poissons Ratio (x) = 0.03386 0.54358
# Poissons Ratio (y) = 0.00405 0.37379
# Poissons Ratio (z) = 0.08805 0.50640
#
# Static dielectric constant tensor:
#      x y z
#    x 1.680340 0.000000 0.000000 
#    y 0.000000 1.671370 0.000000 
#    z 0.000000 0.000000 1.669700 
# 
# From -- ./inp_files/10565.got.cif
#   From: 2010.05.17/outbox.cif.g08.bks.cpg/sg40_6_cif.got.tgz:10565.got - 2010.06.03 18:35:42.
