data_PCOD9364083
_publ_section_title
;
Structure prediction by ZEFSAII (Michael W. Deem and Ramdas Pophale) SiO2 
 PCOD9364083
Probable space group: A M A 2
;
_chemical_formula_sum "Si O2"
_cell_formula_units_Z 60
_cell_length_a 14.670473
_cell_length_b 21.970329
_cell_length_c 9.483337
_cell_angle_alpha 90.000000
_cell_angle_beta 90.000000
_cell_angle_gamma 90.000000
_cell_volume 3056.622888
_symmetry_space_group_name_H-M "A M A 2"
_symmetry_group_IT_number 40
_symmetry_cell_setting 'orthorhombic'
loop_
_space_group_symop_operation_xyz
x,y,z
-x,-y,z
1/2-x,y,z
1/2+x,-y,z
x,1/2+y,1/2+z
-x,1/2-y,1/2+z
1/2-x,1/2+y,1/2+z
1/2+x,1/2-y,1/2+z
loop_
_atom_site_type_symbol
_atom_site_label
_atom_site_fract_x
_atom_site_fract_y
_atom_site_fract_z
Si Si1 0.586771 0.544874 0.387410
Si Si2 0.501732 0.674527 0.356611
Si Si3 0.000000 0.500000 0.861483
Si Si4 0.853282 0.011187 0.577233
Si Si5 0.148484 0.033377 0.135986
Si Si6 0.356050 0.633662 0.122412
Si Si7 0.852102 0.778988 0.355574
Si Si8 0.150578 0.166381 0.053287
O O1 0.500000 0.500000 0.380674
O O2 0.555390 0.614019 0.401814
O O3 0.634875 0.535978 0.236141
O O4 0.638706 0.522329 0.527085
O O5 0.432236 0.653857 0.233820
O O6 0.574008 0.727077 0.329807
O O7 0.433583 0.696990 0.478209
O O8 0.930111 0.466811 0.753888
O O9 0.930561 0.534442 0.968509
O O10 0.750000 0.023881 0.529989
O O11 0.866397 0.937773 0.585440
O O12 0.250000 0.033965 0.200204
O O13 0.141552 0.093674 0.039656
O O14 0.250000 0.640262 0.171513
O O15 0.368181 0.677397 0.988339
O O16 0.750000 0.752242 0.371033
O O17 0.851560 0.820889 0.218131
O O18 0.250000 0.185775 0.999590
#
# Coordination Sequence:
#
# PCOD9364083 Si02
#       8
#     8   8   4   8   8   8   8   8
#     4  12  21  38  57  89 122 151 189 241 285 351
#     4  12  21  36  60  85 116 150 186 233 294 337
#     4  12  20  34  52  84 116 142 192 236 292 346
#     4  11  22  37  59  84 115 154 194 243 294 336
#     4  11  22  37  59  84 115 154 194 243 294 336
#     4  10  20  37  59  83 109 142 193 243 279 330
#     4  10  23  38  54  81 116 152 187 227 284 347
#     4  10  20  37  59  83 109 142 193 243 279 330
#
# _framework density 19.629505999999999
#
# number of rings (size 3 to 8) (size 9 to 14) (size 15 to 20)
#    0.000    1.067    4.000    2.800    0.000    5.333 
#    0.000    0.000    0.000    0.000    0.000   11.200 
#    0.000    0.000    0.000    0.000    0.000    0.000 
#
# Total GULP energy -167439.666149 kJ/mol
# GULP energy per Si atom -5581.322205 kJ/mol
# Density = 1.958483 g / cm^3
# Si number density = 19.629506 Si / 1000 Ang^3
#
#
#
# Elastic Constant Matrix: (Units=GPa)
#
#
# Indices 1 2 3 4 5 6 
#
# 1 130.9322 25.6539 34.7544 0.0000 0.0000 0.0000
# 2 25.6539 59.9622 2.1442 0.0000 0.0000 0.0000
# 3 34.7544 2.1442 68.5916 0.0000 0.0000 0.0000
# 4 0.0000 0.0000 0.0000 17.4363 0.0000 0.0000
# 5 0.0000 0.0000 0.0000 0.0000 31.9663 0.0000
# 6 0.0000 0.0000 0.0000 0.0000 0.0000 90.1706
#
#
#
# Elastic Compliance Matrix: (Units=1/GPa)
#
#
# Indices 1 2 3 4 5 6 
#
# 1 0.009686 -0.003973 -0.004783 0.000000 0.000000 0.000000
# 2 -0.003973 0.018325 0.001440 0.000000 0.000000 0.000000
# 3 -0.004783 0.001440 0.016958 0.000000 0.000000 0.000000
# 4 0.000000 0.000000 0.000000 0.057352 0.000000 0.000000
# 5 0.000000 0.000000 0.000000 0.000000 0.031283 0.000000
# 6 0.000000 0.000000 0.000000 0.000000 0.000000 0.011090
#
#
# Mechanical properties :
#
#
# Convention : Reuss Voigt Hill
#
# Bulk Modulus (GPa) = 32.96352 42.73232 37.84792
# Shear Modulus (GPa) = 29.50936 41.04354 35.27645
#
# Velocity S-wave (km/s) = 3.88147 4.57761 4.24384
# Velocity P-wave (km/s) = 6.07594 7.05379 6.58305
#
# Compressibility (1/GPa) = 0.03033657
#
# Stress axis : x y z
#
# Youngs Moduli (GPa) = 103.24574 54.56913 58.97031
#
# Poissons Ratio (x) = 0.21679 0.28208
# Poissons Ratio (y) = 0.41017 -0.08492
# Poissons Ratio (z) = 0.49386 -0.07859
#
# Static dielectric constant tensor:
#      x y z
#    x 1.724500 0.000000 0.000000 
#    y 0.000000 1.631530 0.000000 
#    z 0.000000 0.000000 1.721970 
# 
# From -- ./inp_files/6858.got.cif
#   From: 2010.05.17/outbox.cif.g08.bks.cpg/sg40_4_cif.got.tgz:6858.got - 2010.06.03 18:35:42.
