data_PCOD9364678
_publ_section_title
;
Structure prediction by ZEFSAII (Michael W. Deem and Ramdas Pophale) SiO2 
 PCOD9364678
Probable space group: A M A 2
;
_chemical_formula_sum "Si O2"
_cell_formula_units_Z 60
_cell_length_a 28.490383
_cell_length_b 7.518274
_cell_length_c 12.442385
_cell_angle_alpha 90.000000
_cell_angle_beta 90.000000
_cell_angle_gamma 90.000000
_cell_volume 2665.140275
_symmetry_space_group_name_H-M "A M A 2"
_symmetry_group_IT_number 40
_symmetry_cell_setting 'orthorhombic'
loop_
_space_group_symop_operation_xyz
x,y,z
-x,-y,z
1/2-x,y,z
1/2+x,-y,z
x,1/2+y,1/2+z
-x,1/2-y,1/2+z
1/2-x,1/2+y,1/2+z
1/2+x,1/2-y,1/2+z
loop_
_atom_site_type_symbol
_atom_site_label
_atom_site_fract_x
_atom_site_fract_y
_atom_site_fract_z
Si Si1 0.979098 0.197859 0.800230
Si Si2 0.694890 0.422971 0.668692
Si Si3 0.949939 0.285050 0.469766
Si Si4 0.697357 0.508594 0.901795
Si Si5 0.801315 0.086344 0.936709
Si Si6 0.000000 0.500000 0.628881
Si Si7 0.870684 0.607544 0.091523
Si Si8 0.610373 0.978512 0.802261
O O1 0.996493 0.331033 0.707824
O O2 0.923616 0.155004 0.804729
O O3 0.000000 0.000000 0.781226
O O4 0.000745 0.264101 0.914020
O O5 0.750000 0.360699 0.678522
O O6 0.685000 0.532722 0.776976
O O7 0.692117 0.538659 0.561209
O O8 0.657424 0.264337 0.654478
O O9 0.957974 0.459489 0.544559
O O10 0.921986 0.153613 0.545957
O O11 0.918093 0.330325 0.366952
O O12 0.750000 0.578072 0.922372
O O13 0.698219 0.296372 0.918546
O O14 0.661346 0.578572 0.988222
O O15 0.750000 0.018608 0.903189
O O16 0.842429 0.004683 0.867658
O O17 0.877347 0.451455 0.177858
#
# Coordination Sequence:
#
# PCOD9364678 Si02
#       8
#     8   8   8   8   8   4   8   8
#     4  10  24  45  65 100 136 170 227 280 335 409
#     4  10  21  40  63  90 130 172 219 270 320 394
#     4  11  24  44  64  99 136 165 225 288 327 408
#     4  10  23  41  61  94 135 170 220 275 320 395
#     4  10  21  39  63  92 128 174 216 268 332 384
#     4  12  22  48  76  90 134 184 214 286 354 388
#     4  12  23  38  67  96 126 172 220 262 342 392
#     4  11  21  41  65  93 130 169 214 271 328 400
#
# _framework density 22.512886000000002
#
# number of rings (size 3 to 8) (size 9 to 14) (size 15 to 20)
#    0.000    1.333    6.000    0.400    0.000    3.733 
#    6.000    0.000    0.000    0.000    0.000    0.000 
#    0.000    0.000    0.000    0.000    0.000    0.000 
#
# Total GULP energy -167461.794790 kJ/mol
# GULP energy per Si atom -5582.059826 kJ/mol
# Density = 2.246165 g / cm^3
# Si number density = 22.512886 Si / 1000 Ang^3
#
#
#
# Elastic Constant Matrix: (Units=GPa)
#
#
# Indices 1 2 3 4 5 6 
#
# 1 80.6727 -3.1814 38.3993 0.0000 0.0000 0.0000
# 2 -3.1814 22.1024 10.1996 0.0000 0.0000 0.0000
# 3 38.3993 10.1996 136.2518 0.0000 0.0000 0.0000
# 4 0.0000 0.0000 0.0000 38.0206 0.0000 0.0000
# 5 0.0000 0.0000 0.0000 0.0000 24.8388 0.0000
# 6 0.0000 0.0000 0.0000 0.0000 0.0000 36.7559
#
#
#
# Elastic Compliance Matrix: (Units=1/GPa)
#
#
# Indices 1 2 3 4 5 6 
#
# 1 0.014677 0.004165 -0.004448 0.000000 0.000000 0.000000
# 2 0.004165 0.048045 -0.004770 0.000000 0.000000 0.000000
# 3 -0.004448 -0.004770 0.008950 0.000000 0.000000 0.000000
# 4 0.000000 0.000000 0.000000 0.026302 0.000000 0.000000
# 5 0.000000 0.000000 0.000000 0.000000 0.040260 0.000000
# 6 0.000000 0.000000 0.000000 0.000000 0.000000 0.027207
#
#
# Mechanical properties :
#
#
# Convention : Reuss Voigt Hill
#
# Bulk Modulus (GPa) = 16.24284 36.65133 26.44708
# Shear Modulus (GPa) = 25.50128 32.83035 29.16581
#
# Velocity S-wave (km/s) = 3.36927 3.82290 3.60323
# Velocity P-wave (km/s) = 4.72933 5.98344 5.39297
#
# Compressibility (1/GPa) = 0.06156558
#
# Stress axis : x y z
#
# Youngs Moduli (GPa) = 68.13208 20.81388 111.73052
#
# Poissons Ratio (x) = -0.08670 0.49701
# Poissons Ratio (y) = -0.28380 0.53301
# Poissons Ratio (z) = 0.30307 0.09929
#
# Static dielectric constant tensor:
#      x y z
#    x 1.923360 0.000000 0.000000 
#    y 0.000000 1.855460 0.000000 
#    z 0.000000 0.000000 1.844050 
# 
# From -- ./inp_files/14244.got.cif
#   From: 2010.05.17/outbox.cif.g08.bks.cpg/sg40_8_cif.got.tgz:14244.got - 2010.06.03 18:35:42.
