data_PCOD9364601
_publ_section_title
;
Structure prediction by ZEFSAII (Michael W. Deem and Ramdas Pophale) SiO2 
 PCOD9364601
Probable space group: A M A 2
;
_chemical_formula_sum "Si O2"
_cell_formula_units_Z 64
_cell_length_a 8.415276
_cell_length_b 31.593485
_cell_length_c 12.251199
_cell_angle_alpha 90.000000
_cell_angle_beta 90.000000
_cell_angle_gamma 90.000000
_cell_volume 3257.200503
_symmetry_space_group_name_H-M "A M A 2"
_symmetry_group_IT_number 40
_symmetry_cell_setting 'orthorhombic'
loop_
_space_group_symop_operation_xyz
x,y,z
-x,-y,z
1/2-x,y,z
1/2+x,-y,z
x,1/2+y,1/2+z
-x,1/2-y,1/2+z
1/2-x,1/2+y,1/2+z
1/2+x,1/2-y,1/2+z
loop_
_atom_site_type_symbol
_atom_site_label
_atom_site_fract_x
_atom_site_fract_y
_atom_site_fract_z
Si Si1 0.443685 0.374273 0.953000
Si Si2 0.562236 0.068422 0.839477
Si Si3 0.558085 0.045440 0.596421
Si Si4 0.441669 0.795168 0.052863
Si Si5 0.937525 0.337269 0.334453
Si Si6 0.563286 0.454707 0.573312
Si Si7 0.941155 0.701943 0.110982
Si Si8 0.558769 0.126570 0.203559
O O1 0.250000 0.375520 0.951279
O O2 0.499902 0.374941 0.828205
O O3 0.496338 0.415205 0.022407
O O4 0.487663 0.331457 0.016529
O O5 0.750000 0.059869 0.849518
O O6 0.504574 0.051715 0.722065
O O7 0.532024 0.118657 0.839755
O O8 0.477228 0.049715 0.945078
O O9 0.750000 0.046161 0.597466
O O10 0.500000 0.000000 0.555998
O O11 0.250000 0.794957 0.048228
O O12 0.503304 0.749067 0.084481
O O13 0.493114 0.831216 0.139567
O O14 0.510742 0.809022 0.936589
O O15 0.750000 0.346219 0.339691
O O16 0.981365 0.314046 0.222727
O O17 0.500000 0.500000 0.612607
O O18 0.750000 0.453082 0.588129
O O19 0.488911 0.415004 0.636442
O O20 0.750000 0.700624 0.121747
O O21 0.750000 0.127890 0.207021
#
# Coordination Sequence:
#
# PCOD9364601 Si02
#       8
#     8   8   8   8   8   8   8   8
#     4   9  20  41  64  88 121 166 207 253 313 371
#     4  11  21  39  64  92 127 163 205 261 320 373
#     4  10  21  38  61  89 123 159 202 251 310 372
#     4  11  24  41  64  96 130 165 210 264 319 376
#     4  12  24  40  65  95 129 168 212 260 315 376
#     4  12  25  41  63  92 126 164 210 259 314 377
#     4  11  23  42  67  94 129 168 210 261 317 378
#     4  10  22  42  66  88 123 166 209 259 315 375
#
# _framework density 19.648774
#
# number of rings (size 3 to 8) (size 9 to 14) (size 15 to 20)
#    0.000    1.250    2.500    3.750    1.750    3.000 
#    0.000    3.125    0.000    0.000    0.000    0.000 
#    0.000    0.000    0.000    0.000    0.000    0.000 
#
# Total GULP energy -178944.779877 kJ/mol
# GULP energy per Si atom -5592.024371 kJ/mol
# Density = 1.960405 g / cm^3
# Si number density = 19.648774 Si / 1000 Ang^3
#
#
#
# Elastic Constant Matrix: (Units=GPa)
#
#
# Indices 1 2 3 4 5 6 
#
# 1 18.6287 -4.8064 8.1441 0.0000 0.0000 0.0000
# 2 -4.8064 156.6524 59.6569 0.0000 0.0000 0.0000
# 3 8.1441 59.6569 134.9636 0.0000 0.0000 0.0000
# 4 0.0000 0.0000 0.0000 34.3660 0.0000 0.0000
# 5 0.0000 0.0000 0.0000 0.0000 7.9966 0.0000
# 6 0.0000 0.0000 0.0000 0.0000 0.0000 28.0337
#
#
#
# Elastic Compliance Matrix: (Units=1/GPa)
#
#
# Indices 1 2 3 4 5 6 
#
# 1 0.056835 0.003667 -0.005051 0.000000 0.000000 0.000000
# 2 0.003667 0.007912 -0.003719 0.000000 0.000000 0.000000
# 3 -0.005051 -0.003719 0.009358 0.000000 0.000000 0.000000
# 4 0.000000 0.000000 0.000000 0.029099 0.000000 0.000000
# 5 0.000000 0.000000 0.000000 0.000000 0.125053 0.000000
# 6 0.000000 0.000000 0.000000 0.000000 0.000000 0.035671
#
#
# Mechanical properties :
#
#
# Convention : Reuss Voigt Hill
#
# Bulk Modulus (GPa) = 15.64925 48.47042 32.05984
# Shear Modulus (GPa) = 16.92435 30.56261 23.74348
#
# Velocity S-wave (km/s) = 2.93805 3.94819 3.47997
# Velocity P-wave (km/s) = 4.41490 6.74583 5.70077
#
# Compressibility (1/GPa) = 0.06390081
#
# Stress axis : x y z
#
# Youngs Moduli (GPa) = 17.59487 126.38661 106.86156
#
# Poissons Ratio (x) = -0.46348 0.53971
# Poissons Ratio (y) = -0.06452 0.39738
# Poissons Ratio (z) = 0.08886 0.46999
#
# Static dielectric constant tensor:
#      x y z
#    x 1.667360 0.000000 0.000000 
#    y 0.000000 1.625000 0.000000 
#    z 0.000000 0.000000 1.683610 
# 
# From -- ./inp_files/10699.got.cif
#   From: 2010.05.17/outbox.cif.g08.bks.cpg/sg40_6_cif.got.tgz:10699.got - 2010.06.03 18:35:42.
