data_PCOD9364660
_publ_section_title
;
Structure prediction by ZEFSAII (Michael W. Deem and Ramdas Pophale) SiO2 
 PCOD9364660
Probable space group: A M A 2
;
_chemical_formula_sum "Si O2"
_cell_formula_units_Z 56
_cell_length_a 9.870801
_cell_length_b 26.917514
_cell_length_c 9.724815
_cell_angle_alpha 90.000000
_cell_angle_beta 90.000000
_cell_angle_gamma 90.000000
_cell_volume 2583.858295
_symmetry_space_group_name_H-M "A M A 2"
_symmetry_group_IT_number 40
_symmetry_cell_setting 'orthorhombic'
loop_
_space_group_symop_operation_xyz
x,y,z
-x,-y,z
1/2-x,y,z
1/2+x,-y,z
x,1/2+y,1/2+z
-x,1/2-y,1/2+z
1/2-x,1/2+y,1/2+z
1/2+x,1/2-y,1/2+z
loop_
_atom_site_type_symbol
_atom_site_label
_atom_site_fract_x
_atom_site_fract_y
_atom_site_fract_z
Si Si1 0.403873 0.431306 0.035590
Si Si2 0.594242 0.543175 0.727088
Si Si3 0.093527 0.348132 0.680984
Si Si4 0.905443 0.757345 0.719817
Si Si5 0.396547 0.822203 0.580076
Si Si6 0.511027 0.653935 0.373820
Si Si7 0.911879 0.453401 0.293785
O O1 0.250000 0.436037 0.094908
O O2 0.423755 0.372815 0.999359
O O3 0.521339 0.445829 0.141462
O O4 0.401913 0.460015 0.892725
O O5 0.500000 0.500000 0.671833
O O6 0.750000 0.539955 0.675712
O O7 0.532194 0.597463 0.699183
O O8 0.250000 0.354128 0.724143
O O9 0.039972 0.297814 0.751691
O O10 0.083241 0.338787 0.517762
O O11 0.750000 0.751413 0.681369
O O12 0.916739 0.798458 0.839691
O O13 0.988710 0.781258 0.593616
O O14 0.250000 0.801922 0.541201
O O15 0.394563 0.842680 0.738578
O O16 0.440507 0.599817 0.366431
O O17 0.750000 0.462544 0.290427
O O18 0.000000 0.500000 0.350075
#
# Coordination Sequence:
#
# PCOD9364660 Si02
#       7
#     8   8   8   8   8   8   8
#     4   9  18  34  58  85 114 152 196 239 287 341
#     4  10  22  40  59  82 115 153 196 240 287 343
#     4  10  21  39  62  86 114 155 195 233 290 353
#     4   9  19  36  58  84 114 146 185 233 284 337
#     4   8  16  31  55  84 115 146 184 230 280 335
#     4   9  20  36  60  81 116 146 192 237 284 336
#     4  11  22  36  57  88 120 155 196 241 293 344
#
# _framework density 21.673016000000001
#
# number of rings (size 3 to 8) (size 9 to 14) (size 15 to 20)
#    0.857    1.714    0.000    1.714    0.000    5.143 
#    0.000    6.429    0.000    0.000    0.000    0.000 
#    0.000    0.000    0.000    0.000    0.000    0.000 
#
# Total GULP energy -155922.467638 kJ/mol
# GULP energy per Si atom -5568.659558 kJ/mol
# Density = 2.162369 g / cm^3
# Si number density = 21.673016 Si / 1000 Ang^3
#
#
#
# Elastic Constant Matrix: (Units=GPa)
#
#
# Indices 1 2 3 4 5 6 
#
# 1 103.8223 58.5827 7.2362 0.0000 0.0000 0.0000
# 2 58.5827 191.2860 10.6414 0.0000 0.0000 0.0000
# 3 7.2362 10.6414 54.8342 0.0000 0.0000 0.0000
# 4 0.0000 0.0000 0.0000 22.7576 0.0000 0.0000
# 5 0.0000 0.0000 0.0000 0.0000 12.0455 0.0000
# 6 0.0000 0.0000 0.0000 0.0000 0.0000 27.7024
#
#
#
# Elastic Compliance Matrix: (Units=1/GPa)
#
#
# Indices 1 2 3 4 5 6 
#
# 1 0.011684 -0.003531 -0.000857 0.000000 0.000000 0.000000
# 2 -0.003531 0.006352 -0.000767 0.000000 0.000000 0.000000
# 3 -0.000857 -0.000767 0.018499 0.000000 0.000000 0.000000
# 4 0.000000 0.000000 0.000000 0.043941 0.000000 0.000000
# 5 0.000000 0.000000 0.000000 0.000000 0.083018 0.000000
# 6 0.000000 0.000000 0.000000 0.000000 0.000000 0.036098
#
#
# Mechanical properties :
#
#
# Convention : Reuss Voigt Hill
#
# Bulk Modulus (GPa) = 38.12999 55.87368 47.00183
# Shear Modulus (GPa) = 22.86848 30.73326 26.80087
#
# Velocity S-wave (km/s) = 3.25185 3.76978 3.52035
# Velocity P-wave (km/s) = 5.63301 6.69213 6.18528
#
# Compressibility (1/GPa) = 0.02622608
#
# Stress axis : x y z
#
# Youngs Moduli (GPa) = 85.58930 157.43851 54.05803
#
# Poissons Ratio (x) = 0.55585 0.04631
# Poissons Ratio (y) = 0.30218 0.04145
# Poissons Ratio (z) = 0.07332 0.12071
#
# Static dielectric constant tensor:
#      x y z
#    x 1.756860 0.000000 0.000000 
#    y 0.000000 1.869460 0.000000 
#    z 0.000000 0.000000 1.820460 
# 
# From -- ./inp_files/11449.got.cif
#   From: 2010.05.17/outbox.cif.g08.bks.cpg/sg40_6_cif.got.tgz:11449.got - 2010.06.03 18:35:42.
