data_PCOD9364541
_publ_section_title
;
Structure prediction by ZEFSAII (Michael W. Deem and Ramdas Pophale) SiO2 
 PCOD9364541
Probable space group: A M A 2
;
_chemical_formula_sum "Si O2"
_cell_formula_units_Z 64
_cell_length_a 26.316024
_cell_length_b 6.607623
_cell_length_c 17.796863
_cell_angle_alpha 90.000000
_cell_angle_beta 90.000000
_cell_angle_gamma 90.000000
_cell_volume 3094.631823
_symmetry_space_group_name_H-M "A M A 2"
_symmetry_group_IT_number 40
_symmetry_cell_setting 'orthorhombic'
loop_
_space_group_symop_operation_xyz
x,y,z
-x,-y,z
1/2-x,y,z
1/2+x,-y,z
x,1/2+y,1/2+z
-x,1/2-y,1/2+z
1/2-x,1/2+y,1/2+z
1/2+x,1/2-y,1/2+z
loop_
_atom_site_type_symbol
_atom_site_label
_atom_site_fract_x
_atom_site_fract_y
_atom_site_fract_z
Si Si1 0.600733 0.512303 0.571680
Si Si2 0.127942 0.626355 0.805692
Si Si3 0.127943 0.373644 0.159610
Si Si4 0.691834 0.730901 0.823646
Si Si5 0.036111 0.332355 0.809507
Si Si6 0.691834 0.269099 0.141655
Si Si7 0.100733 0.512303 0.393621
Si Si8 0.536111 0.332356 0.155794
O O1 0.601842 0.287718 0.605334
O O2 0.652444 0.619632 0.601325
O O3 0.599035 0.499999 0.482650
O O4 0.555138 0.650186 0.604168
O O5 0.144764 0.749999 0.732651
O O6 0.173599 0.497947 0.840937
O O7 0.086298 0.456986 0.784339
O O8 0.101842 0.787717 0.859967
O O9 0.173599 0.502052 0.124365
O O10 0.086298 0.543013 0.180962
O O11 0.750000 0.768397 0.844857
O O12 0.688091 0.749999 0.732651
O O13 0.652444 0.880371 0.863975
O O14 0.055138 0.150186 0.861133
O O15 0.011281 0.249999 0.732651
O O16 0.000000 0.500000 0.846076
O O17 0.750000 0.231603 0.120444
O O18 0.500000 0.500000 0.119225
#
# Coordination Sequence:
#
# PCOD9364541 Si02
#       8
#     8   8   8   8   8   8   8   8
#     4  11  24  42  62  91 131 168 202 258 325 373
#     4  11  19  39  64  89 119 164 209 251 308 370
#     4  11  19  39  64  89 119 164 209 251 308 370
#     4  10  21  37  62  97 127 164 222 265 303 372
#     4  11  23  39  67  93 115 155 212 258 305 379
#     4  10  21  37  62  97 127 164 222 265 303 372
#     4  11  24  42  62  91 131 168 202 258 325 373
#     4  11  23  39  67  93 115 155 212 258 305 379
#
# _framework density 20.680973000000002
#
# number of rings (size 3 to 8) (size 9 to 14) (size 15 to 20)
#    0.000    1.250    5.000    2.250    0.000    6.000 
#    0.000    5.000    0.000    0.000    0.000    0.000 
#    0.000    0.000    0.000    0.000    0.000    0.000 
#
# Total GULP energy -178831.159475 kJ/mol
# GULP energy per Si atom -5588.473734 kJ/mol
# Density = 2.063390 g / cm^3
# Si number density = 20.680973 Si / 1000 Ang^3
#
#
#
# Elastic Constant Matrix: (Units=GPa)
#
#
# Indices 1 2 3 4 5 6 
#
# 1 80.1671 22.5139 9.2202 0.0000 0.0000 0.0000
# 2 22.5139 120.4436 39.5104 0.0000 0.0000 0.0000
# 3 9.2202 39.5104 103.9686 0.0000 0.0000 0.0000
# 4 0.0000 0.0000 0.0000 19.8779 0.0000 0.0000
# 5 0.0000 0.0000 0.0000 0.0000 6.4908 0.0000
# 6 0.0000 0.0000 0.0000 0.0000 0.0000 27.5970
#
#
#
# Elastic Compliance Matrix: (Units=1/GPa)
#
#
# Indices 1 2 3 4 5 6 
#
# 1 0.013171 -0.002375 -0.000266 0.000000 0.000000 0.000000
# 2 -0.002375 0.009913 -0.003557 0.000000 0.000000 0.000000
# 3 -0.000266 -0.003557 0.010993 0.000000 0.000000 0.000000
# 4 0.000000 0.000000 0.000000 0.050307 0.000000 0.000000
# 5 0.000000 0.000000 0.000000 0.000000 0.154064 0.000000
# 6 0.000000 0.000000 0.000000 0.000000 0.000000 0.036236
#
#
# Mechanical properties :
#
#
# Convention : Reuss Voigt Hill
#
# Bulk Modulus (GPa) = 46.11717 49.67425 47.89571
# Shear Modulus (GPa) = 16.98903 26.34879 21.66891
#
# Velocity S-wave (km/s) = 2.86926 3.57327 3.24044
# Velocity P-wave (km/s) = 5.77275 6.41060 6.10002
#
# Compressibility (1/GPa) = 0.02168390
#
# Stress axis : x y z
#
# Youngs Moduli (GPa) = 75.92167 100.87448 90.96325
#
# Poissons Ratio (x) = 0.23957 0.02415
# Poissons Ratio (y) = 0.18031 0.32353
# Poissons Ratio (z) = 0.02016 0.35878
#
# Static dielectric constant tensor:
#      x y z
#    x 1.769810 0.000000 0.000000 
#    y 0.000000 1.771000 0.000000 
#    z 0.000000 0.000000 1.728370 
# 
# From -- ./inp_files/21685.got.cif
#   From: 2010.05.17/outbox.cif.g08.bks.cpg/sg40_11_cif.got.tgz:21685.got - 2010.06.03 18:35:42.
