data_PCOD9364721
_publ_section_title
;
Structure prediction by ZEFSAII (Michael W. Deem and Ramdas Pophale) SiO2 
 PCOD9364721
Probable space group: A M A 2
;
_chemical_formula_sum "Si O2"
_cell_formula_units_Z 64
_cell_length_a 20.756157
_cell_length_b 5.272514
_cell_length_c 25.898815
_cell_angle_alpha 90.000000
_cell_angle_beta 90.000000
_cell_angle_gamma 90.000000
_cell_volume 2834.291942
_symmetry_space_group_name_H-M "A M A 2"
_symmetry_group_IT_number 40
_symmetry_cell_setting 'orthorhombic'
loop_
_space_group_symop_operation_xyz
x,y,z
-x,-y,z
1/2-x,y,z
1/2+x,-y,z
x,1/2+y,1/2+z
-x,1/2-y,1/2+z
1/2-x,1/2+y,1/2+z
1/2+x,1/2-y,1/2+z
loop_
_atom_site_type_symbol
_atom_site_label
_atom_site_fract_x
_atom_site_fract_y
_atom_site_fract_z
Si Si1 0.066272 0.366328 0.345970
Si Si2 0.177683 0.383923 0.975459
Si Si3 0.176969 0.101783 0.791163
Si Si4 0.682863 0.267770 0.695485
Si Si5 0.565337 0.634329 0.573663
Si Si6 0.925159 0.000993 0.249830
Si Si7 0.360694 0.874588 0.591925
Si Si8 0.399433 0.371079 0.456973
O O1 0.134826 0.513297 0.340203
O O2 0.074440 0.141053 0.305350
O O3 0.058410 0.318243 0.406382
O O4 0.000000 0.500000 0.328240
O O5 0.250000 0.320139 0.959674
O O6 0.155066 0.654020 0.953847
O O7 0.130152 0.154133 0.960005
O O8 0.174450 0.421302 0.037580
O O9 0.250000 0.200964 0.801885
O O10 0.123100 0.269496 0.762277
O O11 0.186032 0.877416 0.749909
O O12 0.750000 0.423683 0.692343
O O13 0.612738 0.386889 0.701246
O O14 0.679408 0.100761 0.644231
O O15 0.500000 0.500000 0.590788
O O16 0.618438 0.420110 0.586486
O O17 0.564158 0.667732 0.511270
O O18 0.583429 0.911671 0.594689
O O19 0.000000 0.000000 0.235879
#
# Coordination Sequence:
#
# PCOD9364721 Si02
#       8
#     8   8   8   8   8   8   8   8
#     4  11  23  42  65  94 126 171 222 269 332 404
#     4  10  21  40  61  92 133 168 216 274 329 389
#     4  10  23  43  64  92 129 165 212 274 331 393
#     4  10  23  42  64  93 128 172 221 271 334 405
#     4  10  21  41  59  92 132 168 214 276 330 390
#     4  11  23  42  67  95 128 169 218 280 336 395
#     4  10  22  39  64  93 125 172 221 266 329 398
#     4  10  23  38  64  93 125 173 218 268 329 397
#
# _framework density 22.580594999999999
#
# number of rings (size 3 to 8) (size 9 to 14) (size 15 to 20)
#    0.000    1.750    1.250    1.875    3.500    2.000 
#    2.250    2.500    0.000    0.000    0.000    0.000 
#    0.000    0.000    0.000    0.000    0.000    0.000 
#
# Total GULP energy -178199.879727 kJ/mol
# GULP energy per Si atom -5568.746241 kJ/mol
# Density = 2.252920 g / cm^3
# Si number density = 22.580595 Si / 1000 Ang^3
#
#
#
# Elastic Constant Matrix: (Units=GPa)
#
#
# Indices 1 2 3 4 5 6 
#
# 1 149.2231 9.0757 11.1948 0.0000 0.0000 0.0000
# 2 9.0757 49.1007 1.7637 0.0000 0.0000 0.0000
# 3 11.1948 1.7637 87.9406 0.0000 0.0000 0.0000
# 4 0.0000 0.0000 0.0000 7.5618 0.0000 0.0000
# 5 0.0000 0.0000 0.0000 0.0000 9.0896 0.0000
# 6 0.0000 0.0000 0.0000 0.0000 0.0000 88.5823
#
#
#
# Elastic Compliance Matrix: (Units=1/GPa)
#
#
# Indices 1 2 3 4 5 6 
#
# 1 0.006840 -0.001234 -0.000846 0.000000 0.000000 0.000000
# 2 -0.001234 0.020604 -0.000256 0.000000 0.000000 0.000000
# 3 -0.000846 -0.000256 0.011484 0.000000 0.000000 0.000000
# 4 0.000000 0.000000 0.000000 0.132244 0.000000 0.000000
# 5 0.000000 0.000000 0.000000 0.000000 0.110016 0.000000
# 6 0.000000 0.000000 0.000000 0.000000 0.000000 0.011289
#
#
# Mechanical properties :
#
#
# Convention : Reuss Voigt Hill
#
# Bulk Modulus (GPa) = 29.19230 36.70364 32.94797
# Shear Modulus (GPa) = 16.20397 38.66210 27.43304
#
# Velocity S-wave (km/s) = 2.68172 4.14234 3.48931
# Velocity P-wave (km/s) = 4.74815 6.25847 5.55488
#
# Compressibility (1/GPa) = 0.03425561
#
# Stress axis : x y z
#
# Youngs Moduli (GPa) = 146.20130 48.53527 87.07663
#
# Poissons Ratio (x) = 0.05989 0.07366
# Poissons Ratio (y) = 0.18039 0.02230
# Poissons Ratio (z) = 0.12368 0.01243
#
# Static dielectric constant tensor:
#      x y z
#    x 1.944790 0.000000 0.000000 
#    y 0.000000 1.960750 0.000000 
#    z 0.000000 0.000000 1.871280 
# 
# From -- ./inp_files/25858.got.cif
#   From: 2010.05.17/outbox.cif.g08.bks.cpg/sg40_13_cif.got.tgz:25858.got - 2010.06.03 18:35:42.
