data_PCOD9364001
_publ_section_title
;
Structure prediction by ZEFSAII (Michael W. Deem and Ramdas Pophale) SiO2 
 PCOD9364001
Probable space group: A M A 2
;
_chemical_formula_sum "Si O2"
_cell_formula_units_Z 40
_cell_length_a 18.974592
_cell_length_b 11.169326
_cell_length_c 9.000065
_cell_angle_alpha 90.000000
_cell_angle_beta 90.000000
_cell_angle_gamma 90.000000
_cell_volume 1907.414410
_symmetry_space_group_name_H-M "A M A 2"
_symmetry_group_IT_number 40
_symmetry_cell_setting 'orthorhombic'
loop_
_space_group_symop_operation_xyz
x,y,z
-x,-y,z
1/2-x,y,z
1/2+x,-y,z
x,1/2+y,1/2+z
-x,1/2-y,1/2+z
1/2-x,1/2+y,1/2+z
1/2+x,1/2-y,1/2+z
loop_
_atom_site_type_symbol
_atom_site_label
_atom_site_fract_x
_atom_site_fract_y
_atom_site_fract_z
Si Si1 0.437767 0.368012 0.635910
Si Si2 0.041127 0.758645 0.435608
Si Si3 0.912429 0.921494 0.371748
Si Si4 0.831800 0.684962 0.383144
Si Si5 0.167398 0.897117 0.570894
O O1 0.502687 0.350070 0.519967
O O2 0.572821 0.513637 0.737058
O O3 0.369870 0.353156 0.533250
O O4 0.446974 0.260839 0.757690
O O5 0.114607 0.794721 0.509963
O O6 0.983630 0.867825 0.445244
O O7 0.870542 0.803690 0.324114
O O8 0.862536 0.987360 0.488446
O O9 0.750000 0.708000 0.407640
O O10 0.839709 0.592309 0.248120
O O11 0.250000 0.875150 0.538000
#
# Coordination Sequence:
#
# PCOD9364001 Si02
#       5
#     8   8   8   8   8
#     4  10  20  36  61  85 115 155 195 242 297 348
#     4  10  20  37  59  88 117 150 200 247 291 351
#     4  10  21  40  63  84 114 158 200 245 299 349
#     4  10  22  39  59  88 122 155 198 246 291 352
#     4  10  20  36  59  85 117 154 191 238 295 352
#
# _framework density 20.970797000000001
#
# number of rings (size 3 to 8) (size 9 to 14) (size 15 to 20)
#    0.000    2.000    0.000    5.400    0.000    4.000 
#    0.000   20.000    0.000    9.600    0.000    0.000 
#    0.000    0.000    0.000    0.000    0.000    0.000 
#
# Total GULP energy -111488.934399 kJ/mol
# GULP energy per Si atom -5574.446720 kJ/mol
# Density = 2.092307 g / cm^3
# Si number density = 20.970797 Si / 1000 Ang^3
#
#
#
# Elastic Constant Matrix: (Units=GPa)
#
#
# Indices 1 2 3 4 5 6 
#
# 1 167.1079 29.6826 72.4514 0.0000 0.0000 0.0000
# 2 29.6826 78.5181 50.0630 0.0000 0.0000 0.0000
# 3 72.4514 50.0630 141.5594 0.0000 0.0000 0.0000
# 4 0.0000 0.0000 0.0000 42.0913 0.0000 0.0000
# 5 0.0000 0.0000 0.0000 0.0000 37.1098 0.0000
# 6 0.0000 0.0000 0.0000 0.0000 0.0000 25.7969
#
#
#
# Elastic Compliance Matrix: (Units=1/GPa)
#
#
# Indices 1 2 3 4 5 6 
#
# 1 0.007707 -0.000515 -0.003762 0.000000 0.000000 0.000000
# 2 -0.000515 0.016478 -0.005564 0.000000 0.000000 0.000000
# 3 -0.003762 -0.005564 0.010958 0.000000 0.000000 0.000000
# 4 0.000000 0.000000 0.000000 0.023758 0.000000 0.000000
# 5 0.000000 0.000000 0.000000 0.000000 0.026947 0.000000
# 6 0.000000 0.000000 0.000000 0.000000 0.000000 0.038764
#
#
# Mechanical properties :
#
#
# Convention : Reuss Voigt Hill
#
# Bulk Modulus (GPa) = 64.68212 76.84215 70.76214
# Shear Modulus (GPa) = 33.45650 36.66547 35.06099
#
# Velocity S-wave (km/s) = 3.99856 4.18593 4.09332
# Velocity P-wave (km/s) = 7.22695 7.75143 7.49378
#
# Compressibility (1/GPa) = 0.01546022
#
# Stress axis : x y z
#
# Youngs Moduli (GPa) = 129.75556 60.68634 91.26051
#
# Poissons Ratio (x) = 0.03122 0.34336
# Poissons Ratio (y) = 0.06676 0.50780
# Poissons Ratio (z) = 0.48820 0.33767
#
# Static dielectric constant tensor:
#      x y z
#    x 1.764450 0.000000 0.000000 
#    y 0.000000 1.804900 0.000000 
#    z 0.000000 0.000000 1.763210 
# 
# From -- ./inp_files/1723.got.cif
#   From: 2010.05.17/outbox.cif.g08.bks.cpg/sg40_1_cif.got.tgz:1723.got - 2010.06.03 18:35:42.
