data_PCOD9364643
_publ_section_title
;
Structure prediction by ZEFSAII (Michael W. Deem and Ramdas Pophale) SiO2 
 PCOD9364643
Probable space group: A M A 2
;
_chemical_formula_sum "Si O2"
_cell_formula_units_Z 56
_cell_length_a 8.303773
_cell_length_b 20.844605
_cell_length_c 15.812461
_cell_angle_alpha 90.000000
_cell_angle_beta 90.000000
_cell_angle_gamma 90.000000
_cell_volume 2736.960978
_symmetry_space_group_name_H-M "A M A 2"
_symmetry_group_IT_number 40
_symmetry_cell_setting 'orthorhombic'
loop_
_space_group_symop_operation_xyz
x,y,z
-x,-y,z
1/2-x,y,z
1/2+x,-y,z
x,1/2+y,1/2+z
-x,1/2-y,1/2+z
1/2-x,1/2+y,1/2+z
1/2+x,1/2-y,1/2+z
loop_
_atom_site_type_symbol
_atom_site_label
_atom_site_fract_x
_atom_site_fract_y
_atom_site_fract_z
Si Si1 0.946415 0.786162 0.376150
Si Si2 0.935745 0.426863 0.457186
Si Si3 0.443542 0.072470 0.432320
Si Si4 0.938391 0.741980 0.188105
Si Si5 0.567250 0.070573 0.790880
Si Si6 0.436218 0.114404 0.621488
Si Si7 0.938313 0.695572 0.536074
O O1 0.750000 0.785911 0.377208
O O2 0.997994 0.861326 0.385498
O O3 0.992514 0.757273 0.284058
O O4 0.994301 0.742760 0.458019
O O5 0.750000 0.425965 0.481408
O O6 0.000000 0.500000 0.460216
O O7 0.955045 0.398698 0.361476
O O8 0.041788 0.377908 0.509030
O O9 0.250000 0.071705 0.426111
O O10 0.484604 0.087583 0.530624
O O11 0.500000 0.000000 0.409472
O O12 0.750000 0.722882 0.192878
O O13 0.043785 0.689951 0.136444
O O14 0.959043 0.799166 0.121958
O O15 0.750000 0.074753 0.820727
O O16 0.550584 0.091874 0.695899
O O17 0.500000 0.000000 0.787967
O O18 0.250000 0.095749 0.636442
O O19 0.750000 0.708973 0.550061
#
# Coordination Sequence:
#
# PCOD9364643 Si02
#       7
#     8   8   8   8   8   8   8
#     4   9  20  40  62  85 121 166 205 253 318 376
#     4  11  22  38  59  87 119 157 203 250 305 370
#     4  10  21  39  60  85 118 163 207 257 318 377
#     4  11  22  37  61  90 118 155 208 261 313 377
#     4  11  21  34  52  80 117 156 195 239 298 365
#     4  11  21  36  57  83 118 157 201 253 315 378
#     4  11  21  40  64  88 122 163 202 252 316 375
#
# _framework density 20.460649
#
# number of rings (size 3 to 8) (size 9 to 14) (size 15 to 20)
#    0.000    1.429    1.429    6.000    0.000    3.429 
#    0.000    4.286    0.000    1.714    0.000    0.000 
#    0.000    0.000    0.000    0.000    0.000    0.000 
#
# Total GULP energy -155977.200857 kJ/mol
# GULP energy per Si atom -5570.614316 kJ/mol
# Density = 2.041408 g / cm^3
# Si number density = 20.460649 Si / 1000 Ang^3
#
#
#
# Elastic Constant Matrix: (Units=GPa)
#
#
# Indices 1 2 3 4 5 6 
#
# 1 50.9402 11.7222 10.4703 0.0000 0.0000 0.0000
# 2 11.7222 90.4519 23.5008 0.0000 0.0000 0.0000
# 3 10.4703 23.5008 79.3753 0.0000 0.0000 0.0000
# 4 0.0000 0.0000 0.0000 37.3074 0.0000 0.0000
# 5 0.0000 0.0000 0.0000 0.0000 10.4230 0.0000
# 6 0.0000 0.0000 0.0000 0.0000 0.0000 24.4360
#
#
#
# Elastic Compliance Matrix: (Units=1/GPa)
#
#
# Indices 1 2 3 4 5 6 
#
# 1 0.020547 -0.002122 -0.002082 0.000000 0.000000 0.000000
# 2 -0.002122 0.012196 -0.003331 0.000000 0.000000 0.000000
# 3 -0.002082 -0.003331 0.013859 0.000000 0.000000 0.000000
# 4 0.000000 0.000000 0.000000 0.026804 0.000000 0.000000
# 5 0.000000 0.000000 0.000000 0.000000 0.095942 0.000000
# 6 0.000000 0.000000 0.000000 0.000000 0.000000 0.040923
#
#
# Mechanical properties :
#
#
# Convention : Reuss Voigt Hill
#
# Bulk Modulus (GPa) = 31.71341 34.68377 33.19859
# Shear Modulus (GPa) = 21.19969 26.10488 23.65228
#
# Velocity S-wave (km/s) = 3.22237 3.57579 3.40367
# Velocity P-wave (km/s) = 5.42017 5.83409 5.63094
#
# Compressibility (1/GPa) = 0.03153241
#
# Stress axis : x y z
#
# Youngs Moduli (GPa) = 48.66867 81.99387 72.15395
#
# Poissons Ratio (x) = 0.17398 0.15023
# Poissons Ratio (y) = 0.10327 0.24035
# Poissons Ratio (z) = 0.10133 0.27312
#
# Static dielectric constant tensor:
#      x y z
#    x 1.666080 0.000000 0.000000 
#    y 0.000000 1.387920 0.000000 
#    z 0.000000 0.000000 1.998080 
# 
# From -- ./inp_files/15326.got.cif
#   From: 2010.05.17/outbox.cif.g08.bks.cpg/sg40_8_cif.got.tgz:15326.got - 2010.06.03 18:35:42.
