data_PCOD9364552
_publ_section_title
;
Structure prediction by ZEFSAII (Michael W. Deem and Ramdas Pophale) SiO2 
 PCOD9364552
Probable space group: A M A 2
;
_chemical_formula_sum "Si O2"
_cell_formula_units_Z 48
_cell_length_a 14.348799
_cell_length_b 12.051819
_cell_length_c 12.099867
_cell_angle_alpha 90.000000
_cell_angle_beta 90.000000
_cell_angle_gamma 90.000000
_cell_volume 2092.419454
_symmetry_space_group_name_H-M "A M A 2"
_symmetry_group_IT_number 40
_symmetry_cell_setting 'orthorhombic'
loop_
_space_group_symop_operation_xyz
x,y,z
-x,-y,z
1/2-x,y,z
1/2+x,-y,z
x,1/2+y,1/2+z
-x,1/2-y,1/2+z
1/2-x,1/2+y,1/2+z
1/2+x,1/2-y,1/2+z
loop_
_atom_site_type_symbol
_atom_site_label
_atom_site_fract_x
_atom_site_fract_y
_atom_site_fract_z
Si Si1 0.750000 0.550542 0.349460
Si Si2 0.450954 0.618191 0.760138
Si Si3 0.250000 0.724493 0.713485
Si Si4 0.250000 0.386544 0.992450
Si Si5 0.054235 0.826993 0.471276
Si Si6 0.951535 0.832798 0.679325
Si Si7 0.750000 0.399667 0.128911
Si Si8 0.425079 0.575747 0.423856
O O1 0.750000 0.677900 0.308466
O O2 0.750000 0.476646 0.238275
O O3 0.663127 0.503687 0.416852
O O4 0.500000 0.500000 0.741478
O O5 0.344086 0.649869 0.727216
O O6 0.469637 0.645279 0.890165
O O7 0.516190 0.709117 0.702659
O O8 0.250000 0.797590 0.597322
O O9 0.250000 0.511948 0.032357
O O10 0.153346 0.371132 0.928942
O O11 0.075165 0.695887 0.477800
O O12 0.027074 0.875425 0.590604
O O13 0.846984 0.835100 0.632880
O O14 0.952425 0.895395 0.796336
O O15 0.500000 0.500000 0.481385
#
# Coordination Sequence:
#
# PCOD9364552 Si02
#       8
#     4   8   4   4   8   8   4   8
#     4   9  17  36  65  94 121 163 216 275 326 376
#     4  11  26  43  68 100 142 182 221 281 349 414
#     4  11  22  47  69  99 134 183 229 275 347 415
#     4  11  23  41  70 100 131 183 230 289 346 399
#     4  11  24  40  65 100 136 174 230 283 334 415
#     4  10  22  42  63  97 131 175 230 280 334 407
#     4   9  22  34  68  95 126 169 227 285 335 388
#     4  10  21  37  64  94 127 169 216 278 331 391
#
# _framework density 22.939951000000001
#
# number of rings (size 3 to 8) (size 9 to 14) (size 15 to 20)
#    0.000    1.667    1.667    2.500    7.000    4.667 
#    0.000    0.833    0.000    0.000    0.000    0.000 
#    0.000    0.000    0.000    0.000    0.000    0.000 
#
# Total GULP energy -133955.962166 kJ/mol
# GULP energy per Si atom -5581.498424 kJ/mol
# Density = 2.288774 g / cm^3
# Si number density = 22.939951 Si / 1000 Ang^3
#
#
#
# Elastic Constant Matrix: (Units=GPa)
#
#
# Indices 1 2 3 4 5 6 
#
# 1 160.1362 73.7785 7.8761 0.0000 0.0000 0.0000
# 2 73.7785 140.5271 -2.7780 0.0000 0.0000 0.0000
# 3 7.8761 -2.7780 58.5121 0.0000 0.0000 0.0000
# 4 0.0000 0.0000 0.0000 4.3209 0.0000 0.0000
# 5 0.0000 0.0000 0.0000 0.0000 74.5949 0.0000
# 6 0.0000 0.0000 0.0000 0.0000 0.0000 35.0656
#
#
#
# Elastic Compliance Matrix: (Units=1/GPa)
#
#
# Indices 1 2 3 4 5 6 
#
# 1 0.008340 -0.004405 -0.001332 0.000000 0.000000 0.000000
# 2 -0.004405 0.009449 0.001042 0.000000 0.000000 0.000000
# 3 -0.001332 0.001042 0.017319 0.000000 0.000000 0.000000
# 4 0.000000 0.000000 0.000000 0.231435 0.000000 0.000000
# 5 0.000000 0.000000 0.000000 0.000000 0.013406 0.000000
# 6 0.000000 0.000000 0.000000 0.000000 0.000000 0.028518
#
#
# Mechanical properties :
#
#
# Convention : Reuss Voigt Hill
#
# Bulk Modulus (GPa) = 38.88295 57.43652 48.15973
# Shear Modulus (GPa) = 15.31728 41.48286 28.40007
#
# Velocity S-wave (km/s) = 2.58682 4.25705 3.52237
# Velocity P-wave (km/s) = 5.09007 7.01822 6.13043
#
# Compressibility (1/GPa) = 0.02571821
#
# Stress axis : x y z
#
# Youngs Moduli (GPa) = 119.91105 105.82949 57.73939
#
# Poissons Ratio (x) = 0.46614 0.07689
# Poissons Ratio (y) = 0.52817 -0.06014
# Poissons Ratio (z) = 0.15968 -0.11022
#
# Static dielectric constant tensor:
#      x y z
#    x 1.749390 0.000000 0.000000 
#    y 0.000000 1.845030 0.000000 
#    z 0.000000 0.000000 1.925040 
# 
# From -- ./inp_files/17029.got.cif
#   From: 2010.05.17/outbox.cif.g08.bks.cpg/sg40_9_cif.got.tgz:17029.got - 2010.06.03 18:35:42.
