data_PCOD9364339
_publ_section_title
;
Structure prediction by ZEFSAII (Michael W. Deem and Ramdas Pophale) SiO2 
 PCOD9364339
Probable space group: A M A 2
;
_chemical_formula_sum "Si O2"
_cell_formula_units_Z 36
_cell_length_a 19.031790
_cell_length_b 11.463710
_cell_length_c 7.190064
_cell_angle_alpha 90.000000
_cell_angle_beta 90.000000
_cell_angle_gamma 90.000000
_cell_volume 1568.691648
_symmetry_space_group_name_H-M "A M A 2"
_symmetry_group_IT_number 40
_symmetry_cell_setting 'orthorhombic'
loop_
_space_group_symop_operation_xyz
x,y,z
-x,-y,z
1/2-x,y,z
1/2+x,-y,z
x,1/2+y,1/2+z
-x,1/2-y,1/2+z
1/2-x,1/2+y,1/2+z
1/2+x,1/2-y,1/2+z
loop_
_atom_site_type_symbol
_atom_site_label
_atom_site_fract_x
_atom_site_fract_y
_atom_site_fract_z
Si Si1 0.899622 0.803804 0.781770
Si Si2 0.371423 0.938472 0.798142
Si Si3 0.750000 0.285829 0.169729
Si Si4 0.750000 0.732350 0.230883
Si Si5 0.250000 0.541853 0.476927
Si Si6 0.994112 0.130026 0.057336
O O1 0.891799 0.937313 0.704243
O O2 0.823827 0.743926 0.755089
O O3 0.955705 0.723316 0.682219
O O4 0.930377 0.826465 0.986586
O O5 0.319766 0.846604 0.699208
O O6 0.322029 0.971448 0.978704
O O7 0.443159 0.886252 0.877558
O O8 0.750000 0.415660 0.259832
O O9 0.750000 0.272057 0.948786
O O10 0.750000 0.847738 0.107662
O O11 0.000000 0.000000 0.140696
#
# Coordination Sequence:
#
# PCOD9364339 Si02
#       6
#     8   8   4   4   4   8
#     4  10  21  41  65  92 132 169 219 273 331 399
#     4   9  20  39  63  88 134 172 213 282 332 385
#     4  10  20  40  66  96 132 170 214 278 324 398
#     4  11  19  39  71  96 133 180 219 277 343 392
#     4   9  21  37  63  98 129 176 227 271 333 400
#     4  10  21  39  63  88 128 177 214 271 339 390
#
# _framework density 22.949062000000001
#
# number of rings (size 3 to 8) (size 9 to 14) (size 15 to 20)
#    0.000    2.222    2.222    0.667    0.000    5.333 
#    0.000   16.667    4.889    0.000    0.000    0.000 
#    0.000    0.000    0.000    0.000    0.000    0.000 
#
# Total GULP energy -100247.534867 kJ/mol
# GULP energy per Si atom -5569.307493 kJ/mol
# Density = 2.289683 g / cm^3
# Si number density = 22.949062 Si / 1000 Ang^3
#
#
#
# Elastic Constant Matrix: (Units=GPa)
#
#
# Indices 1 2 3 4 5 6 
#
# 1 130.2614 56.6316 24.4131 0.0000 0.0000 0.0000
# 2 56.6316 132.6580 52.9452 0.0000 0.0000 0.0000
# 3 24.4131 52.9452 50.5030 0.0000 0.0000 0.0000
# 4 0.0000 0.0000 0.0000 44.5822 0.0000 0.0000
# 5 0.0000 0.0000 0.0000 0.0000 21.1615 0.0000
# 6 0.0000 0.0000 0.0000 0.0000 0.0000 47.0094
#
#
#
# Elastic Compliance Matrix: (Units=1/GPa)
#
#
# Indices 1 2 3 4 5 6 
#
# 1 0.009436 -0.003796 -0.000582 0.000000 0.000000 0.000000
# 2 -0.003796 0.014489 -0.013354 0.000000 0.000000 0.000000
# 3 -0.000582 -0.013354 0.034082 0.000000 0.000000 0.000000
# 4 0.000000 0.000000 0.000000 0.022430 0.000000 0.000000
# 5 0.000000 0.000000 0.000000 0.000000 0.047256 0.000000
# 6 0.000000 0.000000 0.000000 0.000000 0.000000 0.021272
#
#
# Mechanical properties :
#
#
# Convention : Reuss Voigt Hill
#
# Bulk Modulus (GPa) = 44.36033 64.60026 54.48030
# Shear Modulus (GPa) = 26.04936 34.51280 30.28108
#
# Velocity S-wave (km/s) = 3.37277 3.88221 3.63642
# Velocity P-wave (km/s) = 5.87702 6.95024 6.43604
#
# Compressibility (1/GPa) = 0.02254266
#
# Stress axis : x y z
#
# Youngs Moduli (GPa) = 105.97376 69.02022 29.34115
#
# Poissons Ratio (x) = 0.26201 0.01707
# Poissons Ratio (y) = 0.40229 0.39182
# Poissons Ratio (z) = 0.06165 0.92170
#
# Static dielectric constant tensor:
#      x y z
#    x 1.978730 0.000000 0.000000 
#    y 0.000000 1.917640 0.000000 
#    z 0.000000 0.000000 1.859420 
# 
# From -- ./inp_files/8054.got.cif
#   From: 2010.05.17/outbox.cif.g08.bks.cpg/sg40_5_cif.got.tgz:8054.got - 2010.06.03 18:35:42.
