data_PCOD9364501
_publ_section_title
;
Structure prediction by ZEFSAII (Michael W. Deem and Ramdas Pophale) SiO2 
 PCOD9364501
Probable space group: A M A 2
;
_chemical_formula_sum "Si O2"
_cell_formula_units_Z 48
_cell_length_a 11.039295
_cell_length_b 31.866805
_cell_length_c 7.502025
_cell_angle_alpha 90.000000
_cell_angle_beta 90.000000
_cell_angle_gamma 90.000000
_cell_volume 2639.115327
_symmetry_space_group_name_H-M "A M A 2"
_symmetry_group_IT_number 40
_symmetry_cell_setting 'orthorhombic'
loop_
_space_group_symop_operation_xyz
x,y,z
-x,-y,z
1/2-x,y,z
1/2+x,-y,z
x,1/2+y,1/2+z
-x,1/2-y,1/2+z
1/2-x,1/2+y,1/2+z
1/2+x,1/2-y,1/2+z
loop_
_atom_site_type_symbol
_atom_site_label
_atom_site_fract_x
_atom_site_fract_y
_atom_site_fract_z
Si Si1 0.386531 0.105902 0.458360
Si Si2 0.614467 0.235935 0.161850
Si Si3 0.888458 0.898230 0.874407
Si Si4 0.107668 0.533570 0.665920
Si Si5 0.114580 0.332751 0.968752
Si Si6 0.992929 0.189196 0.831004
O O1 0.250000 0.124550 0.431368
O O2 0.393167 0.092306 0.664620
O O3 0.396011 0.066209 0.329648
O O4 0.500255 0.136899 0.431507
O O5 0.750000 0.232252 0.095364
O O6 0.601635 0.206426 0.335195
O O7 0.589684 0.283579 0.219157
O O8 0.536961 0.217478 0.000811
O O9 0.750000 0.887818 0.923471
O O10 0.964991 0.856072 0.899696
O O11 0.921551 0.938014 0.992657
O O12 0.250000 0.518523 0.652497
O O13 0.000000 0.500000 0.685552
O O14 0.250000 0.350927 0.937516
O O15 0.105732 0.318999 0.176126
#
# Coordination Sequence:
#
# PCOD9364501 Si02
#       6
#     8   8   8   8   8   8
#     4   9  19  37  59  82 110 147 188 227 276 343
#     4  11  22  35  52  78 112 150 195 242 287 336
#     4   9  19  36  58  81 110 147 190 232 275 338
#     4  10  21  38  59  87 115 143 183 231 283 344
#     4  10  21  37  55  82 115 146 189 243 290 335
#     4  11  20  37  55  80 112 155 195 239 288 335
#
# _framework density 18.187913000000002
#
# number of rings (size 3 to 8) (size 9 to 14) (size 15 to 20)
#    0.000    2.000    1.667    2.000    0.000    2.000 
#    0.000    5.000    0.000    0.000    0.000    0.000 
#    0.000    0.000    0.000    0.000    0.000    0.000 
#
# Total GULP energy -133664.125259 kJ/mol
# GULP energy per Si atom -5569.338552 kJ/mol
# Density = 1.814652 g / cm^3
# Si number density = 18.187913 Si / 1000 Ang^3
#
#
#
# Elastic Constant Matrix: (Units=GPa)
#
#
# Indices 1 2 3 4 5 6 
#
# 1 104.1290 53.3815 30.0786 0.0000 0.0000 0.0000
# 2 53.3815 54.3462 9.4540 0.0000 0.0000 0.0000
# 3 30.0786 9.4540 25.0905 0.0000 0.0000 0.0000
# 4 0.0000 0.0000 0.0000 20.6941 0.0000 0.0000
# 5 0.0000 0.0000 0.0000 0.0000 20.9966 0.0000
# 6 0.0000 0.0000 0.0000 0.0000 0.0000 28.7053
#
#
#
# Elastic Compliance Matrix: (Units=1/GPa)
#
#
# Indices 1 2 3 4 5 6 
#
# 1 0.030070 -0.024897 -0.026667 0.000000 0.000000 0.000000
# 2 -0.024897 0.040306 0.014660 0.000000 0.000000 0.000000
# 3 -0.026667 0.014660 0.066300 0.000000 0.000000 0.000000
# 4 0.000000 0.000000 0.000000 0.048323 0.000000 0.000000
# 5 0.000000 0.000000 0.000000 0.000000 0.047627 0.000000
# 6 0.000000 0.000000 0.000000 0.000000 0.000000 0.034837
#
#
# Mechanical properties :
#
#
# Convention : Reuss Voigt Hill
#
# Bulk Modulus (GPa) = 15.90642 41.04376 28.47509
# Shear Modulus (GPa) = 13.80351 20.12265 16.96308
#
# Velocity S-wave (km/s) = 2.75787 3.32983 3.05726
# Velocity P-wave (km/s) = 4.34807 6.11549 5.30589
#
# Compressibility (1/GPa) = 0.06286768
#
# Stress axis : x y z
#
# Youngs Moduli (GPa) = 33.25568 24.81036 15.08289
#
# Poissons Ratio (x) = 0.61771 0.40221
# Poissons Ratio (y) = 0.82798 -0.22112
# Poissons Ratio (z) = 0.88683 -0.36372
#
# Static dielectric constant tensor:
#      x y z
#    x 1.655090 0.000000 0.000000 
#    y 0.000000 1.610620 0.000000 
#    z 0.000000 0.000000 1.631230 
# 
# From -- ./inp_files/5419.got.cif
#   From: 2010.05.17/outbox.cif.g08.bks.cpg/sg40_3_cif.got.tgz:5419.got - 2010.06.03 18:35:42.
