data_PCOD9364556
_publ_section_title
;
Structure prediction by ZEFSAII (Michael W. Deem and Ramdas Pophale) SiO2 
 PCOD9364556
Probable space group: A M A 2
;
_chemical_formula_sum "Si O2"
_cell_formula_units_Z 56
_cell_length_a 19.100535
_cell_length_b 8.453108
_cell_length_c 17.514100
_cell_angle_alpha 90.000000
_cell_angle_beta 90.000000
_cell_angle_gamma 90.000000
_cell_volume 2827.807062
_symmetry_space_group_name_H-M "A M A 2"
_symmetry_group_IT_number 40
_symmetry_cell_setting 'orthorhombic'
loop_
_space_group_symop_operation_xyz
x,y,z
-x,-y,z
1/2-x,y,z
1/2+x,-y,z
x,1/2+y,1/2+z
-x,1/2-y,1/2+z
1/2-x,1/2+y,1/2+z
1/2+x,1/2-y,1/2+z
loop_
_atom_site_type_symbol
_atom_site_label
_atom_site_fract_x
_atom_site_fract_y
_atom_site_fract_z
Si Si1 0.458281 0.656797 0.720150
Si Si2 0.332640 0.037754 0.141133
Si Si3 0.328704 0.230828 0.995394
Si Si4 0.951731 0.743267 0.386174
Si Si5 0.580359 0.462838 0.030251
Si Si6 0.605406 0.401193 0.355357
Si Si7 0.400167 0.199635 0.684397
O O1 0.500000 0.500000 0.694843
O O2 0.382583 0.664902 0.682798
O O3 0.447018 0.649646 0.810653
O O4 0.514999 0.786789 0.695979
O O5 0.250000 0.047600 0.157489
O O6 0.344104 0.083802 0.052463
O O7 0.363018 0.868975 0.168475
O O8 0.250000 0.283473 0.012648
O O9 0.379963 0.378103 0.006798
O O10 0.336072 0.168590 0.909976
O O11 0.925630 0.835584 0.460879
O O12 0.907295 0.585721 0.370466
O O13 0.032950 0.684987 0.383667
O O14 0.500000 0.500000 0.046816
O O15 0.613797 0.397564 0.107967
O O16 0.621011 0.368013 0.266777
#
# Coordination Sequence:
#
# PCOD9364556 Si02
#       7
#     8   8   8   8   8   8   8
#     4   9  19  36  61  95 126 155 200 257 311 365
#     4  10  22  41  63  86 124 167 209 253 311 381
#     4  11  25  43  62  89 130 171 210 259 319 382
#     4  10  21  37  65  91 128 157 206 262 311 371
#     4  12  23  38  65  98 126 162 210 265 316 376
#     4  10  22  41  62  92 126 166 207 258 318 377
#     4  10  23  38  65  93 123 161 210 265 315 368
#
# _framework density 19.803332000000001
#
# number of rings (size 3 to 8) (size 9 to 14) (size 15 to 20)
#    0.000    1.714    1.429    2.143   10.000    1.143 
#    0.000    1.429    0.000    0.000    0.000    0.000 
#    0.000    0.000    0.000    0.000    0.000    0.000 
#
# Total GULP energy -156126.800706 kJ/mol
# GULP energy per Si atom -5575.957168 kJ/mol
# Density = 1.975826 g / cm^3
# Si number density = 19.803332 Si / 1000 Ang^3
#
#
#
# Elastic Constant Matrix: (Units=GPa)
#
#
# Indices 1 2 3 4 5 6 
#
# 1 75.6632 18.1723 24.5249 0.0000 0.0000 0.0000
# 2 18.1723 23.4451 25.3077 0.0000 0.0000 0.0000
# 3 24.5249 25.3077 133.1521 0.0000 0.0000 0.0000
# 4 0.0000 0.0000 0.0000 36.2105 0.0000 0.0000
# 5 0.0000 0.0000 0.0000 0.0000 19.1279 0.0000
# 6 0.0000 0.0000 0.0000 0.0000 0.0000 14.2422
#
#
#
# Elastic Compliance Matrix: (Units=1/GPa)
#
#
# Indices 1 2 3 4 5 6 
#
# 1 0.016300 -0.011818 -0.000756 0.000000 0.000000 0.000000
# 2 -0.011818 0.062231 -0.009651 0.000000 0.000000 0.000000
# 3 -0.000756 -0.009651 0.009484 0.000000 0.000000 0.000000
# 4 0.000000 0.000000 0.000000 0.027616 0.000000 0.000000
# 5 0.000000 0.000000 0.000000 0.000000 0.052280 0.000000
# 6 0.000000 0.000000 0.000000 0.000000 0.000000 0.070214
#
#
# Mechanical properties :
#
#
# Convention : Reuss Voigt Hill
#
# Bulk Modulus (GPa) = 22.95465 40.91890 31.93677
# Shear Modulus (GPa) = 16.82957 24.86649 20.84803
#
# Velocity S-wave (km/s) = 2.91836 3.54739 3.24814
# Velocity P-wave (km/s) = 4.79293 6.12259 5.49811
#
# Compressibility (1/GPa) = 0.04356416
#
# Stress axis : x y z
#
# Youngs Moduli (GPa) = 61.35015 16.06919 105.44256
#
# Poissons Ratio (x) = 0.18990 0.07972
# Poissons Ratio (y) = 0.72503 1.01765
# Poissons Ratio (z) = 0.04638 0.15509
#
# Static dielectric constant tensor:
#      x y z
#    x 1.692080 0.000000 0.000000 
#    y 0.000000 1.750940 0.000000 
#    z 0.000000 0.000000 1.706700 
# 
# From -- ./inp_files/18207.got.cif
#   From: 2010.05.17/outbox.cif.g08.bks.cpg/sg40_10_cif.got.tgz:18207.got - 2010.06.03 18:35:42.
