data_PCOD9364934
_publ_section_title
;
Structure prediction by ZEFSAII (Michael W. Deem and Ramdas Pophale) SiO2 
 PCOD9364934
Probable space group: A M A 2
;
_chemical_formula_sum "Si O2"
_cell_formula_units_Z 40
_cell_length_a 13.395805
_cell_length_b 4.830143
_cell_length_c 27.546806
_cell_angle_alpha 90.000000
_cell_angle_beta 90.000000
_cell_angle_gamma 90.000000
_cell_volume 1782.378997
_symmetry_space_group_name_H-M "A M A 2"
_symmetry_group_IT_number 40
_symmetry_cell_setting 'orthorhombic'
loop_
_space_group_symop_operation_xyz
x,y,z
-x,-y,z
1/2-x,y,z
1/2+x,-y,z
x,1/2+y,1/2+z
-x,1/2-y,1/2+z
1/2-x,1/2+y,1/2+z
1/2+x,1/2-y,1/2+z
loop_
_atom_site_type_symbol
_atom_site_label
_atom_site_fract_x
_atom_site_fract_y
_atom_site_fract_z
Si Si1 0.750000 0.958391 0.450310
Si Si2 0.750000 0.926214 0.011250
Si Si3 0.071938 0.245299 0.892327
Si Si4 0.250000 0.281379 0.146442
Si Si5 0.250000 0.775366 0.212484
Si Si6 0.570926 0.259073 0.284036
Si Si7 0.429093 0.238883 0.075879
O O1 0.750000 0.095038 0.502674
O O2 0.842937 0.106966 0.423989
O O3 0.750000 0.632415 0.463906
O O4 0.642985 0.937862 0.038443
O O5 0.108851 0.154962 0.838431
O O6 0.000000 0.500000 0.884678
O O7 0.000000 0.000000 0.912616
O O8 0.250000 0.462046 0.194487
O O9 0.348368 0.342503 0.114953
O O10 0.250000 0.966134 0.164934
O O11 0.343970 0.817656 0.246891
O O12 0.500000 0.500000 0.265030
O O13 0.500000 0.000000 0.289206
O O14 0.500000 0.500000 0.059364
O O15 0.500000 0.000000 0.097076
#
# Coordination Sequence:
#
# PCOD9364934 Si02
#       7
#     4   4   8   4   4   8   8
#     4  12  23  41  66  94 132 162 208 281 325 374
#     4  11  26  42  65 102 122 158 221 262 325 410
#     4  10  22  40  62  91 128 175 221 260 319 388
#     4  11  26  40  63 100 124 159 221 261 317 404
#     4  12  23  39  62  94 132 163 210 276 317 364
#     4  10  22  39  60  89 128 174 219 258 312 380
#     4  11  24  46  69  89 127 170 205 263 334 396
#
# _framework density 22.441917
#
# number of rings (size 3 to 8) (size 9 to 14) (size 15 to 20)
#    0.000    1.200    0.000    5.400    0.000   11.200 
#    0.000    8.000    0.000    0.000    0.000    0.000 
#    0.000    0.000    0.000    0.000    0.000    0.000 
#
# Total GULP energy -111389.109710 kJ/mol
# GULP energy per Si atom -5569.455485 kJ/mol
# Density = 2.239084 g / cm^3
# Si number density = 22.441917 Si / 1000 Ang^3
#
#
#
# Elastic Constant Matrix: (Units=GPa)
#
#
# Indices 1 2 3 4 5 6 
#
# 1 145.5312 46.6725 50.7172 0.0000 0.0000 0.0000
# 2 46.6725 109.4473 8.7701 0.0000 0.0000 0.0000
# 3 50.7172 8.7701 55.2178 0.0000 0.0000 0.0000
# 4 0.0000 0.0000 0.0000 41.2023 0.0000 0.0000
# 5 0.0000 0.0000 0.0000 0.0000 23.1073 0.0000
# 6 0.0000 0.0000 0.0000 0.0000 0.0000 31.4499
#
#
#
# Elastic Compliance Matrix: (Units=1/GPa)
#
#
# Indices 1 2 3 4 5 6 
#
# 1 0.011744 -0.004197 -0.010121 0.000000 0.000000 0.000000
# 2 -0.004197 0.010755 0.002147 0.000000 0.000000 0.000000
# 3 -0.010121 0.002147 0.027065 0.000000 0.000000 0.000000
# 4 0.000000 0.000000 0.000000 0.024270 0.000000 0.000000
# 5 0.000000 0.000000 0.000000 0.000000 0.043276 0.000000
# 6 0.000000 0.000000 0.000000 0.000000 0.000000 0.031797
#
#
# Mechanical properties :
#
#
# Convention : Reuss Voigt Hill
#
# Bulk Modulus (GPa) = 39.64749 58.05732 48.85241
# Shear Modulus (GPa) = 27.52450 32.75434 30.13942
#
# Velocity S-wave (km/s) = 3.50591 3.82451 3.66867
# Velocity P-wave (km/s) = 5.83897 6.74008 6.30564
#
# Compressibility (1/GPa) = 0.02522228
#
# Stress axis : x y z
#
# Youngs Moduli (GPa) = 85.14651 92.98287 36.94844
#
# Poissons Ratio (x) = 0.39028 0.37394
# Poissons Ratio (y) = 0.35739 -0.07933
# Poissons Ratio (z) = 0.86173 -0.19964
#
# Static dielectric constant tensor:
#      x y z
#    x 1.711360 0.000000 0.000000 
#    y 0.000000 1.746490 0.000000 
#    z 0.000000 0.000000 1.879630 
# 
# From -- ./inp_files/25605.got.cif
#   From: 2010.05.17/outbox.cif.g08.bks.cpg/sg40_13_cif.got.tgz:25605.got - 2010.06.03 18:35:42.
