data_PCOD9364962
_publ_section_title
;
Structure prediction by ZEFSAII (Michael W. Deem and Ramdas Pophale) SiO2 
 PCOD9364962
Probable space group: A M A 2
;
_chemical_formula_sum "Si O2"
_cell_formula_units_Z 48
_cell_length_a 10.284699
_cell_length_b 30.183589
_cell_length_c 8.249655
_cell_angle_alpha 90.000000
_cell_angle_beta 90.000000
_cell_angle_gamma 90.000000
_cell_volume 2560.933205
_symmetry_space_group_name_H-M "A M A 2"
_symmetry_group_IT_number 40
_symmetry_cell_setting 'orthorhombic'
loop_
_space_group_symop_operation_xyz
x,y,z
-x,-y,z
1/2-x,y,z
1/2+x,-y,z
x,1/2+y,1/2+z
-x,1/2-y,1/2+z
1/2-x,1/2+y,1/2+z
1/2+x,1/2-y,1/2+z
loop_
_atom_site_type_symbol
_atom_site_label
_atom_site_fract_x
_atom_site_fract_y
_atom_site_fract_z
Si Si1 0.750000 0.887430 0.972100
Si Si2 0.009568 0.446421 0.487152
Si Si3 0.250000 0.184468 0.680164
Si Si4 0.894298 0.038088 0.647294
Si Si5 0.750000 0.302576 0.688521
Si Si6 0.102878 0.904768 0.319829
Si Si7 0.750000 0.733410 0.903400
Si Si8 0.474646 0.683149 0.917448
O O1 0.750000 0.853948 0.817580
O O2 0.625725 0.919817 0.975517
O O3 0.750000 0.853182 0.123371
O O4 0.083263 0.436482 0.317360
O O5 0.075559 0.430921 0.654169
O O6 0.000000 0.500000 0.494201
O O7 0.250000 0.235413 0.743691
O O8 0.383171 0.179049 0.576106
O O9 0.750000 0.018381 0.653277
O O10 0.904711 0.066390 0.483761
O O11 0.000000 0.000000 0.639122
O O12 0.750000 0.270407 0.539717
O O13 0.621580 0.293138 0.792209
O O14 0.250000 0.887136 0.309844
O O15 0.003617 0.865117 0.345102
O O16 0.615762 0.706190 0.925906
#
# Coordination Sequence:
#
# PCOD9364962 Si02
#       8
#     4   8   4   8   4   8   4   8
#     4  11  22  42  61  91 122 168 220 258 319 378
#     4  11  24  39  64  92 126 171 216 271 322 381
#     4  10  24  40  68  94 126 172 211 267 324 389
#     4  10  23  41  60  90 126 165 215 266 318 383
#     4  10  22  40  62  90 122 155 206 257 307 385
#     4  11  22  40  63  91 128 166 213 265 324 381
#     4  11  22  40  67  91 130 159 203 264 322 398
#     4  11  21  41  62  94 124 161 210 256 323 384
#
# _framework density 18.743167
#
# number of rings (size 3 to 8) (size 9 to 14) (size 15 to 20)
#    0.000    1.333    2.500    3.000    5.833    0.000 
#    4.500    0.000    0.000    0.000    0.000    0.000 
#    0.000    0.000    0.000    0.000    0.000    0.000 
#
# Total GULP energy -133787.552726 kJ/mol
# GULP energy per Si atom -5574.481364 kJ/mol
# Density = 1.870051 g / cm^3
# Si number density = 18.743167 Si / 1000 Ang^3
#
#
#
# Elastic Constant Matrix: (Units=GPa)
#
#
# Indices 1 2 3 4 5 6 
#
# 1 155.1989 42.5961 47.7966 0.0000 0.0000 0.0000
# 2 42.5961 63.5154 21.8346 0.0000 0.0000 0.0000
# 3 47.7966 21.8346 114.1808 0.0000 0.0000 0.0000
# 4 0.0000 0.0000 0.0000 20.9460 0.0000 0.0000
# 5 0.0000 0.0000 0.0000 0.0000 -13.8720 0.0000
# 6 0.0000 0.0000 0.0000 0.0000 0.0000 13.4714
#
#
#
# Elastic Compliance Matrix: (Units=1/GPa)
#
#
# Indices 1 2 3 4 5 6 
#
# 1 0.008596 -0.004847 -0.002672 0.000000 0.000000 0.000000
# 2 -0.004847 0.019585 -0.001716 0.000000 0.000000 0.000000
# 3 -0.002672 -0.001716 0.010205 0.000000 0.000000 0.000000
# 4 0.000000 0.000000 0.000000 0.047742 0.000000 0.000000
# 5 0.000000 0.000000 0.000000 0.000000 -0.072088 0.000000
# 6 0.000000 0.000000 0.000000 0.000000 0.000000 0.074231
#
#
# Mechanical properties :
#
#
# Convention : Reuss Voigt Hill
#
# Bulk Modulus (GPa) = 50.21002 61.92775 56.06888
# Shear Modulus (GPa) = 44.09999 18.82029 31.46014
#
# Velocity S-wave (km/s) = 4.85589 3.17221 4.10138
# Velocity P-wave (km/s) = 7.63453 6.82123 7.23931
#
# Compressibility (1/GPa) = 0.01991634
#
# Stress axis : x y z
#
# Youngs Moduli (GPa) = 116.32850 51.06060 97.99497
#
# Poissons Ratio (x) = 0.24747 0.26181
# Poissons Ratio (y) = 0.56380 0.16819
# Poissons Ratio (z) = 0.31079 0.08764
#
# Static dielectric constant tensor:
#      x y z
#    x 1.647060 0.000000 0.000000 
#    y 0.000000 1.666470 0.000000 
#    z 0.000000 0.000000 1.680360 
# 
# From -- ./inp_files/4694.got.cif
#   From: 2010.05.17/outbox.cif.g08.bks.cpg/sg40_3_cif.got.tgz:4694.got - 2010.06.03 18:35:42.
