data_PCOD9364223
_publ_section_title
;
Structure prediction by ZEFSAII (Michael W. Deem and Ramdas Pophale) SiO2 
 PCOD9364223
Probable space group: A M A 2
;
_chemical_formula_sum "Si O2"
_cell_formula_units_Z 48
_cell_length_a 14.726604
_cell_length_b 9.842436
_cell_length_c 16.621292
_cell_angle_alpha 90.000000
_cell_angle_beta 90.000000
_cell_angle_gamma 90.000000
_cell_volume 2409.184095
_symmetry_space_group_name_H-M "A M A 2"
_symmetry_group_IT_number 40
_symmetry_cell_setting 'orthorhombic'
loop_
_space_group_symop_operation_xyz
x,y,z
-x,-y,z
1/2-x,y,z
1/2+x,-y,z
x,1/2+y,1/2+z
-x,1/2-y,1/2+z
1/2-x,1/2+y,1/2+z
1/2+x,1/2-y,1/2+z
loop_
_atom_site_type_symbol
_atom_site_label
_atom_site_fract_x
_atom_site_fract_y
_atom_site_fract_z
Si Si1 0.140676 0.431513 0.363020
Si Si2 0.355585 0.210580 0.485651
Si Si3 0.354307 0.732160 0.713574
Si Si4 0.854788 0.291655 0.293870
Si Si5 0.022369 0.659309 0.140048
Si Si6 0.608239 0.493116 0.841545
O O1 0.250000 0.432587 0.371472
O O2 0.109165 0.344531 0.438790
O O3 0.123074 0.345720 0.281817
O O4 0.110328 0.585233 0.349940
O O5 0.250000 0.227651 0.510525
O O6 0.420163 0.178879 0.559587
O O7 0.358381 0.091704 0.418404
O O8 0.250000 0.749938 0.687832
O O9 0.428573 0.756387 0.645200
O O10 0.363659 0.590855 0.761762
O O11 0.750000 0.322227 0.271779
O O12 0.916587 0.291558 0.214928
O O13 0.857952 0.146574 0.336402
O O14 0.000000 0.500000 0.148499
O O15 0.500000 0.500000 0.844623
#
# Coordination Sequence:
#
# PCOD9364223 Si02
#       6
#     8   8   8   8   8   8
#     4   8  17  36  64  91 119 162 208 251 311 379
#     4  10  22  41  64  93 132 170 207 263 332 388
#     4  10  20  38  63  91 126 169 212 261 318 378
#     4  11  21  37  67  99 125 161 214 265 314 384
#     4  12  23  37  63  99 128 169 217 268 319 383
#     4  11  21  39  67  98 127 165 216 266 321 391
#
# _framework density 19.923757999999999
#
# number of rings (size 3 to 8) (size 9 to 14) (size 15 to 20)
#    0.000    1.667    3.333    3.500    0.000    0.667 
#    0.000    0.000   14.667    0.000    0.000    1.167 
#    0.000    0.000    0.000    0.000    0.000    0.000 
#
# Total GULP energy -134069.706501 kJ/mol
# GULP energy per Si atom -5586.237771 kJ/mol
# Density = 1.987841 g / cm^3
# Si number density = 19.923758 Si / 1000 Ang^3
#
#
#
# Elastic Constant Matrix: (Units=GPa)
#
#
# Indices 1 2 3 4 5 6 
#
# 1 122.2704 12.6207 39.3250 0.0000 0.0000 0.0000
# 2 12.6207 139.7293 37.1614 0.0000 0.0000 0.0000
# 3 39.3250 37.1614 79.5733 0.0000 0.0000 0.0000
# 4 0.0000 0.0000 0.0000 14.2095 0.0000 0.0000
# 5 0.0000 0.0000 0.0000 0.0000 17.9961 0.0000
# 6 0.0000 0.0000 0.0000 0.0000 0.0000 27.8188
#
#
#
# Elastic Compliance Matrix: (Units=1/GPa)
#
#
# Indices 1 2 3 4 5 6 
#
# 1 0.009750 0.000458 -0.005032 0.000000 0.000000 0.000000
# 2 0.000458 0.008193 -0.004052 0.000000 0.000000 0.000000
# 3 -0.005032 -0.004052 0.016946 0.000000 0.000000 0.000000
# 4 0.000000 0.000000 0.000000 0.070376 0.000000 0.000000
# 5 0.000000 0.000000 0.000000 0.000000 0.055568 0.000000
# 6 0.000000 0.000000 0.000000 0.000000 0.000000 0.035947
#
#
# Mechanical properties :
#
#
# Convention : Reuss Voigt Hill
#
# Bulk Modulus (GPa) = 56.70339 57.75414 57.22876
# Shear Modulus (GPa) = 22.73643 28.83596 25.78619
#
# Velocity S-wave (km/s) = 3.38179 3.80849 3.60146
# Velocity P-wave (km/s) = 6.61594 6.95629 6.78825
#
# Compressibility (1/GPa) = 0.01763563
#
# Stress axis : x y z
#
# Youngs Moduli (GPa) = 102.56646 122.05381 59.00967
#
# Poissons Ratio (x) = -0.05586 0.29694
# Poissons Ratio (y) = -0.04694 0.23913
# Poissons Ratio (z) = 0.51612 0.49461
#
# Static dielectric constant tensor:
#      x y z
#    x 1.712880 0.000000 0.000000 
#    y 0.000000 1.717240 0.000000 
#    z 0.000000 0.000000 1.668610 
# 
# From -- ./inp_files/20538.got.cif
#   From: 2010.05.17/outbox.cif.g08.bks.cpg/sg40_11_cif.got.tgz:20538.got - 2010.06.03 18:35:42.
