data_PCOD9364493
_publ_section_title
;
Structure prediction by ZEFSAII (Michael W. Deem and Ramdas Pophale) SiO2 
 PCOD9364493
Probable space group: A M A 2
;
_chemical_formula_sum "Si O2"
_cell_formula_units_Z 52
_cell_length_a 13.121075
_cell_length_b 30.909600
_cell_length_c 6.702918
_cell_angle_alpha 90.000000
_cell_angle_beta 90.000000
_cell_angle_gamma 90.000000
_cell_volume 2718.483550
_symmetry_space_group_name_H-M "A M A 2"
_symmetry_group_IT_number 40
_symmetry_cell_setting 'orthorhombic'
loop_
_space_group_symop_operation_xyz
x,y,z
-x,-y,z
1/2-x,y,z
1/2+x,-y,z
x,1/2+y,1/2+z
-x,1/2-y,1/2+z
1/2-x,1/2+y,1/2+z
1/2+x,1/2-y,1/2+z
loop_
_atom_site_type_symbol
_atom_site_label
_atom_site_fract_x
_atom_site_fract_y
_atom_site_fract_z
Si Si1 0.009861 0.575029 0.110360
Si Si2 0.134708 0.268483 0.960980
Si Si3 0.632524 0.949858 0.998215
Si Si4 0.633449 0.870614 0.305391
Si Si5 0.868508 0.149779 0.759204
Si Si6 0.500000 0.500000 0.800306
Si Si7 0.983099 0.195199 0.113336
O O1 0.060670 0.553685 0.305266
O O2 0.918393 0.606722 0.169640
O O3 0.095711 0.604157 0.001084
O O4 0.976065 0.539801 0.947133
O O5 0.250000 0.251642 0.976261
O O6 0.107731 0.283925 0.739531
O O7 0.126036 0.310324 0.103650
O O8 0.052610 0.232578 0.019731
O O9 0.750000 0.957920 0.942581
O O10 0.628187 0.904727 0.121757
O O11 0.590836 0.985356 0.153981
O O12 0.750000 0.856071 0.326044
O O13 0.556193 0.832160 0.258365
O O14 0.750000 0.143273 0.810556
O O15 0.935299 0.164276 0.947563
#
# Coordination Sequence:
#
# PCOD9364493 Si02
#       7
#     8   8   8   8   8   4   8
#     4  11  21  42  65  92 128 164 208 261 316 379
#     4  11  24  40  61  91 128 169 209 257 313 370
#     4  10  21  40  64  91 125 162 203 256 317 378
#     4  10  21  36  62  93 121 159 206 259 312 366
#     4  11  24  41  63  91 126 170 214 259 317 377
#     4  10  24  40  64  94 130 160 206 260 318 384
#     4  12  21  42  61  90 125 164 210 264 306 372
#
# _framework density 19.128312000000001
#
# number of rings (size 3 to 8) (size 9 to 14) (size 15 to 20)
#    0.000    1.231    4.615    1.846    0.000    1.231 
#    0.000    3.846    0.000    0.000    0.000    0.000 
#    0.000    0.000    0.000    0.000    0.000    0.000 
#
# Total GULP energy -145255.912574 kJ/mol
# GULP energy per Si atom -5586.765868 kJ/mol
# Density = 1.908478 g / cm^3
# Si number density = 19.128312 Si / 1000 Ang^3
#
#
#
# Elastic Constant Matrix: (Units=GPa)
#
#
# Indices 1 2 3 4 5 6 
#
# 1 115.4329 41.7647 34.4226 0.0000 0.0000 0.0000
# 2 41.7647 69.6982 33.8982 0.0000 0.0000 0.0000
# 3 34.4226 33.8982 85.7967 0.0000 0.0000 0.0000
# 4 0.0000 0.0000 0.0000 26.2666 0.0000 0.0000
# 5 0.0000 0.0000 0.0000 0.0000 22.7324 0.0000
# 6 0.0000 0.0000 0.0000 0.0000 0.0000 22.6682
#
#
#
# Elastic Compliance Matrix: (Units=1/GPa)
#
#
# Indices 1 2 3 4 5 6 
#
# 1 0.011424 -0.005714 -0.002326 0.000000 0.000000 0.000000
# 2 -0.005714 0.020619 -0.005854 0.000000 0.000000 0.000000
# 3 -0.002326 -0.005854 0.014901 0.000000 0.000000 0.000000
# 4 0.000000 0.000000 0.000000 0.038071 0.000000 0.000000
# 5 0.000000 0.000000 0.000000 0.000000 0.043990 0.000000
# 6 0.000000 0.000000 0.000000 0.000000 0.000000 0.044115
#
#
# Mechanical properties :
#
#
# Convention : Reuss Voigt Hill
#
# Bulk Modulus (GPa) = 52.20175 54.56652 53.38413
# Shear Modulus (GPa) = 24.12036 25.05625 24.58831
#
# Velocity S-wave (km/s) = 3.55488 3.62319 3.58919
# Velocity P-wave (km/s) = 6.64824 6.78909 6.71904
#
# Compressibility (1/GPa) = 0.01915645
#
# Stress axis : x y z
#
# Youngs Moduli (GPa) = 87.53412 48.49939 67.10783
#
# Poissons Ratio (x) = 0.27715 0.15607
# Poissons Ratio (y) = 0.50021 0.39283
# Poissons Ratio (z) = 0.20358 0.28390
#
# Static dielectric constant tensor:
#      x y z
#    x 1.635800 0.000000 0.000000 
#    y 0.000000 1.650530 0.000000 
#    z 0.000000 0.000000 1.660780 
# 
# From -- ./inp_files/1460.got.cif
#   From: 2010.05.17/outbox.cif.g08.bks.cpg/sg40_1_cif.got.tgz:1460.got - 2010.06.03 18:35:42.
