data_PCOD9364782
_publ_section_title
;
Structure prediction by ZEFSAII (Michael W. Deem and Ramdas Pophale) SiO2 
 PCOD9364782
Probable space group: A M A 2
;
_chemical_formula_sum "Si O2"
_cell_formula_units_Z 60
_cell_length_a 26.628193
_cell_length_b 17.807234
_cell_length_c 5.728989
_cell_angle_alpha 90.000000
_cell_angle_beta 90.000000
_cell_angle_gamma 90.000000
_cell_volume 2716.540287
_symmetry_space_group_name_H-M "A M A 2"
_symmetry_group_IT_number 40
_symmetry_cell_setting 'orthorhombic'
loop_
_space_group_symop_operation_xyz
x,y,z
-x,-y,z
1/2-x,y,z
1/2+x,-y,z
x,1/2+y,1/2+z
-x,1/2-y,1/2+z
1/2-x,1/2+y,1/2+z
1/2+x,1/2-y,1/2+z
loop_
_atom_site_type_symbol
_atom_site_label
_atom_site_fract_x
_atom_site_fract_y
_atom_site_fract_z
Si Si1 0.143161 0.501455 0.180820
Si Si2 0.373193 0.336425 0.078625
Si Si3 0.000000 0.500000 0.445296
Si Si4 0.047545 0.599411 0.079574
Si Si5 0.192571 0.500812 0.670439
Si Si6 0.457339 0.887724 0.222441
Si Si7 0.408355 0.756811 0.976384
Si Si8 0.693895 0.180573 0.189433
O O1 0.138938 0.411571 0.220901
O O2 0.089939 0.535944 0.103438
O O3 0.163159 0.529499 0.435758
O O4 0.174828 0.516081 0.939816
O O5 0.402564 0.268694 0.200630
O O6 0.411391 0.371540 0.891824
O O7 0.322449 0.308381 0.958787
O O8 0.987050 0.427618 0.292546
O O9 0.954059 0.531775 0.597167
O O10 0.076052 0.678026 0.080839
O O11 0.009662 0.606160 0.860924
O O12 0.250000 0.526670 0.647505
O O13 0.192658 0.409540 0.658578
O O14 0.450248 0.817096 0.053129
O O15 0.352118 0.780358 0.055671
O O16 0.750000 0.207076 0.135298
#
# Coordination Sequence:
#
# PCOD9364782 Si02
#       8
#     8   8   4   8   8   8   8   8
#     4  11  22  41  67 100 136 175 239 295 359 436
#     4  10  21  41  66  98 131 180 224 296 349 425
#     4  12  26  46  70  98 136 186 244 294 358 434
#     4  12  28  41  67  99 136 192 232 296 365 437
#     4  10  21  40  70 100 132 178 237 304 363 429
#     4  11  25  42  67  98 138 180 234 290 354 435
#     4  11  24  43  67  97 143 180 236 290 366 434
#     4   9  20  39  67 102 133 175 232 290 360 432
#
# _framework density 22.086918000000001
#
# number of rings (size 3 to 8) (size 9 to 14) (size 15 to 20)
#    0.000    1.333    1.333    4.000    9.333    2.133 
#    0.000    1.333    0.000    0.000    0.000    0.000 
#    0.000    0.000    0.000    0.000    0.000    0.000 
#
# Total GULP energy -167106.196129 kJ/mol
# GULP energy per Si atom -5570.206538 kJ/mol
# Density = 2.203665 g / cm^3
# Si number density = 22.086918 Si / 1000 Ang^3
#
#
#
# Elastic Constant Matrix: (Units=GPa)
#
#
# Indices 1 2 3 4 5 6 
#
# 1 117.9471 16.2945 41.2495 0.0000 0.0000 0.0000
# 2 16.2945 49.3501 21.8380 0.0000 0.0000 0.0000
# 3 41.2495 21.8380 88.5193 0.0000 0.0000 0.0000
# 4 0.0000 0.0000 0.0000 -13.1838 0.0000 0.0000
# 5 0.0000 0.0000 0.0000 0.0000 30.4337 0.0000
# 6 0.0000 0.0000 0.0000 0.0000 0.0000 21.4651
#
#
#
# Elastic Compliance Matrix: (Units=1/GPa)
#
#
# Indices 1 2 3 4 5 6 
#
# 1 0.010217 -0.001422 -0.004410 0.000000 0.000000 0.000000
# 2 -0.001422 0.022945 -0.004998 0.000000 0.000000 0.000000
# 3 -0.004410 -0.004998 0.014585 0.000000 0.000000 0.000000
# 4 0.000000 0.000000 0.000000 -0.075850 0.000000 0.000000
# 5 0.000000 0.000000 0.000000 0.000000 0.032858 0.000000
# 6 0.000000 0.000000 0.000000 0.000000 0.000000 0.046587
#
#
# Mechanical properties :
#
#
# Convention : Reuss Voigt Hill
#
# Bulk Modulus (GPa) = 38.33388 46.06449 42.19918
# Shear Modulus (GPa) = 61.20108 19.50529 40.35319
#
# Velocity S-wave (km/s) = 5.26966 2.97495 4.27900
# Velocity P-wave (km/s) = 7.37695 5.71854 6.60004
#
# Compressibility (1/GPa) = 0.02608659
#
# Stress axis : x y z
#
# Youngs Moduli (GPa) = 97.87358 43.58342 68.56267
#
# Poissons Ratio (x) = 0.06197 0.30239
# Poissons Ratio (y) = 0.13917 0.34267
# Poissons Ratio (z) = 0.43166 0.21783
#
# Static dielectric constant tensor:
#      x y z
#    x 1.836570 0.000000 0.000000 
#    y 0.000000 1.801010 0.000000 
#    z 0.000000 0.000000 2.024520 
# 
# From -- ./inp_files/3168.got.cif
#   From: 2010.05.17/outbox.cif.g08.bks.cpg/sg40_2_cif.got.tgz:3168.got - 2010.06.03 18:35:42.
