data_PCOD9364953
_publ_section_title
;
Structure prediction by ZEFSAII (Michael W. Deem and Ramdas Pophale) SiO2 
 PCOD9364953
Probable space group: A M A 2
;
_chemical_formula_sum "Si O2"
_cell_formula_units_Z 48
_cell_length_a 9.446623
_cell_length_b 27.770924
_cell_length_c 9.609396
_cell_angle_alpha 90.000000
_cell_angle_beta 90.000000
_cell_angle_gamma 90.000000
_cell_volume 2520.942874
_symmetry_space_group_name_H-M "A M A 2"
_symmetry_group_IT_number 40
_symmetry_cell_setting 'orthorhombic'
loop_
_space_group_symop_operation_xyz
x,y,z
-x,-y,z
1/2-x,y,z
1/2+x,-y,z
x,1/2+y,1/2+z
-x,1/2-y,1/2+z
1/2-x,1/2+y,1/2+z
1/2+x,1/2-y,1/2+z
loop_
_atom_site_type_symbol
_atom_site_label
_atom_site_fract_x
_atom_site_fract_y
_atom_site_fract_z
Si Si1 0.413797 0.382256 0.284100
Si Si2 0.912114 0.453349 0.105717
Si Si3 0.579793 0.303469 0.893908
Si Si4 0.582888 0.548428 0.542857
Si Si5 0.417662 0.778529 0.677832
Si Si6 0.413675 0.587435 0.803086
O O1 0.250000 0.391130 0.242320
O O2 0.518315 0.407202 0.176237
O O3 0.435400 0.409131 0.429953
O O4 0.436270 0.325236 0.277181
O O5 0.750000 0.458607 0.148913
O O6 0.000000 0.500000 0.146562
O O7 0.918136 0.445308 0.940510
O O8 0.750000 0.300073 0.914538
O O9 0.540314 0.268143 0.766720
O O10 0.547935 0.358425 0.850782
O O11 0.502309 0.287844 0.035696
O O12 0.500000 0.500000 0.500193
O O13 0.750000 0.538255 0.556263
O O14 0.516014 0.566749 0.686531
O O15 0.250000 0.774804 0.645386
O O16 0.250000 0.588287 0.752680
#
# Coordination Sequence:
#
# PCOD9364953 Si02
#       6
#     8   8   8   8   8   8
#     4  10  22  40  60  87 121 156 198 246 295 352
#     4  11  22  37  60  88 116 154 196 243 298 353
#     4  10  22  41  63  91 125 157 198 247 296 355
#     4  11  24  40  60  88 120 160 202 247 298 354
#     4  10  22  40  63  91 123 158 198 245 298 355
#     4  10  22  40  60  87 121 157 198 246 295 351
#
# _framework density 19.040493000000001
#
# number of rings (size 3 to 8) (size 9 to 14) (size 15 to 20)
#    0.000    1.667    1.667    2.000    2.333    6.667 
#    0.000    0.000    0.000    0.000    0.000    0.000 
#    0.000    0.000    0.000    0.000    0.000    0.000 
#
# Total GULP energy -134079.249864 kJ/mol
# GULP energy per Si atom -5586.635411 kJ/mol
# Density = 1.899716 g / cm^3
# Si number density = 19.040493 Si / 1000 Ang^3
#
#
#
# Elastic Constant Matrix: (Units=GPa)
#
#
# Indices 1 2 3 4 5 6 
#
# 1 59.2477 16.7885 29.5927 0.0000 0.0000 0.0000
# 2 16.7885 69.3625 -1.2240 0.0000 0.0000 0.0000
# 3 29.5927 -1.2240 54.4468 0.0000 0.0000 0.0000
# 4 0.0000 0.0000 0.0000 23.6728 0.0000 0.0000
# 5 0.0000 0.0000 0.0000 0.0000 -12.4909 0.0000
# 6 0.0000 0.0000 0.0000 0.0000 0.0000 24.2788
#
#
#
# Elastic Compliance Matrix: (Units=1/GPa)
#
#
# Indices 1 2 3 4 5 6 
#
# 1 0.025793 -0.006493 -0.014165 0.000000 0.000000 0.000000
# 2 -0.006493 0.016057 0.003890 0.000000 0.000000 0.000000
# 3 -0.014165 0.003890 0.026153 0.000000 0.000000 0.000000
# 4 0.000000 0.000000 0.000000 0.042243 0.000000 0.000000
# 5 0.000000 0.000000 0.000000 0.000000 -0.080058 0.000000
# 6 0.000000 0.000000 0.000000 0.000000 0.000000 0.041188
#
#
# Mechanical properties :
#
#
# Convention : Reuss Voigt Hill
#
# Bulk Modulus (GPa) = 29.01287 30.37460 29.69374
# Shear Modulus (GPa) = 42.95501 16.28546 29.62023
#
# Velocity S-wave (km/s) = 4.75487 2.92773 3.94844
# Velocity P-wave (km/s) = 6.73911 5.23604 6.03455
#
# Compressibility (1/GPa) = 0.03446746
#
# Stress axis : x y z
#
# Youngs Moduli (GPa) = 38.76989 62.27726 38.23663
#
# Poissons Ratio (x) = 0.40436 0.54162
# Poissons Ratio (y) = 0.25173 -0.14874
# Poissons Ratio (z) = 0.54918 -0.24226
#
# Static dielectric constant tensor:
#      x y z
#    x 1.641500 0.000000 0.000000 
#    y 0.000000 1.693260 0.000000 
#    z 0.000000 0.000000 1.638300 
# 
# From -- ./inp_files/4581.got.cif
#   From: 2010.05.17/outbox.cif.g08.bks.cpg/sg40_3_cif.got.tgz:4581.got - 2010.06.03 18:35:42.
