data_PCOD9364822
_publ_section_title
;
Structure prediction by ZEFSAII (Michael W. Deem and Ramdas Pophale) SiO2 
 PCOD9364822
Probable space group: A M A 2
;
_chemical_formula_sum "Si O2"
_cell_formula_units_Z 36
_cell_length_a 14.142983
_cell_length_b 17.863429
_cell_length_c 5.301651
_cell_angle_alpha 90.000000
_cell_angle_beta 90.000000
_cell_angle_gamma 90.000000
_cell_volume 1339.420627
_symmetry_space_group_name_H-M "A M A 2"
_symmetry_group_IT_number 40
_symmetry_cell_setting 'orthorhombic'
loop_
_space_group_symop_operation_xyz
x,y,z
-x,-y,z
1/2-x,y,z
1/2+x,-y,z
x,1/2+y,1/2+z
-x,1/2-y,1/2+z
1/2-x,1/2+y,1/2+z
1/2+x,1/2-y,1/2+z
loop_
_atom_site_type_symbol
_atom_site_label
_atom_site_fract_x
_atom_site_fract_y
_atom_site_fract_z
Si Si1 0.561510 0.424400 0.019470
Si Si2 0.359999 0.796419 0.248512
Si Si3 0.750000 0.500000 0.237469
Si Si4 0.640001 0.296421 0.726419
Si Si5 0.438491 0.424400 0.455467
O O1 0.500000 0.500000 0.981026
O O2 0.665192 0.445751 0.125378
O O3 0.500000 0.384077 0.237467
O O4 0.589259 0.374360 0.780428
O O5 0.250000 0.812599 0.302733
O O6 0.334808 0.945752 0.849559
O O7 0.365350 0.749999 0.987466
O O8 0.410741 0.874358 0.194505
O O9 0.750000 0.312601 0.672200
O O10 0.603544 0.250001 0.487466
O O11 0.500000 0.500000 0.493910
#
# Coordination Sequence:
#
# PCOD9364822 Si02
#       5
#     8   8   4   8   8
#     4   9  18  35  69 117 161 221 273 345 428 492
#     4  10  21  41  72 108 158 215 277 342 410 496
#     4   8  14  32  64 104 170 202 278 336 400 530
#     4  10  21  41  72 108 158 215 277 342 410 496
#     4   9  18  35  69 117 161 221 273 345 428 492
#
# _framework density 26.877291
#
# number of rings (size 3 to 8) (size 9 to 14) (size 15 to 20)
#    0.000    3.111    2.222    0.000    0.000    0.000 
#    0.000    6.667    0.000   21.333    0.000   38.889 
#    0.000    5.333    0.000    4.889    0.000    0.000 
#
# Total GULP energy -100297.865943 kJ/mol
# GULP energy per Si atom -5572.103664 kJ/mol
# Density = 2.681612 g / cm^3
# Si number density = 26.877291 Si / 1000 Ang^3
#
#
#
# Elastic Constant Matrix: (Units=GPa)
#
#
# Indices 1 2 3 4 5 6 
#
# 1 279.3792 79.8254 52.3299 0.0000 0.0000 0.0000
# 2 79.8254 160.2957 79.8635 0.0000 0.0000 0.0000
# 3 52.3299 79.8635 188.3777 0.0000 0.0000 0.0000
# 4 0.0000 0.0000 0.0000 57.4070 0.0000 0.0000
# 5 0.0000 0.0000 0.0000 0.0000 22.9776 0.0000
# 6 0.0000 0.0000 0.0000 0.0000 0.0000 28.2566
#
#
#
# Elastic Compliance Matrix: (Units=1/GPa)
#
#
# Indices 1 2 3 4 5 6 
#
# 1 0.004192 -0.001911 -0.000354 0.000000 0.000000 0.000000
# 2 -0.001911 0.008780 -0.003192 0.000000 0.000000 0.000000
# 3 -0.000354 -0.003192 0.006760 0.000000 0.000000 0.000000
# 4 0.000000 0.000000 0.000000 0.017419 0.000000 0.000000
# 5 0.000000 0.000000 0.000000 0.000000 0.043521 0.000000
# 6 0.000000 0.000000 0.000000 0.000000 0.000000 0.035390
#
#
# Mechanical properties :
#
#
# Convention : Reuss Voigt Hill
#
# Bulk Modulus (GPa) = 113.39964 116.89890 115.14927
# Shear Modulus (GPa) = 38.48673 49.46385 43.97529
#
# Velocity S-wave (km/s) = 3.78821 4.29459 4.04932
# Velocity P-wave (km/s) = 7.83691 8.25708 8.04974
#
# Compressibility (1/GPa) = 0.00881837
#
# Stress axis : x y z
#
# Youngs Moduli (GPa) = 238.56562 113.89258 147.92948
#
# Poissons Ratio (x) = 0.21764 0.05241
# Poissons Ratio (y) = 0.45588 0.47213
# Poissons Ratio (z) = 0.08452 0.36350
#
# Static dielectric constant tensor:
#      x y z
#    x 2.010760 0.000000 0.000000 
#    y 0.000000 2.227130 0.000000 
#    z 0.000000 0.000000 2.447380 
# 
# From -- ./inp_files/12782.got.cif
#   From: 2010.05.17/outbox.cif.g08.bks.cpg/sg40_7_cif.got.tgz:12782.got - 2010.06.03 18:35:42.
