data_PCOD9364260
_publ_section_title
;
Structure prediction by ZEFSAII (Michael W. Deem and Ramdas Pophale) SiO2 
 PCOD9364260
Probable space group: A M A 2
;
_chemical_formula_sum "Si O2"
_cell_formula_units_Z 56
_cell_length_a 14.824464
_cell_length_b 5.245755
_cell_length_c 28.020378
_cell_angle_alpha 90.000000
_cell_angle_beta 90.000000
_cell_angle_gamma 90.000000
_cell_volume 2179.018878
_symmetry_space_group_name_H-M "A M A 2"
_symmetry_group_IT_number 40
_symmetry_cell_setting 'orthorhombic'
loop_
_space_group_symop_operation_xyz
x,y,z
-x,-y,z
1/2-x,y,z
1/2+x,-y,z
x,1/2+y,1/2+z
-x,1/2-y,1/2+z
1/2-x,1/2+y,1/2+z
1/2+x,1/2-y,1/2+z
loop_
_atom_site_type_symbol
_atom_site_label
_atom_site_fract_x
_atom_site_fract_y
_atom_site_fract_z
Si Si1 0.100452 0.895229 0.497040
Si Si2 0.852223 0.607334 0.441761
Si Si3 0.250000 0.535495 0.720283
Si Si4 0.593338 0.111819 0.677589
Si Si5 0.361506 0.724676 0.838081
Si Si6 0.148100 0.720131 0.293128
Si Si7 0.848459 0.847746 0.585328
Si Si8 0.500000 0.000000 0.104593
O O1 0.150116 0.123526 0.468987
O O2 0.140033 0.910016 0.550626
O O3 0.104551 0.624555 0.470986
O O4 0.000000 0.000000 0.497737
O O5 0.750000 0.517781 0.433860
O O6 0.890086 0.674866 0.389628
O O7 0.329544 0.741944 0.706177
O O8 0.171251 0.334562 0.741407
O O9 0.554507 0.314499 0.639218
O O10 0.500000 0.000000 0.699973
O O11 0.639625 0.909641 0.641207
O O12 0.250000 0.696599 0.835594
O O13 0.390424 0.941366 0.800561
O O14 0.395787 0.446637 0.823371
O O15 0.250000 0.689110 0.314091
O O16 0.750000 0.733922 0.577782
O O17 0.929771 0.659664 0.573817
#
# Coordination Sequence:
#
# PCOD9364260 Si02
#       8
#     8   8   4   8   8   8   8   4
#     4  12  26  43  63 100 142 186 236 296 357 413
#     4  11  23  40  69  99 128 176 237 293 342 425
#     4  10  20  38  68 100 130 176 236 280 350 426
#     4  10  22  44  62  98 139 180 226 289 351 417
#     4   9  16  35  58  95 128 159 214 281 335 401
#     4   8  17  31  57  97 123 164 214 273 337 408
#     4  11  24  43  69  95 139 188 237 284 353 426
#     4  10  24  42  64  98 132 192 218 296 352 408
#
# _framework density 25.699639999999999
#
# number of rings (size 3 to 8) (size 9 to 14) (size 15 to 20)
#    0.429    1.429    0.714    3.857    5.000    2.286 
#   10.286    0.000    0.000    3.429    1.857    0.000 
#    0.000    0.000    0.000    0.000    0.000    0.000 
#
# Total GULP energy -155980.822871 kJ/mol
# GULP energy per Si atom -5570.743674 kJ/mol
# Density = 2.564115 g / cm^3
# Si number density = 25.699640 Si / 1000 Ang^3
#
#
#
# Elastic Constant Matrix: (Units=GPa)
#
#
# Indices 1 2 3 4 5 6 
#
# 1 96.0929 -14.2720 6.7053 0.0000 0.0000 0.0000
# 2 -14.2720 88.9087 26.3266 0.0000 0.0000 0.0000
# 3 6.7053 26.3266 103.5638 0.0000 0.0000 0.0000
# 4 0.0000 0.0000 0.0000 39.6498 0.0000 0.0000
# 5 0.0000 0.0000 0.0000 0.0000-1572.1771 0.0000
# 6 0.0000 0.0000 0.0000 0.0000 0.0000 13.7756
#
#
#
# Elastic Compliance Matrix: (Units=1/GPa)
#
#
# Indices 1 2 3 4 5 6 
#
# 1 0.010804 0.002100 -0.001233 0.000000 0.000000 0.000000
# 2 0.002100 0.012571 -0.003332 0.000000 0.000000 0.000000
# 3 -0.001233 -0.003332 0.010583 0.000000 0.000000 0.000000
# 4 0.000000 0.000000 0.000000 0.025221 0.000000 0.000000
# 5 0.000000 0.000000 0.000000 0.000000 -0.000636 0.000000
# 6 0.000000 0.000000 0.000000 0.000000 0.000000 0.072592
#
#
# Mechanical properties :
#
#
# Convention : Reuss Voigt Hill
#
# Bulk Modulus (GPa) = 34.44997 36.23169 35.34083
# Shear Modulus (GPa) = 34.30732 -285.76331 -125.72799
#
# Velocity S-wave (km/s) = 3.65764 -10.55627 -7.00202
# Velocity P-wave (km/s) = 5.59211 11.59531 7.18260
#
# Compressibility (1/GPa) = 0.02902760
#
# Stress axis : x y z
#
# Youngs Moduli (GPa) = 92.55413 79.54793 94.49439
#
# Poissons Ratio (x) = -0.16702 0.11654
# Poissons Ratio (y) = -0.19432 0.31482
# Poissons Ratio (z) = 0.11414 0.26502
#
# Static dielectric constant tensor:
#      x y z
#    x 3.753060 0.000000 0.000000 
#    y 0.000000 2.044620 0.000000 
#    z 0.000000 0.000000 2.090030 
# 
# From -- ./inp_files/26624.got.cif
#   From: 2010.05.17/outbox.cif.g08.bks.cpg/sg40_14_cif.got.tgz:26624.got - 2010.06.03 18:35:42.
