data_PCOD9364338
_publ_section_title
;
Structure prediction by ZEFSAII (Michael W. Deem and Ramdas Pophale) SiO2 
 PCOD9364338
Probable space group: A M A 2
;
_chemical_formula_sum "Si O2"
_cell_formula_units_Z 40
_cell_length_a 9.882932
_cell_length_b 21.357115
_cell_length_c 8.196828
_cell_angle_alpha 90.000000
_cell_angle_beta 90.000000
_cell_angle_gamma 90.000000
_cell_volume 1730.111988
_symmetry_space_group_name_H-M "A M A 2"
_symmetry_group_IT_number 40
_symmetry_cell_setting 'orthorhombic'
loop_
_space_group_symop_operation_xyz
x,y,z
-x,-y,z
1/2-x,y,z
1/2+x,-y,z
x,1/2+y,1/2+z
-x,1/2-y,1/2+z
1/2-x,1/2+y,1/2+z
1/2+x,1/2-y,1/2+z
loop_
_atom_site_type_symbol
_atom_site_label
_atom_site_fract_x
_atom_site_fract_y
_atom_site_fract_z
Si Si1 0.750000 0.633389 0.242651
Si Si2 0.000000 0.500000 0.715847
Si Si3 0.960084 0.399551 0.361991
Si Si4 0.250000 0.195884 0.745423
Si Si5 0.750000 0.273334 0.879508
Si Si6 0.750000 0.498577 0.469688
Si Si7 0.471591 0.133896 0.240656
Si Si8 0.750000 0.176594 0.376204
O O1 0.617465 0.597902 0.310512
O O2 0.750000 0.703489 0.311935
O O3 0.750000 0.641850 0.049524
O O4 0.870752 0.517748 0.603710
O O5 0.957127 0.436945 0.809660
O O6 0.882810 0.347181 0.256212
O O7 0.868736 0.461180 0.361997
O O8 0.945327 0.374482 0.548373
O O9 0.250000 0.230209 0.573567
O O10 0.250000 0.247902 0.887715
O O11 0.624672 0.314491 0.817760
O O12 0.620088 0.156766 0.276627
#
# Coordination Sequence:
#
# PCOD9364338 Si02
#       8
#     4   4   8   4   4   4   8   4
#     4  12  24  40  61  93 138 176 213 270 339 411
#     4  10  20  40  66  96 126 168 226 286 324 382
#     4  10  21  40  63  90 127 168 213 269 327 397
#     4  11  22  40  61  91 134 171 213 269 331 406
#     4  12  24  39  63  96 132 179 218 270 339 402
#     4   9  20  36  65  96 121 159 214 273 325 371
#     4  11  22  39  64  92 123 168 225 276 327 388
#     4  12  24  37  60  94 127 173 220 268 332 404
#
# _framework density 23.119890000000002
#
# number of rings (size 3 to 8) (size 9 to 14) (size 15 to 20)
#    0.000    1.200    0.000    9.000    0.000    2.400 
#    0.000    0.000    0.000   49.200    0.000    0.000 
#    0.000    0.000    0.000    0.000    0.000    0.000 
#
# Total GULP energy -111397.893045 kJ/mol
# GULP energy per Si atom -5569.894652 kJ/mol
# Density = 2.306727 g / cm^3
# Si number density = 23.119890 Si / 1000 Ang^3
#
#
#
# Elastic Constant Matrix: (Units=GPa)
#
#
# Indices 1 2 3 4 5 6 
#
# 1 172.2712 34.3268 9.3056 0.0000 0.0000 0.0000
# 2 34.3268 135.4905 14.7386 0.0000 0.0000 0.0000
# 3 9.3056 14.7386 48.6308 0.0000 0.0000 0.0000
# 4 0.0000 0.0000 0.0000 32.1081 0.0000 0.0000
# 5 0.0000 0.0000 0.0000 0.0000 32.1417 0.0000
# 6 0.0000 0.0000 0.0000 0.0000 0.0000 12.9581
#
#
#
# Elastic Compliance Matrix: (Units=1/GPa)
#
#
# Indices 1 2 3 4 5 6 
#
# 1 0.006138 -0.001476 -0.000727 0.000000 0.000000 0.000000
# 2 -0.001476 0.007987 -0.002138 0.000000 0.000000 0.000000
# 3 -0.000727 -0.002138 0.021350 0.000000 0.000000 0.000000
# 4 0.000000 0.000000 0.000000 0.031145 0.000000 0.000000
# 5 0.000000 0.000000 0.000000 0.000000 0.031112 0.000000
# 6 0.000000 0.000000 0.000000 0.000000 0.000000 0.077172
#
#
# Mechanical properties :
#
#
# Convention : Reuss Voigt Hill
#
# Bulk Modulus (GPa) = 37.32359 52.57048 44.94704
# Shear Modulus (GPa) = 25.97152 35.30967 30.64059
#
# Velocity S-wave (km/s) = 3.35526 3.91223 3.64440
# Velocity P-wave (km/s) = 5.58471 6.57229 6.09852
#
# Compressibility (1/GPa) = 0.02679270
#
# Stress axis : x y z
#
# Youngs Moduli (GPa) = 162.91436 125.20129 46.83773
#
# Poissons Ratio (x) = 0.18480 0.03406
# Poissons Ratio (y) = 0.24046 0.10015
# Poissons Ratio (z) = 0.11848 0.26771
#
# Static dielectric constant tensor:
#      x y z
#    x 1.841020 0.000000 0.000000 
#    y 0.000000 1.968650 0.000000 
#    z 0.000000 0.000000 1.841730 
# 
# From -- ./inp_files/4312.got.cif
#   From: 2010.05.17/outbox.cif.g08.bks.cpg/sg40_3_cif.got.tgz:4312.got - 2010.06.03 18:35:42.
