data_PCOD9364280
_publ_section_title
;
Structure prediction by ZEFSAII (Michael W. Deem and Ramdas Pophale) SiO2 
 PCOD9364280
Probable space group: A M A 2
;
_chemical_formula_sum "Si O2"
_cell_formula_units_Z 64
_cell_length_a 25.557011
_cell_length_b 14.201082
_cell_length_c 7.536226
_cell_angle_alpha 90.000000
_cell_angle_beta 90.000000
_cell_angle_gamma 90.000000
_cell_volume 2735.176830
_symmetry_space_group_name_H-M "A M A 2"
_symmetry_group_IT_number 40
_symmetry_cell_setting 'orthorhombic'
loop_
_space_group_symop_operation_xyz
x,y,z
-x,-y,z
1/2-x,y,z
1/2+x,-y,z
x,1/2+y,1/2+z
-x,1/2-y,1/2+z
1/2-x,1/2+y,1/2+z
1/2+x,1/2-y,1/2+z
loop_
_atom_site_type_symbol
_atom_site_label
_atom_site_fract_x
_atom_site_fract_y
_atom_site_fract_z
Si Si1 0.890311 0.897286 0.952400
Si Si2 0.094250 0.395649 0.406287
Si Si3 0.694237 0.708530 0.484206
Si Si4 0.308072 0.229985 0.082458
Si Si5 0.481027 0.895760 0.396694
Si Si6 0.367238 0.904101 0.494213
Si Si7 0.689584 0.920131 0.625957
Si Si8 0.507872 0.297125 0.534256
O O1 0.850399 0.912662 0.789555
O O2 0.915528 0.999218 0.976243
O O3 0.850794 0.852463 0.095481
O O4 0.938484 0.825507 0.934523
O O5 0.143841 0.354469 0.512540
O O6 0.109481 0.397364 0.197093
O O7 0.043956 0.332350 0.436970
O O8 0.750000 0.668692 0.547585
O O9 0.696899 0.720746 0.271811
O O10 0.689400 0.815146 0.549695
O O11 0.250000 0.199266 0.024888
O O12 0.332241 0.311702 0.959004
O O13 0.418621 0.903995 0.374991
O O14 0.493273 0.815768 0.542302
O O15 0.507261 0.852592 0.220375
O O16 0.500000 0.000000 0.441992
O O17 0.333031 0.998908 0.497126
O O18 0.750000 0.944629 0.672064
#
# Coordination Sequence:
#
# PCOD9364280 Si02
#       8
#     8   8   8   8   8   8   8   8
#     4  11  23  41  64  97 135 176 235 288 359 428
#     4  10  23  40  67  92 131 183 226 292 347 424
#     4   9  21  39  61  93 130 174 224 281 352 421
#     4  10  20  39  63  90 130 174 222 286 351 418
#     4  12  28  47  73 104 142 194 240 296 364 430
#     4  10  22  42  64  97 131 179 236 279 363 427
#     4  10  22  40  67 101 137 179 234 296 361 438
#     4  12  27  46  69 102 143 182 239 296 358 437
#
# _framework density 23.398852999999999
#
# number of rings (size 3 to 8) (size 9 to 14) (size 15 to 20)
#    0.000    1.500    1.250    2.625    5.250    7.500 
#    0.000    0.625    0.000    3.750    0.000    0.000 
#    0.000    0.000    0.000    0.000    0.000    0.000 
#
# Total GULP energy -178868.692310 kJ/mol
# GULP energy per Si atom -5589.646635 kJ/mol
# Density = 2.334560 g / cm^3
# Si number density = 23.398853 Si / 1000 Ang^3
#
#
#
# Elastic Constant Matrix: (Units=GPa)
#
#
# Indices 1 2 3 4 5 6 
#
# 1 133.9961 41.5930 25.7440 0.0000 0.0000 0.0000
# 2 41.5930 134.6044 19.9627 0.0000 0.0000 0.0000
# 3 25.7440 19.9627 16.2727 0.0000 0.0000 0.0000
# 4 0.0000 0.0000 0.0000 23.2933 0.0000 0.0000
# 5 0.0000 0.0000 0.0000 0.0000 26.6220 0.0000
# 6 0.0000 0.0000 0.0000 0.0000 0.0000 39.2631
#
#
#
# Elastic Compliance Matrix: (Units=1/GPa)
#
#
# Indices 1 2 3 4 5 6 
#
# 1 0.010827 -0.000984 -0.015922 0.000000 0.000000 0.000000
# 2 -0.000984 0.009171 -0.009693 0.000000 0.000000 0.000000
# 3 -0.015922 -0.009693 0.098532 0.000000 0.000000 0.000000
# 4 0.000000 0.000000 0.000000 0.042931 0.000000 0.000000
# 5 0.000000 0.000000 0.000000 0.000000 0.037563 0.000000
# 6 0.000000 0.000000 0.000000 0.000000 0.000000 0.025469
#
#
# Mechanical properties :
#
#
# Convention : Reuss Voigt Hill
#
# Bulk Modulus (GPa) = 15.30643 51.05251 33.17947
# Shear Modulus (GPa) = 16.69622 31.00725 23.85174
#
# Velocity S-wave (km/s) = 2.67413 3.64423 3.19620
# Velocity P-wave (km/s) = 4.01128 6.29070 5.27557
#
# Compressibility (1/GPa) = 0.06533203
#
# Stress axis : x y z
#
# Youngs Moduli (GPa) = 92.35815 109.04045 10.14898
#
# Poissons Ratio (x) = 0.10734 0.16159
# Poissons Ratio (y) = 0.09092 0.09838
# Poissons Ratio (z) = 1.47049 1.05694
#
# Static dielectric constant tensor:
#      x y z
#    x 1.875220 0.000000 0.000000 
#    y 0.000000 1.878760 0.000000 
#    z 0.000000 0.000000 1.955060 
# 
# From -- ./inp_files/8930.got.cif
#   From: 2010.05.17/outbox.cif.g08.bks.cpg/sg40_5_cif.got.tgz:8930.got - 2010.06.03 18:35:42.
