data_PCOD9364186
_publ_section_title
;
Structure prediction by ZEFSAII (Michael W. Deem and Ramdas Pophale) SiO2 
 PCOD9364186
Probable space group: A M A 2
;
_chemical_formula_sum "Si O2"
_cell_formula_units_Z 64
_cell_length_a 8.611417
_cell_length_b 25.758674
_cell_length_c 15.193703
_cell_angle_alpha 90.000000
_cell_angle_beta 90.000000
_cell_angle_gamma 90.000000
_cell_volume 3370.247192
_symmetry_space_group_name_H-M "A M A 2"
_symmetry_group_IT_number 40
_symmetry_cell_setting 'orthorhombic'
loop_
_space_group_symop_operation_xyz
x,y,z
-x,-y,z
1/2-x,y,z
1/2+x,-y,z
x,1/2+y,1/2+z
-x,1/2-y,1/2+z
1/2-x,1/2+y,1/2+z
1/2+x,1/2-y,1/2+z
loop_
_atom_site_type_symbol
_atom_site_label
_atom_site_fract_x
_atom_site_fract_y
_atom_site_fract_z
Si Si1 0.065948 0.274306 0.754640
Si Si2 0.061667 0.867337 0.951145
Si Si3 0.065200 0.058100 0.098505
Si Si4 0.066312 0.335774 0.263061
Si Si5 0.064300 0.649796 0.070211
Si Si6 0.437822 0.390176 0.775154
Si Si7 0.564928 0.236262 0.045189
Si Si8 0.064417 0.443342 0.955137
O O1 0.250000 0.266320 0.771250
O O2 0.017129 0.330158 0.791222
O O3 0.045376 0.276467 0.648635
O O4 0.972196 0.224267 0.785714
O O5 0.250000 0.868166 0.958396
O O6 0.003803 0.811839 0.989297
O O7 0.994644 0.912135 0.012122
O O8 0.021935 0.869351 0.848191
O O9 0.250000 0.056749 0.099042
O O10 0.006075 0.088984 0.184317
O O11 0.000000 0.000000 0.101764
O O12 0.250000 0.340809 0.247760
O O13 0.977793 0.349373 0.173571
O O14 0.250000 0.648590 0.061205
O O15 0.004188 0.705260 0.031820
O O16 0.992415 0.600890 0.021521
O O17 0.250000 0.390786 0.767720
O O18 0.485774 0.425649 0.857103
O O19 0.750000 0.238546 0.028884
O O20 0.250000 0.444935 0.956196
O O21 0.000000 0.500000 0.976271
#
# Coordination Sequence:
#
# PCOD9364186 Si02
#       8
#     8   8   8   8   8   8   8   8
#     4   9  17  33  56  82 119 161 194 232 289 349
#     4  10  20  38  60  85 121 161 198 244 296 350
#     4  12  25  40  61  88 119 159 202 248 294 354
#     4  10  21  35  58  89 122 157 198 248 296 352
#     4  10  21  39  62  85 118 160 198 245 302 357
#     4  10  21  39  61  87 122 160 196 242 295 351
#     4   8  15  31  56  82 113 154 191 228 285 346
#     4  11  24  41  62  88 117 154 202 253 300 354
#
# _framework density 18.989704
#
# number of rings (size 3 to 8) (size 9 to 14) (size 15 to 20)
#    0.000    2.000    1.250    3.375    1.750    3.500 
#    0.000    1.250    0.000    3.000    0.000    0.000 
#    0.000    0.000    0.000    0.000    0.000    0.000 
#
# Total GULP energy -178704.782011 kJ/mol
# GULP energy per Si atom -5584.524438 kJ/mol
# Density = 1.894648 g / cm^3
# Si number density = 18.989704 Si / 1000 Ang^3
#
#
#
# Elastic Constant Matrix: (Units=GPa)
#
#
# Indices 1 2 3 4 5 6 
#
# 1 27.3175 16.4854 14.1602 0.0000 0.0000 0.0000
# 2 16.4854 97.3688 26.3933 0.0000 0.0000 0.0000
# 3 14.1602 26.3933 49.1944 0.0000 0.0000 0.0000
# 4 0.0000 0.0000 0.0000 29.8833 0.0000 0.0000
# 5 0.0000 0.0000 0.0000 0.0000 18.3156 0.0000
# 6 0.0000 0.0000 0.0000 0.0000 0.0000 28.1951
#
#
#
# Elastic Compliance Matrix: (Units=1/GPa)
#
#
# Indices 1 2 3 4 5 6 
#
# 1 0.044859 -0.004792 -0.010341 0.000000 0.000000 0.000000
# 2 -0.004792 0.012530 -0.005343 0.000000 0.000000 0.000000
# 3 -0.010341 -0.005343 0.026171 0.000000 0.000000 0.000000
# 4 0.000000 0.000000 0.000000 0.033464 0.000000 0.000000
# 5 0.000000 0.000000 0.000000 0.000000 0.054598 0.000000
# 6 0.000000 0.000000 0.000000 0.000000 0.000000 0.035467
#
#
# Mechanical properties :
#
#
# Convention : Reuss Voigt Hill
#
# Bulk Modulus (GPa) = 23.47040 31.99540 27.73290
# Shear Modulus (GPa) = 19.06625 23.06825 21.06725
#
# Velocity S-wave (km/s) = 3.17208 3.48915 3.33438
# Velocity P-wave (km/s) = 5.07962 5.75479 5.42771
#
# Compressibility (1/GPa) = 0.04260685
#
# Stress axis : x y z
#
# Youngs Moduli (GPa) = 22.29216 79.80943 38.21045
#
# Poissons Ratio (x) = 0.38243 0.39515
# Poissons Ratio (y) = 0.10682 0.20416
# Poissons Ratio (z) = 0.23053 0.42643
#
# Static dielectric constant tensor:
#      x y z
#    x 1.642910 0.000000 0.000000 
#    y 0.000000 1.649420 0.000000 
#    z 0.000000 0.000000 1.655170 
# 
# From -- ./inp_files/15675.got.cif
#   From: 2010.05.17/outbox.cif.g08.bks.cpg/sg40_8_cif.got.tgz:15675.got - 2010.06.03 18:35:42.
