data_PCOD9364550
_publ_section_title
;
Structure prediction by ZEFSAII (Michael W. Deem and Ramdas Pophale) SiO2 
 PCOD9364550
Probable space group: A M A 2
;
_chemical_formula_sum "Si O2"
_cell_formula_units_Z 40
_cell_length_a 10.699064
_cell_length_b 10.084880
_cell_length_c 18.784326
_cell_angle_alpha 90.000000
_cell_angle_beta 90.000000
_cell_angle_gamma 90.000000
_cell_volume 2026.805794
_symmetry_space_group_name_H-M "A M A 2"
_symmetry_group_IT_number 40
_symmetry_cell_setting 'orthorhombic'
loop_
_space_group_symop_operation_xyz
x,y,z
-x,-y,z
1/2-x,y,z
1/2+x,-y,z
x,1/2+y,1/2+z
-x,1/2-y,1/2+z
1/2-x,1/2+y,1/2+z
1/2+x,1/2-y,1/2+z
loop_
_atom_site_type_symbol
_atom_site_label
_atom_site_fract_x
_atom_site_fract_y
_atom_site_fract_z
Si Si1 0.750000 0.877536 0.642510
Si Si2 0.750000 0.661406 0.186432
Si Si3 0.250000 0.649922 0.978108
Si Si4 0.750000 0.670289 0.971213
Si Si5 0.500000 0.000000 0.132731
Si Si6 0.750000 0.397367 0.587668
Si Si7 0.499099 0.159702 0.387335
Si Si8 0.985708 0.764829 0.728134
O O1 0.750000 0.814070 0.562738
O O2 0.870170 0.838803 0.690216
O O3 0.750000 0.036826 0.633368
O O4 0.750000 0.814817 0.161353
O O5 0.614893 0.653708 0.222451
O O6 0.250000 0.488936 0.980319
O O7 0.373547 0.691280 0.933050
O O8 0.621458 0.698040 0.930925
O O9 0.750000 0.773407 0.035293
O O10 0.624427 0.981951 0.086047
O O11 0.489038 0.871574 0.182670
O O12 0.517796 0.225886 0.310647
O O13 0.500000 0.000000 0.377190
#
# Coordination Sequence:
#
# PCOD9364550 Si02
#       8
#     4   4   4   4   4   4   8   8
#     4  12  24  38  64 100 124 163 210 261 311 376
#     4  10  23  37  62  90 129 159 201 256 315 365
#     4  10  23  37  62  96 128 152 211 259 315 363
#     4  10  21  37  64  85 124 164 199 260 319 357
#     4  10  22  38  62  94 120 160 204 258 316 360
#     4  10  21  39  60  89 127 156 205 258 308 369
#     4  10  21  39  63  92 123 161 210 262 312 363
#     4  11  22  40  66  91 126 161 211 260 311 372
#
# _framework density 19.735488
#
# number of rings (size 3 to 8) (size 9 to 14) (size 15 to 20)
#    0.000    1.600    2.000    2.400    5.600    1.600 
#    0.000    0.000    8.800    0.000    0.000    0.000 
#    0.000    0.000    0.000    0.000    0.000    0.000 
#
# Total GULP energy -111373.616465 kJ/mol
# GULP energy per Si atom -5568.680823 kJ/mol
# Density = 1.969057 g / cm^3
# Si number density = 19.735488 Si / 1000 Ang^3
#
#
#
# Elastic Constant Matrix: (Units=GPa)
#
#
# Indices 1 2 3 4 5 6 
#
# 1 205.5136 34.4196 77.7332 0.0000 0.0000 0.0000
# 2 34.4196 55.8050 12.3017 0.0000 0.0000 0.0000
# 3 77.7332 12.3017 86.2779 0.0000 0.0000 0.0000
# 4 0.0000 0.0000 0.0000 28.8362 0.0000 0.0000
# 5 0.0000 0.0000 0.0000 0.0000 7.8118 0.0000
# 6 0.0000 0.0000 0.0000 0.0000 0.0000 -45.5666
#
#
#
# Elastic Compliance Matrix: (Units=1/GPa)
#
#
# Indices 1 2 3 4 5 6 
#
# 1 0.007974 -0.003443 -0.006694 0.000000 0.000000 0.000000
# 2 -0.003443 0.019987 0.000252 0.000000 0.000000 0.000000
# 3 -0.006694 0.000252 0.017585 0.000000 0.000000 0.000000
# 4 0.000000 0.000000 0.000000 0.034679 0.000000 0.000000
# 5 0.000000 0.000000 0.000000 0.000000 0.128012 0.000000
# 6 0.000000 0.000000 0.000000 0.000000 0.000000 -0.021946
#
#
# Mechanical properties :
#
#
# Convention : Reuss Voigt Hill
#
# Bulk Modulus (GPa) = 38.79266 66.27838 52.53552
# Shear Modulus (GPa) = 23.29338 13.09241 18.19290
#
# Velocity S-wave (km/s) = 3.43925 2.57844 3.03947
# Velocity P-wave (km/s) = 5.95569 6.52079 6.24463
#
# Compressibility (1/GPa) = 0.02577807
#
# Stress axis : x y z
#
# Youngs Moduli (GPa) = 125.40368 50.03129 56.86599
#
# Poissons Ratio (x) = 0.17225 0.38064
# Poissons Ratio (y) = 0.43175 -0.01433
# Poissons Ratio (z) = 0.83940 -0.01261
#
# Static dielectric constant tensor:
#      x y z
#    x 1.707240 0.000000 0.000000 
#    y 0.000000 1.736160 0.000000 
#    z 0.000000 0.000000 1.699930 
# 
# From -- ./inp_files/19923.got.cif
#   From: 2010.05.17/outbox.cif.g08.bks.cpg/sg40_10_cif.got.tgz:19923.got - 2010.06.03 18:35:42.
