data_PCOD9364539
_publ_section_title
;
Structure prediction by ZEFSAII (Michael W. Deem and Ramdas Pophale) SiO2 
 PCOD9364539
Probable space group: A M A 2
;
_chemical_formula_sum "Si O2"
_cell_formula_units_Z 40
_cell_length_a 13.865636
_cell_length_b 9.300428
_cell_length_c 14.242909
_cell_angle_alpha 90.000000
_cell_angle_beta 90.000000
_cell_angle_gamma 90.000000
_cell_volume 1836.713548
_symmetry_space_group_name_H-M "A M A 2"
_symmetry_group_IT_number 40
_symmetry_cell_setting 'orthorhombic'
loop_
_space_group_symop_operation_xyz
x,y,z
-x,-y,z
1/2-x,y,z
1/2+x,-y,z
x,1/2+y,1/2+z
-x,1/2-y,1/2+z
1/2-x,1/2+y,1/2+z
1/2+x,1/2-y,1/2+z
loop_
_atom_site_type_symbol
_atom_site_label
_atom_site_fract_x
_atom_site_fract_y
_atom_site_fract_z
Si Si1 0.856404 0.101625 0.298570
Si Si2 0.360595 0.512281 0.598187
Si Si3 0.492093 0.252500 0.076923
Si Si4 0.639967 0.845006 0.435174
Si Si5 0.976198 0.664887 0.289737
O O1 0.750000 0.165272 0.283132
O O2 0.934901 0.225070 0.304941
O O3 0.871312 0.989064 0.211996
O O4 0.857496 0.000779 0.387822
O O5 0.250000 0.488608 0.574737
O O6 0.398574 0.658149 0.550905
O O7 0.428096 0.376625 0.579189
O O8 0.465037 0.322751 0.176644
O O9 0.552435 0.352267 0.008725
O O10 0.750000 0.815742 0.469218
O O11 0.608425 0.727264 0.356128
O O12 0.000000 0.500000 0.314428
#
# Coordination Sequence:
#
# PCOD9364539 Si02
#       5
#     8   8   8   8   8
#     4   9  19  40  68  92 125 174 223 268 326 399
#     4   9  17  35  64  93 125 168 215 266 329 395
#     4  10  21  37  62  96 132 172 217 273 333 398
#     4  11  23  41  67  95 130 179 226 274 331 401
#     4  11  24  40  63  98 135 171 216 280 339 391
#
# _framework density 21.778027999999999
#
# number of rings (size 3 to 8) (size 9 to 14) (size 15 to 20)
#    0.000    2.000    2.000    1.200    2.800    3.200 
#    0.000    1.000    0.000    3.600    0.000    0.000 
#    0.000    0.000    0.000    0.000    0.000    0.000 
#
# Total GULP energy -111476.132776 kJ/mol
# GULP energy per Si atom -5573.806639 kJ/mol
# Density = 2.172846 g / cm^3
# Si number density = 21.778028 Si / 1000 Ang^3
#
#
#
# Elastic Constant Matrix: (Units=GPa)
#
#
# Indices 1 2 3 4 5 6 
#
# 1 87.9693 17.0578 10.2609 0.0000 0.0000 0.0000
# 2 17.0578 75.3215 1.1342 0.0000 0.0000 0.0000
# 3 10.2609 1.1342 52.0497 0.0000 0.0000 0.0000
# 4 0.0000 0.0000 0.0000 20.6422 0.0000 0.0000
# 5 0.0000 0.0000 0.0000 0.0000 25.9257 0.0000
# 6 0.0000 0.0000 0.0000 0.0000 0.0000 19.2680
#
#
#
# Elastic Compliance Matrix: (Units=1/GPa)
#
#
# Indices 1 2 3 4 5 6 
#
# 1 0.012168 -0.002720 -0.002339 0.000000 0.000000 0.000000
# 2 -0.002720 0.013889 0.000234 0.000000 0.000000 0.000000
# 3 -0.002339 0.000234 0.019669 0.000000 0.000000 0.000000
# 4 0.000000 0.000000 0.000000 0.048444 0.000000 0.000000
# 5 0.000000 0.000000 0.000000 0.000000 0.038572 0.000000
# 6 0.000000 0.000000 0.000000 0.000000 0.000000 0.051900
#
#
# Mechanical properties :
#
#
# Convention : Reuss Voigt Hill
#
# Bulk Modulus (GPa) = 27.72157 30.24958 28.98558
# Shear Modulus (GPa) = 24.23443 25.62635 24.93039
#
# Velocity S-wave (km/s) = 3.33947 3.43404 3.38709
# Velocity P-wave (km/s) = 5.25607 5.44459 5.35116
#
# Compressibility (1/GPa) = 0.03607299
#
# Stress axis : x y z
#
# Youngs Moduli (GPa) = 82.18283 71.99950 50.84266
#
# Poissons Ratio (x) = 0.19587 0.11895
# Poissons Ratio (y) = 0.22357 -0.01188
# Poissons Ratio (z) = 0.19227 -0.01682
#
# Static dielectric constant tensor:
#      x y z
#    x 1.831390 0.000000 0.000000 
#    y 0.000000 1.817570 0.000000 
#    z 0.000000 0.000000 1.934210 
# 
# From -- ./inp_files/16803.got.cif
#   From: 2010.05.17/outbox.cif.g08.bks.cpg/sg40_9_cif.got.tgz:16803.got - 2010.06.03 18:35:42.
