data_PCOD9364686
_publ_section_title
;
Structure prediction by ZEFSAII (Michael W. Deem and Ramdas Pophale) SiO2 
 PCOD9364686
Probable space group: A M A 2
;
_chemical_formula_sum "Si O2"
_cell_formula_units_Z 64
_cell_length_a 15.004092
_cell_length_b 17.963690
_cell_length_c 12.136985
_cell_angle_alpha 90.000000
_cell_angle_beta 90.000000
_cell_angle_gamma 90.000000
_cell_volume 3271.267700
_symmetry_space_group_name_H-M "A M A 2"
_symmetry_group_IT_number 40
_symmetry_cell_setting 'orthorhombic'
loop_
_space_group_symop_operation_xyz
x,y,z
-x,-y,z
1/2-x,y,z
1/2+x,-y,z
x,1/2+y,1/2+z
-x,1/2-y,1/2+z
1/2-x,1/2+y,1/2+z
1/2+x,1/2-y,1/2+z
loop_
_atom_site_type_symbol
_atom_site_label
_atom_site_fract_x
_atom_site_fract_y
_atom_site_fract_z
Si Si1 0.349247 0.670653 0.399260
Si Si2 0.853899 0.793334 0.640864
Si Si3 0.351504 0.337122 0.984418
Si Si4 0.853999 0.121885 0.121382
Si Si5 0.855257 0.583069 0.206699
Si Si6 0.972053 0.583146 0.416287
Si Si7 0.410904 0.460085 0.839041
Si Si8 0.856406 0.946336 0.550412
O O1 0.250000 0.638723 0.423253
O O2 0.355349 0.681703 0.267828
O O3 0.354415 0.751682 0.453887
O O4 0.435822 0.626188 0.434023
O O5 0.750000 0.787719 0.607212
O O6 0.887079 0.708086 0.635710
O O7 0.893624 0.863235 0.572650
O O8 0.250000 0.364333 0.954891
O O9 0.419625 0.386183 0.914225
O O10 0.362334 0.354662 0.112118
O O11 0.750000 0.124194 0.091864
O O12 0.862024 0.072199 0.231800
O O13 0.911577 0.088040 0.023868
O O14 0.750000 0.574472 0.235894
O O15 0.913762 0.606178 0.310474
O O16 0.885276 0.506707 0.143587
O O17 0.000000 0.500000 0.392398
O O18 0.500000 0.500000 0.799564
O O19 0.372580 0.518742 0.929520
O O20 0.750000 0.941971 0.564410
#
# Coordination Sequence:
#
# PCOD9364686 Si02
#       8
#     8   8   8   8   8   8   8   8
#     4  10  21  39  64  91 124 164 208 261 325 396
#     4   9  18  35  61  90 119 156 203 255 318 381
#     4   9  18  38  65  91 121 163 206 256 329 395
#     4  11  23  42  63  81 120 175 216 255 312 390
#     4   9  19  37  62  91 123 155 196 256 319 378
#     4  12  26  39  57  87 120 162 215 258 314 379
#     4  11  21  34  58  92 126 159 208 261 315 381
#     4   9  18  34  61  93 119 150 199 262 323 374
#
# _framework density 19.564281000000001
#
# number of rings (size 3 to 8) (size 9 to 14) (size 15 to 20)
#    0.000    2.000    1.250    3.375    0.000    8.000 
#    0.000    0.000    2.750    0.000    0.000    0.000 
#    0.000    0.000    0.000    0.000    0.000    0.000 
#
# Total GULP energy -178391.873877 kJ/mol
# GULP energy per Si atom -5574.746059 kJ/mol
# Density = 1.951975 g / cm^3
# Si number density = 19.564281 Si / 1000 Ang^3
#
#
#
# Elastic Constant Matrix: (Units=GPa)
#
#
# Indices 1 2 3 4 5 6 
#
# 1 82.1581 27.9929 39.4546 0.0000 0.0000 0.0000
# 2 27.9929 62.5904 25.5475 0.0000 0.0000 0.0000
# 3 39.4546 25.5475 97.0504 0.0000 0.0000 0.0000
# 4 0.0000 0.0000 0.0000 31.6431 0.0000 0.0000
# 5 0.0000 0.0000 0.0000 0.0000 27.5732 0.0000
# 6 0.0000 0.0000 0.0000 0.0000 0.0000 25.0208
#
#
#
# Elastic Compliance Matrix: (Units=1/GPa)
#
#
# Indices 1 2 3 4 5 6 
#
# 1 0.016510 -0.005203 -0.005342 0.000000 0.000000 0.000000
# 2 -0.005203 0.019540 -0.003028 0.000000 0.000000 0.000000
# 3 -0.005342 -0.003028 0.013273 0.000000 0.000000 0.000000
# 4 0.000000 0.000000 0.000000 0.031602 0.000000 0.000000
# 5 0.000000 0.000000 0.000000 0.000000 0.036267 0.000000
# 6 0.000000 0.000000 0.000000 0.000000 0.000000 0.039967
#
#
# Mechanical properties :
#
#
# Convention : Reuss Voigt Hill
#
# Bulk Modulus (GPa) = 45.09553 47.53210 46.31382
# Shear Modulus (GPa) = 26.08255 26.76769 26.42512
#
# Velocity S-wave (km/s) = 3.65522 3.70292 3.67915
# Velocity P-wave (km/s) = 6.39642 6.52918 6.46314
#
# Compressibility (1/GPa) = 0.02217514
#
# Stress axis : x y z
#
# Youngs Moduli (GPa) = 60.56926 51.17672 75.34141
#
# Poissons Ratio (x) = 0.26629 0.40249
# Poissons Ratio (y) = 0.31517 0.22816
# Poissons Ratio (z) = 0.32357 0.15498
#
# Static dielectric constant tensor:
#      x y z
#    x 1.690620 0.000000 0.000000 
#    y 0.000000 1.704970 0.000000 
#    z 0.000000 0.000000 1.669400 
# 
# From -- ./inp_files/12472.got.cif
#   From: 2010.05.17/outbox.cif.g08.bks.cpg/sg40_7_cif.got.tgz:12472.got - 2010.06.03 18:35:42.
