data_PCOD9364329
_publ_section_title
;
Structure prediction by ZEFSAII (Michael W. Deem and Ramdas Pophale) SiO2 
 PCOD9364329
Probable space group: A M A 2
;
_chemical_formula_sum "Si O2"
_cell_formula_units_Z 48
_cell_length_a 23.000618
_cell_length_b 7.133526
_cell_length_c 12.367835
_cell_angle_alpha 90.000000
_cell_angle_beta 90.000000
_cell_angle_gamma 90.000000
_cell_volume 2029.258792
_symmetry_space_group_name_H-M "A M A 2"
_symmetry_group_IT_number 40
_symmetry_cell_setting 'orthorhombic'
loop_
_space_group_symop_operation_xyz
x,y,z
-x,-y,z
1/2-x,y,z
1/2+x,-y,z
x,1/2+y,1/2+z
-x,1/2-y,1/2+z
1/2-x,1/2+y,1/2+z
1/2+x,1/2-y,1/2+z
loop_
_atom_site_type_symbol
_atom_site_label
_atom_site_fract_x
_atom_site_fract_y
_atom_site_fract_z
Si Si1 0.378194 0.577332 0.575470
Si Si2 0.250000 0.348464 0.308403
Si Si3 0.943689 0.788621 0.277675
Si Si4 0.750000 0.950566 0.147757
Si Si5 0.521929 0.285213 0.459059
Si Si6 0.000000 0.500000 0.143190
Si Si7 0.750000 0.395019 0.096852
Si Si8 0.652128 0.771592 0.454504
O O1 0.420834 0.592765 0.677822
O O2 0.311112 0.624787 0.600289
O O3 0.409669 0.703491 0.484954
O O4 0.377136 0.363425 0.540364
O O5 0.250000 0.131794 0.268366
O O6 0.250000 0.477201 0.202854
O O7 0.305465 0.364713 0.384545
O O8 0.896423 0.828511 0.369977
O O9 0.004008 0.799555 0.343463
O O10 0.949289 0.579855 0.222019
O O11 0.750000 0.174982 0.134170
O O12 0.500000 0.500000 0.459907
O O13 0.492927 0.169367 0.557548
O O14 0.693364 0.413095 0.019831
#
# Coordination Sequence:
#
# PCOD9364329 Si02
#       8
#     8   4   8   4   8   4   4   8
#     4  10  21  40  68  95 134 177 219 285 330 396
#     4  11  21  41  69  92 131 182 215 275 357 384
#     4  11  20  41  66  91 135 178 215 285 338 393
#     4  10  20  42  64  96 138 166 226 282 324 396
#     4  11  22  43  65  95 135 179 223 277 348 396
#     4  10  24  40  62  98 130 166 236 270 332 416
#     4   9  23  39  63  98 129 172 231 269 325 414
#     4  10  20  40  64  93 133 170 223 278 328 401
#
# _framework density 23.653956000000001
#
# number of rings (size 3 to 8) (size 9 to 14) (size 15 to 20)
#    0.000    1.667    4.167    0.500    0.000    1.333 
#    6.000   13.333    0.000    0.000    0.000    0.000 
#    0.000    0.000    0.000    0.000    0.000    0.000 
#
# Total GULP energy -133818.633922 kJ/mol
# GULP energy per Si atom -5575.776413 kJ/mol
# Density = 2.360012 g / cm^3
# Si number density = 23.653956 Si / 1000 Ang^3
#
#
#
# Elastic Constant Matrix: (Units=GPa)
#
#
# Indices 1 2 3 4 5 6 
#
# 1 105.8400 6.0388 31.3420 0.0000 0.0000 0.0000
# 2 6.0388 71.9636 19.9021 0.0000 0.0000 0.0000
# 3 31.3420 19.9021 99.7927 0.0000 0.0000 0.0000
# 4 0.0000 0.0000 0.0000 44.7691 0.0000 0.0000
# 5 0.0000 0.0000 0.0000 0.0000 34.9533 0.0000
# 6 0.0000 0.0000 0.0000 0.0000 0.0000 6.3611
#
#
#
# Elastic Compliance Matrix: (Units=1/GPa)
#
#
# Indices 1 2 3 4 5 6 
#
# 1 0.010417 0.000032 -0.003278 0.000000 0.000000 0.000000
# 2 0.000032 0.014707 -0.002943 0.000000 0.000000 0.000000
# 3 -0.003278 -0.002943 0.011637 0.000000 0.000000 0.000000
# 4 0.000000 0.000000 0.000000 0.022337 0.000000 0.000000
# 5 0.000000 0.000000 0.000000 0.000000 0.028610 0.000000
# 6 0.000000 0.000000 0.000000 0.000000 0.000000 0.157205
#
#
# Mechanical properties :
#
#
# Convention : Reuss Voigt Hill
#
# Bulk Modulus (GPa) = 41.01120 43.57356 42.29238
# Shear Modulus (GPa) = 18.83816 31.90428 25.37122
#
# Velocity S-wave (km/s) = 2.82513 3.67658 3.27861
# Velocity P-wave (km/s) = 5.29315 6.04021 5.67898
#
# Compressibility (1/GPa) = 0.02438358
#
# Stress axis : x y z
#
# Youngs Moduli (GPa) = 95.99572 67.99401 85.93020
#
# Poissons Ratio (x) = -0.00221 0.28170
# Poissons Ratio (y) = -0.00312 0.25292
# Poissons Ratio (z) = 0.31469 0.20013
#
# Static dielectric constant tensor:
#      x y z
#    x 1.961010 0.000000 0.000000 
#    y 0.000000 1.927770 0.000000 
#    z 0.000000 0.000000 1.898890 
# 
# From -- ./inp_files/13965.got.cif
#   From: 2010.05.17/outbox.cif.g08.bks.cpg/sg40_7_cif.got.tgz:13965.got - 2010.06.03 18:35:42.
