data_PCOD9364625
_publ_section_title
;
Structure prediction by ZEFSAII (Michael W. Deem and Ramdas Pophale) SiO2 
 PCOD9364625
Probable space group: A M A 2
;
_chemical_formula_sum "Si O2"
_cell_formula_units_Z 64
_cell_length_a 19.207042
_cell_length_b 12.171642
_cell_length_c 14.355230
_cell_angle_alpha 90.000000
_cell_angle_beta 90.000000
_cell_angle_gamma 90.000000
_cell_volume 3355.983457
_symmetry_space_group_name_H-M "A M A 2"
_symmetry_group_IT_number 40
_symmetry_cell_setting 'orthorhombic'
loop_
_space_group_symop_operation_xyz
x,y,z
-x,-y,z
1/2-x,y,z
1/2+x,-y,z
x,1/2+y,1/2+z
-x,1/2-y,1/2+z
1/2-x,1/2+y,1/2+z
1/2+x,1/2-y,1/2+z
loop_
_atom_site_type_symbol
_atom_site_label
_atom_site_fract_x
_atom_site_fract_y
_atom_site_fract_z
Si Si1 0.169622 0.579496 0.091790
Si Si2 0.060544 0.588157 0.358511
Si Si3 0.922797 0.525898 0.764275
Si Si4 0.932430 0.790182 0.056084
Si Si5 0.428105 0.948427 0.477664
Si Si6 0.669101 0.071282 0.773997
Si Si7 0.833946 0.318816 0.721274
Si Si8 0.069657 0.253106 0.682968
O O1 0.250000 0.608032 0.080911
O O2 0.163479 0.486472 0.172483
O O3 0.122546 0.680314 0.123740
O O4 0.135157 0.528233 0.000856
O O5 0.056530 0.638000 0.462639
O O6 0.128422 0.512185 0.341079
O O7 0.056017 0.682688 0.278226
O O8 0.000000 0.500000 0.342780
O O9 0.935932 0.566498 0.868494
O O10 0.873152 0.420798 0.769075
O O11 0.895835 0.630271 0.707905
O O12 0.000000 0.500000 0.725194
O O13 0.866885 0.826535 0.117980
O O14 0.999914 0.778294 0.123539
O O15 0.916372 0.668020 0.022672
O O16 0.500000 0.000000 0.515786
O O17 0.750000 0.074132 0.799967
O O18 0.645758 0.198719 0.763918
O O19 0.750000 0.326610 0.722477
#
# Coordination Sequence:
#
# PCOD9364625 Si02
#       8
#     8   8   8   8   8   8   8   8
#     4  10  21  38  64  95 127 166 214 272 326 378
#     4  11  25  38  66  98 125 166 216 268 327 384
#     4  11  24  41  64  94 133 171 212 268 321 388
#     4  12  23  40  64  97 129 168 217 271 320 385
#     4  11  22  38  64  96 126 168 226 272 317 382
#     4   9  20  41  65  90 123 164 212 264 319 382
#     4  11  24  42  67  93 129 177 215 260 329 392
#     4  11  23  42  66  95 131 169 215 272 325 388
#
# _framework density 19.070416000000002
#
# number of rings (size 3 to 8) (size 9 to 14) (size 15 to 20)
#    0.000    1.250    5.000    0.750    3.500    1.500 
#    0.000    0.000    0.000    0.000    0.000    0.000 
#    0.000    0.000    0.000    0.000    0.000    0.000 
#
# Total GULP energy -178495.619786 kJ/mol
# GULP energy per Si atom -5577.988118 kJ/mol
# Density = 1.902701 g / cm^3
# Si number density = 19.070416 Si / 1000 Ang^3
#
#
#
# Elastic Constant Matrix: (Units=GPa)
#
#
# Indices 1 2 3 4 5 6 
#
# 1 90.6178 44.0419 16.4614 0.0000 0.0000 0.0000
# 2 44.0419 99.9060 32.3179 0.0000 0.0000 0.0000
# 3 16.4614 32.3179 50.9470 0.0000 0.0000 0.0000
# 4 0.0000 0.0000 0.0000 22.4306 0.0000 0.0000
# 5 0.0000 0.0000 0.0000 0.0000 8.1439 0.0000
# 6 0.0000 0.0000 0.0000 0.0000 0.0000 25.6020
#
#
#
# Elastic Compliance Matrix: (Units=1/GPa)
#
#
# Indices 1 2 3 4 5 6 
#
# 1 0.014068 -0.005953 -0.000769 0.000000 0.000000 0.000000
# 2 -0.005953 0.015113 -0.007663 0.000000 0.000000 0.000000
# 3 -0.000769 -0.007663 0.024738 0.000000 0.000000 0.000000
# 4 0.000000 0.000000 0.000000 0.044582 0.000000 0.000000
# 5 0.000000 0.000000 0.000000 0.000000 0.122792 0.000000
# 6 0.000000 0.000000 0.000000 0.000000 0.000000 0.039059
#
#
# Mechanical properties :
#
#
# Convention : Reuss Voigt Hill
#
# Bulk Modulus (GPa) = 39.76470 47.45702 43.61086
# Shear Modulus (GPa) = 16.80642 21.14526 18.97584
#
# Velocity S-wave (km/s) = 2.97186 3.33348 3.15785
# Velocity P-wave (km/s) = 5.71601 6.30518 6.01781
#
# Compressibility (1/GPa) = 0.02514793
#
# Stress axis : x y z
#
# Youngs Moduli (GPa) = 71.08153 66.17023 40.42378
#
# Poissons Ratio (x) = 0.39391 0.03110
# Poissons Ratio (y) = 0.42314 0.30977
# Poissons Ratio (z) = 0.05469 0.50707
#
# Static dielectric constant tensor:
#      x y z
#    x 1.670760 0.000000 0.000000 
#    y 0.000000 1.687430 0.000000 
#    z 0.000000 0.000000 1.655450 
# 
# From -- ./inp_files/17866.got.cif
#   From: 2010.05.17/outbox.cif.g08.bks.cpg/sg40_9_cif.got.tgz:17866.got - 2010.06.03 18:35:42.
