data_PCOD9364262
_publ_section_title
;
Structure prediction by ZEFSAII (Michael W. Deem and Ramdas Pophale) SiO2 
 PCOD9364262
Probable space group: A M A 2
;
_chemical_formula_sum "Si O2"
_cell_formula_units_Z 40
_cell_length_a 8.649038
_cell_length_b 22.918334
_cell_length_c 9.612617
_cell_angle_alpha 90.000000
_cell_angle_beta 90.000000
_cell_angle_gamma 90.000000
_cell_volume 1905.427761
_symmetry_space_group_name_H-M "A M A 2"
_symmetry_group_IT_number 40
_symmetry_cell_setting 'orthorhombic'
loop_
_space_group_symop_operation_xyz
x,y,z
-x,-y,z
1/2-x,y,z
1/2+x,-y,z
x,1/2+y,1/2+z
-x,1/2-y,1/2+z
1/2-x,1/2+y,1/2+z
1/2+x,1/2-y,1/2+z
loop_
_atom_site_type_symbol
_atom_site_label
_atom_site_fract_x
_atom_site_fract_y
_atom_site_fract_z
Si Si1 0.750000 0.391304 0.547530
Si Si2 0.250000 0.474261 0.059270
Si Si3 0.921046 0.737333 0.872304
Si Si4 0.750000 0.438920 0.832584
Si Si5 0.750000 0.403157 0.225620
Si Si6 0.927588 0.180114 0.072247
Si Si7 0.498956 0.120885 0.525921
O O1 0.750000 0.439533 0.668460
O O2 0.750000 0.410443 0.388335
O O3 0.583481 0.359177 0.571272
O O4 0.250000 0.498029 0.901894
O O5 0.393727 0.431898 0.074401
O O6 0.250000 0.532291 0.153356
O O7 0.750000 0.764550 0.888035
O O8 0.941015 0.718190 0.713336
O O9 0.924337 0.678421 0.965487
O O10 0.049652 0.779029 0.937234
O O11 0.605836 0.404225 0.899966
O O12 0.606500 0.368232 0.160368
O O13 0.750000 0.155441 0.072753
#
# Coordination Sequence:
#
# PCOD9364262 Si02
#       7
#     4   4   8   4   4   8   8
#     4  12  24  47  62  95 140 172 220 271 337 378
#     4  10  20  43  68 101 124 164 229 270 318 403
#     4  11  23  41  65  95 127 173 215 269 322 388
#     4  10  20  38  68  87 125 173 201 277 327 381
#     4  10  24  38  64  91 131 173 208 270 326 390
#     4  11  27  42  65  98 134 171 224 267 321 398
#     4  10  20  39  67  93 124 164 221 262 322 391
#
# _framework density 20.992660000000001
#
# number of rings (size 3 to 8) (size 9 to 14) (size 15 to 20)
#    0.000    1.600    4.000    2.400    7.000    0.000 
#    1.800    4.000    0.000    0.000    0.000    0.000 
#    0.000    0.000    0.000    0.000    0.000    0.000 
#
# Total GULP energy -111554.685961 kJ/mol
# GULP energy per Si atom -5577.734298 kJ/mol
# Density = 2.094488 g / cm^3
# Si number density = 20.992660 Si / 1000 Ang^3
#
#
#
# Elastic Constant Matrix: (Units=GPa)
#
#
# Indices 1 2 3 4 5 6 
#
# 1 129.9083 22.6090 38.2418 0.0000 0.0000 0.0000
# 2 22.6090 30.7977 1.7224 0.0000 0.0000 0.0000
# 3 38.2418 1.7224 146.0833 0.0000 0.0000 0.0000
# 4 0.0000 0.0000 0.0000 18.7139 0.0000 0.0000
# 5 0.0000 0.0000 0.0000 0.0000 10.8715 0.0000
# 6 0.0000 0.0000 0.0000 0.0000 0.0000 14.7660
#
#
#
# Elastic Compliance Matrix: (Units=1/GPa)
#
#
# Indices 1 2 3 4 5 6 
#
# 1 0.009620 -0.006926 -0.002437 0.000000 0.000000 0.000000
# 2 -0.006926 0.037478 0.001371 0.000000 0.000000 0.000000
# 3 -0.002437 0.001371 0.007467 0.000000 0.000000 0.000000
# 4 0.000000 0.000000 0.000000 0.053436 0.000000 0.000000
# 5 0.000000 0.000000 0.000000 0.000000 0.091984 0.000000
# 6 0.000000 0.000000 0.000000 0.000000 0.000000 0.067723
#
#
# Mechanical properties :
#
#
# Convention : Reuss Voigt Hill
#
# Bulk Modulus (GPa) = 25.91882 47.99287 36.95585
# Shear Modulus (GPa) = 16.86042 25.15137 21.00589
#
# Velocity S-wave (km/s) = 2.83708 3.46512 3.16671
# Velocity P-wave (km/s) = 4.80681 6.23865 5.56894
#
# Compressibility (1/GPa) = 0.03858200
#
# Stress axis : x y z
#
# Youngs Moduli (GPa) = 103.94471 26.68238 133.91993
#
# Poissons Ratio (x) = 0.18481 0.32634
# Poissons Ratio (y) = 0.71995 -0.18364
# Poissons Ratio (z) = 0.25329 -0.03659
#
# Static dielectric constant tensor:
#      x y z
#    x 1.841510 0.000000 0.000000 
#    y 0.000000 1.747140 0.000000 
#    z 0.000000 0.000000 1.725280 
# 
# From -- ./inp_files/4298.got.cif
#   From: 2010.05.17/outbox.cif.g08.bks.cpg/sg40_3_cif.got.tgz:4298.got - 2010.06.03 18:35:42.
