data_PCOD9364296
_publ_section_title
;
Structure prediction by ZEFSAII (Michael W. Deem and Ramdas Pophale) SiO2 
 PCOD9364296
Probable space group: A M A 2
;
_chemical_formula_sum "Si O2"
_cell_formula_units_Z 64
_cell_length_a 15.620241
_cell_length_b 16.784155
_cell_length_c 12.195846
_cell_angle_alpha 90.000000
_cell_angle_beta 90.000000
_cell_angle_gamma 90.000000
_cell_volume 3197.415997
_symmetry_space_group_name_H-M "A M A 2"
_symmetry_group_IT_number 40
_symmetry_cell_setting 'orthorhombic'
loop_
_space_group_symop_operation_xyz
x,y,z
-x,-y,z
1/2-x,y,z
1/2+x,-y,z
x,1/2+y,1/2+z
-x,1/2-y,1/2+z
1/2-x,1/2+y,1/2+z
1/2+x,1/2-y,1/2+z
loop_
_atom_site_type_symbol
_atom_site_label
_atom_site_fract_x
_atom_site_fract_y
_atom_site_fract_z
Si Si1 0.655573 0.414785 0.748870
Si Si2 0.650685 0.137890 0.618458
Si Si3 0.907346 0.540969 0.908646
Si Si4 0.404161 0.759521 0.810439
Si Si5 0.600889 0.208103 0.278901
Si Si6 0.657079 0.799321 0.979658
Si Si7 0.349305 0.321806 0.546786
Si Si8 0.018845 0.081012 0.057491
O O1 0.750000 0.430705 0.701488
O O2 0.648557 0.469921 0.856539
O O3 0.646920 0.320526 0.774819
O O4 0.575758 0.434278 0.667488
O O5 0.750000 0.117091 0.631852
O O6 0.612208 0.075463 0.530504
O O7 0.613534 0.161509 0.737311
O O8 0.644642 0.224119 0.559458
O O9 0.896999 0.617070 0.826269
O O10 0.000000 0.500000 0.909520
O O11 0.502368 0.734939 0.790496
O O12 0.378910 0.778189 0.935735
O O13 0.654225 0.260957 0.361733
O O14 0.639465 0.225548 0.159855
O O15 0.750000 0.835707 0.000826
O O16 0.578398 0.857787 0.994436
O O17 0.250000 0.347646 0.535901
O O18 0.423915 0.385506 0.572794
O O19 0.000000 0.000000 0.995412
#
# Coordination Sequence:
#
# PCOD9364296 Si02
#       8
#     8   8   8   8   8   8   8   8
#     4  12  23  39  65  99 134 168 214 278 341 400
#     4  10  21  38  62  94 127 168 222 273 329 407
#     4  11  22  39  63 101 134 172 218 280 351 402
#     4  12  23  41  68  94 129 175 226 274 337 410
#     4  11  22  40  66  95 132 171 223 280 341 405
#     4  10  20  39  66  93 124 167 220 277 335 403
#     4  12  25  42  65  96 132 174 222 279 337 401
#     4  12  24  39  61  95 130 170 215 270 341 405
#
# _framework density 20.016164
#
# number of rings (size 3 to 8) (size 9 to 14) (size 15 to 20)
#    0.000    0.750    5.000    3.375    1.750    3.500 
#    0.000    0.625    2.750    0.000    0.000    0.000 
#    0.000    0.000    0.000    0.000    0.000    0.000 
#
# Total GULP energy -178364.523628 kJ/mol
# GULP energy per Si atom -5573.891363 kJ/mol
# Density = 1.997061 g / cm^3
# Si number density = 20.016164 Si / 1000 Ang^3
#
#
#
# Elastic Constant Matrix: (Units=GPa)
#
#
# Indices 1 2 3 4 5 6 
#
# 1 140.2565 32.8396 8.9497 0.0000 0.0000 0.0000
# 2 32.8396 61.5771 31.9121 0.0000 0.0000 0.0000
# 3 8.9497 31.9121 116.3993 0.0000 0.0000 0.0000
# 4 0.0000 0.0000 0.0000 11.1650 0.0000 0.0000
# 5 0.0000 0.0000 0.0000 0.0000 18.1757 0.0000
# 6 0.0000 0.0000 0.0000 0.0000 0.0000 -16.1199
#
#
#
# Elastic Compliance Matrix: (Units=1/GPa)
#
#
# Indices 1 2 3 4 5 6 
#
# 1 0.008191 -0.004711 0.000662 0.000000 0.000000 0.000000
# 2 -0.004711 0.021639 -0.005570 0.000000 0.000000 0.000000
# 3 0.000662 -0.005570 0.010067 0.000000 0.000000 0.000000
# 4 0.000000 0.000000 0.000000 0.089566 0.000000 0.000000
# 5 0.000000 0.000000 0.000000 0.000000 0.055019 0.000000
# 6 0.000000 0.000000 0.000000 0.000000 0.000000 -0.062035
#
#
# Mechanical properties :
#
#
# Convention : Reuss Voigt Hill
#
# Bulk Modulus (GPa) = 48.40776 51.73729 50.07253
# Shear Modulus (GPa) = 33.65383 18.94625 26.30004
#
# Velocity S-wave (km/s) = 4.10485 3.07994 3.62876
# Velocity P-wave (km/s) = 6.83398 6.20902 6.52898
#
# Compressibility (1/GPa) = 0.02065784
#
# Stress axis : x y z
#
# Youngs Moduli (GPa) = 122.09082 46.21268 99.33054
#
# Poissons Ratio (x) = 0.21771 -0.06574
# Poissons Ratio (y) = 0.57519 0.55331
# Poissons Ratio (z) = -0.08080 0.25742
#
# Static dielectric constant tensor:
#      x y z
#    x 1.758300 0.000000 0.000000 
#    y 0.000000 1.739650 0.000000 
#    z 0.000000 0.000000 1.768440 
# 
# From -- ./inp_files/12437.got.cif
#   From: 2010.05.17/outbox.cif.g08.bks.cpg/sg40_7_cif.got.tgz:12437.got - 2010.06.03 18:35:42.
