data_PCOD9364019
_publ_section_title
;
Structure prediction by ZEFSAII (Michael W. Deem and Ramdas Pophale) SiO2 
 PCOD9364019
Probable space group: A M A 2
;
_chemical_formula_sum "Si O2"
_cell_formula_units_Z 64
_cell_length_a 17.664479
_cell_length_b 5.315077
_cell_length_c 30.901007
_cell_angle_alpha 90.000000
_cell_angle_beta 90.000000
_cell_angle_gamma 90.000000
_cell_volume 2901.235786
_symmetry_space_group_name_H-M "A M A 2"
_symmetry_group_IT_number 40
_symmetry_cell_setting 'orthorhombic'
loop_
_space_group_symop_operation_xyz
x,y,z
-x,-y,z
1/2-x,y,z
1/2+x,-y,z
x,1/2+y,1/2+z
-x,1/2-y,1/2+z
1/2-x,1/2+y,1/2+z
1/2+x,1/2-y,1/2+z
loop_
_atom_site_type_symbol
_atom_site_label
_atom_site_fract_x
_atom_site_fract_y
_atom_site_fract_z
Si Si1 0.907458 0.486121 0.068630
Si Si2 0.909037 0.987110 0.116867
Si Si3 0.834863 0.296392 0.888391
Si Si4 0.410023 0.021226 0.470967
Si Si5 0.837770 0.432573 0.709623
Si Si6 0.078905 0.061877 0.918575
Si Si7 0.338775 0.558512 0.265293
Si Si8 0.067455 0.835491 0.334918
O O1 0.882412 0.755798 0.086802
O O2 0.000000 0.500000 0.068483
O O3 0.882166 0.256289 0.098829
O O4 0.882721 0.434038 0.019252
O O5 0.885124 0.936050 0.165802
O O6 0.000000 0.000000 0.114509
O O7 0.750000 0.358607 0.897837
O O8 0.885436 0.276581 0.933765
O O9 0.869091 0.466233 0.851576
O O10 0.853188 0.006872 0.882800
O O11 0.380310 0.762208 0.450590
O O12 0.500000 0.000000 0.472708
O O13 0.750000 0.387478 0.697925
O O14 0.841902 0.703914 0.732564
O O15 0.858361 0.203756 0.741815
O O16 0.033587 0.230105 0.880167
O O17 0.000000 0.000000 0.944370
O O18 0.250000 0.538854 0.280463
O O19 0.398867 0.637287 0.301546
O O20 0.000000 0.000000 0.314276
#
# Coordination Sequence:
#
# PCOD9364019 Si02
#       8
#     8   8   8   8   8   8   8   8
#     4   9  20  34  61  93 122 159 205 260 310 370
#     4  10  20  38  61  93 124 157 205 256 313 373
#     4  11  23  38  58  86 124 164 206 264 322 374
#     4  10  20  36  60  86 119 163 210 260 313 375
#     4  10  22  42  65  90 123 165 205 249 316 391
#     4  11  20  36  61  86 116 166 218 262 310 381
#     4  10  23  41  64  93 125 163 210 259 314 383
#     4  11  23  40  61  90 123 162 212 266 318 386
#
# _framework density 22.059564999999999
#
# number of rings (size 3 to 8) (size 9 to 14) (size 15 to 20)
#    0.000    1.750    2.500    1.875    3.500    3.500 
#    0.000    2.500    0.000    0.000    0.000    0.000 
#    0.000    0.000    0.000    0.000    0.000    0.000 
#
# Total GULP energy -178255.759642 kJ/mol
# GULP energy per Si atom -5570.492489 kJ/mol
# Density = 2.200936 g / cm^3
# Si number density = 22.059565 Si / 1000 Ang^3
#
#
#
# Elastic Constant Matrix: (Units=GPa)
#
#
# Indices 1 2 3 4 5 6 
#
# 1 54.6831 16.4060 21.0278 0.0000 0.0000 0.0000
# 2 16.4060 100.2400 25.8159 0.0000 0.0000 0.0000
# 3 21.0278 25.8159 99.6911 0.0000 0.0000 0.0000
# 4 0.0000 0.0000 0.0000 29.7750 0.0000 0.0000
# 5 0.0000 0.0000 0.0000 0.0000 9.3171 0.0000
# 6 0.0000 0.0000 0.0000 0.0000 0.0000 14.6043
#
#
#
# Elastic Compliance Matrix: (Units=1/GPa)
#
#
# Indices 1 2 3 4 5 6 
#
# 1 0.020423 -0.002393 -0.003688 0.000000 0.000000 0.000000
# 2 -0.002393 0.010969 -0.002336 0.000000 0.000000 0.000000
# 3 -0.003688 -0.002336 0.011414 0.000000 0.000000 0.000000
# 4 0.000000 0.000000 0.000000 0.033585 0.000000 0.000000
# 5 0.000000 0.000000 0.000000 0.000000 0.107330 0.000000
# 6 0.000000 0.000000 0.000000 0.000000 0.000000 0.068473
#
#
# Mechanical properties :
#
#
# Convention : Reuss Voigt Hill
#
# Bulk Modulus (GPa) = 38.50204 42.34595 40.42400
# Shear Modulus (GPa) = 18.00594 23.49691 20.75143
#
# Velocity S-wave (km/s) = 2.86009 3.26722 3.07041
# Velocity P-wave (km/s) = 5.32902 5.78539 5.56189
#
# Compressibility (1/GPa) = 0.02597265
#
# Stress axis : x y z
#
# Youngs Moduli (GPa) = 48.96362 91.16391 87.61290
#
# Poissons Ratio (x) = 0.21813 0.32314
# Poissons Ratio (y) = 0.11716 0.20465
# Poissons Ratio (z) = 0.18059 0.21295
#
# Static dielectric constant tensor:
#      x y z
#    x 1.962950 0.000000 0.000000 
#    y 0.000000 2.160350 0.000000 
#    z 0.000000 0.000000 1.818980 
# 
# From -- ./inp_files/26691.got.cif
#   From: 2010.05.17/outbox.cif.g08.bks.cpg/sg40_14_cif.got.tgz:26691.got - 2010.06.03 18:35:42.
