data_PCOD9364662
_publ_section_title
;
Structure prediction by ZEFSAII (Michael W. Deem and Ramdas Pophale) SiO2 
 PCOD9364662
Probable space group: A M A 2
;
_chemical_formula_sum "Si O2"
_cell_formula_units_Z 48
_cell_length_a 8.747587
_cell_length_b 20.745760
_cell_length_c 14.709935
_cell_angle_alpha 90.000000
_cell_angle_beta 90.000000
_cell_angle_gamma 90.000000
_cell_volume 2669.490463
_symmetry_space_group_name_H-M "A M A 2"
_symmetry_group_IT_number 40
_symmetry_cell_setting 'orthorhombic'
loop_
_space_group_symop_operation_xyz
x,y,z
-x,-y,z
1/2-x,y,z
1/2+x,-y,z
x,1/2+y,1/2+z
-x,1/2-y,1/2+z
1/2-x,1/2+y,1/2+z
1/2+x,1/2-y,1/2+z
loop_
_atom_site_type_symbol
_atom_site_label
_atom_site_fract_x
_atom_site_fract_y
_atom_site_fract_z
Si Si1 0.567539 0.621807 0.950420
Si Si2 0.933619 0.430501 0.761785
Si Si3 0.933323 0.813327 0.128818
Si Si4 0.568277 0.431416 0.137356
Si Si5 0.067894 0.765012 0.947219
Si Si6 0.567031 0.685958 0.246922
O O1 0.750000 0.617001 0.951326
O O2 0.501085 0.590735 0.858873
O O3 0.516731 0.696436 0.953305
O O4 0.500217 0.587102 0.039022
O O5 0.750000 0.433098 0.768788
O O6 0.973688 0.375934 0.687841
O O7 0.000000 0.500000 0.737086
O O8 0.750000 0.813683 0.114187
O O9 0.969730 0.749591 0.187902
O O10 0.017744 0.807099 0.033219
O O11 0.500000 0.500000 0.165821
O O12 0.750000 0.435192 0.130838
O O13 0.518801 0.374982 0.205854
O O14 0.250000 0.752979 0.948787
O O15 0.030741 0.798670 0.851523
O O16 0.750000 0.675394 0.239191
#
# Coordination Sequence:
#
# PCOD9364662 Si02
#       6
#     8   8   8   8   8   8
#     4  12  23  37  60  90 125 160 197 245 301 360
#     4  11  23  41  61  88 124 161 201 248 300 356
#     4  10  21  39  62  87 123 160 199 247 298 354
#     4  12  25  41  62  89 122 160 201 246 301 361
#     4  11  22  38  62  92 123 155 201 250 297 350
#     4  10  21  40  62  88 122 159 198 248 298 352
#
# _framework density 17.98096
#
# number of rings (size 3 to 8) (size 9 to 14) (size 15 to 20)
#    0.000    1.000    3.333    4.500    0.000    2.667 
#    0.000    0.833    0.000    2.000    0.000    0.000 
#    0.000    0.000    0.000    0.000    0.000    0.000 
#
# Total GULP energy -134242.613084 kJ/mol
# GULP energy per Si atom -5593.442212 kJ/mol
# Density = 1.794003 g / cm^3
# Si number density = 17.980960 Si / 1000 Ang^3
#
#
#
# Elastic Constant Matrix: (Units=GPa)
#
#
# Indices 1 2 3 4 5 6 
#
# 1 97.4409 63.8526 55.6331 0.0000 0.0000 0.0000
# 2 63.8526 139.4914 51.0360 0.0000 0.0000 0.0000
# 3 55.6331 51.0360 116.6975 0.0000 0.0000 0.0000
# 4 0.0000 0.0000 0.0000 4.0299 0.0000 0.0000
# 5 0.0000 0.0000 0.0000 0.0000 53.9714 0.0000
# 6 0.0000 0.0000 0.0000 0.0000 0.0000 496.7186
#
#
#
# Elastic Compliance Matrix: (Units=1/GPa)
#
#
# Indices 1 2 3 4 5 6 
#
# 1 0.017365 -0.005857 -0.005717 0.000000 0.000000 0.000000
# 2 -0.005857 0.010510 -0.001804 0.000000 0.000000 0.000000
# 3 -0.005717 -0.001804 0.012084 0.000000 0.000000 0.000000
# 4 0.000000 0.000000 0.000000 0.248147 0.000000 0.000000
# 5 0.000000 0.000000 0.000000 0.000000 0.018528 0.000000
# 6 0.000000 0.000000 0.000000 0.000000 0.000000 0.002013
#
#
# Mechanical properties :
#
#
# Convention : Reuss Voigt Hill
#
# Bulk Modulus (GPa) = 75.74466 77.18593 76.46529
# Shear Modulus (GPa) = 14.71439 123.15118 68.93278
#
# Velocity S-wave (km/s) = 2.86375 8.28483 6.19837
# Velocity P-wave (km/s) = 7.29048 11.59903 9.68733
#
# Compressibility (1/GPa) = 0.01320225
#
# Stress axis : x y z
#
# Youngs Moduli (GPa) = 57.58796 95.14627 82.75730
#
# Poissons Ratio (x) = 0.55729 0.47310
# Poissons Ratio (y) = 0.33730 0.14931
# Poissons Ratio (z) = 0.32921 0.17166
#
# Static dielectric constant tensor:
#      x y z
#    x 1.599570 0.000000 0.000000 
#    y 0.000000 1.595960 0.000000 
#    z 0.000000 0.000000 1.591020 
# 
# From -- ./inp_files/15027.got.cif
#   From: 2010.05.17/outbox.cif.g08.bks.cpg/sg40_8_cif.got.tgz:15027.got - 2010.06.03 18:35:42.
