data_PCOD9364616
_publ_section_title
;
Structure prediction by ZEFSAII (Michael W. Deem and Ramdas Pophale) SiO2 
 PCOD9364616
Probable space group: A M A 2
;
_chemical_formula_sum "Si O2"
_cell_formula_units_Z 20
_cell_length_a 5.425926
_cell_length_b 23.136160
_cell_length_c 5.429173
_cell_angle_alpha 90.000000
_cell_angle_beta 90.000000
_cell_angle_gamma 90.000000
_cell_volume 681.551732
_symmetry_space_group_name_H-M "A M A 2"
_symmetry_group_IT_number 40
_symmetry_cell_setting 'orthorhombic'
loop_
_space_group_symop_operation_xyz
x,y,z
-x,-y,z
1/2-x,y,z
1/2+x,-y,z
x,1/2+y,1/2+z
-x,1/2-y,1/2+z
1/2-x,1/2+y,1/2+z
1/2+x,1/2-y,1/2+z
loop_
_atom_site_type_symbol
_atom_site_label
_atom_site_fract_x
_atom_site_fract_y
_atom_site_fract_z
Si Si1 0.750000 0.474981 0.899120
Si Si2 0.250000 0.824304 0.477528
Si Si3 0.750000 0.570092 0.279972
Si Si4 0.750000 0.279891 0.223264
Si Si5 0.750000 0.884276 0.040596
O O1 0.500000 0.500000 0.785807
O O2 0.750000 0.407855 0.821629
O O3 0.750000 0.504959 0.170560
O O4 0.250000 0.892036 0.526177
O O5 0.250000 0.789795 0.223279
O O6 0.499774 0.800361 0.597307
O O7 0.502037 0.590426 0.418382
O O8 0.750000 0.316400 0.480475
#
# Coordination Sequence:
#
# PCOD9364616 Si02
#       5
#     4   4   4   4   4
#     4  12  26  40  64  94 120 170 220 258 312 380
#     4  10  21  38  63  92 125 162 202 256 316 376
#     4  10  23  43  63  91 131 169 210 263 319 374
#     4  10  21  38  63  92 125 162 202 256 316 376
#     4  10  23  43  63  91 131 169 210 263 319 374
#
# _framework density 29.344801
#
# number of rings (size 3 to 8) (size 9 to 14) (size 15 to 20)
#    0.000    1.600    0.000    3.600    0.000    8.000 
#    0.000    0.000    0.000    0.000    0.000    0.000 
#    0.000    0.000    0.000    0.000    0.000    0.000 
#
# Total GULP energy -55921.826562 kJ/mol
# GULP energy per Si atom -5592.182656 kJ/mol
# Density = 2.927801 g / cm^3
# Si number density = 29.344801 Si / 1000 Ang^3
#
#
#
# Elastic Constant Matrix: (Units=GPa)
#
#
# Indices 1 2 3 4 5 6 
#
# 1 290.5895 32.4902 64.1549 0.0000 0.0000 0.0000
# 2 32.4902 95.5627 54.2172 0.0000 0.0000 0.0000
# 3 64.1549 54.2172 55.7590 0.0000 0.0000 0.0000
# 4 0.0000 0.0000 0.0000 70.9619 0.0000 0.0000
# 5 0.0000 0.0000 0.0000 0.0000 33.2674 0.0000
# 6 0.0000 0.0000 0.0000 0.0000 0.0000 42.1146
#
#
#
# Elastic Compliance Matrix: (Units=1/GPa)
#
#
# Indices 1 2 3 4 5 6 
#
# 1 0.005104 0.003561 -0.009335 0.000000 0.000000 0.000000
# 2 0.003561 0.025824 -0.029207 0.000000 0.000000 0.000000
# 3 -0.009335 -0.029207 0.057075 0.000000 0.000000 0.000000
# 4 0.000000 0.000000 0.000000 0.014092 0.000000 0.000000
# 5 0.000000 0.000000 0.000000 0.000000 0.030059 0.000000
# 6 0.000000 0.000000 0.000000 0.000000 0.000000 0.023745
#
#
# Mechanical properties :
#
#
# Convention : Reuss Voigt Hill
#
# Bulk Modulus (GPa) = 55.43193 82.62618 69.02906
# Shear Modulus (GPa) = 21.56327 48.67204 35.11765
#
# Velocity S-wave (km/s) = 2.71370 4.07704 3.46312
# Velocity P-wave (km/s) = 5.36188 7.09797 6.29011
#
# Compressibility (1/GPa) = 0.01804014
#
# Stress axis : x y z
#
# Youngs Moduli (GPa) = 195.92128 38.72315 17.52090
#
# Poissons Ratio (x) = -0.13789 0.16356
# Poissons Ratio (y) = -0.69765 0.51174
# Poissons Ratio (z) = 1.82893 1.13100
#
# Static dielectric constant tensor:
#      x y z
#    x 2.244130 0.000000 0.000000 
#    y 0.000000 2.206200 0.000000 
#    z 0.000000 0.000000 2.378670 
# 
# From -- ./inp_files/66.got.cif
#   From: 2010.05.17/outbox.cif.g08.bks.cpg/sg40_1_cif.got.tgz:66.got - 2010.06.03 18:35:42.
