data_PCOD9364976
_publ_section_title
;
Structure prediction by ZEFSAII (Michael W. Deem and Ramdas Pophale) SiO2 
 PCOD9364976
Probable space group: A M A 2
;
_chemical_formula_sum "Si O2"
_cell_formula_units_Z 48
_cell_length_a 14.999560
_cell_length_b 10.468057
_cell_length_c 15.565507
_cell_angle_alpha 90.000000
_cell_angle_beta 90.000000
_cell_angle_gamma 90.000000
_cell_volume 2444.037524
_symmetry_space_group_name_H-M "A M A 2"
_symmetry_group_IT_number 40
_symmetry_cell_setting 'orthorhombic'
loop_
_space_group_symop_operation_xyz
x,y,z
-x,-y,z
1/2-x,y,z
1/2+x,-y,z
x,1/2+y,1/2+z
-x,1/2-y,1/2+z
1/2-x,1/2+y,1/2+z
1/2+x,1/2-y,1/2+z
loop_
_atom_site_type_symbol
_atom_site_label
_atom_site_fract_x
_atom_site_fract_y
_atom_site_fract_z
Si Si1 0.346732 0.734996 0.346550
Si Si2 0.352482 0.670255 0.680754
Si Si3 0.053524 0.134325 0.518541
Si Si4 0.567661 0.884571 0.001245
Si Si5 0.106413 0.021874 0.353922
Si Si6 0.019773 0.646695 0.205020
O O1 0.250000 0.711086 0.307143
O O2 0.361584 0.640729 0.426503
O O3 0.426294 0.711715 0.280748
O O4 0.352300 0.883659 0.372632
O O5 0.250000 0.712982 0.670320
O O6 0.385275 0.600287 0.593714
O O7 0.358917 0.582701 0.765713
O O8 0.425368 0.782556 0.691395
O O9 0.117990 0.112690 0.437453
O O10 0.078913 0.154846 0.617751
O O11 0.989959 0.253843 0.499517
O O12 0.000000 0.000000 0.522244
O O13 0.500000 0.000000 0.985174
O O14 0.000000 0.000000 0.342374
O O15 0.000000 0.500000 0.225212
#
# Coordination Sequence:
#
# PCOD9364976 Si02
#       6
#     8   8   8   8   8   8
#     4  12  24  40  64  95 131 171 218 268 321 387
#     4  11  23  39  64  97 129 169 219 270 324 389
#     4   9  18  38  66  88 120 165 213 252 317 382
#     4  11  22  38  64  97 127 168 211 267 327 389
#     4  11  19  40  66  91 122 169 221 265 316 386
#     4  10  22  40  64  92 126 171 212 267 330 388
#
# _framework density 19.639634999999998
#
# number of rings (size 3 to 8) (size 9 to 14) (size 15 to 20)
#    0.000    1.333    5.000    2.000    2.333    0.667 
#    0.000    1.667    0.000    3.000    0.000    0.000 
#    0.000    0.000    0.000    0.000    0.000    0.000 
#
# Total GULP energy -133847.020750 kJ/mol
# GULP energy per Si atom -5576.959198 kJ/mol
# Density = 1.959493 g / cm^3
# Si number density = 19.639635 Si / 1000 Ang^3
#
#
#
# Elastic Constant Matrix: (Units=GPa)
#
#
# Indices 1 2 3 4 5 6 
#
# 1 98.4162 31.9719 24.7754 0.0000 0.0000 0.0000
# 2 31.9719 78.7724 25.2131 0.0000 0.0000 0.0000
# 3 24.7754 25.2131 125.8158 0.0000 0.0000 0.0000
# 4 0.0000 0.0000 0.0000 27.0158 0.0000 0.0000
# 5 0.0000 0.0000 0.0000 0.0000 0.6603 0.0000
# 6 0.0000 0.0000 0.0000 0.0000 0.0000 2.9679
#
#
#
# Elastic Compliance Matrix: (Units=1/GPa)
#
#
# Indices 1 2 3 4 5 6 
#
# 1 0.011955 -0.004380 -0.001477 0.000000 0.000000 0.000000
# 2 -0.004380 0.015169 -0.002177 0.000000 0.000000 0.000000
# 3 -0.001477 -0.002177 0.008675 0.000000 0.000000 0.000000
# 4 0.000000 0.000000 0.000000 0.037015 0.000000 0.000000
# 5 0.000000 0.000000 0.000000 0.000000 1.514548 0.000000
# 6 0.000000 0.000000 0.000000 0.000000 0.000000 0.336934
#
#
# Mechanical properties :
#
#
# Convention : Reuss Voigt Hill
#
# Bulk Modulus (GPa) = 50.67781 51.88056 51.27918
# Shear Modulus (GPa) = 2.56813 20.86507 11.71660
#
# Velocity S-wave (km/s) = 1.14476 3.26298 2.44515
# Velocity P-wave (km/s) = 5.25425 6.37727 5.84281
#
# Compressibility (1/GPa) = 0.01973250
#
# Stress axis : x y z
#
# Youngs Moduli (GPa) = 83.64358 65.92204 115.27063
#
# Poissons Ratio (x) = 0.28873 0.17020
# Poissons Ratio (y) = 0.36635 0.25099
# Poissons Ratio (z) = 0.12350 0.14354
#
# Static dielectric constant tensor:
#      x y z
#    x 1.684080 0.000000 0.000000 
#    y 0.000000 1.666610 0.000000 
#    z 0.000000 0.000000 1.755980 
# 
# From -- ./inp_files/17005.got.cif
#   From: 2010.05.17/outbox.cif.g08.bks.cpg/sg40_9_cif.got.tgz:17005.got - 2010.06.03 18:35:42.
