data_PCOD9364644
_publ_section_title
;
Structure prediction by ZEFSAII (Michael W. Deem and Ramdas Pophale) SiO2 
 PCOD9364644
Probable space group: A M A 2
;
_chemical_formula_sum "Si O2"
_cell_formula_units_Z 56
_cell_length_a 8.604867
_cell_length_b 18.366196
_cell_length_c 17.763763
_cell_angle_alpha 90.000000
_cell_angle_beta 90.000000
_cell_angle_gamma 90.000000
_cell_volume 2807.361548
_symmetry_space_group_name_H-M "A M A 2"
_symmetry_group_IT_number 40
_symmetry_cell_setting 'orthorhombic'
loop_
_space_group_symop_operation_xyz
x,y,z
-x,-y,z
1/2-x,y,z
1/2+x,-y,z
x,1/2+y,1/2+z
-x,1/2-y,1/2+z
1/2-x,1/2+y,1/2+z
1/2+x,1/2-y,1/2+z
loop_
_atom_site_type_symbol
_atom_site_label
_atom_site_fract_x
_atom_site_fract_y
_atom_site_fract_z
Si Si1 0.937756 0.080238 0.042750
Si Si2 0.436530 0.661935 0.853084
Si Si3 0.065763 0.921490 0.487719
Si Si4 0.561612 0.179296 0.905048
Si Si5 0.564208 0.329522 0.121865
Si Si6 0.937763 0.670912 0.684838
Si Si7 0.563296 0.080743 0.761363
O O1 0.750000 0.078497 0.039571
O O2 0.982861 0.108742 0.125300
O O3 0.991984 0.138786 0.980415
O O4 0.000000 0.000000 0.026699
O O5 0.250000 0.659204 0.856439
O O6 0.505547 0.598663 0.904717
O O7 0.491549 0.738785 0.889328
O O8 0.489450 0.660763 0.766686
O O9 0.250000 0.924251 0.489113
O O10 0.006723 0.859411 0.544816
O O11 0.000000 0.000000 0.511540
O O12 0.750000 0.182510 0.909151
O O13 0.521445 0.130125 0.833122
O O14 0.750000 0.329643 0.114014
O O15 0.516697 0.248565 0.147988
O O16 0.510824 0.383745 0.187607
O O17 0.750000 0.671208 0.692127
O O18 0.750000 0.079923 0.753990
O O19 0.500000 0.000000 0.772276
#
# Coordination Sequence:
#
# PCOD9364644 Si02
#       7
#     8   8   8   8   8   8   8
#     4  10  21  39  60  86 120 159 201 248 301 357
#     4  11  22  41  67  93 123 161 206 255 311 369
#     4  12  26  44  65  92 125 162 208 259 316 378
#     4   9  19  37  61  87 121 161 201 247 304 361
#     4  11  22  40  64  90 122 162 207 257 312 370
#     4  10  22  40  63  90 125 164 208 255 307 367
#     4  11  21  35  56  88 125 164 204 250 305 368
#
# _framework density 19.947554
#
# number of rings (size 3 to 8) (size 9 to 14) (size 15 to 20)
#    0.000    1.429    1.429    4.286    0.000    4.000 
#    0.000    5.000    0.000    0.000    0.000    0.000 
#    0.000    0.000    0.000    0.000    0.000    0.000 
#
# Total GULP energy -156561.502627 kJ/mol
# GULP energy per Si atom -5591.482237 kJ/mol
# Density = 1.990215 g / cm^3
# Si number density = 19.947554 Si / 1000 Ang^3
#
#
#
# Elastic Constant Matrix: (Units=GPa)
#
#
# Indices 1 2 3 4 5 6 
#
# 1 54.2416 1.4398 29.1534 0.0000 0.0000 0.0000
# 2 1.4398 13.9649 10.1080 0.0000 0.0000 0.0000
# 3 29.1534 10.1080 123.3297 0.0000 0.0000 0.0000
# 4 0.0000 0.0000 0.0000 -41.9729 0.0000 0.0000
# 5 0.0000 0.0000 0.0000 0.0000 -13.2909 0.0000
# 6 0.0000 0.0000 0.0000 0.0000 0.0000 20.5185
#
#
#
# Elastic Compliance Matrix: (Units=1/GPa)
#
#
# Indices 1 2 3 4 5 6 
#
# 1 0.021150 0.001529 -0.005125 0.000000 0.000000 0.000000
# 2 0.001529 0.076235 -0.006610 0.000000 0.000000 0.000000
# 3 -0.005125 -0.006610 0.009862 0.000000 0.000000 0.000000
# 4 0.000000 0.000000 0.000000 -0.023825 0.000000 0.000000
# 5 0.000000 0.000000 0.000000 0.000000 -0.075239 0.000000
# 6 0.000000 0.000000 0.000000 0.000000 0.000000 0.048736
#
#
# Mechanical properties :
#
#
# Convention : Reuss Voigt Hill
#
# Bulk Modulus (GPa) = 11.51608 30.32651 20.92129
# Shear Modulus (GPa) = 47.04797 3.10661 25.07729
#
# Velocity S-wave (km/s) = 4.86179 1.24931 3.54949
# Velocity P-wave (km/s) = 6.10752 4.16139 5.22584
#
# Compressibility (1/GPa) = 0.08683514
#
# Stress axis : x y z
#
# Youngs Moduli (GPa) = 47.28147 13.11738 101.40443
#
# Poissons Ratio (x) = -0.02006 0.51968
# Poissons Ratio (y) = -0.07229 0.67024
# Poissons Ratio (z) = 0.24231 0.08670
#
# Static dielectric constant tensor:
#      x y z
#    x 1.679700 0.000000 0.000000 
#    y 0.000000 1.682100 0.000000 
#    z 0.000000 0.000000 1.686180 
# 
# From -- ./inp_files/15336.got.cif
#   From: 2010.05.17/outbox.cif.g08.bks.cpg/sg40_8_cif.got.tgz:15336.got - 2010.06.03 18:35:42.
