data_PCOD9364203
_publ_section_title
;
Structure prediction by ZEFSAII (Michael W. Deem and Ramdas Pophale) SiO2 
 PCOD9364203
Probable space group: A M A 2
;
_chemical_formula_sum "Si O2"
_cell_formula_units_Z 44
_cell_length_a 23.298481
_cell_length_b 11.435547
_cell_length_c 8.726477
_cell_angle_alpha 90.000000
_cell_angle_beta 90.000000
_cell_angle_gamma 90.000000
_cell_volume 2325.002898
_symmetry_space_group_name_H-M "A M A 2"
_symmetry_group_IT_number 40
_symmetry_cell_setting 'orthorhombic'
loop_
_space_group_symop_operation_xyz
x,y,z
-x,-y,z
1/2-x,y,z
1/2+x,-y,z
x,1/2+y,1/2+z
-x,1/2-y,1/2+z
1/2-x,1/2+y,1/2+z
1/2+x,1/2-y,1/2+z
loop_
_atom_site_type_symbol
_atom_site_label
_atom_site_fract_x
_atom_site_fract_y
_atom_site_fract_z
Si Si1 0.367526 0.988235 0.867760
Si Si2 0.250000 0.532507 0.901863
Si Si3 0.536345 0.881484 0.677751
Si Si4 0.750000 0.439514 0.243800
Si Si5 0.939319 0.248530 0.861504
Si Si6 0.655307 0.372567 0.673327
Si Si7 0.250000 0.263417 0.997695
O O1 0.407843 0.075879 0.770482
O O2 0.306420 0.986148 0.783555
O O3 0.399340 0.865339 0.881954
O O4 0.356712 0.038516 0.036157
O O5 0.305252 0.568847 0.803254
O O6 0.250000 0.395094 0.939749
O O7 0.250000 0.594950 0.066524
O O8 0.497863 0.797777 0.785120
O O9 0.550557 0.815521 0.520389
O O10 0.500000 0.000000 0.645865
O O11 0.750000 0.326959 0.354803
O O12 0.903816 0.328947 0.744685
O O13 0.694012 0.269816 0.597901
#
# Coordination Sequence:
#
# PCOD9364203 Si02
#       7
#     8   4   8   4   8   8   4
#     4  10  22  40  59  86 119 151 191 237 286 346
#     4  11  21  35  56  84 116 153 195 237 290 352
#     4  10  23  40  59  85 114 151 197 237 286 345
#     4  10  20  38  62  86 118 154 190 234 288 346
#     4  11  22  39  62  84 116 155 192 244 292 334
#     4  10  22  36  56  87 115 150 199 239 287 349
#     4   9  21  39  56  82 124 159 189 241 290 340
#
# _framework density 18.924707999999999
#
# number of rings (size 3 to 8) (size 9 to 14) (size 15 to 20)
#    0.000    1.818    0.000    3.818    0.000    8.000 
#    0.000    2.727    0.000    0.000    0.000    0.000 
#    0.000    0.000    0.000    0.000    0.000    0.000 
#
# Total GULP energy -122937.308248 kJ/mol
# GULP energy per Si atom -5588.059466 kJ/mol
# Density = 1.888163 g / cm^3
# Si number density = 18.924708 Si / 1000 Ang^3
#
#
#
# Elastic Constant Matrix: (Units=GPa)
#
#
# Indices 1 2 3 4 5 6 
#
# 1 106.5017 10.9936 52.7852 0.0000 0.0000 0.0000
# 2 10.9936 49.6449 41.9850 0.0000 0.0000 0.0000
# 3 52.7852 41.9850 155.8203 0.0000 0.0000 0.0000
# 4 0.0000 0.0000 0.0000 37.7370 0.0000 0.0000
# 5 0.0000 0.0000 0.0000 0.0000 17.4272 0.0000
# 6 0.0000 0.0000 0.0000 0.0000 0.0000 15.7789
#
#
#
# Elastic Compliance Matrix: (Units=1/GPa)
#
#
# Indices 1 2 3 4 5 6 
#
# 1 0.011319 0.000954 -0.004091 0.000000 0.000000 0.000000
# 2 0.000954 0.026168 -0.007374 0.000000 0.000000 0.000000
# 3 -0.004091 -0.007374 0.009790 0.000000 0.000000 0.000000
# 4 0.000000 0.000000 0.000000 0.026499 0.000000 0.000000
# 5 0.000000 0.000000 0.000000 0.000000 0.057382 0.000000
# 6 0.000000 0.000000 0.000000 0.000000 0.000000 0.063376
#
#
# Mechanical properties :
#
#
# Convention : Reuss Voigt Hill
#
# Bulk Modulus (GPa) = 38.08928 58.16604 48.12766
# Shear Modulus (GPa) = 22.29073 27.93549 25.11311
#
# Velocity S-wave (km/s) = 3.43573 3.84622 3.64675
# Velocity P-wave (km/s) = 5.99244 7.10822 6.57405
#
# Compressibility (1/GPa) = 0.02625411
#
# Stress axis : x y z
#
# Youngs Moduli (GPa) = 88.34831 38.21459 102.14056
#
# Poissons Ratio (x) = -0.03644 0.41788
# Poissons Ratio (y) = -0.08424 0.75317
# Poissons Ratio (z) = 0.36146 0.28179
#
# Static dielectric constant tensor:
#      x y z
#    x 1.652240 0.000000 0.000000 
#    y 0.000000 1.639540 0.000000 
#    z 0.000000 0.000000 1.621830 
# 
# From -- ./inp_files/8686.got.cif
#   From: 2010.05.17/outbox.cif.g08.bks.cpg/sg40_5_cif.got.tgz:8686.got - 2010.06.03 18:35:42.
