data_PCOD9364889
_publ_section_title
;
Structure prediction by ZEFSAII (Michael W. Deem and Ramdas Pophale) SiO2 
 PCOD9364889
Probable space group: A M A 2
;
_chemical_formula_sum "Si O2"
_cell_formula_units_Z 64
_cell_length_a 22.498402
_cell_length_b 11.508925
_cell_length_c 12.998882
_cell_angle_alpha 90.000000
_cell_angle_beta 90.000000
_cell_angle_gamma 90.000000
_cell_volume 3365.831990
_symmetry_space_group_name_H-M "A M A 2"
_symmetry_group_IT_number 40
_symmetry_cell_setting 'orthorhombic'
loop_
_space_group_symop_operation_xyz
x,y,z
-x,-y,z
1/2-x,y,z
1/2+x,-y,z
x,1/2+y,1/2+z
-x,1/2-y,1/2+z
1/2-x,1/2+y,1/2+z
1/2+x,1/2-y,1/2+z
loop_
_atom_site_type_symbol
_atom_site_label
_atom_site_fract_x
_atom_site_fract_y
_atom_site_fract_z
Si Si1 0.817585 0.842042 0.064750
Si Si2 0.948212 0.913513 0.822944
Si Si3 0.080720 0.805437 0.450514
Si Si4 0.571450 0.489032 0.813732
Si Si5 0.984838 0.676325 0.151684
Si Si6 0.629019 0.253604 0.778294
Si Si7 0.644157 0.561362 0.434090
Si Si8 0.950380 0.588811 0.599271
O O1 0.750000 0.804644 0.047028
O O2 0.833436 0.812626 0.184689
O O3 0.866283 0.764992 0.004674
O O4 0.822432 0.973297 0.014630
O O5 0.952294 0.789332 0.879032
O O6 0.962285 0.895903 0.703052
O O7 0.886925 0.970739 0.855837
O O8 0.000000 0.000000 0.855553
O O9 0.037706 0.853608 0.539030
O O10 0.101299 0.912349 0.382310
O O11 0.500000 0.500000 0.828584
O O12 0.597312 0.362338 0.834199
O O13 0.581058 0.523984 0.694341
O O14 0.926690 0.684220 0.225247
O O15 0.012762 0.803998 0.142115
O O16 0.663159 0.166990 0.857536
O O17 0.594674 0.617575 0.509079
O O18 0.000000 0.500000 0.561520
#
# Coordination Sequence:
#
# PCOD9364889 Si02
#       8
#     8   8   8   8   8   8   8   8
#     4  10  23  44  65  82 106 150 207 266 317 352
#     4  11  19  31  51  80 119 155 195 231 282 351
#     4  10  22  37  54  82 120 159 198 241 298 361
#     4  11  20  35  54  88 130 165 189 225 299 375
#     4  11  20  31  49  83 122 161 192 223 280 363
#     4  11  21  38  58  87 117 152 201 249 293 365
#     4  11  22  36  60  88 115 153 202 252 300 357
#     4  11  18  31  53  80 123 162 191 229 284 357
#
# _framework density 19.014616
#
# number of rings (size 3 to 8) (size 9 to 14) (size 15 to 20)
#    0.000    1.250    6.250    2.625    1.750    1.000 
#    0.000    0.625    0.000    0.000    0.000    0.000 
#    0.000    0.000    0.000    0.000    0.000    0.000 
#
# Total GULP energy -178220.652378 kJ/mol
# GULP energy per Si atom -5569.395387 kJ/mol
# Density = 1.897134 g / cm^3
# Si number density = 19.014616 Si / 1000 Ang^3
#
#
#
# Elastic Constant Matrix: (Units=GPa)
#
#
# Indices 1 2 3 4 5 6 
#
# 1 44.9500 3.2818 22.3066 0.0000 0.0000 0.0000
# 2 3.2818 79.2948 47.2354 0.0000 0.0000 0.0000
# 3 22.3066 47.2354 93.9687 0.0000 0.0000 0.0000
# 4 0.0000 0.0000 0.0000 83.8651 0.0000 0.0000
# 5 0.0000 0.0000 0.0000 0.0000 5.9626 0.0000
# 6 0.0000 0.0000 0.0000 0.0000 0.0000 8.8248
#
#
#
# Elastic Compliance Matrix: (Units=1/GPa)
#
#
# Indices 1 2 3 4 5 6 
#
# 1 0.025959 0.003706 -0.008025 0.000000 0.000000 0.000000
# 2 0.003706 0.018531 -0.010195 0.000000 0.000000 0.000000
# 3 -0.008025 -0.010195 0.017671 0.000000 0.000000 0.000000
# 4 0.000000 0.000000 0.000000 0.011924 0.000000 0.000000
# 5 0.000000 0.000000 0.000000 0.000000 0.167711 0.000000
# 6 0.000000 0.000000 0.000000 0.000000 0.000000 0.113317
#
#
# Mechanical properties :
#
#
# Convention : Reuss Voigt Hill
#
# Bulk Modulus (GPa) = 30.18071 40.42899 35.30485
# Shear Modulus (GPa) = 12.65230 29.42316 21.03773
#
# Velocity S-wave (km/s) = 2.58233 3.93796 3.32986
# Velocity P-wave (km/s) = 4.97977 6.47958 5.77854
#
# Compressibility (1/GPa) = 0.03313375
#
# Stress axis : x y z
#
# Youngs Moduli (GPa) = 38.52240 53.96463 56.58849
#
# Poissons Ratio (x) = -0.20000 0.45413
# Poissons Ratio (y) = -0.14277 0.57690
# Poissons Ratio (z) = 0.30915 0.55015
#
# Static dielectric constant tensor:
#      x y z
#    x 1.647350 0.000000 0.000000 
#    y 0.000000 1.654560 0.000000 
#    z 0.000000 0.000000 1.712210 
# 
# From -- ./inp_files/14264.got.cif
#   From: 2010.05.17/outbox.cif.g08.bks.cpg/sg40_8_cif.got.tgz:14264.got - 2010.06.03 18:35:42.
