data_PCOD9364297
_publ_section_title
;
Structure prediction by ZEFSAII (Michael W. Deem and Ramdas Pophale) SiO2 
 PCOD9364297
Probable space group: A M A 2
;
_chemical_formula_sum "Si O2"
_cell_formula_units_Z 56
_cell_length_a 19.962660
_cell_length_b 9.209248
_cell_length_c 14.135575
_cell_angle_alpha 90.000000
_cell_angle_beta 90.000000
_cell_angle_gamma 90.000000
_cell_volume 2598.699469
_symmetry_space_group_name_H-M "A M A 2"
_symmetry_group_IT_number 40
_symmetry_cell_setting 'orthorhombic'
loop_
_space_group_symop_operation_xyz
x,y,z
-x,-y,z
1/2-x,y,z
1/2+x,-y,z
x,1/2+y,1/2+z
-x,1/2-y,1/2+z
1/2-x,1/2+y,1/2+z
1/2+x,1/2-y,1/2+z
loop_
_atom_site_type_symbol
_atom_site_label
_atom_site_fract_x
_atom_site_fract_y
_atom_site_fract_z
Si Si1 0.432314 0.202659 0.685240
Si Si2 0.172274 0.729228 0.555662
Si Si3 0.109458 0.022195 0.207726
Si Si4 0.827853 0.027442 0.719784
Si Si5 0.051470 0.622343 0.976546
Si Si6 0.171701 0.444492 0.902873
Si Si7 0.946455 0.695229 0.311723
O O1 0.428469 0.375582 0.682686
O O2 0.459512 0.145252 0.586164
O O3 0.484051 0.151348 0.764548
O O4 0.359766 0.129115 0.699224
O O5 0.250000 0.688704 0.546485
O O6 0.137125 0.599728 0.613108
O O7 0.167805 0.868300 0.627060
O O8 0.149762 0.792057 0.453247
O O9 0.160351 0.966778 0.290847
O O10 0.069502 0.149159 0.261568
O O11 0.750000 0.023228 0.748889
O O12 0.880379 0.101348 0.791825
O O13 0.125563 0.564179 0.953492
O O14 0.042278 0.770732 0.920641
O O15 0.000000 0.500000 0.941004
O O16 0.250000 0.462272 0.924225
#
# Coordination Sequence:
#
# PCOD9364297 Si02
#       7
#     8   8   8   8   8   8   8
#     4  12  23  41  64  97 132 171 218 278 340 398
#     4   9  18  36  61  90 123 169 218 264 323 399
#     4  10  22  38  62  92 132 169 220 276 336 391
#     4  10  21  39  65  94 130 167 213 268 333 398
#     4  11  23  40  67  94 126 172 220 275 328 404
#     4  10  20  39  66  94 123 174 227 271 328 405
#     4  10  22  43  63  93 126 173 222 272 325 403
#
# _framework density 21.549240000000001
#
# number of rings (size 3 to 8) (size 9 to 14) (size 15 to 20)
#    0.000    1.714    1.429    3.857    2.000    4.571 
#    2.571    1.429    0.000    0.000    0.000    0.000 
#    0.000    0.000    0.000    0.000    0.000    0.000 
#
# Total GULP energy -156237.923459 kJ/mol
# GULP energy per Si atom -5579.925838 kJ/mol
# Density = 2.150019 g / cm^3
# Si number density = 21.549240 Si / 1000 Ang^3
#
#
#
# Elastic Constant Matrix: (Units=GPa)
#
#
# Indices 1 2 3 4 5 6 
#
# 1 97.7034 22.7161 31.9619 0.0000 0.0000 0.0000
# 2 22.7161 88.6700 9.8049 0.0000 0.0000 0.0000
# 3 31.9619 9.8049 71.0298 0.0000 0.0000 0.0000
# 4 0.0000 0.0000 0.0000 37.2856 0.0000 0.0000
# 5 0.0000 0.0000 0.0000 0.0000 15.4557 0.0000
# 6 0.0000 0.0000 0.0000 0.0000 0.0000 17.7932
#
#
#
# Elastic Compliance Matrix: (Units=1/GPa)
#
#
# Indices 1 2 3 4 5 6 
#
# 1 0.012581 -0.002637 -0.005297 0.000000 0.000000 0.000000
# 2 -0.002637 0.012005 -0.000470 0.000000 0.000000 0.000000
# 3 -0.005297 -0.000470 0.016527 0.000000 0.000000 0.000000
# 4 0.000000 0.000000 0.000000 0.026820 0.000000 0.000000
# 5 0.000000 0.000000 0.000000 0.000000 0.064701 0.000000
# 6 0.000000 0.000000 0.000000 0.000000 0.000000 0.056201
#
#
# Mechanical properties :
#
#
# Convention : Reuss Voigt Hill
#
# Bulk Modulus (GPa) = 41.14599 42.92990 42.03794
# Shear Modulus (GPa) = 23.39213 26.96827 25.18020
#
# Velocity S-wave (km/s) = 3.29830 3.54145 3.42204
# Velocity P-wave (km/s) = 5.80004 6.05702 5.92992
#
# Compressibility (1/GPa) = 0.02430371
#
# Stress axis : x y z
#
# Youngs Moduli (GPa) = 79.48423 83.29547 60.50650
#
# Poissons Ratio (x) = 0.21968 0.32051
# Poissons Ratio (y) = 0.20963 0.02847
# Poissons Ratio (z) = 0.42104 0.03919
#
# Static dielectric constant tensor:
#      x y z
#    x 1.767520 0.000000 0.000000 
#    y 0.000000 1.793520 0.000000 
#    z 0.000000 0.000000 1.816450 
# 
# From -- ./inp_files/18228.got.cif
#   From: 2010.05.17/outbox.cif.g08.bks.cpg/sg40_10_cif.got.tgz:18228.got - 2010.06.03 18:35:42.
