data_PCOD9364760
_publ_section_title
;
Structure prediction by ZEFSAII (Michael W. Deem and Ramdas Pophale) SiO2 
 PCOD9364760
Probable space group: A M A 2
;
_chemical_formula_sum "Si O2"
_cell_formula_units_Z 48
_cell_length_a 27.453943
_cell_length_b 13.357369
_cell_length_c 5.712604
_cell_angle_alpha 90.000000
_cell_angle_beta 90.000000
_cell_angle_gamma 90.000000
_cell_volume 2094.882992
_symmetry_space_group_name_H-M "A M A 2"
_symmetry_group_IT_number 40
_symmetry_cell_setting 'orthorhombic'
loop_
_space_group_symop_operation_xyz
x,y,z
-x,-y,z
1/2-x,y,z
1/2+x,-y,z
x,1/2+y,1/2+z
-x,1/2-y,1/2+z
1/2-x,1/2+y,1/2+z
1/2+x,1/2-y,1/2+z
loop_
_atom_site_type_symbol
_atom_site_label
_atom_site_fract_x
_atom_site_fract_y
_atom_site_fract_z
Si Si1 0.997860 0.689900 0.954740
Si Si2 0.354368 0.500014 0.501194
Si Si3 0.195958 0.383489 0.870383
Si Si4 0.302503 0.099543 0.628835
Si Si5 0.600004 0.856849 0.384525
Si Si6 0.897414 0.146415 0.643202
O O1 0.045844 0.620707 0.975571
O O2 0.997292 0.738923 0.690517
O O3 0.945300 0.637699 0.984893
O O4 0.324888 0.408386 0.615785
O O5 0.312771 0.571923 0.396865
O O6 0.385738 0.563209 0.684556
O O7 0.387213 0.452000 0.297516
O O8 0.250000 0.339865 0.878045
O O9 0.199023 0.493074 0.993083
O O10 0.152162 0.330138 0.002782
O O11 0.250000 0.148447 0.589075
O O12 0.352652 0.148375 0.548442
O O13 0.594374 0.743495 0.298681
#
# Coordination Sequence:
#
# PCOD9364760 Si02
#       6
#     8   8   8   8   8   8
#     4  10  24  44  73  95 132 180 220 280 348 405
#     4  10  21  40  65  94 128 176 222 272 336 412
#     4   9  19  37  61  94 133 171 217 276 335 399
#     4   9  19  37  61  94 133 171 217 276 335 399
#     4  10  23  41  68  93 132 173 224 275 343 399
#     4  10  23  41  68  93 132 173 224 275 343 399
#
# _framework density 22.912973999999998
#
# number of rings (size 3 to 8) (size 9 to 14) (size 15 to 20)
#    0.000    2.333    0.000    0.500    9.333    2.000 
#    0.000   10.833    0.000    0.000    0.000    0.000 
#    0.000    0.000    0.000    0.000    0.000    0.000 
#
# Total GULP energy -133782.592963 kJ/mol
# GULP energy per Si atom -5574.274707 kJ/mol
# Density = 2.286082 g / cm^3
# Si number density = 22.912974 Si / 1000 Ang^3
#
#
#
# Elastic Constant Matrix: (Units=GPa)
#
#
# Indices 1 2 3 4 5 6 
#
# 1 154.4059 11.6181 11.2649 0.0000 0.0000 0.0000
# 2 11.6181 40.3938 -2.2627 0.0000 0.0000 0.0000
# 3 11.2649 -2.2627 65.2459 0.0000 0.0000 0.0000
# 4 0.0000 0.0000 0.0000 25.5525 0.0000 0.0000
# 5 0.0000 0.0000 0.0000 0.0000 -32.5706 0.0000
# 6 0.0000 0.0000 0.0000 0.0000 0.0000 26.6956
#
#
#
# Elastic Compliance Matrix: (Units=1/GPa)
#
#
# Indices 1 2 3 4 5 6 
#
# 1 0.006717 -0.002001 -0.001229 0.000000 0.000000 0.000000
# 2 -0.002001 0.025400 0.001226 0.000000 0.000000 0.000000
# 3 -0.001229 0.001226 0.015581 0.000000 0.000000 0.000000
# 4 0.000000 0.000000 0.000000 0.039135 0.000000 0.000000
# 5 0.000000 0.000000 0.000000 0.000000 -0.030703 0.000000
# 6 0.000000 0.000000 0.000000 0.000000 0.000000 0.037459
#
#
# Mechanical properties :
#
#
# Convention : Reuss Voigt Hill
#
# Bulk Modulus (GPa) = 22.88773 33.47624 28.18199
# Shear Modulus (GPa) = 44.57877 19.89719 32.23798
#
# Velocity S-wave (km/s) = 4.41565 2.95003 3.75504
# Velocity P-wave (km/s) = 6.00066 5.12303 5.57913
#
# Compressibility (1/GPa) = 0.04369153
#
# Stress axis : x y z
#
# Youngs Moduli (GPa) = 148.88400 39.36947 64.17928
#
# Poissons Ratio (x) = 0.07877 0.07888
# Poissons Ratio (y) = 0.29787 -0.07870
# Poissons Ratio (z) = 0.18298 -0.04828
#
# Static dielectric constant tensor:
#      x y z
#    x 1.886640 0.000000 0.000000 
#    y 0.000000 1.872310 0.000000 
#    z 0.000000 0.000000 1.931870 
# 
# From -- ./inp_files/2714.got.cif
#   From: 2010.05.17/outbox.cif.g08.bks.cpg/sg40_2_cif.got.tgz:2714.got - 2010.06.03 18:35:42.
