data_PCOD9364788
_publ_section_title
;
Structure prediction by ZEFSAII (Michael W. Deem and Ramdas Pophale) SiO2 
 PCOD9364788
Probable space group: A M A 2
;
_chemical_formula_sum "Si O2"
_cell_formula_units_Z 48
_cell_length_a 8.377976
_cell_length_b 28.219707
_cell_length_c 9.934115
_cell_angle_alpha 90.000000
_cell_angle_beta 90.000000
_cell_angle_gamma 90.000000
_cell_volume 2348.663483
_symmetry_space_group_name_H-M "A M A 2"
_symmetry_group_IT_number 40
_symmetry_cell_setting 'orthorhombic'
loop_
_space_group_symop_operation_xyz
x,y,z
-x,-y,z
1/2-x,y,z
1/2+x,-y,z
x,1/2+y,1/2+z
-x,1/2-y,1/2+z
1/2-x,1/2+y,1/2+z
1/2+x,1/2-y,1/2+z
loop_
_atom_site_type_symbol
_atom_site_label
_atom_site_fract_x
_atom_site_fract_y
_atom_site_fract_z
Si Si1 0.443342 0.278083 0.644790
Si Si2 0.438847 0.589739 0.015804
Si Si3 0.939713 0.048736 0.248245
Si Si4 0.942993 0.624425 0.522623
Si Si5 0.939106 0.053040 0.797743
Si Si6 0.057062 0.196210 0.443870
O O1 0.250000 0.278673 0.648173
O O2 0.500049 0.322771 0.554297
O O3 0.493823 0.230780 0.565737
O O4 0.500207 0.285333 0.798011
O O5 0.250000 0.591908 0.041223
O O6 0.521689 0.568893 0.146914
O O7 0.474133 0.556486 0.889264
O O8 0.496576 0.642529 0.975151
O O9 0.750000 0.046939 0.267170
O O10 0.977818 0.092712 0.152943
O O11 0.000000 0.000000 0.184449
O O12 0.750000 0.627626 0.508932
O O13 0.004796 0.594110 0.396674
O O14 0.750000 0.051411 0.817474
O O15 0.000000 0.000000 0.824223
O O16 0.250000 0.195999 0.440090
#
# Coordination Sequence:
#
# PCOD9364788 Si02
#       6
#     8   8   8   8   8   8
#     4  10  21  41  64  89 122 157 196 242 294 360
#     4  11  23  40  58  86 123 157 196 245 293 350
#     4  11  21  37  61  88 115 153 196 242 298 352
#     4   9  20  38  61  87 117 153 196 240 291 353
#     4  11  23  40  61  88 119 159 202 246 298 353
#     4  10  23  40  62  92 123 154 196 247 298 350
#
# _framework density 20.437156000000002
#
# number of rings (size 3 to 8) (size 9 to 14) (size 15 to 20)
#    0.000    1.667    1.667    2.500    2.333    1.333 
#    0.000    4.167    0.000    0.000    0.000    0.000 
#    0.000    0.000    0.000    0.000    0.000    0.000 
#
# Total GULP energy -134071.585758 kJ/mol
# GULP energy per Si atom -5586.316073 kJ/mol
# Density = 2.039064 g / cm^3
# Si number density = 20.437156 Si / 1000 Ang^3
#
#
#
# Elastic Constant Matrix: (Units=GPa)
#
#
# Indices 1 2 3 4 5 6 
#
# 1 19.6118 10.1286 1.2996 0.0000 0.0000 0.0000
# 2 10.1286 90.5532 -9.5918 0.0000 0.0000 0.0000
# 3 1.2996 -9.5918 38.8386 0.0000 0.0000 0.0000
# 4 0.0000 0.0000 0.0000 31.9987 0.0000 0.0000
# 5 0.0000 0.0000 0.0000 0.0000 -28.3994 0.0000
# 6 0.0000 0.0000 0.0000 0.0000 0.0000 19.1860
#
#
#
# Elastic Compliance Matrix: (Units=1/GPa)
#
#
# Indices 1 2 3 4 5 6 
#
# 1 0.054555 -0.006465 -0.003422 0.000000 0.000000 0.000000
# 2 -0.006465 0.012106 0.003206 0.000000 0.000000 0.000000
# 3 -0.003422 0.003206 0.026654 0.000000 0.000000 0.000000
# 4 0.000000 0.000000 0.000000 0.031251 0.000000 0.000000
# 5 0.000000 0.000000 0.000000 0.000000 -0.035212 0.000000
# 6 0.000000 0.000000 0.000000 0.000000 0.000000 0.052121
#
#
# Mechanical properties :
#
#
# Convention : Reuss Voigt Hill
#
# Bulk Modulus (GPa) = 12.50720 16.96403 14.73561
# Shear Modulus (GPa) = 27.55002 14.36821 20.95911
#
# Velocity S-wave (km/s) = 3.67554 2.65437 3.20588
# Velocity P-wave (km/s) = 4.91385 4.20867 4.57487
#
# Compressibility (1/GPa) = 0.07995397
#
# Stress axis : x y z
#
# Youngs Moduli (GPa) = 18.33002 82.60415 37.51800
#
# Poissons Ratio (x) = 0.53401 0.12839
# Poissons Ratio (y) = 0.11850 -0.12029
# Poissons Ratio (z) = 0.06273 -0.26483
#
# Static dielectric constant tensor:
#      x y z
#    x 1.722860 0.000000 0.000000 
#    y 0.000000 0.836620 0.000000 
#    z 0.000000 0.000000 1.692790 
# 
# From -- ./inp_files/4587.got.cif
#   From: 2010.05.17/outbox.cif.g08.bks.cpg/sg40_3_cif.got.tgz:4587.got - 2010.06.03 18:35:42.
