data_PCOD9364535
_publ_section_title
;
Structure prediction by ZEFSAII (Michael W. Deem and Ramdas Pophale) SiO2 
 PCOD9364535
Probable space group: A M A 2
;
_chemical_formula_sum "Si O2"
_cell_formula_units_Z 48
_cell_length_a 17.375392
_cell_length_b 22.802032
_cell_length_c 5.749079
_cell_angle_alpha 90.000000
_cell_angle_beta 90.000000
_cell_angle_gamma 90.000000
_cell_volume 2277.752010
_symmetry_space_group_name_H-M "A M A 2"
_symmetry_group_IT_number 40
_symmetry_cell_setting 'orthorhombic'
loop_
_space_group_symop_operation_xyz
x,y,z
-x,-y,z
1/2-x,y,z
1/2+x,-y,z
x,1/2+y,1/2+z
-x,1/2-y,1/2+z
1/2-x,1/2+y,1/2+z
1/2+x,1/2-y,1/2+z
loop_
_atom_site_type_symbol
_atom_site_label
_atom_site_fract_x
_atom_site_fract_y
_atom_site_fract_z
Si Si1 0.837061 0.599708 0.080240
Si Si2 0.109954 0.208680 0.160388
Si Si3 0.839999 0.415133 0.512539
Si Si4 0.157971 0.538468 0.016632
Si Si5 0.453457 0.310950 0.852007
Si Si6 0.668263 0.690842 0.467499
O O1 0.750000 0.610104 0.983605
O O2 0.850848 0.531007 0.056728
O O3 0.833068 0.628581 0.335857
O O4 0.906378 0.635947 0.967017
O O5 0.151979 0.154688 0.041499
O O6 0.164308 0.254547 0.291071
O O7 0.044039 0.181639 0.326386
O O8 0.064195 0.250864 0.985497
O O9 0.750000 0.432511 0.504006
O O10 0.873119 0.432690 0.257839
O O11 0.871013 0.442997 0.757418
O O12 0.250000 0.552420 0.009528
O O13 0.409083 0.305071 0.610275
O O14 0.750000 0.696445 0.596587
#
# Coordination Sequence:
#
# PCOD9364535 Si02
#       6
#     8   8   8   8   8   8
#     4   9  20  38  63  91 118 154 211 263 310 371
#     4  11  23  39  59  87 127 165 205 253 319 381
#     4  10  22  39  64  93 125 166 209 256 310 374
#     4   9  20  39  64  93 123 161 209 263 313 362
#     4  11  22  38  61  86 123 166 201 259 320 368
#     4  10  21  37  62  91 117 157 208 258 307 368
#
# _framework density 21.073409999999999
#
# number of rings (size 3 to 8) (size 9 to 14) (size 15 to 20)
#    0.000    2.000    1.667    1.000    4.667    2.000 
#    0.000    0.833    0.000    0.000    0.000    0.000 
#    0.000    0.000    0.000    0.000    0.000    0.000 
#
# Total GULP energy -133672.191195 kJ/mol
# GULP energy per Si atom -5569.674633 kJ/mol
# Density = 2.102545 g / cm^3
# Si number density = 21.073410 Si / 1000 Ang^3
#
#
#
# Elastic Constant Matrix: (Units=GPa)
#
#
# Indices 1 2 3 4 5 6 
#
# 1 31.4383 -14.2706 2.2105 0.0000 0.0000 0.0000
# 2 -14.2706 50.7346 17.1678 0.0000 0.0000 0.0000
# 3 2.2105 17.1678 80.5170 0.0000 0.0000 0.0000
# 4 0.0000 0.0000 0.0000 6.8113 0.0000 0.0000
# 5 0.0000 0.0000 0.0000 0.0000 -6.1565 0.0000
# 6 0.0000 0.0000 0.0000 0.0000 0.0000 15.3979
#
#
#
# Elastic Compliance Matrix: (Units=1/GPa)
#
#
# Indices 1 2 3 4 5 6 
#
# 1 0.037368 0.011702 -0.003521 0.000000 0.000000 0.000000
# 2 0.011702 0.024908 -0.005632 0.000000 0.000000 0.000000
# 3 -0.003521 -0.005632 0.013717 0.000000 0.000000 0.000000
# 4 0.000000 0.000000 0.000000 0.146814 0.000000 0.000000
# 5 0.000000 0.000000 0.000000 0.000000 -0.162430 0.000000
# 6 0.000000 0.000000 0.000000 0.000000 0.000000 0.064944
#
#
# Mechanical properties :
#
#
# Convention : Reuss Voigt Hill
#
# Bulk Modulus (GPa) = 12.33177 19.21170 15.77173
# Shear Modulus (GPa) = 33.95509 13.71603 23.83556
#
# Velocity S-wave (km/s) = 4.01843 2.55398 3.36679
# Velocity P-wave (km/s) = 5.23401 4.22297 4.75543
#
# Compressibility (1/GPa) = 0.08109133
#
# Stress axis : x y z
#
# Youngs Moduli (GPa) = 26.76091 40.14799 72.90073
#
# Poissons Ratio (x) = -0.46982 0.25669
# Poissons Ratio (y) = -0.31316 0.41059
# Poissons Ratio (z) = 0.09423 0.22612
#
# Static dielectric constant tensor:
#      x y z
#    x 1.768420 0.000000 0.000000 
#    y 0.000000 1.717280 0.000000 
#    z 0.000000 0.000000 1.870600 
# 
# From -- ./inp_files/1866.got.cif
#   From: 2010.05.17/outbox.cif.g08.bks.cpg/sg40_1_cif.got.tgz:1866.got - 2010.06.03 18:35:42.
