data_PCOD9364101
_publ_section_title
;
Structure prediction by ZEFSAII (Michael W. Deem and Ramdas Pophale) SiO2 
 PCOD9364101
Probable space group: A M A 2
;
_chemical_formula_sum "Si O2"
_cell_formula_units_Z 48
_cell_length_a 8.602424
_cell_length_b 9.320088
_cell_length_c 31.339256
_cell_angle_alpha 90.000000
_cell_angle_beta 90.000000
_cell_angle_gamma 90.000000
_cell_volume 2512.635778
_symmetry_space_group_name_H-M "A M A 2"
_symmetry_group_IT_number 40
_symmetry_cell_setting 'orthorhombic'
loop_
_space_group_symop_operation_xyz
x,y,z
-x,-y,z
1/2-x,y,z
1/2+x,-y,z
x,1/2+y,1/2+z
-x,1/2-y,1/2+z
1/2-x,1/2+y,1/2+z
1/2+x,1/2-y,1/2+z
loop_
_atom_site_type_symbol
_atom_site_label
_atom_site_fract_x
_atom_site_fract_y
_atom_site_fract_z
Si Si1 0.937412 0.659546 0.494910
Si Si2 0.562670 0.341211 0.075323
Si Si3 0.435733 0.160644 0.250931
Si Si4 0.937159 0.339668 0.173003
Si Si5 0.935955 0.338595 0.330893
Si Si6 0.437096 0.161362 0.411224
O O1 0.750000 0.653889 0.495581
O O2 0.991201 0.730421 0.539362
O O3 0.982741 0.760274 0.455279
O O4 0.000000 0.500000 0.489395
O O5 0.500000 0.500000 0.065858
O O6 0.750000 0.346682 0.073969
O O7 0.518475 0.304278 0.123997
O O8 0.250000 0.159056 0.253046
O O9 0.491548 0.229901 0.206561
O O10 0.502210 0.258415 0.288901
O O11 0.500000 0.000000 0.255317
O O12 0.750000 0.339637 0.176447
O O13 0.000000 0.500000 0.181907
O O14 0.750000 0.341266 0.330376
O O15 0.000000 0.500000 0.332251
O O16 0.995579 0.251270 0.371864
O O17 0.250000 0.159413 0.408396
O O18 0.500000 0.000000 0.410236
#
# Coordination Sequence:
#
# PCOD9364101 Si02
#       6
#     8   8   8   8   8   8
#     4  10  22  38  57  84 118 155 196 241 290 345
#     4   9  19  36  58  85 116 152 195 241 289 344
#     4  12  25  42  62  87 119 155 196 241 293 348
#     4  10  20  37  60  87 119 155 197 243 293 348
#     4  12  25  43  65  90 120 154 194 239 290 346
#     4  11  23  40  62  89 120 155 196 241 292 347
#
# _framework density 19.103444
#
# number of rings (size 3 to 8) (size 9 to 14) (size 15 to 20)
#    0.000    1.333    0.000    6.000    0.000    4.667 
#    0.000    1.667    0.000    0.000    0.000    0.000 
#    0.000    0.000    0.000    0.000    0.000    0.000 
#
# Total GULP energy -134238.936471 kJ/mol
# GULP energy per Si atom -5593.289020 kJ/mol
# Density = 1.905996 g / cm^3
# Si number density = 19.103444 Si / 1000 Ang^3
#
#
#
# Elastic Constant Matrix: (Units=GPa)
#
#
# Indices 1 2 3 4 5 6 
#
# 1 102.7016 63.7063 56.9370 0.0000 0.0000 0.0000
# 2 63.7063 196.2079 116.1272 0.0000 0.0000 0.0000
# 3 56.9370 116.1272 140.7457 0.0000 0.0000 0.0000
# 4 0.0000 0.0000 0.0000 43.7498 0.0000 0.0000
# 5 0.0000 0.0000 0.0000 0.0000 28.0484 0.0000
# 6 0.0000 0.0000 0.0000 0.0000 0.0000 40.0260
#
#
#
# Elastic Compliance Matrix: (Units=1/GPa)
#
#
# Indices 1 2 3 4 5 6 
#
# 1 0.013007 -0.002167 -0.003474 0.000000 0.000000 0.000000
# 2 -0.002167 0.010322 -0.007640 0.000000 0.000000 0.000000
# 3 -0.003474 -0.007640 0.014814 0.000000 0.000000 0.000000
# 4 0.000000 0.000000 0.000000 0.022857 0.000000 0.000000
# 5 0.000000 0.000000 0.000000 0.000000 0.035653 0.000000
# 6 0.000000 0.000000 0.000000 0.000000 0.000000 0.024984
#
#
# Mechanical properties :
#
#
# Convention : Reuss Voigt Hill
#
# Bulk Modulus (GPa) = 86.34590 101.46626 93.90608
# Shear Modulus (GPa) = 32.88213 35.89050 34.38631
#
# Velocity S-wave (km/s) = 4.15332 4.33915 4.24725
# Velocity P-wave (km/s) = 8.26422 8.85063 8.56245
#
# Compressibility (1/GPa) = 0.01158133
#
# Stress axis : x y z
#
# Youngs Moduli (GPa) = 76.88101 96.88053 67.50526
#
# Poissons Ratio (x) = 0.20998 0.23449
# Poissons Ratio (y) = 0.16663 0.51572
# Poissons Ratio (z) = 0.26706 0.74014
#
# Static dielectric constant tensor:
#      x y z
#    x 1.645350 0.000000 0.000000 
#    y 0.000000 1.608340 0.000000 
#    z 0.000000 0.000000 1.660440 
# 
# From -- ./inp_files/26135.got.cif
#   From: 2010.05.17/outbox.cif.g08.bks.cpg/sg40_14_cif.got.tgz:26135.got - 2010.06.03 18:35:42.
