data_PCOD9364434
_publ_section_title
;
Structure prediction by ZEFSAII (Michael W. Deem and Ramdas Pophale) SiO2 
 PCOD9364434
Probable space group: A M A 2
;
_chemical_formula_sum "Si O2"
_cell_formula_units_Z 56
_cell_length_a 14.170043
_cell_length_b 17.362744
_cell_length_c 11.887432
_cell_angle_alpha 90.000000
_cell_angle_beta 90.000000
_cell_angle_gamma 90.000000
_cell_volume 2924.674751
_symmetry_space_group_name_H-M "A M A 2"
_symmetry_group_IT_number 40
_symmetry_cell_setting 'orthorhombic'
loop_
_space_group_symop_operation_xyz
x,y,z
-x,-y,z
1/2-x,y,z
1/2+x,-y,z
x,1/2+y,1/2+z
-x,1/2-y,1/2+z
1/2-x,1/2+y,1/2+z
1/2+x,1/2-y,1/2+z
loop_
_atom_site_type_symbol
_atom_site_label
_atom_site_fract_x
_atom_site_fract_y
_atom_site_fract_z
Si Si1 0.358107 0.108977 0.672540
Si Si2 0.637625 0.216932 0.194281
Si Si3 0.861636 0.194741 0.461317
Si Si4 0.401331 0.035018 0.904440
Si Si5 0.864317 0.554215 0.106718
Si Si6 0.493248 0.167512 0.021267
Si Si7 0.145559 0.874755 0.851749
O O1 0.250000 0.115013 0.634729
O O2 0.394477 0.195459 0.664273
O O3 0.358509 0.085424 0.804448
O O4 0.401341 0.033723 0.612614
O O5 0.750000 0.207600 0.166369
O O6 0.628697 0.203759 0.327314
O O7 0.566086 0.164756 0.123886
O O8 0.750000 0.204683 0.488005
O O9 0.891918 0.110949 0.506756
O O10 0.923777 0.260225 0.520183
O O11 0.429502 0.091152 0.005106
O O12 0.500000 0.000000 0.861663
O O13 0.347286 0.955609 0.920936
O O14 0.750000 0.545964 0.102474
O O15 0.879937 0.599203 0.224833
O O16 0.562195 0.171588 0.911382
O O17 0.250000 0.838443 0.851650
#
# Coordination Sequence:
#
# PCOD9364434 Si02
#       7
#     8   8   8   8   8   8   8
#     4   9  16  31  54  78 104 137 182 232 282 341
#     4  10  21  35  53  80 115 154 191 233 292 356
#     4  10  21  35  53  81 116 154 192 236 292 351
#     4   9  17  28  47  77 102 134 177 234 285 331
#     4   8  16  31  54  82 109 140 183 235 291 339
#     4  11  21  31  52  80 113 146 191 235 284 350
#     4   9  18  33  55  82 112 141 178 237 299 346
#
# _framework density 19.147428000000001
#
# number of rings (size 3 to 8) (size 9 to 14) (size 15 to 20)
#    0.000    2.571    1.429    1.714    2.000    1.714 
#    0.000    0.000    0.000    5.143    0.000    2.000 
#    0.000    0.000    0.000    0.000    0.000    0.000 
#
# Total GULP energy -155895.301462 kJ/mol
# GULP energy per Si atom -5567.689338 kJ/mol
# Density = 1.910385 g / cm^3
# Si number density = 19.147428 Si / 1000 Ang^3
#
#
#
# Elastic Constant Matrix: (Units=GPa)
#
#
# Indices 1 2 3 4 5 6 
#
# 1 66.8431 20.2112 24.6101 0.0000 0.0000 0.0000
# 2 20.2112 79.7708 30.0203 0.0000 0.0000 0.0000
# 3 24.6101 30.0203 44.6493 0.0000 0.0000 0.0000
# 4 0.0000 0.0000 0.0000 30.0505 0.0000 0.0000
# 5 0.0000 0.0000 0.0000 0.0000 15.2953 0.0000
# 6 0.0000 0.0000 0.0000 0.0000 0.0000 20.3766
#
#
#
# Elastic Compliance Matrix: (Units=1/GPa)
#
#
# Indices 1 2 3 4 5 6 
#
# 1 0.018849 -0.001159 -0.009610 0.000000 0.000000 0.000000
# 2 -0.001159 0.016854 -0.010693 0.000000 0.000000 0.000000
# 3 -0.009610 -0.010693 0.034883 0.000000 0.000000 0.000000
# 4 0.000000 0.000000 0.000000 0.033277 0.000000 0.000000
# 5 0.000000 0.000000 0.000000 0.000000 0.065380 0.000000
# 6 0.000000 0.000000 0.000000 0.000000 0.000000 0.049076
#
#
# Mechanical properties :
#
#
# Convention : Reuss Voigt Hill
#
# Bulk Modulus (GPa) = 36.15077 37.88293 37.01685
# Shear Modulus (GPa) = 18.48681 20.90591 19.69636
#
# Velocity S-wave (km/s) = 3.11062 3.30788 3.21077
# Velocity P-wave (km/s) = 5.64114 5.86662 5.75499
#
# Compressibility (1/GPa) = 0.02766193
#
# Stress axis : x y z
#
# Youngs Moduli (GPa) = 53.05298 59.33442 28.66722
#
# Poissons Ratio (x) = 0.06878 0.27549
# Poissons Ratio (y) = 0.06150 0.30653
# Poissons Ratio (z) = 0.50984 0.63445
#
# Static dielectric constant tensor:
#      x y z
#    x 1.807640 0.000000 0.000000 
#    y 0.000000 1.714310 0.000000 
#    z 0.000000 0.000000 1.651960 
# 
# From -- ./inp_files/13175.got.cif
#   From: 2010.05.17/outbox.cif.g08.bks.cpg/sg40_7_cif.got.tgz:13175.got - 2010.06.03 18:35:42.
