data_PCOD9364486
_publ_section_title
;
Structure prediction by ZEFSAII (Michael W. Deem and Ramdas Pophale) SiO2 
 PCOD9364486
Probable space group: A M A 2
;
_chemical_formula_sum "Si O2"
_cell_formula_units_Z 64
_cell_length_a 8.803554
_cell_length_b 24.672009
_cell_length_c 14.351008
_cell_angle_alpha 90.000000
_cell_angle_beta 90.000000
_cell_angle_gamma 90.000000
_cell_volume 3117.058505
_symmetry_space_group_name_H-M "A M A 2"
_symmetry_group_IT_number 40
_symmetry_cell_setting 'orthorhombic'
loop_
_space_group_symop_operation_xyz
x,y,z
-x,-y,z
1/2-x,y,z
1/2+x,-y,z
x,1/2+y,1/2+z
-x,1/2-y,1/2+z
1/2-x,1/2+y,1/2+z
1/2+x,1/2-y,1/2+z
loop_
_atom_site_type_symbol
_atom_site_label
_atom_site_fract_x
_atom_site_fract_y
_atom_site_fract_z
Si Si1 0.924256 0.728460 0.725750
Si Si2 0.425002 0.278487 0.498418
Si Si3 0.930172 0.392012 0.509872
Si Si4 0.566508 0.839071 0.507478
Si Si5 0.069061 0.339343 0.213775
Si Si6 0.432019 0.443927 0.333723
Si Si7 0.566787 0.608262 0.714974
Si Si8 0.932017 0.944516 0.389164
O O1 0.750000 0.733903 0.756299
O O2 0.923350 0.727092 0.611766
O O3 0.983127 0.668557 0.749456
O O4 0.015468 0.781579 0.754818
O O5 0.250000 0.288366 0.468645
O O6 0.524162 0.331007 0.478024
O O7 0.480767 0.219483 0.465491
O O8 0.750000 0.397602 0.513771
O O9 0.002477 0.432864 0.436215
O O10 0.002043 0.399906 0.611843
O O11 0.750000 0.836441 0.513447
O O12 0.500056 0.843921 0.610754
O O13 0.524093 0.891826 0.449226
O O14 0.250000 0.338633 0.207822
O O15 0.022284 0.391627 0.272965
O O16 0.500000 0.500000 0.296642
O O17 0.250000 0.446829 0.336306
O O18 0.750000 0.607948 0.712011
O O19 0.502222 0.565470 0.787407
O O20 0.750000 0.947577 0.384634
O O21 0.000000 0.000000 0.428639
#
# Coordination Sequence:
#
# PCOD9364486 Si02
#       8
#     8   8   8   8   8   8   8   8
#     4   8  16  32  56  85 117 149 183 224 278 338
#     4   8  15  32  56  84 116 149 184 227 278 334
#     4  11  22  37  60  89 117 149 186 230 283 341
#     4   9  20  38  60  84 116 154 189 230 283 336
#     4  10  21  36  59  88 117 148 186 233 284 336
#     4  11  25  43  59  81 112 149 194 241 283 332
#     4  10  21  39  61  86 117 152 187 232 283 334
#     4  11  24  41  59  83 113 150 196 241 282 333
#
# _framework density 20.532177000000001
#
# number of rings (size 3 to 8) (size 9 to 14) (size 15 to 20)
#    0.000    2.250    0.000    4.125    0.000   10.000 
#    0.000    8.750    0.000    0.000    0.000    0.000 
#    0.000    0.000    0.000    0.000    0.000    0.000 
#
# Total GULP energy -178800.221543 kJ/mol
# GULP energy per Si atom -5587.506923 kJ/mol
# Density = 2.048545 g / cm^3
# Si number density = 20.532177 Si / 1000 Ang^3
#
#
#
# Elastic Constant Matrix: (Units=GPa)
#
#
# Indices 1 2 3 4 5 6 
#
# 1 46.6365 24.7458 10.4834 0.0000 0.0000 0.0000
# 2 24.7458 100.9529 16.5228 0.0000 0.0000 0.0000
# 3 10.4834 16.5228 46.9288 0.0000 0.0000 0.0000
# 4 0.0000 0.0000 0.0000 28.0649 0.0000 0.0000
# 5 0.0000 0.0000 0.0000 0.0000 -7.3103 0.0000
# 6 0.0000 0.0000 0.0000 0.0000 0.0000 46.2265
#
#
#
# Elastic Compliance Matrix: (Units=1/GPa)
#
#
# Indices 1 2 3 4 5 6 
#
# 1 0.025230 -0.005584 -0.003670 0.000000 0.000000 0.000000
# 2 -0.005584 0.011747 -0.002889 0.000000 0.000000 0.000000
# 3 -0.003670 -0.002889 0.023146 0.000000 0.000000 0.000000
# 4 0.000000 0.000000 0.000000 0.035632 0.000000 0.000000
# 5 0.000000 0.000000 0.000000 0.000000 -0.136793 0.000000
# 6 0.000000 0.000000 0.000000 0.000000 0.000000 0.021633
#
#
# Mechanical properties :
#
#
# Convention : Reuss Voigt Hill
#
# Bulk Modulus (GPa) = 27.90339 33.11359 30.50849
# Shear Modulus (GPa) = 297.16286 22.91396 160.03841
#
# Velocity S-wave (km/s) = 12.04344 3.34429 8.83823
# Velocity P-wave (km/s) = 14.38792 5.57450 10.91071
#
# Compressibility (1/GPa) = 0.03583794
#
# Stress axis : x y z
#
# Youngs Moduli (GPa) = 39.63488 85.12747 43.20441
#
# Poissons Ratio (x) = 0.47534 0.15857
# Poissons Ratio (y) = 0.22131 0.12480
# Poissons Ratio (z) = 0.14547 0.24590
#
# Static dielectric constant tensor:
#      x y z
#    x 1.680720 0.000000 0.000000 
#    y 0.000000 1.759190 0.000000 
#    z 0.000000 0.000000 1.744150 
# 
# From -- ./inp_files/15696.got.cif
#   From: 2010.05.17/outbox.cif.g08.bks.cpg/sg40_8_cif.got.tgz:15696.got - 2010.06.03 18:35:42.
