data_PCOD9364591
_publ_section_title
;
Structure prediction by ZEFSAII (Michael W. Deem and Ramdas Pophale) SiO2 
 PCOD9364591
Probable space group: A M A 2
;
_chemical_formula_sum "Si O2"
_cell_formula_units_Z 48
_cell_length_a 17.083819
_cell_length_b 8.289264
_cell_length_c 18.250518
_cell_angle_alpha 90.000000
_cell_angle_beta 90.000000
_cell_angle_gamma 90.000000
_cell_volume 2584.497571
_symmetry_space_group_name_H-M "A M A 2"
_symmetry_group_IT_number 40
_symmetry_cell_setting 'orthorhombic'
loop_
_space_group_symop_operation_xyz
x,y,z
-x,-y,z
1/2-x,y,z
1/2+x,-y,z
x,1/2+y,1/2+z
-x,1/2-y,1/2+z
1/2-x,1/2+y,1/2+z
1/2+x,1/2-y,1/2+z
loop_
_atom_site_type_symbol
_atom_site_label
_atom_site_fract_x
_atom_site_fract_y
_atom_site_fract_z
Si Si1 0.003574 0.321578 0.003360
Si Si2 0.571972 0.676830 0.168153
Si Si3 0.838988 0.642058 0.499263
Si Si4 0.338868 0.493487 0.658706
Si Si5 0.099214 0.661754 0.227697
Si Si6 0.417356 0.585323 0.388598
O O1 0.042125 0.329024 0.084001
O O2 0.000000 0.500000 0.972049
O O3 0.914188 0.258127 0.008425
O O4 0.055707 0.211537 0.950554
O O5 0.493949 0.678284 0.216734
O O6 0.617815 0.511580 0.189084
O O7 0.614037 0.846967 0.179937
O O8 0.750000 0.709706 0.497132
O O9 0.842890 0.528094 0.570802
O O10 0.858570 0.539311 0.427050
O O11 0.250000 0.519357 0.680910
O O12 0.365649 0.321464 0.691030
O O13 0.117108 0.654070 0.313714
O O14 0.500000 0.500000 0.369343
#
# Coordination Sequence:
#
# PCOD9364591 Si02
#       6
#     8   8   8   8   8   8
#     4  11  20  37  64  89 116 159 209 249 297 366
#     4  11  20  38  63  92 116 158 207 258 294 358
#     4  10  21  38  60  88 123 161 201 250 310 365
#     4  11  23  38  62  92 123 164 203 249 309 366
#     4  11  22  39  64  91 122 154 206 257 303 353
#     4  10  21  38  61  88 118 158 200 248 305 363
#
# _framework density 18.572275000000001
#
# number of rings (size 3 to 8) (size 9 to 14) (size 15 to 20)
#    0.000    1.333    6.667    0.500    0.000    2.667 
#    0.000    1.667    0.000    0.000    0.000    0.000 
#    0.000    0.000    0.000    0.000    0.000    0.000 
#
# Total GULP energy -133807.287176 kJ/mol
# GULP energy per Si atom -5575.303632 kJ/mol
# Density = 1.853000 g / cm^3
# Si number density = 18.572275 Si / 1000 Ang^3
#
#
#
# Elastic Constant Matrix: (Units=GPa)
#
#
# Indices 1 2 3 4 5 6 
#
# 1 45.1033 24.6115 22.0708 0.0000 0.0000 0.0000
# 2 24.6115 86.9983 31.9705 0.0000 0.0000 0.0000
# 3 22.0708 31.9705 107.2616 0.0000 0.0000 0.0000
# 4 0.0000 0.0000 0.0000 22.3689 0.0000 0.0000
# 5 0.0000 0.0000 0.0000 0.0000 -5.7623 0.0000
# 6 0.0000 0.0000 0.0000 0.0000 0.0000 4.2530
#
#
#
# Elastic Compliance Matrix: (Units=1/GPa)
#
#
# Indices 1 2 3 4 5 6 
#
# 1 0.027500 -0.006401 -0.003751 0.000000 0.000000 0.000000
# 2 -0.006401 0.014398 -0.002974 0.000000 0.000000 0.000000
# 3 -0.003751 -0.002974 0.010981 0.000000 0.000000 0.000000
# 4 0.000000 0.000000 0.000000 0.044705 0.000000 0.000000
# 5 0.000000 0.000000 0.000000 0.000000 -0.173542 0.000000
# 6 0.000000 0.000000 0.000000 0.000000 0.000000 0.235129
#
#
# Mechanical properties :
#
#
# Convention : Reuss Voigt Hill
#
# Bulk Modulus (GPa) = 37.55607 44.07431 40.81519
# Shear Modulus (GPa) = 25.73345 14.88595 20.30970
#
# Velocity S-wave (km/s) = 3.72638 2.83417 3.31047
# Velocity P-wave (km/s) = 6.22736 5.87306 6.05280
#
# Compressibility (1/GPa) = 0.02662685
#
# Stress axis : x y z
#
# Youngs Moduli (GPa) = 36.36418 69.45198 91.06398
#
# Poissons Ratio (x) = 0.44458 0.34154
# Poissons Ratio (y) = 0.23278 0.27087
# Poissons Ratio (z) = 0.13638 0.20658
#
# Static dielectric constant tensor:
#      x y z
#    x 1.641160 0.000000 0.000000 
#    y 0.000000 1.671260 0.000000 
#    z 0.000000 0.000000 1.649860 
# 
# From -- ./inp_files/20554.got.cif
#   From: 2010.05.17/outbox.cif.g08.bks.cpg/sg40_11_cif.got.tgz:20554.got - 2010.06.03 18:35:42.
