data_PCOD9364628
_publ_section_title
;
Structure prediction by ZEFSAII (Michael W. Deem and Ramdas Pophale) SiO2 
 PCOD9364628
Probable space group: A M A 2
;
_chemical_formula_sum "Si O2"
_cell_formula_units_Z 40
_cell_length_a 16.536263
_cell_length_b 17.127416
_cell_length_c 5.798394
_cell_angle_alpha 90.000000
_cell_angle_beta 90.000000
_cell_angle_gamma 90.000000
_cell_volume 1642.241185
_symmetry_space_group_name_H-M "A M A 2"
_symmetry_group_IT_number 40
_symmetry_cell_setting 'orthorhombic'
loop_
_space_group_symop_operation_xyz
x,y,z
-x,-y,z
1/2-x,y,z
1/2+x,-y,z
x,1/2+y,1/2+z
-x,1/2-y,1/2+z
1/2-x,1/2+y,1/2+z
1/2+x,1/2-y,1/2+z
loop_
_atom_site_type_symbol
_atom_site_label
_atom_site_fract_x
_atom_site_fract_y
_atom_site_fract_z
Si Si1 0.034037 0.590193 0.888530
Si Si2 0.920958 0.445165 0.382192
Si Si3 0.750000 0.957032 0.978218
Si Si4 0.250000 0.714547 0.290490
Si Si5 0.627549 0.168208 0.517256
Si Si6 0.250000 0.439054 0.818841
Si Si7 0.250000 0.312307 0.408356
O O1 0.070022 0.601181 0.628570
O O2 0.000000 0.500000 0.879617
O O3 0.963301 0.652928 0.943180
O O4 0.083401 0.594995 0.130055
O O5 0.836328 0.490510 0.403753
O O6 0.000000 0.500000 0.373390
O O7 0.750000 0.869619 0.894549
O O8 0.750000 0.971968 0.250770
O O9 0.328246 0.762864 0.377901
O O10 0.250000 0.726846 0.019836
O O11 0.670969 0.086829 0.449626
O O12 0.665796 0.181305 0.768924
O O13 0.250000 0.381158 0.596762
#
# Coordination Sequence:
#
# PCOD9364628 Si02
#       7
#     8   8   4   4   8   4   4
#     4  10  21  38  65  99 137 170 231 302 369 432
#     4  10  24  42  64 104 141 180 233 305 377 435
#     4  12  24  44  68 100 148 190 243 319 373 456
#     4   9  22  42  61  99 137 201 242 283 376 460
#     4   9  19  38  65  95 131 188 230 302 359 443
#     4   9  18  32  63  97 125 171 233 292 359 408
#     4   8  18  34  62  96 130 172 244 278 360 440
#
# _framework density 24.356957000000001
#
# number of rings (size 3 to 8) (size 9 to 14) (size 15 to 20)
#    0.000    2.800    0.000    2.400   11.200    0.800 
#    7.200    2.000    0.000    0.000    0.000    0.000 
#    0.000    0.000    0.000    0.000    0.000    0.000 
#
# Total GULP energy -111376.489361 kJ/mol
# GULP energy per Si atom -5568.824468 kJ/mol
# Density = 2.430152 g / cm^3
# Si number density = 24.356957 Si / 1000 Ang^3
#
#
#
# Elastic Constant Matrix: (Units=GPa)
#
#
# Indices 1 2 3 4 5 6 
#
# 1 104.9624 3.0516 11.6078 0.0000 0.0000 0.0000
# 2 3.0516 78.7842 28.3426 0.0000 0.0000 0.0000
# 3 11.6078 28.3426 173.7166 0.0000 0.0000 0.0000
# 4 0.0000 0.0000 0.0000 32.0995 0.0000 0.0000
# 5 0.0000 0.0000 0.0000 0.0000 -23.5665 0.0000
# 6 0.0000 0.0000 0.0000 0.0000 0.0000 17.7775
#
#
#
# Elastic Compliance Matrix: (Units=1/GPa)
#
#
# Indices 1 2 3 4 5 6 
#
# 1 0.009600 -0.000150 -0.000617 0.000000 0.000000 0.000000
# 2 -0.000150 0.013487 -0.002190 0.000000 0.000000 0.000000
# 3 -0.000617 -0.002190 0.006155 0.000000 0.000000 0.000000
# 4 0.000000 0.000000 0.000000 0.031153 0.000000 0.000000
# 5 0.000000 0.000000 0.000000 0.000000 -0.042433 0.000000
# 6 0.000000 0.000000 0.000000 0.000000 0.000000 0.056251
#
#
# Mechanical properties :
#
#
# Convention : Reuss Voigt Hill
#
# Bulk Modulus (GPa) = 42.86866 49.27414 46.07140
# Shear Modulus (GPa) = 56.88110 26.22618 41.55364
#
# Velocity S-wave (km/s) = 4.83775 3.28494 4.13489
# Velocity P-wave (km/s) = 6.98881 5.88742 6.46162
#
# Compressibility (1/GPa) = 0.02332707
#
# Stress axis : x y z
#
# Youngs Moduli (GPa) = 104.16867 74.14714 162.46678
#
# Poissons Ratio (x) = 0.01111 0.10024
# Poissons Ratio (y) = 0.01561 0.35587
# Poissons Ratio (z) = 0.06427 0.16241
#
# Static dielectric constant tensor:
#      x y z
#    x 1.933920 0.000000 0.000000 
#    y 0.000000 2.021160 0.000000 
#    z 0.000000 0.000000 2.063210 
# 
# From -- ./inp_files/1830.got.cif
#   From: 2010.05.17/outbox.cif.g08.bks.cpg/sg40_1_cif.got.tgz:1830.got - 2010.06.03 18:35:42.
