data_PCOD9364323
_publ_section_title
;
Structure prediction by ZEFSAII (Michael W. Deem and Ramdas Pophale) SiO2 
 PCOD9364323
Probable space group: A M A 2
;
_chemical_formula_sum "Si O2"
_cell_formula_units_Z 64
_cell_length_a 17.553034
_cell_length_b 13.761092
_cell_length_c 12.248636
_cell_angle_alpha 90.000000
_cell_angle_beta 90.000000
_cell_angle_gamma 90.000000
_cell_volume 2958.644745
_symmetry_space_group_name_H-M "A M A 2"
_symmetry_group_IT_number 40
_symmetry_cell_setting 'orthorhombic'
loop_
_space_group_symop_operation_xyz
x,y,z
-x,-y,z
1/2-x,y,z
1/2+x,-y,z
x,1/2+y,1/2+z
-x,1/2-y,1/2+z
1/2-x,1/2+y,1/2+z
1/2+x,1/2-y,1/2+z
loop_
_atom_site_type_symbol
_atom_site_label
_atom_site_fract_x
_atom_site_fract_y
_atom_site_fract_z
Si Si1 0.659949 0.633032 0.308540
Si Si2 0.162423 0.084538 0.738694
Si Si3 0.659481 0.398119 0.598931
Si Si4 0.414246 0.796487 0.582761
Si Si5 0.948628 0.408916 0.799814
Si Si6 0.414583 0.005809 0.531464
Si Si7 0.941632 0.742738 0.707223
Si Si8 0.658467 0.619556 0.547141
O O1 0.750000 0.653191 0.299568
O O2 0.650345 0.516284 0.301678
O O3 0.620671 0.677578 0.202599
O O4 0.633995 0.662604 0.429475
O O5 0.250000 0.114839 0.752854
O O6 0.103117 0.169360 0.762591
O O7 0.144645 0.053804 0.613422
O O8 0.750000 0.386340 0.601297
O O9 0.621861 0.304110 0.542555
O O10 0.622184 0.397855 0.719169
O O11 0.641794 0.504160 0.550668
O O12 0.396570 0.891926 0.512109
O O13 0.502790 0.780623 0.610359
O O14 0.000000 0.500000 0.761272
O O15 0.003934 0.316902 0.788047
O O16 0.922422 0.435332 0.920547
O O17 0.500000 0.000000 0.583341
O O18 0.882007 0.672363 0.647189
O O19 0.750000 0.629974 0.555093
#
# Coordination Sequence:
#
# PCOD9364323 Si02
#       8
#     8   8   8   8   8   8   8   8
#     4   9  20  40  63  89 121 160 201 254 312 369
#     4  10  21  39  65  93 124 159 208 261 313 371
#     4  10  21  39  61  88 122 161 205 258 306 368
#     4  10  21  38  64  87 121 156 205 259 308 369
#     4  10  21  39  60  84 126 166 206 250 305 374
#     4  10  20  40  63  88 126 165 203 261 313 366
#     4  11  21  37  57  88 122 161 205 252 309 364
#     4  10  21  40  61  85 125 163 201 251 310 371
#
# _framework density 21.631525
#
# number of rings (size 3 to 8) (size 9 to 14) (size 15 to 20)
#    0.000    2.000    2.500    0.750    0.000    3.000 
#    4.500    3.750    0.000    0.000    0.000    0.000 
#    0.000    0.000    0.000    0.000    0.000    0.000 
#
# Total GULP energy -178757.678514 kJ/mol
# GULP energy per Si atom -5586.177454 kJ/mol
# Density = 2.158229 g / cm^3
# Si number density = 21.631525 Si / 1000 Ang^3
#
#
#
# Elastic Constant Matrix: (Units=GPa)
#
#
# Indices 1 2 3 4 5 6 
#
# 1 47.9911 14.6182 4.7312 0.0000 0.0000 0.0000
# 2 14.6182 81.4924 4.4124 0.0000 0.0000 0.0000
# 3 4.7312 4.4124 73.2008 0.0000 0.0000 0.0000
# 4 0.0000 0.0000 0.0000 12.6207 0.0000 0.0000
# 5 0.0000 0.0000 0.0000 0.0000 20.4597 0.0000
# 6 0.0000 0.0000 0.0000 0.0000 0.0000 43.5109
#
#
#
# Elastic Compliance Matrix: (Units=1/GPa)
#
#
# Indices 1 2 3 4 5 6 
#
# 1 0.022145 -0.003908 -0.001196 0.000000 0.000000 0.000000
# 2 -0.003908 0.013001 -0.000531 0.000000 0.000000 0.000000
# 3 -0.001196 -0.000531 0.013770 0.000000 0.000000 0.000000
# 4 0.000000 0.000000 0.000000 0.079235 0.000000 0.000000
# 5 0.000000 0.000000 0.000000 0.000000 0.048876 0.000000
# 6 0.000000 0.000000 0.000000 0.000000 0.000000 0.022983
#
#
# Mechanical properties :
#
#
# Convention : Reuss Voigt Hill
#
# Bulk Modulus (GPa) = 26.56229 27.80088 27.18159
# Shear Modulus (GPa) = 22.33849 27.24644 24.79247
#
# Velocity S-wave (km/s) = 3.21702 3.55289 3.38912
# Velocity P-wave (km/s) = 5.10931 5.45075 5.28279
#
# Compressibility (1/GPa) = 0.03764736
#
# Stress axis : x y z
#
# Youngs Moduli (GPa) = 45.15620 76.91834 72.61983
#
# Poissons Ratio (x) = 0.30057 0.08684
# Poissons Ratio (y) = 0.17646 0.03857
# Poissons Ratio (z) = 0.05400 0.04085
#
# Static dielectric constant tensor:
#      x y z
#    x 1.759730 0.000000 0.000000 
#    y 0.000000 1.835660 0.000000 
#    z 0.000000 0.000000 1.782470 
# 
# From -- ./inp_files/13138.got.cif
#   From: 2010.05.17/outbox.cif.g08.bks.cpg/sg40_7_cif.got.tgz:13138.got - 2010.06.03 18:35:42.
