data_PCOD9364537
_publ_section_title
;
Structure prediction by ZEFSAII (Michael W. Deem and Ramdas Pophale) SiO2 
 PCOD9364537
Probable space group: A M A 2
;
_chemical_formula_sum "Si O2"
_cell_formula_units_Z 64
_cell_length_a 8.875433
_cell_length_b 15.731339
_cell_length_c 24.195093
_cell_angle_alpha 90.000000
_cell_angle_beta 90.000000
_cell_angle_gamma 90.000000
_cell_volume 3378.178049
_symmetry_space_group_name_H-M "A M A 2"
_symmetry_group_IT_number 40
_symmetry_cell_setting 'orthorhombic'
loop_
_space_group_symop_operation_xyz
x,y,z
-x,-y,z
1/2-x,y,z
1/2+x,-y,z
x,1/2+y,1/2+z
-x,1/2-y,1/2+z
1/2-x,1/2+y,1/2+z
1/2+x,1/2-y,1/2+z
loop_
_atom_site_type_symbol
_atom_site_label
_atom_site_fract_x
_atom_site_fract_y
_atom_site_fract_z
Si Si1 0.430467 0.911397 0.520170
Si Si2 0.568645 0.251525 0.595163
Si Si3 0.070316 0.088950 0.018994
Si Si4 0.570973 0.150145 0.905893
Si Si5 0.069749 0.746689 0.216221
Si Si6 0.069161 0.909572 0.783204
Si Si7 0.070458 0.646875 0.904678
Si Si8 0.069611 0.411529 0.789465
O O1 0.250000 0.917712 0.516193
O O2 0.468112 0.833534 0.560796
O O3 0.498177 0.890981 0.459949
O O4 0.500000 0.000000 0.540029
O O5 0.750000 0.253400 0.602757
O O6 0.525045 0.332937 0.558321
O O7 0.488704 0.252794 0.653924
O O8 0.250000 0.082901 0.019369
O O9 0.000000 0.000000 0.037228
O O10 0.015434 0.109782 0.957142
O O11 0.750000 0.136837 0.913800
O O12 0.527489 0.110689 0.846978
O O13 0.543954 0.251466 0.904206
O O14 0.250000 0.737206 0.217459
O O15 0.030662 0.832259 0.250080
O O16 0.994210 0.666399 0.246092
O O17 0.250000 0.911624 0.779456
O O18 0.000000 0.000000 0.767129
O O19 0.250000 0.631922 0.904396
O O20 0.997114 0.607619 0.850034
O O21 0.250000 0.418319 0.792743
O O22 0.000000 0.500000 0.769110
#
# Coordination Sequence:
#
# PCOD9364537 Si02
#       8
#     8   8   8   8   8   8   8   8
#     4  11  23  41  63  92 124 161 203 248 304 362
#     4  10  24  44  64  86 120 163 206 254 307 361
#     4  11  23  40  63  92 125 163 203 250 305 362
#     4  10  21  37  62  94 125 162 201 245 304 364
#     4  11  25  43  65  91 120 160 208 258 309 360
#     4  11  23  41  64  93 127 163 204 250 304 365
#     4  11  21  37  63  94 126 162 200 246 304 364
#     4  11  24  41  63  92 125 162 204 251 305 366
#
# _framework density 18.945125000000001
#
# number of rings (size 3 to 8) (size 9 to 14) (size 15 to 20)
#    0.000    1.250    2.500    3.000    0.000    7.000 
#    0.000    3.750    0.000    0.000    0.000    0.000 
#    0.000    0.000    0.000    0.000    0.000    0.000 
#
# Total GULP energy -179005.910566 kJ/mol
# GULP energy per Si atom -5593.934705 kJ/mol
# Density = 1.890201 g / cm^3
# Si number density = 18.945125 Si / 1000 Ang^3
#
#
#
# Elastic Constant Matrix: (Units=GPa)
#
#
# Indices 1 2 3 4 5 6 
#
# 1 60.7083 74.3812 55.1386 0.0000 0.0000 0.0000
# 2 74.3812 184.6171 81.6477 0.0000 0.0000 0.0000
# 3 55.1386 81.6477 135.6340 0.0000 0.0000 0.0000
# 4 0.0000 0.0000 0.0000 -3.4844 0.0000 0.0000
# 5 0.0000 0.0000 0.0000 0.0000 34.2371 0.0000
# 6 0.0000 0.0000 0.0000 0.0000 0.0000 41.2822
#
#
#
# Elastic Compliance Matrix: (Units=1/GPa)
#
#
# Indices 1 2 3 4 5 6 
#
# 1 0.038806 -0.011799 -0.008673 0.000000 0.000000 0.000000
# 2 -0.011799 0.010969 -0.001807 0.000000 0.000000 0.000000
# 3 -0.008673 -0.001807 0.011986 0.000000 0.000000 0.000000
# 4 0.000000 0.000000 0.000000 -0.286995 0.000000 0.000000
# 5 0.000000 0.000000 0.000000 0.000000 0.029208 0.000000
# 6 0.000000 0.000000 0.000000 0.000000 0.000000 0.024224
#
#
# Mechanical properties :
#
#
# Convention : Reuss Voigt Hill
#
# Bulk Modulus (GPa) = 58.12537 89.25492 73.69015
# Shear Modulus (GPa) = -41.14881 25.72645 -7.71118
#
# Velocity S-wave (km/s) = -4.66553 3.68903 -2.01968
# Velocity P-wave (km/s) = 1.31326 8.08454 5.79157
#
# Compressibility (1/GPa) = 0.01720419
#
# Stress axis : x y z
#
# Youngs Moduli (GPa) = 25.76931 91.16284 83.43027
#
# Poissons Ratio (x) = 1.07564 0.72358
# Poissons Ratio (y) = 0.30405 0.15073
# Poissons Ratio (z) = 0.22349 0.16470
#
# Static dielectric constant tensor:
#      x y z
#    x 1.630160 0.000000 0.000000 
#    y 0.000000 1.656270 0.000000 
#    z 0.000000 0.000000 1.615760 
# 
# From -- ./inp_files/24224.got.cif
#   From: 2010.05.17/outbox.cif.g08.bks.cpg/sg40_13_cif.got.tgz:24224.got - 2010.06.03 18:35:42.
