data_PCOD9364669
_publ_section_title
;
Structure prediction by ZEFSAII (Michael W. Deem and Ramdas Pophale) SiO2 
 PCOD9364669
Probable space group: A M A 2
;
_chemical_formula_sum "Si O2"
_cell_formula_units_Z 48
_cell_length_a 22.543338
_cell_length_b 7.583912
_cell_length_c 12.150425
_cell_angle_alpha 90.000000
_cell_angle_beta 90.000000
_cell_angle_gamma 90.000000
_cell_volume 2077.317964
_symmetry_space_group_name_H-M "A M A 2"
_symmetry_group_IT_number 40
_symmetry_cell_setting 'orthorhombic'
loop_
_space_group_symop_operation_xyz
x,y,z
-x,-y,z
1/2-x,y,z
1/2+x,-y,z
x,1/2+y,1/2+z
-x,1/2-y,1/2+z
1/2-x,1/2+y,1/2+z
1/2+x,1/2-y,1/2+z
loop_
_atom_site_type_symbol
_atom_site_label
_atom_site_fract_x
_atom_site_fract_y
_atom_site_fract_z
Si Si1 0.250000 0.175237 0.591950
Si Si2 0.345184 0.265073 0.232985
Si Si3 0.750000 0.478628 0.333396
Si Si4 0.000000 0.500000 0.527627
Si Si5 0.447343 0.711172 0.892968
Si Si6 0.250000 0.585777 0.578198
Si Si7 0.618561 0.930534 0.584143
Si Si8 0.979929 0.291965 0.199560
O O1 0.250000 0.139405 0.723020
O O2 0.250000 0.378394 0.569461
O O3 0.313284 0.102452 0.549046
O O4 0.305582 0.390003 0.313089
O O5 0.393956 0.180280 0.308997
O O6 0.304615 0.149921 0.152874
O O7 0.379031 0.391065 0.149457
O O8 0.750000 0.368989 0.447234
O O9 0.950309 0.591731 0.449133
O O10 0.011662 0.665112 0.609352
O O11 0.505742 0.711477 0.818763
O O12 0.430626 0.578847 0.989645
O O13 0.590092 0.790067 0.669880
O O14 0.000000 0.500000 0.199939
#
# Coordination Sequence:
#
# PCOD9364669 Si02
#       8
#     4   8   4   4   8   4   8   8
#     4  10  22  42  68  96 132 174 236 284 344 420
#     4  10  21  39  62  91 129 167 225 279 331 418
#     4   9  21  39  58  86 124 169 211 281 340 388
#     4  10  24  42  66  96 138 178 228 284 348 408
#     4  11  21  41  68  93 136 184 215 287 354 402
#     4  11  23  39  66  96 126 179 233 275 348 420
#     4  10  22  42  68  94 136 180 220 290 345 404
#     4  11  22  44  68 101 141 179 237 283 348 431
#
# _framework density 23.106718999999998
#
# number of rings (size 3 to 8) (size 9 to 14) (size 15 to 20)
#    0.000    1.667    2.500    1.500    0.000    6.000 
#    6.000    6.667    3.667    0.000    0.000    0.000 
#    0.000    0.000    0.000    0.000    0.000    0.000 
#
# Total GULP energy -133712.575912 kJ/mol
# GULP energy per Si atom -5571.357330 kJ/mol
# Density = 2.305413 g / cm^3
# Si number density = 23.106719 Si / 1000 Ang^3
#
#
#
# Elastic Constant Matrix: (Units=GPa)
#
#
# Indices 1 2 3 4 5 6 
#
# 1 93.0565 10.0358 17.8220 0.0000 0.0000 0.0000
# 2 10.0358 34.5474 27.7518 0.0000 0.0000 0.0000
# 3 17.8220 27.7518 96.2597 0.0000 0.0000 0.0000
# 4 0.0000 0.0000 0.0000 35.9021 0.0000 0.0000
# 5 0.0000 0.0000 0.0000 0.0000 32.4105 0.0000
# 6 0.0000 0.0000 0.0000 0.0000 0.0000 31.0868
#
#
#
# Elastic Compliance Matrix: (Units=1/GPa)
#
#
# Indices 1 2 3 4 5 6 
#
# 1 0.011255 -0.002076 -0.001485 0.000000 0.000000 0.000000
# 2 -0.002076 0.038053 -0.010586 0.000000 0.000000 0.000000
# 3 -0.001485 -0.010586 0.013716 0.000000 0.000000 0.000000
# 4 0.000000 0.000000 0.000000 0.027853 0.000000 0.000000
# 5 0.000000 0.000000 0.000000 0.000000 0.030854 0.000000
# 6 0.000000 0.000000 0.000000 0.000000 0.000000 0.032168
#
#
# Mechanical properties :
#
#
# Convention : Reuss Voigt Hill
#
# Bulk Modulus (GPa) = 28.79568 37.23141 33.01355
# Shear Modulus (GPa) = 25.80381 31.09684 28.45032
#
# Velocity S-wave (km/s) = 3.34537 3.67248 3.51273
# Velocity P-wave (km/s) = 5.23556 5.84214 5.54715
#
# Compressibility (1/GPa) = 0.03472743
#
# Stress axis : x y z
#
# Youngs Moduli (GPa) = 88.85331 26.27923 72.90985
#
# Poissons Ratio (x) = 0.05457 0.10828
# Poissons Ratio (y) = 0.18449 0.77184
# Poissons Ratio (z) = 0.13195 0.27820
#
# Static dielectric constant tensor:
#      x y z
#    x 1.763850 0.000000 0.000000 
#    y 0.000000 1.872390 0.000000 
#    z 0.000000 0.000000 1.939340 
# 
# From -- ./inp_files/13967.got.cif
#   From: 2010.05.17/outbox.cif.g08.bks.cpg/sg40_7_cif.got.tgz:13967.got - 2010.06.03 18:35:42.
