data_PCOD9364315
_publ_section_title
;
Structure prediction by ZEFSAII (Michael W. Deem and Ramdas Pophale) SiO2 
 PCOD9364315
Probable space group: A M A 2
;
_chemical_formula_sum "Si O2"
_cell_formula_units_Z 48
_cell_length_a 10.305566
_cell_length_b 8.595360
_cell_length_c 28.871450
_cell_angle_alpha 90.000000
_cell_angle_beta 90.000000
_cell_angle_gamma 90.000000
_cell_volume 2557.434478
_symmetry_space_group_name_H-M "A M A 2"
_symmetry_group_IT_number 40
_symmetry_cell_setting 'orthorhombic'
loop_
_space_group_symop_operation_xyz
x,y,z
-x,-y,z
1/2-x,y,z
1/2+x,-y,z
x,1/2+y,1/2+z
-x,1/2-y,1/2+z
1/2-x,1/2+y,1/2+z
1/2+x,1/2-y,1/2+z
loop_
_atom_site_type_symbol
_atom_site_label
_atom_site_fract_x
_atom_site_fract_y
_atom_site_fract_z
Si Si1 0.250000 0.673044 0.543170
Si Si2 0.599539 0.143214 0.283791
Si Si3 0.483494 0.812682 0.484648
Si Si4 0.400676 0.355921 0.885857
Si Si5 0.750000 0.216119 0.645943
Si Si6 0.016575 0.685102 0.191899
Si Si7 0.250000 0.807369 0.023972
Si Si8 0.750000 0.344030 0.125159
O O1 0.375792 0.755379 0.520874
O O2 0.250000 0.692553 0.598142
O O3 0.250000 0.491142 0.532053
O O4 0.750000 0.092076 0.279944
O O5 0.586792 0.220000 0.335009
O O6 0.565432 0.250888 0.240643
O O7 0.500000 0.000000 0.282140
O O8 0.436655 0.767598 0.432910
O O9 0.621300 0.739890 0.496580
O O10 0.500000 0.000000 0.486994
O O11 0.500000 0.500000 0.884781
O O12 0.250000 0.406735 0.890474
O O13 0.621845 0.249636 0.675646
O O14 0.750000 0.032289 0.631020
O O15 0.123264 0.715566 0.152303
O O16 0.000000 0.500000 0.195622
O O17 0.250000 0.713384 0.072621
#
# Coordination Sequence:
#
# PCOD9364315 Si02
#       8
#     4   8   8   8   4   8   4   4
#     4  12  24  42  59  92 127 157 194 261 311 358
#     4  10  21  38  61  90 122 154 194 248 301 353
#     4  11  22  40  65  89 117 163 211 242 291 366
#     4   9  19  36  62  90 117 152 203 252 290 349
#     4  10  22  36  61  84 117 157 210 245 287 362
#     4  10  21  38  60  87 117 157 200 245 291 352
#     4  12  26  38  61  92 127 155 196 257 317 352
#     4  10  20  40  59  84 115 163 208 243 289 362
#
# _framework density 18.768809999999998
#
# number of rings (size 3 to 8) (size 9 to 14) (size 15 to 20)
#    0.000    1.667    1.667    3.000    4.667    2.667 
#    0.000    1.667    0.000    0.000    0.000    0.000 
#    0.000    0.000    0.000    0.000    0.000    0.000 
#
# Total GULP energy -133956.879011 kJ/mol
# GULP energy per Si atom -5581.536625 kJ/mol
# Density = 1.872609 g / cm^3
# Si number density = 18.768810 Si / 1000 Ang^3
#
#
#
# Elastic Constant Matrix: (Units=GPa)
#
#
# Indices 1 2 3 4 5 6 
#
# 1 177.0007 27.8503 69.1850 0.0000 0.0000 0.0000
# 2 27.8503 39.7494 20.5263 0.0000 0.0000 0.0000
# 3 69.1850 20.5263 128.9709 0.0000 0.0000 0.0000
# 4 0.0000 0.0000 0.0000 12.5514 0.0000 0.0000
# 5 0.0000 0.0000 0.0000 0.0000 28.7068 0.0000
# 6 0.0000 0.0000 0.0000 0.0000 0.0000 20.9143
#
#
#
# Elastic Compliance Matrix: (Units=1/GPa)
#
#
# Indices 1 2 3 4 5 6 
#
# 1 0.007569 -0.003494 -0.003504 0.000000 0.000000 0.000000
# 2 -0.003494 0.029023 -0.002745 0.000000 0.000000 0.000000
# 3 -0.003504 -0.002745 0.010070 0.000000 0.000000 0.000000
# 4 0.000000 0.000000 0.000000 0.079672 0.000000 0.000000
# 5 0.000000 0.000000 0.000000 0.000000 0.034835 0.000000
# 6 0.000000 0.000000 0.000000 0.000000 0.000000 0.047814
#
#
# Mechanical properties :
#
#
# Convention : Reuss Voigt Hill
#
# Bulk Modulus (GPa) = 36.79652 64.53825 50.66739
# Shear Modulus (GPa) = 21.05007 27.64513 24.34760
#
# Velocity S-wave (km/s) = 3.35258 3.84204 3.60563
# Velocity P-wave (km/s) = 5.88508 7.35814 6.66245
#
# Compressibility (1/GPa) = 0.02717648
#
# Stress axis : x y z
#
# Youngs Moduli (GPa) = 132.11463 34.45552 99.30052
#
# Poissons Ratio (x) = 0.12038 0.34799
# Poissons Ratio (y) = 0.46157 0.27258
# Poissons Ratio (z) = 0.46298 0.09458
#
# Static dielectric constant tensor:
#      x y z
#    x 1.638090 0.000000 0.000000 
#    y 0.000000 1.630550 0.000000 
#    z 0.000000 0.000000 1.661380 
# 
# From -- ./inp_files/26219.got.cif
#   From: 2010.05.17/outbox.cif.g08.bks.cpg/sg40_14_cif.got.tgz:26219.got - 2010.06.03 18:35:42.
