data_PCOD9364815
_publ_section_title
;
Structure prediction by ZEFSAII (Michael W. Deem and Ramdas Pophale) SiO2 
 PCOD9364815
Probable space group: A M A 2
;
_chemical_formula_sum "Si O2"
_cell_formula_units_Z 48
_cell_length_a 16.547192
_cell_length_b 11.856627
_cell_length_c 10.186894
_cell_angle_alpha 90.000000
_cell_angle_beta 90.000000
_cell_angle_gamma 90.000000
_cell_volume 1998.606294
_symmetry_space_group_name_H-M "A M A 2"
_symmetry_group_IT_number 40
_symmetry_cell_setting 'orthorhombic'
loop_
_space_group_symop_operation_xyz
x,y,z
-x,-y,z
1/2-x,y,z
1/2+x,-y,z
x,1/2+y,1/2+z
-x,1/2-y,1/2+z
1/2-x,1/2+y,1/2+z
1/2+x,1/2-y,1/2+z
loop_
_atom_site_type_symbol
_atom_site_label
_atom_site_fract_x
_atom_site_fract_y
_atom_site_fract_z
Si Si1 0.155076 0.537807 0.904120
Si Si2 0.345476 0.733487 0.593209
Si Si3 0.910199 0.544484 0.175320
Si Si4 0.093696 0.985246 0.140428
Si Si5 0.847034 0.344656 0.314414
Si Si6 0.846952 0.740407 0.534046
O O1 0.250000 0.535685 0.870715
O O2 0.107777 0.466359 0.796010
O O3 0.144267 0.486665 0.048932
O O4 0.126287 0.667853 0.925821
O O5 0.250000 0.760632 0.606479
O O6 0.359004 0.602935 0.627489
O O7 0.371690 0.728252 0.440022
O O8 0.398079 0.821283 0.677449
O O9 0.880355 0.471622 0.299404
O O10 0.000000 0.500000 0.148272
O O11 0.125041 0.887178 0.046275
O O12 0.000000 0.000000 0.113550
O O13 0.750000 0.350724 0.320061
O O14 0.871111 0.288951 0.176910
O O15 0.750000 0.741178 0.525746
#
# Coordination Sequence:
#
# PCOD9364815 Si02
#       6
#     8   8   8   8   8   8
#     4  10  21  41  69  93 122 173 225 266 326 405
#     4  11  24  42  65  93 132 180 226 268 332 415
#     4  11  23  40  66 100 132 165 219 280 337 396
#     4  12  26  40  60  97 138 171 215 277 341 396
#     4   9  20  40  67  91 122 171 221 269 324 394
#     4   9  19  39  65  90 122 166 220 270 322 395
#
# _framework density 24.016738
#
# number of rings (size 3 to 8) (size 9 to 14) (size 15 to 20)
#    0.000    1.667    0.000    5.500    4.667    3.333 
#    0.000    1.667    0.000    0.000    0.000    0.000 
#    0.000    0.000    0.000    0.000    0.000    0.000 
#
# Total GULP energy -134120.523557 kJ/mol
# GULP energy per Si atom -5588.355148 kJ/mol
# Density = 2.396207 g / cm^3
# Si number density = 24.016738 Si / 1000 Ang^3
#
#
#
# Elastic Constant Matrix: (Units=GPa)
#
#
# Indices 1 2 3 4 5 6 
#
# 1 33.4411 13.0832 3.0260 0.0000 0.0000 0.0000
# 2 13.0832 115.0034 19.7417 0.0000 0.0000 0.0000
# 3 3.0260 19.7417 35.2690 0.0000 0.0000 0.0000
# 4 0.0000 0.0000 0.0000 33.9753 0.0000 0.0000
# 5 0.0000 0.0000 0.0000 0.0000 34.3740 0.0000
# 6 0.0000 0.0000 0.0000 0.0000 0.0000 23.5328
#
#
#
# Elastic Compliance Matrix: (Units=1/GPa)
#
#
# Indices 1 2 3 4 5 6 
#
# 1 0.031315 -0.003431 -0.000766 0.000000 0.000000 0.000000
# 2 -0.003431 0.009996 -0.005301 0.000000 0.000000 0.000000
# 3 -0.000766 -0.005301 0.031386 0.000000 0.000000 0.000000
# 4 0.000000 0.000000 0.000000 0.029433 0.000000 0.000000
# 5 0.000000 0.000000 0.000000 0.000000 0.029092 0.000000
# 6 0.000000 0.000000 0.000000 0.000000 0.000000 0.042494
#
#
# Mechanical properties :
#
#
# Convention : Reuss Voigt Hill
#
# Bulk Modulus (GPa) = 18.62160 28.37949 23.50054
# Shear Modulus (GPa) = 23.74034 28.23392 25.98713
#
# Velocity S-wave (km/s) = 3.14744 3.43241 3.29301
# Velocity P-wave (km/s) = 4.58028 5.24889 4.92594
#
# Compressibility (1/GPa) = 0.05370108
#
# Stress axis : x y z
#
# Youngs Moduli (GPa) = 31.93357 100.04373 31.86105
#
# Poissons Ratio (x) = 0.34325 0.02442
# Poissons Ratio (y) = 0.10956 0.16888
# Poissons Ratio (z) = 0.02447 0.53030
#
# Static dielectric constant tensor:
#      x y z
#    x 1.820910 0.000000 0.000000 
#    y 0.000000 2.065860 0.000000 
#    z 0.000000 0.000000 2.043890 
# 
# From -- ./inp_files/12891.got.cif
#   From: 2010.05.17/outbox.cif.g08.bks.cpg/sg40_7_cif.got.tgz:12891.got - 2010.06.03 18:35:42.
