data_PCOD9364009
_publ_section_title
;
Structure prediction by ZEFSAII (Michael W. Deem and Ramdas Pophale) SiO2 
 PCOD9364009
Probable space group: A M A 2
;
_chemical_formula_sum "Si O2"
_cell_formula_units_Z 44
_cell_length_a 7.277728
_cell_length_b 28.151649
_cell_length_c 8.894183
_cell_angle_alpha 90.000000
_cell_angle_beta 90.000000
_cell_angle_gamma 90.000000
_cell_volume 1822.240606
_symmetry_space_group_name_H-M "A M A 2"
_symmetry_group_IT_number 40
_symmetry_cell_setting 'orthorhombic'
loop_
_space_group_symop_operation_xyz
x,y,z
-x,-y,z
1/2-x,y,z
1/2+x,-y,z
x,1/2+y,1/2+z
-x,1/2-y,1/2+z
1/2-x,1/2+y,1/2+z
1/2+x,1/2-y,1/2+z
loop_
_atom_site_type_symbol
_atom_site_label
_atom_site_fract_x
_atom_site_fract_y
_atom_site_fract_z
Si Si1 0.971617 0.634385 0.205730
Si Si2 0.467400 0.449671 0.982049
Si Si3 0.028383 0.904248 0.032333
Si Si4 0.960299 0.184075 0.219437
Si Si5 0.527597 0.226158 0.532471
Si Si6 0.750000 0.954341 0.202365
O O1 0.750000 0.636074 0.204495
O O2 0.023299 0.595097 0.082648
O O3 0.022185 0.617870 0.371405
O O4 0.032382 0.686381 0.152791
O O5 0.500000 0.500000 0.065122
O O6 0.250000 0.445001 0.945670
O O7 0.590104 0.453251 0.834628
O O8 0.250000 0.910156 0.039524
O O9 0.963151 0.864982 0.156587
O O10 0.911524 0.949497 0.073325
O O11 0.750000 0.172723 0.258383
O O12 0.037854 0.208420 0.369097
O O13 0.963293 0.222581 0.086432
O O14 0.750000 0.228628 0.530233
#
# Coordination Sequence:
#
# PCOD9364009 Si02
#       6
#     8   8   8   8   8   4
#     4   9  20  41  68  93 128 175 220 277 335 390
#     4  11  23  45  72  99 132 168 220 273 333 403
#     4  10  22  42  65  95 137 175 220 272 329 393
#     4  10  21  37  56  87 131 174 219 271 322 376
#     4  10  20  36  59  87 123 174 223 268 322 383
#     4  12  24  40  70 100 128 174 208 266 328 394
#
# _framework density 24.146097999999999
#
# number of rings (size 3 to 8) (size 9 to 14) (size 15 to 20)
#    0.000    1.818    0.909    2.727    1.273    5.818 
#    6.545    0.909    4.000    0.000    0.000    0.000 
#    0.000    0.000    0.000    0.000    0.000    0.000 
#
# Total GULP energy -122567.720993 kJ/mol
# GULP energy per Si atom -5571.260045 kJ/mol
# Density = 2.409114 g / cm^3
# Si number density = 24.146098 Si / 1000 Ang^3
#
#
#
# Elastic Constant Matrix: (Units=GPa)
#
#
# Indices 1 2 3 4 5 6 
#
# 1 141.6313 9.2300 18.5928 0.0000 0.0000 0.0000
# 2 9.2300 92.1762 0.3906 0.0000 0.0000 0.0000
# 3 18.5928 0.3906 84.6753 0.0000 0.0000 0.0000
# 4 0.0000 0.0000 0.0000 14.3400 0.0000 0.0000
# 5 0.0000 0.0000 0.0000 0.0000 161.0487 0.0000
# 6 0.0000 0.0000 0.0000 0.0000 0.0000 -3.1979
#
#
#
# Elastic Compliance Matrix: (Units=1/GPa)
#
#
# Indices 1 2 3 4 5 6 
#
# 1 0.007318 -0.000726 -0.001604 0.000000 0.000000 0.000000
# 2 -0.000726 0.010921 0.000109 0.000000 0.000000 0.000000
# 3 -0.001604 0.000109 0.012161 0.000000 0.000000 0.000000
# 4 0.000000 0.000000 0.000000 0.069735 0.000000 0.000000
# 5 0.000000 0.000000 0.000000 0.000000 0.006209 0.000000
# 6 0.000000 0.000000 0.000000 0.000000 0.000000 -0.312708
#
#
# Mechanical properties :
#
#
# Convention : Reuss Voigt Hill
#
# Bulk Modulus (GPa) = 38.52127 41.65660 40.08894
# Shear Modulus (GPa) = -25.87070 53.78946 13.95938
#
# Velocity S-wave (km/s) = -3.27681 4.72494 2.40702
# Velocity P-wave (km/s) = 1.29282 6.85974 4.93596
#
# Compressibility (1/GPa) = 0.02595969
#
# Stress axis : x y z
#
# Youngs Moduli (GPa) = 136.64155 91.56647 82.22720
#
# Poissons Ratio (x) = 0.06648 0.13186
# Poissons Ratio (y) = 0.09921 -0.00897
# Poissons Ratio (z) = 0.21912 -0.00998
#
# Static dielectric constant tensor:
#      x y z
#    x 1.918440 0.000000 0.000000 
#    y 0.000000 1.996100 0.000000 
#    z 0.000000 0.000000 1.895030 
# 
# From -- ./inp_files/4529.got.cif
#   From: 2010.05.17/outbox.cif.g08.bks.cpg/sg40_3_cif.got.tgz:4529.got - 2010.06.03 18:35:42.
