data_PCOD9364636
_publ_section_title
;
Structure prediction by ZEFSAII (Michael W. Deem and Ramdas Pophale) SiO2 
 PCOD9364636
Probable space group: A M A 2
;
_chemical_formula_sum "Si O2"
_cell_formula_units_Z 56
_cell_length_a 29.655063
_cell_length_b 18.000998
_cell_length_c 5.196057
_cell_angle_alpha 90.000000
_cell_angle_beta 90.000000
_cell_angle_gamma 90.000000
_cell_volume 2773.762940
_symmetry_space_group_name_H-M "A M A 2"
_symmetry_group_IT_number 40
_symmetry_cell_setting 'orthorhombic'
loop_
_space_group_symop_operation_xyz
x,y,z
-x,-y,z
1/2-x,y,z
1/2+x,-y,z
x,1/2+y,1/2+z
-x,1/2-y,1/2+z
1/2-x,1/2+y,1/2+z
1/2+x,1/2-y,1/2+z
loop_
_atom_site_type_symbol
_atom_site_label
_atom_site_fract_x
_atom_site_fract_y
_atom_site_fract_z
Si Si1 0.301930 0.224208 0.393600
Si Si2 0.882224 0.697576 0.153275
Si Si3 0.198094 0.624945 0.388487
Si Si4 0.387912 0.527796 0.326481
Si Si5 0.041353 0.319941 0.547398
Si Si6 0.561165 0.318647 0.374793
Si Si7 0.902382 0.571569 0.830162
O O1 0.250000 0.250380 0.379648
O O2 0.339110 0.285252 0.325537
O O3 0.309709 0.188490 0.672905
O O4 0.306899 0.160737 0.172092
O O5 0.924115 0.664063 0.315399
O O6 0.902631 0.774247 0.046132
O O7 0.870985 0.640416 0.923669
O O8 0.250000 0.600429 0.360330
O O9 0.162471 0.560941 0.330510
O O10 0.420404 0.599430 0.335558
O O11 0.391736 0.475620 0.576699
O O12 0.400701 0.483961 0.069034
O O13 0.052458 0.381531 0.763156
O O14 0.988870 0.321334 0.490076
O O15 0.055037 0.236770 0.633737
#
# Coordination Sequence:
#
# PCOD9364636 Si02
#       7
#     8   8   8   8   8   8   8
#     4  10  21  38  68 102 124 160 214 274 325 373
#     4  11  22  45  66  94 135 169 209 278 319 386
#     4  10  21  39  66 100 129 157 215 276 318 376
#     4  12  24  45  65  97 126 181 212 263 323 395
#     4  11  23  45  62 100 126 178 211 284 315 390
#     4  11  24  38  73  93 125 167 237 259 326 378
#     4  11  27  44  62  90 143 169 212 259 334 378
#
# _framework density 20.189181000000001
#
# number of rings (size 3 to 8) (size 9 to 14) (size 15 to 20)
#    0.000    1.143    4.286    1.714    4.000    0.571 
#    2.571    1.429    0.000    0.857    0.000    0.000 
#    0.000    0.000    0.000    0.000    0.000    0.000 
#
# Total GULP energy -156309.800337 kJ/mol
# GULP energy per Si atom -5582.492869 kJ/mol
# Density = 2.014323 g / cm^3
# Si number density = 20.189181 Si / 1000 Ang^3
#
#
#
# Elastic Constant Matrix: (Units=GPa)
#
#
# Indices 1 2 3 4 5 6 
#
# 1 89.2075 48.6326 27.2305 0.0000 0.0000 0.0000
# 2 48.6326 71.1057 15.2253 0.0000 0.0000 0.0000
# 3 27.2305 15.2253 84.3751 0.0000 0.0000 0.0000
# 4 0.0000 0.0000 0.0000 40.2475 0.0000 0.0000
# 5 0.0000 0.0000 0.0000 0.0000 16.3355 0.0000
# 6 0.0000 0.0000 0.0000 0.0000 0.0000 3.5456
#
#
#
# Elastic Compliance Matrix: (Units=1/GPa)
#
#
# Indices 1 2 3 4 5 6 
#
# 1 0.019063 -0.012192 -0.003952 0.000000 0.000000 0.000000
# 2 -0.012192 0.022426 -0.000112 0.000000 0.000000 0.000000
# 3 -0.003952 -0.000112 0.013148 0.000000 0.000000 0.000000
# 4 0.000000 0.000000 0.000000 0.024846 0.000000 0.000000
# 5 0.000000 0.000000 0.000000 0.000000 0.061217 0.000000
# 6 0.000000 0.000000 0.000000 0.000000 0.000000 0.282037
#
#
# Mechanical properties :
#
#
# Convention : Reuss Voigt Hill
#
# Bulk Modulus (GPa) = 45.19889 47.42944 46.31417
# Shear Modulus (GPa) = 10.80795 22.26572 16.53683
#
# Velocity S-wave (km/s) = 2.31624 3.32453 2.86509
# Velocity P-wave (km/s) = 5.43963 6.18710 5.82536
#
# Compressibility (1/GPa) = 0.02212443
#
# Stress axis : x y z
#
# Youngs Moduli (GPa) = 52.45876 44.59119 76.05983
#
# Poissons Ratio (x) = 0.54364 0.30060
# Poissons Ratio (y) = 0.63955 0.00853
# Poissons Ratio (z) = 0.20732 0.00500
#
# Static dielectric constant tensor:
#      x y z
#    x 1.696930 0.000000 0.000000 
#    y 0.000000 1.709050 0.000000 
#    z 0.000000 0.000000 1.782490 
# 
# From -- ./inp_files/3381.got.cif
#   From: 2010.05.17/outbox.cif.g08.bks.cpg/sg40_2_cif.got.tgz:3381.got - 2010.06.03 18:35:42.
