data_PCOD9364224
_publ_section_title
;
Structure prediction by ZEFSAII (Michael W. Deem and Ramdas Pophale) SiO2 
 PCOD9364224
Probable space group: A M A 2
;
_chemical_formula_sum "Si O2"
_cell_formula_units_Z 36
_cell_length_a 11.755002
_cell_length_b 18.019930
_cell_length_c 6.617233
_cell_angle_alpha 90.000000
_cell_angle_beta 90.000000
_cell_angle_gamma 90.000000
_cell_volume 1401.690835
_symmetry_space_group_name_H-M "A M A 2"
_symmetry_group_IT_number 40
_symmetry_cell_setting 'orthorhombic'
loop_
_space_group_symop_operation_xyz
x,y,z
-x,-y,z
1/2-x,y,z
1/2+x,-y,z
x,1/2+y,1/2+z
-x,1/2-y,1/2+z
1/2-x,1/2+y,1/2+z
1/2+x,1/2-y,1/2+z
loop_
_atom_site_type_symbol
_atom_site_label
_atom_site_fract_x
_atom_site_fract_y
_atom_site_fract_z
Si Si1 0.500000 0.500000 0.138291
Si Si2 0.250000 0.794795 0.786653
Si Si3 0.750000 0.031098 0.699585
Si Si4 0.250000 0.565764 0.853231
Si Si5 0.250000 0.196938 0.676306
Si Si6 0.480475 0.125723 0.307556
Si Si7 0.056780 0.726487 0.497925
O O1 0.622441 0.498413 0.255004
O O2 0.517422 0.567881 0.979321
O O3 0.250000 0.883315 0.762403
O O4 0.144519 0.760228 0.662237
O O5 0.250000 0.763438 0.013493
O O6 0.750000 0.014230 0.455615
O O7 0.250000 0.622256 0.044414
O O8 0.362121 0.588316 0.738928
O O9 0.139345 0.200491 0.818612
O O10 0.487035 0.201881 0.432097
O O11 0.518852 0.159532 0.090708
#
# Coordination Sequence:
#
# PCOD9364224 Si02
#       7
#     4   4   4   4   4   8   8
#     4  10  22  40  72 108 154 198 244 314 378 456
#     4  11  21  43  67 100 134 186 242 307 371 438
#     4  10  21  41  68 105 145 195 247 302 382 444
#     4  10  20  38  63  91 136 182 226 295 369 433
#     4  11  22  42  64  98 135 179 245 308 364 445
#     4  11  21  40  64 101 138 186 236 306 375 434
#     4  11  23  38  68  98 133 182 242 304 370 444
#
# _framework density 25.683264999999999
#
# number of rings (size 3 to 8) (size 9 to 14) (size 15 to 20)
#    0.000    1.333    4.444    2.000    0.000    0.000 
#    0.000    2.222    0.000    0.000    0.000    0.000 
#    0.000    0.000    0.000    0.000    0.000    0.000 
#
# Total GULP energy -100228.723066 kJ/mol
# GULP energy per Si atom -5568.262393 kJ/mol
# Density = 2.562481 g / cm^3
# Si number density = 25.683265 Si / 1000 Ang^3
#
#
#
# Elastic Constant Matrix: (Units=GPa)
#
#
# Indices 1 2 3 4 5 6 
#
# 1 134.7615 14.6888 11.7981 0.0000 0.0000 0.0000
# 2 14.6888 120.8208 46.9735 0.0000 0.0000 0.0000
# 3 11.7981 46.9735 107.7994 0.0000 0.0000 0.0000
# 4 0.0000 0.0000 0.0000 36.0269 0.0000 0.0000
# 5 0.0000 0.0000 0.0000 0.0000 -49.2565 0.0000
# 6 0.0000 0.0000 0.0000 0.0000 0.0000 12.1656
#
#
#
# Elastic Compliance Matrix: (Units=1/GPa)
#
#
# Indices 1 2 3 4 5 6 
#
# 1 0.007544 -0.000718 -0.000513 0.000000 0.000000 0.000000
# 2 -0.000718 0.010033 -0.004293 0.000000 0.000000 0.000000
# 3 -0.000513 -0.004293 0.011203 0.000000 0.000000 0.000000
# 4 0.000000 0.000000 0.000000 0.027757 0.000000 0.000000
# 5 0.000000 0.000000 0.000000 0.000000 -0.020302 0.000000
# 6 0.000000 0.000000 0.000000 0.000000 0.000000 0.082199
#
#
# Mechanical properties :
#
#
# Convention : Reuss Voigt Hill
#
# Bulk Modulus (GPa) = 56.39418 56.70026 56.54722
# Shear Modulus (GPa) = 36.92941 19.11529 28.02235
#
# Velocity S-wave (km/s) = 3.79605 2.73109 3.30672
# Velocity P-wave (km/s) = 6.42017 5.66302 6.05344
#
# Compressibility (1/GPa) = 0.01773233
#
# Stress axis : x y z
#
# Youngs Moduli (GPa) = 132.56184 99.66910 89.25805
#
# Poissons Ratio (x) = 0.07153 0.04578
# Poissons Ratio (y) = 0.09514 0.38322
# Poissons Ratio (z) = 0.06799 0.42792
#
# Static dielectric constant tensor:
#      x y z
#    x 2.276430 0.000000 0.000000 
#    y 0.000000 2.027520 0.000000 
#    z 0.000000 0.000000 2.059280 
# 
# From -- ./inp_files/1175.got.cif
#   From: 2010.05.17/outbox.cif.g08.bks.cpg/sg40_1_cif.got.tgz:1175.got - 2010.06.03 18:35:42.
