data_PCOD9364158
_publ_section_title
;
Structure prediction by ZEFSAII (Michael W. Deem and Ramdas Pophale) SiO2 
 PCOD9364158
Probable space group: A M A 2
;
_chemical_formula_sum "Si O2"
_cell_formula_units_Z 40
_cell_length_a 10.205788
_cell_length_b 7.288483
_cell_length_c 26.744905
_cell_angle_alpha 90.000000
_cell_angle_beta 90.000000
_cell_angle_gamma 90.000000
_cell_volume 1989.412065
_symmetry_space_group_name_H-M "A M A 2"
_symmetry_group_IT_number 40
_symmetry_cell_setting 'orthorhombic'
loop_
_space_group_symop_operation_xyz
x,y,z
-x,-y,z
1/2-x,y,z
1/2+x,-y,z
x,1/2+y,1/2+z
-x,1/2-y,1/2+z
1/2-x,1/2+y,1/2+z
1/2+x,1/2-y,1/2+z
loop_
_atom_site_type_symbol
_atom_site_label
_atom_site_fract_x
_atom_site_fract_y
_atom_site_fract_z
Si Si1 0.401730 0.328441 0.565250
Si Si2 0.512907 0.221950 0.959525
Si Si3 0.250000 0.785514 0.404853
Si Si4 0.401801 0.663722 0.174606
Si Si5 0.750000 0.935649 0.310476
Si Si6 0.000000 0.000000 0.241372
Si Si7 0.750000 0.154034 0.889420
O O1 0.500000 0.500000 0.571619
O O2 0.250000 0.390730 0.558188
O O3 0.443744 0.221683 0.514971
O O4 0.407634 0.211605 0.615671
O O5 0.379916 0.308495 0.938652
O O6 0.625642 0.236572 0.918463
O O7 0.500000 0.000000 0.964221
O O8 0.250000 0.914713 0.355997
O O9 0.250000 0.567153 0.390644
O O10 0.500000 0.500000 0.185557
O O11 0.250000 0.623607 0.187028
O O12 0.452408 0.836293 0.205910
O O13 0.877943 0.955476 0.276819
O O14 0.750000 0.734637 0.334610
#
# Coordination Sequence:
#
# PCOD9364158 Si02
#       7
#     8   8   4   8   4   4   4
#     4  10  20  37  65  98 135 179 222 269 337 409
#     4   9  18  35  60  92 130 176 213 263 334 400
#     4  10  22  40  59  93 133 169 224 274 328 407
#     4  11  26  47  71 102 138 178 229 288 348 414
#     4  12  26  42  70  96 126 182 232 280 350 398
#     4  12  26  48  70 100 134 180 234 292 348 404
#     4  10  20  40  63  87 131 171 214 282 324 395
#
# _framework density 20.106441
#
# number of rings (size 3 to 8) (size 9 to 14) (size 15 to 20)
#    0.000    1.600    3.000    1.200    5.600    2.400 
#    3.600    0.000    0.000    0.000    0.000    0.000 
#    0.000    0.000    0.000    0.000    0.000    0.000 
#
# Total GULP energy -111750.953473 kJ/mol
# GULP energy per Si atom -5587.547674 kJ/mol
# Density = 2.006068 g / cm^3
# Si number density = 20.106441 Si / 1000 Ang^3
#
#
#
# Elastic Constant Matrix: (Units=GPa)
#
#
# Indices 1 2 3 4 5 6 
#
# 1 188.1083 45.3490 59.0305 0.0000 0.0000 0.0000
# 2 45.3490 76.5581 29.2971 0.0000 0.0000 0.0000
# 3 59.0305 29.2971 116.2931 0.0000 0.0000 0.0000
# 4 0.0000 0.0000 0.0000 -8.6006 0.0000 0.0000
# 5 0.0000 0.0000 0.0000 0.0000 73.2122 0.0000
# 6 0.0000 0.0000 0.0000 0.0000 0.0000 19.4916
#
#
#
# Elastic Compliance Matrix: (Units=1/GPa)
#
#
# Indices 1 2 3 4 5 6 
#
# 1 0.006910 -0.003044 -0.002741 0.000000 0.000000 0.000000
# 2 -0.003044 0.015797 -0.002434 0.000000 0.000000 0.000000
# 3 -0.002741 -0.002434 0.010603 0.000000 0.000000 0.000000
# 4 0.000000 0.000000 0.000000 -0.116270 0.000000 0.000000
# 5 0.000000 0.000000 0.000000 0.000000 0.013659 0.000000
# 6 0.000000 0.000000 0.000000 0.000000 0.000000 0.051304
#
#
# Mechanical properties :
#
#
# Convention : Reuss Voigt Hill
#
# Bulk Modulus (GPa) = 59.27074 72.03473 65.65274
# Shear Modulus (GPa) = 1229.90581 33.30616 631.60599
#
# Velocity S-wave (km/s) = 24.75935 4.07442 17.74297
# Velocity P-wave (km/s) = 29.10171 7.61833 21.27144
#
# Compressibility (1/GPa) = 0.01687173
#
# Stress axis : x y z
#
# Youngs Moduli (GPa) = 144.71673 63.30378 94.30987
#
# Poissons Ratio (x) = 0.19272 0.25847
# Poissons Ratio (y) = 0.44057 0.22958
# Poissons Ratio (z) = 0.39661 0.15410
#
# Static dielectric constant tensor:
#      x y z
#    x 1.696190 0.000000 0.000000 
#    y 0.000000 1.725310 0.000000 
#    z 0.000000 0.000000 1.692460 
# 
# From -- ./inp_files/23876.got.cif
#   From: 2010.05.17/outbox.cif.g08.bks.cpg/sg40_12_cif.got.tgz:23876.got - 2010.06.03 18:35:42.
