data_PCOD9364568
_publ_section_title
;
Structure prediction by ZEFSAII (Michael W. Deem and Ramdas Pophale) SiO2 
 PCOD9364568
Probable space group: A M A 2
;
_chemical_formula_sum "Si O2"
_cell_formula_units_Z 40
_cell_length_a 27.590217
_cell_length_b 7.788716
_cell_length_c 5.857842
_cell_angle_alpha 90.000000
_cell_angle_beta 90.000000
_cell_angle_gamma 90.000000
_cell_volume 1258.805519
_symmetry_space_group_name_H-M "A M A 2"
_symmetry_group_IT_number 40
_symmetry_cell_setting 'orthorhombic'
loop_
_space_group_symop_operation_xyz
x,y,z
-x,-y,z
1/2-x,y,z
1/2+x,-y,z
x,1/2+y,1/2+z
-x,1/2-y,1/2+z
1/2-x,1/2+y,1/2+z
1/2+x,1/2-y,1/2+z
loop_
_atom_site_type_symbol
_atom_site_label
_atom_site_fract_x
_atom_site_fract_y
_atom_site_fract_z
Si Si1 0.949632 0.893665 0.132460
Si Si2 0.450813 0.610570 0.130762
Si Si3 0.647728 0.106891 0.624836
Si Si4 0.250000 0.995736 0.722820
Si Si5 0.750000 0.389317 0.656007
Si Si6 0.349124 0.389385 0.635353
O O1 0.949974 0.800041 0.380299
O O2 0.899408 0.000765 0.135430
O O3 0.000000 0.000000 0.133877
O O4 0.950362 0.803660 0.882856
O O5 0.500000 0.500000 0.129390
O O6 0.401679 0.499850 0.127061
O O7 0.697423 0.997045 0.610469
O O8 0.648582 0.205132 0.381780
O O9 0.650607 0.188644 0.878871
O O10 0.250000 0.789093 0.789262
O O11 0.250000 0.158839 0.887869
O O12 0.700722 0.500711 0.650587
#
# Coordination Sequence:
#
# PCOD9364568 Si02
#       6
#     8   8   8   4   4   8
#     4   8  13  22  40  68  98 133 175 220 275 336
#     4   8  13  22  40  68  98 133 175 220 275 336
#     4   9  17  31  50  76 107 142 185 232 289 351
#     4  10  21  38  58  84 116 154 200 252 310 378
#     4  10  21  38  58  84 116 154 200 252 310 378
#     4   9  17  31  50  76 107 142 185 232 289 351
#
# _framework density 31.776157000000001
#
# number of rings (size 3 to 8) (size 9 to 14) (size 15 to 20)
#    0.000    3.200    0.000    0.600    0.000    0.000 
#    0.000   16.000    0.000    0.000    0.000   67.200 
#    0.000    0.000    0.000    0.000    0.000   16.800 
#
# Total GULP energy -111641.347685 kJ/mol
# GULP energy per Si atom -5582.067384 kJ/mol
# Density = 3.170383 g / cm^3
# Si number density = 31.776157 Si / 1000 Ang^3
#
#
#
# Elastic Constant Matrix: (Units=GPa)
#
#
# Indices 1 2 3 4 5 6 
#
# 1 370.2403 88.0098 3.7168 0.0000 0.0000 0.0000
# 2 88.0098 83.5717 64.7088 0.0000 0.0000 0.0000
# 3 3.7168 64.7088 426.4100 0.0000 0.0000 0.0000
# 4 0.0000 0.0000 0.0000 25.0596 0.0000 0.0000
# 5 0.0000 0.0000 0.0000 0.0000 4.7495 0.0000
# 6 0.0000 0.0000 0.0000 0.0000 0.0000 101.7503
#
#
#
# Elastic Compliance Matrix: (Units=1/GPa)
#
#
# Indices 1 2 3 4 5 6 
#
# 1 0.003752 -0.004449 0.000642 0.000000 0.000000 0.000000
# 2 -0.004449 0.018834 -0.002819 0.000000 0.000000 0.000000
# 3 0.000642 -0.002819 0.002767 0.000000 0.000000 0.000000
# 4 0.000000 0.000000 0.000000 0.039905 0.000000 0.000000
# 5 0.000000 0.000000 0.000000 0.000000 0.210549 0.000000
# 6 0.000000 0.000000 0.000000 0.000000 0.000000 0.009828
#
#
# Mechanical properties :
#
#
# Convention : Reuss Voigt Hill
#
# Bulk Modulus (GPa) = 82.63137 132.56585 107.59861
# Shear Modulus (GPa) = 16.50604 74.56433 45.53519
#
# Velocity S-wave (km/s) = 2.28161 4.84938 3.78960
# Velocity P-wave (km/s) = 5.74471 8.55362 7.28581
#
# Compressibility (1/GPa) = 0.01210194
#
# Stress axis : x y z
#
# Youngs Moduli (GPa) = 266.52584 53.09666 361.35110
#
# Poissons Ratio (x) = 0.23621 -0.23213
# Poissons Ratio (y) = 1.18567 1.01874
# Poissons Ratio (z) = -0.17121 0.14969
#
# Static dielectric constant tensor:
#      x y z
#    x 2.382080 0.000000 0.000000 
#    y 0.000000 2.388390 0.000000 
#    z 0.000000 0.000000 2.476510 
# 
# From -- ./inp_files/2973.got.cif
#   From: 2010.05.17/outbox.cif.g08.bks.cpg/sg40_2_cif.got.tgz:2973.got - 2010.06.03 18:35:42.
