data_PCOD9364979
_publ_section_title
;
Structure prediction by ZEFSAII (Michael W. Deem and Ramdas Pophale) SiO2 
 PCOD9364979
Probable space group: A M A 2
;
_chemical_formula_sum "Si O2"
_cell_formula_units_Z 64
_cell_length_a 13.737155
_cell_length_b 19.765823
_cell_length_c 12.155475
_cell_angle_alpha 90.000000
_cell_angle_beta 90.000000
_cell_angle_gamma 90.000000
_cell_volume 3300.529623
_symmetry_space_group_name_H-M "A M A 2"
_symmetry_group_IT_number 40
_symmetry_cell_setting 'orthorhombic'
loop_
_space_group_symop_operation_xyz
x,y,z
-x,-y,z
1/2-x,y,z
1/2+x,-y,z
x,1/2+y,1/2+z
-x,1/2-y,1/2+z
1/2-x,1/2+y,1/2+z
1/2+x,1/2-y,1/2+z
loop_
_atom_site_type_symbol
_atom_site_label
_atom_site_fract_x
_atom_site_fract_y
_atom_site_fract_z
Si Si1 0.524955 0.076620 0.083330
Si Si2 0.133203 0.820489 0.930569
Si Si3 0.632495 0.613029 0.803636
Si Si4 0.633565 0.317430 0.545975
Si Si5 0.524955 0.576620 0.023942
Si Si6 0.133203 0.820489 0.676703
Si Si7 0.366435 0.682570 0.061297
Si Si8 0.632162 0.271413 0.303636
O O1 0.587226 0.080207 0.195006
O O2 0.426955 0.120996 0.095594
O O3 0.500000 0.000000 0.054728
O O4 0.585655 0.115801 0.990185
O O5 0.250000 0.827917 0.934821
O O6 0.104109 0.813579 0.803636
O O7 0.110404 0.752186 0.997915
O O8 0.750000 0.609147 0.803636
O O9 0.603341 0.692640 0.803636
O O10 0.587226 0.580207 0.912265
O O11 0.750000 0.327985 0.552361
O O12 0.610404 0.247814 0.609357
O O13 0.604865 0.306873 0.417904
O O14 0.500000 0.500000 0.052544
O O15 0.585655 0.615801 0.117087
O O16 0.426955 0.620996 0.011678
O O17 0.250000 0.827917 0.672451
O O18 0.250000 0.672015 0.054911
O O19 0.395135 0.693127 0.189368
O O20 0.750000 0.270517 0.303636
#
# Coordination Sequence:
#
# PCOD9364979 Si02
#       8
#     8   8   8   8   8   8   8   8
#     4  12  26  40  62  93 129 169 209 251 321 380
#     4  10  22  41  66  93 122 163 213 265 317 368
#     4  11  23  43  68  91 122 163 212 262 316 379
#     4  10  22  40  64  94 125 163 214 267 312 366
#     4  12  26  40  62  93 129 169 209 251 321 380
#     4  10  22  41  66  93 122 163 213 265 317 368
#     4  10  22  40  64  94 125 163 214 267 312 366
#     4   9  18  37  66  93 115 157 215 262 308 351
#
# _framework density 19.390827999999999
#
# number of rings (size 3 to 8) (size 9 to 14) (size 15 to 20)
#    0.000    1.500    2.500    1.875    3.500    2.500 
#    0.000    0.000    0.000    0.000    0.000    0.000 
#    0.000    0.000    0.000    0.000    0.000    0.000 
#
# Total GULP energy -178961.816919 kJ/mol
# GULP energy per Si atom -5592.556779 kJ/mol
# Density = 1.934669 g / cm^3
# Si number density = 19.390828 Si / 1000 Ang^3
#
#
#
# Elastic Constant Matrix: (Units=GPa)
#
#
# Indices 1 2 3 4 5 6 
#
# 1 103.3503 58.2023 54.3800 0.0000 0.0000 0.0000
# 2 58.2023 150.4199 55.7042 0.0000 0.0000 0.0000
# 3 54.3800 55.7042 144.8051 0.0000 0.0000 0.0000
# 4 0.0000 0.0000 0.0000 -14.3426 0.0000 0.0000
# 5 0.0000 0.0000 0.0000 0.0000 39.0199 0.0000
# 6 0.0000 0.0000 0.0000 0.0000 0.0000 9.2597
#
#
#
# Elastic Compliance Matrix: (Units=1/GPa)
#
#
# Indices 1 2 3 4 5 6 
#
# 1 0.013860 -0.004006 -0.003664 0.000000 0.000000 0.000000
# 2 -0.004006 0.008910 -0.001923 0.000000 0.000000 0.000000
# 3 -0.003664 -0.001923 0.009022 0.000000 0.000000 0.000000
# 4 0.000000 0.000000 0.000000 -0.069722 0.000000 0.000000
# 5 0.000000 0.000000 0.000000 0.000000 0.025628 0.000000
# 6 0.000000 0.000000 0.000000 0.000000 0.000000 0.107995
#
#
# Mechanical properties :
#
#
# Convention : Reuss Voigt Hill
#
# Bulk Modulus (GPa) = 79.33054 81.68313 80.50683
# Shear Modulus (GPa) = 41.98874 22.13999 32.06436
#
# Velocity S-wave (km/s) = 4.65843 3.38268 4.07084
# Velocity P-wave (km/s) = 8.36270 7.58108 7.98146
#
# Compressibility (1/GPa) = 0.01260549
#
# Stress axis : x y z
#
# Youngs Moduli (GPa) = 72.15228 112.22950 110.84524
#
# Poissons Ratio (x) = 0.44958 0.40612
# Poissons Ratio (y) = 0.28904 0.21319
# Poissons Ratio (z) = 0.26435 0.21585
#
# Static dielectric constant tensor:
#      x y z
#    x 1.722380 0.000000 0.000000 
#    y 0.000000 1.613680 0.000000 
#    z 0.000000 0.000000 1.672710 
# 
# From -- ./inp_files/12473.got.cif
#   From: 2010.05.17/outbox.cif.g08.bks.cpg/sg40_7_cif.got.tgz:12473.got - 2010.06.03 18:35:42.
