data_PCOD9364765
_publ_section_title
;
Structure prediction by ZEFSAII (Michael W. Deem and Ramdas Pophale) SiO2 
 PCOD9364765
Probable space group: A M A 2
;
_chemical_formula_sum "Si O2"
_cell_formula_units_Z 48
_cell_length_a 10.210080
_cell_length_b 8.740481
_cell_length_c 28.857194
_cell_angle_alpha 90.000000
_cell_angle_beta 90.000000
_cell_angle_gamma 90.000000
_cell_volume 2575.245145
_symmetry_space_group_name_H-M "A M A 2"
_symmetry_group_IT_number 40
_symmetry_cell_setting 'orthorhombic'
loop_
_space_group_symop_operation_xyz
x,y,z
-x,-y,z
1/2-x,y,z
1/2+x,-y,z
x,1/2+y,1/2+z
-x,1/2-y,1/2+z
1/2-x,1/2+y,1/2+z
1/2+x,1/2-y,1/2+z
loop_
_atom_site_type_symbol
_atom_site_label
_atom_site_fract_x
_atom_site_fract_y
_atom_site_fract_z
Si Si1 0.250000 0.806035 0.411330
Si Si2 0.096834 0.645482 0.670452
Si Si3 0.510491 0.815559 0.969157
Si Si4 0.250000 0.832163 0.301615
Si Si5 0.250000 0.694062 0.819110
Si Si6 0.988851 0.181680 0.761334
Si Si7 0.403141 0.144985 0.067247
Si Si8 0.250000 0.667677 0.928564
O O1 0.377616 0.730194 0.433245
O O2 0.250000 0.788958 0.356010
O O3 0.250000 0.983774 0.426554
O O4 0.250000 0.599731 0.676177
O O5 0.056926 0.758726 0.711229
O O6 0.085251 0.715563 0.618589
O O7 0.000000 0.500000 0.673422
O O8 0.376851 0.736261 0.953645
O O9 0.500000 0.000000 0.969305
O O10 0.553755 0.766407 0.021109
O O11 0.377374 0.764534 0.276529
O O12 0.250000 0.016552 0.303095
O O13 0.121797 0.770013 0.797804
O O14 0.250000 0.711080 0.874289
O O15 0.000000 0.000000 0.761131
O O16 0.250000 0.100266 0.061163
O O17 0.500000 0.000000 0.069011
#
# Coordination Sequence:
#
# PCOD9364765 Si02
#       8
#     4   8   8   4   4   8   8   4
#     4  11  23  43  60  89 124 163 202 253 300 363
#     4  10  21  40  66  92 121 161 206 247 296 369
#     4  11  22  38  63  93 122 158 204 250 302 356
#     4  11  25  41  66  85 120 165 212 243 294 369
#     4  11  23  45  62  85 118 167 212 245 292 369
#     4  12  25  40  61  94 126 155 195 259 315 356
#     4   9  19  36  62  92 122 157 204 253 294 356
#     4  11  25  39  62  89 124 161 204 251 304 359
#
# _framework density 18.639002999999999
#
# number of rings (size 3 to 8) (size 9 to 14) (size 15 to 20)
#    0.000    1.333    1.667    4.000    4.667    6.667 
#    0.000    1.667    0.000    0.000    0.000    0.000 
#    0.000    0.000    0.000    0.000    0.000    0.000 
#
# Total GULP energy -134034.335575 kJ/mol
# GULP energy per Si atom -5584.763982 kJ/mol
# Density = 1.859658 g / cm^3
# Si number density = 18.639003 Si / 1000 Ang^3
#
#
#
# Elastic Constant Matrix: (Units=GPa)
#
#
# Indices 1 2 3 4 5 6 
#
# 1 174.0969 45.9356 74.2331 0.0000 0.0000 0.0000
# 2 45.9356 73.8080 60.7099 0.0000 0.0000 0.0000
# 3 74.2331 60.7099 145.9318 0.0000 0.0000 0.0000
# 4 0.0000 0.0000 0.0000 20.9506 0.0000 0.0000
# 5 0.0000 0.0000 0.0000 0.0000 42.0773 0.0000
# 6 0.0000 0.0000 0.0000 0.0000 0.0000 31.1984
#
#
#
# Elastic Compliance Matrix: (Units=1/GPa)
#
#
# Indices 1 2 3 4 5 6 
#
# 1 0.007595 -0.002355 -0.002884 0.000000 0.000000 0.000000
# 2 -0.002355 0.021327 -0.007674 0.000000 0.000000 0.000000
# 3 -0.002884 -0.007674 0.011512 0.000000 0.000000 0.000000
# 4 0.000000 0.000000 0.000000 0.047731 0.000000 0.000000
# 5 0.000000 0.000000 0.000000 0.000000 0.023766 0.000000
# 6 0.000000 0.000000 0.000000 0.000000 0.000000 0.032053
#
#
# Mechanical properties :
#
#
# Convention : Reuss Voigt Hill
#
# Bulk Modulus (GPa) = 68.45667 83.95489 76.20578
# Shear Modulus (GPa) = 28.62398 33.04247 30.83322
#
# Velocity S-wave (km/s) = 3.92306 4.21498 4.07164
# Velocity P-wave (km/s) = 7.57152 8.29629 7.94218
#
# Compressibility (1/GPa) = 0.01460778
#
# Stress axis : x y z
#
# Youngs Moduli (GPa) = 131.66842 46.88965 86.86525
#
# Poissons Ratio (x) = 0.11042 0.25050
# Poissons Ratio (y) = 0.31005 0.66664
# Poissons Ratio (z) = 0.37970 0.35985
#
# Static dielectric constant tensor:
#      x y z
#    x 1.602680 0.000000 0.000000 
#    y 0.000000 1.614520 0.000000 
#    z 0.000000 0.000000 1.664150 
# 
# From -- ./inp_files/26216.got.cif
#   From: 2010.05.17/outbox.cif.g08.bks.cpg/sg40_14_cif.got.tgz:26216.got - 2010.06.03 18:35:42.
