data_PCOD9364997
_publ_section_title
;
Structure prediction by ZEFSAII (Michael W. Deem and Ramdas Pophale) SiO2 
 PCOD9364997
Probable space group: A M A 2
;
_chemical_formula_sum "Si O2"
_cell_formula_units_Z 48
_cell_length_a 31.736311
_cell_length_b 13.310169
_cell_length_c 5.500590
_cell_angle_alpha 90.000000
_cell_angle_beta 90.000000
_cell_angle_gamma 90.000000
_cell_volume 2323.535371
_symmetry_space_group_name_H-M "A M A 2"
_symmetry_group_IT_number 40
_symmetry_cell_setting 'orthorhombic'
loop_
_space_group_symop_operation_xyz
x,y,z
-x,-y,z
1/2-x,y,z
1/2+x,-y,z
x,1/2+y,1/2+z
-x,1/2-y,1/2+z
1/2-x,1/2+y,1/2+z
1/2+x,1/2-y,1/2+z
loop_
_atom_site_type_symbol
_atom_site_label
_atom_site_fract_x
_atom_site_fract_y
_atom_site_fract_z
Si Si1 0.700723 0.889194 0.260050
Si Si2 0.549389 0.220671 0.998163
Si Si3 0.138994 0.792291 0.745800
Si Si4 0.334395 0.021849 0.743666
Si Si5 0.591826 0.346413 0.379608
Si Si6 0.980569 0.904838 0.185223
O O1 0.750000 0.870524 0.222383
O O2 0.675387 0.786309 0.316550
O O3 0.693422 0.952182 0.507499
O O4 0.683219 0.942336 0.010263
O O5 0.596889 0.201136 0.908681
O O6 0.527600 0.304654 0.834782
O O7 0.557149 0.279326 0.248163
O O8 0.519562 0.124521 0.010230
O O9 0.156984 0.903583 0.733670
O O10 0.121173 0.736864 0.506023
O O11 0.378516 0.083335 0.717424
O O12 0.565044 0.417555 0.560406
O O13 0.000000 0.000000 0.324764
#
# Coordination Sequence:
#
# PCOD9364997 Si02
#       6
#     8   8   8   8   8   8
#     4  11  25  44  67 101 132 160 213 271 322 399
#     4  11  21  40  59  91 127 167 223 269 319 384
#     4  10  24  42  68  91 129 176 210 267 331 391
#     4  11  24  44  70  97 130 174 216 261 333 397
#     4  10  22  41  61  92 129 169 221 273 318 385
#     4  11  23  37  58  88 128 172 218 271 324 372
#
# _framework density 20.658176000000001
#
# number of rings (size 3 to 8) (size 9 to 14) (size 15 to 20)
#    0.000    1.333    3.333    1.500    2.333    3.333 
#    0.000    0.000    0.000    0.000    0.000    0.000 
#    0.000    0.000    0.000    0.000    0.000    0.000 
#
# Total GULP energy -133700.425440 kJ/mol
# GULP energy per Si atom -5570.851060 kJ/mol
# Density = 2.061116 g / cm^3
# Si number density = 20.658176 Si / 1000 Ang^3
#
#
#
# Elastic Constant Matrix: (Units=GPa)
#
#
# Indices 1 2 3 4 5 6 
#
# 1 120.7691 55.8950 19.0719 0.0000 0.0000 0.0000
# 2 55.8950 96.6052 13.5360 0.0000 0.0000 0.0000
# 3 19.0719 13.5360 54.0442 0.0000 0.0000 0.0000
# 4 0.0000 0.0000 0.0000 32.8456 0.0000 0.0000
# 5 0.0000 0.0000 0.0000 0.0000 68.5151 0.0000
# 6 0.0000 0.0000 0.0000 0.0000 0.0000 21.4962
#
#
#
# Elastic Compliance Matrix: (Units=1/GPa)
#
#
# Indices 1 2 3 4 5 6 
#
# 1 0.011627 -0.006376 -0.002506 0.000000 0.000000 0.000000
# 2 -0.006376 0.014225 -0.001313 0.000000 0.000000 0.000000
# 3 -0.002506 -0.001313 0.019717 0.000000 0.000000 0.000000
# 4 0.000000 0.000000 0.000000 0.030445 0.000000 0.000000
# 5 0.000000 0.000000 0.000000 0.000000 0.014595 0.000000
# 6 0.000000 0.000000 0.000000 0.000000 0.000000 0.046520
#
#
# Mechanical properties :
#
#
# Convention : Reuss Voigt Hill
#
# Bulk Modulus (GPa) = 39.71669 49.82491 44.77080
# Shear Modulus (GPa) = 30.13656 36.76576 33.45116
#
# Velocity S-wave (km/s) = 3.82359 4.22325 4.02838
# Velocity P-wave (km/s) = 6.22580 6.92475 6.58456
#
# Compressibility (1/GPa) = 0.02517833
#
# Stress axis : x y z
#
# Youngs Moduli (GPa) = 86.00601 70.30113 50.71888
#
# Poissons Ratio (x) = 0.44825 0.12711
# Poissons Ratio (y) = 0.54839 0.06657
# Poissons Ratio (z) = 0.21554 0.09228
#
# Static dielectric constant tensor:
#      x y z
#    x 1.703670 0.000000 0.000000 
#    y 0.000000 1.695920 0.000000 
#    z 0.000000 0.000000 1.869690 
# 
# From -- ./inp_files/3088.got.cif
#   From: 2010.05.17/outbox.cif.g08.bks.cpg/sg40_2_cif.got.tgz:3088.got - 2010.06.03 18:35:42.
