data_PCOD9364303
_publ_section_title
;
Structure prediction by ZEFSAII (Michael W. Deem and Ramdas Pophale) SiO2 
 PCOD9364303
Probable space group: A M A 2
;
_chemical_formula_sum "Si O2"
_cell_formula_units_Z 48
_cell_length_a 9.826007
_cell_length_b 9.038112
_cell_length_c 28.701485
_cell_angle_alpha 90.000000
_cell_angle_beta 90.000000
_cell_angle_gamma 90.000000
_cell_volume 2548.937317
_symmetry_space_group_name_H-M "A M A 2"
_symmetry_group_IT_number 40
_symmetry_cell_setting 'orthorhombic'
loop_
_space_group_symop_operation_xyz
x,y,z
-x,-y,z
1/2-x,y,z
1/2+x,-y,z
x,1/2+y,1/2+z
-x,1/2-y,1/2+z
1/2-x,1/2+y,1/2+z
1/2+x,1/2-y,1/2+z
loop_
_atom_site_type_symbol
_atom_site_label
_atom_site_fract_x
_atom_site_fract_y
_atom_site_fract_z
Si Si1 0.082264 0.152677 0.768390
Si Si2 0.250000 0.337015 0.034012
Si Si3 0.750000 0.660206 0.928578
Si Si4 0.580835 0.346106 0.693603
Si Si5 0.750000 0.802523 0.423502
Si Si6 0.007682 0.321602 0.862704
Si Si7 0.991422 0.324438 0.585336
Si Si8 0.750000 0.806308 0.533596
O O1 0.250000 0.140843 0.762045
O O2 0.049826 0.249511 0.814215
O O3 0.999088 0.230320 0.726213
O O4 0.000000 0.000000 0.775187
O O5 0.123460 0.264756 0.058864
O O6 0.250000 0.514960 0.034692
O O7 0.250000 0.288496 0.980771
O O8 0.750000 0.481399 0.928185
O O9 0.877943 0.711109 0.900181
O O10 0.500000 0.500000 0.703531
O O11 0.750000 0.352809 0.699296
O O12 0.543617 0.309293 0.640052
O O13 0.624610 0.764887 0.389870
O O14 0.750000 0.755816 0.478446
O O15 0.000000 0.500000 0.856044
O O16 0.000000 0.500000 0.576277
O O17 0.125210 0.253832 0.563570
#
# Coordination Sequence:
#
# PCOD9364303 Si02
#       8
#     8   4   4   8   4   8   8   4
#     4  12  27  45  66  97 136 172 214 277 345 402
#     4  11  21  41  66  95 132 173 224 279 328 395
#     4   9  18  37  62  91 126 169 218 275 314 383
#     4  11  25  46  73  98 127 173 224 272 329 404
#     4   9  20  35  62  97 128 167 224 275 318 383
#     4  10  20  39  67  93 124 168 225 268 323 390
#     4  11  24  42  65  96 136 173 221 273 336 399
#     4  11  23  39  66  99 132 179 228 277 334 389
#
# _framework density 18.831378000000001
#
# number of rings (size 3 to 8) (size 9 to 14) (size 15 to 20)
#    0.000    1.333    1.667    3.500    7.000    4.000 
#    0.000    5.000    0.000    0.000    0.000    0.000 
#    0.000    0.000    0.000    0.000    0.000    0.000 
#
# Total GULP energy -133680.404967 kJ/mol
# GULP energy per Si atom -5570.016874 kJ/mol
# Density = 1.878852 g / cm^3
# Si number density = 18.831378 Si / 1000 Ang^3
#
#
#
# Elastic Constant Matrix: (Units=GPa)
#
#
# Indices 1 2 3 4 5 6 
#
# 1 222.9569 60.2142 69.5435 0.0000 0.0000 0.0000
# 2 60.2142 86.4322 75.2300 0.0000 0.0000 0.0000
# 3 69.5435 75.2300 99.0447 0.0000 0.0000 0.0000
# 4 0.0000 0.0000 0.0000 22.4788 0.0000 0.0000
# 5 0.0000 0.0000 0.0000 0.0000 43.5982 0.0000
# 6 0.0000 0.0000 0.0000 0.0000 0.0000 14.6076
#
#
#
# Elastic Compliance Matrix: (Units=1/GPa)
#
#
# Indices 1 2 3 4 5 6 
#
# 1 0.005805 -0.001465 -0.002963 0.000000 0.000000 0.000000
# 2 -0.001465 0.034510 -0.025184 0.000000 0.000000 0.000000
# 3 -0.002963 -0.025184 0.031306 0.000000 0.000000 0.000000
# 4 0.000000 0.000000 0.000000 0.044486 0.000000 0.000000
# 5 0.000000 0.000000 0.000000 0.000000 0.022937 0.000000
# 6 0.000000 0.000000 0.000000 0.000000 0.000000 0.068458
#
#
# Mechanical properties :
#
#
# Convention : Reuss Voigt Hill
#
# Bulk Modulus (GPa) = 80.66611 90.93434 85.80022
# Shear Modulus (GPa) = 18.45987 29.69998 24.07992
#
# Velocity S-wave (km/s) = 3.13433 3.97565 3.57979
# Velocity P-wave (km/s) = 7.48516 8.33474 7.92135
#
# Compressibility (1/GPa) = 0.01239678
#
# Stress axis : x y z
#
# Youngs Moduli (GPa) = 172.26196 28.97700 31.94326
#
# Poissons Ratio (x) = 0.04245 0.09466
# Poissons Ratio (y) = 0.25237 0.80445
# Poissons Ratio (z) = 0.51045 0.72975
#
# Static dielectric constant tensor:
#      x y z
#    x 1.721880 0.000000 0.000000 
#    y 0.000000 1.661690 0.000000 
#    z 0.000000 0.000000 1.633810 
# 
# From -- ./inp_files/26211.got.cif
#   From: 2010.05.17/outbox.cif.g08.bks.cpg/sg40_14_cif.got.tgz:26211.got - 2010.06.03 18:35:42.
