data_PCOD9364410
_publ_section_title
;
Structure prediction by ZEFSAII (Michael W. Deem and Ramdas Pophale) SiO2 
 PCOD9364410
Probable space group: A M A 2
;
_chemical_formula_sum "Si O2"
_cell_formula_units_Z 64
_cell_length_a 25.516486
_cell_length_b 7.003812
_cell_length_c 14.585614
_cell_angle_alpha 90.000000
_cell_angle_beta 90.000000
_cell_angle_gamma 90.000000
_cell_volume 2606.634034
_symmetry_space_group_name_H-M "A M A 2"
_symmetry_group_IT_number 40
_symmetry_cell_setting 'orthorhombic'
loop_
_space_group_symop_operation_xyz
x,y,z
-x,-y,z
1/2-x,y,z
1/2+x,-y,z
x,1/2+y,1/2+z
-x,1/2-y,1/2+z
1/2-x,1/2+y,1/2+z
1/2+x,1/2-y,1/2+z
loop_
_atom_site_type_symbol
_atom_site_label
_atom_site_fract_x
_atom_site_fract_y
_atom_site_fract_z
Si Si1 0.986108 0.782463 0.698510
Si Si2 0.405126 0.174843 0.182817
Si Si3 0.401988 0.686262 0.473837
Si Si4 0.623929 0.385890 0.181349
Si Si5 0.625921 0.355317 0.974675
Si Si6 0.192147 0.585489 0.811226
Si Si7 0.692381 0.364074 0.348408
Si Si8 0.987186 0.281040 0.974439
O O1 0.924244 0.757331 0.721419
O O2 0.986931 0.770711 0.586301
O O3 0.036485 0.654234 0.725423
O O4 0.000000 0.000000 0.726317
O O5 0.402496 0.108814 0.077657
O O6 0.399917 0.403681 0.172042
O O7 0.355131 0.107237 0.239580
O O8 0.355254 0.595734 0.416659
O O9 0.462046 0.667629 0.440027
O O10 0.388781 0.915958 0.472845
O O11 0.638841 0.315598 0.080464
O O12 0.672633 0.417010 0.247517
O O13 0.572401 0.248489 0.945624
O O14 0.672004 0.315619 0.903930
O O15 0.250000 0.647664 0.779815
O O16 0.195845 0.364782 0.838986
O O17 0.750000 0.435637 0.373166
O O18 0.000000 0.500000 0.951287
#
# Coordination Sequence:
#
# PCOD9364410 Si02
#       8
#     8   8   8   8   8   8   8   8
#     4   7  12  25  47  75 100 117 142 191 245 282
#     4   9  17  32  54  75  95 123 159 195 234 286
#     4   8  15  29  49  70  93 123 156 192 236 286
#     4   9  17  32  54  75  95 123 159 195 234 286
#     4   8  15  29  49  70  93 123 156 192 236 286
#     4  10  21  34  46  67 100 131 161 200 240 273
#     4  10  21  34  46  67 100 131 161 200 240 273
#     4   7  10  21  44  71  92 113 150 193 231 280
#
# _framework density 24.552738000000002
#
# number of rings (size 3 to 8) (size 9 to 14) (size 15 to 20)
#    0.000    3.500    0.000    3.000    0.000    2.500 
#    0.000    5.625    0.000    0.000    0.000    1.750 
#    0.000    0.000    0.000    0.000    0.000    0.000 
#
# Total GULP energy -178728.886118 kJ/mol
# GULP energy per Si atom -5585.277691 kJ/mol
# Density = 2.449685 g / cm^3
# Si number density = 24.552738 Si / 1000 Ang^3
#
#
#
# Elastic Constant Matrix: (Units=GPa)
#
#
# Indices 1 2 3 4 5 6 
#
# 1 201.2682 17.4358 66.9330 0.0000 0.0000 0.0000
# 2 17.4358 77.3468 -2.1711 0.0000 0.0000 0.0000
# 3 66.9330 -2.1711 78.5898 0.0000 0.0000 0.0000
# 4 0.0000 0.0000 0.0000 4.0547 0.0000 0.0000
# 5 0.0000 0.0000 0.0000 0.0000 17.6042 0.0000
# 6 0.0000 0.0000 0.0000 0.0000 0.0000 -5.6492
#
#
#
# Elastic Compliance Matrix: (Units=1/GPa)
#
#
# Indices 1 2 3 4 5 6 
#
# 1 0.007171 -0.001789 -0.006157 0.000000 0.000000 0.000000
# 2 -0.001789 0.013385 0.001894 0.000000 0.000000 0.000000
# 3 -0.006157 0.001894 0.018020 0.000000 0.000000 0.000000
# 4 0.000000 0.000000 0.000000 0.246630 0.000000 0.000000
# 5 0.000000 0.000000 0.000000 0.000000 0.056805 0.000000
# 6 0.000000 0.000000 0.000000 0.000000 0.000000 -0.177016
#
#
# Mechanical properties :
#
#
# Convention : Reuss Voigt Hill
#
# Bulk Modulus (GPa) = 37.77622 57.95556 47.86589
# Shear Modulus (GPa) = 26.89279 21.53573 24.21426
#
# Velocity S-wave (km/s) = 3.31313 2.96484 3.14381
# Velocity P-wave (km/s) = 5.48224 5.94778 5.71975
#
# Compressibility (1/GPa) = 0.02647168
#
# Stress axis : x y z
#
# Youngs Moduli (GPa) = 139.45096 74.70880 55.49328
#
# Poissons Ratio (x) = 0.13368 0.34166
# Poissons Ratio (y) = 0.24952 -0.10509
# Poissons Ratio (z) = 0.85857 -0.14148
#
# Static dielectric constant tensor:
#      x y z
#    x 2.055090 0.000000 0.000000 
#    y 0.000000 2.137920 0.000000 
#    z 0.000000 0.000000 1.920590 
# 
# From -- ./inp_files/21541.got.cif
#   From: 2010.05.17/outbox.cif.g08.bks.cpg/sg40_11_cif.got.tgz:21541.got - 2010.06.03 18:35:42.
