data_PCOD9364736
_publ_section_title
;
Structure prediction by ZEFSAII (Michael W. Deem and Ramdas Pophale) SiO2 
 PCOD9364736
Probable space group: A M A 2
;
_chemical_formula_sum "Si O2"
_cell_formula_units_Z 56
_cell_length_a 8.503518
_cell_length_b 21.250385
_cell_length_c 15.886277
_cell_angle_alpha 90.000000
_cell_angle_beta 90.000000
_cell_angle_gamma 90.000000
_cell_volume 2870.698411
_symmetry_space_group_name_H-M "A M A 2"
_symmetry_group_IT_number 40
_symmetry_cell_setting 'orthorhombic'
loop_
_space_group_symop_operation_xyz
x,y,z
-x,-y,z
1/2-x,y,z
1/2+x,-y,z
x,1/2+y,1/2+z
-x,1/2-y,1/2+z
1/2-x,1/2+y,1/2+z
1/2+x,1/2-y,1/2+z
loop_
_atom_site_type_symbol
_atom_site_label
_atom_site_fract_x
_atom_site_fract_y
_atom_site_fract_z
Si Si1 0.560708 0.800310 0.057950
Si Si2 0.928233 0.942024 0.660227
Si Si3 0.431871 0.933788 0.481897
Si Si4 0.572332 0.631411 0.292909
Si Si5 0.063147 0.196516 0.424480
Si Si6 0.930146 0.776769 0.248028
Si Si7 0.439536 0.071727 0.964467
O O1 0.750000 0.793687 0.056428
O O2 0.504637 0.783044 0.153131
O O3 0.499998 0.750999 0.987101
O O4 0.523803 0.873003 0.033060
O O5 0.750000 0.950192 0.632263
O O6 0.045757 0.937043 0.582591
O O7 0.947241 0.884710 0.721434
O O8 0.000000 0.000000 0.712663
O O9 0.250000 0.926903 0.459893
O O10 0.529390 0.872287 0.460066
O O11 0.500000 0.000000 0.448748
O O12 0.750000 0.608251 0.273997
O O13 0.579644 0.706174 0.284674
O O14 0.515971 0.600863 0.379746
O O15 0.250000 0.206873 0.418431
O O16 0.991718 0.192112 0.329771
O O17 0.750000 0.801072 0.239925
O O18 0.250000 0.069051 0.955379
O O19 0.500000 0.000000 0.980005
#
# Coordination Sequence:
#
# PCOD9364736 Si02
#       7
#     8   8   8   8   8   8   8
#     4  10  21  40  63  89 121 162 208 259 315 373
#     4  11  21  34  52  80 114 151 192 237 290 356
#     4  11  22  38  58  84 117 157 198 244 300 362
#     4  11  20  35  57  84 118 155 197 247 306 370
#     4  11  21  38  62  90 120 156 198 250 307 371
#     4   9  20  37  60  86 116 154 197 246 307 367
#     4  11  23  38  59  85 120 163 211 263 317 376
#
# _framework density 19.507446999999999
#
# number of rings (size 3 to 8) (size 9 to 14) (size 15 to 20)
#    0.000    1.429    1.429    6.000    0.000    1.714 
#    0.000    2.857    0.000    1.714    0.000    0.000 
#    0.000    0.000    0.000    0.000    0.000    0.000 
#
# Total GULP energy -155905.033005 kJ/mol
# GULP energy per Si atom -5568.036893 kJ/mol
# Density = 1.946305 g / cm^3
# Si number density = 19.507447 Si / 1000 Ang^3
#
#
#
# Elastic Constant Matrix: (Units=GPa)
#
#
# Indices 1 2 3 4 5 6 
#
# 1 59.4285 25.5353 23.4235 0.0000 0.0000 0.0000
# 2 25.5353 120.4063 49.2213 0.0000 0.0000 0.0000
# 3 23.4235 49.2213 115.8197 0.0000 0.0000 0.0000
# 4 0.0000 0.0000 0.0000 24.4116 0.0000 0.0000
# 5 0.0000 0.0000 0.0000 0.0000 19.3953 0.0000
# 6 0.0000 0.0000 0.0000 0.0000 0.0000 22.6875
#
#
#
# Elastic Compliance Matrix: (Units=1/GPa)
#
#
# Indices 1 2 3 4 5 6 
#
# 1 0.019138 -0.002997 -0.002597 0.000000 0.000000 0.000000
# 2 -0.002997 0.010521 -0.003865 0.000000 0.000000 0.000000
# 3 -0.002597 -0.003865 0.010802 0.000000 0.000000 0.000000
# 4 0.000000 0.000000 0.000000 0.040964 0.000000 0.000000
# 5 0.000000 0.000000 0.000000 0.000000 0.051559 0.000000
# 6 0.000000 0.000000 0.000000 0.000000 0.000000 0.044077
#
#
# Mechanical properties :
#
#
# Convention : Reuss Voigt Hill
#
# Bulk Modulus (GPa) = 46.41888 54.66830 50.54359
# Shear Modulus (GPa) = 24.61112 26.46383 25.53748
#
# Velocity S-wave (km/s) = 3.55579 3.68720 3.62209
# Velocity P-wave (km/s) = 6.38007 6.79797 6.59234
#
# Compressibility (1/GPa) = 0.02154296
#
# Stress axis : x y z
#
# Youngs Moduli (GPa) = 52.25120 95.04944 92.57675
#
# Poissons Ratio (x) = 0.28488 0.24040
# Poissons Ratio (y) = 0.15661 0.35781
# Poissons Ratio (z) = 0.13569 0.36737
#
# Static dielectric constant tensor:
#      x y z
#    x 1.686420 0.000000 0.000000 
#    y 0.000000 2.945490 0.000000 
#    z 0.000000 0.000000 1.712340 
# 
# From -- ./inp_files/15354.got.cif
#   From: 2010.05.17/outbox.cif.g08.bks.cpg/sg40_8_cif.got.tgz:15354.got - 2010.06.03 18:35:42.
