data_PCOD9364413
_publ_section_title
;
Structure prediction by ZEFSAII (Michael W. Deem and Ramdas Pophale) SiO2 
 PCOD9364413
Probable space group: A M A 2
;
_chemical_formula_sum "Si O2"
_cell_formula_units_Z 64
_cell_length_a 7.867837
_cell_length_b 25.772394
_cell_length_c 15.557819
_cell_angle_alpha 90.000000
_cell_angle_beta 90.000000
_cell_angle_gamma 90.000000
_cell_volume 3154.705556
_symmetry_space_group_name_H-M "A M A 2"
_symmetry_group_IT_number 40
_symmetry_cell_setting 'orthorhombic'
loop_
_space_group_symop_operation_xyz
x,y,z
-x,-y,z
1/2-x,y,z
1/2+x,-y,z
x,1/2+y,1/2+z
-x,1/2-y,1/2+z
1/2-x,1/2+y,1/2+z
1/2+x,1/2-y,1/2+z
loop_
_atom_site_type_symbol
_atom_site_label
_atom_site_fract_x
_atom_site_fract_y
_atom_site_fract_z
Si Si1 0.954683 0.283025 0.111930
Si Si2 0.950769 0.362850 0.416940
Si Si3 0.451066 0.897016 0.586057
Si Si4 0.456532 0.234077 0.811415
Si Si5 0.045013 0.941730 0.409022
Si Si6 0.452804 0.439773 0.267204
Si Si7 0.547830 0.668604 0.594627
Si Si8 0.958211 0.150737 0.287585
O O1 0.750000 0.285664 0.105141
O O2 0.999650 0.281427 0.213430
O O3 0.016182 0.227426 0.076437
O O4 0.025567 0.335611 0.072455
O O5 0.750000 0.356714 0.422789
O O6 0.023499 0.309834 0.375009
O O7 0.986140 0.408911 0.350811
O O8 0.014344 0.367765 0.513917
O O9 0.250000 0.907563 0.589512
O O10 0.521007 0.928339 0.504710
O O11 0.522341 0.914138 0.678800
O O12 0.250000 0.233977 0.815325
O O13 0.511508 0.293334 0.825644
O O14 0.250000 0.937773 0.411281
O O15 0.983057 0.897914 0.342971
O O16 0.000000 0.000000 0.384274
O O17 0.500000 0.500000 0.269383
O O18 0.250000 0.435047 0.266447
O O19 0.750000 0.673868 0.604372
O O20 0.485169 0.650120 0.687884
O O21 0.750000 0.150255 0.288076
#
# Coordination Sequence:
#
# PCOD9364413 Si02
#       8
#     8   8   8   8   8   8   8   8
#     4   9  17  32  53  78 112 149 183 220 268 331
#     4  11  21  34  57  85 113 148 188 232 281 335
#     4  10  21  34  53  83 115 146 181 227 277 330
#     4   8  15  29  51  79 106 140 181 218 263 328
#     4  10  21  37  57  80 107 142 187 231 275 326
#     4  11  23  39  57  80 114 152 190 235 281 334
#     4   9  19  35  55  80 113 149 186 228 278 332
#     4   8  16  34  57  77 104 146 188 226 274 331
#
# _framework density 20.287154000000001
#
# number of rings (size 3 to 8) (size 9 to 14) (size 15 to 20)
#    0.000    2.500    1.250    2.625    1.750    1.500 
#    0.000    1.250    0.000    2.250    0.000    0.000 
#    0.000    0.000    0.000    0.000    0.000    0.000 
#
# Total GULP energy -178586.863324 kJ/mol
# GULP energy per Si atom -5580.839479 kJ/mol
# Density = 2.024098 g / cm^3
# Si number density = 20.287154 Si / 1000 Ang^3
#
#
#
# Elastic Constant Matrix: (Units=GPa)
#
#
# Indices 1 2 3 4 5 6 
#
# 1 13.1919 -11.6046 -0.8941 0.0000 0.0000 0.0000
# 2 -11.6046 109.9036 46.6951 0.0000 0.0000 0.0000
# 3 -0.8941 46.6951 79.9014 0.0000 0.0000 0.0000
# 4 0.0000 0.0000 0.0000 30.6973 0.0000 0.0000
# 5 0.0000 0.0000 0.0000 0.0000 0.1173 0.0000
# 6 0.0000 0.0000 0.0000 0.0000 0.0000 22.6627
#
#
#
# Elastic Compliance Matrix: (Units=1/GPa)
#
#
# Indices 1 2 3 4 5 6 
#
# 1 0.085505 0.011470 -0.005746 0.000000 0.000000 0.000000
# 2 0.011470 0.013643 -0.007845 0.000000 0.000000 0.000000
# 3 -0.005746 -0.007845 0.017036 0.000000 0.000000 0.000000
# 4 0.000000 0.000000 0.000000 0.032576 0.000000 0.000000
# 5 0.000000 0.000000 0.000000 0.000000 8.528722 0.000000
# 6 0.000000 0.000000 0.000000 0.000000 0.000000 0.044125
#
#
# Mechanical properties :
#
#
# Convention : Reuss Voigt Hill
#
# Bulk Modulus (GPa) = 8.93330 30.15443 19.54387
# Shear Modulus (GPa) = 0.57057 21.94880 11.25969
#
# Velocity S-wave (km/s) = 0.53090 3.29280 2.35843
# Velocity P-wave (km/s) = 2.18833 5.41782 4.13168
#
# Compressibility (1/GPa) = 0.11194067
#
# Stress axis : x y z
#
# Youngs Moduli (GPa) = 11.69528 73.29780 58.70035
#
# Poissons Ratio (x) = -0.84071 0.33731
# Poissons Ratio (y) = -0.13414 0.46049
# Poissons Ratio (z) = 0.06720 0.57500
#
# Static dielectric constant tensor:
#      x y z
#    x 1.732510 0.000000 0.000000 
#    y 0.000000 1.688980 0.000000 
#    z 0.000000 0.000000 1.746990 
# 
# From -- ./inp_files/15692.got.cif
#   From: 2010.05.17/outbox.cif.g08.bks.cpg/sg40_8_cif.got.tgz:15692.got - 2010.06.03 18:35:42.
