data_PCOD9364259
_publ_section_title
;
Structure prediction by ZEFSAII (Michael W. Deem and Ramdas Pophale) SiO2 
 PCOD9364259
Probable space group: A M A 2
;
_chemical_formula_sum "Si O2"
_cell_formula_units_Z 56
_cell_length_a 18.625160
_cell_length_b 9.516639
_cell_length_c 14.871042
_cell_angle_alpha 90.000000
_cell_angle_beta 90.000000
_cell_angle_gamma 90.000000
_cell_volume 2635.876194
_symmetry_space_group_name_H-M "A M A 2"
_symmetry_group_IT_number 40
_symmetry_cell_setting 'orthorhombic'
loop_
_space_group_symop_operation_xyz
x,y,z
-x,-y,z
1/2-x,y,z
1/2+x,-y,z
x,1/2+y,1/2+z
-x,1/2-y,1/2+z
1/2-x,1/2+y,1/2+z
1/2+x,1/2-y,1/2+z
loop_
_atom_site_type_symbol
_atom_site_label
_atom_site_fract_x
_atom_site_fract_y
_atom_site_fract_z
Si Si1 0.949206 0.231395 0.991470
Si Si2 0.830362 0.186205 0.553419
Si Si3 0.031018 0.845570 0.664625
Si Si4 0.332410 0.984453 0.038302
Si Si5 0.328588 0.063146 0.420240
Si Si6 0.669947 0.595529 0.748264
Si Si7 0.479424 0.333225 0.821745
O O1 0.890645 0.347048 0.962883
O O2 0.009616 0.253513 0.915760
O O3 0.900906 0.091487 0.993747
O O4 0.983337 0.270442 0.087016
O O5 0.750000 0.168306 0.590798
O O6 0.890340 0.138888 0.622938
O O7 0.840008 0.348984 0.531072
O O8 0.834679 0.090335 0.464941
O O9 0.029955 0.744633 0.750248
O O10 0.000000 0.000000 0.684438
O O11 0.250000 0.948220 0.008451
O O12 0.336527 0.943402 0.144044
O O13 0.250000 0.119825 0.443977
O O14 0.332334 0.040556 0.313625
O O15 0.750000 0.658520 0.762112
O O16 0.600550 0.680150 0.781060
O O17 0.500000 0.500000 0.829962
#
# Coordination Sequence:
#
# PCOD9364259 Si02
#       7
#     8   8   8   8   8   8   8
#     4  12  23  41  65  97 135 171 221 280 327 400
#     4  10  22  41  66  95 132 175 217 270 337 396
#     4  12  25  44  65  98 134 171 224 280 341 398
#     4  10  22  42  67  98 132 173 225 280 334 400
#     4  10  20  38  67  96 127 174 219 266 332 396
#     4  10  20  39  65  95 126 167 224 273 322 397
#     4  12  24  43  67  96 132 176 225 279 341 402
#
# _framework density 21.245307
#
# number of rings (size 3 to 8) (size 9 to 14) (size 15 to 20)
#    0.000    1.143    4.286    2.571    0.000    0.000 
#    5.143    1.429    0.000    0.000    0.000    0.000 
#    0.000    0.000    0.000    0.000    0.000    0.000 
#
# Total GULP energy -156425.032254 kJ/mol
# GULP energy per Si atom -5586.608295 kJ/mol
# Density = 2.119695 g / cm^3
# Si number density = 21.245307 Si / 1000 Ang^3
#
#
#
# Elastic Constant Matrix: (Units=GPa)
#
#
# Indices 1 2 3 4 5 6 
#
# 1 118.5024 28.9706 1.9601 0.0000 0.0000 0.0000
# 2 28.9706 69.7353 11.5137 0.0000 0.0000 0.0000
# 3 1.9601 11.5137 55.9605 0.0000 0.0000 0.0000
# 4 0.0000 0.0000 0.0000 18.6693 0.0000 0.0000
# 5 0.0000 0.0000 0.0000 0.0000 13.8911 0.0000
# 6 0.0000 0.0000 0.0000 0.0000 0.0000 16.9863
#
#
#
# Elastic Compliance Matrix: (Units=1/GPa)
#
#
# Indices 1 2 3 4 5 6 
#
# 1 0.009406 -0.003989 0.000491 0.000000 0.000000 0.000000
# 2 -0.003989 0.016536 -0.003262 0.000000 0.000000 0.000000
# 3 0.000491 -0.003262 0.018524 0.000000 0.000000 0.000000
# 4 0.000000 0.000000 0.000000 0.053564 0.000000 0.000000
# 5 0.000000 0.000000 0.000000 0.000000 0.071989 0.000000
# 6 0.000000 0.000000 0.000000 0.000000 0.000000 0.058871
#
#
# Mechanical properties :
#
#
# Convention : Reuss Voigt Hill
#
# Bulk Modulus (GPa) = 32.31498 36.56520 34.44009
# Shear Modulus (GPa) = 19.78449 23.35959 21.57204
#
# Velocity S-wave (km/s) = 3.05493 3.31949 3.18996
# Velocity P-wave (km/s) = 5.26184 5.65158 5.46019
#
# Compressibility (1/GPa) = 0.03094540
#
# Stress axis : x y z
#
# Youngs Moduli (GPa) = 106.31952 60.47573 53.98463
#
# Poissons Ratio (x) = 0.24121 -0.02652
# Poissons Ratio (y) = 0.42406 0.17612
# Poissons Ratio (z) = -0.05222 0.19730
#
# Static dielectric constant tensor:
#      x y z
#    x 1.843480 0.000000 0.000000 
#    y 0.000000 1.736940 0.000000 
#    z 0.000000 0.000000 1.762140 
# 
# From -- ./inp_files/18213.got.cif
#   From: 2010.05.17/outbox.cif.g08.bks.cpg/sg40_10_cif.got.tgz:18213.got - 2010.06.03 18:35:42.
