data_PCOD9364125
_publ_section_title
;
Structure prediction by ZEFSAII (Michael W. Deem and Ramdas Pophale) SiO2 
 PCOD9364125
Probable space group: A M A 2
;
_chemical_formula_sum "Si O2"
_cell_formula_units_Z 64
_cell_length_a 25.626912
_cell_length_b 14.430925
_cell_length_c 7.154999
_cell_angle_alpha 90.000000
_cell_angle_beta 90.000000
_cell_angle_gamma 90.000000
_cell_volume 2646.062053
_symmetry_space_group_name_H-M "A M A 2"
_symmetry_group_IT_number 40
_symmetry_cell_setting 'orthorhombic'
loop_
_space_group_symop_operation_xyz
x,y,z
-x,-y,z
1/2-x,y,z
1/2+x,-y,z
x,1/2+y,1/2+z
-x,1/2-y,1/2+z
1/2-x,1/2+y,1/2+z
1/2+x,1/2-y,1/2+z
loop_
_atom_site_type_symbol
_atom_site_label
_atom_site_fract_x
_atom_site_fract_y
_atom_site_fract_z
Si Si1 0.533999 0.593633 0.567460
Si Si2 0.642625 0.493505 0.556684
Si Si3 0.999655 0.227420 0.411220
Si Si4 0.191940 0.328206 0.590678
Si Si5 0.309290 0.534465 0.148604
Si Si6 0.105944 0.172527 0.608647
Si Si7 0.806452 0.177927 0.639403
Si Si8 0.599892 0.305809 0.531793
O O1 0.500000 0.500000 0.582459
O O2 0.592061 0.558465 0.526309
O O3 0.517199 0.663705 0.403146
O O4 0.525717 0.658186 0.755188
O O5 0.681184 0.566361 0.655355
O O6 0.674127 0.465467 0.368322
O O7 0.617864 0.399005 0.638000
O O8 0.053707 0.182928 0.487884
O O9 0.952188 0.245323 0.562180
O O10 0.250000 0.298990 0.652555
O O11 0.143405 0.261939 0.632076
O O12 0.192158 0.325137 0.364432
O O13 0.250000 0.569105 0.126763
O O14 0.353517 0.593945 0.048814
O O15 0.310915 0.428780 0.084886
O O16 0.089707 0.156923 0.822711
O O17 0.750000 0.216058 0.584601
O O18 0.852194 0.237839 0.557039
#
# Coordination Sequence:
#
# PCOD9364125 Si02
#       8
#     8   8   8   8   8   8   8   8
#     4  12  26  46  70 101 144 188 240 301 356 433
#     4  10  20  39  65  93 131 179 228 290 357 421
#     4  12  25  44  68  98 140 187 242 293 365 435
#     4  10  20  37  61  90 125 170 226 287 351 423
#     4   9  20  41  66  98 136 180 233 293 368 441
#     4  11  23  40  64  96 129 178 234 286 354 434
#     4   9  21  39  62  93 130 173 221 285 355 420
#     4  11  23  39  66  94 130 177 230 289 346 437
#
# _framework density 24.186888
#
# number of rings (size 3 to 8) (size 9 to 14) (size 15 to 20)
#    0.000    1.500    3.750    1.500    1.750    4.000 
#    0.000    3.125    0.000    0.000    0.000    0.000 
#    0.000    0.000    0.000    0.000    0.000    0.000 
#
# Total GULP energy -178411.097434 kJ/mol
# GULP energy per Si atom -5575.346795 kJ/mol
# Density = 2.413184 g / cm^3
# Si number density = 24.186888 Si / 1000 Ang^3
#
#
#
# Elastic Constant Matrix: (Units=GPa)
#
#
# Indices 1 2 3 4 5 6 
#
# 1 206.7558 54.8688 13.3943 0.0000 0.0000 0.0000
# 2 54.8688 97.3086 12.8896 0.0000 0.0000 0.0000
# 3 13.3943 12.8896 92.0462 0.0000 0.0000 0.0000
# 4 0.0000 0.0000 0.0000 22.9278 0.0000 0.0000
# 5 0.0000 0.0000 0.0000 0.0000 20.8848 0.0000
# 6 0.0000 0.0000 0.0000 0.0000 0.0000 40.3678
#
#
#
# Elastic Compliance Matrix: (Units=1/GPa)
#
#
# Indices 1 2 3 4 5 6 
#
# 1 0.005701 -0.003163 -0.000387 0.000000 0.000000 0.000000
# 2 -0.003163 0.012226 -0.001252 0.000000 0.000000 0.000000
# 3 -0.000387 -0.001252 0.011096 0.000000 0.000000 0.000000
# 4 0.000000 0.000000 0.000000 0.043615 0.000000 0.000000
# 5 0.000000 0.000000 0.000000 0.000000 0.047882 0.000000
# 6 0.000000 0.000000 0.000000 0.000000 0.000000 0.024772
#
#
# Mechanical properties :
#
#
# Convention : Reuss Voigt Hill
#
# Bulk Modulus (GPa) = 51.49510 62.04619 56.77064
# Shear Modulus (GPa) = 30.98488 37.83327 34.40908
#
# Velocity S-wave (km/s) = 3.58307 3.95929 3.77587
# Velocity P-wave (km/s) = 6.20118 6.82714 6.52167
#
# Compressibility (1/GPa) = 0.01941932
#
# Stress axis : x y z
#
# Youngs Moduli (GPa) = 175.40181 81.79179 90.12539
#
# Poissons Ratio (x) = 0.25875 0.03484
# Poissons Ratio (y) = 0.55488 0.11281
# Poissons Ratio (z) = 0.06781 0.10238
#
# Static dielectric constant tensor:
#      x y z
#    x 1.967330 0.000000 0.000000 
#    y 0.000000 1.941140 0.000000 
#    z 0.000000 0.000000 2.096560 
# 
# From -- ./inp_files/8928.got.cif
#   From: 2010.05.17/outbox.cif.g08.bks.cpg/sg40_5_cif.got.tgz:8928.got - 2010.06.03 18:35:42.
