data_PCOD9364619
_publ_section_title
;
Structure prediction by ZEFSAII (Michael W. Deem and Ramdas Pophale) SiO2 
 PCOD9364619
Probable space group: A M A 2
;
_chemical_formula_sum "Si O2"
_cell_formula_units_Z 40
_cell_length_a 16.533612
_cell_length_b 13.476649
_cell_length_c 9.081352
_cell_angle_alpha 90.000000
_cell_angle_beta 90.000000
_cell_angle_gamma 90.000000
_cell_volume 2023.485835
_symmetry_space_group_name_H-M "A M A 2"
_symmetry_group_IT_number 40
_symmetry_cell_setting 'orthorhombic'
loop_
_space_group_symop_operation_xyz
x,y,z
-x,-y,z
1/2-x,y,z
1/2+x,-y,z
x,1/2+y,1/2+z
-x,1/2-y,1/2+z
1/2-x,1/2+y,1/2+z
1/2+x,1/2-y,1/2+z
loop_
_atom_site_type_symbol
_atom_site_label
_atom_site_fract_x
_atom_site_fract_y
_atom_site_fract_z
Si Si1 0.750000 0.273525 0.478091
Si Si2 0.250000 0.029043 0.161129
Si Si3 0.086521 0.023068 0.649489
Si Si4 0.122924 0.243474 0.722228
Si Si5 0.750000 0.095343 0.696796
Si Si6 0.750000 0.666451 0.500397
Si Si7 0.417624 0.956122 0.309549
O O1 0.750000 0.359995 0.599134
O O2 0.824665 0.283643 0.366350
O O3 0.750000 0.163186 0.549205
O O4 0.250000 0.951404 0.026858
O O5 0.332555 0.000035 0.248055
O O6 0.168980 0.971786 0.707650
O O7 0.083374 0.983016 0.482083
O O8 0.088980 0.141555 0.660807
O O9 0.000000 0.000000 0.723646
O O10 0.175595 0.286751 0.587560
O O11 0.074500 0.338967 0.778142
O O12 0.750000 0.176264 0.827225
O O13 0.500000 0.000000 0.242958
#
# Coordination Sequence:
#
# PCOD9364619 Si02
#       7
#     4   4   8   8   4   4   8
#     4  11  22  37  68  95 129 174 219 265 334 380
#     4  10  21  38  63  94 128 167 218 269 317 392
#     4  11  24  42  67  96 130 175 216 270 329 395
#     4  10  21  44  64  90 132 174 212 273 327 387
#     4  12  22  41  64  99 132 165 225 272 316 404
#     4   9  21  38  65  96 121 172 218 260 335 382
#     4  10  22  42  64  96 131 171 214 271 327 393
#
# _framework density 19.767866999999999
#
# number of rings (size 3 to 8) (size 9 to 14) (size 15 to 20)
#    0.000    1.600    2.000    3.600    2.800    1.600 
#    3.600    7.000    0.000    0.000    0.000    0.000 
#    0.000    0.000    0.000    0.000    0.000    0.000 
#
# Total GULP energy -111405.768066 kJ/mol
# GULP energy per Si atom -5570.288403 kJ/mol
# Density = 1.972287 g / cm^3
# Si number density = 19.767867 Si / 1000 Ang^3
#
#
#
# Elastic Constant Matrix: (Units=GPa)
#
#
# Indices 1 2 3 4 5 6 
#
# 1 115.2892 42.1724 12.6508 0.0000 0.0000 0.0000
# 2 42.1724 159.3127 15.4367 0.0000 0.0000 0.0000
# 3 12.6508 15.4367 63.7134 0.0000 0.0000 0.0000
# 4 0.0000 0.0000 0.0000 22.5450 0.0000 0.0000
# 5 0.0000 0.0000 0.0000 0.0000 -19.5284 0.0000
# 6 0.0000 0.0000 0.0000 0.0000 0.0000 -69.8076
#
#
#
# Elastic Compliance Matrix: (Units=1/GPa)
#
#
# Indices 1 2 3 4 5 6 
#
# 1 0.009714 -0.002442 -0.001337 0.000000 0.000000 0.000000
# 2 -0.002442 0.007042 -0.001221 0.000000 0.000000 0.000000
# 3 -0.001337 -0.001221 0.016257 0.000000 0.000000 0.000000
# 4 0.000000 0.000000 0.000000 0.044356 0.000000 0.000000
# 5 0.000000 0.000000 0.000000 0.000000 -0.051208 0.000000
# 6 0.000000 0.000000 0.000000 0.000000 0.000000 -0.014325
#
#
# Mechanical properties :
#
#
# Convention : Reuss Voigt Hill
#
# Bulk Modulus (GPa) = 43.45609 53.20391 48.33000
# Shear Modulus (GPa) = 169.45536 4.51215 86.98376
#
# Velocity S-wave (km/s) = 9.26870 1.51246 6.64064
# Velocity P-wave (km/s) = 11.68657 5.47931 9.12685
#
# Compressibility (1/GPa) = 0.02301173
#
# Stress axis : x y z
#
# Youngs Moduli (GPa) = 102.94660 142.01152 61.51322
#
# Poissons Ratio (x) = 0.34677 0.08225
# Poissons Ratio (y) = 0.25138 0.07512
# Poissons Ratio (z) = 0.13765 0.17343
#
# Static dielectric constant tensor:
#      x y z
#    x 1.758590 0.000000 0.000000 
#    y 0.000000 1.703470 0.000000 
#    z 0.000000 0.000000 1.690750 
# 
# From -- ./inp_files/6191.got.cif
#   From: 2010.05.17/outbox.cif.g08.bks.cpg/sg40_4_cif.got.tgz:6191.got - 2010.06.03 18:35:42.
