data_PCOD9364618
_publ_section_title
;
Structure prediction by ZEFSAII (Michael W. Deem and Ramdas Pophale) SiO2 
 PCOD9364618
Probable space group: A M A 2
;
_chemical_formula_sum "Si O2"
_cell_formula_units_Z 40
_cell_length_a 8.663181
_cell_length_b 17.669432
_cell_length_c 12.819729
_cell_angle_alpha 90.000000
_cell_angle_beta 90.000000
_cell_angle_gamma 90.000000
_cell_volume 1962.360628
_symmetry_space_group_name_H-M "A M A 2"
_symmetry_group_IT_number 40
_symmetry_cell_setting 'orthorhombic'
loop_
_space_group_symop_operation_xyz
x,y,z
-x,-y,z
1/2-x,y,z
1/2+x,-y,z
x,1/2+y,1/2+z
-x,1/2-y,1/2+z
1/2-x,1/2+y,1/2+z
1/2+x,1/2-y,1/2+z
loop_
_atom_site_type_symbol
_atom_site_label
_atom_site_fract_x
_atom_site_fract_y
_atom_site_fract_z
Si Si1 0.432737 0.916778 0.540410
Si Si2 0.935007 0.587112 0.438739
Si Si3 0.425840 0.080872 0.340086
Si Si4 0.932102 0.831894 0.732870
Si Si5 0.426734 0.679863 0.634084
O O1 0.250000 0.914930 0.556968
O O2 0.478335 0.877057 0.431157
O O3 0.523670 0.887932 0.639593
O O4 0.500000 0.000000 0.522668
O O5 0.750000 0.582034 0.441197
O O6 0.000000 0.500000 0.437745
O O7 0.987162 0.634697 0.336415
O O8 0.994226 0.635668 0.538302
O O9 0.250000 0.071760 0.377989
O O10 0.422628 0.124233 0.232286
O O11 0.500000 0.000000 0.316903
O O12 0.750000 0.828658 0.751851
O O13 0.990476 0.753068 0.683082
O O14 0.250000 0.700175 0.604318
#
# Coordination Sequence:
#
# PCOD9364618 Si02
#       5
#     8   8   8   8   8
#     4  11  22  39  64  93 128 167 215 266 325 392
#     4  12  26  47  73 102 138 182 233 284 342 411
#     4  10  21  38  63  93 128 166 213 263 321 389
#     4  12  26  44  67  96 134 176 223 277 339 400
#     4  11  25  44  67  98 135 175 223 276 337 402
#
# _framework density 20.383613
#
# number of rings (size 3 to 8) (size 9 to 14) (size 15 to 20)
#    0.000    0.800    0.000    9.000    2.800    4.800 
#    0.000    0.000    0.000    0.000    0.000    0.000 
#    0.000    0.000    0.000    0.000    0.000    0.000 
#
# Total GULP energy -111690.929803 kJ/mol
# GULP energy per Si atom -5584.546490 kJ/mol
# Density = 2.033722 g / cm^3
# Si number density = 20.383613 Si / 1000 Ang^3
#
#
#
# Elastic Constant Matrix: (Units=GPa)
#
#
# Indices 1 2 3 4 5 6 
#
# 1 178.2261 53.5268 49.6398 0.0000 0.0000 0.0000
# 2 53.5268 90.3914 54.1367 0.0000 0.0000 0.0000
# 3 49.6398 54.1367 149.4708 0.0000 0.0000 0.0000
# 4 0.0000 0.0000 0.0000 28.6226 0.0000 0.0000
# 5 0.0000 0.0000 0.0000 0.0000 39.6782 0.0000
# 6 0.0000 0.0000 0.0000 0.0000 0.0000 29.6056
#
#
#
# Elastic Compliance Matrix: (Units=1/GPa)
#
#
# Indices 1 2 3 4 5 6 
#
# 1 0.006950 -0.003490 -0.001044 0.000000 0.000000 0.000000
# 2 -0.003490 0.015880 -0.004593 0.000000 0.000000 0.000000
# 3 -0.001044 -0.004593 0.008700 0.000000 0.000000 0.000000
# 4 0.000000 0.000000 0.000000 0.034937 0.000000 0.000000
# 5 0.000000 0.000000 0.000000 0.000000 0.025203 0.000000
# 6 0.000000 0.000000 0.000000 0.000000 0.000000 0.033777
#
#
# Mechanical properties :
#
#
# Convention : Reuss Voigt Hill
#
# Bulk Modulus (GPa) = 75.31797 81.41055 78.36426
# Shear Modulus (GPa) = 33.75475 36.96694 35.36085
#
# Velocity S-wave (km/s) = 4.07378 4.26321 4.16957
# Velocity P-wave (km/s) = 7.69143 8.01619 7.85549
#
# Compressibility (1/GPa) = 0.01327704
#
# Stress axis : x y z
#
# Youngs Moduli (GPa) = 143.88830 62.97088 114.93794
#
# Poissons Ratio (x) = 0.21978 0.11999
# Poissons Ratio (y) = 0.50220 0.52786
# Poissons Ratio (z) = 0.15021 0.28920
#
# Static dielectric constant tensor:
#      x y z
#    x 1.734330 0.000000 0.000000 
#    y 0.000000 2.273900 0.000000 
#    z 0.000000 0.000000 1.776620 
# 
# From -- ./inp_files/10017.got.cif
#   From: 2010.05.17/outbox.cif.g08.bks.cpg/sg40_6_cif.got.tgz:10017.got - 2010.06.03 18:35:42.
