data_PCOD9364476
_publ_section_title
;
Structure prediction by ZEFSAII (Michael W. Deem and Ramdas Pophale) SiO2 
 PCOD9364476
Probable space group: A M A 2
;
_chemical_formula_sum "Si O2"
_cell_formula_units_Z 64
_cell_length_a 14.152539
_cell_length_b 27.511961
_cell_length_c 7.275788
_cell_angle_alpha 90.000000
_cell_angle_beta 90.000000
_cell_angle_gamma 90.000000
_cell_volume 2832.930654
_symmetry_space_group_name_H-M "A M A 2"
_symmetry_group_IT_number 40
_symmetry_cell_setting 'orthorhombic'
loop_
_space_group_symop_operation_xyz
x,y,z
-x,-y,z
1/2-x,y,z
1/2+x,-y,z
x,1/2+y,1/2+z
-x,1/2-y,1/2+z
1/2-x,1/2+y,1/2+z
1/2+x,1/2-y,1/2+z
loop_
_atom_site_type_symbol
_atom_site_label
_atom_site_fract_x
_atom_site_fract_y
_atom_site_fract_z
Si Si1 0.055968 0.338112 0.000000
Si Si2 0.644465 0.259734 0.495966
Si Si3 0.356753 0.092634 0.043417
Si Si4 0.639562 0.996365 0.272211
Si Si5 0.647812 0.319132 0.838303
Si Si6 0.498323 0.156901 0.897213
Si Si7 0.858982 0.587960 0.503471
Si Si8 0.636275 0.061750 0.580413
O O1 0.122096 0.294624 0.932640
O O2 0.089496 0.392981 0.973214
O O3 0.947713 0.326855 0.948766
O O4 0.059699 0.334371 0.219897
O O5 0.750000 0.274502 0.433701
O O6 0.644242 0.270223 0.715799
O O7 0.560040 0.294646 0.433036
O O8 0.250000 0.080619 0.982467
O O9 0.351685 0.137250 0.187920
O O10 0.402179 0.048031 0.155469
O O11 0.420041 0.113974 0.880295
O O12 0.750000 0.982079 0.293755
O O13 0.606700 0.012711 0.473885
O O14 0.634591 0.043845 0.144969
O O15 0.750000 0.320827 0.936248
O O16 0.570138 0.132745 0.043123
O O17 0.750000 0.604593 0.499985
O O18 0.881926 0.566471 0.298520
O O19 0.750000 0.065751 0.558574
#
# Coordination Sequence:
#
# PCOD9364476 Si02
#       8
#     8   8   8   8   8   8   8   8
#     4  11  21  36  57  86 115 152 194 248 301 356
#     4  10  21  39  61  82 112 156 197 240 303 367
#     4   9  19  38  59  80 112 157 198 238 297 354
#     4   9  18  35  60  85 113 160 204 240 297 354
#     4   9  20  37  56  80 113 149 191 240 291 351
#     4  10  21  36  57  84 117 153 194 247 302 359
#     4   9  19  36  56  84 121 157 198 248 294 350
#     4   9  19  35  56  85 118 150 196 249 297 352
#
# _framework density 22.591446999999999
#
# number of rings (size 3 to 8) (size 9 to 14) (size 15 to 20)
#    0.000    2.500    0.000    2.250    3.500    2.000 
#    2.250    0.625    0.000    0.000    0.000    0.000 
#    0.000    0.000    0.000    0.000    0.000    0.000 
#
# Total GULP energy -178365.169921 kJ/mol
# GULP energy per Si atom -5573.911560 kJ/mol
# Density = 2.254003 g / cm^3
# Si number density = 22.591447 Si / 1000 Ang^3
#
#
#
# Elastic Constant Matrix: (Units=GPa)
#
#
# Indices 1 2 3 4 5 6 
#
# 1 74.6984 3.7322 -9.0363 0.0000 0.0000 0.0000
# 2 3.7322 61.1930 -0.6215 0.0000 0.0000 0.0000
# 3 -9.0363 -0.6215 25.4214 0.0000 0.0000 0.0000
# 4 0.0000 0.0000 0.0000 20.2166 0.0000 0.0000
# 5 0.0000 0.0000 0.0000 0.0000 25.2643 0.0000
# 6 0.0000 0.0000 0.0000 0.0000 0.0000 24.2492
#
#
#
# Elastic Compliance Matrix: (Units=1/GPa)
#
#
# Indices 1 2 3 4 5 6 
#
# 1 0.014028 -0.000805 0.004967 0.000000 0.000000 0.000000
# 2 -0.000805 0.016392 0.000115 0.000000 0.000000 0.000000
# 3 0.004967 0.000115 0.041105 0.000000 0.000000 0.000000
# 4 0.000000 0.000000 0.000000 0.049464 0.000000 0.000000
# 5 0.000000 0.000000 0.000000 0.000000 0.039581 0.000000
# 6 0.000000 0.000000 0.000000 0.000000 0.000000 0.041239
#
#
# Mechanical properties :
#
#
# Convention : Reuss Voigt Hill
#
# Bulk Modulus (GPa) = 12.48786 16.60687 14.54736
# Shear Modulus (GPa) = 22.73245 25.09525 23.91385
#
# Velocity S-wave (km/s) = 3.17557 3.33653 3.25704
# Velocity P-wave (km/s) = 4.35722 4.71276 4.53847
#
# Compressibility (1/GPa) = 0.08007777
#
# Stress axis : x y z
#
# Youngs Moduli (GPa) = 71.28488 61.00531 24.32782
#
# Poissons Ratio (x) = 0.04912 -0.12083
# Poissons Ratio (y) = 0.05740 -0.00279
# Poissons Ratio (z) = -0.35406 -0.00699
#
# Static dielectric constant tensor:
#      x y z
#    x 1.884860 0.000000 0.000000 
#    y 0.000000 1.855950 0.000000 
#    z 0.000000 0.000000 1.875090 
# 
# From -- ./inp_files/6909.got.cif
#   From: 2010.05.17/outbox.cif.g08.bks.cpg/sg40_4_cif.got.tgz:6909.got - 2010.06.03 18:35:42.
