data_PCOD9364834
_publ_section_title
;
Structure prediction by ZEFSAII (Michael W. Deem and Ramdas Pophale) SiO2 
 PCOD9364834
Probable space group: A M A 2
;
_chemical_formula_sum "Si O2"
_cell_formula_units_Z 60
_cell_length_a 24.072001
_cell_length_b 18.198399
_cell_length_c 6.860948
_cell_angle_alpha 90.000000
_cell_angle_beta 90.000000
_cell_angle_gamma 90.000000
_cell_volume 3005.588382
_symmetry_space_group_name_H-M "A M A 2"
_symmetry_group_IT_number 40
_symmetry_cell_setting 'orthorhombic'
loop_
_space_group_symop_operation_xyz
x,y,z
-x,-y,z
1/2-x,y,z
1/2+x,-y,z
x,1/2+y,1/2+z
-x,1/2-y,1/2+z
1/2-x,1/2+y,1/2+z
1/2+x,1/2-y,1/2+z
loop_
_atom_site_type_symbol
_atom_site_label
_atom_site_fract_x
_atom_site_fract_y
_atom_site_fract_z
Si Si1 0.054702 0.186072 0.083600
Si Si2 0.930733 0.206324 0.241621
Si Si3 0.125778 0.445305 0.643926
Si Si4 0.139647 0.227061 0.393411
Si Si5 0.750000 0.863873 0.506199
Si Si6 0.186058 0.880260 0.797310
Si Si7 0.556916 0.961099 0.832265
Si Si8 0.847506 0.482000 0.038966
O O1 0.102047 0.178576 0.248210
O O2 0.049205 0.115839 0.942640
O O3 0.994888 0.201151 0.178021
O O4 0.071196 0.254542 0.948549
O O5 0.904755 0.125031 0.236304
O O6 0.895697 0.254763 0.087117
O O7 0.176207 0.415591 0.511459
O O8 0.085567 0.485344 0.490754
O O9 0.143752 0.500507 0.812404
O O10 0.199617 0.193076 0.440508
O O11 0.150061 0.306565 0.294660
O O12 0.798446 0.924335 0.566156
O O13 0.250000 0.862494 0.765936
O O14 0.167539 0.940954 0.642256
O O15 0.500000 0.000000 0.771710
O O16 0.597622 0.953530 0.648582
#
# Coordination Sequence:
#
# PCOD9364834 Si02
#       8
#     8   8   8   8   4   8   8   8
#     4  12  23  42  67 101 135 176 225 279 346 406
#     4  11  23  41  70  97 132 173 226 280 340 408
#     4  10  23  42  64  96 126 173 222 272 340 398
#     4  11  24  44  65  98 137 174 221 284 338 410
#     4  12  24  44  66  94 136 178 222 274 342 410
#     4  10  21  42  68  88 126 168 218 274 329 398
#     4  11  24  43  66  98 136 175 222 282 343 407
#     4  11  24  43  67  96 130 174 226 276 337 406
#
# _framework density 19.962813000000001
#
# number of rings (size 3 to 8) (size 9 to 14) (size 15 to 20)
#    0.000    1.067    4.000    2.400    0.933    1.600 
#    2.400    4.000    0.000    0.000    0.000    0.000 
#    0.000    0.000    0.000    0.000    0.000    0.000 
#
# Total GULP energy -167151.803478 kJ/mol
# GULP energy per Si atom -5571.726783 kJ/mol
# Density = 1.991738 g / cm^3
# Si number density = 19.962813 Si / 1000 Ang^3
#
#
#
# Elastic Constant Matrix: (Units=GPa)
#
#
# Indices 1 2 3 4 5 6 
#
# 1 143.8664 15.9901 31.4703 0.0000 0.0000 0.0000
# 2 15.9901 72.2656 12.5955 0.0000 0.0000 0.0000
# 3 31.4703 12.5955 39.4648 0.0000 0.0000 0.0000
# 4 0.0000 0.0000 0.0000 20.9873 0.0000 0.0000
# 5 0.0000 0.0000 0.0000 0.0000 29.2201 0.0000
# 6 0.0000 0.0000 0.0000 0.0000 0.0000 22.2340
#
#
#
# Elastic Compliance Matrix: (Units=1/GPa)
#
#
# Indices 1 2 3 4 5 6 
#
# 1 0.008456 -0.000737 -0.006508 0.000000 0.000000 0.000000
# 2 -0.000737 0.014717 -0.004110 0.000000 0.000000 0.000000
# 3 -0.006508 -0.004110 0.031840 0.000000 0.000000 0.000000
# 4 0.000000 0.000000 0.000000 0.047648 0.000000 0.000000
# 5 0.000000 0.000000 0.000000 0.000000 0.034223 0.000000
# 6 0.000000 0.000000 0.000000 0.000000 0.000000 0.044976
#
#
# Mechanical properties :
#
#
# Convention : Reuss Voigt Hill
#
# Bulk Modulus (GPa) = 30.95506 41.74540 36.35023
# Shear Modulus (GPa) = 23.21924 27.52433 25.37179
#
# Velocity S-wave (km/s) = 3.41416 3.71722 3.56891
# Velocity P-wave (km/s) = 5.57513 6.27540 5.93560
#
# Compressibility (1/GPa) = 0.03230489
#
# Stress axis : x y z
#
# Youngs Moduli (GPa) = 118.25303 67.94800 31.40656
#
# Poissons Ratio (x) = 0.05006 0.20440
# Poissons Ratio (y) = 0.08713 0.12907
# Poissons Ratio (z) = 0.76962 0.27924
#
# Static dielectric constant tensor:
#      x y z
#    x 1.637420 0.000000 0.000000 
#    y 0.000000 1.721450 0.000000 
#    z 0.000000 0.000000 1.688870 
# 
# From -- ./inp_files/2836.got.cif
#   From: 2010.05.17/outbox.cif.g08.bks.cpg/sg40_2_cif.got.tgz:2836.got - 2010.06.03 18:35:42.
