data_PCOD9364271
_publ_section_title
;
Structure prediction by ZEFSAII (Michael W. Deem and Ramdas Pophale) SiO2 
 PCOD9364271
Probable space group: A M A 2
;
_chemical_formula_sum "Si O2"
_cell_formula_units_Z 44
_cell_length_a 17.077908
_cell_length_b 8.276689
_cell_length_c 13.053191
_cell_angle_alpha 90.000000
_cell_angle_beta 90.000000
_cell_angle_gamma 90.000000
_cell_volume 1845.049403
_symmetry_space_group_name_H-M "A M A 2"
_symmetry_group_IT_number 40
_symmetry_cell_setting 'orthorhombic'
loop_
_space_group_symop_operation_xyz
x,y,z
-x,-y,z
1/2-x,y,z
1/2+x,-y,z
x,1/2+y,1/2+z
-x,1/2-y,1/2+z
1/2-x,1/2+y,1/2+z
1/2+x,1/2-y,1/2+z
loop_
_atom_site_type_symbol
_atom_site_label
_atom_site_fract_x
_atom_site_fract_y
_atom_site_fract_z
Si Si1 0.250000 0.057388 0.722960
Si Si2 0.611409 0.687286 0.190602
Si Si3 0.750000 0.009945 0.941964
Si Si4 0.250000 0.118851 0.478165
Si Si5 0.588252 0.076957 0.462855
Si Si6 0.039816 0.320879 0.756967
Si Si7 0.665362 0.032200 0.141918
O O1 0.328102 0.946545 0.724444
O O2 0.250000 0.106850 0.844420
O O3 0.250000 0.795549 0.925778
O O4 0.528062 0.692174 0.245608
O O5 0.646687 0.866501 0.199696
O O6 0.596629 0.662936 0.070727
O O7 0.750000 0.877400 0.604216
O O8 0.677829 0.991099 0.022441
O O9 0.333259 0.033303 0.451716
O O10 0.584553 0.189147 0.363168
O O11 0.500000 0.000000 0.465460
O O12 0.101838 0.331497 0.664975
O O13 0.000000 0.500000 0.752275
O O14 0.750000 0.085028 0.182499
#
# Coordination Sequence:
#
# PCOD9364271 Si02
#       7
#     4   8   4   4   8   8   8
#     4  10  21  39  59  89 117 168 196 248 318 370
#     4  10  20  39  61  80 126 149 201 256 300 368
#     4  10  23  36  65  80 127 159 202 254 312 374
#     4  10  24  39  60  91 126 161 206 258 310 386
#     4  10  23  38  61  92 120 158 206 254 314 369
#     4   9  20  35  58  87 109 150 204 246 295 367
#     4   9  20  37  55  88 109 153 202 240 297 360
#
# _framework density 23.847598999999999
#
# number of rings (size 3 to 8) (size 9 to 14) (size 15 to 20)
#    0.545    1.818    0.909    0.000   11.455    0.000 
#    3.273    0.000    0.000    1.091    0.000    0.000 
#    0.000    0.000    0.000    0.000    0.000    0.000 
#
# Total GULP energy -122638.423421 kJ/mol
# GULP energy per Si atom -5574.473792 kJ/mol
# Density = 2.379332 g / cm^3
# Si number density = 23.847599 Si / 1000 Ang^3
#
#
#
# Elastic Constant Matrix: (Units=GPa)
#
#
# Indices 1 2 3 4 5 6 
#
# 1 141.9537 26.9688 24.2211 0.0000 0.0000 0.0000
# 2 26.9688 30.0966 -7.5551 0.0000 0.0000 0.0000
# 3 24.2211 -7.5551 120.7910 0.0000 0.0000 0.0000
# 4 0.0000 0.0000 0.0000 22.4441 0.0000 0.0000
# 5 0.0000 0.0000 0.0000 0.0000 -20.6076 0.0000
# 6 0.0000 0.0000 0.0000 0.0000 0.0000 16.0441
#
#
#
# Elastic Compliance Matrix: (Units=1/GPa)
#
#
# Indices 1 2 3 4 5 6 
#
# 1 0.009115 -0.008764 -0.002376 0.000000 0.000000 0.000000
# 2 -0.008764 0.042183 0.004396 0.000000 0.000000 0.000000
# 3 -0.002376 0.004396 0.009030 0.000000 0.000000 0.000000
# 4 0.000000 0.000000 0.000000 0.044555 0.000000 0.000000
# 5 0.000000 0.000000 0.000000 0.000000 -0.048526 0.000000
# 6 0.000000 0.000000 0.000000 0.000000 0.000000 0.062328
#
#
# Mechanical properties :
#
#
# Convention : Reuss Voigt Hill
#
# Bulk Modulus (GPa) = 21.34938 42.23454 31.79196
# Shear Modulus (GPa) = 33.83235 20.18989 27.01112
#
# Velocity S-wave (km/s) = 3.77064 2.91283 3.36915
# Velocity P-wave (km/s) = 5.28477 5.39086 5.33808
#
# Compressibility (1/GPa) = 0.04683977
#
# Stress axis : x y z
#
# Youngs Moduli (GPa) = 109.70959 23.70617 110.74051
#
# Poissons Ratio (x) = 0.20776 0.26311
# Poissons Ratio (y) = 0.96151 -0.48679
# Poissons Ratio (z) = 0.26066 -0.10421
#
# Static dielectric constant tensor:
#      x y z
#    x 1.991630 0.000000 0.000000 
#    y 0.000000 1.963810 0.000000 
#    z 0.000000 0.000000 1.926880 
# 
# From -- ./inp_files/12848.got.cif
#   From: 2010.05.17/outbox.cif.g08.bks.cpg/sg40_7_cif.got.tgz:12848.got - 2010.06.03 18:35:42.
