data_PCOD9364219
_publ_section_title
;
Structure prediction by ZEFSAII (Michael W. Deem and Ramdas Pophale) SiO2 
 PCOD9364219
Probable space group: A M A 2
;
_chemical_formula_sum "Si O2"
_cell_formula_units_Z 36
_cell_length_a 7.807406
_cell_length_b 20.408339
_cell_length_c 9.739995
_cell_angle_alpha 90.000000
_cell_angle_beta 90.000000
_cell_angle_gamma 90.000000
_cell_volume 1551.933678
_symmetry_space_group_name_H-M "A M A 2"
_symmetry_group_IT_number 40
_symmetry_cell_setting 'orthorhombic'
loop_
_space_group_symop_operation_xyz
x,y,z
-x,-y,z
1/2-x,y,z
1/2+x,-y,z
x,1/2+y,1/2+z
-x,1/2-y,1/2+z
1/2-x,1/2+y,1/2+z
1/2+x,1/2-y,1/2+z
loop_
_atom_site_type_symbol
_atom_site_label
_atom_site_fract_x
_atom_site_fract_y
_atom_site_fract_z
Si Si1 0.555342 0.105312 0.336780
Si Si2 0.041093 0.606672 0.441814
Si Si3 0.045926 0.221068 0.147347
Si Si4 0.000000 0.000000 0.146475
Si Si5 0.947940 0.870562 0.636457
O O1 0.750000 0.086948 0.299350
O O2 0.516167 0.176897 0.275106
O O3 0.537939 0.105012 0.499355
O O4 0.435459 0.053814 0.257464
O O5 0.250000 0.595069 0.452595
O O6 0.010466 0.677233 0.512036
O O7 0.943114 0.553909 0.533877
O O8 0.988690 0.604724 0.283832
O O9 0.250000 0.229939 0.157516
O O10 0.961925 0.291751 0.141070
O O11 0.750000 0.889307 0.624647
#
# Coordination Sequence:
#
# PCOD9364219 Si02
#       5
#     8   8   8   4   8
#     4  11  23  39  61  88 121 160 202 248 301 363
#     4   9  20  38  59  83 113 151 193 242 294 348
#     4  10  20  38  63  90 122 156 195 242 298 363
#     4  10  22  42  62  80 110 158 208 252 300 358
#     4  11  22  37  60  91 124 155 194 246 304 362
#
# _framework density 23.196867999999998
#
# number of rings (size 3 to 8) (size 9 to 14) (size 15 to 20)
#    0.000    1.778    0.000    4.000    0.000    5.333 
#    0.000   14.444    0.000    0.000    0.000    0.000 
#    0.000    0.000    0.000    0.000    0.000    0.000 
#
# Total GULP energy -100389.423434 kJ/mol
# GULP energy per Si atom -5577.190191 kJ/mol
# Density = 2.314407 g / cm^3
# Si number density = 23.196868 Si / 1000 Ang^3
#
#
#
# Elastic Constant Matrix: (Units=GPa)
#
#
# Indices 1 2 3 4 5 6 
#
# 1 75.0706 -0.2715 32.5942 0.0000 0.0000 0.0000
# 2 -0.2715 84.6462 46.7303 0.0000 0.0000 0.0000
# 3 32.5942 46.7303 231.8158 0.0000 0.0000 0.0000
# 4 0.0000 0.0000 0.0000 -1.6571 0.0000 0.0000
# 5 0.0000 0.0000 0.0000 0.0000 8.0466 0.0000
# 6 0.0000 0.0000 0.0000 0.0000 0.0000 -19.5105
#
#
#
# Elastic Compliance Matrix: (Units=1/GPa)
#
#
# Indices 1 2 3 4 5 6 
#
# 1 0.014313 0.001302 -0.002275 0.000000 0.000000 0.000000
# 2 0.001302 0.013412 -0.002887 0.000000 0.000000 0.000000
# 3 -0.002275 -0.002887 0.005216 0.000000 0.000000 0.000000
# 4 0.000000 0.000000 0.000000 -0.603463 0.000000 0.000000
# 5 0.000000 0.000000 0.000000 0.000000 0.124276 0.000000
# 6 0.000000 0.000000 0.000000 0.000000 0.000000 -0.051255
#
#
# Mechanical properties :
#
#
# Convention : Reuss Voigt Hill
#
# Bulk Modulus (GPa) = 39.64954 61.07094 50.36024
# Shear Modulus (GPa) = -10.38692 18.20778 3.91043
#
# Velocity S-wave (km/s) = -2.11836 2.80469 1.29978
# Velocity P-wave (km/s) = 3.33863 6.07229 4.89996
#
# Compressibility (1/GPa) = 0.02522098
#
# Stress axis : x y z
#
# Youngs Moduli (GPa) = 69.86545 74.56205 191.73525
#
# Poissons Ratio (x) = -0.09707 0.43618
# Poissons Ratio (y) = -0.09095 0.55346
# Poissons Ratio (z) = 0.15894 0.21523
#
# Static dielectric constant tensor:
#      x y z
#    x 1.978920 0.000000 0.000000 
#    y 0.000000 1.824690 0.000000 
#    z 0.000000 0.000000 1.840960 
# 
# From -- ./inp_files/4119.got.cif
#   From: 2010.05.17/outbox.cif.g08.bks.cpg/sg40_3_cif.got.tgz:4119.got - 2010.06.03 18:35:42.
