data_PCOD9364909
_publ_section_title
;
Structure prediction by ZEFSAII (Michael W. Deem and Ramdas Pophale) SiO2 
 PCOD9364909
Probable space group: A M A 2
;
_chemical_formula_sum "Si O2"
_cell_formula_units_Z 60
_cell_length_a 20.759856
_cell_length_b 26.079199
_cell_length_c 5.204390
_cell_angle_alpha 90.000000
_cell_angle_beta 90.000000
_cell_angle_gamma 90.000000
_cell_volume 2817.658910
_symmetry_space_group_name_H-M "A M A 2"
_symmetry_group_IT_number 40
_symmetry_cell_setting 'orthorhombic'
loop_
_space_group_symop_operation_xyz
x,y,z
-x,-y,z
1/2-x,y,z
1/2+x,-y,z
x,1/2+y,1/2+z
-x,1/2-y,1/2+z
1/2-x,1/2+y,1/2+z
1/2+x,1/2-y,1/2+z
loop_
_atom_site_type_symbol
_atom_site_label
_atom_site_fract_x
_atom_site_fract_y
_atom_site_fract_z
Si Si1 0.324074 0.225905 0.891660
Si Si2 0.673443 0.547748 0.738257
Si Si3 0.381590 0.900763 0.743127
Si Si4 0.981287 0.946096 0.873508
Si Si5 0.676156 0.205408 0.900895
Si Si6 0.250000 0.066458 0.851672
Si Si7 0.871861 0.877040 0.109108
Si Si8 0.131934 0.549008 0.001196
O O1 0.250000 0.207935 0.835955
O O2 0.344279 0.258913 0.641835
O O3 0.320862 0.261712 0.141496
O O4 0.368312 0.179026 0.986667
O O5 0.750000 0.543752 0.762656
O O6 0.656793 0.567090 0.456558
O O7 0.642036 0.492009 0.776656
O O8 0.644836 0.584913 0.960256
O O9 0.455482 0.917322 0.774202
O O10 0.368218 0.842649 0.831088
O O11 0.934414 0.961934 0.641090
O O12 0.936695 0.906920 0.031307
O O13 0.000000 0.000000 0.006260
O O14 0.750000 0.187573 0.960280
O O15 0.193264 0.039802 0.678205
O O16 0.193175 0.096885 0.007334
O O17 0.866923 0.891263 0.411717
#
# Coordination Sequence:
#
# PCOD9364909 Si02
#       8
#     8   8   8   8   8   4   8   8
#     4  10  22  40  70 102 137 172 223 294 361 405
#     4  12  25  41  71 101 138 181 234 296 352 404
#     4  12  26  46  69  99 140 187 239 288 342 424
#     4  11  25  45  64  96 139 194 231 272 338 428
#     4  10  22  42  68 100 135 173 227 293 358 410
#     4  10  22  38  62 100 138 172 230 290 356 396
#     4  11  24  39  68  99 139 180 235 282 353 418
#     4  11  24  38  65  98 144 179 234 281 349 422
#
# _framework density 21.294276
#
# number of rings (size 3 to 8) (size 9 to 14) (size 15 to 20)
#    0.000    1.067    2.667    3.200    7.467    1.600 
#    0.000    1.333    0.000    0.000    0.000    0.000 
#    0.000    0.000    0.000    0.000    0.000    0.000 
#
# Total GULP energy -167071.000574 kJ/mol
# GULP energy per Si atom -5569.033352 kJ/mol
# Density = 2.124581 g / cm^3
# Si number density = 21.294276 Si / 1000 Ang^3
#
#
#
# Elastic Constant Matrix: (Units=GPa)
#
#
# Indices 1 2 3 4 5 6 
#
# 1 149.2833 48.2683 20.6797 0.0000 0.0000 0.0000
# 2 48.2683 98.5153 19.1409 0.0000 0.0000 0.0000
# 3 20.6797 19.1409 72.8713 0.0000 0.0000 0.0000
# 4 0.0000 0.0000 0.0000 36.2961 0.0000 0.0000
# 5 0.0000 0.0000 0.0000 0.0000 20.4924 0.0000
# 6 0.0000 0.0000 0.0000 0.0000 0.0000 -15.1913
#
#
#
# Elastic Compliance Matrix: (Units=1/GPa)
#
#
# Indices 1 2 3 4 5 6 
#
# 1 0.008078 -0.003702 -0.001320 0.000000 0.000000 0.000000
# 2 -0.003702 0.012393 -0.002205 0.000000 0.000000 0.000000
# 3 -0.001320 -0.002205 0.014677 0.000000 0.000000 0.000000
# 4 0.000000 0.000000 0.000000 0.027551 0.000000 0.000000
# 5 0.000000 0.000000 0.000000 0.000000 0.048799 0.000000
# 6 0.000000 0.000000 0.000000 0.000000 0.000000 -0.065827
#
#
# Mechanical properties :
#
#
# Convention : Reuss Voigt Hill
#
# Bulk Modulus (GPa) = 48.32166 55.20529 51.76347
# Shear Modulus (GPa) = 74.60291 23.82483 49.21387
#
# Velocity S-wave (km/s) = 5.92540 3.34853 4.81264
# Velocity P-wave (km/s) = 8.33998 6.39777 7.43259
#
# Compressibility (1/GPa) = 0.02069465
#
# Stress axis : x y z
#
# Youngs Moduli (GPa) = 123.78688 80.69280 68.13566
#
# Poissons Ratio (x) = 0.29869 0.08996
# Poissons Ratio (y) = 0.45820 0.15022
# Poissons Ratio (z) = 0.16343 0.17790
#
# Static dielectric constant tensor:
#      x y z
#    x 1.737290 0.000000 0.000000 
#    y 0.000000 1.830940 0.000000 
#    z 0.000000 0.000000 1.898660 
# 
# From -- ./inp_files/1968.got.cif
#   From: 2010.05.17/outbox.cif.g08.bks.cpg/sg40_1_cif.got.tgz:1968.got - 2010.06.03 18:35:42.
