data_PCOD9364523
_publ_section_title
;
Structure prediction by ZEFSAII (Michael W. Deem and Ramdas Pophale) SiO2 
 PCOD9364523
Probable space group: A M A 2
;
_chemical_formula_sum "Si O2"
_cell_formula_units_Z 64
_cell_length_a 14.804825
_cell_length_b 10.293431
_cell_length_c 17.174480
_cell_angle_alpha 90.000000
_cell_angle_beta 90.000000
_cell_angle_gamma 90.000000
_cell_volume 2617.260992
_symmetry_space_group_name_H-M "A M A 2"
_symmetry_group_IT_number 40
_symmetry_cell_setting 'orthorhombic'
loop_
_space_group_symop_operation_xyz
x,y,z
-x,-y,z
1/2-x,y,z
1/2+x,-y,z
x,1/2+y,1/2+z
-x,1/2-y,1/2+z
1/2-x,1/2+y,1/2+z
1/2+x,1/2-y,1/2+z
loop_
_atom_site_type_symbol
_atom_site_label
_atom_site_fract_x
_atom_site_fract_y
_atom_site_fract_z
Si Si1 0.855888 0.150842 0.737650
Si Si2 0.397163 0.528972 0.551525
Si Si3 0.355886 0.396132 0.899382
Si Si4 0.020354 0.845008 0.259692
Si Si5 0.641675 0.547278 0.393196
Si Si6 0.647101 0.329671 0.948229
Si Si7 0.900881 0.243530 0.100101
Si Si8 0.390623 0.802124 0.571975
O O1 0.750000 0.184263 0.749461
O O2 0.878742 0.040894 0.801936
O O3 0.868767 0.113072 0.647525
O O4 0.925642 0.267760 0.754300
O O5 0.500000 0.500000 0.575997
O O6 0.397093 0.547727 0.458178
O O7 0.354551 0.392293 0.573650
O O8 0.355086 0.655940 0.588349
O O9 0.250000 0.391114 0.874656
O O10 0.421796 0.328550 0.838273
O O11 0.391588 0.544422 0.907177
O O12 0.359276 0.347253 0.988236
O O13 0.081956 0.779237 0.191149
O O14 0.000000 0.000000 0.247222
O O15 0.750000 0.536784 0.402039
O O16 0.609367 0.690865 0.421269
O O17 0.750000 0.325602 0.921787
O O18 0.647911 0.343633 0.042095
O O19 0.002533 0.275056 0.069639
#
# Coordination Sequence:
#
# PCOD9364523 Si02
#       8
#     8   8   8   8   8   8   8   8
#     4  10  21  38  60  86 117 156 208 259 307 370
#     4   9  18  33  58  84 117 150 193 247 304 362
#     4  11  25  40  59  90 128 170 211 252 314 390
#     4  11  23  37  62  91 125 160 205 266 324 366
#     4   9  18  33  56  84 109 144 195 249 301 353
#     4   9  19  36  58  85 120 162 205 248 303 374
#     4   9  19  37  59  90 117 154 205 259 314 367
#     4  10  21  37  60  86 122 163 202 251 312 377
#
# _framework density 24.453043999999998
#
# number of rings (size 3 to 8) (size 9 to 14) (size 15 to 20)
#    0.000    2.250    0.000    3.000    7.000    3.000 
#    0.000    3.750    0.000    0.000    0.000    0.000 
#    0.000    0.000    0.000    0.000    0.000    0.000 
#
# Total GULP energy -178409.091960 kJ/mol
# GULP energy per Si atom -5575.284124 kJ/mol
# Density = 2.439739 g / cm^3
# Si number density = 24.453044 Si / 1000 Ang^3
#
#
#
# Elastic Constant Matrix: (Units=GPa)
#
#
# Indices 1 2 3 4 5 6 
#
# 1 90.0361 -5.8534 26.3798 0.0000 0.0000 0.0000
# 2 -5.8534 12.5760 5.5030 0.0000 0.0000 0.0000
# 3 26.3798 5.5030 171.5293 0.0000 0.0000 0.0000
# 4 0.0000 0.0000 0.0000 33.5410 0.0000 0.0000
# 5 0.0000 0.0000 0.0000 0.0000 19.3843 0.0000
# 6 0.0000 0.0000 0.0000 0.0000 0.0000 9.7610
#
#
#
# Elastic Compliance Matrix: (Units=1/GPa)
#
#
# Indices 1 2 3 4 5 6 
#
# 1 0.012142 0.006561 -0.002078 0.000000 0.000000 0.000000
# 2 0.006561 0.084194 -0.003710 0.000000 0.000000 0.000000
# 3 -0.002078 -0.003710 0.006268 0.000000 0.000000 0.000000
# 4 0.000000 0.000000 0.000000 0.029814 0.000000 0.000000
# 5 0.000000 0.000000 0.000000 0.000000 0.051588 0.000000
# 6 0.000000 0.000000 0.000000 0.000000 0.000000 0.102449
#
#
# Mechanical properties :
#
#
# Convention : Reuss Voigt Hill
#
# Bulk Modulus (GPa) = 9.60159 36.24446 22.92303
# Shear Modulus (GPa) = 15.64326 29.07805 22.36065
#
# Velocity S-wave (km/s) = 2.53203 3.45213 3.02724
# Velocity P-wave (km/s) = 3.53317 5.54471 4.64904
#
# Compressibility (1/GPa) = 0.10414945
#
# Stress axis : x y z
#
# Youngs Moduli (GPa) = 82.35917 11.87738 159.52823
#
# Poissons Ratio (x) = -0.07792 0.33147
# Poissons Ratio (y) = -0.54032 0.59186
# Poissons Ratio (z) = 0.17113 0.04407
#
# Static dielectric constant tensor:
#      x y z
#    x 1.980660 0.000000 0.000000 
#    y 0.000000 2.010280 0.000000 
#    z 0.000000 0.000000 2.021000 
# 
# From -- ./inp_files/20789.got.cif
#   From: 2010.05.17/outbox.cif.g08.bks.cpg/sg40_11_cif.got.tgz:20789.got - 2010.06.03 18:35:42.
