data_PCOD9364513
_publ_section_title
;
Structure prediction by ZEFSAII (Michael W. Deem and Ramdas Pophale) SiO2 
 PCOD9364513
Probable space group: A M A 2
;
_chemical_formula_sum "Si O2"
_cell_formula_units_Z 56
_cell_length_a 25.025114
_cell_length_b 5.438081
_cell_length_c 18.648934
_cell_angle_alpha 90.000000
_cell_angle_beta 90.000000
_cell_angle_gamma 90.000000
_cell_volume 2537.907263
_symmetry_space_group_name_H-M "A M A 2"
_symmetry_group_IT_number 40
_symmetry_cell_setting 'orthorhombic'
loop_
_space_group_symop_operation_xyz
x,y,z
-x,-y,z
1/2-x,y,z
1/2+x,-y,z
x,1/2+y,1/2+z
-x,1/2-y,1/2+z
1/2-x,1/2+y,1/2+z
1/2+x,1/2-y,1/2+z
loop_
_atom_site_type_symbol
_atom_site_label
_atom_site_fract_x
_atom_site_fract_y
_atom_site_fract_z
Si Si1 0.473013 0.246493 0.783730
Si Si2 0.983801 0.746088 0.445164
Si Si3 0.250000 0.842957 0.307699
Si Si4 0.860538 0.083149 0.249625
Si Si5 0.364448 0.679671 0.896253
Si Si6 0.686725 0.576408 0.012130
Si Si7 0.750000 0.639694 0.387694
Si Si8 0.313769 0.423128 0.599582
O O1 0.500000 0.500000 0.757818
O O2 0.482208 0.248535 0.870157
O O3 0.411449 0.249779 0.763427
O O4 0.500000 0.000000 0.756144
O O5 0.921708 0.733667 0.423172
O O6 0.000000 0.500000 0.485544
O O7 0.000000 0.000000 0.482100
O O8 0.195596 0.788720 0.266973
O O9 0.250000 0.644853 0.369385
O O10 0.250000 0.130479 0.330483
O O11 0.851524 0.017587 0.167344
O O12 0.866996 0.873094 0.311169
O O13 0.310631 0.827996 0.916358
O O14 0.350151 0.434658 0.941493
O O15 0.750000 0.538214 0.995405
O O16 0.672607 0.341624 0.063569
O O17 0.681330 0.838386 0.049468
O O18 0.250000 0.411163 0.618922
#
# Coordination Sequence:
#
# PCOD9364513 Si02
#       8
#     8   8   4   8   8   8   4   8
#     4  10  21  37  58  92 126 166 207 270 326 382
#     4  10  21  37  58  92 126 166 207 270 326 382
#     4  10  24  34  54  96 132 156 201 278 333 368
#     4  11  22  42  68 100 131 170 227 279 327 397
#     4  11  22  42  68 100 131 170 227 279 327 397
#     4  10  23  43  63  93 138 181 213 259 336 409
#     4  10  24  34  54  96 132 156 201 278 333 368
#     4  10  23  43  63  93 138 181 213 259 336 409
#
# _framework density 22.065425999999999
#
# number of rings (size 3 to 8) (size 9 to 14) (size 15 to 20)
#    0.000    1.714    4.286    0.000    4.000    6.857 
#    0.000    0.000    0.000    3.429    0.000    0.000 
#    0.000    0.000    0.000    0.000    0.000    0.000 
#
# Total GULP energy -156128.121143 kJ/mol
# GULP energy per Si atom -5576.004327 kJ/mol
# Density = 2.201520 g / cm^3
# Si number density = 22.065426 Si / 1000 Ang^3
#
#
#
# Elastic Constant Matrix: (Units=GPa)
#
#
# Indices 1 2 3 4 5 6 
#
# 1 128.1675 41.4658 12.9617 0.0000 0.0000 0.0000
# 2 41.4658 147.4052 26.7278 0.0000 0.0000 0.0000
# 3 12.9617 26.7278 66.3322 0.0000 0.0000 0.0000
# 4 0.0000 0.0000 0.0000 -0.9655 0.0000 0.0000
# 5 0.0000 0.0000 0.0000 0.0000 -3.1034 0.0000
# 6 0.0000 0.0000 0.0000 0.0000 0.0000 22.8994
#
#
#
# Elastic Compliance Matrix: (Units=1/GPa)
#
#
# Indices 1 2 3 4 5 6 
#
# 1 0.008619 -0.002286 -0.000763 0.000000 0.000000 0.000000
# 2 -0.002286 0.007925 -0.002747 0.000000 0.000000 0.000000
# 3 -0.000763 -0.002747 0.016331 0.000000 0.000000 0.000000
# 4 0.000000 0.000000 0.000000 -1.035718 0.000000 0.000000
# 5 0.000000 0.000000 0.000000 0.000000 -0.322227 0.000000
# 6 0.000000 0.000000 0.000000 0.000000 0.000000 0.043669
#
#
# Mechanical properties :
#
#
# Convention : Reuss Voigt Hill
#
# Bulk Modulus (GPa) = 46.98363 56.02394 51.50378
# Shear Modulus (GPa) = -3.95973 21.14940 8.59484
#
# Velocity S-wave (km/s) = -1.34106 3.09930 1.97576
# Velocity P-wave (km/s) = 4.35215 6.18487 5.34761
#
# Compressibility (1/GPa) = 0.02128401
#
# Stress axis : x y z
#
# Youngs Moduli (GPa) = 116.02116 126.18020 61.23153
#
# Poissons Ratio (x) = 0.28848 0.04672
# Poissons Ratio (y) = 0.26525 0.16818
# Poissons Ratio (z) = 0.08852 0.34657
#
# Static dielectric constant tensor:
#      x y z
#    x 1.815420 0.000000 0.000000 
#    y 0.000000 1.896690 0.000000 
#    z 0.000000 0.000000 1.859860 
# 
# From -- ./inp_files/23652.got.cif
#   From: 2010.05.17/outbox.cif.g08.bks.cpg/sg40_12_cif.got.tgz:23652.got - 2010.06.03 18:35:42.
