data_PCOD9364193
_publ_section_title
;
Structure prediction by ZEFSAII (Michael W. Deem and Ramdas Pophale) SiO2 
 PCOD9364193
Probable space group: A M A 2
;
_chemical_formula_sum "Si O2"
_cell_formula_units_Z 60
_cell_length_a 14.417100
_cell_length_b 16.250088
_cell_length_c 11.823604
_cell_angle_alpha 90.000000
_cell_angle_beta 90.000000
_cell_angle_gamma 90.000000
_cell_volume 2770.023821
_symmetry_space_group_name_H-M "A M A 2"
_symmetry_group_IT_number 40
_symmetry_cell_setting 'orthorhombic'
loop_
_space_group_symop_operation_xyz
x,y,z
-x,-y,z
1/2-x,y,z
1/2+x,-y,z
x,1/2+y,1/2+z
-x,1/2-y,1/2+z
1/2-x,1/2+y,1/2+z
1/2+x,1/2-y,1/2+z
loop_
_atom_site_type_symbol
_atom_site_label
_atom_site_fract_x
_atom_site_fract_y
_atom_site_fract_z
Si Si1 0.109091 0.512096 0.446310
Si Si2 0.137283 0.459180 0.928578
Si Si3 0.039513 0.279974 0.545808
Si Si4 0.641899 0.699938 0.076593
Si Si5 0.250000 0.583369 0.300063
Si Si6 0.359560 0.927669 0.173056
Si Si7 0.147682 0.839904 0.838471
Si Si8 0.353510 0.612520 0.072751
O O1 0.167067 0.586273 0.395796
O O2 0.128028 0.497785 0.578654
O O3 0.151780 0.434894 0.376279
O O4 0.000000 0.500000 0.428844
O O5 0.250000 0.464124 0.932047
O O6 0.109839 0.453589 0.797831
O O7 0.114855 0.375352 0.994317
O O8 0.105551 0.540468 0.994843
O O9 0.083594 0.350482 0.624181
O O10 0.071487 0.299034 0.418115
O O11 0.083669 0.192577 0.578400
O O12 0.929966 0.272988 0.557955
O O13 0.750000 0.719753 0.057644
O O14 0.631865 0.669596 0.206004
O O15 0.329664 0.580087 0.197817
O O16 0.250000 0.905473 0.177224
O O17 0.250000 0.804500 0.864126
O O18 0.250000 0.636331 0.027515
#
# Coordination Sequence:
#
# PCOD9364193 Si02
#       8
#     8   8   8   8   4   8   8   8
#     4  11  21  37  63  91 123 170 215 258 312 386
#     4   9  19  39  64  92 122 166 210 258 319 389
#     4  11  22  38  66  97 125 167 220 261 324 385
#     4  10  23  40  62  89 126 170 211 266 324 381
#     4  10  20  38  60  94 136 154 212 280 314 356
#     4  10  21  42  69  91 127 171 212 257 325 402
#     4  10  21  40  65  88 127 171 210 257 323 399
#     4   9  20  36  62  97 130 157 207 274 320 367
#
# _framework density 21.660464000000001
#
# number of rings (size 3 to 8) (size 9 to 14) (size 15 to 20)
#    0.400    1.600    1.333    2.800    5.600    0.533 
#    2.400    0.000    8.800    1.600    0.000    0.000 
#    0.000    0.000    0.000    0.000    0.000    0.000 
#
# Total GULP energy -167026.309073 kJ/mol
# GULP energy per Si atom -5567.543636 kJ/mol
# Density = 2.161116 g / cm^3
# Si number density = 21.660464 Si / 1000 Ang^3
#
#
#
# Elastic Constant Matrix: (Units=GPa)
#
#
# Indices 1 2 3 4 5 6 
#
# 1 105.9894 22.0588 44.6523 0.0000 0.0000 0.0000
# 2 22.0588 38.6450 44.7008 0.0000 0.0000 0.0000
# 3 44.6523 44.7008 154.3243 0.0000 0.0000 0.0000
# 4 0.0000 0.0000 0.0000 10.5296 0.0000 0.0000
# 5 0.0000 0.0000 0.0000 0.0000 2.5089 0.0000
# 6 0.0000 0.0000 0.0000 0.0000 0.0000 27.5323
#
#
#
# Elastic Compliance Matrix: (Units=1/GPa)
#
#
# Indices 1 2 3 4 5 6 
#
# 1 0.011132 -0.003953 -0.002076 0.000000 0.000000 0.000000
# 2 -0.003953 0.040319 -0.010535 0.000000 0.000000 0.000000
# 3 -0.002076 -0.010535 0.010132 0.000000 0.000000 0.000000
# 4 0.000000 0.000000 0.000000 0.094970 0.000000 0.000000
# 5 0.000000 0.000000 0.000000 0.000000 0.398588 0.000000
# 6 0.000000 0.000000 0.000000 0.000000 0.000000 0.036321
#
#
# Mechanical properties :
#
#
# Convention : Reuss Voigt Hill
#
# Bulk Modulus (GPa) = 35.14287 57.97582 46.55935
# Shear Modulus (GPa) = 7.88550 20.61725 14.25138
#
# Velocity S-wave (km/s) = 1.91008 3.08853 2.56783
# Velocity P-wave (km/s) = 4.59611 6.28829 5.50757
#
# Compressibility (1/GPa) = 0.02845528
#
# Stress axis : x y z
#
# Youngs Moduli (GPa) = 89.82933 24.80248 98.69766
#
# Poissons Ratio (x) = 0.09805 0.20489
# Poissons Ratio (y) = 0.35510 1.03975
# Poissons Ratio (z) = 0.18648 0.26129
#
# Static dielectric constant tensor:
#      x y z
#    x 1.811000 0.000000 0.000000 
#    y 0.000000 1.827310 0.000000 
#    z 0.000000 0.000000 1.752860 
# 
# From -- ./inp_files/12406.got.cif
#   From: 2010.05.17/outbox.cif.g08.bks.cpg/sg40_7_cif.got.tgz:12406.got - 2010.06.03 18:35:42.
