data_PCOD9364470
_publ_section_title
;
Structure prediction by ZEFSAII (Michael W. Deem and Ramdas Pophale) SiO2 
 PCOD9364470
Probable space group: A M A 2
;
_chemical_formula_sum "Si O2"
_cell_formula_units_Z 56
_cell_length_a 17.453819
_cell_length_b 4.944067
_cell_length_c 31.558909
_cell_angle_alpha 90.000000
_cell_angle_beta 90.000000
_cell_angle_gamma 90.000000
_cell_volume 2723.308218
_symmetry_space_group_name_H-M "A M A 2"
_symmetry_group_IT_number 40
_symmetry_cell_setting 'orthorhombic'
loop_
_space_group_symop_operation_xyz
x,y,z
-x,-y,z
1/2-x,y,z
1/2+x,-y,z
x,1/2+y,1/2+z
-x,1/2-y,1/2+z
1/2-x,1/2+y,1/2+z
1/2+x,1/2-y,1/2+z
loop_
_atom_site_type_symbol
_atom_site_label
_atom_site_fract_x
_atom_site_fract_y
_atom_site_fract_z
Si Si1 0.659126 0.431917 0.838570
Si Si2 0.554688 0.245835 0.113736
Si Si3 0.162605 0.017856 0.983412
Si Si4 0.840132 0.938533 0.783215
Si Si5 0.835200 0.493736 0.043470
Si Si6 0.551679 0.740110 0.413490
Si Si7 0.054599 0.757560 0.208562
O O1 0.750000 0.389179 0.846769
O O2 0.647732 0.734890 0.822399
O O3 0.609670 0.362453 0.879257
O O4 0.636293 0.232585 0.799975
O O5 0.500000 0.500000 0.118958
O O6 0.617376 0.360452 0.081506
O O7 0.584330 0.172530 0.161009
O O8 0.500000 0.000000 0.098439
O O9 0.250000 0.094586 0.968161
O O10 0.134381 0.253225 0.015635
O O11 0.171251 0.748546 0.010549
O O12 0.101851 0.926274 0.948080
O O13 0.750000 0.946404 0.774088
O O14 0.882289 0.821674 0.742552
O O15 0.750000 0.576920 0.058386
O O16 0.500000 0.500000 0.394114
O O17 0.500000 0.000000 0.428514
O O18 0.000000 0.500000 0.205472
O O19 0.000000 0.000000 0.222891
#
# Coordination Sequence:
#
# PCOD9364470 Si02
#       7
#     8   8   8   8   8   8   8
#     4  10  22  40  59  82 116 156 194 238 297 353
#     4  10  21  37  57  85 120 156 192 237 298 357
#     4  10  22  41  61  83 116 153 189 238 300 355
#     4  10  21  37  59  85 113 152 200 243 288 345
#     4  10  21  38  62  87 111 149 198 241 288 352
#     4  12  25  39  59  89 118 149 196 245 292 352
#     4  10  21  36  56  83 118 157 193 236 294 352
#
# _framework density 20.563227000000001
#
# number of rings (size 3 to 8) (size 9 to 14) (size 15 to 20)
#    0.000    1.714    0.000    3.857    0.000    6.286 
#    0.000    5.714    0.000   10.286    0.000    0.000 
#    0.000    0.000    0.000    0.000    0.000    0.000 
#
# Total GULP energy -156182.044541 kJ/mol
# GULP energy per Si atom -5577.930162 kJ/mol
# Density = 2.051642 g / cm^3
# Si number density = 20.563227 Si / 1000 Ang^3
#
#
#
# Elastic Constant Matrix: (Units=GPa)
#
#
# Indices 1 2 3 4 5 6 
#
# 1 67.8825 16.6642 56.5294 0.0000 0.0000 0.0000
# 2 16.6642 102.7353 0.7593 0.0000 0.0000 0.0000
# 3 56.5294 0.7593 76.0217 0.0000 0.0000 0.0000
# 4 0.0000 0.0000 0.0000 25.4078 0.0000 0.0000
# 5 0.0000 0.0000 0.0000 0.0000 145.1667 0.0000
# 6 0.0000 0.0000 0.0000 0.0000 0.0000 20.5510
#
#
#
# Elastic Compliance Matrix: (Units=1/GPa)
#
#
# Indices 1 2 3 4 5 6 
#
# 1 0.042874 -0.006719 -0.031813 0.000000 0.000000 0.000000
# 2 -0.006719 0.010788 0.004889 0.000000 0.000000 0.000000
# 3 -0.031813 0.004889 0.036762 0.000000 0.000000 0.000000
# 4 0.000000 0.000000 0.000000 0.039358 0.000000 0.000000
# 5 0.000000 0.000000 0.000000 0.000000 0.006889 0.000000
# 6 0.000000 0.000000 0.000000 0.000000 0.000000 0.048659
#
#
# Mechanical properties :
#
#
# Convention : Reuss Voigt Hill
#
# Bulk Modulus (GPa) = 43.22526 43.83839 43.53183
# Shear Modulus (GPa) = 19.20652 49.73753 34.47202
#
# Velocity S-wave (km/s) = 3.05949 4.92343 4.09882
# Velocity P-wave (km/s) = 5.79197 7.32702 6.60425
#
# Compressibility (1/GPa) = 0.02313462
#
# Stress axis : x y z
#
# Youngs Moduli (GPa) = 23.32443 92.69986 27.20230
#
# Poissons Ratio (x) = 0.62287 0.86540
# Poissons Ratio (y) = 0.15672 -0.13298
# Poissons Ratio (z) = 0.74203 -0.45317
#
# Static dielectric constant tensor:
#      x y z
#    x 1.739210 0.000000 0.000000 
#    y 0.000000 1.707540 0.000000 
#    z 0.000000 0.000000 1.767930 
# 
# From -- ./inp_files/26605.got.cif
#   From: 2010.05.17/outbox.cif.g08.bks.cpg/sg40_14_cif.got.tgz:26605.got - 2010.06.03 18:35:42.
