data_PCOD9364597
_publ_section_title
;
Structure prediction by ZEFSAII (Michael W. Deem and Ramdas Pophale) SiO2 
 PCOD9364597
Probable space group: A M A 2
;
_chemical_formula_sum "Si O2"
_cell_formula_units_Z 64
_cell_length_a 18.428302
_cell_length_b 6.514720
_cell_length_c 26.182246
_cell_angle_alpha 90.000000
_cell_angle_beta 90.000000
_cell_angle_gamma 90.000000
_cell_volume 3143.315503
_symmetry_space_group_name_H-M "A M A 2"
_symmetry_group_IT_number 40
_symmetry_cell_setting 'orthorhombic'
loop_
_space_group_symop_operation_xyz
x,y,z
-x,-y,z
1/2-x,y,z
1/2+x,-y,z
x,1/2+y,1/2+z
-x,1/2-y,1/2+z
1/2-x,1/2+y,1/2+z
1/2+x,1/2-y,1/2+z
loop_
_atom_site_type_symbol
_atom_site_label
_atom_site_fract_x
_atom_site_fract_y
_atom_site_fract_z
Si Si1 0.585665 0.990542 0.845760
Si Si2 0.667697 0.770916 0.273607
Si Si3 0.332767 0.253798 0.082775
Si Si4 0.170502 0.401664 0.864950
Si Si5 0.075436 0.428240 0.526717
Si Si6 0.664224 0.742845 0.436139
Si Si7 0.166075 0.446679 0.679623
Si Si8 0.072516 0.628251 0.122288
O O1 0.616959 0.090006 0.793701
O O2 0.623753 0.107052 0.893263
O O3 0.500000 0.000000 0.847954
O O4 0.610207 0.758046 0.850887
O O5 0.750000 0.696779 0.262293
O O6 0.672629 0.925988 0.321307
O O7 0.642264 0.907947 0.226188
O O8 0.250000 0.289858 0.066332
O O9 0.370611 0.462607 0.100409
O O10 0.379694 0.131119 0.041544
O O11 0.331791 0.095781 0.130523
O O12 0.250000 0.299321 0.866251
O O13 0.158037 0.522647 0.917333
O O14 0.125140 0.296796 0.489255
O O15 0.056489 0.292565 0.576974
O O16 0.000000 0.500000 0.502317
O O17 0.750000 0.693314 0.437640
O O18 0.250000 0.378165 0.689375
O O19 0.112310 0.259571 0.666567
O O20 0.000000 0.500000 0.136102
#
# Coordination Sequence:
#
# PCOD9364597 Si02
#       8
#     8   8   8   8   8   8   8   8
#     4  11  22  38  59  87 125 161 199 254 320 378
#     4   9  19  38  62  87 117 160 207 254 304 369
#     4  10  21  38  61  87 119 162 208 261 317 382
#     4   9  19  38  62  85 117 159 200 248 301 363
#     4  11  22  40  61  88 125 163 208 259 321 384
#     4  10  22  39  60  89 119 158 210 257 307 374
#     4   9  20  38  62  89 120 159 211 263 312 376
#     4  11  22  39  60  86 123 165 208 260 328 392
#
# _framework density 20.360665999999998
#
# number of rings (size 3 to 8) (size 9 to 14) (size 15 to 20)
#    0.000    2.000    1.250    3.000    0.000    5.500 
#    2.250    8.750    0.000    0.000    0.000    0.000 
#    0.000    0.000    0.000    0.000    0.000    0.000 
#
# Total GULP energy -178696.364708 kJ/mol
# GULP energy per Si atom -5584.261397 kJ/mol
# Density = 2.031432 g / cm^3
# Si number density = 20.360666 Si / 1000 Ang^3
#
#
#
# Elastic Constant Matrix: (Units=GPa)
#
#
# Indices 1 2 3 4 5 6 
#
# 1 149.0617 51.8034 30.8190 0.0000 0.0000 0.0000
# 2 51.8034 53.5579 5.2124 0.0000 0.0000 0.0000
# 3 30.8190 5.2124 62.8729 0.0000 0.0000 0.0000
# 4 0.0000 0.0000 0.0000 22.5498 0.0000 0.0000
# 5 0.0000 0.0000 0.0000 0.0000 25.0310 0.0000
# 6 0.0000 0.0000 0.0000 0.0000 0.0000 3.1947
#
#
#
# Elastic Compliance Matrix: (Units=1/GPa)
#
#
# Indices 1 2 3 4 5 6 
#
# 1 0.011325 -0.010498 -0.004681 0.000000 0.000000 0.000000
# 2 -0.010498 0.028555 0.002779 0.000000 0.000000 0.000000
# 3 -0.004681 0.002779 0.017969 0.000000 0.000000 0.000000
# 4 0.000000 0.000000 0.000000 0.044346 0.000000 0.000000
# 5 0.000000 0.000000 0.000000 0.000000 0.039950 0.000000
# 6 0.000000 0.000000 0.000000 0.000000 0.000000 0.313014
#
#
# Mechanical properties :
#
#
# Convention : Reuss Voigt Hill
#
# Bulk Modulus (GPa) = 30.25860 49.01802 39.63831
# Shear Modulus (GPa) = 10.18376 21.99895 16.09136
#
# Velocity S-wave (km/s) = 2.23887 3.29061 2.81431
# Velocity P-wave (km/s) = 4.64510 6.21004 5.48368
#
# Compressibility (1/GPa) = 0.03304846
#
# Stress axis : x y z
#
# Youngs Moduli (GPa) = 88.30082 35.01964 55.65077
#
# Poissons Ratio (x) = 0.36765 0.26049
# Poissons Ratio (y) = 0.92702 -0.15464
# Poissons Ratio (z) = 0.41333 -0.09731
#
# Static dielectric constant tensor:
#      x y z
#    x 1.693010 0.000000 0.000000 
#    y 0.000000 1.707890 0.000000 
#    z 0.000000 0.000000 1.736680 
# 
# From -- ./inp_files/26688.got.cif
#   From: 2010.05.17/outbox.cif.g08.bks.cpg/sg40_14_cif.got.tgz:26688.got - 2010.06.03 18:35:42.
