data_PCOD9364399
_publ_section_title
;
Structure prediction by ZEFSAII (Michael W. Deem and Ramdas Pophale) SiO2 
 PCOD9364399
Probable space group: A M A 2
;
_chemical_formula_sum "Si O2"
_cell_formula_units_Z 48
_cell_length_a 27.035624
_cell_length_b 9.153967
_cell_length_c 9.969697
_cell_angle_alpha 90.000000
_cell_angle_beta 90.000000
_cell_angle_gamma 90.000000
_cell_volume 2467.332615
_symmetry_space_group_name_H-M "A M A 2"
_symmetry_group_IT_number 40
_symmetry_cell_setting 'orthorhombic'
loop_
_space_group_symop_operation_xyz
x,y,z
-x,-y,z
1/2-x,y,z
1/2+x,-y,z
x,1/2+y,1/2+z
-x,1/2-y,1/2+z
1/2-x,1/2+y,1/2+z
1/2+x,1/2-y,1/2+z
loop_
_atom_site_type_symbol
_atom_site_label
_atom_site_fract_x
_atom_site_fract_y
_atom_site_fract_z
Si Si1 0.985990 0.328877 0.977910
Si Si2 0.308178 0.210852 0.656274
Si Si3 0.868356 0.112202 0.357766
Si Si4 0.122241 0.444309 0.166211
Si Si5 0.628496 0.784175 0.399747
Si Si6 0.546317 0.302791 0.254116
O O1 0.927715 0.308603 0.949726
O O2 0.000000 0.500000 0.952409
O O3 0.015804 0.212918 0.889808
O O4 0.992358 0.291197 0.133574
O O5 0.250000 0.218303 0.636889
O O6 0.324773 0.292142 0.792827
O O7 0.337963 0.267812 0.524638
O O8 0.329346 0.046695 0.663827
O O9 0.882476 0.123759 0.516452
O O10 0.914962 0.169242 0.270576
O O11 0.855162 0.942759 0.346762
O O12 0.128266 0.324579 0.277868
O O13 0.078110 0.553104 0.216477
#
# Coordination Sequence:
#
# PCOD9364399 Si02
#       6
#     8   8   8   8   8   8
#     4  12  24  42  62  95 133 173 221 259 317 380
#     4  10  23  45  69  93 128 169 213 270 335 389
#     4  10  20  44  63  91 130 167 214 267 321 377
#     4  10  23  43  66  93 134 168 212 272 325 381
#     4  11  23  42  66  95 133 166 212 269 318 385
#     4  11  23  42  60  90 132 176 213 264 310 376
#
# _framework density 19.454205999999999
#
# number of rings (size 3 to 8) (size 9 to 14) (size 15 to 20)
#    0.000    1.333    6.667    0.000    4.667    6.000 
#    3.000    0.000    0.000    0.000    0.000    0.000 
#    0.000    0.000    0.000    0.000    0.000    0.000 
#
# Total GULP energy -133808.475782 kJ/mol
# GULP energy per Si atom -5575.353158 kJ/mol
# Density = 1.940993 g / cm^3
# Si number density = 19.454206 Si / 1000 Ang^3
#
#
#
# Elastic Constant Matrix: (Units=GPa)
#
#
# Indices 1 2 3 4 5 6 
#
# 1 111.4002 15.1989 45.3339 0.0000 0.0000 0.0000
# 2 15.1989 61.1192 80.1518 0.0000 0.0000 0.0000
# 3 45.3339 80.1518 158.0626 0.0000 0.0000 0.0000
# 4 0.0000 0.0000 0.0000 43.9767 0.0000 0.0000
# 5 0.0000 0.0000 0.0000 0.0000 22.4678 0.0000
# 6 0.0000 0.0000 0.0000 0.0000 0.0000 7.3815
#
#
#
# Elastic Compliance Matrix: (Units=1/GPa)
#
#
# Indices 1 2 3 4 5 6 
#
# 1 0.010478 0.003986 -0.005027 0.000000 0.000000 0.000000
# 2 0.003986 0.050356 -0.026678 0.000000 0.000000 0.000000
# 3 -0.005027 -0.026678 0.021297 0.000000 0.000000 0.000000
# 4 0.000000 0.000000 0.000000 0.022739 0.000000 0.000000
# 5 0.000000 0.000000 0.000000 0.000000 0.044508 0.000000
# 6 0.000000 0.000000 0.000000 0.000000 0.000000 0.135474
#
#
# Mechanical properties :
#
#
# Convention : Reuss Voigt Hill
#
# Bulk Modulus (GPa) = 37.46209 67.99456 52.72832
# Shear Modulus (GPa) = 14.31895 27.42505 20.87200
#
# Velocity S-wave (km/s) = 2.71594 3.75870 3.27904
# Velocity P-wave (km/s) = 5.39754 7.33922 6.44195
#
# Compressibility (1/GPa) = 0.02669365
#
# Stress axis : x y z
#
# Youngs Moduli (GPa) = 95.43467 19.85853 46.95584
#
# Poissons Ratio (x) = -0.07916 0.23603
# Poissons Ratio (y) = -0.38043 1.25270
# Poissons Ratio (z) = 0.47972 0.52979
#
# Static dielectric constant tensor:
#      x y z
#    x 1.724600 0.000000 0.000000 
#    y 0.000000 1.677050 0.000000 
#    z 0.000000 0.000000 1.717840 
# 
# From -- ./inp_files/9328.got.cif
#   From: 2010.05.17/outbox.cif.g08.bks.cpg/sg40_5_cif.got.tgz:9328.got - 2010.06.03 18:35:42.
