data_PCOD9364277
_publ_section_title
;
Structure prediction by ZEFSAII (Michael W. Deem and Ramdas Pophale) SiO2 
 PCOD9364277
Probable space group: A M A 2
;
_chemical_formula_sum "Si O2"
_cell_formula_units_Z 56
_cell_length_a 15.785374
_cell_length_b 5.122627
_cell_length_c 31.881361
_cell_angle_alpha 90.000000
_cell_angle_beta 90.000000
_cell_angle_gamma 90.000000
_cell_volume 2578.009202
_symmetry_space_group_name_H-M "A M A 2"
_symmetry_group_IT_number 40
_symmetry_cell_setting 'orthorhombic'
loop_
_space_group_symop_operation_xyz
x,y,z
-x,-y,z
1/2-x,y,z
1/2+x,-y,z
x,1/2+y,1/2+z
-x,1/2-y,1/2+z
1/2-x,1/2+y,1/2+z
1/2+x,1/2-y,1/2+z
loop_
_atom_site_type_symbol
_atom_site_label
_atom_site_fract_x
_atom_site_fract_y
_atom_site_fract_z
Si Si1 0.352140 0.858029 0.914840
Si Si2 0.059060 0.249127 0.327863
Si Si3 0.147977 0.296926 0.239838
Si Si4 0.152354 0.631946 0.552214
Si Si5 0.407402 0.620189 0.097627
Si Si6 0.853530 0.640836 0.963898
Si Si7 0.852663 0.700693 0.689029
O O1 0.250000 0.855039 0.914643
O O2 0.384464 0.783383 0.869194
O O3 0.381439 0.643732 0.948946
O O4 0.379198 0.145160 0.929398
O O5 0.112752 0.231189 0.285352
O O6 0.000000 0.500000 0.324154
O O7 0.000000 0.000000 0.332493
O O8 0.250000 0.289255 0.241592
O O9 0.122821 0.581684 0.223288
O O10 0.120174 0.080837 0.205958
O O11 0.250000 0.551226 0.545313
O O12 0.106000 0.372888 0.568263
O O13 0.117970 0.755700 0.509061
O O14 0.150225 0.872591 0.584865
O O15 0.500000 0.500000 0.094085
O O16 0.389064 0.719937 0.144326
O O17 0.750000 0.633892 0.965710
O O18 0.750000 0.701211 0.685262
#
# Coordination Sequence:
#
# PCOD9364277 Si02
#       7
#     8   8   8   8   8   8   8
#     4  10  20  39  63  87 117 155 201 248 294 348
#     4  12  25  40  59  89 125 157 193 237 298 363
#     4  10  22  41  64  88 115 153 201 248 294 350
#     4  11  22  41  66  90 121 164 213 258 305 367
#     4  12  25  40  60  93 131 164 201 253 317 376
#     4   9  19  36  63  91 113 151 207 255 292 343
#     4  10  21  39  64  90 116 154 204 249 295 355
#
# _framework density 21.722189
#
# number of rings (size 3 to 8) (size 9 to 14) (size 15 to 20)
#    0.000    1.429    0.000    5.571    0.000    5.143 
#    0.000   12.857    0.000    0.000    0.000    0.000 
#    0.000    0.000    0.000    0.000    0.000    0.000 
#
# Total GULP energy -156700.637964 kJ/mol
# GULP energy per Si atom -5596.451356 kJ/mol
# Density = 2.167275 g / cm^3
# Si number density = 21.722189 Si / 1000 Ang^3
#
#
#
# Elastic Constant Matrix: (Units=GPa)
#
#
# Indices 1 2 3 4 5 6 
#
# 1 22.6499 9.3224 8.7853 0.0000 0.0000 0.0000
# 2 9.3224 97.8471 -10.2313 0.0000 0.0000 0.0000
# 3 8.7853 -10.2313 75.8045 0.0000 0.0000 0.0000
# 4 0.0000 0.0000 0.0000 37.4749 0.0000 0.0000
# 5 0.0000 0.0000 0.0000 0.0000 -91.2112 0.0000
# 6 0.0000 0.0000 0.0000 0.0000 0.0000 18.1321
#
#
#
# Elastic Compliance Matrix: (Units=1/GPa)
#
#
# Indices 1 2 3 4 5 6 
#
# 1 0.048811 -0.005317 -0.006375 0.000000 0.000000 0.000000
# 2 -0.005317 0.010946 0.002094 0.000000 0.000000 0.000000
# 3 -0.006375 0.002094 0.014213 0.000000 0.000000 0.000000
# 4 0.000000 0.000000 0.000000 0.026685 0.000000 0.000000
# 5 0.000000 0.000000 0.000000 0.000000 -0.010964 0.000000
# 6 0.000000 0.000000 0.000000 0.000000 0.000000 0.055151
#
#
# Mechanical properties :
#
#
# Convention : Reuss Voigt Hill
#
# Bulk Modulus (GPa) = 18.25693 23.56158 20.90925
# Shear Modulus (GPa) = 27.42792 5.44081 16.43437
#
# Velocity S-wave (km/s) = 3.55726 1.58435 2.75357
# Velocity P-wave (km/s) = 5.02942 3.77057 4.44479
#
# Compressibility (1/GPa) = 0.05477373
#
# Stress axis : x y z
#
# Youngs Moduli (GPa) = 20.48709 91.36161 70.35724
#
# Poissons Ratio (x) = 0.48577 0.44850
# Poissons Ratio (y) = 0.10893 -0.14730
# Poissons Ratio (z) = 0.13060 -0.19127
#
# Static dielectric constant tensor:
#      x y z
#    x 1.809460 0.000000 0.000000 
#    y 0.000000 1.756730 0.000000 
#    z 0.000000 0.000000 1.761580 
# 
# From -- ./inp_files/26592.got.cif
#   From: 2010.05.17/outbox.cif.g08.bks.cpg/sg40_14_cif.got.tgz:26592.got - 2010.06.03 18:35:42.
