data_PCOD9364204
_publ_section_title
;
Structure prediction by ZEFSAII (Michael W. Deem and Ramdas Pophale) SiO2 
 PCOD9364204
Probable space group: A M A 2
;
_chemical_formula_sum "Si O2"
_cell_formula_units_Z 36
_cell_length_a 9.191816
_cell_length_b 13.225575
_cell_length_c 12.265134
_cell_angle_alpha 90.000000
_cell_angle_beta 90.000000
_cell_angle_gamma 90.000000
_cell_volume 1491.036181
_symmetry_space_group_name_H-M "A M A 2"
_symmetry_group_IT_number 40
_symmetry_cell_setting 'orthorhombic'
loop_
_space_group_symop_operation_xyz
x,y,z
-x,-y,z
1/2-x,y,z
1/2+x,-y,z
x,1/2+y,1/2+z
-x,1/2-y,1/2+z
1/2-x,1/2+y,1/2+z
1/2+x,1/2-y,1/2+z
loop_
_atom_site_type_symbol
_atom_site_label
_atom_site_fract_x
_atom_site_fract_y
_atom_site_fract_z
Si Si1 0.425870 0.897040 0.728640
Si Si2 0.923884 0.686033 0.664281
Si Si3 0.250000 0.045506 0.464083
Si Si4 0.540603 0.136073 0.410659
Si Si5 0.585048 0.865353 0.954671
O O1 0.250000 0.899486 0.719096
O O2 0.496806 0.795857 0.677183
O O3 0.481084 0.894314 0.854135
O O4 0.500000 0.000000 0.684227
O O5 0.750000 0.698569 0.648715
O O6 0.948433 0.629961 0.779371
O O7 0.001718 0.623950 0.568474
O O8 0.370290 0.954589 0.460393
O O9 0.376640 0.130083 0.449236
O O10 0.600587 0.245088 0.440448
O O11 0.750000 0.908973 0.949488
#
# Coordination Sequence:
#
# PCOD9364204 Si02
#       5
#     8   8   4   8   8
#     4  11  23  44  67  91 123 165 210 260 313 376
#     4  11  23  41  63  91 126 163 207 252 312 366
#     4  10  20  38  62  88 118 160 196 248 304 358
#     4  10  21  40  61  87 125 156 199 249 306 351
#     4  11  23  41  63  91 126 163 207 252 312 366
#
# _framework density 24.144283000000001
#
# number of rings (size 3 to 8) (size 9 to 14) (size 15 to 20)
#    0.000    1.333    2.222    4.667    9.333    0.000 
#    8.000    0.000    0.000    0.000    0.000    0.000 
#    0.000    0.000    0.000    0.000    0.000    0.000 
#
# Total GULP energy -100221.050299 kJ/mol
# GULP energy per Si atom -5567.836128 kJ/mol
# Density = 2.408933 g / cm^3
# Si number density = 24.144283 Si / 1000 Ang^3
#
#
#
# Elastic Constant Matrix: (Units=GPa)
#
#
# Indices 1 2 3 4 5 6 
#
# 1 286.9209 42.0229 42.0037 0.0000 0.0000 0.0000
# 2 42.0229 90.2191 2.6226 0.0000 0.0000 0.0000
# 3 42.0037 2.6226 157.6174 0.0000 0.0000 0.0000
# 4 0.0000 0.0000 0.0000 -53.0493 0.0000 0.0000
# 5 0.0000 0.0000 0.0000 0.0000 57.8861 0.0000
# 6 0.0000 0.0000 0.0000 0.0000 0.0000 677.3499
#
#
#
# Elastic Compliance Matrix: (Units=1/GPa)
#
#
# Indices 1 2 3 4 5 6 
#
# 1 0.003894 -0.001785 -0.001008 0.000000 0.000000 0.000000
# 2 -0.001785 0.011907 0.000277 0.000000 0.000000 0.000000
# 3 -0.001008 0.000277 0.006609 0.000000 0.000000 0.000000
# 4 0.000000 0.000000 0.000000 -0.018850 0.000000 0.000000
# 5 0.000000 0.000000 0.000000 0.000000 0.017275 0.000000
# 6 0.000000 0.000000 0.000000 0.000000 0.000000 0.001476
#
#
# Mechanical properties :
#
#
# Convention : Reuss Voigt Hill
#
# Bulk Modulus (GPa) = 57.53874 78.67288 68.10581
# Shear Modulus (GPa) = 150.89829 166.31123 158.60476
#
# Velocity S-wave (km/s) = 7.91418 8.30854 8.11375
# Velocity P-wave (km/s) = 10.36317 11.16681 10.77248
#
# Compressibility (1/GPa) = 0.01737960
#
# Stress axis : x y z
#
# Youngs Moduli (GPa) = 256.79015 83.98216 151.32016
#
# Poissons Ratio (x) = 0.14987 0.15254
# Poissons Ratio (y) = 0.45826 -0.04198
# Poissons Ratio (z) = 0.25887 -0.02330
#
# Static dielectric constant tensor:
#      x y z
#    x 1.865570 0.000000 0.000000 
#    y 0.000000 2.119810 0.000000 
#    z 0.000000 0.000000 2.028270 
# 
# From -- ./inp_files/14747.got.cif
#   From: 2010.05.17/outbox.cif.g08.bks.cpg/sg40_8_cif.got.tgz:14747.got - 2010.06.03 18:35:42.
