data_PCOD9364800
_publ_section_title
;
Structure prediction by ZEFSAII (Michael W. Deem and Ramdas Pophale) SiO2 
 PCOD9364800
Probable space group: A M A 2
;
_chemical_formula_sum "Si O2"
_cell_formula_units_Z 64
_cell_length_a 8.787351
_cell_length_b 31.298704
_cell_length_c 12.060186
_cell_angle_alpha 90.000000
_cell_angle_beta 90.000000
_cell_angle_gamma 90.000000
_cell_volume 3316.945493
_symmetry_space_group_name_H-M "A M A 2"
_symmetry_group_IT_number 40
_symmetry_cell_setting 'orthorhombic'
loop_
_space_group_symop_operation_xyz
x,y,z
-x,-y,z
1/2-x,y,z
1/2+x,-y,z
x,1/2+y,1/2+z
-x,1/2-y,1/2+z
1/2-x,1/2+y,1/2+z
1/2+x,1/2-y,1/2+z
loop_
_atom_site_type_symbol
_atom_site_label
_atom_site_fract_x
_atom_site_fract_y
_atom_site_fract_z
Si Si1 0.071929 0.200856 0.010100
Si Si2 0.431395 0.044321 0.011925
Si Si3 0.433317 0.626223 0.132581
Si Si4 0.069480 0.376415 0.376877
Si Si5 0.067835 0.043773 0.482681
Si Si6 0.571778 0.840451 0.250070
Si Si7 0.070498 0.432189 0.746944
Si Si8 0.431663 0.206535 0.480228
O O1 0.250000 0.197418 0.981230
O O2 0.054101 0.185680 0.137078
O O3 0.979885 0.168011 0.933653
O O4 0.016127 0.249113 0.997781
O O5 0.250000 0.043075 0.009638
O O6 0.489228 0.049665 0.137982
O O7 0.500000 0.000000 0.967409
O O8 0.490414 0.084970 0.943439
O O9 0.250000 0.626505 0.147975
O O10 0.513898 0.623401 0.250397
O O11 0.470132 0.585258 0.056240
O O12 0.475285 0.669523 0.067243
O O13 0.250000 0.381539 0.383850
O O14 0.250000 0.040919 0.474658
O O15 0.997983 0.049798 0.360583
O O16 0.000000 0.000000 0.530813
O O17 0.750000 0.854739 0.257773
O O18 0.465943 0.881736 0.247751
O O19 0.539967 0.812070 0.357638
O O20 0.250000 0.440473 0.740935
O O21 0.250000 0.213491 0.490698
#
# Coordination Sequence:
#
# PCOD9364800 Si02
#       8
#     8   8   8   8   8   8   8   8
#     4  11  24  41  65  96 130 168 212 262 320 378
#     4  12  25  44  68  95 129 167 212 262 317 380
#     4  10  23  44  67  91 126 171 214 263 320 376
#     4  12  26  44  66  94 129 168 213 263 318 381
#     4  11  23  42  66  94 129 168 212 261 315 377
#     4  10  21  41  66  92 127 171 208 260 321 374
#     4  12  23  38  64  98 132 167 210 261 318 376
#     4  10  22  42  66  94 128 167 214 263 317 375
#
# _framework density 19.29486
#
# number of rings (size 3 to 8) (size 9 to 14) (size 15 to 20)
#    0.000    1.000    2.500    4.500    1.750    3.000 
#    0.000    1.250    0.000    0.000    0.000    0.000 
#    0.000    0.000    0.000    0.000    0.000    0.000 
#
# Total GULP energy -179055.070040 kJ/mol
# GULP energy per Si atom -5595.470939 kJ/mol
# Density = 1.925094 g / cm^3
# Si number density = 19.294860 Si / 1000 Ang^3
#
#
#
# Elastic Constant Matrix: (Units=GPa)
#
#
# Indices 1 2 3 4 5 6 
#
# 1 117.2907 68.7364 65.4458 0.0000 0.0000 0.0000
# 2 68.7364 145.7550 50.4241 0.0000 0.0000 0.0000
# 3 65.4458 50.4241 116.2798 0.0000 0.0000 0.0000
# 4 0.0000 0.0000 0.0000 33.4230 0.0000 0.0000
# 5 0.0000 0.0000 0.0000 0.0000 26.0697 0.0000
# 6 0.0000 0.0000 0.0000 0.0000 0.0000 37.8089
#
#
#
# Elastic Compliance Matrix: (Units=1/GPa)
#
#
# Indices 1 2 3 4 5 6 
#
# 1 0.014857 -0.004839 -0.006263 0.000000 0.000000 0.000000
# 2 -0.004839 0.009648 -0.001460 0.000000 0.000000 0.000000
# 3 -0.006263 -0.001460 0.012758 0.000000 0.000000 0.000000
# 4 0.000000 0.000000 0.000000 0.029920 0.000000 0.000000
# 5 0.000000 0.000000 0.000000 0.000000 0.038359 0.000000
# 6 0.000000 0.000000 0.000000 0.000000 0.000000 0.026449
#
#
# Mechanical properties :
#
#
# Convention : Reuss Voigt Hill
#
# Bulk Modulus (GPa) = 82.38861 83.17090 82.77976
# Shear Modulus (GPa) = 31.02483 32.44162 31.73322
#
# Velocity S-wave (km/s) = 4.01425 4.10489 4.05982
# Velocity P-wave (km/s) = 8.01736 8.10343 8.06051
#
# Compressibility (1/GPa) = 0.01213760
#
# Stress axis : x y z
#
# Youngs Moduli (GPa) = 67.31002 103.64644 78.38106
#
# Poissons Ratio (x) = 0.50159 0.49091
# Poissons Ratio (y) = 0.32575 0.11444
# Poissons Ratio (z) = 0.42157 0.15133
#
# Static dielectric constant tensor:
#      x y z
#    x 1.652400 0.000000 0.000000 
#    y 0.000000 1.660620 0.000000 
#    z 0.000000 0.000000 1.643900 
# 
# From -- ./inp_files/10619.got.cif
#   From: 2010.05.17/outbox.cif.g08.bks.cpg/sg40_6_cif.got.tgz:10619.got - 2010.06.03 18:35:42.
