data_PCOD9364990
_publ_section_title
;
Structure prediction by ZEFSAII (Michael W. Deem and Ramdas Pophale) SiO2 
 PCOD9364990
Probable space group: A M A 2
;
_chemical_formula_sum "Si O2"
_cell_formula_units_Z 36
_cell_length_a 18.063059
_cell_length_b 8.658158
_cell_length_c 11.578089
_cell_angle_alpha 90.000000
_cell_angle_beta 90.000000
_cell_angle_gamma 90.000000
_cell_volume 1810.729975
_symmetry_space_group_name_H-M "A M A 2"
_symmetry_group_IT_number 40
_symmetry_cell_setting 'orthorhombic'
loop_
_space_group_symop_operation_xyz
x,y,z
-x,-y,z
1/2-x,y,z
1/2+x,-y,z
x,1/2+y,1/2+z
-x,1/2-y,1/2+z
1/2-x,1/2+y,1/2+z
1/2+x,1/2-y,1/2+z
loop_
_atom_site_type_symbol
_atom_site_label
_atom_site_fract_x
_atom_site_fract_y
_atom_site_fract_z
Si Si1 0.913927 0.498372 0.689690
Si Si2 0.590700 0.846081 0.760948
Si Si3 0.000000 0.500000 0.080846
Si Si4 0.835776 0.512719 0.465528
Si Si5 0.950676 0.271182 0.894618
O O1 0.890596 0.674735 0.716021
O O2 0.864248 0.437993 0.585151
O O3 0.084066 0.603160 0.806333
O O4 0.000000 0.500000 0.650434
O O5 0.511181 0.822941 0.822725
O O6 0.572230 0.968233 0.659584
O O7 0.647808 0.906172 0.854981
O O8 0.002926 0.645482 0.995509
O O9 0.750000 0.551869 0.473513
O O10 0.887878 0.661539 0.444912
#
# Coordination Sequence:
#
# PCOD9364990 Si02
#       5
#     8   8   4   8   8
#     4  10  22  40  68  91 117 156 212 265 304 355
#     4  11  22  38  66  93 120 154 209 261 307 357
#     4  12  20  36  68  96 118 148 204 274 308 338
#     4  12  26  40  58  90 134 170 198 245 314 383
#     4  11  22  40  67  95 115 157 215 263 304 355
#
# _framework density 19.881482999999999
#
# number of rings (size 3 to 8) (size 9 to 14) (size 15 to 20)
#    0.000    0.889    7.778    1.333    3.111    1.778 
#    0.000    0.000    0.000    0.000    0.000    0.000 
#    0.000    0.000    0.000    0.000    0.000    0.000 
#
# Total GULP energy -100490.778621 kJ/mol
# GULP energy per Si atom -5582.821035 kJ/mol
# Density = 1.983623 g / cm^3
# Si number density = 19.881483 Si / 1000 Ang^3
#
#
#
# Elastic Constant Matrix: (Units=GPa)
#
#
# Indices 1 2 3 4 5 6 
#
# 1 54.3803 9.0233 18.6704 0.0000 0.0000 0.0000
# 2 9.0233 51.2487 20.1724 0.0000 0.0000 0.0000
# 3 18.6704 20.1724 103.8676 0.0000 0.0000 0.0000
# 4 0.0000 0.0000 0.0000 20.6201 0.0000 0.0000
# 5 0.0000 0.0000 0.0000 0.0000 13.9341 0.0000
# 6 0.0000 0.0000 0.0000 0.0000 0.0000 14.0918
#
#
#
# Elastic Compliance Matrix: (Units=1/GPa)
#
#
# Indices 1 2 3 4 5 6 
#
# 1 0.019838 -0.002262 -0.003127 0.000000 0.000000 0.000000
# 2 -0.002262 0.021386 -0.003747 0.000000 0.000000 0.000000
# 3 -0.003127 -0.003747 0.010917 0.000000 0.000000 0.000000
# 4 0.000000 0.000000 0.000000 0.048496 0.000000 0.000000
# 5 0.000000 0.000000 0.000000 0.000000 0.071766 0.000000
# 6 0.000000 0.000000 0.000000 0.000000 0.000000 0.070963
#
#
# Mechanical properties :
#
#
# Convention : Reuss Voigt Hill
#
# Bulk Modulus (GPa) = 29.52465 33.91429 31.71947
# Shear Modulus (GPa) = 18.31987 20.50458 19.41223
#
# Velocity S-wave (km/s) = 3.03884 3.21493 3.12813
# Velocity P-wave (km/s) = 5.21491 5.55665 5.38849
#
# Compressibility (1/GPa) = 0.03387000
#
# Stress axis : x y z
#
# Youngs Moduli (GPa) = 50.40879 46.76003 91.59764
#
# Poissons Ratio (x) = 0.10578 0.28638
# Poissons Ratio (y) = 0.11403 0.34320
# Poissons Ratio (z) = 0.15760 0.17520
#
# Static dielectric constant tensor:
#      x y z
#    x 1.633780 0.000000 0.000000 
#    y 0.000000 1.740240 0.000000 
#    z 0.000000 0.000000 1.764850 
# 
# From -- ./inp_files/12776.got.cif
#   From: 2010.05.17/outbox.cif.g08.bks.cpg/sg40_7_cif.got.tgz:12776.got - 2010.06.03 18:35:42.
