data_PCOD9364178
_publ_section_title
;
Structure prediction by ZEFSAII (Michael W. Deem and Ramdas Pophale) SiO2 
 PCOD9364178
Probable space group: A M A 2
;
_chemical_formula_sum "Si O2"
_cell_formula_units_Z 48
_cell_length_a 16.975992
_cell_length_b 15.863061
_cell_length_c 9.073639
_cell_angle_alpha 90.000000
_cell_angle_beta 90.000000
_cell_angle_gamma 90.000000
_cell_volume 2443.451104
_symmetry_space_group_name_H-M "A M A 2"
_symmetry_group_IT_number 40
_symmetry_cell_setting 'orthorhombic'
loop_
_space_group_symop_operation_xyz
x,y,z
-x,-y,z
1/2-x,y,z
1/2+x,-y,z
x,1/2+y,1/2+z
-x,1/2-y,1/2+z
1/2-x,1/2+y,1/2+z
1/2+x,1/2-y,1/2+z
loop_
_atom_site_type_symbol
_atom_site_label
_atom_site_fract_x
_atom_site_fract_y
_atom_site_fract_z
Si Si1 0.118008 0.682088 0.222760
Si Si2 0.661196 0.668917 0.924215
Si Si3 0.430655 0.065238 0.967540
Si Si4 0.948298 0.260923 0.650266
Si Si5 0.338745 0.658938 0.890633
Si Si6 0.095294 0.992225 0.262614
O O1 0.163219 0.748220 0.323555
O O2 0.110599 0.597355 0.319701
O O3 0.030810 0.720343 0.194366
O O4 0.155593 0.673742 0.063569
O O5 0.750000 0.646703 0.971209
O O6 0.623336 0.596408 0.823777
O O7 0.603281 0.694801 0.056705
O O8 0.457161 0.152461 0.052758
O O9 0.382364 0.015325 0.093889
O O10 0.500000 0.000000 0.929768
O O11 0.900055 0.286277 0.796092
O O12 0.250000 0.673776 0.836666
O O13 0.364698 0.563418 0.860983
O O14 0.000000 0.000000 0.269688
#
# Coordination Sequence:
#
# PCOD9364178 Si02
#       6
#     8   8   8   8   8   8
#     4  11  21  36  59  86 116 153 195 243 293 358
#     4  11  22  38  59  87 117 152 198 251 301 350
#     4   9  19  35  56  83 111 145 193 242 287 343
#     4  10  21  38  61  83 113 156 200 242 292 358
#     4  11  22  37  56  85 119 151 189 246 303 348
#     4  10  20  38  60  82 112 153 199 242 291 359
#
# _framework density 19.644347
#
# number of rings (size 3 to 8) (size 9 to 14) (size 15 to 20)
#    0.000    1.667    0.000    7.500    0.000    2.000 
#    0.000    2.500    0.000    0.000    0.000    2.333 
#    0.000    0.000    0.000    0.000    0.000    0.000 
#
# Total GULP energy -133988.617055 kJ/mol
# GULP energy per Si atom -5582.859044 kJ/mol
# Density = 1.959964 g / cm^3
# Si number density = 19.644347 Si / 1000 Ang^3
#
#
#
# Elastic Constant Matrix: (Units=GPa)
#
#
# Indices 1 2 3 4 5 6 
#
# 1 103.4690 18.4929 8.4313 0.0000 0.0000 0.0000
# 2 18.4929 74.5375 17.9165 0.0000 0.0000 0.0000
# 3 8.4313 17.9165 71.4975 0.0000 0.0000 0.0000
# 4 0.0000 0.0000 0.0000 33.0504 0.0000 0.0000
# 5 0.0000 0.0000 0.0000 0.0000 20.3730 0.0000
# 6 0.0000 0.0000 0.0000 0.0000 0.0000 16.4815
#
#
#
# Elastic Compliance Matrix: (Units=1/GPa)
#
#
# Indices 1 2 3 4 5 6 
#
# 1 0.010137 -0.002371 -0.000601 0.000000 0.000000 0.000000
# 2 -0.002371 0.014830 -0.003437 0.000000 0.000000 0.000000
# 3 -0.000601 -0.003437 0.014919 0.000000 0.000000 0.000000
# 4 0.000000 0.000000 0.000000 0.030257 0.000000 0.000000
# 5 0.000000 0.000000 0.000000 0.000000 0.049085 0.000000
# 6 0.000000 0.000000 0.000000 0.000000 0.000000 0.060674
#
#
# Mechanical properties :
#
#
# Convention : Reuss Voigt Hill
#
# Bulk Modulus (GPa) = 36.94279 37.68728 37.31503
# Shear Modulus (GPa) = 24.78411 27.62521 26.20466
#
# Velocity S-wave (km/s) = 3.55581 3.75409 3.65630
# Velocity P-wave (km/s) = 5.97537 6.16582 6.07134
#
# Compressibility (1/GPa) = 0.02706888
#
# Stress axis : x y z
#
# Youngs Moduli (GPa) = 98.64444 67.42958 67.03027
#
# Poissons Ratio (x) = 0.15985 0.04031
# Poissons Ratio (y) = 0.23384 0.23037
# Poissons Ratio (z) = 0.05933 0.23174
#
# Static dielectric constant tensor:
#      x y z
#    x 1.691530 0.000000 0.000000 
#    y 0.000000 1.677250 0.000000 
#    z 0.000000 0.000000 1.694000 
# 
# From -- ./inp_files/7433.got.cif
#   From: 2010.05.17/outbox.cif.g08.bks.cpg/sg40_4_cif.got.tgz:7433.got - 2010.06.03 18:35:42.
