data_PCOD9364623
_publ_section_title
;
Structure prediction by ZEFSAII (Michael W. Deem and Ramdas Pophale) SiO2 
 PCOD9364623
Probable space group: A M A 2
;
_chemical_formula_sum "Si O2"
_cell_formula_units_Z 40
_cell_length_a 18.857373
_cell_length_b 8.178620
_cell_length_c 12.562954
_cell_angle_alpha 90.000000
_cell_angle_beta 90.000000
_cell_angle_gamma 90.000000
_cell_volume 1937.550324
_symmetry_space_group_name_H-M "A M A 2"
_symmetry_group_IT_number 40
_symmetry_cell_setting 'orthorhombic'
loop_
_space_group_symop_operation_xyz
x,y,z
-x,-y,z
1/2-x,y,z
1/2+x,-y,z
x,1/2+y,1/2+z
-x,1/2-y,1/2+z
1/2-x,1/2+y,1/2+z
1/2+x,1/2-y,1/2+z
loop_
_atom_site_type_symbol
_atom_site_label
_atom_site_fract_x
_atom_site_fract_y
_atom_site_fract_z
Si Si1 0.417701 0.539990 0.250000
Si Si2 0.330999 0.731033 0.419554
Si Si3 0.532918 0.813090 0.552565
Si Si4 0.889834 0.797444 0.137419
Si Si5 0.581554 0.453374 0.852826
O O1 0.500000 0.500000 0.279396
O O2 0.372005 0.600339 0.347623
O O3 0.420776 0.681415 0.159316
O O4 0.386878 0.381991 0.190937
O O5 0.250000 0.750867 0.385677
O O6 0.335021 0.681962 0.543083
O O7 0.374964 0.899668 0.405849
O O8 0.466645 0.697220 0.577066
O O9 0.573763 0.806878 0.440624
O O10 0.500000 0.000000 0.549001
O O11 0.885408 0.911346 0.239529
O O12 0.500000 0.500000 0.829494
#
# Coordination Sequence:
#
# PCOD9364623 Si02
#       5
#     8   8   8   8   8
#     4   9  19  40  63  88 125 164 212 262 310 369
#     4  12  25  41  61  94 134 165 204 265 324 376
#     4   8  15  33  62  90 115 149 209 253 296 359
#     4  10  21  38  64  89 124 164 208 261 310 374
#     4  11  19  40  69  93 123 164 212 261 315 370
#
# _framework density 20.644627
#
# number of rings (size 3 to 8) (size 9 to 14) (size 15 to 20)
#    0.000    2.400    6.000    2.400    0.000    2.400 
#    3.600    0.000    0.000    0.000    0.000    0.000 
#    0.000    0.000    0.000    0.000    0.000    0.000 
#
# Total GULP energy -111523.897936 kJ/mol
# GULP energy per Si atom -5576.194897 kJ/mol
# Density = 2.059764 g / cm^3
# Si number density = 20.644627 Si / 1000 Ang^3
#
#
#
# Elastic Constant Matrix: (Units=GPa)
#
#
# Indices 1 2 3 4 5 6 
#
# 1 86.3785 18.0240 51.0345 0.0000 0.0000 0.0000
# 2 18.0240 23.1925 30.5961 0.0000 0.0000 0.0000
# 3 51.0345 30.5961 147.5892 0.0000 0.0000 0.0000
# 4 0.0000 0.0000 0.0000 22.8344 0.0000 0.0000
# 5 0.0000 0.0000 0.0000 0.0000 -25.9817 0.0000
# 6 0.0000 0.0000 0.0000 0.0000 0.0000 14.0862
#
#
#
# Elastic Compliance Matrix: (Units=1/GPa)
#
#
# Indices 1 2 3 4 5 6 
#
# 1 0.015281 -0.006751 -0.003884 0.000000 0.000000 0.000000
# 2 -0.006751 0.062331 -0.010587 0.000000 0.000000 0.000000
# 3 -0.003884 -0.010587 0.010313 0.000000 0.000000 0.000000
# 4 0.000000 0.000000 0.000000 0.043794 0.000000 0.000000
# 5 0.000000 0.000000 0.000000 0.000000 -0.038489 0.000000
# 6 0.000000 0.000000 0.000000 0.000000 0.000000 0.070991
#
#
# Mechanical properties :
#
#
# Convention : Reuss Voigt Hill
#
# Bulk Modulus (GPa) = 21.98774 50.71884 36.35329
# Shear Modulus (GPa) = 22.54022 12.68816 17.61419
#
# Velocity S-wave (km/s) = 3.30785 2.48180 2.92414
# Velocity P-wave (km/s) = 5.02622 5.73004 5.38963
#
# Compressibility (1/GPa) = 0.04547990
#
# Stress axis : x y z
#
# Youngs Moduli (GPa) = 65.44257 16.04347 96.96042
#
# Poissons Ratio (x) = 0.10831 0.37662
# Poissons Ratio (y) = 0.44180 1.02653
# Poissons Ratio (z) = 0.25420 0.16985
#
# Static dielectric constant tensor:
#      x y z
#    x 1.775980 0.000000 0.000000 
#    y 0.000000 1.807120 0.000000 
#    z 0.000000 0.000000 1.831820 
# 
# From -- ./inp_files/13437.got.cif
#   From: 2010.05.17/outbox.cif.g08.bks.cpg/sg40_7_cif.got.tgz:13437.got - 2010.06.03 18:35:42.
