data_PCOD9364354
_publ_section_title
;
Structure prediction by ZEFSAII (Michael W. Deem and Ramdas Pophale) SiO2 
 PCOD9364354
Probable space group: A M A 2
;
_chemical_formula_sum "Si O2"
_cell_formula_units_Z 48
_cell_length_a 17.652762
_cell_length_b 17.605823
_cell_length_c 7.206326
_cell_angle_alpha 90.000000
_cell_angle_beta 90.000000
_cell_angle_gamma 90.000000
_cell_volume 2239.664170
_symmetry_space_group_name_H-M "A M A 2"
_symmetry_group_IT_number 40
_symmetry_cell_setting 'orthorhombic'
loop_
_space_group_symop_operation_xyz
x,y,z
-x,-y,z
1/2-x,y,z
1/2+x,-y,z
x,1/2+y,1/2+z
-x,1/2-y,1/2+z
1/2-x,1/2+y,1/2+z
1/2+x,1/2-y,1/2+z
loop_
_atom_site_type_symbol
_atom_site_label
_atom_site_fract_x
_atom_site_fract_y
_atom_site_fract_z
Si Si1 0.938357 0.823272 0.539700
Si Si2 0.835059 0.186994 0.888091
Si Si3 0.033532 0.388429 0.731308
Si Si4 0.094447 0.116986 0.934870
Si Si5 0.663173 0.028975 0.110671
Si Si6 0.102291 0.782698 0.518000
O O1 0.887009 0.756491 0.457088
O O2 0.911362 0.678704 0.817719
O O3 0.910566 0.870473 0.715055
O O4 0.017223 0.783445 0.601597
O O5 0.750000 0.212151 0.922787
O O6 0.844782 0.106521 0.990299
O O7 0.848491 0.174281 0.668818
O O8 0.090681 0.459223 0.744735
O O9 0.965068 0.379630 0.877090
O O10 0.989006 0.388221 0.534088
O O11 0.128980 0.196795 0.003499
O O12 0.143821 0.045391 0.992976
O O13 0.750000 0.025982 0.181451
#
# Coordination Sequence:
#
# PCOD9364354 Si02
#       6
#     8   8   8   8   8   8
#     4  10  22  41  75 100 128 176 235 289 332 398
#     4  11  23  43  67 100 139 182 228 280 344 414
#     4  10  23  42  71  98 132 175 237 278 334 402
#     4  12  21  42  70 103 134 168 230 284 337 400
#     4  11  26  44  63  97 148 184 214 273 345 415
#     4  10  20  40  70  98 127 172 229 287 330 388
#
# _framework density 21.431785000000001
#
# number of rings (size 3 to 8) (size 9 to 14) (size 15 to 20)
#    1.000    0.333    1.667    5.500    0.000    2.000 
#    6.000    0.000    0.000    0.000    0.000    0.000 
#    0.000    0.000    0.000    0.000    0.000    0.000 
#
# Total GULP energy -133668.007525 kJ/mol
# GULP energy per Si atom -5569.500314 kJ/mol
# Density = 2.138301 g / cm^3
# Si number density = 21.431785 Si / 1000 Ang^3
#
#
#
# Elastic Constant Matrix: (Units=GPa)
#
#
# Indices 1 2 3 4 5 6 
#
# 1 62.0373 33.4221 6.2627 0.0000 0.0000 0.0000
# 2 33.4221 108.6621 27.6361 0.0000 0.0000 0.0000
# 3 6.2627 27.6361 75.6071 0.0000 0.0000 0.0000
# 4 0.0000 0.0000 0.0000 26.7589 0.0000 0.0000
# 5 0.0000 0.0000 0.0000 0.0000 19.0007 0.0000
# 6 0.0000 0.0000 0.0000 0.0000 0.0000 26.0144
#
#
#
# Elastic Compliance Matrix: (Units=1/GPa)
#
#
# Indices 1 2 3 4 5 6 
#
# 1 0.019348 -0.006112 0.000631 0.000000 0.000000 0.000000
# 2 -0.006112 0.012077 -0.003908 0.000000 0.000000 0.000000
# 3 0.000631 -0.003908 0.014602 0.000000 0.000000 0.000000
# 4 0.000000 0.000000 0.000000 0.037371 0.000000 0.000000
# 5 0.000000 0.000000 0.000000 0.000000 0.052630 0.000000
# 6 0.000000 0.000000 0.000000 0.000000 0.000000 0.038440
#
#
# Mechanical properties :
#
#
# Convention : Reuss Voigt Hill
#
# Bulk Modulus (GPa) = 36.69661 42.32760 39.51210
# Shear Modulus (GPa) = 24.71235 26.28718 25.49977
#
# Velocity S-wave (km/s) = 3.39937 3.50601 3.45311
# Velocity P-wave (km/s) = 5.70678 6.01517 5.86300
#
# Compressibility (1/GPa) = 0.02725047
#
# Stress axis : x y z
#
# Youngs Moduli (GPa) = 51.68441 82.80497 68.48163
#
# Poissons Ratio (x) = 0.50607 -0.04323
# Poissons Ratio (y) = 0.31588 0.26763
# Poissons Ratio (z) = -0.03263 0.32360
#
# Static dielectric constant tensor:
#      x y z
#    x 1.847200 0.000000 0.000000 
#    y 0.000000 1.812400 0.000000 
#    z 0.000000 0.000000 1.847070 
# 
# From -- ./inp_files/7599.got.cif
#   From: 2010.05.17/outbox.cif.g08.bks.cpg/sg40_4_cif.got.tgz:7599.got - 2010.06.03 18:35:42.
