data_PCOD9364784
_publ_section_title
;
Structure prediction by ZEFSAII (Michael W. Deem and Ramdas Pophale) SiO2 
 PCOD9364784
Probable space group: A M A 2
;
_chemical_formula_sum "Si O2"
_cell_formula_units_Z 36
_cell_length_a 13.182217
_cell_length_b 22.440784
_cell_length_c 6.217297
_cell_angle_alpha 90.000000
_cell_angle_beta 90.000000
_cell_angle_gamma 90.000000
_cell_volume 1839.196349
_symmetry_space_group_name_H-M "A M A 2"
_symmetry_group_IT_number 40
_symmetry_cell_setting 'orthorhombic'
loop_
_space_group_symop_operation_xyz
x,y,z
-x,-y,z
1/2-x,y,z
1/2+x,-y,z
x,1/2+y,1/2+z
-x,1/2-y,1/2+z
1/2-x,1/2+y,1/2+z
1/2+x,1/2-y,1/2+z
loop_
_atom_site_type_symbol
_atom_site_label
_atom_site_fract_x
_atom_site_fract_y
_atom_site_fract_z
Si Si1 0.633209 0.922980 0.725150
Si Si2 0.632062 0.690803 0.147756
Si Si3 0.000000 0.500000 0.542735
Si Si4 0.948818 0.813055 0.975702
Si Si5 0.982218 0.103681 0.351849
O O1 0.750000 0.935802 0.687100
O O2 0.618177 0.857793 0.832328
O O3 0.568267 0.922409 0.508135
O O4 0.582582 0.968675 0.891764
O O5 0.750000 0.690443 0.205943
O O6 0.556041 0.692061 0.351101
O O7 0.603886 0.749989 0.012906
O O8 0.602022 0.633708 0.002865
O O9 0.049143 0.448878 0.691212
O O10 0.969630 0.844746 0.203207
#
# Coordination Sequence:
#
# PCOD9364784 Si02
#       5
#     8   8   4   8   8
#     4  10  22  40  65  91 120 166 213 257 310 366
#     4  11  22  38  63  93 130 171 203 254 319 368
#     4  10  22  42  64  90 126 160 208 266 304 364
#     4  10  21  41  58  93 130 159 210 259 299 383
#     4  10  22  41  62  89 129 162 204 261 304 374
#
# _framework density 19.573765000000002
#
# number of rings (size 3 to 8) (size 9 to 14) (size 15 to 20)
#    0.000    1.778    2.222    1.333    0.000    6.222 
#    0.000   15.556    0.000    0.000    0.000    0.000 
#    0.000    0.000    0.000    0.000    0.000    0.000 
#
# Total GULP energy -100557.886177 kJ/mol
# GULP energy per Si atom -5586.549232 kJ/mol
# Density = 1.952921 g / cm^3
# Si number density = 19.573765 Si / 1000 Ang^3
#
#
#
# Elastic Constant Matrix: (Units=GPa)
#
#
# Indices 1 2 3 4 5 6 
#
# 1 121.4519 47.6291 39.9782 0.0000 0.0000 0.0000
# 2 47.6291 102.5978 36.1370 0.0000 0.0000 0.0000
# 3 39.9782 36.1370 95.7176 0.0000 0.0000 0.0000
# 4 0.0000 0.0000 0.0000 32.9300 0.0000 0.0000
# 5 0.0000 0.0000 0.0000 0.0000 5.2468 0.0000
# 6 0.0000 0.0000 0.0000 0.0000 0.0000 12.1443
#
#
#
# Elastic Compliance Matrix: (Units=1/GPa)
#
#
# Indices 1 2 3 4 5 6 
#
# 1 0.010770 -0.003939 -0.003011 0.000000 0.000000 0.000000
# 2 -0.003939 0.012682 -0.003143 0.000000 0.000000 0.000000
# 3 -0.003011 -0.003143 0.012892 0.000000 0.000000 0.000000
# 4 0.000000 0.000000 0.000000 0.030367 0.000000 0.000000
# 5 0.000000 0.000000 0.000000 0.000000 0.190591 0.000000
# 6 0.000000 0.000000 0.000000 0.000000 0.000000 0.082343
#
#
# Mechanical properties :
#
#
# Convention : Reuss Voigt Hill
#
# Bulk Modulus (GPa) = 61.88984 63.02844 62.45914
# Shear Modulus (GPa) = 13.69051 23.13242 18.41147
#
# Velocity S-wave (km/s) = 2.64755 3.44147 3.07028
# Velocity P-wave (km/s) = 6.40573 6.93268 6.67441
#
# Compressibility (1/GPa) = 0.01615774
#
# Stress axis : x y z
#
# Youngs Moduli (GPa) = 92.85404 78.84933 77.57030
#
# Poissons Ratio (x) = 0.31059 0.23356
# Poissons Ratio (y) = 0.36576 0.24379
# Poissons Ratio (z) = 0.27958 0.24781
#
# Static dielectric constant tensor:
#      x y z
#    x 1.628240 0.000000 0.000000 
#    y 0.000000 1.705500 0.000000 
#    z 0.000000 0.000000 1.686880 
# 
# From -- ./inp_files/749.got.cif
#   From: 2010.05.17/outbox.cif.g08.bks.cpg/sg40_1_cif.got.tgz:749.got - 2010.06.03 18:35:42.
