data_PCOD9364931
_publ_section_title
;
Structure prediction by ZEFSAII (Michael W. Deem and Ramdas Pophale) SiO2 
 PCOD9364931
Probable space group: A M A 2
;
_chemical_formula_sum "Si O2"
_cell_formula_units_Z 48
_cell_length_a 23.965073
_cell_length_b 7.210642
_cell_length_c 13.271908
_cell_angle_alpha 90.000000
_cell_angle_beta 90.000000
_cell_angle_gamma 90.000000
_cell_volume 2293.432976
_symmetry_space_group_name_H-M "A M A 2"
_symmetry_group_IT_number 40
_symmetry_cell_setting 'orthorhombic'
loop_
_space_group_symop_operation_xyz
x,y,z
-x,-y,z
1/2-x,y,z
1/2+x,-y,z
x,1/2+y,1/2+z
-x,1/2-y,1/2+z
1/2-x,1/2+y,1/2+z
1/2+x,1/2-y,1/2+z
loop_
_atom_site_type_symbol
_atom_site_label
_atom_site_fract_x
_atom_site_fract_y
_atom_site_fract_z
Si Si1 0.750000 0.507416 0.202021
Si Si2 0.250000 0.231296 0.523374
Si Si3 0.750000 0.397290 0.798902
Si Si4 0.916882 0.368333 0.453879
Si Si5 0.500000 0.500000 0.302806
Si Si6 0.439576 0.936368 0.604373
Si Si7 0.126116 0.796685 0.073218
Si Si8 0.840465 0.716823 0.783718
O O1 0.750000 0.462776 0.083583
O O2 0.750000 0.725081 0.222349
O O3 0.802874 0.393734 0.247613
O O4 0.250000 0.202750 0.406001
O O5 0.192342 0.325951 0.556383
O O6 0.802148 0.535906 0.792810
O O7 0.925367 0.257786 0.556478
O O8 0.904267 0.576120 0.491681
O O9 0.868172 0.277348 0.387604
O O10 0.969719 0.361096 0.379147
O O11 0.451646 0.432499 0.224880
O O12 0.500000 0.000000 0.563845
O O13 0.394402 0.084993 0.566839
O O14 0.116832 0.830861 0.192683
#
# Coordination Sequence:
#
# PCOD9364931 Si02
#       8
#     4   4   4   8   4   8   8   8
#     4   9  21  39  62  84 134 172 208 281 319 377
#     4  10  22  40  64  94 140 172 229 286 317 418
#     4  11  21  37  60  94 120 184 221 251 348 389
#     4  12  23  43  70  90 130 180 207 282 352 394
#     4  10  24  46  66  96 134 160 226 288 330 412
#     4  10  23  46  65 100 133 165 234 278 332 418
#     4  11  23  44  65  98 135 179 228 278 343 412
#     4  10  22  39  59  94 132 161 225 274 313 407
#
# _framework density 20.929321999999999
#
# number of rings (size 3 to 8) (size 9 to 14) (size 15 to 20)
#    0.500    1.000    1.667    3.500    0.000    4.667 
#    9.000    2.500    0.000    0.000    0.000    0.000 
#    0.000    0.000    0.000    0.000    0.000    0.000 
#
# Total GULP energy -133756.313536 kJ/mol
# GULP energy per Si atom -5573.179731 kJ/mol
# Density = 2.088169 g / cm^3
# Si number density = 20.929322 Si / 1000 Ang^3
#
#
#
# Elastic Constant Matrix: (Units=GPa)
#
#
# Indices 1 2 3 4 5 6 
#
# 1 48.2066 5.2707 0.7950 0.0000 0.0000 0.0000
# 2 5.2707 67.0786 18.1003 0.0000 0.0000 0.0000
# 3 0.7950 18.1003 88.0551 0.0000 0.0000 0.0000
# 4 0.0000 0.0000 0.0000 21.7649 0.0000 0.0000
# 5 0.0000 0.0000 0.0000 0.0000 17.9102 0.0000
# 6 0.0000 0.0000 0.0000 0.0000 0.0000 10.6708
#
#
#
# Elastic Compliance Matrix: (Units=1/GPa)
#
#
# Indices 1 2 3 4 5 6 
#
# 1 0.020926 -0.001687 0.000158 0.000000 0.000000 0.000000
# 2 -0.001687 0.015919 -0.003257 0.000000 0.000000 0.000000
# 3 0.000158 -0.003257 0.012025 0.000000 0.000000 0.000000
# 4 0.000000 0.000000 0.000000 0.045946 0.000000 0.000000
# 5 0.000000 0.000000 0.000000 0.000000 0.055834 0.000000
# 6 0.000000 0.000000 0.000000 0.000000 0.000000 0.093713
#
#
# Mechanical properties :
#
#
# Convention : Reuss Voigt Hill
#
# Bulk Modulus (GPa) = 25.44686 27.96358 26.70522
# Shear Modulus (GPa) = 18.72418 22.01413 20.36916
#
# Velocity S-wave (km/s) = 2.99430 3.24671 3.12306
# Velocity P-wave (km/s) = 4.91317 5.23878 5.07859
#
# Compressibility (1/GPa) = 0.03929759
#
# Stress axis : x y z
#
# Youngs Moduli (GPa) = 47.78773 62.81679 83.16277
#
# Poissons Ratio (x) = 0.10596 -0.01313
# Poissons Ratio (y) = 0.08061 0.27087
# Poissons Ratio (z) = -0.00754 0.20460
#
# Static dielectric constant tensor:
#      x y z
#    x 1.823250 0.000000 0.000000 
#    y 0.000000 1.753830 0.000000 
#    z 0.000000 0.000000 1.748630 
# 
# From -- ./inp_files/18684.got.cif
#   From: 2010.05.17/outbox.cif.g08.bks.cpg/sg40_10_cif.got.tgz:18684.got - 2010.06.03 18:35:42.
