data_PCOD9364864
_publ_section_title
;
Structure prediction by ZEFSAII (Michael W. Deem and Ramdas Pophale) SiO2 
 PCOD9364864
Probable space group: A M A 2
;
_chemical_formula_sum "Si O2"
_cell_formula_units_Z 40
_cell_length_a 18.566437
_cell_length_b 11.951990
_cell_length_c 7.948728
_cell_angle_alpha 90.000000
_cell_angle_beta 90.000000
_cell_angle_gamma 90.000000
_cell_volume 1763.869397
_symmetry_space_group_name_H-M "A M A 2"
_symmetry_group_IT_number 40
_symmetry_cell_setting 'orthorhombic'
loop_
_space_group_symop_operation_xyz
x,y,z
-x,-y,z
1/2-x,y,z
1/2+x,-y,z
x,1/2+y,1/2+z
-x,1/2-y,1/2+z
1/2-x,1/2+y,1/2+z
1/2+x,1/2-y,1/2+z
loop_
_atom_site_type_symbol
_atom_site_label
_atom_site_fract_x
_atom_site_fract_y
_atom_site_fract_z
Si Si1 0.334679 0.001791 0.716600
Si Si2 0.834627 0.254169 0.177098
Si Si3 0.833488 0.011166 0.317625
Si Si4 0.061611 0.320582 0.385546
Si Si5 0.039680 0.607372 0.671136
O O1 0.250000 0.972090 0.746700
O O2 0.346399 0.007578 0.514989
O O3 0.389327 0.913684 0.795627
O O4 0.346960 0.129744 0.773335
O O5 0.750000 0.255305 0.126921
O O6 0.848023 0.141753 0.281751
O O7 0.885606 0.241553 0.016832
O O8 0.750000 0.990308 0.284910
O O9 0.878808 0.933226 0.192842
O O10 0.031795 0.225608 0.262940
O O11 0.997751 0.376111 0.492156
O O12 0.000000 0.500000 0.755225
#
# Coordination Sequence:
#
# PCOD9364864 Si02
#       5
#     8   8   8   8   8
#     4  10  23  45  76 108 139 188 241 296 354 420
#     4  10  21  44  73 104 141 181 235 299 352 422
#     4  10  22  47  76 103 140 184 238 299 359 421
#     4  12  27  43  72 101 150 191 240 287 363 424
#     4  12  28  48  68 104 147 191 237 295 359 426
#
# _framework density 22.677416000000001
#
# number of rings (size 3 to 8) (size 9 to 14) (size 15 to 20)
#    0.000    1.200    4.000    0.600    2.800    4.000 
#    0.000    0.000    0.000    1.200    0.000    0.000 
#    0.000    0.000    0.000    0.000    0.000    0.000 
#
# Total GULP energy -111887.967531 kJ/mol
# GULP energy per Si atom -5594.398377 kJ/mol
# Density = 2.262580 g / cm^3
# Si number density = 22.677416 Si / 1000 Ang^3
#
#
#
# Elastic Constant Matrix: (Units=GPa)
#
#
# Indices 1 2 3 4 5 6 
#
# 1 124.8693 87.7462 78.4813 0.0000 0.0000 0.0000
# 2 87.7462 174.4068 74.9156 0.0000 0.0000 0.0000
# 3 78.4813 74.9156 69.8658 0.0000 0.0000 0.0000
# 4 0.0000 0.0000 0.0000 26.3120 0.0000 0.0000
# 5 0.0000 0.0000 0.0000 0.0000 43.1072 0.0000
# 6 0.0000 0.0000 0.0000 0.0000 0.0000 43.8856
#
#
#
# Elastic Compliance Matrix: (Units=1/GPa)
#
#
# Indices 1 2 3 4 5 6 
#
# 1 0.027343 -0.001044 -0.029595 0.000000 0.000000 0.000000
# 2 -0.001044 0.010670 -0.010268 0.000000 0.000000 0.000000
# 3 -0.029595 -0.010268 0.058567 0.000000 0.000000 0.000000
# 4 0.000000 0.000000 0.000000 0.038005 0.000000 0.000000
# 5 0.000000 0.000000 0.000000 0.000000 0.023198 0.000000
# 6 0.000000 0.000000 0.000000 0.000000 0.000000 0.022786
#
#
# Mechanical properties :
#
#
# Convention : Reuss Voigt Hill
#
# Bulk Modulus (GPa) = 67.72286 94.60314 81.16300
# Shear Modulus (GPa) = 18.70522 31.19424 24.94973
#
# Velocity S-wave (km/s) = 2.87512 3.71288 3.32053
# Velocity P-wave (km/s) = 6.39923 7.75810 7.11120
#
# Compressibility (1/GPa) = 0.01476606
#
# Stress axis : x y z
#
# Youngs Moduli (GPa) = 36.57295 93.72483 17.07433
#
# Poissons Ratio (x) = 0.09786 0.50531
# Poissons Ratio (y) = 0.03819 0.17532
# Poissons Ratio (z) = 1.08237 0.96235
#
# Static dielectric constant tensor:
#      x y z
#    x 1.879960 0.000000 0.000000 
#    y 0.000000 1.897890 0.000000 
#    z 0.000000 0.000000 1.862760 
# 
# From -- ./inp_files/7135.got.cif
#   From: 2010.05.17/outbox.cif.g08.bks.cpg/sg40_4_cif.got.tgz:7135.got - 2010.06.03 18:35:42.
