data_PCOD9364517
_publ_section_title
;
Structure prediction by ZEFSAII (Michael W. Deem and Ramdas Pophale) SiO2 
 PCOD9364517
Probable space group: A M A 2
;
_chemical_formula_sum "Si O2"
_cell_formula_units_Z 56
_cell_length_a 18.478419
_cell_length_b 18.861312
_cell_length_c 8.598253
_cell_angle_alpha 90.000000
_cell_angle_beta 90.000000
_cell_angle_gamma 90.000000
_cell_volume 2996.725267
_symmetry_space_group_name_H-M "A M A 2"
_symmetry_group_IT_number 40
_symmetry_cell_setting 'orthorhombic'
loop_
_space_group_symop_operation_xyz
x,y,z
-x,-y,z
1/2-x,y,z
1/2+x,-y,z
x,1/2+y,1/2+z
-x,1/2-y,1/2+z
1/2-x,1/2+y,1/2+z
1/2+x,1/2-y,1/2+z
loop_
_atom_site_type_symbol
_atom_site_label
_atom_site_fract_x
_atom_site_fract_y
_atom_site_fract_z
Si Si1 0.535345 0.431519 0.594170
Si Si2 0.051271 0.696044 0.360928
Si Si3 0.408035 0.914370 0.344854
Si Si4 0.664227 0.718701 0.678902
Si Si5 0.835927 0.940132 0.293079
Si Si6 0.560689 0.690934 0.098184
Si Si7 0.336611 0.725381 0.835116
O O1 0.500000 0.500000 0.515212
O O2 0.539990 0.364096 0.486875
O O3 0.484630 0.421478 0.749559
O O4 0.618722 0.445483 0.634559
O O5 0.127521 0.721390 0.288597
O O6 0.027240 0.765874 0.453704
O O7 0.001455 0.676357 0.218762
O O8 0.364281 0.858037 0.236495
O O9 0.411112 0.878390 0.513395
O O10 0.370130 0.990288 0.372379
O O11 0.750000 0.721172 0.695492
O O12 0.646468 0.735599 0.498493
O O13 0.750000 0.947271 0.281150
O O14 0.851513 0.859440 0.350530
O O15 0.619348 0.738763 0.192408
O O16 0.250000 0.732144 0.806966
#
# Coordination Sequence:
#
# PCOD9364517 Si02
#       7
#     8   8   8   8   8   8   8
#     4  10  21  39  57  86 116 158 197 236 290 352
#     4  11  21  35  58  84 119 148 195 244 290 340
#     4  10  22  39  62  85 117 153 198 242 287 349
#     4  10  22  37  59  87 116 153 195 243 294 344
#     4  10  21  38  61  84 116 153 190 236 291 348
#     4  11  21  35  60  88 110 153 194 245 290 344
#     4  10  21  37  59  85 116 149 192 243 292 345
#
# _framework density 18.687066999999999
#
# number of rings (size 3 to 8) (size 9 to 14) (size 15 to 20)
#    0.000    1.714    1.429    3.857    2.000    3.429 
#    2.571    0.000    0.000    0.000    0.000    0.000 
#    0.000    0.000    0.000    0.000    0.000    0.000 
#
# Total GULP energy -155899.923168 kJ/mol
# GULP energy per Si atom -5567.854399 kJ/mol
# Density = 1.864453 g / cm^3
# Si number density = 18.687067 Si / 1000 Ang^3
#
#
#
# Elastic Constant Matrix: (Units=GPa)
#
#
# Indices 1 2 3 4 5 6 
#
# 1 74.9603 40.7437 32.1873 0.0000 0.0000 0.0000
# 2 40.7437 85.0622 19.2218 0.0000 0.0000 0.0000
# 3 32.1873 19.2218 62.3025 0.0000 0.0000 0.0000
# 4 0.0000 0.0000 0.0000 8.7623 0.0000 0.0000
# 5 0.0000 0.0000 0.0000 0.0000 0.5489 0.0000
# 6 0.0000 0.0000 0.0000 0.0000 0.0000 -15.6913
#
#
#
# Elastic Compliance Matrix: (Units=1/GPa)
#
#
# Indices 1 2 3 4 5 6 
#
# 1 0.021583 -0.008404 -0.008557 0.000000 0.000000 0.000000
# 2 -0.008404 0.015910 -0.000567 0.000000 0.000000 0.000000
# 3 -0.008557 -0.000567 0.020647 0.000000 0.000000 0.000000
# 4 0.000000 0.000000 0.000000 0.114125 0.000000 0.000000
# 5 0.000000 0.000000 0.000000 0.000000 1.821932 0.000000
# 6 0.000000 0.000000 0.000000 0.000000 0.000000 -0.063730
#
#
# Mechanical properties :
#
#
# Convention : Reuss Voigt Hill
#
# Bulk Modulus (GPa) = 43.32283 45.18118 44.25201
# Shear Modulus (GPa) = 2.53393 7.40212 4.96803
#
# Velocity S-wave (km/s) = 1.16573 1.99241 1.63227
# Velocity P-wave (km/s) = 5.00455 5.43353 5.22344
#
# Compressibility (1/GPa) = 0.02308252
#
# Stress axis : x y z
#
# Youngs Moduli (GPa) = 46.33299 62.85491 48.43416
#
# Poissons Ratio (x) = 0.52824 0.41447
# Poissons Ratio (y) = 0.38939 0.02745
# Poissons Ratio (z) = 0.39649 0.03562
#
# Static dielectric constant tensor:
#      x y z
#    x 1.672310 0.000000 0.000000 
#    y 0.000000 1.921910 0.000000 
#    z 0.000000 0.000000 1.665210 
# 
# From -- ./inp_files/8402.got.cif
#   From: 2010.05.17/outbox.cif.g08.bks.cpg/sg40_5_cif.got.tgz:8402.got - 2010.06.03 18:35:42.
