data_PCOD9364973
_publ_section_title
;
Structure prediction by ZEFSAII (Michael W. Deem and Ramdas Pophale) SiO2 
 PCOD9364973
Probable space group: A M A 2
;
_chemical_formula_sum "Si O2"
_cell_formula_units_Z 48
_cell_length_a 18.980456
_cell_length_b 15.424951
_cell_length_c 7.885504
_cell_angle_alpha 90.000000
_cell_angle_beta 90.000000
_cell_angle_gamma 90.000000
_cell_volume 2308.659538
_symmetry_space_group_name_H-M "A M A 2"
_symmetry_group_IT_number 40
_symmetry_cell_setting 'orthorhombic'
loop_
_space_group_symop_operation_xyz
x,y,z
-x,-y,z
1/2-x,y,z
1/2+x,-y,z
x,1/2+y,1/2+z
-x,1/2-y,1/2+z
1/2-x,1/2+y,1/2+z
1/2+x,1/2-y,1/2+z
loop_
_atom_site_type_symbol
_atom_site_label
_atom_site_fract_x
_atom_site_fract_y
_atom_site_fract_z
Si Si1 0.097047 0.771258 0.681160
Si Si2 0.331837 0.935410 0.796009
Si Si3 0.829953 0.876291 0.766751
Si Si4 0.445810 0.757889 0.291255
Si Si5 0.071357 0.445973 0.624816
Si Si6 0.831077 0.904126 0.180253
O O1 0.150428 0.850701 0.690627
O O2 0.074356 0.762141 0.487064
O O3 0.134352 0.684083 0.746307
O O4 0.023267 0.782613 0.777046
O O5 0.250000 0.936244 0.850842
O O6 0.344076 0.026573 0.700872
O O7 0.384617 0.929646 0.954203
O O8 0.750000 0.849603 0.725520
O O9 0.887262 0.806233 0.712556
O O10 0.832749 0.891243 0.973019
O O11 0.444474 0.854118 0.212089
O O12 0.122274 0.512496 0.725648
O O13 0.000000 0.500000 0.591199
O O14 0.750000 0.913776 0.230194
#
# Coordination Sequence:
#
# PCOD9364973 Si02
#       6
#     8   8   8   8   8   8
#     4  11  22  38  62  88 126 159 207 257 304 363
#     4  10  22  40  64  91 118 158 207 250 307 373
#     4   8  18  36  58  82 113 154 199 242 296 366
#     4  11  23  39  59  92 121 163 205 254 307 362
#     4  11  21  39  61  89 121 160 206 249 302 373
#     4   9  18  36  60  82 114 162 201 238 297 367
#
# _framework density 20.791284999999998
#
# number of rings (size 3 to 8) (size 9 to 14) (size 15 to 20)
#    0.000    2.000    1.667    3.000    4.667    2.000 
#    3.000    0.000    0.000    4.000    0.000    0.000 
#    0.000    0.000    0.000    0.000    0.000    0.000 
#
# Total GULP energy -133987.882065 kJ/mol
# GULP energy per Si atom -5582.828419 kJ/mol
# Density = 2.074396 g / cm^3
# Si number density = 20.791285 Si / 1000 Ang^3
#
#
#
# Elastic Constant Matrix: (Units=GPa)
#
#
# Indices 1 2 3 4 5 6 
#
# 1 143.4998 64.8718 10.8025 0.0000 0.0000 0.0000
# 2 64.8718 124.8055 3.4360 0.0000 0.0000 0.0000
# 3 10.8025 3.4360 19.6440 0.0000 0.0000 0.0000
# 4 0.0000 0.0000 0.0000 -0.0184 0.0000 0.0000
# 5 0.0000 0.0000 0.0000 0.0000 19.3829 0.0000
# 6 0.0000 0.0000 0.0000 0.0000 0.0000 47.1901
#
#
#
# Elastic Compliance Matrix: (Units=1/GPa)
#
#
# Indices 1 2 3 4 5 6 
#
# 1 0.009468 -0.004801 -0.004367 0.000000 0.000000 0.000000
# 2 -0.004801 0.010486 0.000806 0.000000 0.000000 0.000000
# 3 -0.004367 0.000806 0.053166 0.000000 0.000000 0.000000
# 4 0.000000 0.000000 0.000000-54.253136 0.000000 0.000000
# 5 0.000000 0.000000 0.000000 0.000000 0.051592 0.000000
# 6 0.000000 0.000000 0.000000 0.000000 0.000000 0.021191
#
#
# Mechanical properties :
#
#
# Convention : Reuss Voigt Hill
#
# Bulk Modulus (GPa) = 17.73155 49.57443 33.65299
# Shear Modulus (GPa) = -0.09247 27.23351 13.57052
#
# Velocity S-wave (km/s) = -0.21112 3.62311 2.55758
# Velocity P-wave (km/s) = 2.91332 6.43414 4.99428
#
# Compressibility (1/GPa) = 0.05639665
#
# Stress axis : x y z
#
# Youngs Moduli (GPa) = 105.62187 95.36769 18.80886
#
# Poissons Ratio (x) = 0.45786 0.08213
# Poissons Ratio (y) = 0.50709 -0.01516
# Poissons Ratio (z) = 0.46122 -0.07687
#
# Static dielectric constant tensor:
#      x y z
#    x 1.735870 0.000000 0.000000 
#    y 0.000000 1.797810 0.000000 
#    z 0.000000 0.000000 1.780530 
# 
# From -- ./inp_files/7465.got.cif
#   From: 2010.05.17/outbox.cif.g08.bks.cpg/sg40_4_cif.got.tgz:7465.got - 2010.06.03 18:35:42.
