data_PCOD9364080
_publ_section_title
;
Structure prediction by ZEFSAII (Michael W. Deem and Ramdas Pophale) SiO2 
 PCOD9364080
Probable space group: A M A 2
;
_chemical_formula_sum "Si O2"
_cell_formula_units_Z 64
_cell_length_a 31.598319
_cell_length_b 7.709589
_cell_length_c 11.634626
_cell_angle_alpha 90.000000
_cell_angle_beta 90.000000
_cell_angle_gamma 90.000000
_cell_volume 2834.311852
_symmetry_space_group_name_H-M "A M A 2"
_symmetry_group_IT_number 40
_symmetry_cell_setting 'orthorhombic'
loop_
_space_group_symop_operation_xyz
x,y,z
-x,-y,z
1/2-x,y,z
1/2+x,-y,z
x,1/2+y,1/2+z
-x,1/2-y,1/2+z
1/2-x,1/2+y,1/2+z
1/2+x,1/2-y,1/2+z
loop_
_atom_site_type_symbol
_atom_site_label
_atom_site_fract_x
_atom_site_fract_y
_atom_site_fract_z
Si Si1 0.102677 0.626332 0.740470
Si Si2 0.703744 0.439588 0.265071
Si Si3 0.020128 0.312543 0.935315
Si Si4 0.991216 0.296390 0.690500
Si Si5 0.677201 0.710674 0.091297
Si Si6 0.296318 0.919848 0.009241
Si Si7 0.106585 0.985616 0.484058
Si Si8 0.130436 0.756255 0.158943
O O1 0.059128 0.719355 0.709212
O O2 0.141518 0.721304 0.680378
O O3 0.106090 0.614994 0.876920
O O4 0.104202 0.424341 0.697930
O O5 0.750000 0.351622 0.276793
O O6 0.703107 0.561413 0.153516
O O7 0.699587 0.566541 0.373212
O O8 0.662144 0.320475 0.255237
O O9 0.999671 0.256450 0.057810
O O10 0.000000 0.500000 0.916771
O O11 0.069361 0.347789 0.961412
O O12 0.012710 0.222920 0.809450
O O13 0.000000 0.500000 0.688557
O O14 0.650439 0.617421 0.992051
O O15 0.701382 0.880368 0.051092
O O16 0.250000 0.847083 0.039131
O O17 0.335178 0.820985 0.065347
O O18 0.103770 0.102471 0.599612
#
# Coordination Sequence:
#
# PCOD9364080 Si02
#       8
#     8   8   8   8   8   8   8   8
#     4  11  21  39  60  85 119 156 199 251 294 359
#     4  10  20  37  58  86 121 157 197 243 293 352
#     4  11  24  43  64  90 122 159 200 251 309 366
#     4  11  24  43  64  90 122 159 200 251 309 366
#     4  10  21  36  59  88 118 156 204 242 303 344
#     4  10  20  37  58  86 121 157 197 243 293 352
#     4  11  21  39  60  85 119 156 199 251 294 359
#     4  10  23  36  59  90 118 156 200 242 303 342
#
# _framework density 22.580437
#
# number of rings (size 3 to 8) (size 9 to 14) (size 15 to 20)
#    0.000    1.500    3.750    2.250    1.750    0.500 
#    0.000    0.000    0.000   12.000    0.000    0.000 
#    0.000    0.000    0.000    0.000    0.000    0.000 
#
# Total GULP energy -178550.802910 kJ/mol
# GULP energy per Si atom -5579.712591 kJ/mol
# Density = 2.252904 g / cm^3
# Si number density = 22.580437 Si / 1000 Ang^3
#
#
#
# Elastic Constant Matrix: (Units=GPa)
#
#
# Indices 1 2 3 4 5 6 
#
# 1 73.0939 -10.3975 4.6580 0.0000 0.0000 0.0000
# 2 -10.3975 43.7872 1.5008 0.0000 0.0000 0.0000
# 3 4.6580 1.5008 75.6200 0.0000 0.0000 0.0000
# 4 0.0000 0.0000 0.0000 31.2580 0.0000 0.0000
# 5 0.0000 0.0000 0.0000 0.0000 0.5624 0.0000
# 6 0.0000 0.0000 0.0000 0.0000 0.0000 -12.1750
#
#
#
# Elastic Compliance Matrix: (Units=1/GPa)
#
#
# Indices 1 2 3 4 5 6 
#
# 1 0.014226 0.003410 -0.000944 0.000000 0.000000 0.000000
# 2 0.003410 0.023671 -0.000680 0.000000 0.000000 0.000000
# 3 -0.000944 -0.000680 0.013296 0.000000 0.000000 0.000000
# 4 0.000000 0.000000 0.000000 0.031992 0.000000 0.000000
# 5 0.000000 0.000000 0.000000 0.000000 1.778023 0.000000
# 6 0.000000 0.000000 0.000000 0.000000 0.000000 -0.082135
#
#
# Mechanical properties :
#
#
# Convention : Reuss Voigt Hill
#
# Bulk Modulus (GPa) = 18.25949 20.44708 19.35328
# Shear Modulus (GPa) = 2.78745 17.04507 9.91626
#
# Velocity S-wave (km/s) = 1.11226 2.75045 2.09787
# Velocity P-wave (km/s) = 3.12306 4.37739 3.80230
#
# Compressibility (1/GPa) = 0.05476604
#
# Stress axis : x y z
#
# Youngs Moduli (GPa) = 70.29221 42.24609 75.21250
#
# Poissons Ratio (x) = -0.14408 0.07100
# Poissons Ratio (y) = -0.23973 0.05113
# Poissons Ratio (z) = 0.06636 0.02872
#
# Static dielectric constant tensor:
#      x y z
#    x 1.882820 0.000000 0.000000 
#    y 0.000000 1.812700 0.000000 
#    z 0.000000 0.000000 1.896260 
# 
# From -- ./inp_files/14422.got.cif
#   From: 2010.05.17/outbox.cif.g08.bks.cpg/sg40_8_cif.got.tgz:14422.got - 2010.06.03 18:35:42.
