data_PCOD9364565
_publ_section_title
;
Structure prediction by ZEFSAII (Michael W. Deem and Ramdas Pophale) SiO2 
 PCOD9364565
Probable space group: A M A 2
;
_chemical_formula_sum "Si O2"
_cell_formula_units_Z 56
_cell_length_a 16.700038
_cell_length_b 30.618232
_cell_length_c 5.459645
_cell_angle_alpha 90.000000
_cell_angle_beta 90.000000
_cell_angle_gamma 90.000000
_cell_volume 2791.656462
_symmetry_space_group_name_H-M "A M A 2"
_symmetry_group_IT_number 40
_symmetry_cell_setting 'orthorhombic'
loop_
_space_group_symop_operation_xyz
x,y,z
-x,-y,z
1/2-x,y,z
1/2+x,-y,z
x,1/2+y,1/2+z
-x,1/2-y,1/2+z
1/2-x,1/2+y,1/2+z
1/2+x,1/2-y,1/2+z
loop_
_atom_site_type_symbol
_atom_site_label
_atom_site_fract_x
_atom_site_fract_y
_atom_site_fract_z
Si Si1 0.250000 0.128002 0.020880
Si Si2 0.750000 0.818830 0.518791
Si Si3 0.604118 0.936253 0.119375
Si Si4 0.012187 0.952800 0.525089
Si Si5 0.076366 0.712139 0.075289
Si Si6 0.507103 0.690399 0.574983
Si Si7 0.157975 0.470107 0.654249
Si Si8 0.562708 0.100794 0.912173
O O1 0.250000 0.162509 0.243232
O O2 0.329229 0.099413 0.068477
O O3 0.250000 0.146264 0.743665
O O4 0.829550 0.791260 0.551597
O O5 0.572571 0.941105 0.398832
O O6 0.641157 0.982446 0.037886
O O7 0.520578 0.922685 0.995859
O O8 0.085130 0.966158 0.345831
O O9 0.047606 0.907249 0.627530
O O10 0.000000 0.000000 0.662571
O O11 0.050179 0.762700 0.072066
O O12 0.037150 0.688616 0.837421
O O13 0.050048 0.691548 0.335183
O O14 0.562751 0.648570 0.524562
O O15 0.250000 0.468833 0.741406
O O16 0.137842 0.429317 0.480031
#
# Coordination Sequence:
#
# PCOD9364565 Si02
#       8
#     4   4   8   8   8   8   8   8
#     4  12  26  38  64 101 125 170 202 266 320 386
#     4  12  24  40  64  95 133 154 204 266 324 380
#     4  10  21  38  57  87 126 162 210 255 316 363
#     4   9  20  36  58  82 116 167 213 257 310 366
#     4  10  22  44  63  96 124 163 198 263 326 383
#     4  10  23  40  70  89 124 163 214 250 317 380
#     4  10  21  39  55  82 129 166 204 263 309 366
#     4  11  21  36  63  88 113 165 216 262 295 383
#
# _framework density 20.059774999999998
#
# number of rings (size 3 to 8) (size 9 to 14) (size 15 to 20)
#    0.000    1.714    0.714    4.714    8.000    0.571 
#    1.286    0.000    0.000    0.000    0.000    0.000 
#    0.000    0.000    0.000    0.000    0.000    0.000 
#
# Total GULP energy -155892.333540 kJ/mol
# GULP energy per Si atom -5567.583341 kJ/mol
# Density = 2.001412 g / cm^3
# Si number density = 20.059775 Si / 1000 Ang^3
#
#
#
# Elastic Constant Matrix: (Units=GPa)
#
#
# Indices 1 2 3 4 5 6 
#
# 1 81.3424 0.7499 -5.0432 0.0000 0.0000 0.0000
# 2 0.7499 39.1433 8.1149 0.0000 0.0000 0.0000
# 3 -5.0432 8.1149 43.3388 0.0000 0.0000 0.0000
# 4 0.0000 0.0000 0.0000 21.0472 0.0000 0.0000
# 5 0.0000 0.0000 0.0000 0.0000 14.2860 0.0000
# 6 0.0000 0.0000 0.0000 0.0000 0.0000 21.7642
#
#
#
# Elastic Compliance Matrix: (Units=1/GPa)
#
#
# Indices 1 2 3 4 5 6 
#
# 1 0.012395 -0.000558 0.001547 0.000000 0.000000 0.000000
# 2 -0.000558 0.026604 -0.005046 0.000000 0.000000 0.000000
# 3 0.001547 -0.005046 0.024199 0.000000 0.000000 0.000000
# 4 0.000000 0.000000 0.000000 0.047512 0.000000 0.000000
# 5 0.000000 0.000000 0.000000 0.000000 0.069999 0.000000
# 6 0.000000 0.000000 0.000000 0.000000 0.000000 0.045947
#
#
# Mechanical properties :
#
#
# Convention : Reuss Voigt Hill
#
# Bulk Modulus (GPa) = 18.15463 19.05196 18.60330
# Shear Modulus (GPa) = 19.75254 22.08633 20.91944
#
# Velocity S-wave (km/s) = 3.14137 3.32177 3.23283
# Velocity P-wave (km/s) = 4.71461 4.92244 4.81965
#
# Compressibility (1/GPa) = 0.05508237
#
# Stress axis : x y z
#
# Youngs Moduli (GPa) = 80.67920 37.58826 41.32410
#
# Poissons Ratio (x) = 0.02098 -0.06392
# Poissons Ratio (y) = 0.04503 0.20854
# Poissons Ratio (z) = -0.12480 0.18969
#
# Static dielectric constant tensor:
#      x y z
#    x 1.652900 0.000000 0.000000 
#    y 0.000000 1.744670 0.000000 
#    z 0.000000 0.000000 1.976900 
# 
# From -- ./inp_files/1498.got.cif
#   From: 2010.05.17/outbox.cif.g08.bks.cpg/sg40_1_cif.got.tgz:1498.got - 2010.06.03 18:35:42.
