data_PCOD9364032
_publ_section_title
;
Structure prediction by ZEFSAII (Michael W. Deem and Ramdas Pophale) SiO2 
 PCOD9364032
Probable space group: A M A 2
;
_chemical_formula_sum "Si O2"
_cell_formula_units_Z 60
_cell_length_a 15.551842
_cell_length_b 16.446450
_cell_length_c 11.246817
_cell_angle_alpha 90.000000
_cell_angle_beta 90.000000
_cell_angle_gamma 90.000000
_cell_volume 2876.627534
_symmetry_space_group_name_H-M "A M A 2"
_symmetry_group_IT_number 40
_symmetry_cell_setting 'orthorhombic'
loop_
_space_group_symop_operation_xyz
x,y,z
-x,-y,z
1/2-x,y,z
1/2+x,-y,z
x,1/2+y,1/2+z
-x,1/2-y,1/2+z
1/2-x,1/2+y,1/2+z
1/2+x,1/2-y,1/2+z
loop_
_atom_site_type_symbol
_atom_site_label
_atom_site_fract_x
_atom_site_fract_y
_atom_site_fract_z
Si Si1 0.912169 0.963711 0.246000
Si Si2 0.655346 0.511763 0.498798
Si Si3 0.452852 0.381949 0.322300
Si Si4 0.500000 0.500000 0.121838
Si Si5 0.958168 0.280323 0.688220
Si Si6 0.844890 0.049545 0.447626
Si Si7 0.348421 0.298421 0.768868
Si Si8 0.612755 0.831088 0.957095
O O1 0.894527 0.013999 0.124633
O O2 0.925070 0.869032 0.225580
O O3 0.843156 0.980305 0.346489
O O4 0.000000 0.000000 0.296338
O O5 0.750000 0.546032 0.516955
O O6 0.614012 0.556862 0.385132
O O7 0.661149 0.414533 0.481688
O O8 0.503685 0.424543 0.213639
O O9 0.428702 0.293159 0.273152
O O10 0.518854 0.364889 0.426857
O O11 0.582883 0.522850 0.042118
O O12 0.908068 0.269442 0.563930
O O13 0.063632 0.288248 0.690093
O O14 0.750000 0.060002 0.502402
O O15 0.863323 0.129098 0.365402
O O16 0.250000 0.309155 0.719697
O O17 0.348924 0.216782 0.847271
#
# Coordination Sequence:
#
# PCOD9364032 Si02
#       8
#     8   8   8   4   8   8   8   8
#     4  11  20  40  66  93 123 168 216 268 329 395
#     4  11  22  38  62  94 129 167 216 276 328 391
#     4  11  23  40  63  93 126 170 219 264 335 400
#     4  12  22  42  60  90 132 176 212 272 330 398
#     4  10  21  37  65  90 124 170 214 261 330 394
#     4  11  23  39  64  94 126 169 220 267 327 396
#     4  10  20  36  60  93 122 156 212 270 317 381
#     4  10  20  40  61  87 125 171 214 256 321 398
#
# _framework density 20.857756999999999
#
# number of rings (size 3 to 8) (size 9 to 14) (size 15 to 20)
#    0.000    1.333    3.333    3.200    0.000    1.600 
#    0.000    4.667    0.000    0.000    0.000    0.000 
#    0.000    0.000    0.000    0.000    0.000    0.000 
#
# Total GULP energy -167035.000593 kJ/mol
# GULP energy per Si atom -5567.833353 kJ/mol
# Density = 2.081028 g / cm^3
# Si number density = 20.857757 Si / 1000 Ang^3
#
#
#
# Elastic Constant Matrix: (Units=GPa)
#
#
# Indices 1 2 3 4 5 6 
#
# 1 84.8287 26.8117 22.9275 0.0000 0.0000 0.0000
# 2 26.8117 70.7152 21.8067 0.0000 0.0000 0.0000
# 3 22.9275 21.8067 59.7013 0.0000 0.0000 0.0000
# 4 0.0000 0.0000 0.0000 39.4164 0.0000 0.0000
# 5 0.0000 0.0000 0.0000 0.0000 7.3061 0.0000
# 6 0.0000 0.0000 0.0000 0.0000 0.0000 -17.0708
#
#
#
# Elastic Compliance Matrix: (Units=1/GPa)
#
#
# Indices 1 2 3 4 5 6 
#
# 1 0.014163 -0.004161 -0.003919 0.000000 0.000000 0.000000
# 2 -0.004161 0.017159 -0.004669 0.000000 0.000000 0.000000
# 3 -0.003919 -0.004669 0.019961 0.000000 0.000000 0.000000
# 4 0.000000 0.000000 0.000000 0.025370 0.000000 0.000000
# 5 0.000000 0.000000 0.000000 0.000000 0.136872 0.000000
# 6 0.000000 0.000000 0.000000 0.000000 0.000000 -0.058580
#
#
# Mechanical properties :
#
#
# Convention : Reuss Voigt Hill
#
# Bulk Modulus (GPa) = 38.78546 39.81521 39.30034
# Shear Modulus (GPa) = 26.44954 15.51030 20.97992
#
# Velocity S-wave (km/s) = 3.56489 2.72990 3.17497
# Velocity P-wave (km/s) = 5.96491 5.39137 5.68538
#
# Compressibility (1/GPa) = 0.02578286
#
# Stress axis : x y z
#
# Youngs Moduli (GPa) = 70.60651 58.27867 50.09848
#
# Poissons Ratio (x) = 0.24252 0.19634
# Poissons Ratio (y) = 0.29382 0.23393
# Poissons Ratio (z) = 0.27671 0.27213
#
# Static dielectric constant tensor:
#      x y z
#    x 1.819610 0.000000 0.000000 
#    y 0.000000 1.773120 0.000000 
#    z 0.000000 0.000000 1.772660 
# 
# From -- ./inp_files/12399.got.cif
#   From: 2010.05.17/outbox.cif.g08.bks.cpg/sg40_7_cif.got.tgz:12399.got - 2010.06.03 18:35:42.
