data_PCOD9364362
_publ_section_title
;
Structure prediction by ZEFSAII (Michael W. Deem and Ramdas Pophale) SiO2 
 PCOD9364362
Probable space group: A M A 2
;
_chemical_formula_sum "Si O2"
_cell_formula_units_Z 48
_cell_length_a 17.523412
_cell_length_b 9.577958
_cell_length_c 14.924430
_cell_angle_alpha 90.000000
_cell_angle_beta 90.000000
_cell_angle_gamma 90.000000
_cell_volume 2504.894007
_symmetry_space_group_name_H-M "A M A 2"
_symmetry_group_IT_number 40
_symmetry_cell_setting 'orthorhombic'
loop_
_space_group_symop_operation_xyz
x,y,z
-x,-y,z
1/2-x,y,z
1/2+x,-y,z
x,1/2+y,1/2+z
-x,1/2-y,1/2+z
1/2-x,1/2+y,1/2+z
1/2+x,1/2-y,1/2+z
loop_
_atom_site_type_symbol
_atom_site_label
_atom_site_fract_x
_atom_site_fract_y
_atom_site_fract_z
Si Si1 0.837902 0.972063 0.221680
Si Si2 0.416755 0.242025 0.101800
Si Si3 0.661000 0.512336 0.199606
Si Si4 0.163448 0.775287 0.865742
Si Si5 0.504651 0.167406 0.927424
Si Si6 0.440575 0.256024 0.735156
O O1 0.750000 0.016272 0.214833
O O2 0.893250 0.101596 0.235609
O O3 0.862401 0.884136 0.133923
O O4 0.843861 0.863614 0.304779
O O5 0.373715 0.385376 0.124613
O O6 0.489865 0.232783 0.166563
O O7 0.449384 0.228092 0.002970
O O8 0.750000 0.486779 0.183220
O O9 0.654819 0.598560 0.293423
O O10 0.613414 0.371892 0.207380
O O11 0.250000 0.780407 0.902345
O O12 0.093555 0.787698 0.934276
O O13 0.475923 0.220332 0.831447
O O14 0.500000 0.000000 0.931652
#
# Coordination Sequence:
#
# PCOD9364362 Si02
#       6
#     8   8   8   8   8   8
#     4  10  21  40  63  90 125 167 208 261 324 382
#     4  11  23  40  64  91 126 170 214 260 319 382
#     4  10  20  41  65  89 124 165 206 260 319 376
#     4   9  19  38  63  87 120 164 205 254 322 378
#     4  12  22  39  65  98 126 164 223 269 315 381
#     4  12  21  40  64  95 125 162 217 267 316 376
#
# _framework density 19.162486000000001
#
# number of rings (size 3 to 8) (size 9 to 14) (size 15 to 20)
#    0.000    1.333    5.000    4.000    0.000    0.000 
#    6.000    8.333    0.000    0.000    0.000    0.000 
#    0.000    0.000    0.000    0.000    0.000    0.000 
#
# Total GULP energy -134142.393536 kJ/mol
# GULP energy per Si atom -5589.266397 kJ/mol
# Density = 1.911887 g / cm^3
# Si number density = 19.162486 Si / 1000 Ang^3
#
#
#
# Elastic Constant Matrix: (Units=GPa)
#
#
# Indices 1 2 3 4 5 6 
#
# 1 106.2242 9.9579 2.6128 0.0000 0.0000 0.0000
# 2 9.9579 57.1398 -8.4749 0.0000 0.0000 0.0000
# 3 2.6128 -8.4749 29.2705 0.0000 0.0000 0.0000
# 4 0.0000 0.0000 0.0000 7.7076 0.0000 0.0000
# 5 0.0000 0.0000 0.0000 0.0000 35.9317 0.0000
# 6 0.0000 0.0000 0.0000 0.0000 0.0000 -61.5228
#
#
#
# Elastic Compliance Matrix: (Units=1/GPa)
#
#
# Indices 1 2 3 4 5 6 
#
# 1 0.009625 -0.001886 -0.001405 0.000000 0.000000 0.000000
# 2 -0.001886 0.018656 0.005570 0.000000 0.000000 0.000000
# 3 -0.001405 0.005570 0.035902 0.000000 0.000000 0.000000
# 4 0.000000 0.000000 0.000000 0.129742 0.000000 0.000000
# 5 0.000000 0.000000 0.000000 0.000000 0.027831 0.000000
# 6 0.000000 0.000000 0.000000 0.000000 0.000000 -0.016254
#
#
# Mechanical properties :
#
#
# Convention : Reuss Voigt Hill
#
# Bulk Modulus (GPa) = 14.54740 22.31402 18.43071
# Shear Modulus (GPa) = 22.33564 8.99256 15.66410
#
# Velocity S-wave (km/s) = 3.41778 2.16864 2.86218
# Velocity P-wave (km/s) = 4.81488 4.23563 4.53451
#
# Compressibility (1/GPa) = 0.06874081
#
# Stress axis : x y z
#
# Youngs Moduli (GPa) = 103.89172 53.60294 27.85346
#
# Poissons Ratio (x) = 0.10109 0.03914
# Poissons Ratio (y) = 0.19593 -0.15514
# Poissons Ratio (z) = 0.14599 -0.29856
#
# Static dielectric constant tensor:
#      x y z
#    x 1.667050 0.000000 0.000000 
#    y 0.000000 1.643060 0.000000 
#    z 0.000000 0.000000 1.647050 
# 
# From -- ./inp_files/17602.got.cif
#   From: 2010.05.17/outbox.cif.g08.bks.cpg/sg40_9_cif.got.tgz:17602.got - 2010.06.03 18:35:42.
