data_PCOD9364873
_publ_section_title
;
Structure prediction by ZEFSAII (Michael W. Deem and Ramdas Pophale) SiO2 
 PCOD9364873
Probable space group: A M A 2
;
_chemical_formula_sum "Si O2"
_cell_formula_units_Z 32
_cell_length_a 11.646554
_cell_length_b 12.116587
_cell_length_c 8.636432
_cell_angle_alpha 90.000000
_cell_angle_beta 90.000000
_cell_angle_gamma 90.000000
_cell_volume 1218.742925
_symmetry_space_group_name_H-M "A M A 2"
_symmetry_group_IT_number 40
_symmetry_cell_setting 'orthorhombic'
loop_
_space_group_symop_operation_xyz
x,y,z
-x,-y,z
1/2-x,y,z
1/2+x,-y,z
x,1/2+y,1/2+z
-x,1/2-y,1/2+z
1/2-x,1/2+y,1/2+z
1/2+x,1/2-y,1/2+z
loop_
_atom_site_type_symbol
_atom_site_label
_atom_site_fract_x
_atom_site_fract_y
_atom_site_fract_z
Si Si1 0.250000 0.679859 0.735090
Si Si2 0.507703 0.223199 0.181531
Si Si3 0.551131 0.606704 0.960178
Si Si4 0.250000 0.542394 0.057511
Si Si5 0.000000 0.000000 0.980763
Si Si6 0.750000 0.432286 0.391477
O O1 0.375181 0.736771 0.739853
O O2 0.250000 0.628479 0.560214
O O3 0.250000 0.601188 0.887718
O O4 0.531350 0.328758 0.076935
O O5 0.583667 0.196446 0.331728
O O6 0.510722 0.113876 0.076986
O O7 0.500000 0.500000 0.873181
O O8 0.646973 0.545945 0.055059
O O9 0.250000 0.612352 0.214935
O O10 0.124368 0.008392 0.897955
#
# Coordination Sequence:
#
# PCOD9364873 Si02
#       6
#     4   8   8   4   4   4
#     4  10  21  49  72 108 156 199 251 338 397 461
#     4  11  24  46  77 103 158 200 254 331 397 465
#     4  12  26  47  72 113 148 203 260 322 394 480
#     4  12  25  45  78 107 158 200 262 334 387 474
#     4  10  22  48  72 116 158 202 260 332 394 478
#     4  10  24  38  80 115 150 205 265 314 400 485
#
# _framework density 26.256563
#
# number of rings (size 3 to 8) (size 9 to 14) (size 15 to 20)
#    0.000    1.000    3.750    2.250    5.250    2.000 
#    0.000    3.750    0.000    0.000    0.000    0.000 
#    0.000    0.000    0.000    0.000    0.000    0.000 
#
# Total GULP energy -89219.623956 kJ/mol
# GULP energy per Si atom -5576.226497 kJ/mol
# Density = 2.619680 g / cm^3
# Si number density = 26.256563 Si / 1000 Ang^3
#
#
#
# Elastic Constant Matrix: (Units=GPa)
#
#
# Indices 1 2 3 4 5 6 
#
# 1 102.8466 6.8553 33.8662 0.0000 0.0000 0.0000
# 2 6.8553 130.9074 73.8769 0.0000 0.0000 0.0000
# 3 33.8662 73.8769 190.5209 0.0000 0.0000 0.0000
# 4 0.0000 0.0000 0.0000 47.6441 0.0000 0.0000
# 5 0.0000 0.0000 0.0000 0.0000 19.8528 0.0000
# 6 0.0000 0.0000 0.0000 0.0000 0.0000 23.4189
#
#
#
# Elastic Compliance Matrix: (Units=1/GPa)
#
#
# Indices 1 2 3 4 5 6 
#
# 1 0.010369 0.000636 -0.002090 0.000000 0.000000 0.000000
# 2 0.000636 0.009818 -0.003920 0.000000 0.000000 0.000000
# 3 -0.002090 -0.003920 0.007140 0.000000 0.000000 0.000000
# 4 0.000000 0.000000 0.000000 0.020989 0.000000 0.000000
# 5 0.000000 0.000000 0.000000 0.000000 0.050371 0.000000
# 6 0.000000 0.000000 0.000000 0.000000 0.000000 0.042700
#
#
# Mechanical properties :
#
#
# Convention : Reuss Voigt Hill
#
# Bulk Modulus (GPa) = 60.31363 72.60797 66.46080
# Shear Modulus (GPa) = 31.71350 38.82826 35.27088
#
# Velocity S-wave (km/s) = 3.47916 3.84969 3.66910
# Velocity P-wave (km/s) = 6.25781 6.89010 6.58155
#
# Compressibility (1/GPa) = 0.01658000
#
# Stress axis : x y z
#
# Youngs Moduli (GPa) = 96.44138 101.85383 140.04886
#
# Poissons Ratio (x) = -0.06482 0.29269
# Poissons Ratio (y) = -0.06138 0.54902
# Poissons Ratio (z) = 0.20156 0.39929
#
# Static dielectric constant tensor:
#      x y z
#    x 2.186780 0.000000 0.000000 
#    y 0.000000 2.012490 0.000000 
#    z 0.000000 0.000000 2.078270 
# 
# From -- ./inp_files/5925.got.cif
#   From: 2010.05.17/outbox.cif.g08.bks.cpg/sg40_3_cif.got.tgz:5925.got - 2010.06.03 18:35:42.
