data_PCOD9364762
_publ_section_title
;
Structure prediction by ZEFSAII (Michael W. Deem and Ramdas Pophale) SiO2 
 PCOD9364762
Probable space group: A M A 2
;
_chemical_formula_sum "Si O2"
_cell_formula_units_Z 36
_cell_length_a 14.593850
_cell_length_b 5.509926
_cell_length_c 18.705992
_cell_angle_alpha 90.000000
_cell_angle_beta 90.000000
_cell_angle_gamma 90.000000
_cell_volume 1504.168150
_symmetry_space_group_name_H-M "A M A 2"
_symmetry_group_IT_number 40
_symmetry_cell_setting 'orthorhombic'
loop_
_space_group_symop_operation_xyz
x,y,z
-x,-y,z
1/2-x,y,z
1/2+x,-y,z
x,1/2+y,1/2+z
-x,1/2-y,1/2+z
1/2-x,1/2+y,1/2+z
1/2+x,1/2-y,1/2+z
loop_
_atom_site_type_symbol
_atom_site_label
_atom_site_fract_x
_atom_site_fract_y
_atom_site_fract_z
Si Si1 0.903941 0.128375 0.730730
Si Si2 0.859806 0.163328 0.004443
Si Si3 0.143549 0.834693 0.569187
Si Si4 0.351736 0.630999 0.368568
Si Si5 0.500000 0.500000 0.830446
O O1 0.930067 0.363615 0.776830
O O2 0.858787 0.165586 0.654811
O O3 0.852604 0.957533 0.786966
O O4 0.000000 0.000000 0.714562
O O5 0.750000 0.171203 0.018957
O O6 0.897005 0.919389 0.042020
O O7 0.895866 0.416966 0.035321
O O8 0.868817 0.098838 0.920637
O O9 0.250000 0.830076 0.546857
O O10 0.250000 0.730105 0.385652
O O11 0.435875 0.816934 0.374800
#
# Coordination Sequence:
#
# PCOD9364762 Si02
#       5
#     8   8   8   8   4
#     4  10  23  41  60  91 131 173 228 282 338 416
#     4   9  21  39  64  97 129 166 223 278 337 414
#     4  10  21  40  65  95 128 167 219 278 339 413
#     4  10  22  42  69  96 134 186 232 291 354 413
#     4  10  24  42  66 102 140 174 244 298 340 436
#
# _framework density 23.933494
#
# number of rings (size 3 to 8) (size 9 to 14) (size 15 to 20)
#    0.000    2.222    0.000    0.667    9.333    1.778 
#    2.000    0.000    0.000    0.000    0.000    0.000 
#    0.000    0.000    0.000    0.000    0.000    0.000 
#
# Total GULP energy -100598.260972 kJ/mol
# GULP energy per Si atom -5588.792276 kJ/mol
# Density = 2.387902 g / cm^3
# Si number density = 23.933494 Si / 1000 Ang^3
#
#
#
# Elastic Constant Matrix: (Units=GPa)
#
#
# Indices 1 2 3 4 5 6 
#
# 1 105.5399 61.4655 30.8435 0.0000 0.0000 0.0000
# 2 61.4655 135.2911 45.0648 0.0000 0.0000 0.0000
# 3 30.8435 45.0648 140.6339 0.0000 0.0000 0.0000
# 4 0.0000 0.0000 0.0000 29.5266 0.0000 0.0000
# 5 0.0000 0.0000 0.0000 0.0000 9.4329 0.0000
# 6 0.0000 0.0000 0.0000 0.0000 0.0000 11.8540
#
#
#
# Elastic Compliance Matrix: (Units=1/GPa)
#
#
# Indices 1 2 3 4 5 6 
#
# 1 0.013028 -0.005561 -0.001075 0.000000 0.000000 0.000000
# 2 -0.005561 0.010648 -0.002193 0.000000 0.000000 0.000000
# 3 -0.001075 -0.002193 0.008049 0.000000 0.000000 0.000000
# 4 0.000000 0.000000 0.000000 0.033868 0.000000 0.000000
# 5 0.000000 0.000000 0.000000 0.000000 0.106012 0.000000
# 6 0.000000 0.000000 0.000000 0.000000 0.000000 0.084360
#
#
# Mechanical properties :
#
#
# Convention : Reuss Voigt Hill
#
# Bulk Modulus (GPa) = 71.08364 72.91251 71.99807
# Shear Modulus (GPa) = 17.96551 26.43543 22.20047
#
# Velocity S-wave (km/s) = 2.74276 3.32706 3.04894
# Velocity P-wave (km/s) = 6.30835 6.72978 6.52247
#
# Compressibility (1/GPa) = 0.01406794
#
# Stress axis : x y z
#
# Youngs Moduli (GPa) = 76.75893 93.91357 124.23757
#
# Poissons Ratio (x) = 0.52221 0.13360
# Poissons Ratio (y) = 0.42682 0.27240
# Poissons Ratio (z) = 0.08255 0.20591
#
# Static dielectric constant tensor:
#      x y z
#    x 1.945910 0.000000 0.000000 
#    y 0.000000 1.959240 0.000000 
#    z 0.000000 0.000000 1.866720 
# 
# From -- ./inp_files/22914.got.cif
#   From: 2010.05.17/outbox.cif.g08.bks.cpg/sg40_12_cif.got.tgz:22914.got - 2010.06.03 18:35:42.
