data_PCOD9364925
_publ_section_title
;
Structure prediction by ZEFSAII (Michael W. Deem and Ramdas Pophale) SiO2 
 PCOD9364925
Probable space group: A M A 2
;
_chemical_formula_sum "Si O2"
_cell_formula_units_Z 48
_cell_length_a 9.109689
_cell_length_b 31.991015
_cell_length_c 8.973219
_cell_angle_alpha 90.000000
_cell_angle_beta 90.000000
_cell_angle_gamma 90.000000
_cell_volume 2615.049038
_symmetry_space_group_name_H-M "A M A 2"
_symmetry_group_IT_number 40
_symmetry_cell_setting 'orthorhombic'
loop_
_space_group_symop_operation_xyz
x,y,z
-x,-y,z
1/2-x,y,z
1/2+x,-y,z
x,1/2+y,1/2+z
-x,1/2-y,1/2+z
1/2-x,1/2+y,1/2+z
1/2+x,1/2-y,1/2+z
loop_
_atom_site_type_symbol
_atom_site_label
_atom_site_fract_x
_atom_site_fract_y
_atom_site_fract_z
Si Si1 0.921058 0.717352 0.833460
Si Si2 0.419950 0.957790 0.829047
Si Si3 0.925353 0.871932 0.835555
Si Si4 0.927293 0.132400 0.157923
Si Si5 0.421064 0.294849 0.185962
Si Si6 0.917788 0.041517 0.192794
O O1 0.750000 0.727186 0.798559
O O2 0.955435 0.672937 0.757157
O O3 0.022098 0.754030 0.771645
O O4 0.934732 0.713270 0.010364
O O5 0.250000 0.956316 0.783055
O O6 0.506388 0.916136 0.784635
O O7 0.500000 0.000000 0.778364
O O8 0.421509 0.958580 0.011044
O O9 0.750000 0.873990 0.840123
O O10 0.983063 0.834362 0.734436
O O11 0.990079 0.863751 0.001080
O O12 0.750000 0.129583 0.131587
O O13 0.972978 0.088062 0.231738
O O14 0.250000 0.302968 0.221177
O O15 0.750000 0.038243 0.241210
O O16 0.000000 0.000000 0.244313
#
# Coordination Sequence:
#
# PCOD9364925 Si02
#       6
#     8   8   8   8   8   8
#     4  10  22  39  58  79 103 135 174 216 266 322
#     4   9  16  28  47  74 107 141 177 219 264 307
#     4  11  21  33  52  79 109 142 180 219 261 311
#     4   9  18  34  54  77 107 140 175 218 266 313
#     4  11  23  38  56  78 104 135 172 216 266 319
#     4   8  14  24  42  69 101 135 168 206 251 296
#
# _framework density 18.355295999999999
#
# number of rings (size 3 to 8) (size 9 to 14) (size 15 to 20)
#    0.000    2.333    0.000    4.500    0.000    8.667 
#    0.000    0.000    0.000    1.000    0.000    2.333 
#    0.000    0.000    0.000    0.000    0.000    0.000 
#
# Total GULP energy -133911.299714 kJ/mol
# GULP energy per Si atom -5579.637488 kJ/mol
# Density = 1.831352 g / cm^3
# Si number density = 18.355296 Si / 1000 Ang^3
#
#
#
# Elastic Constant Matrix: (Units=GPa)
#
#
# Indices 1 2 3 4 5 6 
#
# 1 109.1594 76.5518 30.7068 0.0000 0.0000 0.0000
# 2 76.5518 149.0286 29.0073 0.0000 0.0000 0.0000
# 3 30.7068 29.0073 22.2961 0.0000 0.0000 0.0000
# 4 0.0000 0.0000 0.0000 19.5629 0.0000 0.0000
# 5 0.0000 0.0000 0.0000 0.0000 10.4162 0.0000
# 6 0.0000 0.0000 0.0000 0.0000 0.0000 38.7090
#
#
#
# Elastic Compliance Matrix: (Units=1/GPa)
#
#
# Indices 1 2 3 4 5 6 
#
# 1 0.018238 -0.005998 -0.017314 0.000000 0.000000 0.000000
# 2 -0.005998 0.010958 -0.005996 0.000000 0.000000 0.000000
# 3 -0.017314 -0.005996 0.076497 0.000000 0.000000 0.000000
# 4 0.000000 0.000000 0.000000 0.051117 0.000000 0.000000
# 5 0.000000 0.000000 0.000000 0.000000 0.096005 0.000000
# 6 0.000000 0.000000 0.000000 0.000000 0.000000 0.025834
#
#
# Mechanical properties :
#
#
# Convention : Reuss Voigt Hill
#
# Bulk Modulus (GPa) = 21.24184 61.44621 41.34402
# Shear Modulus (GPa) = 14.16605 23.35217 18.75911
#
# Velocity S-wave (km/s) = 2.78109 3.57070 3.20034
# Velocity P-wave (km/s) = 4.68085 7.10975 6.01909
#
# Compressibility (1/GPa) = 0.04707690
#
# Stress axis : x y z
#
# Youngs Moduli (GPa) = 54.83113 91.25510 13.07245
#
# Poissons Ratio (x) = 0.54737 0.22633
# Poissons Ratio (y) = 0.32889 0.07838
# Poissons Ratio (z) = 0.94934 0.54715
#
# Static dielectric constant tensor:
#      x y z
#    x 1.621010 0.000000 0.000000 
#    y 0.000000 1.639860 0.000000 
#    z 0.000000 0.000000 1.615500 
# 
# From -- ./inp_files/4623.got.cif
#   From: 2010.05.17/outbox.cif.g08.bks.cpg/sg40_3_cif.got.tgz:4623.got - 2010.06.03 18:35:42.
