data_PCOD9364936
_publ_section_title
;
Structure prediction by ZEFSAII (Michael W. Deem and Ramdas Pophale) SiO2 
 PCOD9364936
Probable space group: A M A 2
;
_chemical_formula_sum "Si O2"
_cell_formula_units_Z 64
_cell_length_a 20.921464
_cell_length_b 7.337033
_cell_length_c 18.068672
_cell_angle_alpha 90.000000
_cell_angle_beta 90.000000
_cell_angle_gamma 90.000000
_cell_volume 2773.567745
_symmetry_space_group_name_H-M "A M A 2"
_symmetry_group_IT_number 40
_symmetry_cell_setting 'orthorhombic'
loop_
_space_group_symop_operation_xyz
x,y,z
-x,-y,z
1/2-x,y,z
1/2+x,-y,z
x,1/2+y,1/2+z
-x,1/2-y,1/2+z
1/2-x,1/2+y,1/2+z
1/2+x,1/2-y,1/2+z
loop_
_atom_site_type_symbol
_atom_site_label
_atom_site_fract_x
_atom_site_fract_y
_atom_site_fract_z
Si Si1 0.040737 0.179984 0.432850
Si Si2 0.180269 0.071562 0.269271
Si Si3 0.412871 0.428971 0.158269
Si Si4 0.176120 0.580009 0.453887
Si Si5 0.905881 0.592152 0.321025
Si Si6 0.823128 0.509397 0.929449
Si Si7 0.035452 0.766461 0.096029
Si Si8 0.135993 0.551469 0.616841
O O1 0.034898 0.318907 0.364850
O O2 0.017046 0.264541 0.509754
O O3 0.116153 0.122881 0.441103
O O4 0.000000 0.000000 0.418558
O O5 0.250000 0.159778 0.267975
O O6 0.130440 0.228512 0.289072
O O7 0.169484 0.977692 0.190877
O O8 0.177632 0.945972 0.341284
O O9 0.413732 0.504681 0.242397
O O10 0.411826 0.604875 0.106056
O O11 0.478333 0.316519 0.144043
O O12 0.363735 0.269806 0.133280
O O13 0.250000 0.548610 0.434755
O O14 0.133248 0.507630 0.386160
O O15 0.165382 0.795765 0.465415
O O16 0.162353 0.502939 0.535999
O O17 0.750000 0.442775 0.946820
O O18 0.066770 0.956195 0.117332
#
# Coordination Sequence:
#
# PCOD9364936 Si02
#       8
#     8   8   8   8   8   8   8   8
#     4  11  21  41  64  92 125 165 214 267 320 379
#     4   9  19  38  61  85 119 163 205 253 309 373
#     4  10  23  41  60  85 126 163 207 258 320 387
#     4  11  22  38  61  93 127 161 212 268 318 385
#     4  10  22  39  60  91 119 165 206 259 323 375
#     4   9  21  39  62  90 128 170 208 261 323 385
#     4  11  22  41  61  89 123 166 203 266 321 378
#     4  11  22  38  64  89 123 162 210 256 324 378
#
# _framework density 23.074973
#
# number of rings (size 3 to 8) (size 9 to 14) (size 15 to 20)
#    0.000    1.750    2.500    1.875    1.750    3.500 
#    2.250    0.000    0.000    2.250    0.000    0.000 
#    0.000    0.000    0.000    0.000    0.000    0.000 
#
# Total GULP energy -178370.330239 kJ/mol
# GULP energy per Si atom -5574.072820 kJ/mol
# Density = 2.302245 g / cm^3
# Si number density = 23.074973 Si / 1000 Ang^3
#
#
#
# Elastic Constant Matrix: (Units=GPa)
#
#
# Indices 1 2 3 4 5 6 
#
# 1 36.4259 -3.0861 3.2169 0.0000 0.0000 0.0000
# 2 -3.0861 61.9785 3.0805 0.0000 0.0000 0.0000
# 3 3.2169 3.0805 164.6758 0.0000 0.0000 0.0000
# 4 0.0000 0.0000 0.0000 16.0721 0.0000 0.0000
# 5 0.0000 0.0000 0.0000 0.0000 24.8916 0.0000
# 6 0.0000 0.0000 0.0000 0.0000 0.0000 20.0324
#
#
#
# Elastic Compliance Matrix: (Units=1/GPa)
#
#
# Indices 1 2 3 4 5 6 
#
# 1 0.027622 0.001404 -0.000566 0.000000 0.000000 0.000000
# 2 0.001404 0.016221 -0.000331 0.000000 0.000000 0.000000
# 3 -0.000566 -0.000331 0.006090 0.000000 0.000000 0.000000
# 4 0.000000 0.000000 0.000000 0.062220 0.000000 0.000000
# 5 0.000000 0.000000 0.000000 0.000000 0.040174 0.000000
# 6 0.000000 0.000000 0.000000 0.000000 0.000000 0.049919
#
#
# Mechanical properties :
#
#
# Convention : Reuss Voigt Hill
#
# Bulk Modulus (GPa) = 19.62852 29.94474 24.78663
# Shear Modulus (GPa) = 22.91330 29.52383 26.21856
#
# Velocity S-wave (km/s) = 3.15460 3.58085 3.37446
# Velocity P-wave (km/s) = 4.66835 5.48653 5.09390
#
# Compressibility (1/GPa) = 0.05094627
#
# Stress axis : x y z
#
# Youngs Moduli (GPa) = 36.20318 61.64866 164.20955
#
# Poissons Ratio (x) = -0.08652 0.09292
# Poissons Ratio (y) = -0.05081 0.05433
# Poissons Ratio (z) = 0.02049 0.02040
#
# Static dielectric constant tensor:
#      x y z
#    x 1.948800 0.000000 0.000000 
#    y 0.000000 1.895860 0.000000 
#    z 0.000000 0.000000 1.908680 
# 
# From -- ./inp_files/21401.got.cif
#   From: 2010.05.17/outbox.cif.g08.bks.cpg/sg40_11_cif.got.tgz:21401.got - 2010.06.03 18:35:42.
