data_PCOD9364607
_publ_section_title
;
Structure prediction by ZEFSAII (Michael W. Deem and Ramdas Pophale) SiO2 
 PCOD9364607
Probable space group: A M A 2
;
_chemical_formula_sum "Si O2"
_cell_formula_units_Z 56
_cell_length_a 14.827535
_cell_length_b 22.873816
_cell_length_c 8.611988
_cell_angle_alpha 90.000000
_cell_angle_beta 90.000000
_cell_angle_gamma 90.000000
_cell_volume 2920.861721
_symmetry_space_group_name_H-M "A M A 2"
_symmetry_group_IT_number 40
_symmetry_cell_setting 'orthorhombic'
loop_
_space_group_symop_operation_xyz
x,y,z
-x,-y,z
1/2-x,y,z
1/2+x,-y,z
x,1/2+y,1/2+z
-x,1/2-y,1/2+z
1/2-x,1/2+y,1/2+z
1/2+x,1/2-y,1/2+z
loop_
_atom_site_type_symbol
_atom_site_label
_atom_site_fract_x
_atom_site_fract_y
_atom_site_fract_z
Si Si1 0.604661 0.010177 0.655990
Si Si2 0.854508 0.640941 0.603932
Si Si3 0.492250 0.155089 0.358963
Si Si4 0.146178 0.048913 0.329491
Si Si5 0.856974 0.512877 0.503407
Si Si6 0.650772 0.742309 0.359475
Si Si7 0.350623 0.857420 0.600118
O O1 0.646866 0.985255 0.495177
O O2 0.500000 0.000000 0.625019
O O3 0.638641 0.076910 0.664009
O O4 0.616334 0.986729 0.834403
O O5 0.750000 0.631982 0.657997
O O6 0.878802 0.581920 0.510224
O O7 0.854871 0.700903 0.508964
O O8 0.933184 0.647861 0.726702
O O9 0.422342 0.101901 0.352854
O O10 0.431213 0.212901 0.349390
O O11 0.557874 0.152956 0.506038
O O12 0.250000 0.067245 0.301219
O O13 0.115136 0.014436 0.171573
O O14 0.750000 0.507890 0.504053
O O15 0.750000 0.771960 0.358296
O O16 0.650213 0.694417 0.223861
O O17 0.250000 0.855233 0.523357
#
# Coordination Sequence:
#
# PCOD9364607 Si02
#       7
#     8   8   8   8   8   8   8
#     4  12  23  39  65  97 129 166 214 268 320 379
#     4  10  21  38  62  89 116 155 210 263 309 363
#     4  12  23  39  60  93 128 162 204 259 317 381
#     4  11  25  41  61  94 133 171 206 253 326 391
#     4  10  22  40  63  90 125 166 211 264 313 373
#     4  10  22  41  64  88 120 166 209 256 317 375
#     4  11  22  40  64  90 122 164 216 262 312 377
#
# _framework density 19.172422999999998
#
# number of rings (size 3 to 8) (size 9 to 14) (size 15 to 20)
#    0.000    1.143    2.857    3.857    2.000    1.143 
#    0.000    0.000    0.000    0.000    0.000    0.000 
#    0.000    0.000    0.000    0.000    0.000    0.000 
#
# Total GULP energy -155898.703496 kJ/mol
# GULP energy per Si atom -5567.810839 kJ/mol
# Density = 1.912879 g / cm^3
# Si number density = 19.172423 Si / 1000 Ang^3
#
#
#
# Elastic Constant Matrix: (Units=GPa)
#
#
# Indices 1 2 3 4 5 6 
#
# 1 125.5816 41.7708 34.4166 0.0000 0.0000 0.0000
# 2 41.7708 84.7269 34.2086 0.0000 0.0000 0.0000
# 3 34.4166 34.2086 109.1099 0.0000 0.0000 0.0000
# 4 0.0000 0.0000 0.0000 18.8537 0.0000 0.0000
# 5 0.0000 0.0000 0.0000 0.0000 51.0887 0.0000
# 6 0.0000 0.0000 0.0000 0.0000 0.0000 35.9409
#
#
#
# Elastic Compliance Matrix: (Units=1/GPa)
#
#
# Indices 1 2 3 4 5 6 
#
# 1 0.009827 -0.004114 -0.001810 0.000000 0.000000 0.000000
# 2 -0.004114 0.015236 -0.003479 0.000000 0.000000 0.000000
# 3 -0.001810 -0.003479 0.010827 0.000000 0.000000 0.000000
# 4 0.000000 0.000000 0.000000 0.053040 0.000000 0.000000
# 5 0.000000 0.000000 0.000000 0.000000 0.019574 0.000000
# 6 0.000000 0.000000 0.000000 0.000000 0.000000 0.027823
#
#
# Mechanical properties :
#
#
# Convention : Reuss Voigt Hill
#
# Bulk Modulus (GPa) = 58.53617 60.02339 59.27978
# Shear Modulus (GPa) = 31.08914 35.11149 33.10031
#
# Velocity S-wave (km/s) = 4.03122 4.28407 4.15957
# Velocity P-wave (km/s) = 7.22948 7.47303 7.35226
#
# Compressibility (1/GPa) = 0.01708345
#
# Stress axis : x y z
#
# Youngs Moduli (GPa) = 101.75576 65.63582 92.36394
#
# Poissons Ratio (x) = 0.27004 0.16718
# Poissons Ratio (y) = 0.41864 0.32133
# Poissons Ratio (z) = 0.18418 0.22835
#
# Static dielectric constant tensor:
#      x y z
#    x 1.653890 0.000000 0.000000 
#    y 0.000000 1.637260 0.000000 
#    z 0.000000 0.000000 1.793070 
# 
# From -- ./inp_files/6706.got.cif
#   From: 2010.05.17/outbox.cif.g08.bks.cpg/sg40_4_cif.got.tgz:6706.got - 2010.06.03 18:35:42.
