data_PCOD9364346
_publ_section_title
;
Structure prediction by ZEFSAII (Michael W. Deem and Ramdas Pophale) SiO2 
 PCOD9364346
Probable space group: A M A 2
;
_chemical_formula_sum "Si O2"
_cell_formula_units_Z 32
_cell_length_a 15.570723
_cell_length_b 9.195342
_cell_length_c 11.234437
_cell_angle_alpha 90.000000
_cell_angle_beta 90.000000
_cell_angle_gamma 90.000000
_cell_volume 1608.525605
_symmetry_space_group_name_H-M "A M A 2"
_symmetry_group_IT_number 40
_symmetry_cell_setting 'orthorhombic'
loop_
_space_group_symop_operation_xyz
x,y,z
-x,-y,z
1/2-x,y,z
1/2+x,-y,z
x,1/2+y,1/2+z
-x,1/2-y,1/2+z
1/2-x,1/2+y,1/2+z
1/2+x,1/2-y,1/2+z
loop_
_atom_site_type_symbol
_atom_site_label
_atom_site_fract_x
_atom_site_fract_y
_atom_site_fract_z
Si Si1 0.250000 0.878175 0.200860
Si Si2 0.750000 0.862518 0.017378
Si Si3 0.119476 0.309523 0.174368
Si Si4 0.750000 0.942071 0.741101
Si Si5 0.595402 0.465886 0.825653
Si Si6 0.500000 0.500000 0.057334
O O1 0.250000 0.709001 0.170248
O O2 0.250000 0.984557 0.087515
O O3 0.333546 0.923135 0.278333
O O4 0.831270 0.770801 0.066248
O O5 0.750000 0.891818 0.878336
O O6 0.169693 0.454404 0.212375
O O7 0.120584 0.193305 0.280238
O O8 0.025752 0.361729 0.134841
O O9 0.500000 0.500000 0.774906
O O10 0.579078 0.472673 0.966795
#
# Coordination Sequence:
#
# PCOD9364346 Si02
#       6
#     4   4   8   4   8   4
#     4  10  20  40  68  88 120 164 204 246 312 362
#     4   9  21  41  58  86 120 163 199 253 310 352
#     4  10  22  39  58  89 124 152 209 253 294 367
#     4  11  23  37  66  92 118 159 207 255 298 360
#     4   9  22  42  62  86 126 160 198 249 302 361
#     4  10  22  36  62  88 122 162 198 250 310 342
#
# _framework density 19.893993999999999
#
# number of rings (size 3 to 8) (size 9 to 14) (size 15 to 20)
#    0.750    1.500    0.000    2.250    3.500    3.000 
#    4.500    2.500    0.000    0.000    0.000    0.000 
#    0.000    0.000    0.000    0.000    0.000    0.000 
#
# Total GULP energy -89232.328067 kJ/mol
# GULP energy per Si atom -5577.020504 kJ/mol
# Density = 1.984871 g / cm^3
# Si number density = 19.893994 Si / 1000 Ang^3
#
#
#
# Elastic Constant Matrix: (Units=GPa)
#
#
# Indices 1 2 3 4 5 6 
#
# 1 71.8262 25.7556 -7.4171 0.0000 0.0000 0.0000
# 2 25.7556 158.4329 21.6742 0.0000 0.0000 0.0000
# 3 -7.4171 21.6742 61.5766 0.0000 0.0000 0.0000
# 4 0.0000 0.0000 0.0000 19.6608 0.0000 0.0000
# 5 0.0000 0.0000 0.0000 0.0000 24.2507 0.0000
# 6 0.0000 0.0000 0.0000 0.0000 0.0000 26.8879
#
#
#
# Elastic Compliance Matrix: (Units=1/GPa)
#
#
# Indices 1 2 3 4 5 6 
#
# 1 0.015245 -0.002868 0.002846 0.000000 0.000000 0.000000
# 2 -0.002868 0.007171 -0.002869 0.000000 0.000000 0.000000
# 3 0.002846 -0.002869 0.017593 0.000000 0.000000 0.000000
# 4 0.000000 0.000000 0.000000 0.050863 0.000000 0.000000
# 5 0.000000 0.000000 0.000000 0.000000 0.041236 0.000000
# 6 0.000000 0.000000 0.000000 0.000000 0.000000 0.037191
#
#
# Mechanical properties :
#
#
# Convention : Reuss Voigt Hill
#
# Bulk Modulus (GPa) = 29.21822 41.31791 35.26807
# Shear Modulus (GPa) = 26.81127 30.94809 28.87968
#
# Velocity S-wave (km/s) = 3.67510 3.94845 3.81422
# Velocity P-wave (km/s) = 5.72078 6.44990 6.09625
#
# Compressibility (1/GPa) = 0.03422521
#
# Stress axis : x y z
#
# Youngs Moduli (GPa) = 65.59710 139.46011 56.84190
#
# Poissons Ratio (x) = 0.39990 -0.16175
# Poissons Ratio (y) = 0.18810 0.16310
# Poissons Ratio (z) = -0.18666 0.40016
#
# Static dielectric constant tensor:
#      x y z
#    x 1.744020 0.000000 0.000000 
#    y 0.000000 1.664200 0.000000 
#    z 0.000000 0.000000 1.683700 
# 
# From -- ./inp_files/11759.got.cif
#   From: 2010.05.17/outbox.cif.g08.bks.cpg/sg40_6_cif.got.tgz:11759.got - 2010.06.03 18:35:42.
