data_PCOD9364380
_publ_section_title
;
Structure prediction by ZEFSAII (Michael W. Deem and Ramdas Pophale) SiO2 
 PCOD9364380
Probable space group: A M A 2
;
_chemical_formula_sum "Si O2"
_cell_formula_units_Z 48
_cell_length_a 23.267163
_cell_length_b 6.772532
_cell_length_c 13.621998
_cell_angle_alpha 90.000000
_cell_angle_beta 90.000000
_cell_angle_gamma 90.000000
_cell_volume 2146.521833
_symmetry_space_group_name_H-M "A M A 2"
_symmetry_group_IT_number 40
_symmetry_cell_setting 'orthorhombic'
loop_
_space_group_symop_operation_xyz
x,y,z
-x,-y,z
1/2-x,y,z
1/2+x,-y,z
x,1/2+y,1/2+z
-x,1/2-y,1/2+z
1/2-x,1/2+y,1/2+z
1/2+x,1/2-y,1/2+z
loop_
_atom_site_type_symbol
_atom_site_label
_atom_site_fract_x
_atom_site_fract_y
_atom_site_fract_z
Si Si1 0.145529 0.660818 0.532110
Si Si2 0.953426 0.154578 0.651062
Si Si3 0.844997 0.399243 0.214490
Si Si4 0.500000 0.500000 0.790444
Si Si5 0.374775 0.433920 0.848373
Si Si6 0.250000 0.394954 0.111275
Si Si7 0.684532 0.162952 0.897562
O O1 0.084282 0.707707 0.579777
O O2 0.149182 0.806008 0.437994
O O3 0.198894 0.725792 0.598905
O O4 0.153019 0.444131 0.487411
O O5 0.905171 0.012126 0.699222
O O6 0.983358 0.307663 0.725625
O O7 0.000000 0.000000 0.608740
O O8 0.857044 0.176924 0.248195
O O9 0.801350 0.437922 0.126663
O O10 0.814843 0.511304 0.305949
O O11 0.443412 0.446743 0.851389
O O12 0.348403 0.647790 0.858936
O O13 0.750000 0.213232 0.922030
#
# Coordination Sequence:
#
# PCOD9364380 Si02
#       7
#     8   8   8   4   8   4   8
#     4  10  25  44  64  94 139 175 218 277 354 399
#     4  11  23  44  66  95 131 178 223 291 335 410
#     4  10  21  41  67  95 130 174 224 271 341 398
#     4  12  24  44  66  96 130 170 236 272 340 404
#     4  11  25  41  67  99 126 180 226 278 332 421
#     4  10  20  42  66  94 138 172 216 284 338 408
#     4  11  22  41  67  99 135 174 221 276 341 420
#
# _framework density 22.361757000000001
#
# number of rings (size 3 to 8) (size 9 to 14) (size 15 to 20)
#    0.000    1.333    5.000    0.000    3.500    1.333 
#    0.000    1.667    0.000    0.000    0.000    0.000 
#    0.000    0.000    0.000    0.000    0.000    0.000 
#
# Total GULP energy -133634.157098 kJ/mol
# GULP energy per Si atom -5568.089879 kJ/mol
# Density = 2.231086 g / cm^3
# Si number density = 22.361757 Si / 1000 Ang^3
#
#
#
# Elastic Constant Matrix: (Units=GPa)
#
#
# Indices 1 2 3 4 5 6 
#
# 1 156.4287 73.9120 27.2918 0.0000 0.0000 0.0000
# 2 73.9120 130.0278 22.4497 0.0000 0.0000 0.0000
# 3 27.2918 22.4497 29.9078 0.0000 0.0000 0.0000
# 4 0.0000 0.0000 0.0000 34.6851 0.0000 0.0000
# 5 0.0000 0.0000 0.0000 0.0000 -26.5841 0.0000
# 6 0.0000 0.0000 0.0000 0.0000 0.0000 13.7071
#
#
#
# Elastic Compliance Matrix: (Units=1/GPa)
#
#
# Indices 1 2 3 4 5 6 
#
# 1 0.009407 -0.004441 -0.005251 0.000000 0.000000 0.000000
# 2 -0.004441 0.010932 -0.004154 0.000000 0.000000 0.000000
# 3 -0.005251 -0.004154 0.041345 0.000000 0.000000 0.000000
# 4 0.000000 0.000000 0.000000 0.028831 0.000000 0.000000
# 5 0.000000 0.000000 0.000000 0.000000 -0.037616 0.000000
# 6 0.000000 0.000000 0.000000 0.000000 0.000000 0.072955
#
#
# Mechanical properties :
#
#
# Convention : Reuss Voigt Hill
#
# Bulk Modulus (GPa) = 29.41686 62.63015 46.02350
# Shear Modulus (GPa) = 30.32593 17.20901 23.76747
#
# Velocity S-wave (km/s) = 3.68659 2.77713 3.26369
# Velocity P-wave (km/s) = 5.59507 6.19288 5.90155
#
# Compressibility (1/GPa) = 0.03399411
#
# Stress axis : x y z
#
# Youngs Moduli (GPa) = 106.30385 91.47436 24.18646
#
# Poissons Ratio (x) = 0.40621 0.12700
# Poissons Ratio (y) = 0.47206 0.10046
# Poissons Ratio (z) = 0.55819 0.37995
#
# Static dielectric constant tensor:
#      x y z
#    x 1.931770 0.000000 0.000000 
#    y 0.000000 1.825460 0.000000 
#    z 0.000000 0.000000 1.928990 
# 
# From -- ./inp_files/21507.got.cif
#   From: 2010.05.17/outbox.cif.g08.bks.cpg/sg40_11_cif.got.tgz:21507.got - 2010.06.03 18:35:42.
