data_PCOD9364389
_publ_section_title
;
Structure prediction by ZEFSAII (Michael W. Deem and Ramdas Pophale) SiO2 
 PCOD9364389
Probable space group: A M A 2
;
_chemical_formula_sum "Si O2"
_cell_formula_units_Z 44
_cell_length_a 24.819057
_cell_length_b 5.285056
_cell_length_c 13.553191
_cell_angle_alpha 90.000000
_cell_angle_beta 90.000000
_cell_angle_gamma 90.000000
_cell_volume 1777.773502
_symmetry_space_group_name_H-M "A M A 2"
_symmetry_group_IT_number 40
_symmetry_cell_setting 'orthorhombic'
loop_
_space_group_symop_operation_xyz
x,y,z
-x,-y,z
1/2-x,y,z
1/2+x,-y,z
x,1/2+y,1/2+z
-x,1/2-y,1/2+z
1/2-x,1/2+y,1/2+z
1/2+x,1/2-y,1/2+z
loop_
_atom_site_type_symbol
_atom_site_label
_atom_site_fract_x
_atom_site_fract_y
_atom_site_fract_z
Si Si1 0.534793 0.260346 0.375000
Si Si2 0.689457 0.601383 0.312345
Si Si3 0.750000 0.113775 0.960973
Si Si4 0.443758 0.855332 0.589008
Si Si5 0.607962 0.969408 0.245167
Si Si6 0.164329 0.174403 0.612305
O O1 0.500000 0.500000 0.346072
O O2 0.554720 0.296605 0.486594
O O3 0.583554 0.208002 0.300940
O O4 0.500000 0.000000 0.374742
O O5 0.750000 0.737058 0.334666
O O6 0.700530 0.429543 0.406548
O O7 0.689088 0.485271 0.204297
O O8 0.638832 0.782366 0.318234
O O9 0.796979 0.268121 0.023075
O O10 0.436610 0.674791 0.682482
O O11 0.500000 0.000000 0.597026
O O12 0.392490 0.042781 0.586381
O O13 0.651264 0.059735 0.165478
#
# Coordination Sequence:
#
# PCOD9364389 Si02
#       6
#     8   8   4   8   8   8
#     4  11  28  47  73 109 150 197 254 314 381 457
#     4   9  22  43  65  97 142 183 242 308 374 442
#     4  10  20  42  70  94 146 188 238 314 374 448
#     4  10  26  48  72 105 150 194 257 314 385 467
#     4  11  26  42  75 103 140 196 251 309 386 456
#     4  11  23  41  70 105 140 191 249 308 381 453
#
# _framework density 24.750060000000001
#
# number of rings (size 3 to 8) (size 9 to 14) (size 15 to 20)
#    0.545    1.091    0.909    1.091   14.000    1.455 
#    0.000    3.636    0.000    0.000    0.000    0.000 
#    0.000    0.000    0.000    0.000    0.000    0.000 
#
# Total GULP energy -122548.855493 kJ/mol
# GULP energy per Si atom -5570.402522 kJ/mol
# Density = 2.469373 g / cm^3
# Si number density = 24.750060 Si / 1000 Ang^3
#
#
#
# Elastic Constant Matrix: (Units=GPa)
#
#
# Indices 1 2 3 4 5 6 
#
# 1 133.7743 28.7304 69.7741 0.0000 0.0000 0.0000
# 2 28.7304 68.9889 30.9663 0.0000 0.0000 0.0000
# 3 69.7741 30.9663 145.9110 0.0000 0.0000 0.0000
# 4 0.0000 0.0000 0.0000 27.8093 0.0000 0.0000
# 5 0.0000 0.0000 0.0000 0.0000 172.3820 0.0000
# 6 0.0000 0.0000 0.0000 0.0000 0.0000 -7.7963
#
#
#
# Elastic Compliance Matrix: (Units=1/GPa)
#
#
# Indices 1 2 3 4 5 6 
#
# 1 0.010277 -0.002292 -0.004428 0.000000 0.000000 0.000000
# 2 -0.002292 0.016533 -0.002412 0.000000 0.000000 0.000000
# 3 -0.004428 -0.002412 0.009483 0.000000 0.000000 0.000000
# 4 0.000000 0.000000 0.000000 0.035959 0.000000 0.000000
# 5 0.000000 0.000000 0.000000 0.000000 0.005801 0.000000
# 6 0.000000 0.000000 0.000000 0.000000 0.000000 -0.128266
#
#
# Mechanical properties :
#
#
# Convention : Reuss Voigt Hill
#
# Bulk Modulus (GPa) = 55.47225 67.51286 61.49255
# Shear Modulus (GPa) = -192.76436 53.09256 -69.83590
#
# Velocity S-wave (km/s) = -8.83479 4.63660 -5.31768
# Velocity P-wave (km/s) = 9.03381 7.48339 3.57830
#
# Compressibility (1/GPa) = 0.01802703
#
# Stress axis : x y z
#
# Youngs Moduli (GPa) = 97.30311 60.48652 105.45258
#
# Poissons Ratio (x) = 0.13866 0.46694
# Poissons Ratio (y) = 0.22306 0.25440
# Poissons Ratio (z) = 0.43086 0.14592
#
# Static dielectric constant tensor:
#      x y z
#    x 1.758750 0.000000 0.000000 
#    y 0.000000 1.981360 0.000000 
#    z 0.000000 0.000000 1.936950 
# 
# From -- ./inp_files/18626.got.cif
#   From: 2010.05.17/outbox.cif.g08.bks.cpg/sg40_10_cif.got.tgz:18626.got - 2010.06.03 18:35:42.
