data_PCOD9364000
_publ_section_title
;
Structure prediction by ZEFSAII (Michael W. Deem and Ramdas Pophale) SiO2 
 PCOD9364000
Probable space group: A M A 2
;
_chemical_formula_sum "Si O2"
_cell_formula_units_Z 48
_cell_length_a 21.720424
_cell_length_b 11.296250
_cell_length_c 7.804309
_cell_angle_alpha 90.000000
_cell_angle_beta 90.000000
_cell_angle_gamma 90.000000
_cell_volume 1914.860102
_symmetry_space_group_name_H-M "A M A 2"
_symmetry_group_IT_number 40
_symmetry_cell_setting 'orthorhombic'
loop_
_space_group_symop_operation_xyz
x,y,z
-x,-y,z
1/2-x,y,z
1/2+x,-y,z
x,1/2+y,1/2+z
-x,1/2-y,1/2+z
1/2-x,1/2+y,1/2+z
1/2+x,1/2-y,1/2+z
loop_
_atom_site_type_symbol
_atom_site_label
_atom_site_fract_x
_atom_site_fract_y
_atom_site_fract_z
Si Si1 0.032803 0.124603 0.803880
Si Si2 0.821437 0.372764 0.942355
Si Si3 0.001591 0.372499 0.932327
Si Si4 0.680832 0.118722 0.955951
Si Si5 0.856920 0.871359 0.076090
Si Si6 0.638542 0.617473 0.091158
O O1 0.997173 0.248850 0.834493
O O2 0.088535 0.125725 0.938256
O O3 0.043350 0.124521 0.598087
O O4 0.000000 0.000000 0.838043
O O5 0.750000 0.371799 0.879313
O O6 0.828322 0.247360 0.042706
O O7 0.867742 0.368389 0.780687
O O8 0.830269 0.495969 0.036130
O O9 0.070785 0.373299 0.011770
O O10 0.000000 0.500000 0.837009
O O11 0.750000 0.119820 0.883283
O O12 0.635551 0.112157 0.795902
O O13 0.675489 0.998085 0.058574
O O14 0.827623 0.741256 0.044815
#
# Coordination Sequence:
#
# PCOD9364000 Si02
#       6
#     8   8   8   8   8   8
#     4  10  22  39  59  85 117 151 190 238 289 344
#     4  10  22  39  59  86 118 153 195 239 286 344
#     4  10  22  38  58  85 116 151 192 238 287 343
#     4  10  20  36  59  85 116 153 192 238 289 342
#     4  10  22  39  59  86 117 152 192 239 291 342
#     4  10  22  39  58  85 118 154 193 238 290 341
#
# _framework density 25.067104
#
# number of rings (size 3 to 8) (size 9 to 14) (size 15 to 20)
#    0.000    2.000    0.000    3.000    0.000   12.000 
#    0.000    0.000    0.000    0.000    0.000    0.000 
#    0.000    0.000    0.000    0.000    0.000    0.000 
#
# Total GULP energy -133938.110098 kJ/mol
# GULP energy per Si atom -5580.754587 kJ/mol
# Density = 2.501005 g / cm^3
# Si number density = 25.067104 Si / 1000 Ang^3
#
#
#
# Elastic Constant Matrix: (Units=GPa)
#
#
# Indices 1 2 3 4 5 6 
#
# 1 54.8331 35.0275 -3.0319 0.0000 0.0000 0.0000
# 2 35.0275 334.4486 64.6551 0.0000 0.0000 0.0000
# 3 -3.0319 64.6551 49.5884 0.0000 0.0000 0.0000
# 4 0.0000 0.0000 0.0000 46.3861 0.0000 0.0000
# 5 0.0000 0.0000 0.0000 0.0000 24.1782 0.0000
# 6 0.0000 0.0000 0.0000 0.0000 0.0000 32.6152
#
#
#
# Elastic Compliance Matrix: (Units=1/GPa)
#
#
# Indices 1 2 3 4 5 6 
#
# 1 0.020587 -0.003208 0.005442 0.000000 0.000000 0.000000
# 2 -0.003208 0.004498 -0.006060 0.000000 0.000000 0.000000
# 3 0.005442 -0.006060 0.028400 0.000000 0.000000 0.000000
# 4 0.000000 0.000000 0.000000 0.021558 0.000000 0.000000
# 5 0.000000 0.000000 0.000000 0.000000 0.041359 0.000000
# 6 0.000000 0.000000 0.000000 0.000000 0.000000 0.030661
#
#
# Mechanical properties :
#
#
# Convention : Reuss Voigt Hill
#
# Bulk Modulus (GPa) = 21.81897 70.24128 46.03013
# Shear Modulus (GPa) = 29.41279 43.45053 36.43166
#
# Velocity S-wave (km/s) = 3.42915 4.16789 3.81644
# Velocity P-wave (km/s) = 4.93983 7.15848 6.15003
#
# Compressibility (1/GPa) = 0.04583168
#
# Stress axis : x y z
#
# Youngs Moduli (GPa) = 48.57341 222.34393 35.21102
#
# Poissons Ratio (x) = 0.71331 -0.19160
# Poissons Ratio (y) = 0.15583 0.21339
# Poissons Ratio (z) = -0.26432 1.34745
#
# Static dielectric constant tensor:
#      x y z
#    x 2.102460 0.000000 0.000000 
#    y 0.000000 2.005660 0.000000 
#    z 0.000000 0.000000 1.944220 
# 
# From -- ./inp_files/8714.got.cif
#   From: 2010.05.17/outbox.cif.g08.bks.cpg/sg40_5_cif.got.tgz:8714.got - 2010.06.03 18:35:42.
