data_PCOD9364169
_publ_section_title
;
Structure prediction by ZEFSAII (Michael W. Deem and Ramdas Pophale) SiO2 
 PCOD9364169
Probable space group: A M A 2
;
_chemical_formula_sum "Si O2"
_cell_formula_units_Z 40
_cell_length_a 24.344308
_cell_length_b 7.064627
_cell_length_c 10.105516
_cell_angle_alpha 90.000000
_cell_angle_beta 90.000000
_cell_angle_gamma 90.000000
_cell_volume 1737.981562
_symmetry_space_group_name_H-M "A M A 2"
_symmetry_group_IT_number 40
_symmetry_cell_setting 'orthorhombic'
loop_
_space_group_symop_operation_xyz
x,y,z
-x,-y,z
1/2-x,y,z
1/2+x,-y,z
x,1/2+y,1/2+z
-x,1/2-y,1/2+z
1/2-x,1/2+y,1/2+z
1/2+x,1/2-y,1/2+z
loop_
_atom_site_type_symbol
_atom_site_label
_atom_site_fract_x
_atom_site_fract_y
_atom_site_fract_z
Si Si1 0.250000 0.779013 0.903920
Si Si2 0.631521 0.155607 0.323658
Si Si3 0.630057 0.711930 0.350670
Si Si4 0.448810 0.765507 0.080320
Si Si5 0.570820 0.682616 0.076465
Si Si6 0.250000 0.367475 0.727508
O O1 0.309007 0.867902 0.869535
O O2 0.250000 0.582148 0.804947
O O3 0.250000 0.811313 0.067936
O O4 0.586917 0.175584 0.207147
O O5 0.605918 0.251456 0.452046
O O6 0.691878 0.214256 0.276913
O O7 0.636922 0.937482 0.366308
O O8 0.582727 0.653795 0.453105
O O9 0.608058 0.687112 0.204746
O O10 0.513993 0.796804 0.091817
O O11 0.444115 0.538373 0.063138
#
# Coordination Sequence:
#
# PCOD9364169 Si02
#       6
#     4   8   8   8   8   4
#     4  10  20  39  65  92 123 168 218 266 330 399
#     4  10  21  38  61  85 118 159 206 253 317 381
#     4  10  21  38  61  84 120 158 205 256 315 380
#     4  10  20  38  58  84 122 157 198 256 312 382
#     4  10  22  36  57  90 118 155 204 255 313 380
#     4  10  20  39  67  90 123 170 216 266 332 397
#
# _framework density 23.015204000000001
#
# number of rings (size 3 to 8) (size 9 to 14) (size 15 to 20)
#    0.000    2.000    2.000    1.200    0.000    4.800 
#    0.000    2.000    0.000    0.000    0.000    0.000 
#    0.000    0.000    0.000    0.000    0.000    0.000 
#
# Total GULP energy -111425.833388 kJ/mol
# GULP energy per Si atom -5571.291669 kJ/mol
# Density = 2.296282 g / cm^3
# Si number density = 23.015204 Si / 1000 Ang^3
#
#
#
# Elastic Constant Matrix: (Units=GPa)
#
#
# Indices 1 2 3 4 5 6 
#
# 1 256.1251 -20.7629 115.5193 0.0000 0.0000 0.0000
# 2 -20.7629 69.6351 -23.6114 0.0000 0.0000 0.0000
# 3 115.5193 -23.6114 180.0444 0.0000 0.0000 0.0000
# 4 0.0000 0.0000 0.0000 24.8020 0.0000 0.0000
# 5 0.0000 0.0000 0.0000 0.0000 112.4081 0.0000
# 6 0.0000 0.0000 0.0000 0.0000 0.0000 1.2069
#
#
#
# Elastic Compliance Matrix: (Units=1/GPa)
#
#
# Indices 1 2 3 4 5 6 
#
# 1 0.005509 0.000465 -0.003473 0.000000 0.000000 0.000000
# 2 0.000465 0.015068 0.001678 0.000000 0.000000 0.000000
# 3 -0.003473 0.001678 0.008003 0.000000 0.000000 0.000000
# 4 0.000000 0.000000 0.000000 0.040319 0.000000 0.000000
# 5 0.000000 0.000000 0.000000 0.000000 0.008896 0.000000
# 6 0.000000 0.000000 0.000000 0.000000 0.000000 0.828542
#
#
# Mechanical properties :
#
#
# Convention : Reuss Voigt Hill
#
# Bulk Modulus (GPa) = 38.58347 72.01050 55.29699
# Shear Modulus (GPa) = 5.44877 56.66070 31.05473
#
# Velocity S-wave (km/s) = 1.54033 4.96712 3.67729
# Velocity P-wave (km/s) = 4.46813 8.01577 6.48909
#
# Compressibility (1/GPa) = 0.02591783
#
# Stress axis : x y z
#
# Youngs Moduli (GPa) = 181.53251 66.36551 124.95509
#
# Poissons Ratio (x) = -0.03084 0.43403
# Poissons Ratio (y) = -0.08436 -0.20966
# Poissons Ratio (z) = 0.63055 -0.11135
#
# Static dielectric constant tensor:
#      x y z
#    x 1.830680 0.000000 0.000000 
#    y 0.000000 2.115230 0.000000 
#    z 0.000000 0.000000 1.894690 
# 
# From -- ./inp_files/8111.got.cif
#   From: 2010.05.17/outbox.cif.g08.bks.cpg/sg40_5_cif.got.tgz:8111.got - 2010.06.03 18:35:42.
