data_PCOD9364883
_publ_section_title
;
Structure prediction by ZEFSAII (Michael W. Deem and Ramdas Pophale) SiO2 
 PCOD9364883
Probable space group: A M A 2
;
_chemical_formula_sum "Si O2"
_cell_formula_units_Z 60
_cell_length_a 9.581106
_cell_length_b 15.362703
_cell_length_c 20.071809
_cell_angle_alpha 90.000000
_cell_angle_beta 90.000000
_cell_angle_gamma 90.000000
_cell_volume 2954.403406
_symmetry_space_group_name_H-M "A M A 2"
_symmetry_group_IT_number 40
_symmetry_cell_setting 'orthorhombic'
loop_
_space_group_symop_operation_xyz
x,y,z
-x,-y,z
1/2-x,y,z
1/2+x,-y,z
x,1/2+y,1/2+z
-x,1/2-y,1/2+z
1/2-x,1/2+y,1/2+z
1/2+x,1/2-y,1/2+z
loop_
_atom_site_type_symbol
_atom_site_label
_atom_site_fract_x
_atom_site_fract_y
_atom_site_fract_z
Si Si1 0.910979 0.250302 0.601000
Si Si2 0.491373 0.624592 0.714200
Si Si3 0.916524 0.718523 0.848301
Si Si4 0.591565 0.919170 0.583954
Si Si5 0.750000 0.516057 0.696552
Si Si6 0.590344 0.916937 0.857922
Si Si7 0.090006 0.582890 0.923543
Si Si8 0.408573 0.081851 0.019057
O O1 0.750000 0.224507 0.587589
O O2 0.951103 0.324858 0.547367
O O3 0.924139 0.298797 0.671025
O O4 0.012620 0.169372 0.599878
O O5 0.550680 0.662265 0.783004
O O6 0.625644 0.585353 0.677128
O O7 0.372164 0.552644 0.721468
O O8 0.750000 0.715896 0.863556
O O9 0.956208 0.819694 0.838248
O O10 0.007583 0.670418 0.904399
O O11 0.750000 0.921337 0.609046
O O12 0.596788 0.924571 0.503364
O O13 0.500000 0.000000 0.608602
O O14 0.750000 0.928378 0.835719
O O15 0.500000 0.000000 0.836533
O O16 0.590821 0.916091 0.939037
O O17 0.250000 0.581868 0.898220
O O18 0.000000 0.500000 0.898549
O O19 0.250000 0.067342 0.044667
O O20 0.500000 0.000000 0.040717
#
# Coordination Sequence:
#
# PCOD9364883 Si02
#       8
#     8   8   8   8   4   8   8   8
#     4  11  23  38  60  87 118 155 198 241 291 351
#     4  11  24  40  60  88 119 158 197 240 292 353
#     4  11  23  38  60  85 117 157 201 246 295 353
#     4  10  22  41  62  87 118 155 195 245 297 348
#     4  10  24  42  60  80 126 158 196 238 292 346
#     4   9  19  38  58  82 112 148 188 237 289 339
#     4  10  22  36  58  89 121 155 194 238 296 355
#     4   9  19  33  55  84 116 149 186 230 286 347
#
# _framework density 20.308668000000001
#
# number of rings (size 3 to 8) (size 9 to 14) (size 15 to 20)
#    0.000    1.867    1.333    1.600    5.600    3.733 
#    0.000    3.333    0.000    1.600    0.000    0.000 
#    0.000    0.000    0.000    0.000    0.000    0.000 
#
# Total GULP energy -167022.001023 kJ/mol
# GULP energy per Si atom -5567.400034 kJ/mol
# Density = 2.026244 g / cm^3
# Si number density = 20.308668 Si / 1000 Ang^3
#
#
#
# Elastic Constant Matrix: (Units=GPa)
#
#
# Indices 1 2 3 4 5 6 
#
# 1 138.3597 70.7083 -0.0338 0.0000 0.0000 0.0000
# 2 70.7083 121.5393 -10.7545 0.0000 0.0000 0.0000
# 3 -0.0338 -10.7545 4.0288 0.0000 0.0000 0.0000
# 4 0.0000 0.0000 0.0000 4.0700 0.0000 0.0000
# 5 0.0000 0.0000 0.0000 0.0000 14.6810 0.0000
# 6 0.0000 0.0000 0.0000 0.0000 0.0000 42.0603
#
#
#
# Elastic Compliance Matrix: (Units=1/GPa)
#
#
# Indices 1 2 3 4 5 6 
#
# 1 0.011815 -0.008988 -0.023892 0.000000 0.000000 0.000000
# 2 -0.008988 0.017609 0.046930 0.000000 0.000000 0.000000
# 3 -0.023892 0.046930 0.373284 0.000000 0.000000 0.000000
# 4 0.000000 0.000000 0.000000 0.245702 0.000000 0.000000
# 5 0.000000 0.000000 0.000000 0.000000 0.068115 0.000000
# 6 0.000000 0.000000 0.000000 0.000000 0.000000 0.023775
#
#
# Mechanical properties :
#
#
# Convention : Reuss Voigt Hill
#
# Bulk Modulus (GPa) = 2.32122 42.64087 22.48105
# Shear Modulus (GPa) = 5.84246 25.76277 15.80262
#
# Velocity S-wave (km/s) = 1.69796 3.56555 2.79251
# Velocity P-wave (km/s) = 2.23373 6.16383 4.63586
#
# Compressibility (1/GPa) = 0.43080850
#
# Stress axis : x y z
#
# Youngs Moduli (GPa) = 84.63960 56.78856 2.67892
#
# Poissons Ratio (x) = 0.51040 0.06401
# Poissons Ratio (y) = 0.76071 -0.12572
# Poissons Ratio (z) = 2.02222 -2.66509
#
# Static dielectric constant tensor:
#      x y z
#    x 1.711490 0.000000 0.000000 
#    y 0.000000 1.712810 0.000000 
#    z 0.000000 0.000000 1.804790 
# 
# From -- ./inp_files/24168.got.cif
#   From: 2010.05.17/outbox.cif.g08.bks.cpg/sg40_13_cif.got.tgz:24168.got - 2010.06.03 18:35:42.
