data_PCOD9364707
_publ_section_title
;
Structure prediction by ZEFSAII (Michael W. Deem and Ramdas Pophale) SiO2 
 PCOD9364707
Probable space group: A M A 2
;
_chemical_formula_sum "Si O2"
_cell_formula_units_Z 56
_cell_length_a 19.942587
_cell_length_b 14.526831
_cell_length_c 9.756026
_cell_angle_alpha 90.000000
_cell_angle_beta 90.000000
_cell_angle_gamma 90.000000
_cell_volume 2826.346011
_symmetry_space_group_name_H-M "A M A 2"
_symmetry_group_IT_number 40
_symmetry_cell_setting 'orthorhombic'
loop_
_space_group_symop_operation_xyz
x,y,z
-x,-y,z
1/2-x,y,z
1/2+x,-y,z
x,1/2+y,1/2+z
-x,1/2-y,1/2+z
1/2-x,1/2+y,1/2+z
1/2+x,1/2-y,1/2+z
loop_
_atom_site_type_symbol
_atom_site_label
_atom_site_fract_x
_atom_site_fract_y
_atom_site_fract_z
Si Si1 0.829525 0.831120 0.699470
Si Si2 0.174044 0.321659 0.935444
Si Si3 0.172632 0.482791 0.364761
Si Si4 0.043207 0.413900 0.883518
Si Si5 0.429509 0.725406 0.957054
Si Si6 0.057822 0.431434 0.556792
Si Si7 0.674203 0.720811 0.240895
O O1 0.750000 0.831202 0.657809
O O2 0.837272 0.747785 0.809007
O O3 0.881925 0.814196 0.577435
O O4 0.844005 0.927749 0.774759
O O5 0.250000 0.358173 0.926384
O O6 0.117686 0.399579 0.939179
O O7 0.168975 0.267540 0.078595
O O8 0.250000 0.491660 0.405536
O O9 0.126915 0.471678 0.498175
O O10 0.166231 0.387868 0.278278
O O11 0.052440 0.423453 0.720167
O O12 0.000000 0.500000 0.933967
O O13 0.997465 0.328096 0.926152
O O14 0.382754 0.726227 0.822600
O O15 0.447815 0.829545 0.996259
O O16 0.000000 0.500000 0.507957
O O17 0.750000 0.746362 0.284597
#
# Coordination Sequence:
#
# PCOD9364707 Si02
#       7
#     8   8   8   8   8   8   8
#     4  10  21  39  66  97 123 163 216 263 318 384
#     4  10  22  40  63  88 124 164 207 258 315 380
#     4   9  20  39  66  94 122 156 209 264 316 379
#     4  11  26  42  60  92 129 168 217 261 320 384
#     4  11  23  40  65  91 126 170 205 273 317 380
#     4  10  23  41  60  89 126 167 210 262 314 385
#     4   9  20  39  63  92 124 161 202 256 320 380
#
# _framework density 19.813569000000001
#
# number of rings (size 3 to 8) (size 9 to 14) (size 15 to 20)
#    0.000    2.000    1.429    0.429    6.000    2.286 
#    2.571    0.714    0.000    0.857    0.000    0.000 
#    0.000    0.000    0.000    0.000    0.000    0.000 
#
# Total GULP energy -156331.100101 kJ/mol
# GULP energy per Si atom -5583.253575 kJ/mol
# Density = 1.976847 g / cm^3
# Si number density = 19.813569 Si / 1000 Ang^3
#
#
#
# Elastic Constant Matrix: (Units=GPa)
#
#
# Indices 1 2 3 4 5 6 
#
# 1 126.5254 51.9743 58.2419 0.0000 0.0000 0.0000
# 2 51.9743 60.4325 12.6476 0.0000 0.0000 0.0000
# 3 58.2419 12.6476 74.2307 0.0000 0.0000 0.0000
# 4 0.0000 0.0000 0.0000 10.3417 0.0000 0.0000
# 5 0.0000 0.0000 0.0000 0.0000 30.3034 0.0000
# 6 0.0000 0.0000 0.0000 0.0000 0.0000 20.0390
#
#
#
# Elastic Compliance Matrix: (Units=1/GPa)
#
#
# Indices 1 2 3 4 5 6 
#
# 1 0.019807 -0.014292 -0.013106 0.000000 0.000000 0.000000
# 2 -0.014292 0.027472 0.006533 0.000000 0.000000 0.000000
# 3 -0.013106 0.006533 0.022641 0.000000 0.000000 0.000000
# 4 0.000000 0.000000 0.000000 0.096696 0.000000 0.000000
# 5 0.000000 0.000000 0.000000 0.000000 0.033000 0.000000
# 6 0.000000 0.000000 0.000000 0.000000 0.000000 0.049903
#
#
# Mechanical properties :
#
#
# Convention : Reuss Voigt Hill
#
# Bulk Modulus (GPa) = 35.47272 56.32402 45.89837
# Shear Modulus (GPa) = 16.63083 21.35847 18.99465
#
# Velocity S-wave (km/s) = 2.90032 3.28681 3.09960
# Velocity P-wave (km/s) = 5.39981 6.54926 6.00212
#
# Compressibility (1/GPa) = 0.02819067
#
# Stress axis : x y z
#
# Youngs Moduli (GPa) = 50.48599 36.40057 44.16690
#
# Poissons Ratio (x) = 0.52025 0.57885
# Poissons Ratio (y) = 0.72156 -0.28855
# Poissons Ratio (z) = 0.66167 -0.23781
#
# Static dielectric constant tensor:
#      x y z
#    x 1.763910 0.000000 0.000000 
#    y 0.000000 1.701610 0.000000 
#    z 0.000000 0.000000 1.682540 
# 
# From -- ./inp_files/8290.got.cif
#   From: 2010.05.17/outbox.cif.g08.bks.cpg/sg40_5_cif.got.tgz:8290.got - 2010.06.03 18:35:42.
