data_PCOD9364831
_publ_section_title
;
Structure prediction by ZEFSAII (Michael W. Deem and Ramdas Pophale) SiO2 
 PCOD9364831
Probable space group: A M A 2
;
_chemical_formula_sum "Si O2"
_cell_formula_units_Z 40
_cell_length_a 25.622040
_cell_length_b 4.852049
_cell_length_c 14.353059
_cell_angle_alpha 90.000000
_cell_angle_beta 90.000000
_cell_angle_gamma 90.000000
_cell_volume 1784.363591
_symmetry_space_group_name_H-M "A M A 2"
_symmetry_group_IT_number 40
_symmetry_cell_setting 'orthorhombic'
loop_
_space_group_symop_operation_xyz
x,y,z
-x,-y,z
1/2-x,y,z
1/2+x,-y,z
x,1/2+y,1/2+z
-x,1/2-y,1/2+z
1/2-x,1/2+y,1/2+z
1/2+x,1/2-y,1/2+z
loop_
_atom_site_type_symbol
_atom_site_label
_atom_site_fract_x
_atom_site_fract_y
_atom_site_fract_z
Si Si1 0.353874 0.984556 0.166770
Si Si2 0.250000 0.257741 0.879290
Si Si3 0.104363 0.960302 0.767961
Si Si4 0.142613 0.559117 0.457279
Si Si5 0.964795 0.266550 0.404969
Si Si6 0.750000 0.253351 0.749870
O O1 0.397973 0.201234 0.200819
O O2 0.300850 0.146973 0.193368
O O3 0.361716 0.704458 0.223218
O O4 0.356018 0.924028 0.057765
O O5 0.197764 0.199308 0.936990
O O6 0.250000 0.568138 0.844208
O O7 0.250000 0.058862 0.787324
O O8 0.131073 0.870055 0.866380
O O9 0.052370 0.106190 0.805148
O O10 0.091765 0.760023 0.453743
O O11 0.000000 0.500000 0.453400
O O12 0.000000 0.000000 0.397709
#
# Coordination Sequence:
#
# PCOD9364831 Si02
#       6
#     8   4   8   8   8   4
#     4  12  22  41  64  96 126 169 211 259 311 383
#     4  12  23  42  63  94 128 172 197 266 317 370
#     4  10  24  41  65  90 129 160 212 262 308 374
#     4  10  25  42  68  92 133 164 213 258 323 366
#     4  10  21  42  67  88 128 168 206 262 314 367
#     4  12  19  38  63  88 132 166 213 248 313 378
#
# _framework density 22.416958000000001
#
# number of rings (size 3 to 8) (size 9 to 14) (size 15 to 20)
#    1.200    0.000    4.000    1.800    0.000    6.400 
#    0.000    8.000    0.000    0.000    0.000    0.000 
#    0.000    0.000    0.000    0.000    0.000    0.000 
#
# Total GULP energy -111592.027912 kJ/mol
# GULP energy per Si atom -5579.601396 kJ/mol
# Density = 2.236594 g / cm^3
# Si number density = 22.416958 Si / 1000 Ang^3
#
#
#
# Elastic Constant Matrix: (Units=GPa)
#
#
# Indices 1 2 3 4 5 6 
#
# 1 149.7132 21.6209 23.7765 0.0000 0.0000 0.0000
# 2 21.6209 85.2816 12.3412 0.0000 0.0000 0.0000
# 3 23.7765 12.3412 117.7261 0.0000 0.0000 0.0000
# 4 0.0000 0.0000 0.0000 10.6152 0.0000 0.0000
# 5 0.0000 0.0000 0.0000 0.0000 7.2468 0.0000
# 6 0.0000 0.0000 0.0000 0.0000 0.0000 27.7195
#
#
#
# Elastic Compliance Matrix: (Units=1/GPa)
#
#
# Indices 1 2 3 4 5 6 
#
# 1 0.007115 -0.001620 -0.001267 0.000000 0.000000 0.000000
# 2 -0.001620 0.012276 -0.000960 0.000000 0.000000 0.000000
# 3 -0.001267 -0.000960 0.008851 0.000000 0.000000 0.000000
# 4 0.000000 0.000000 0.000000 0.094204 0.000000 0.000000
# 5 0.000000 0.000000 0.000000 0.000000 0.137993 0.000000
# 6 0.000000 0.000000 0.000000 0.000000 0.000000 0.036076
#
#
# Mechanical properties :
#
#
# Convention : Reuss Voigt Hill
#
# Bulk Modulus (GPa) = 48.66899 52.02201 50.34550
# Shear Modulus (GPa) = 16.07423 28.78180 22.42802
#
# Velocity S-wave (km/s) = 2.68070 3.58708 3.16649
# Velocity P-wave (km/s) = 5.59816 6.35713 5.98968
#
# Compressibility (1/GPa) = 0.02054696
#
# Stress axis : x y z
#
# Youngs Moduli (GPa) = 140.55472 81.46291 112.98437
#
# Poissons Ratio (x) = 0.13200 0.14316
# Poissons Ratio (y) = 0.22775 0.10842
# Poissons Ratio (z) = 0.17809 0.07817
#
# Static dielectric constant tensor:
#      x y z
#    x 1.914570 0.000000 0.000000 
#    y 0.000000 1.799890 0.000000 
#    z 0.000000 0.000000 1.794510 
# 
# From -- ./inp_files/18598.got.cif
#   From: 2010.05.17/outbox.cif.g08.bks.cpg/sg40_10_cif.got.tgz:18598.got - 2010.06.03 18:35:42.
