data_PCOD9364452
_publ_section_title
;
Structure prediction by ZEFSAII (Michael W. Deem and Ramdas Pophale) SiO2 
 PCOD9364452
Probable space group: A M A 2
;
_chemical_formula_sum "Si O2"
_cell_formula_units_Z 64
_cell_length_a 17.287786
_cell_length_b 15.665153
_cell_length_c 12.415105
_cell_angle_alpha 90.000000
_cell_angle_beta 90.000000
_cell_angle_gamma 90.000000
_cell_volume 3362.206751
_symmetry_space_group_name_H-M "A M A 2"
_symmetry_group_IT_number 40
_symmetry_cell_setting 'orthorhombic'
loop_
_space_group_symop_operation_xyz
x,y,z
-x,-y,z
1/2-x,y,z
1/2+x,-y,z
x,1/2+y,1/2+z
-x,1/2-y,1/2+z
1/2-x,1/2+y,1/2+z
1/2+x,1/2-y,1/2+z
loop_
_atom_site_type_symbol
_atom_site_label
_atom_site_fract_x
_atom_site_fract_y
_atom_site_fract_z
Si Si1 0.090274 0.319005 0.474450
Si Si2 0.838820 0.778148 0.111020
Si Si3 0.656763 0.836646 0.334293
Si Si4 0.917295 0.843942 0.905158
Si Si5 0.407851 0.897042 0.656677
Si Si6 0.921601 0.813445 0.660038
Si Si7 0.841386 0.957072 0.523601
Si Si8 0.159142 0.474635 0.372944
O O1 0.119436 0.243875 0.395017
O O2 0.082219 0.273250 0.590353
O O3 0.146101 0.399909 0.460620
O O4 0.007699 0.350604 0.431357
O O5 0.750000 0.799601 0.092050
O O6 0.868751 0.835993 0.210174
O O7 0.849017 0.681782 0.151261
O O8 0.883537 0.787339 0.000585
O O9 0.750000 0.824948 0.335324
O O10 0.639845 0.919778 0.405602
O O11 0.905665 0.804985 0.786551
O O12 0.875420 0.935269 0.909155
O O13 0.493557 0.857519 0.651890
O O14 0.388442 0.946951 0.766360
O O15 0.390923 0.962149 0.560139
O O16 0.862133 0.879919 0.605380
O O17 0.750000 0.976236 0.530083
O O18 0.250000 0.482141 0.347420
#
# Coordination Sequence:
#
# PCOD9364452 Si02
#       8
#     8   8   8   8   8   8   8   8
#     4  11  22  39  62  89 123 167 207 255 314 373
#     4  11  22  39  63  89 126 168 205 250 310 383
#     4   9  19  38  62  89 122 164 211 252 302 373
#     4  12  24  40  61  95 131 160 207 262 318 370
#     4  12  21  38  63  95 123 159 212 263 312 369
#     4  11  23  39  62  93 129 164 206 261 322 370
#     4  10  21  35  60  95 126 157 204 262 309 361
#     4  12  24  40  65  93 122 165 216 262 312 374
#
# _framework density 19.035118000000001
#
# number of rings (size 3 to 8) (size 9 to 14) (size 15 to 20)
#    0.000    1.000    5.000    2.625    0.000    1.000 
#    0.000    1.250    0.000    1.500    0.000    0.000 
#    0.000    0.000    0.000    0.000    0.000    0.000 
#
# Total GULP energy -178733.725982 kJ/mol
# GULP energy per Si atom -5585.428937 kJ/mol
# Density = 1.899179 g / cm^3
# Si number density = 19.035118 Si / 1000 Ang^3
#
#
#
# Elastic Constant Matrix: (Units=GPa)
#
#
# Indices 1 2 3 4 5 6 
#
# 1 39.0112 -0.3239 7.4612 0.0000 0.0000 0.0000
# 2 -0.3239 47.2031 12.3083 0.0000 0.0000 0.0000
# 3 7.4612 12.3083 97.9958 0.0000 0.0000 0.0000
# 4 0.0000 0.0000 0.0000 27.8172 0.0000 0.0000
# 5 0.0000 0.0000 0.0000 0.0000 20.1964 0.0000
# 6 0.0000 0.0000 0.0000 0.0000 0.0000 23.1186
#
#
#
# Elastic Compliance Matrix: (Units=1/GPa)
#
#
# Indices 1 2 3 4 5 6 
#
# 1 0.026036 0.000719 -0.002073 0.000000 0.000000 0.000000
# 2 0.000719 0.021922 -0.002808 0.000000 0.000000 0.000000
# 3 -0.002073 -0.002808 0.010715 0.000000 0.000000 0.000000
# 4 0.000000 0.000000 0.000000 0.035949 0.000000 0.000000
# 5 0.000000 0.000000 0.000000 0.000000 0.049514 0.000000
# 6 0.000000 0.000000 0.000000 0.000000 0.000000 0.043255
#
#
# Mechanical properties :
#
#
# Convention : Reuss Voigt Hill
#
# Bulk Modulus (GPa) = 19.86103 24.78902 22.32503
# Shear Modulus (GPa) = 23.52962 25.21073 24.37017
#
# Velocity S-wave (km/s) = 3.51966 3.64322 3.58197
# Velocity P-wave (km/s) = 5.19364 5.54513 5.37226
#
# Compressibility (1/GPa) = 0.05034987
#
# Stress axis : x y z
#
# Youngs Moduli (GPa) = 38.40828 45.61576 93.32675
#
# Poissons Ratio (x) = -0.03280 0.19344
# Poissons Ratio (y) = -0.02762 0.26208
# Poissons Ratio (z) = 0.07961 0.12810
#
# Static dielectric constant tensor:
#      x y z
#    x 1.675910 0.000000 0.000000 
#    y 0.000000 1.641880 0.000000 
#    z 0.000000 0.000000 1.675260 
# 
# From -- ./inp_files/13133.got.cif
#   From: 2010.05.17/outbox.cif.g08.bks.cpg/sg40_7_cif.got.tgz:13133.got - 2010.06.03 18:35:42.
