data_PCOD9364877
_publ_section_title
;
Structure prediction by ZEFSAII (Michael W. Deem and Ramdas Pophale) SiO2 
 PCOD9364877
Probable space group: A M A 2
;
_chemical_formula_sum "Si O2"
_cell_formula_units_Z 28
_cell_length_a 5.861968
_cell_length_b 17.297151
_cell_length_c 11.183829
_cell_angle_alpha 90.000000
_cell_angle_beta 90.000000
_cell_angle_gamma 90.000000
_cell_volume 1133.988207
_symmetry_space_group_name_H-M "A M A 2"
_symmetry_group_IT_number 40
_symmetry_cell_setting 'orthorhombic'
loop_
_space_group_symop_operation_xyz
x,y,z
-x,-y,z
1/2-x,y,z
1/2+x,-y,z
x,1/2+y,1/2+z
-x,1/2-y,1/2+z
1/2-x,1/2+y,1/2+z
1/2+x,1/2-y,1/2+z
loop_
_atom_site_type_symbol
_atom_site_label
_atom_site_fract_x
_atom_site_fract_y
_atom_site_fract_z
Si Si1 0.250000 0.641491 0.532161
Si Si2 0.750000 0.220137 0.358111
Si Si3 0.250000 0.596568 0.039201
Si Si4 0.499830 0.408383 0.321384
Si Si5 0.750000 0.806889 0.293154
Si Si6 0.250000 0.911926 0.529785
O O1 0.250000 0.729409 0.480338
O O2 0.464107 0.602182 0.465555
O O3 0.250000 0.642817 0.672894
O O4 0.503311 0.233153 0.295608
O O5 0.750000 0.131165 0.402497
O O6 0.250000 0.645283 0.916808
O O7 0.250000 0.504224 0.017755
O O8 0.507077 0.610232 0.089193
O O9 0.500000 0.500000 0.294232
O O10 0.250000 0.377989 0.295187
O O11 0.750000 0.378177 0.281297
#
# Coordination Sequence:
#
# PCOD9364877 Si02
#       6
#     4   4   4   8   4   4
#     4  10  22  34  57  71 118 150 173 222 271 320
#     4  10  22  35  50  76 110 141 187 211 264 330
#     4   8  14  28  43  64  97 124 160 209 255 297
#     4   8  16  30  46  74 102 132 173 208 259 323
#     4  10  22  35  49  80 104 144 184 215 262 328
#     4   8  14  28  43  65  97 129 158 205 246 307
#
# _framework density 24.691613
#
# number of rings (size 3 to 8) (size 9 to 14) (size 15 to 20)
#    0.857    2.286    0.000    0.000    4.000    0.000 
#   10.286    0.000    0.000    0.000    0.000    0.000 
#   51.429    0.000    0.000    0.000    0.000    0.000 
#
# Total GULP energy -77935.687458 kJ/mol
# GULP energy per Si atom -5566.834818 kJ/mol
# Density = 2.463541 g / cm^3
# Si number density = 24.691613 Si / 1000 Ang^3
#
#
#
# Elastic Constant Matrix: (Units=GPa)
#
#
# Indices 1 2 3 4 5 6 
#
# 1 344.1899 55.9417 81.4269 0.0000 0.0000 0.0000
# 2 55.9417 56.6649 20.4962 0.0000 0.0000 0.0000
# 3 81.4269 20.4962 33.6747 0.0000 0.0000 0.0000
# 4 0.0000 0.0000 0.0000 25.2588 0.0000 0.0000
# 5 0.0000 0.0000 0.0000 0.0000 39.1668 0.0000
# 6 0.0000 0.0000 0.0000 0.0000 0.0000 43.1824
#
#
#
# Elastic Compliance Matrix: (Units=1/GPa)
#
#
# Indices 1 2 3 4 5 6 
#
# 1 0.006832 -0.000986 -0.015919 0.000000 0.000000 0.000000
# 2 -0.000986 0.022772 -0.011475 0.000000 0.000000 0.000000
# 3 -0.015919 -0.011475 0.075173 0.000000 0.000000 0.000000
# 4 0.000000 0.000000 0.000000 0.039590 0.000000 0.000000
# 5 0.000000 0.000000 0.000000 0.000000 0.025532 0.000000
# 6 0.000000 0.000000 0.000000 0.000000 0.000000 0.023158
#
#
# Mechanical properties :
#
#
# Convention : Reuss Voigt Hill
#
# Bulk Modulus (GPa) = 20.82637 83.36215 52.09426
# Shear Modulus (GPa) = 18.80949 39.96591 29.38770
#
# Velocity S-wave (km/s) = 2.76302 4.02755 3.45365
# Velocity P-wave (km/s) = 4.31648 7.44734 6.08666
#
# Compressibility (1/GPa) = 0.04801605
#
# Stress axis : x y z
#
# Youngs Moduli (GPa) = 146.37459 43.91340 13.30260
#
# Poissons Ratio (x) = 0.04332 0.21177
# Poissons Ratio (y) = 0.14440 0.15265
# Poissons Ratio (z) = 2.33016 0.50390
#
# Static dielectric constant tensor:
#      x y z
#    x 1.997400 0.000000 0.000000 
#    y 0.000000 2.085750 0.000000 
#    z 0.000000 0.000000 2.086020 
# 
# From -- ./inp_files/9620.got.cif
#   From: 2010.05.17/outbox.cif.g08.bks.cpg/sg40_5_cif.got.tgz:9620.got - 2010.06.03 18:35:42.
