data_PCOD9364406
_publ_section_title
;
Structure prediction by ZEFSAII (Michael W. Deem and Ramdas Pophale) SiO2 
 PCOD9364406
Probable space group: A M A 2
;
_chemical_formula_sum "Si O2"
_cell_formula_units_Z 64
_cell_length_a 17.300089
_cell_length_b 8.768821
_cell_length_c 23.949098
_cell_angle_alpha 90.000000
_cell_angle_beta 90.000000
_cell_angle_gamma 90.000000
_cell_volume 3633.111306
_symmetry_space_group_name_H-M "A M A 2"
_symmetry_group_IT_number 40
_symmetry_cell_setting 'orthorhombic'
loop_
_space_group_symop_operation_xyz
x,y,z
-x,-y,z
1/2-x,y,z
1/2+x,-y,z
x,1/2+y,1/2+z
-x,1/2-y,1/2+z
1/2-x,1/2+y,1/2+z
1/2+x,1/2-y,1/2+z
loop_
_atom_site_type_symbol
_atom_site_label
_atom_site_fract_x
_atom_site_fract_y
_atom_site_fract_z
Si Si1 0.985237 0.179136 0.726310
Si Si2 0.073222 0.394684 0.641295
Si Si3 0.072663 0.391432 0.941403
Si Si4 0.159667 0.348156 0.048172
Si Si5 0.159955 0.688768 0.666633
Si Si6 0.660097 0.811546 0.417637
Si Si7 0.484618 0.321391 0.356850
Si Si8 0.159860 0.210244 0.547984
O O1 0.898955 0.225164 0.707319
O O2 0.994828 0.214953 0.791615
O O3 0.042845 0.277411 0.687920
O O4 0.000000 0.000000 0.717710
O O5 0.136988 0.511180 0.665144
O O6 0.106034 0.306433 0.588213
O O7 0.000000 0.500000 0.626139
O O8 0.136949 0.509359 0.918704
O O9 0.000000 0.500000 0.957201
O O10 0.042457 0.277277 0.894709
O O11 0.105669 0.308719 0.996000
O O12 0.250000 0.327686 0.033063
O O13 0.145010 0.255304 0.104383
O O14 0.147867 0.529332 0.057885
O O15 0.250000 0.711904 0.679618
O O16 0.750000 0.791259 0.404078
O O17 0.600979 0.724761 0.377635
O O18 0.647200 0.760821 0.482170
O O19 0.500000 0.500000 0.364791
O O20 0.250000 0.243610 0.560047
#
# Coordination Sequence:
#
# PCOD9364406 Si02
#       8
#     8   8   8   8   8   8   8   8
#     4  10  22  40  57  73 101 142 184 221 259 311
#     4  10  21  33  52  79 107 135 171 218 267 313
#     4   9  18  32  55  79 105 138 175 214 256 311
#     4   9  18  33  53  78 108 140 172 207 253 312
#     4  10  21  35  54  82 110 137 172 217 269 315
#     4   9  19  35  56  81 107 140 178 213 257 313
#     4  10  22  38  55  77 105 138 178 223 267 309
#     4   9  17  32  53  77 107 140 173 209 254 314
#
# _framework density 17.615756000000001
#
# number of rings (size 3 to 8) (size 9 to 14) (size 15 to 20)
#    0.000    2.500    0.000    2.250    0.000   13.000 
#    0.000    3.125    0.000    5.250    0.000    0.000 
#    0.000    0.000    0.000    0.000    0.000    0.000 
#
# Total GULP energy -178557.335198 kJ/mol
# GULP energy per Si atom -5579.916725 kJ/mol
# Density = 1.757566 g / cm^3
# Si number density = 17.615756 Si / 1000 Ang^3
#
#
#
# Elastic Constant Matrix: (Units=GPa)
#
#
# Indices 1 2 3 4 5 6 
#
# 1 64.8922 45.0051 63.3949 0.0000 0.0000 0.0000
# 2 45.0051 62.8838 64.8523 0.0000 0.0000 0.0000
# 3 63.3949 64.8523 109.0027 0.0000 0.0000 0.0000
# 4 0.0000 0.0000 0.0000 25.5718 0.0000 0.0000
# 5 0.0000 0.0000 0.0000 0.0000 15.9696 0.0000
# 6 0.0000 0.0000 0.0000 0.0000 0.0000 18.3526
#
#
#
# Elastic Compliance Matrix: (Units=1/GPa)
#
#
# Indices 1 2 3 4 5 6 
#
# 1 0.038705 -0.011608 -0.015604 0.000000 0.000000 0.000000
# 2 -0.011608 0.044635 -0.019805 0.000000 0.000000 0.000000
# 3 -0.015604 -0.019805 0.030032 0.000000 0.000000 0.000000
# 4 0.000000 0.000000 0.000000 0.039106 0.000000 0.000000
# 5 0.000000 0.000000 0.000000 0.000000 0.062619 0.000000
# 6 0.000000 0.000000 0.000000 0.000000 0.000000 0.054488
#
#
# Mechanical properties :
#
#
# Convention : Reuss Voigt Hill
#
# Bulk Modulus (GPa) = 51.71113 64.80925 58.26019
# Shear Modulus (GPa) = 13.51114 16.21388 14.86251
#
# Velocity S-wave (km/s) = 2.77247 3.03713 2.90781
# Velocity P-wave (km/s) = 6.29822 7.01208 6.66471
#
# Compressibility (1/GPa) = 0.01933820
#
# Stress axis : x y z
#
# Youngs Moduli (GPa) = 25.83662 22.40396 33.29736
#
# Poissons Ratio (x) = 0.26006 0.51957
# Poissons Ratio (y) = 0.29991 0.65945
# Poissons Ratio (z) = 0.40316 0.44371
#
# Static dielectric constant tensor:
#      x y z
#    x 1.610660 0.000000 0.000000 
#    y 0.000000 1.595350 0.000000 
#    z 0.000000 0.000000 1.577340 
# 
# From -- ./inp_files/23372.got.cif
#   From: 2010.05.17/outbox.cif.g08.bks.cpg/sg40_12_cif.got.tgz:23372.got - 2010.06.03 18:35:42.
