data_PCOD9364085
_publ_section_title
;
Structure prediction by ZEFSAII (Michael W. Deem and Ramdas Pophale) SiO2 
 PCOD9364085
Probable space group: A M A 2
;
_chemical_formula_sum "Si O2"
_cell_formula_units_Z 64
_cell_length_a 15.548929
_cell_length_b 8.348624
_cell_length_c 24.982708
_cell_angle_alpha 90.000000
_cell_angle_beta 90.000000
_cell_angle_gamma 90.000000
_cell_volume 3243.059334
_symmetry_space_group_name_H-M "A M A 2"
_symmetry_group_IT_number 40
_symmetry_cell_setting 'orthorhombic'
loop_
_space_group_symop_operation_xyz
x,y,z
-x,-y,z
1/2-x,y,z
1/2+x,-y,z
x,1/2+y,1/2+z
-x,1/2-y,1/2+z
1/2-x,1/2+y,1/2+z
1/2+x,1/2-y,1/2+z
loop_
_atom_site_type_symbol
_atom_site_label
_atom_site_fract_x
_atom_site_fract_y
_atom_site_fract_z
Si Si1 0.847159 0.222285 0.243510
Si Si2 0.649080 0.726211 0.528842
Si Si3 0.911658 0.393779 0.137753
Si Si4 0.084168 0.108351 0.245258
Si Si5 0.349539 0.160750 0.030628
Si Si6 0.502968 0.304393 0.450953
Si Si7 0.845827 0.225324 0.644371
Si Si8 0.489145 0.190637 0.828270
O O1 0.750000 0.285397 0.243315
O O2 0.896374 0.283224 0.189906
O O3 0.902813 0.275036 0.294706
O O4 0.844956 0.029497 0.246932
O O5 0.750000 0.776452 0.522904
O O6 0.608208 0.797083 0.583408
O O7 0.649762 0.532229 0.530870
O O8 0.582624 0.761588 0.480298
O O9 0.842876 0.535592 0.142142
O O10 0.000000 0.500000 0.137276
O O11 0.100771 0.219268 0.194876
O O12 0.065104 0.217605 0.296593
O O13 0.000000 0.000000 0.237648
O O14 0.250000 0.213148 0.024425
O O15 0.383268 0.214189 0.088489
O O16 0.412633 0.231174 0.986092
O O17 0.500000 0.500000 0.450729
O O18 0.512351 0.253203 0.389579
O O19 0.750000 0.294483 0.648485
O O20 0.500000 0.000000 0.827285
#
# Coordination Sequence:
#
# PCOD9364085 Si02
#       8
#     8   8   8   8   8   8   8   8
#     4  11  22  38  59  85 115 154 198 245 299 363
#     4  10  20  37  59  85 116 155 197 241 295 366
#     4  12  23  36  57  85 120 156 194 241 301 359
#     4  10  21  37  57  79 111 149 188 230 286 356
#     4   9  19  35  58  86 117 151 193 239 293 361
#     4   9  19  36  59  83 111 150 196 244 294 350
#     4  11  21  34  53  83 114 141 178 231 285 339
#     4  10  21  39  60  84 113 148 195 247 297 352
#
# _framework density 19.734452000000001
#
# number of rings (size 3 to 8) (size 9 to 14) (size 15 to 20)
#    0.000    1.750    0.000    5.625    0.000    3.000 
#    0.000    9.375    0.000    0.000    0.000    0.000 
#    0.000    0.000    0.000    0.000    0.000    0.000 
#
# Total GULP energy -178481.265457 kJ/mol
# GULP energy per Si atom -5577.539546 kJ/mol
# Density = 1.968954 g / cm^3
# Si number density = 19.734452 Si / 1000 Ang^3
#
#
#
# Elastic Constant Matrix: (Units=GPa)
#
#
# Indices 1 2 3 4 5 6 
#
# 1 130.0749 19.8815 77.4598 0.0000 0.0000 0.0000
# 2 19.8815 45.6435 33.8404 0.0000 0.0000 0.0000
# 3 77.4598 33.8404 199.1898 0.0000 0.0000 0.0000
# 4 0.0000 0.0000 0.0000 29.6539 0.0000 0.0000
# 5 0.0000 0.0000 0.0000 0.0000 12.4268 0.0000
# 6 0.0000 0.0000 0.0000 0.0000 0.0000 23.8567
#
#
#
# Elastic Compliance Matrix: (Units=1/GPa)
#
#
# Indices 1 2 3 4 5 6 
#
# 1 0.010119 -0.001705 -0.003646 0.000000 0.000000 0.000000
# 2 -0.001705 0.025354 -0.003644 0.000000 0.000000 0.000000
# 3 -0.003646 -0.003644 0.007057 0.000000 0.000000 0.000000
# 4 0.000000 0.000000 0.000000 0.033722 0.000000 0.000000
# 5 0.000000 0.000000 0.000000 0.000000 0.080471 0.000000
# 6 0.000000 0.000000 0.000000 0.000000 0.000000 0.041917
#
#
# Mechanical properties :
#
#
# Convention : Reuss Voigt Hill
#
# Bulk Modulus (GPa) = 40.74915 70.80797 55.77856
# Shear Modulus (GPa) = 22.24099 29.43591 25.83845
#
# Velocity S-wave (km/s) = 3.36074 3.86631 3.62236
# Velocity P-wave (km/s) = 5.97938 7.47593 6.76914
#
# Compressibility (1/GPa) = 0.02454039
#
# Stress axis : x y z
#
# Youngs Moduli (GPa) = 98.82015 39.44227 141.70116
#
# Poissons Ratio (x) = 0.06725 0.51657
# Poissons Ratio (y) = 0.16849 0.51640
# Poissons Ratio (z) = 0.36025 0.14374
#
# Static dielectric constant tensor:
#      x y z
#    x 1.772580 0.000000 0.000000 
#    y 0.000000 1.724420 0.000000 
#    z 0.000000 0.000000 1.668710 
# 
# From -- ./inp_files/24774.got.cif
#   From: 2010.05.17/outbox.cif.g08.bks.cpg/sg40_13_cif.got.tgz:24774.got - 2010.06.03 18:35:42.
