data_PCOD9364057
_publ_section_title
;
Structure prediction by ZEFSAII (Michael W. Deem and Ramdas Pophale) SiO2 
 PCOD9364057
Probable space group: A M A 2
;
_chemical_formula_sum "Si O2"
_cell_formula_units_Z 48
_cell_length_a 13.959202
_cell_length_b 8.945974
_cell_length_c 18.088032
_cell_angle_alpha 90.000000
_cell_angle_beta 90.000000
_cell_angle_gamma 90.000000
_cell_volume 2258.809165
_symmetry_space_group_name_H-M "A M A 2"
_symmetry_group_IT_number 40
_symmetry_cell_setting 'orthorhombic'
loop_
_space_group_symop_operation_xyz
x,y,z
-x,-y,z
1/2-x,y,z
1/2+x,-y,z
x,1/2+y,1/2+z
-x,1/2-y,1/2+z
1/2-x,1/2+y,1/2+z
1/2+x,1/2-y,1/2+z
loop_
_atom_site_type_symbol
_atom_site_label
_atom_site_fract_x
_atom_site_fract_y
_atom_site_fract_z
Si Si1 0.352028 0.586804 0.349190
Si Si2 0.008343 0.678283 0.226810
Si Si3 0.859659 0.866597 0.022174
Si Si4 0.540607 0.834942 0.482286
Si Si5 0.641164 0.676271 0.605353
Si Si6 0.358819 0.234686 0.325804
O O1 0.250000 0.657389 0.329707
O O2 0.434521 0.667081 0.304513
O O3 0.359829 0.581464 0.436826
O O4 0.351978 0.414688 0.327082
O O5 0.070137 0.765591 0.167522
O O6 0.000000 0.500000 0.204369
O O7 0.915641 0.777924 0.248247
O O8 0.750000 0.808252 0.036694
O O9 0.875862 0.009165 0.074288
O O10 0.951094 0.758917 0.017316
O O11 0.626840 0.787479 0.535758
O O12 0.581025 0.810349 0.398904
O O13 0.500000 0.000000 0.485837
O O14 0.750000 0.683713 0.632149
O O15 0.250000 0.173643 0.327105
#
# Coordination Sequence:
#
# PCOD9364057 Si02
#       6
#     8   8   8   8   8   8
#     4   9  16  32  63  97 127 165 220 270 322 400
#     4  10  20  36  63 101 134 177 221 279 338 404
#     4  10  21  39  66  98 130 172 224 278 334 404
#     4  12  24  40  64  95 132 176 227 283 333 397
#     4  11  23  40  65  96 133 174 223 284 347 407
#     4  10  20  37  64  95 129 174 222 274 331 397
#
# _framework density 21.250135
#
# number of rings (size 3 to 8) (size 9 to 14) (size 15 to 20)
#    0.000    1.667    3.333    2.000    0.000    2.000 
#    0.000    2.500    0.000    6.000    0.000    0.000 
#    0.000    0.000    0.000    0.000    0.000    0.000 
#
# Total GULP energy -133723.091595 kJ/mol
# GULP energy per Si atom -5571.795483 kJ/mol
# Density = 2.120177 g / cm^3
# Si number density = 21.250135 Si / 1000 Ang^3
#
#
#
# Elastic Constant Matrix: (Units=GPa)
#
#
# Indices 1 2 3 4 5 6 
#
# 1 143.1925 60.0827 56.1118 0.0000 0.0000 0.0000
# 2 60.0827 56.3516 43.6298 0.0000 0.0000 0.0000
# 3 56.1118 43.6298 81.2300 0.0000 0.0000 0.0000
# 4 0.0000 0.0000 0.0000 15.3723 0.0000 0.0000
# 5 0.0000 0.0000 0.0000 0.0000 12.3246 0.0000
# 6 0.0000 0.0000 0.0000 0.0000 0.0000 13.7376
#
#
#
# Elastic Compliance Matrix: (Units=1/GPa)
#
#
# Indices 1 2 3 4 5 6 
#
# 1 0.012955 -0.011785 -0.002619 0.000000 0.000000 0.000000
# 2 -0.011785 0.041099 -0.013934 0.000000 0.000000 0.000000
# 3 -0.002619 -0.013934 0.021604 0.000000 0.000000 0.000000
# 4 0.000000 0.000000 0.000000 0.065052 0.000000 0.000000
# 5 0.000000 0.000000 0.000000 0.000000 0.081138 0.000000
# 6 0.000000 0.000000 0.000000 0.000000 0.000000 0.072793
#
#
# Mechanical properties :
#
#
# Convention : Reuss Voigt Hill
#
# Bulk Modulus (GPa) = 52.68170 66.71362 59.69766
# Shear Modulus (GPa) = 13.98033 16.35023 15.16528
#
# Velocity S-wave (km/s) = 2.56773 2.77685 2.67433
# Velocity P-wave (km/s) = 5.79966 6.46094 6.13921
#
# Compressibility (1/GPa) = 0.01898192
#
# Stress axis : x y z
#
# Youngs Moduli (GPa) = 77.19218 24.33132 46.28695
#
# Poissons Ratio (x) = 0.28673 0.12123
# Poissons Ratio (y) = 0.90968 0.64499
# Poissons Ratio (z) = 0.20217 0.33904
#
# Static dielectric constant tensor:
#      x y z
#    x 1.908780 0.000000 0.000000 
#    y 0.000000 1.760910 0.000000 
#    z 0.000000 0.000000 1.786950 
# 
# From -- ./inp_files/20562.got.cif
#   From: 2010.05.17/outbox.cif.g08.bks.cpg/sg40_11_cif.got.tgz:20562.got - 2010.06.03 18:35:42.
