data_PCOD9364033
_publ_section_title
;
Structure prediction by ZEFSAII (Michael W. Deem and Ramdas Pophale) SiO2 
 PCOD9364033
Probable space group: A M A 2
;
_chemical_formula_sum "Si O2"
_cell_formula_units_Z 60
_cell_length_a 14.772182
_cell_length_b 9.490157
_cell_length_c 21.061211
_cell_angle_alpha 90.000000
_cell_angle_beta 90.000000
_cell_angle_gamma 90.000000
_cell_volume 2952.578045
_symmetry_space_group_name_H-M "A M A 2"
_symmetry_group_IT_number 40
_symmetry_cell_setting 'orthorhombic'
loop_
_space_group_symop_operation_xyz
x,y,z
-x,-y,z
1/2-x,y,z
1/2+x,-y,z
x,1/2+y,1/2+z
-x,1/2-y,1/2+z
1/2-x,1/2+y,1/2+z
1/2+x,1/2-y,1/2+z
loop_
_atom_site_type_symbol
_atom_site_label
_atom_site_fract_x
_atom_site_fract_y
_atom_site_fract_z
Si Si1 0.355309 0.978623 0.754900
Si Si2 0.500000 0.000000 0.865387
Si Si3 0.913274 0.089100 0.547782
Si Si4 0.018917 0.145462 0.108261
Si Si5 0.851828 0.848608 0.218885
Si Si6 0.644683 0.485158 0.857107
Si Si7 0.019235 0.308525 0.911007
Si Si8 0.851185 0.350194 0.127664
O O1 0.250000 0.002953 0.769700
O O2 0.415421 0.999096 0.816911
O O3 0.365046 0.817076 0.732721
O O4 0.378721 0.075107 0.694187
O O5 0.505902 0.857580 0.906165
O O6 0.910543 0.240182 0.580664
O O7 0.935572 0.132739 0.475657
O O8 0.844085 0.972953 0.573346
O O9 0.000000 0.000000 0.570420
O O10 0.069050 0.103222 0.172961
O O11 0.925095 0.230925 0.113271
O O12 0.000000 0.000000 0.071903
O O13 0.750000 0.868778 0.192684
O O14 0.855724 0.926911 0.286039
O O15 0.750000 0.492155 0.878638
O O16 0.578261 0.381396 0.897388
O O17 0.591246 0.633267 0.859518
O O18 0.750000 0.290581 0.135463
#
# Coordination Sequence:
#
# PCOD9364033 Si02
#       8
#     8   4   8   8   8   8   8   8
#     4  10  20  36  60  94 124 160 210 257 315 381
#     4  12  24  36  64  92 134 166 196 262 328 386
#     4  10  21  42  61  87 118 165 215 257 300 372
#     4  11  24  37  62  93 130 165 207 266 330 380
#     4  10  20  37  63  92 127 165 206 263 324 379
#     4  10  22  42  65  90 122 164 218 264 313 379
#     4  11  24  41  63  92 126 169 218 258 319 379
#     4  10  22  41  67  93 125 171 220 266 315 379
#
# _framework density 20.321224000000001
#
# number of rings (size 3 to 8) (size 9 to 14) (size 15 to 20)
#    0.000    1.600    4.000    0.800    3.733    1.600 
#    0.000    2.667    0.000    0.000    0.000    0.000 
#    0.000    0.000    0.000    0.000    0.000    0.000 
#
# Total GULP energy -167153.863979 kJ/mol
# GULP energy per Si atom -5571.795466 kJ/mol
# Density = 2.027497 g / cm^3
# Si number density = 20.321224 Si / 1000 Ang^3
#
#
#
# Elastic Constant Matrix: (Units=GPa)
#
#
# Indices 1 2 3 4 5 6 
#
# 1 104.6871 39.2472 26.1691 0.0000 0.0000 0.0000
# 2 39.2472 132.9103 20.1653 0.0000 0.0000 0.0000
# 3 26.1691 20.1653 53.5557 0.0000 0.0000 0.0000
# 4 0.0000 0.0000 0.0000 10.5463 0.0000 0.0000
# 5 0.0000 0.0000 0.0000 0.0000 -19.5170 0.0000
# 6 0.0000 0.0000 0.0000 0.0000 0.0000 18.7541
#
#
#
# Elastic Compliance Matrix: (Units=1/GPa)
#
#
# Indices 1 2 3 4 5 6 
#
# 1 0.011764 -0.002759 -0.004709 0.000000 0.000000 0.000000
# 2 -0.002759 0.008627 -0.001900 0.000000 0.000000 0.000000
# 3 -0.004709 -0.001900 0.021689 0.000000 0.000000 0.000000
# 4 0.000000 0.000000 0.000000 0.094820 0.000000 0.000000
# 5 0.000000 0.000000 0.000000 0.000000 -0.051237 0.000000
# 6 0.000000 0.000000 0.000000 0.000000 0.000000 0.053322
#
#
# Mechanical properties :
#
#
# Convention : Reuss Voigt Hill
#
# Bulk Modulus (GPa) = 42.84058 51.36848 47.10453
# Shear Modulus (GPa) = 30.21119 15.66145 22.93632
#
# Velocity S-wave (km/s) = 3.85993 2.77915 3.36324
# Velocity P-wave (km/s) = 6.40257 5.96920 6.18968
#
# Compressibility (1/GPa) = 0.02334235
#
# Stress axis : x y z
#
# Youngs Moduli (GPa) = 85.00558 115.91598 46.10700
#
# Poissons Ratio (x) = 0.31985 0.21713
# Poissons Ratio (y) = 0.23455 0.08760
# Poissons Ratio (z) = 0.40032 0.22024
#
# Static dielectric constant tensor:
#      x y z
#    x 1.788330 0.000000 0.000000 
#    y 0.000000 1.757850 0.000000 
#    z 0.000000 0.000000 1.830070 
# 
# From -- ./inp_files/24745.got.cif
#   From: 2010.05.17/outbox.cif.g08.bks.cpg/sg40_13_cif.got.tgz:24745.got - 2010.06.03 18:35:42.
