data_PCOD9364168
_publ_section_title
;
Structure prediction by ZEFSAII (Michael W. Deem and Ramdas Pophale) SiO2 
 PCOD9364168
Probable space group: A M A 2
;
_chemical_formula_sum "Si O2"
_cell_formula_units_Z 48
_cell_length_a 13.252759
_cell_length_b 14.868189
_cell_length_c 11.695595
_cell_angle_alpha 90.000000
_cell_angle_beta 90.000000
_cell_angle_gamma 90.000000
_cell_volume 2304.552968
_symmetry_space_group_name_H-M "A M A 2"
_symmetry_group_IT_number 40
_symmetry_cell_setting 'orthorhombic'
loop_
_space_group_symop_operation_xyz
x,y,z
-x,-y,z
1/2-x,y,z
1/2+x,-y,z
x,1/2+y,1/2+z
-x,1/2-y,1/2+z
1/2-x,1/2+y,1/2+z
1/2+x,1/2-y,1/2+z
loop_
_atom_site_type_symbol
_atom_site_label
_atom_site_fract_x
_atom_site_fract_y
_atom_site_fract_z
Si Si1 0.250000 0.996385 0.940030
Si Si2 0.034230 0.788229 0.055336
Si Si3 0.918953 0.136167 0.843586
Si Si4 0.250000 0.321406 0.668845
Si Si5 0.539675 0.909163 0.614803
Si Si6 0.250000 0.017222 0.217071
Si Si7 0.140810 0.684131 0.732772
Si Si8 0.250000 0.120557 0.735812
O O1 0.155460 0.937991 0.894051
O O2 0.250000 0.085049 0.863908
O O3 0.250000 0.013207 0.076426
O O4 0.147327 0.817130 0.093574
O O5 0.033228 0.680765 0.040085
O O6 0.956409 0.809082 0.155115
O O7 0.002029 0.842322 0.943291
O O8 0.868596 0.234645 0.823119
O O9 0.967867 0.105891 0.725626
O O10 0.250000 0.411996 0.743748
O O11 0.250000 0.228270 0.736323
O O12 0.652081 0.913017 0.666112
O O13 0.500000 0.000000 0.558245
O O14 0.157726 0.079016 0.263461
O O15 0.250000 0.702990 0.673355
#
# Coordination Sequence:
#
# PCOD9364168 Si02
#       8
#     4   8   8   4   8   4   8   4
#     4  12  19  33  63  92 112 151 199 242 293 361
#     4  10  21  37  61  87 121 154 202 250 290 356
#     4  11  20  37  62  87 117 159 199 237 299 362
#     4  10  20  38  56  87 117 160 194 245 292 350
#     4  10  21  36  59  85 116 154 195 244 299 347
#     4  10  21  36  60  89 117 156 198 244 303 355
#     4   9  22  38  56  91 126 153 191 255 304 349
#     4  10  22  35  53  88 120 143 191 251 292 344
#
# _framework density 20.828336
#
# number of rings (size 3 to 8) (size 9 to 14) (size 15 to 20)
#    0.500    1.333    4.167    0.000    2.333    0.667 
#    0.000    0.000   11.000    0.000    0.000    0.000 
#    0.000    0.000    0.000    0.000    0.000    0.000 
#
# Total GULP energy -133691.675943 kJ/mol
# GULP energy per Si atom -5570.486498 kJ/mol
# Density = 2.078093 g / cm^3
# Si number density = 20.828336 Si / 1000 Ang^3
#
#
#
# Elastic Constant Matrix: (Units=GPa)
#
#
# Indices 1 2 3 4 5 6 
#
# 1 70.2115 17.3309 -8.8235 0.0000 0.0000 0.0000
# 2 17.3309 141.1810 -1.0807 0.0000 0.0000 0.0000
# 3 -8.8235 -1.0807 20.1802 0.0000 0.0000 0.0000
# 4 0.0000 0.0000 0.0000 27.4529 0.0000 0.0000
# 5 0.0000 0.0000 0.0000 0.0000 -34.7306 0.0000
# 6 0.0000 0.0000 0.0000 0.0000 0.0000 47.1423
#
#
#
# Elastic Compliance Matrix: (Units=1/GPa)
#
#
# Indices 1 2 3 4 5 6 
#
# 1 0.015543 -0.001857 0.006696 0.000000 0.000000 0.000000
# 2 -0.001857 0.007308 -0.000420 0.000000 0.000000 0.000000
# 3 0.006696 -0.000420 0.052459 0.000000 0.000000 0.000000
# 4 0.000000 0.000000 0.000000 0.036426 0.000000 0.000000
# 5 0.000000 0.000000 0.000000 0.000000 -0.028793 0.000000
# 6 0.000000 0.000000 0.000000 0.000000 0.000000 0.021212
#
#
# Mechanical properties :
#
#
# Convention : Reuss Voigt Hill
#
# Bulk Modulus (GPa) = 11.88389 27.38068 19.63229
# Shear Modulus (GPa) = 40.53002 22.91600 31.72301
#
# Velocity S-wave (km/s) = 4.41603 3.32057 3.90689
# Velocity P-wave (km/s) = 5.63203 5.27977 5.45875
#
# Compressibility (1/GPa) = 0.08414752
#
# Stress axis : x y z
#
# Youngs Moduli (GPa) = 64.33964 136.83990 19.06256
#
# Poissons Ratio (x) = 0.25407 -0.12765
# Poissons Ratio (y) = 0.11946 0.00802
# Poissons Ratio (z) = -0.43084 0.05754
#
# Static dielectric constant tensor:
#      x y z
#    x 1.756940 0.000000 0.000000 
#    y 0.000000 1.803380 0.000000 
#    z 0.000000 0.000000 1.728750 
# 
# From -- ./inp_files/12200.got.cif
#   From: 2010.05.17/outbox.cif.g08.bks.cpg/sg40_7_cif.got.tgz:12200.got - 2010.06.03 18:35:42.
