data_PCOD9364081
_publ_section_title
;
Structure prediction by ZEFSAII (Michael W. Deem and Ramdas Pophale) SiO2 
 PCOD9364081
Probable space group: A M A 2
;
_chemical_formula_sum "Si O2"
_cell_formula_units_Z 48
_cell_length_a 28.925877
_cell_length_b 6.738324
_cell_length_c 8.939963
_cell_angle_alpha 90.000000
_cell_angle_beta 90.000000
_cell_angle_gamma 90.000000
_cell_volume 1742.505453
_symmetry_space_group_name_H-M "A M A 2"
_symmetry_group_IT_number 40
_symmetry_cell_setting 'orthorhombic'
loop_
_space_group_symop_operation_xyz
x,y,z
-x,-y,z
1/2-x,y,z
1/2+x,-y,z
x,1/2+y,1/2+z
-x,1/2-y,1/2+z
1/2-x,1/2+y,1/2+z
1/2+x,1/2-y,1/2+z
loop_
_atom_site_type_symbol
_atom_site_label
_atom_site_fract_x
_atom_site_fract_y
_atom_site_fract_z
Si Si1 0.300626 0.953439 0.926680
Si Si2 0.054386 0.332640 0.744754
Si Si3 0.878270 0.142274 0.688627
Si Si4 0.348374 0.424557 0.702973
Si Si5 0.198496 0.426198 0.986827
Si Si6 0.962687 0.725451 0.383406
O O1 0.250000 0.894574 0.879102
O O2 0.338278 0.911682 0.804597
O O3 0.299076 0.184983 0.971301
O O4 0.318304 0.835409 0.070447
O O5 0.109172 0.287875 0.755268
O O6 0.043720 0.319301 0.562544
O O7 0.048310 0.543969 0.834370
O O8 0.015869 0.204753 0.832354
O O9 0.875487 0.377958 0.651673
O O10 0.854462 0.041145 0.546655
O O11 0.926829 0.115137 0.771043
O O12 0.309434 0.493095 0.817925
O O13 0.250000 0.484338 0.044078
#
# Coordination Sequence:
#
# PCOD9364081 Si02
#       6
#     8   8   8   8   8   8
#     4  10  20  37  58  86 123 165 213 277 333 399
#     4  10  22  43  69 101 136 176 230 286 349 419
#     4  10  21  39  62  87 126 168 220 270 337 404
#     4  10  21  39  62  87 126 168 221 269 337 405
#     4  10  22  37  57  91 127 168 221 278 337 402
#     4  10  22  43  70 100 136 177 229 286 349 419
#
# _framework density 27.546543
#
# number of rings (size 3 to 8) (size 9 to 14) (size 15 to 20)
#    0.000    2.000    1.667    1.000    2.333    3.333 
#    0.000    3.333    0.000    0.000    0.000    0.000 
#    0.000    0.000    0.000    0.000    0.000    0.000 
#
# Total GULP energy -133868.450435 kJ/mol
# GULP energy per Si atom -5577.852101 kJ/mol
# Density = 2.748385 g / cm^3
# Si number density = 27.546543 Si / 1000 Ang^3
#
#
#
# Elastic Constant Matrix: (Units=GPa)
#
#
# Indices 1 2 3 4 5 6 
#
# 1 204.3197 16.0696 39.2078 0.0000 0.0000 0.0000
# 2 16.0696 108.3338 -12.5360 0.0000 0.0000 0.0000
# 3 39.2078 -12.5360 131.6223 0.0000 0.0000 0.0000
# 4 0.0000 0.0000 0.0000 23.7427 0.0000 0.0000
# 5 0.0000 0.0000 0.0000 0.0000 89.0524 0.0000
# 6 0.0000 0.0000 0.0000 0.0000 0.0000 41.2196
#
#
#
# Elastic Compliance Matrix: (Units=1/GPa)
#
#
# Indices 1 2 3 4 5 6 
#
# 1 0.005292 -0.000978 -0.001669 0.000000 0.000000 0.000000
# 2 -0.000978 0.009514 0.001198 0.000000 0.000000 0.000000
# 3 -0.001669 0.001198 0.008209 0.000000 0.000000 0.000000
# 4 0.000000 0.000000 0.000000 0.042118 0.000000 0.000000
# 5 0.000000 0.000000 0.000000 0.000000 0.011229 0.000000
# 6 0.000000 0.000000 0.000000 0.000000 0.000000 0.024260
#
#
# Mechanical properties :
#
#
# Convention : Reuss Voigt Hill
#
# Bulk Modulus (GPa) = 49.71456 58.86206 54.28831
# Shear Modulus (GPa) = 45.36070 57.57189 51.46630
#
# Velocity S-wave (km/s) = 4.06235 4.57660 4.32712
# Velocity P-wave (km/s) = 6.33168 7.02436 6.68700
#
# Compressibility (1/GPa) = 0.02011483
#
# Stress axis : x y z
#
# Youngs Moduli (GPa) = 188.97990 105.10392 121.81995
#
# Poissons Ratio (x) = 0.10280 0.20337
# Poissons Ratio (y) = 0.18484 -0.14588
# Poissons Ratio (z) = 0.31549 -0.12587
#
# Static dielectric constant tensor:
#      x y z
#    x 2.014470 0.000000 0.000000 
#    y 0.000000 2.479260 0.000000 
#    z 0.000000 0.000000 2.343500 
# 
# From -- ./inp_files/9330.got.cif
#   From: 2010.05.17/outbox.cif.g08.bks.cpg/sg40_5_cif.got.tgz:9330.got - 2010.06.03 18:35:42.
