data_PCOD9364183
_publ_section_title
;
Structure prediction by ZEFSAII (Michael W. Deem and Ramdas Pophale) SiO2 
 PCOD9364183
Probable space group: A M A 2
;
_chemical_formula_sum "Si O2"
_cell_formula_units_Z 64
_cell_length_a 28.923998
_cell_length_b 8.227320
_cell_length_c 11.845742
_cell_angle_alpha 90.000000
_cell_angle_beta 90.000000
_cell_angle_gamma 90.000000
_cell_volume 2818.895535
_symmetry_space_group_name_H-M "A M A 2"
_symmetry_group_IT_number 40
_symmetry_cell_setting 'orthorhombic'
loop_
_space_group_symop_operation_xyz
x,y,z
-x,-y,z
1/2-x,y,z
1/2+x,-y,z
x,1/2+y,1/2+z
-x,1/2-y,1/2+z
1/2-x,1/2+y,1/2+z
1/2+x,1/2-y,1/2+z
loop_
_atom_site_type_symbol
_atom_site_label
_atom_site_fract_x
_atom_site_fract_y
_atom_site_fract_z
Si Si1 0.195445 0.072231 0.353370
Si Si2 0.199566 0.505673 0.603296
Si Si3 0.533459 0.131647 0.997187
Si Si4 0.597512 0.087920 0.561836
Si Si5 0.531821 0.133995 0.364619
Si Si6 0.577206 0.443184 0.286237
Si Si7 0.865386 0.266964 0.032387
Si Si8 0.841981 0.288458 0.421837
O O1 0.250000 0.083178 0.388000
O O2 0.193489 0.102913 0.219372
O O3 0.161692 0.201548 0.414773
O O4 0.176942 0.886128 0.378001
O O5 0.250000 0.428186 0.610018
O O6 0.162143 0.365671 0.599908
O O7 0.195661 0.608068 0.488384
O O8 0.499432 0.273124 0.956701
O O9 0.581358 0.210370 0.038305
O O10 0.500000 0.000000 0.058075
O O11 0.552121 0.034519 0.888026
O O12 0.570907 0.060010 0.678013
O O13 0.635673 0.948676 0.580033
O O14 0.570861 0.052556 0.443996
O O15 0.621572 0.254078 0.525947
O O16 0.552223 0.267361 0.280309
O O17 0.500000 0.000000 0.309447
O O18 0.628504 0.391849 0.331180
#
# Coordination Sequence:
#
# PCOD9364183 Si02
#       8
#     8   8   8   8   8   8   8   8
#     4  10  23  41  63  94 128 160 205 259 311 374
#     4  11  23  39  65  97 124 162 208 252 314 379
#     4  10  21  38  59  85 124 159 203 264 307 359
#     4  10  22  38  64  86 120 166 207 250 310 367
#     4  10  20  38  60  83 121 159 203 259 304 357
#     4  10  21  39  61  91 121 161 208 255 307 366
#     4  11  21  41  62  86 126 166 201 260 314 367
#     4  10  21  39  64  92 124 161 203 253 306 367
#
# _framework density 22.703928000000001
#
# number of rings (size 3 to 8) (size 9 to 14) (size 15 to 20)
#    0.000    1.750    2.500    1.500    1.750    1.500 
#    0.000    0.625    0.000    6.000    0.000    0.000 
#    0.000    0.000    0.000    0.000    0.000    0.000 
#
# Total GULP energy -178260.618175 kJ/mol
# GULP energy per Si atom -5570.644318 kJ/mol
# Density = 2.265225 g / cm^3
# Si number density = 22.703928 Si / 1000 Ang^3
#
#
#
# Elastic Constant Matrix: (Units=GPa)
#
#
# Indices 1 2 3 4 5 6 
#
# 1 95.3299 -0.6436 26.0885 0.0000 0.0000 0.0000
# 2 -0.6436 40.6646 14.2553 0.0000 0.0000 0.0000
# 3 26.0885 14.2553 83.8400 0.0000 0.0000 0.0000
# 4 0.0000 0.0000 0.0000 37.3090 0.0000 0.0000
# 5 0.0000 0.0000 0.0000 0.0000 -13.8294 0.0000
# 6 0.0000 0.0000 0.0000 0.0000 0.0000 18.8685
#
#
#
# Elastic Compliance Matrix: (Units=1/GPa)
#
#
# Indices 1 2 3 4 5 6 
#
# 1 0.011556 0.001535 -0.003857 0.000000 0.000000 0.000000
# 2 0.001535 0.026354 -0.004959 0.000000 0.000000 0.000000
# 3 -0.003857 -0.004959 0.013971 0.000000 0.000000 0.000000
# 4 0.000000 0.000000 0.000000 0.026803 0.000000 0.000000
# 5 0.000000 0.000000 0.000000 0.000000 -0.072310 0.000000
# 6 0.000000 0.000000 0.000000 0.000000 0.000000 0.052998
#
#
# Mechanical properties :
#
#
# Convention : Reuss Voigt Hill
#
# Bulk Modulus (GPa) = 26.79563 33.24832 30.02198
# Shear Modulus (GPa) = 57.88837 20.47857 39.18347
#
# Velocity S-wave (km/s) = 5.05494 3.00656 4.15884
# Velocity P-wave (km/s) = 6.77479 5.16998 6.02604
#
# Compressibility (1/GPa) = 0.03731952
#
# Stress axis : x y z
#
# Youngs Moduli (GPa) = 86.53724 37.94488 71.57832
#
# Poissons Ratio (x) = -0.05824 0.27606
# Poissons Ratio (y) = -0.13283 0.35493
# Poissons Ratio (z) = 0.33375 0.18815
#
# Static dielectric constant tensor:
#      x y z
#    x 1.997370 0.000000 0.000000 
#    y 0.000000 1.882650 0.000000 
#    z 0.000000 0.000000 1.943930 
# 
# From -- ./inp_files/14396.got.cif
#   From: 2010.05.17/outbox.cif.g08.bks.cpg/sg40_8_cif.got.tgz:14396.got - 2010.06.03 18:35:42.
