data_PCOD9364458
_publ_section_title
;
Structure prediction by ZEFSAII (Michael W. Deem and Ramdas Pophale) SiO2 
 PCOD9364458
Probable space group: A M A 2
;
_chemical_formula_sum "Si O2"
_cell_formula_units_Z 48
_cell_length_a 17.583349
_cell_length_b 16.728597
_cell_length_c 6.767574
_cell_angle_alpha 90.000000
_cell_angle_beta 90.000000
_cell_angle_gamma 90.000000
_cell_volume 1990.646425
_symmetry_space_group_name_H-M "A M A 2"
_symmetry_group_IT_number 40
_symmetry_cell_setting 'orthorhombic'
loop_
_space_group_symop_operation_xyz
x,y,z
-x,-y,z
1/2-x,y,z
1/2+x,-y,z
x,1/2+y,1/2+z
-x,1/2-y,1/2+z
1/2-x,1/2+y,1/2+z
1/2+x,1/2-y,1/2+z
loop_
_atom_site_type_symbol
_atom_site_label
_atom_site_fract_x
_atom_site_fract_y
_atom_site_fract_z
Si Si1 0.831818 0.817419 0.189930
Si Si2 0.947825 0.934284 0.196957
Si Si3 0.156327 0.496021 0.047880
Si Si4 0.543718 0.208088 0.160098
Si Si5 0.410955 0.333436 0.216655
Si Si6 0.663119 0.832355 0.667100
O O1 0.750000 0.849541 0.143409
O O2 0.892459 0.873826 0.083977
O O3 0.840540 0.723985 0.163604
O O4 0.843521 0.825352 0.426666
O O5 0.892789 0.980705 0.350944
O O6 0.000000 0.000000 0.094031
O O7 0.007172 0.866636 0.276963
O O8 0.250000 0.487223 0.017652
O O9 0.113870 0.419900 0.141950
O O10 0.146021 0.573722 0.187985
O O11 0.570601 0.170066 0.951575
O O12 0.480900 0.278459 0.136389
O O13 0.613040 0.259380 0.245460
O O14 0.750000 0.817750 0.720422
#
# Coordination Sequence:
#
# PCOD9364458 Si02
#       6
#     8   8   8   8   8   8
#     4   8  15  32  57  85 119 164 210 260 323 391
#     4  10  21  36  59  88 133 171 218 277 331 392
#     4  10  21  37  67 103 132 175 228 283 346 408
#     4  10  22  40  61  97 132 177 224 276 338 407
#     4  10  21  35  66  97 131 174 223 278 340 412
#     4   8  16  33  57  85 124 166 206 264 330 387
#
# _framework density 24.112770000000001
#
# number of rings (size 3 to 8) (size 9 to 14) (size 15 to 20)
#    0.000    2.667    0.000    3.000    9.333    0.667 
#    3.000    1.667    0.000    2.000    0.000    0.000 
#    0.000    0.000    0.000    0.000    0.000    0.000 
#
# Total GULP energy -133648.181867 kJ/mol
# GULP energy per Si atom -5568.674244 kJ/mol
# Density = 2.405789 g / cm^3
# Si number density = 24.112770 Si / 1000 Ang^3
#
#
#
# Elastic Constant Matrix: (Units=GPa)
#
#
# Indices 1 2 3 4 5 6 
#
# 1 124.0695 79.2916 4.4583 0.0000 0.0000 0.0000
# 2 79.2916 196.5011 26.5906 0.0000 0.0000 0.0000
# 3 4.4583 26.5906 96.0430 0.0000 0.0000 0.0000
# 4 0.0000 0.0000 0.0000 33.8677 0.0000 0.0000
# 5 0.0000 0.0000 0.0000 0.0000 6.3896 0.0000
# 6 0.0000 0.0000 0.0000 0.0000 0.0000 45.1651
#
#
#
# Elastic Compliance Matrix: (Units=1/GPa)
#
#
# Indices 1 2 3 4 5 6 
#
# 1 0.010911 -0.004503 0.000740 0.000000 0.000000 0.000000
# 2 -0.004503 0.007146 -0.001769 0.000000 0.000000 0.000000
# 3 0.000740 -0.001769 0.010867 0.000000 0.000000 0.000000
# 4 0.000000 0.000000 0.000000 0.029527 0.000000 0.000000
# 5 0.000000 0.000000 0.000000 0.000000 0.156504 0.000000
# 6 0.000000 0.000000 0.000000 0.000000 0.000000 0.022141
#
#
# Mechanical properties :
#
#
# Convention : Reuss Voigt Hill
#
# Bulk Modulus (GPa) = 55.99095 70.81051 63.40073
# Shear Modulus (GPa) = 19.67625 37.50271 28.58948
#
# Velocity S-wave (km/s) = 2.85969 3.94801 3.44707
# Velocity P-wave (km/s) = 5.84591 7.08608 6.49566
#
# Compressibility (1/GPa) = 0.01786003
#
# Stress axis : x y z
#
# Youngs Moduli (GPa) = 91.64853 139.94807 92.01762
#
# Poissons Ratio (x) = 0.63019 -0.06811
# Poissons Ratio (y) = 0.41270 0.16281
# Poissons Ratio (z) = -0.06784 0.24761
#
# Static dielectric constant tensor:
#      x y z
#    x 1.997260 0.000000 0.000000 
#    y 0.000000 1.890570 0.000000 
#    z 0.000000 0.000000 2.099980 
# 
# From -- ./inp_files/7459.got.cif
#   From: 2010.05.17/outbox.cif.g08.bks.cpg/sg40_4_cif.got.tgz:7459.got - 2010.06.03 18:35:42.
