data_PCOD9364104
_publ_section_title
;
Structure prediction by ZEFSAII (Michael W. Deem and Ramdas Pophale) SiO2 
 PCOD9364104
Probable space group: A M A 2
;
_chemical_formula_sum "Si O2"
_cell_formula_units_Z 64
_cell_length_a 8.599561
_cell_length_b 15.869377
_cell_length_c 24.380109
_cell_angle_alpha 90.000000
_cell_angle_beta 90.000000
_cell_angle_gamma 90.000000
_cell_volume 3327.145565
_symmetry_space_group_name_H-M "A M A 2"
_symmetry_group_IT_number 40
_symmetry_cell_setting 'orthorhombic'
loop_
_space_group_symop_operation_xyz
x,y,z
-x,-y,z
1/2-x,y,z
1/2+x,-y,z
x,1/2+y,1/2+z
-x,1/2-y,1/2+z
1/2-x,1/2+y,1/2+z
1/2+x,1/2-y,1/2+z
loop_
_atom_site_type_symbol
_atom_site_label
_atom_site_fract_x
_atom_site_fract_y
_atom_site_fract_z
Si Si1 0.936970 0.149332 0.133760
Si Si2 0.562228 0.747873 0.320692
Si Si3 0.438851 0.153296 0.634913
Si Si4 0.563540 0.910240 0.249881
Si Si5 0.561877 0.246147 0.948056
Si Si6 0.063660 0.090307 0.753200
Si Si7 0.562376 0.910105 0.516980
Si Si8 0.064939 0.090084 0.017418
O O1 0.750000 0.144151 0.133227
O O2 0.982611 0.248216 0.134417
O O3 0.000767 0.107016 0.188743
O O4 0.001805 0.108054 0.078626
O O5 0.750000 0.743414 0.317986
O O6 0.513923 0.832343 0.288350
O O7 0.517129 0.749892 0.384400
O O8 0.493495 0.666425 0.290916
O O9 0.250000 0.151189 0.634717
O O10 0.492078 0.109848 0.690952
O O11 0.492356 0.108843 0.579203
O O12 0.750000 0.912702 0.248537
O O13 0.500000 0.000000 0.269450
O O14 0.750000 0.240486 0.951537
O O15 0.514571 0.331572 0.979337
O O16 0.492585 0.165645 0.978806
O O17 0.250000 0.088614 0.753124
O O18 0.000000 0.000000 0.771104
O O19 0.750000 0.912495 0.517212
O O20 0.500000 0.000000 0.498262
O O21 0.250000 0.087669 0.018583
O O22 0.000000 0.000000 0.998586
#
# Coordination Sequence:
#
# PCOD9364104 Si02
#       8
#     8   8   8   8   8   8   8   8
#     4  11  20  38  64  90 122 160 199 245 302 362
#     4  10  23  42  63  87 117 158 207 255 300 350
#     4   9  18  34  59  88 118 155 192 234 293 352
#     4  11  23  39  60  91 125 160 202 250 302 360
#     4  10  22  43  65  85 118 161 203 252 303 350
#     4  11  22  38  61  90 122 158 197 244 301 360
#     4  10  20  37  60  88 120 154 192 238 292 353
#     4  12  25  41  63  93 123 157 199 247 303 365
#
# _framework density 19.235706
#
# number of rings (size 3 to 8) (size 9 to 14) (size 15 to 20)
#    0.000    1.500    2.500    3.000    0.000    2.500 
#    0.000    0.625    0.000    0.000    0.000    0.000 
#    0.000    0.000    0.000    0.000    0.000    0.000 
#
# Total GULP energy -178898.002403 kJ/mol
# GULP energy per Si atom -5590.562575 kJ/mol
# Density = 1.919192 g / cm^3
# Si number density = 19.235706 Si / 1000 Ang^3
#
#
#
# Elastic Constant Matrix: (Units=GPa)
#
#
# Indices 1 2 3 4 5 6 
#
# 1 44.6347 47.6782 42.7522 0.0000 0.0000 0.0000
# 2 47.6782 204.0181 90.3424 0.0000 0.0000 0.0000
# 3 42.7522 90.3424 152.6234 0.0000 0.0000 0.0000
# 4 0.0000 0.0000 0.0000 -6.6458 0.0000 0.0000
# 5 0.0000 0.0000 0.0000 0.0000 21.7530 0.0000
# 6 0.0000 0.0000 0.0000 0.0000 0.0000 27.7089
#
#
#
# Elastic Compliance Matrix: (Units=1/GPa)
#
#
# Indices 1 2 3 4 5 6 
#
# 1 0.034090 -0.005066 -0.006550 0.000000 0.000000 0.000000
# 2 -0.005066 0.007396 -0.002959 0.000000 0.000000 0.000000
# 3 -0.006550 -0.002959 0.010138 0.000000 0.000000 0.000000
# 4 0.000000 0.000000 0.000000 -0.150472 0.000000 0.000000
# 5 0.000000 0.000000 0.000000 0.000000 0.045971 0.000000
# 6 0.000000 0.000000 0.000000 0.000000 0.000000 0.036090
#
#
# Mechanical properties :
#
#
# Convention : Reuss Voigt Hill
#
# Bulk Modulus (GPa) = 44.49680 84.75798 64.62739
# Shear Modulus (GPa) = 251.85529 23.26345 137.55937
#
# Velocity S-wave (km/s) = 11.45493 3.48140 8.46568
# Velocity P-wave (km/s) = 14.07610 7.76651 11.36783
#
# Compressibility (1/GPa) = 0.02247353
#
# Stress axis : x y z
#
# Youngs Moduli (GPa) = 29.33446 135.21682 98.63702
#
# Poissons Ratio (x) = 0.68501 0.64610
# Poissons Ratio (y) = 0.14861 0.29182
# Poissons Ratio (z) = 0.19215 0.40005
#
# Static dielectric constant tensor:
#      x y z
#    x 1.652720 0.000000 0.000000 
#    y 0.000000 1.654180 0.000000 
#    z 0.000000 0.000000 1.651730 
# 
# From -- ./inp_files/24246.got.cif
#   From: 2010.05.17/outbox.cif.g08.bks.cpg/sg40_13_cif.got.tgz:24246.got - 2010.06.03 18:35:42.
