data_PCOD9364744
_publ_section_title
;
Structure prediction by ZEFSAII (Michael W. Deem and Ramdas Pophale) SiO2 
 PCOD9364744
Probable space group: A M A 2
;
_chemical_formula_sum "Si O2"
_cell_formula_units_Z 64
_cell_length_a 28.911262
_cell_length_b 14.548705
_cell_length_c 6.769360
_cell_angle_alpha 90.000000
_cell_angle_beta 90.000000
_cell_angle_gamma 90.000000
_cell_volume 2847.337829
_symmetry_space_group_name_H-M "A M A 2"
_symmetry_group_IT_number 40
_symmetry_cell_setting 'orthorhombic'
loop_
_space_group_symop_operation_xyz
x,y,z
-x,-y,z
1/2-x,y,z
1/2+x,-y,z
x,1/2+y,1/2+z
-x,1/2-y,1/2+z
1/2-x,1/2+y,1/2+z
1/2+x,1/2-y,1/2+z
loop_
_atom_site_type_symbol
_atom_site_label
_atom_site_fract_x
_atom_site_fract_y
_atom_site_fract_z
Si Si1 0.840163 0.509804 0.847810
Si Si2 0.618454 0.092204 0.722392
Si Si3 0.545130 0.866324 0.528540
Si Si4 0.529651 0.188980 0.837333
Si Si5 0.302999 0.854913 0.032678
Si Si6 0.347717 0.659267 0.124897
Si Si7 0.983088 0.901259 0.168836
Si Si8 0.390388 0.580088 0.477465
O O1 0.806821 0.576230 0.720969
O O2 0.868929 0.462832 0.672909
O O3 0.868263 0.574844 0.997546
O O4 0.826317 0.424917 0.995181
O O5 0.579770 0.168320 0.751784
O O6 0.597343 0.998993 0.817052
O O7 0.663546 0.111109 0.855964
O O8 0.508666 0.857656 0.700638
O O9 0.523251 0.799819 0.351922
O O10 0.597268 0.836988 0.567939
O O11 0.539752 0.948381 0.377761
O O12 0.525367 0.157680 0.062698
O O13 0.250000 0.850521 0.968373
O O14 0.322130 0.754119 0.087558
O O15 0.351818 0.637319 0.357982
O O16 0.936763 0.870390 0.043652
O O17 0.000000 0.000000 0.077977
#
# Coordination Sequence:
#
# PCOD9364744 Si02
#       8
#     8   8   8   8   8   8   8   8
#     4  10  24  44  69 101 135 177 220 284 364 413
#     4  10  23  42  68  94 136 178 224 282 345 408
#     4  12  25  37  59  93 135 184 229 273 337 405
#     4  12  24  38  59  94 134 183 224 273 327 401
#     4  11  26  47  74 102 129 175 236 293 359 428
#     4  11  23  43  70  99 140 181 228 293 355 417
#     4  12  24  36  59  91 136 173 230 270 315 393
#     4  10  21  40  63  97 135 181 223 283 339 410
#
# _framework density 22.477138
#
# number of rings (size 3 to 8) (size 9 to 14) (size 15 to 20)
#    0.000    1.000    6.250    0.000    1.750    4.500 
#    0.000    5.000    0.000    0.000    0.000    0.000 
#    0.000    0.000    0.000    0.000    0.000    0.000 
#
# Total GULP energy -178261.974028 kJ/mol
# GULP energy per Si atom -5570.686688 kJ/mol
# Density = 2.242598 g / cm^3
# Si number density = 22.477138 Si / 1000 Ang^3
#
#
#
# Elastic Constant Matrix: (Units=GPa)
#
#
# Indices 1 2 3 4 5 6 
#
# 1 108.9957 25.3712 38.7493 0.0000 0.0000 0.0000
# 2 25.3712 54.9090 19.2619 0.0000 0.0000 0.0000
# 3 38.7493 19.2619 131.0532 0.0000 0.0000 0.0000
# 4 0.0000 0.0000 0.0000 25.8685 0.0000 0.0000
# 5 0.0000 0.0000 0.0000 0.0000 18.5269 0.0000
# 6 0.0000 0.0000 0.0000 0.0000 0.0000 5.8954
#
#
#
# Elastic Compliance Matrix: (Units=1/GPa)
#
#
# Indices 1 2 3 4 5 6 
#
# 1 0.011098 -0.004193 -0.002665 0.000000 0.000000 0.000000
# 2 -0.004193 0.020786 -0.001815 0.000000 0.000000 0.000000
# 3 -0.002665 -0.001815 0.008685 0.000000 0.000000 0.000000
# 4 0.000000 0.000000 0.000000 0.038657 0.000000 0.000000
# 5 0.000000 0.000000 0.000000 0.000000 0.053976 0.000000
# 6 0.000000 0.000000 0.000000 0.000000 0.000000 0.169624
#
#
# Mechanical properties :
#
#
# Convention : Reuss Voigt Hill
#
# Bulk Modulus (GPa) = 43.06153 51.30251 47.18202
# Shear Modulus (GPa) = 15.24788 24.16318 19.70553
#
# Velocity S-wave (km/s) = 2.60739 3.28229 2.96411
# Velocity P-wave (km/s) = 5.31640 6.10233 5.72287
#
# Compressibility (1/GPa) = 0.02322258
#
# Stress axis : x y z
#
# Youngs Moduli (GPa) = 90.10454 48.10882 115.13669
#
# Poissons Ratio (x) = 0.20172 0.30686
# Poissons Ratio (y) = 0.37782 0.20901
# Poissons Ratio (z) = 0.24015 0.08733
#
# Static dielectric constant tensor:
#      x y z
#    x 1.847270 0.000000 0.000000 
#    y 0.000000 2.015950 0.000000 
#    z 0.000000 0.000000 1.904080 
# 
# From -- ./inp_files/3490.got.cif
#   From: 2010.05.17/outbox.cif.g08.bks.cpg/sg40_2_cif.got.tgz:3490.got - 2010.06.03 18:35:42.
