data_PCOD9364276
_publ_section_title
;
Structure prediction by ZEFSAII (Michael W. Deem and Ramdas Pophale) SiO2 
 PCOD9364276
Probable space group: A M A 2
;
_chemical_formula_sum "Si O2"
_cell_formula_units_Z 56
_cell_length_a 8.197687
_cell_length_b 19.162549
_cell_length_c 17.627322
_cell_angle_alpha 90.000000
_cell_angle_beta 90.000000
_cell_angle_gamma 90.000000
_cell_volume 2769.050961
_symmetry_space_group_name_H-M "A M A 2"
_symmetry_group_IT_number 40
_symmetry_cell_setting 'orthorhombic'
loop_
_space_group_symop_operation_xyz
x,y,z
-x,-y,z
1/2-x,y,z
1/2+x,-y,z
x,1/2+y,1/2+z
-x,1/2-y,1/2+z
1/2-x,1/2+y,1/2+z
1/2+x,1/2-y,1/2+z
loop_
_atom_site_type_symbol
_atom_site_label
_atom_site_fract_x
_atom_site_fract_y
_atom_site_fract_z
Si Si1 0.052971 0.919969 0.308690
Si Si2 0.945878 0.579716 0.509702
Si Si3 0.555591 0.692840 0.099693
Si Si4 0.553661 0.662239 0.659214
Si Si5 0.945288 0.420230 0.211911
Si Si6 0.550361 0.693705 0.925979
Si Si7 0.054482 0.160436 0.860459
O O1 0.250000 0.918823 0.307357
O O2 0.994628 0.877673 0.234202
O O3 0.999701 0.876398 0.382622
O O4 0.000000 0.000000 0.307872
O O5 0.750000 0.583110 0.506911
O O6 0.003784 0.622448 0.583444
O O7 0.000000 0.500000 0.515838
O O8 0.014940 0.614094 0.433742
O O9 0.750000 0.696939 0.097500
O O10 0.493142 0.757215 0.150300
O O11 0.503841 0.620675 0.137795
O O12 0.494366 0.699084 0.012984
O O13 0.750000 0.658989 0.660667
O O14 0.750000 0.418765 0.213687
O O15 0.009289 0.377242 0.285114
O O16 0.000000 0.500000 0.214732
O O17 0.750000 0.694827 0.927078
O O18 0.495266 0.761406 0.878390
O O19 0.250000 0.165024 0.852520
#
# Coordination Sequence:
#
# PCOD9364276 Si02
#       7
#     8   8   8   8   8   8   8
#     4  10  21  39  60  84 117 154 196 240 292 348
#     4  11  22  34  54  86 122 157 194 240 292 351
#     4  11  22  38  63  90 119 154 198 245 294 355
#     4  10  21  38  59  85 119 157 196 241 291 348
#     4  11  24  41  62  87 120 158 200 247 299 354
#     4   9  19  37  61  87 115 152 194 240 293 350
#     4  10  20  39  63  85 114 154 196 243 297 355
#
# _framework density 20.223534000000001
#
# number of rings (size 3 to 8) (size 9 to 14) (size 15 to 20)
#    0.000    1.714    1.429    3.000    0.000    6.286 
#    0.000    3.571    0.000    0.000    0.000    0.000 
#    0.000    0.000    0.000    0.000    0.000    0.000 
#
# Total GULP energy -156481.354419 kJ/mol
# GULP energy per Si atom -5588.619801 kJ/mol
# Density = 2.017750 g / cm^3
# Si number density = 20.223534 Si / 1000 Ang^3
#
#
#
# Elastic Constant Matrix: (Units=GPa)
#
#
# Indices 1 2 3 4 5 6 
#
# 1 3.3982 3.2448 -0.2530 0.0000 0.0000 0.0000
# 2 3.2448 151.6881 75.7589 0.0000 0.0000 0.0000
# 3 -0.2530 75.7589 70.7038 0.0000 0.0000 0.0000
# 4 0.0000 0.0000 0.0000 36.1179 0.0000 0.0000
# 5 0.0000 0.0000 0.0000 0.0000 4.5840 0.0000
# 6 0.0000 0.0000 0.0000 0.0000 0.0000 30.0797
#
#
#
# Elastic Compliance Matrix: (Units=1/GPa)
#
#
# Indices 1 2 3 4 5 6 
#
# 1 0.310365 -0.015475 0.017693 0.000000 0.000000 0.000000
# 2 -0.015475 0.014953 -0.016078 0.000000 0.000000 0.000000
# 3 0.017693 -0.016078 0.031434 0.000000 0.000000 0.000000
# 4 0.000000 0.000000 0.000000 0.027687 0.000000 0.000000
# 5 0.000000 0.000000 0.000000 0.000000 0.218151 0.000000
# 6 0.000000 0.000000 0.000000 0.000000 0.000000 0.033245
#
#
# Mechanical properties :
#
#
# Convention : Reuss Voigt Hill
#
# Bulk Modulus (GPa) = 3.03922 42.58794 22.81358
# Shear Modulus (GPa) = 6.46634 23.95894 15.21264
#
# Velocity S-wave (km/s) = 1.79008 3.44569 2.74565
# Velocity P-wave (km/s) = 2.40387 6.07739 4.62132
#
# Compressibility (1/GPa) = 0.32903154
#
# Stress axis : x y z
#
# Youngs Moduli (GPa) = 3.22201 66.87399 31.81234
#
# Poissons Ratio (x) = 1.03491 -0.56285
# Poissons Ratio (y) = 0.04986 0.51148
# Poissons Ratio (z) = -0.05701 1.07520
#
# Static dielectric constant tensor:
#      x y z
#    x 1.711970 0.000000 0.000000 
#    y 0.000000 1.682000 0.000000 
#    z 0.000000 0.000000 1.714090 
# 
# From -- ./inp_files/15329.got.cif
#   From: 2010.05.17/outbox.cif.g08.bks.cpg/sg40_8_cif.got.tgz:15329.got - 2010.06.03 18:35:42.
