data_PCOD9364527
_publ_section_title
;
Structure prediction by ZEFSAII (Michael W. Deem and Ramdas Pophale) SiO2 
 PCOD9364527
Probable space group: A M A 2
;
_chemical_formula_sum "Si O2"
_cell_formula_units_Z 48
_cell_length_a 15.214297
_cell_length_b 29.190852
_cell_length_c 5.074406
_cell_angle_alpha 90.000000
_cell_angle_beta 90.000000
_cell_angle_gamma 90.000000
_cell_volume 2253.636526
_symmetry_space_group_name_H-M "A M A 2"
_symmetry_group_IT_number 40
_symmetry_cell_setting 'orthorhombic'
loop_
_space_group_symop_operation_xyz
x,y,z
-x,-y,z
1/2-x,y,z
1/2+x,-y,z
x,1/2+y,1/2+z
-x,1/2-y,1/2+z
1/2-x,1/2+y,1/2+z
1/2+x,1/2-y,1/2+z
loop_
_atom_site_type_symbol
_atom_site_label
_atom_site_fract_x
_atom_site_fract_y
_atom_site_fract_z
Si Si1 0.250000 0.849556 0.692040
Si Si2 0.146670 0.569797 0.652395
Si Si3 0.144706 0.010116 0.645229
Si Si4 0.581480 0.088316 0.809055
Si Si5 0.250000 0.785246 0.190408
Si Si6 0.549959 0.231201 0.211533
Si Si7 0.502380 0.626473 0.813450
O O1 0.333013 0.881731 0.741692
O O2 0.250000 0.825999 0.407068
O O3 0.250000 0.808781 0.904248
O O4 0.250000 0.576603 0.684664
O O5 0.129802 0.548310 0.367914
O O6 0.095141 0.616074 0.712982
O O7 0.118558 0.531445 0.866100
O O8 0.250000 0.000406 0.638988
O O9 0.096457 0.963853 0.726976
O O10 0.510921 0.111213 0.614293
O O11 0.559661 0.094593 0.115987
O O12 0.344541 0.759875 0.219326
O O13 0.494003 0.258409 0.429953
O O14 0.535507 0.177662 0.274154
#
# Coordination Sequence:
#
# PCOD9364527 Si02
#       7
#     4   8   8   8   4   8   8
#     4  12  20  40  66 100 131 168 211 254 332 402
#     4  10  23  42  59  83 130 180 217 259 314 371
#     4  10  21  37  60  90 129 174 218 261 305 375
#     4  12  22  37  66  98 128 167 213 264 320 374
#     4  12  24  46  74  98 133 176 203 272 352 386
#     4  12  26  47  71 102 136 164 219 275 330 407
#     4  12  25  42  65  94 128 165 213 273 319 387
#
# _framework density 21.298908000000001
#
# number of rings (size 3 to 8) (size 9 to 14) (size 15 to 20)
#    0.000    0.667    4.167    4.000    0.000    4.000 
#    3.000    0.000    0.000    0.000    0.000    0.000 
#    0.000    0.000    0.000    0.000    0.000    0.000 
#
# Total GULP energy -134260.414342 kJ/mol
# GULP energy per Si atom -5594.183931 kJ/mol
# Density = 2.125043 g / cm^3
# Si number density = 21.298908 Si / 1000 Ang^3
#
#
#
# Elastic Constant Matrix: (Units=GPa)
#
#
# Indices 1 2 3 4 5 6 
#
# 1 97.7631 30.4200 1.4274 0.0000 0.0000 0.0000
# 2 30.4200 31.1500 -0.2283 0.0000 0.0000 0.0000
# 3 1.4274 -0.2283 44.4657 0.0000 0.0000 0.0000
# 4 0.0000 0.0000 0.0000 32.7174 0.0000 0.0000
# 5 0.0000 0.0000 0.0000 0.0000 28.9726 0.0000
# 6 0.0000 0.0000 0.0000 0.0000 0.0000 29.4232
#
#
#
# Elastic Compliance Matrix: (Units=1/GPa)
#
#
# Indices 1 2 3 4 5 6 
#
# 1 0.014707 -0.014366 -0.000546 0.000000 0.000000 0.000000
# 2 -0.014366 0.046138 0.000698 0.000000 0.000000 0.000000
# 3 -0.000546 0.000698 0.022510 0.000000 0.000000 0.000000
# 4 0.000000 0.000000 0.000000 0.030565 0.000000 0.000000
# 5 0.000000 0.000000 0.000000 0.000000 0.034515 0.000000
# 6 0.000000 0.000000 0.000000 0.000000 0.000000 0.033987
#
#
# Mechanical properties :
#
#
# Convention : Reuss Voigt Hill
#
# Bulk Modulus (GPa) = 18.20611 26.29078 22.24845
# Shear Modulus (GPa) = 21.81888 27.67329 24.74608
#
# Velocity S-wave (km/s) = 3.20412 3.60847 3.41229
# Velocity P-wave (km/s) = 4.71752 5.45270 5.09837
#
# Compressibility (1/GPa) = 0.05492661
#
# Stress axis : x y z
#
# Youngs Moduli (GPa) = 67.99458 21.67425 44.42397
#
# Poissons Ratio (x) = 0.31138 0.02425
# Poissons Ratio (y) = 0.97684 -0.03101
# Poissons Ratio (z) = 0.03712 -0.01513
#
# Static dielectric constant tensor:
#      x y z
#    x 1.827630 0.000000 0.000000 
#    y 0.000000 1.725100 0.000000 
#    z 0.000000 0.000000 1.737720 
# 
# From -- ./inp_files/1377.got.cif
#   From: 2010.05.17/outbox.cif.g08.bks.cpg/sg40_1_cif.got.tgz:1377.got - 2010.06.03 18:35:42.
