data_PCOD9364684
_publ_section_title
;
Structure prediction by ZEFSAII (Michael W. Deem and Ramdas Pophale) SiO2 
 PCOD9364684
Probable space group: A M A 2
;
_chemical_formula_sum "Si O2"
_cell_formula_units_Z 48
_cell_length_a 19.176734
_cell_length_b 10.622259
_cell_length_c 11.282136
_cell_angle_alpha 90.000000
_cell_angle_beta 90.000000
_cell_angle_gamma 90.000000
_cell_volume 2298.173758
_symmetry_space_group_name_H-M "A M A 2"
_symmetry_group_IT_number 40
_symmetry_cell_setting 'orthorhombic'
loop_
_space_group_symop_operation_xyz
x,y,z
-x,-y,z
1/2-x,y,z
1/2+x,-y,z
x,1/2+y,1/2+z
-x,1/2-y,1/2+z
1/2-x,1/2+y,1/2+z
1/2+x,1/2-y,1/2+z
loop_
_atom_site_type_symbol
_atom_site_label
_atom_site_fract_x
_atom_site_fract_y
_atom_site_fract_z
Si Si1 0.828921 0.348411 0.266750
Si Si2 0.830013 0.606330 0.592320
Si Si3 0.921066 0.979820 0.276730
Si Si4 0.563776 0.213644 0.901131
Si Si5 0.587900 0.714508 0.958211
Si Si6 0.429833 0.442011 0.169386
O O1 0.750000 0.392909 0.280315
O O2 0.828714 0.224923 0.183357
O O3 0.862357 0.312906 0.393253
O O4 0.877065 0.448639 0.201849
O O5 0.750000 0.577398 0.560122
O O6 0.867757 0.497689 0.668665
O O7 0.877566 0.650559 0.482631
O O8 0.912251 0.093236 0.370882
O O9 0.914249 0.848898 0.346881
O O10 0.000000 0.000000 0.230435
O O11 0.490671 0.233219 0.967980
O O12 0.547297 0.126206 0.789149
O O13 0.606397 0.659756 0.085319
O O14 0.500000 0.500000 0.111494
#
# Coordination Sequence:
#
# PCOD9364684 Si02
#       6
#     8   8   8   8   8   8
#     4  10  22  42  64  94 126 163 215 263 321 389
#     4  10  22  40  64  88 122 163 207 261 315 378
#     4   9  20  38  60  91 119 159 211 259 306 370
#     4  11  23  37  61  92 125 164 210 262 313 374
#     4  10  21  39  64  90 124 164 215 265 312 374
#     4  12  23  39  63  93 129 169 213 266 319 378
#
# _framework density 20.886149
#
# number of rings (size 3 to 8) (size 9 to 14) (size 15 to 20)
#    0.000    1.667    1.667    3.500    4.667    4.000 
#    0.000    3.333    0.000    0.000    0.000    0.000 
#    0.000    0.000    0.000    0.000    0.000    0.000 
#
# Total GULP energy -134181.310701 kJ/mol
# GULP energy per Si atom -5590.887946 kJ/mol
# Density = 2.083861 g / cm^3
# Si number density = 20.886149 Si / 1000 Ang^3
#
#
#
# Elastic Constant Matrix: (Units=GPa)
#
#
# Indices 1 2 3 4 5 6 
#
# 1 106.7441 29.3406 31.5733 0.0000 0.0000 0.0000
# 2 29.3406 27.2371 7.5177 0.0000 0.0000 0.0000
# 3 31.5733 7.5177 71.8470 0.0000 0.0000 0.0000
# 4 0.0000 0.0000 0.0000 31.1226 0.0000 0.0000
# 5 0.0000 0.0000 0.0000 0.0000 21.3846 0.0000
# 6 0.0000 0.0000 0.0000 0.0000 0.0000 22.2725
#
#
#
# Elastic Compliance Matrix: (Units=1/GPa)
#
#
# Indices 1 2 3 4 5 6 
#
# 1 0.014872 -0.014640 -0.005004 0.000000 0.000000 0.000000
# 2 -0.014640 0.052217 0.000970 0.000000 0.000000 0.000000
# 3 -0.005004 0.000970 0.016016 0.000000 0.000000 0.000000
# 4 0.000000 0.000000 0.000000 0.032131 0.000000 0.000000
# 5 0.000000 0.000000 0.000000 0.000000 0.046763 0.000000
# 6 0.000000 0.000000 0.000000 0.000000 0.000000 0.044898
#
#
# Mechanical properties :
#
#
# Convention : Reuss Voigt Hill
#
# Bulk Modulus (GPa) = 21.85417 38.07683 29.96550
# Shear Modulus (GPa) = 19.26798 24.11571 21.69185
#
# Velocity S-wave (km/s) = 3.04060 3.40167 3.22619
# Velocity P-wave (km/s) = 4.77632 5.80506 5.31563
#
# Compressibility (1/GPa) = 0.04575785
#
# Stress axis : x y z
#
# Youngs Moduli (GPa) = 67.23929 19.15074 62.43776
#
# Poissons Ratio (x) = 0.28036 0.31243
# Poissons Ratio (y) = 0.98436 -0.06055
# Poissons Ratio (z) = 0.33645 -0.01857
#
# Static dielectric constant tensor:
#      x y z
#    x 1.727340 0.000000 0.000000 
#    y 0.000000 1.774960 0.000000 
#    z 0.000000 0.000000 1.754130 
# 
# From -- ./inp_files/12905.got.cif
#   From: 2010.05.17/outbox.cif.g08.bks.cpg/sg40_7_cif.got.tgz:12905.got - 2010.06.03 18:35:42.
