data_PCOD9364239
_publ_section_title
;
Structure prediction by ZEFSAII (Michael W. Deem and Ramdas Pophale) SiO2 
 PCOD9364239
Probable space group: A M A 2
;
_chemical_formula_sum "Si O2"
_cell_formula_units_Z 64
_cell_length_a 25.291708
_cell_length_b 12.149091
_cell_length_c 8.492592
_cell_angle_alpha 90.000000
_cell_angle_beta 90.000000
_cell_angle_gamma 90.000000
_cell_volume 2609.529462
_symmetry_space_group_name_H-M "A M A 2"
_symmetry_group_IT_number 40
_symmetry_cell_setting 'orthorhombic'
loop_
_space_group_symop_operation_xyz
x,y,z
-x,-y,z
1/2-x,y,z
1/2+x,-y,z
x,1/2+y,1/2+z
-x,1/2-y,1/2+z
1/2-x,1/2+y,1/2+z
1/2+x,1/2-y,1/2+z
loop_
_atom_site_type_symbol
_atom_site_label
_atom_site_fract_x
_atom_site_fract_y
_atom_site_fract_z
Si Si1 0.546675 0.124879 0.323410
Si Si2 0.635485 0.757361 0.248457
Si Si3 0.190315 0.393739 0.673637
Si Si4 0.407556 0.536770 0.574774
Si Si5 0.688715 0.848487 0.545905
Si Si6 0.981118 0.792758 0.581013
Si Si7 0.539501 0.618120 0.367251
Si Si8 0.850684 0.576388 0.017586
O O1 0.557872 0.022096 0.210665
O O2 0.491154 0.139412 0.417097
O O3 0.557042 0.233317 0.212412
O O4 0.591694 0.111699 0.455506
O O5 0.674284 0.819902 0.365594
O O6 0.590194 0.700690 0.355956
O O7 0.607861 0.841700 0.127722
O O8 0.664249 0.662668 0.150951
O O9 0.250000 0.418059 0.622144
O O10 0.147650 0.467995 0.583757
O O11 0.180613 0.264328 0.641075
O O12 0.183997 0.416897 0.859543
O O13 0.437384 0.498940 0.416361
O O14 0.750000 0.880530 0.563075
O O15 0.651999 0.952754 0.584062
O O16 0.996574 0.674174 0.502659
O O17 0.013289 0.868628 0.700259
#
# Coordination Sequence:
#
# PCOD9364239 Si02
#       8
#     8   8   8   8   8   8   8   8
#     4   9  17  35  59  89 120 169 208 260 318 370
#     4  12  23  39  69  95 128 173 215 265 325 393
#     4  10  21  41  64  92 132 171 211 270 326 385
#     4  10  21  37  64  94 127 172 216 259 327 390
#     4  11  24  43  68  96 128 171 221 269 324 390
#     4   9  18  35  64  85 130 171 210 275 314 377
#     4  10  20  38  64  93 130 171 217 270 317 386
#     4  11  23  40  65  94 129 171 212 269 323 388
#
# _framework density 24.525494999999999
#
# number of rings (size 3 to 8) (size 9 to 14) (size 15 to 20)
#    0.000    1.750    5.000    0.375    0.000    2.000 
#    0.000    5.625    2.750    0.000    0.000    0.000 
#    0.000    0.000    0.000    0.000    0.000    0.000 
#
# Total GULP energy -178420.506494 kJ/mol
# GULP energy per Si atom -5575.640828 kJ/mol
# Density = 2.446967 g / cm^3
# Si number density = 24.525495 Si / 1000 Ang^3
#
#
#
# Elastic Constant Matrix: (Units=GPa)
#
#
# Indices 1 2 3 4 5 6 
#
# 1 76.2183 26.1123 15.2027 0.0000 0.0000 0.0000
# 2 26.1123 132.3507 30.2641 0.0000 0.0000 0.0000
# 3 15.2027 30.2641 52.2905 0.0000 0.0000 0.0000
# 4 0.0000 0.0000 0.0000 27.0985 0.0000 0.0000
# 5 0.0000 0.0000 0.0000 0.0000 14.5625 0.0000
# 6 0.0000 0.0000 0.0000 0.0000 0.0000 22.2844
#
#
#
# Elastic Compliance Matrix: (Units=1/GPa)
#
#
# Indices 1 2 3 4 5 6 
#
# 1 0.014453 -0.002179 -0.002941 0.000000 0.000000 0.000000
# 2 -0.002179 0.009037 -0.004597 0.000000 0.000000 0.000000
# 3 -0.002941 -0.004597 0.022639 0.000000 0.000000 0.000000
# 4 0.000000 0.000000 0.000000 0.036902 0.000000 0.000000
# 5 0.000000 0.000000 0.000000 0.000000 0.068670 0.000000
# 6 0.000000 0.000000 0.000000 0.000000 0.000000 0.044874
#
#
# Mechanical properties :
#
#
# Convention : Reuss Voigt Hill
#
# Bulk Modulus (GPa) = 37.45858 44.89087 41.17473
# Shear Modulus (GPa) = 22.23131 25.40776 23.81953
#
# Velocity S-wave (km/s) = 3.01401 3.22215 3.11981
# Velocity P-wave (km/s) = 5.23630 5.67331 5.45918
#
# Compressibility (1/GPa) = 0.02669615
#
# Stress axis : x y z
#
# Youngs Moduli (GPa) = 69.18806 110.65979 44.17086
#
# Poissons Ratio (x) = 0.24114 0.12990
# Poissons Ratio (y) = 0.15077 0.20304
# Poissons Ratio (z) = 0.20347 0.50866
#
# Static dielectric constant tensor:
#      x y z
#    x 2.014940 0.000000 0.000000 
#    y 0.000000 2.006590 0.000000 
#    z 0.000000 0.000000 1.964570 
# 
# From -- ./inp_files/9425.got.cif
#   From: 2010.05.17/outbox.cif.g08.bks.cpg/sg40_5_cif.got.tgz:9425.got - 2010.06.03 18:35:42.
