data_PCOD9364948
_publ_section_title
;
Structure prediction by ZEFSAII (Michael W. Deem and Ramdas Pophale) SiO2 
 PCOD9364948
Probable space group: A M A 2
;
_chemical_formula_sum "Si O2"
_cell_formula_units_Z 40
_cell_length_a 21.223146
_cell_length_b 8.806959
_cell_length_c 10.645542
_cell_angle_alpha 90.000000
_cell_angle_beta 90.000000
_cell_angle_gamma 90.000000
_cell_volume 1989.772911
_symmetry_space_group_name_H-M "A M A 2"
_symmetry_group_IT_number 40
_symmetry_cell_setting 'orthorhombic'
loop_
_space_group_symop_operation_xyz
x,y,z
-x,-y,z
1/2-x,y,z
1/2+x,-y,z
x,1/2+y,1/2+z
-x,1/2-y,1/2+z
1/2-x,1/2+y,1/2+z
1/2+x,1/2-y,1/2+z
loop_
_atom_site_type_symbol
_atom_site_label
_atom_site_fract_x
_atom_site_fract_y
_atom_site_fract_z
Si Si1 0.321018 0.123437 0.724130
Si Si2 0.007428 0.678452 0.564300
Si Si3 0.881538 0.844252 0.472642
Si Si4 0.616880 0.191734 0.714246
Si Si5 0.378373 0.298864 0.944423
O O1 0.250000 0.069460 0.744960
O O2 0.329752 0.175886 0.580879
O O3 0.338289 0.250260 0.825930
O O4 0.369809 0.984480 0.737441
O O5 0.044947 0.762801 0.677634
O O6 0.056710 0.704586 0.450304
O O7 0.000000 0.500000 0.590808
O O8 0.942869 0.758684 0.527002
O O9 0.863391 0.777705 0.338442
O O10 0.893822 0.022919 0.450528
O O11 0.651672 0.233725 0.582582
#
# Coordination Sequence:
#
# PCOD9364948 Si02
#       5
#     8   8   8   8   8
#     4  11  25  45  66  93 134 183 232 275 328 405
#     4  10  22  39  68 100 138 169 217 276 347 415
#     4  11  23  42  68  99 134 168 221 278 344 402
#     4   9  24  42  65  96 134 174 216 274 340 401
#     4   9  23  40  64  97 131 173 215 274 343 398
#
# _framework density 20.102796000000001
#
# number of rings (size 3 to 8) (size 9 to 14) (size 15 to 20)
#    1.200    0.800    0.000    1.800    5.600    4.000 
#    0.000    0.000    0.000    0.000    0.000    0.000 
#    0.000    0.000    0.000    0.000    0.000    0.000 
#
# Total GULP energy -111388.946732 kJ/mol
# GULP energy per Si atom -5569.447337 kJ/mol
# Density = 2.005704 g / cm^3
# Si number density = 20.102796 Si / 1000 Ang^3
#
#
#
# Elastic Constant Matrix: (Units=GPa)
#
#
# Indices 1 2 3 4 5 6 
#
# 1 47.1441 46.7190 19.9900 0.0000 0.0000 0.0000
# 2 46.7190 113.9124 66.5430 0.0000 0.0000 0.0000
# 3 19.9900 66.5430 112.0713 0.0000 0.0000 0.0000
# 4 0.0000 0.0000 0.0000 30.1505 0.0000 0.0000
# 5 0.0000 0.0000 0.0000 0.0000 8.8765 0.0000
# 6 0.0000 0.0000 0.0000 0.0000 0.0000 -1.8085
#
#
#
# Elastic Compliance Matrix: (Units=1/GPa)
#
#
# Indices 1 2 3 4 5 6 
#
# 1 0.036691 -0.017186 0.003660 0.000000 0.000000 0.000000
# 2 -0.017186 0.021490 -0.009695 0.000000 0.000000 0.000000
# 3 0.003660 -0.009695 0.014026 0.000000 0.000000 0.000000
# 4 0.000000 0.000000 0.000000 0.033167 0.000000 0.000000
# 5 0.000000 0.000000 0.000000 0.000000 0.112657 0.000000
# 6 0.000000 0.000000 0.000000 0.000000 0.000000 -0.552936
#
#
# Mechanical properties :
#
#
# Convention : Reuss Voigt Hill
#
# Bulk Modulus (GPa) = 38.81101 59.95909 49.38505
# Shear Modulus (GPa) = -17.86513 16.76874 -0.54820
#
# Velocity S-wave (km/s) = -2.98432 2.89130 -0.52277
# Velocity P-wave (km/s) = 2.73373 6.40602 4.92496
#
# Compressibility (1/GPa) = 0.02576588
#
# Stress axis : x y z
#
# Youngs Moduli (GPa) = 27.25494 46.53263 71.29453
#
# Poissons Ratio (x) = 0.79970 -0.26092
# Poissons Ratio (y) = 0.46840 0.69117
# Poissons Ratio (z) = -0.09975 0.45111
#
# Static dielectric constant tensor:
#      x y z
#    x 1.716470 0.000000 0.000000 
#    y 0.000000 1.716140 0.000000 
#    z 0.000000 0.000000 1.752920 
# 
# From -- ./inp_files/9039.got.cif
#   From: 2010.05.17/outbox.cif.g08.bks.cpg/sg40_5_cif.got.tgz:9039.got - 2010.06.03 18:35:42.
