data_PCOD9364738
_publ_section_title
;
Structure prediction by ZEFSAII (Michael W. Deem and Ramdas Pophale) SiO2 
 PCOD9364738
Probable space group: A M A 2
;
_chemical_formula_sum "Si O2"
_cell_formula_units_Z 40
_cell_length_a 20.110862
_cell_length_b 7.661228
_cell_length_c 11.440865
_cell_angle_alpha 90.000000
_cell_angle_beta 90.000000
_cell_angle_gamma 90.000000
_cell_volume 1762.738679
_symmetry_space_group_name_H-M "A M A 2"
_symmetry_group_IT_number 40
_symmetry_cell_setting 'orthorhombic'
loop_
_space_group_symop_operation_xyz
x,y,z
-x,-y,z
1/2-x,y,z
1/2+x,-y,z
x,1/2+y,1/2+z
-x,1/2-y,1/2+z
1/2-x,1/2+y,1/2+z
1/2+x,1/2-y,1/2+z
loop_
_atom_site_type_symbol
_atom_site_label
_atom_site_fract_x
_atom_site_fract_y
_atom_site_fract_z
Si Si1 0.435749 0.397987 0.408930
Si Si2 0.329165 0.460026 0.083222
Si Si3 0.103221 0.790272 0.157235
Si Si4 0.176094 0.073228 0.032972
Si Si5 0.573189 0.477689 0.873230
O O1 0.500000 0.500000 0.369318
O O2 0.443890 0.321839 0.543306
O O3 0.375929 0.532091 0.430808
O O4 0.421499 0.224864 0.336041
O O5 0.250000 0.498602 0.084537
O O6 0.371158 0.592886 0.163192
O O7 0.337158 0.253240 0.099876
O O8 0.364244 0.491002 0.957458
O O9 0.166321 0.910009 0.119317
O O10 0.073941 0.882743 0.269540
O O11 0.250000 0.081769 0.985086
O O12 0.500000 0.500000 0.930253
#
# Coordination Sequence:
#
# PCOD9364738 Si02
#       5
#     8   8   8   8   8
#     4   9  19  37  61  84 127 161 203 266 321 379
#     4  10  21  40  63  89 125 166 208 265 326 380
#     4   9  21  37  61  84 123 159 211 256 313 386
#     4   9  19  38  61  83 118 161 204 252 318 381
#     4  11  22  38  62  94 124 165 217 264 321 392
#
# _framework density 22.691962
#
# number of rings (size 3 to 8) (size 9 to 14) (size 15 to 20)
#    1.200    1.200    0.000    2.400    0.000    1.600 
#    7.200    0.000    0.000    0.000    0.000    0.000 
#    0.000    0.000    0.000    0.000    0.000    0.000 
#
# Total GULP energy -111474.383765 kJ/mol
# GULP energy per Si atom -5573.719188 kJ/mol
# Density = 2.264031 g / cm^3
# Si number density = 22.691962 Si / 1000 Ang^3
#
#
#
# Elastic Constant Matrix: (Units=GPa)
#
#
# Indices 1 2 3 4 5 6 
#
# 1 82.9467 39.6212 16.7682 0.0000 0.0000 0.0000
# 2 39.6212 154.0027 12.0549 0.0000 0.0000 0.0000
# 3 16.7682 12.0549 60.7654 0.0000 0.0000 0.0000
# 4 0.0000 0.0000 0.0000 18.9745 0.0000 0.0000
# 5 0.0000 0.0000 0.0000 0.0000 4.8994 0.0000
# 6 0.0000 0.0000 0.0000 0.0000 0.0000 34.5743
#
#
#
# Elastic Compliance Matrix: (Units=1/GPa)
#
#
# Indices 1 2 3 4 5 6 
#
# 1 0.014361 -0.003438 -0.003281 0.000000 0.000000 0.000000
# 2 -0.003438 0.007419 -0.000523 0.000000 0.000000 0.000000
# 3 -0.003281 -0.000523 0.017466 0.000000 0.000000 0.000000
# 4 0.000000 0.000000 0.000000 0.052702 0.000000 0.000000
# 5 0.000000 0.000000 0.000000 0.000000 0.204107 0.000000
# 6 0.000000 0.000000 0.000000 0.000000 0.000000 0.028923
#
#
# Mechanical properties :
#
#
# Convention : Reuss Voigt Hill
#
# Bulk Modulus (GPa) = 40.38437 48.28925 44.33681
# Shear Modulus (GPa) = 14.37953 26.97435 20.67694
#
# Velocity S-wave (km/s) = 2.52004 3.45152 3.02189
# Velocity P-wave (km/s) = 5.12863 6.10004 5.63531
#
# Compressibility (1/GPa) = 0.02476205
#
# Stress axis : x y z
#
# Youngs Moduli (GPa) = 69.63083 134.79167 57.25445
#
# Poissons Ratio (x) = 0.46342 0.18785
# Poissons Ratio (y) = 0.23939 0.02995
# Poissons Ratio (z) = 0.22846 0.07050
#
# Static dielectric constant tensor:
#      x y z
#    x 1.808280 0.000000 0.000000 
#    y 0.000000 1.883200 0.000000 
#    z 0.000000 0.000000 1.884060 
# 
# From -- ./inp_files/17474.got.cif
#   From: 2010.05.17/outbox.cif.g08.bks.cpg/sg40_9_cif.got.tgz:17474.got - 2010.06.03 18:35:42.
