data_PCOD9364171
_publ_section_title
;
Structure prediction by ZEFSAII (Michael W. Deem and Ramdas Pophale) SiO2 
 PCOD9364171
Probable space group: A M A 2
;
_chemical_formula_sum "Si O2"
_cell_formula_units_Z 64
_cell_length_a 16.058982
_cell_length_b 9.391974
_cell_length_c 20.965380
_cell_angle_alpha 90.000000
_cell_angle_beta 90.000000
_cell_angle_gamma 90.000000
_cell_volume 3162.114789
_symmetry_space_group_name_H-M "A M A 2"
_symmetry_group_IT_number 40
_symmetry_cell_setting 'orthorhombic'
loop_
_space_group_symop_operation_xyz
x,y,z
-x,-y,z
1/2-x,y,z
1/2+x,-y,z
x,1/2+y,1/2+z
-x,1/2-y,1/2+z
1/2-x,1/2+y,1/2+z
1/2+x,1/2-y,1/2+z
loop_
_atom_site_type_symbol
_atom_site_label
_atom_site_fract_x
_atom_site_fract_y
_atom_site_fract_z
Si Si1 0.600972 0.674363 0.770030
Si Si2 0.844155 0.194565 0.027456
Si Si3 0.899878 0.858174 0.650710
Si Si4 0.650310 0.174501 0.887597
Si Si5 0.350354 0.651693 0.394161
Si Si6 0.596150 0.677559 0.144970
Si Si7 0.415679 0.099053 0.029747
Si Si8 0.100083 0.149461 0.265867
O O1 0.633466 0.775971 0.713094
O O2 0.623885 0.742295 0.837967
O O3 0.500739 0.658283 0.764208
O O4 0.631030 0.512427 0.763230
O O5 0.750000 0.246624 0.026279
O O6 0.886142 0.269782 0.086511
O O7 0.846871 0.024616 0.036587
O O8 0.883277 0.218278 0.957408
O O9 0.999257 0.854187 0.659400
O O10 0.867062 0.018535 0.640448
O O11 0.750000 0.175179 0.893281
O O12 0.624867 0.276827 0.831451
O O13 0.627279 0.010616 0.873856
O O14 0.250000 0.660155 0.404363
O O15 0.399630 0.669467 0.460707
O O16 0.594577 0.781668 0.083854
O O17 0.631963 0.762488 0.205147
O O18 0.500000 0.000000 0.033905
#
# Coordination Sequence:
#
# PCOD9364171 Si02
#       8
#     8   8   8   8   8   8   8   8
#     4  10  22  36  60  85 119 156 195 248 291 349
#     4  10  21  38  60  86 121 158 193 239 295 353
#     4  10  20  38  58  88 117 154 197 245 300 346
#     4   9  20  38  58  82 115 153 193 240 290 348
#     4  10  23  40  58  87 121 157 198 241 292 354
#     4  10  21  36  60  88 116 149 199 255 287 346
#     4  11  21  37  63  89 118 155 200 241 292 347
#     4  10  21  37  58  89 117 150 203 242 296 349
#
# _framework density 20.239619000000001
#
# number of rings (size 3 to 8) (size 9 to 14) (size 15 to 20)
#    0.000    2.000    1.250    2.625    5.250    3.000 
#    0.000    8.125    0.000    0.000    0.000    0.000 
#    0.000    0.000    0.000    0.000    0.000    0.000 
#
# Total GULP energy -178468.272609 kJ/mol
# GULP energy per Si atom -5577.133519 kJ/mol
# Density = 2.019355 g / cm^3
# Si number density = 20.239619 Si / 1000 Ang^3
#
#
#
# Elastic Constant Matrix: (Units=GPa)
#
#
# Indices 1 2 3 4 5 6 
#
# 1 22.5838 7.5183 8.9281 0.0000 0.0000 0.0000
# 2 7.5183 143.5569 125.5816 0.0000 0.0000 0.0000
# 3 8.9281 125.5816 174.2389 0.0000 0.0000 0.0000
# 4 0.0000 0.0000 0.0000 29.5303 0.0000 0.0000
# 5 0.0000 0.0000 0.0000 0.0000 74.1093 0.0000
# 6 0.0000 0.0000 0.0000 0.0000 0.0000 16.2018
#
#
#
# Elastic Compliance Matrix: (Units=1/GPa)
#
#
# Indices 1 2 3 4 5 6 
#
# 1 0.045240 -0.000924 -0.001652 0.000000 0.000000 0.000000
# 2 -0.000924 0.018871 -0.013554 0.000000 0.000000 0.000000
# 3 -0.001652 -0.013554 0.015593 0.000000 0.000000 0.000000
# 4 0.000000 0.000000 0.000000 0.033863 0.000000 0.000000
# 5 0.000000 0.000000 0.000000 0.000000 0.013494 0.000000
# 6 0.000000 0.000000 0.000000 0.000000 0.000000 0.061722
#
#
# Mechanical properties :
#
#
# Convention : Reuss Voigt Hill
#
# Bulk Modulus (GPa) = 21.07743 69.38170 45.22957
# Shear Modulus (GPa) = 21.10978 37.19172 29.15075
#
# Velocity S-wave (km/s) = 3.23304 4.29134 3.79922
# Velocity P-wave (km/s) = 4.93693 7.67520 6.45298
#
# Compressibility (1/GPa) = 0.04744411
#
# Stress axis : x y z
#
# Youngs Moduli (GPa) = 22.10416 52.99170 64.13273
#
# Poissons Ratio (x) = 0.04896 0.10596
# Poissons Ratio (y) = 0.02042 0.86924
# Poissons Ratio (z) = 0.03652 0.71823
#
# Static dielectric constant tensor:
#      x y z
#    x 1.759690 0.000000 0.000000 
#    y 0.000000 1.707550 0.000000 
#    z 0.000000 0.000000 1.703160 
# 
# From -- ./inp_files/23337.got.cif
#   From: 2010.05.17/outbox.cif.g08.bks.cpg/sg40_12_cif.got.tgz:23337.got - 2010.06.03 18:35:42.
