data_PCOD9364355
_publ_section_title
;
Structure prediction by ZEFSAII (Michael W. Deem and Ramdas Pophale) SiO2 
 PCOD9364355
Probable space group: A M A 2
;
_chemical_formula_sum "Si O2"
_cell_formula_units_Z 56
_cell_length_a 26.952980
_cell_length_b 17.363773
_cell_length_c 5.808120
_cell_angle_alpha 90.000000
_cell_angle_beta 90.000000
_cell_angle_gamma 90.000000
_cell_volume 2718.231677
_symmetry_space_group_name_H-M "A M A 2"
_symmetry_group_IT_number 40
_symmetry_cell_setting 'orthorhombic'
loop_
_space_group_symop_operation_xyz
x,y,z
-x,-y,z
1/2-x,y,z
1/2+x,-y,z
x,1/2+y,1/2+z
-x,1/2-y,1/2+z
1/2-x,1/2+y,1/2+z
1/2+x,1/2-y,1/2+z
loop_
_atom_site_type_symbol
_atom_site_label
_atom_site_fract_x
_atom_site_fract_y
_atom_site_fract_z
Si Si1 0.578887 0.778789 0.338240
Si Si2 0.934616 0.920613 0.013075
Si Si3 0.250000 0.976001 0.674972
Si Si4 0.998069 0.153851 0.658990
Si Si5 0.641442 0.005038 0.705076
Si Si6 0.750000 0.113731 0.177772
Si Si7 0.355788 0.842645 0.029231
Si Si8 0.570289 0.566544 0.818966
O O1 0.546320 0.804950 0.556457
O O2 0.544215 0.715671 0.212798
O O3 0.629379 0.735942 0.404042
O O4 0.583744 0.853529 0.180898
O O5 0.983365 0.890512 0.883279
O O6 0.891579 0.942317 0.833358
O O7 0.943996 0.999847 0.144602
O O8 0.302177 0.019838 0.664793
O O9 0.250000 0.925332 0.434533
O O10 0.250000 0.936719 0.934772
O O11 0.974853 0.095809 0.473480
O O12 0.612603 0.028024 0.476420
O O13 0.643709 0.084336 0.854500
O O14 0.697465 0.157864 0.153251
O O15 0.401871 0.862565 0.196703
#
# Coordination Sequence:
#
# PCOD9364355 Si02
#       8
#     8   8   4   8   8   4   8   8
#     4  12  24  43  63  92 135 181 226 276 339 418
#     4  11  27  43  62  96 136 176 227 282 347 411
#     4  10  20  40  73 105 137 177 232 292 363 418
#     4  12  25  43  65  92 133 185 230 270 342 414
#     4  10  21  42  67 100 131 172 224 290 346 414
#     4  10  20  40  71 107 137 177 230 298 347 424
#     4  10  22  40  69 101 131 174 229 281 349 411
#     4  11  23  43  67  95 130 173 226 291 333 409
#
# _framework density 20.601628000000002
#
# number of rings (size 3 to 8) (size 9 to 14) (size 15 to 20)
#    0.000    1.143    4.286    1.714    0.000    3.429 
#    0.000    0.714    0.000    2.571    0.000    0.000 
#    0.000    0.000    0.000    0.000    0.000    0.000 
#
# Total GULP energy -156492.800275 kJ/mol
# GULP energy per Si atom -5589.028581 kJ/mol
# Density = 2.055474 g / cm^3
# Si number density = 20.601628 Si / 1000 Ang^3
#
#
#
# Elastic Constant Matrix: (Units=GPa)
#
#
# Indices 1 2 3 4 5 6 
#
# 1 71.8709 25.7488 -5.1403 0.0000 0.0000 0.0000
# 2 25.7488 81.4023 19.5109 0.0000 0.0000 0.0000
# 3 -5.1403 19.5109 57.9564 0.0000 0.0000 0.0000
# 4 0.0000 0.0000 0.0000 23.4866 0.0000 0.0000
# 5 0.0000 0.0000 0.0000 0.0000 21.8784 0.0000
# 6 0.0000 0.0000 0.0000 0.0000 0.0000 15.2447
#
#
#
# Elastic Compliance Matrix: (Units=1/GPa)
#
#
# Indices 1 2 3 4 5 6 
#
# 1 0.016307 -0.005988 0.003462 0.000000 0.000000 0.000000
# 2 -0.005988 0.015562 -0.005770 0.000000 0.000000 0.000000
# 3 0.003462 -0.005770 0.019504 0.000000 0.000000 0.000000
# 4 0.000000 0.000000 0.000000 0.042577 0.000000 0.000000
# 5 0.000000 0.000000 0.000000 0.000000 0.045707 0.000000
# 6 0.000000 0.000000 0.000000 0.000000 0.000000 0.065597
#
#
# Mechanical properties :
#
#
# Convention : Reuss Voigt Hill
#
# Bulk Modulus (GPa) = 28.75143 32.38539 30.56841
# Shear Modulus (GPa) = 21.41893 23.52929 22.47411
#
# Velocity S-wave (km/s) = 3.22789 3.38318 3.30645
# Velocity P-wave (km/s) = 5.28002 5.56912 5.42650
#
# Compressibility (1/GPa) = 0.03478087
#
# Stress axis : x y z
#
# Youngs Moduli (GPa) = 61.32452 64.26045 51.27194
#
# Poissons Ratio (x) = 0.38478 -0.17751
# Poissons Ratio (y) = 0.36720 0.29583
# Poissons Ratio (z) = -0.21231 0.37078
#
# Static dielectric constant tensor:
#      x y z
#    x 1.740210 0.000000 0.000000 
#    y 0.000000 1.712500 0.000000 
#    z 0.000000 0.000000 1.811650 
# 
# From -- ./inp_files/3428.got.cif
#   From: 2010.05.17/outbox.cif.g08.bks.cpg/sg40_2_cif.got.tgz:3428.got - 2010.06.03 18:35:42.
