data_PCOD9364941
_publ_section_title
;
Structure prediction by ZEFSAII (Michael W. Deem and Ramdas Pophale) SiO2 
 PCOD9364941
Probable space group: A M A 2
;
_chemical_formula_sum "Si O2"
_cell_formula_units_Z 52
_cell_length_a 27.574104
_cell_length_b 10.810170
_cell_length_c 8.823829
_cell_angle_alpha 90.000000
_cell_angle_beta 90.000000
_cell_angle_gamma 90.000000
_cell_volume 2630.213582
_symmetry_space_group_name_H-M "A M A 2"
_symmetry_group_IT_number 40
_symmetry_cell_setting 'orthorhombic'
loop_
_space_group_symop_operation_xyz
x,y,z
-x,-y,z
1/2-x,y,z
1/2+x,-y,z
x,1/2+y,1/2+z
-x,1/2-y,1/2+z
1/2-x,1/2+y,1/2+z
1/2+x,1/2-y,1/2+z
loop_
_atom_site_type_symbol
_atom_site_label
_atom_site_fract_x
_atom_site_fract_y
_atom_site_fract_z
Si Si1 0.433715 0.770821 0.050310
Si Si2 0.250000 0.594328 0.157298
Si Si3 0.356173 0.207480 0.322586
Si Si4 0.750000 0.120365 0.074061
Si Si5 0.168365 0.468601 0.346153
Si Si6 0.250000 0.084786 0.329514
Si Si7 0.986155 0.857533 0.835774
Si Si8 0.910135 0.443228 0.566751
O O1 0.458673 0.701413 0.191647
O O2 0.424475 0.913943 0.097129
O O3 0.383547 0.711908 0.985882
O O4 0.467867 0.781253 0.899840
O O5 0.250000 0.740347 0.131492
O O6 0.202613 0.550751 0.244343
O O7 0.250000 0.527892 0.995992
O O8 0.356030 0.350365 0.266860
O O9 0.300217 0.161801 0.319593
O O10 0.386599 0.120949 0.210920
O O11 0.750000 0.020683 0.205882
O O12 0.796828 0.093324 0.972123
O O13 0.129398 0.548695 0.433269
O O14 0.953691 0.869913 0.988213
O O15 0.000000 0.000000 0.797451
#
# Coordination Sequence:
#
# PCOD9364941 Si02
#       8
#     8   4   8   4   8   4   8   8
#     4  10  23  41  66  95 127 168 207 270 319 383
#     4  11  24  39  61  87 122 165 222 266 308 377
#     4  11  22  42  64  90 131 168 212 265 314 379
#     4  11  21  41  58  80 122 165 209 267 312 370
#     4  10  22  40  60  84 123 167 206 263 320 368
#     4  12  23  38  63  89 124 170 213 255 316 373
#     4  10  22  42  66  95 127 163 211 262 323 382
#     4  10  22  39  62  91 127 165 209 256 325 384
#
# _framework density 19.770257000000001
#
# number of rings (size 3 to 8) (size 9 to 14) (size 15 to 20)
#    0.000    1.538    3.077    1.385    2.154    2.462 
#    2.769    0.000    0.000    0.000    0.000    0.000 
#    0.000    0.000    0.000    0.000    0.000    0.000 
#
# Total GULP energy -145113.117770 kJ/mol
# GULP energy per Si atom -5581.273760 kJ/mol
# Density = 1.972526 g / cm^3
# Si number density = 19.770257 Si / 1000 Ang^3
#
#
#
# Elastic Constant Matrix: (Units=GPa)
#
#
# Indices 1 2 3 4 5 6 
#
# 1 97.5272 31.1348 35.4566 0.0000 0.0000 0.0000
# 2 31.1348 72.0958 53.6596 0.0000 0.0000 0.0000
# 3 35.4566 53.6596 75.8879 0.0000 0.0000 0.0000
# 4 0.0000 0.0000 0.0000 24.9943 0.0000 0.0000
# 5 0.0000 0.0000 0.0000 0.0000 -532.4369 0.0000
# 6 0.0000 0.0000 0.0000 0.0000 0.0000 105.7020
#
#
#
# Elastic Compliance Matrix: (Units=1/GPa)
#
#
# Indices 1 2 3 4 5 6 
#
# 1 0.012518 -0.002223 -0.004277 0.000000 0.000000 0.000000
# 2 -0.002223 0.029674 -0.019944 0.000000 0.000000 0.000000
# 3 -0.004277 -0.019944 0.029278 0.000000 0.000000 0.000000
# 4 0.000000 0.000000 0.000000 0.040009 0.000000 0.000000
# 5 0.000000 0.000000 0.000000 0.000000 -0.001878 0.000000
# 6 0.000000 0.000000 0.000000 0.000000 0.000000 0.009461
#
#
# Mechanical properties :
#
#
# Convention : Reuss Voigt Hill
#
# Bulk Modulus (GPa) = 53.81309 54.00146 53.90727
# Shear Modulus (GPa) = 28.06734 -71.99745 -21.96506
#
# Velocity S-wave (km/s) = 3.77195 -6.04120 -3.33681
# Velocity P-wave (km/s) = 6.80062 4.61386 3.53275
#
# Compressibility (1/GPa) = 0.01858284
#
# Stress axis : x y z
#
# Youngs Moduli (GPa) = 79.88449 33.69943 34.15554
#
# Poissons Ratio (x) = 0.07490 0.14609
# Poissons Ratio (y) = 0.17755 0.68119
# Poissons Ratio (z) = 0.34168 0.67210
#
# Static dielectric constant tensor:
#      x y z
#    x 3.627170 0.000000 0.000000 
#    y 0.000000 1.684530 0.000000 
#    z 0.000000 0.000000 1.665680 
# 
# From -- ./inp_files/9142.got.cif
#   From: 2010.05.17/outbox.cif.g08.bks.cpg/sg40_5_cif.got.tgz:9142.got - 2010.06.03 18:35:42.
