data_PCOD9364515
_publ_section_title
;
Structure prediction by ZEFSAII (Michael W. Deem and Ramdas Pophale) SiO2 
 PCOD9364515
Probable space group: A M A 2
;
_chemical_formula_sum "Si O2"
_cell_formula_units_Z 48
_cell_length_a 16.588949
_cell_length_b 5.011253
_cell_length_c 28.417753
_cell_angle_alpha 90.000000
_cell_angle_beta 90.000000
_cell_angle_gamma 90.000000
_cell_volume 2362.408173
_symmetry_space_group_name_H-M "A M A 2"
_symmetry_group_IT_number 40
_symmetry_cell_setting 'orthorhombic'
loop_
_space_group_symop_operation_xyz
x,y,z
-x,-y,z
1/2-x,y,z
1/2+x,-y,z
x,1/2+y,1/2+z
-x,1/2-y,1/2+z
1/2-x,1/2+y,1/2+z
1/2+x,1/2-y,1/2+z
loop_
_atom_site_type_symbol
_atom_site_label
_atom_site_fract_x
_atom_site_fract_y
_atom_site_fract_z
Si Si1 0.940404 0.746048 0.950330
Si Si2 0.658886 0.974614 0.760627
Si Si3 0.157939 0.404658 0.042672
Si Si4 0.908400 0.579684 0.594766
Si Si5 0.058491 0.245101 0.848309
Si Si6 0.657377 0.458677 0.696015
O O1 0.897340 0.740793 0.899027
O O2 0.000000 0.500000 0.946566
O O3 0.882191 0.674974 0.993183
O O4 0.000000 0.000000 0.958959
O O5 0.750000 0.053533 0.775086
O O6 0.612343 0.852730 0.805028
O O7 0.662797 0.730481 0.724804
O O8 0.624741 0.227143 0.731083
O O9 0.250000 0.491576 0.036748
O O10 0.151350 0.132272 0.071515
O O11 0.111247 0.631854 0.072657
O O12 0.893703 0.533104 0.650156
O O13 0.000000 0.500000 0.583131
O O14 0.000000 0.500000 0.838738
O O15 0.000000 0.000000 0.856854
O O16 0.750000 0.377829 0.682764
#
# Coordination Sequence:
#
# PCOD9364515 Si02
#       6
#     8   8   8   8   8   8
#     4  10  21  39  61  86 120 158 198 247 302 357
#     4  10  21  37  59  84 116 154 193 241 296 350
#     4  12  24  40  63  90 120 158 201 250 303 362
#     4  12  25  41  62  89 120 158 201 250 303 362
#     4  10  21  37  59  87 119 156 196 244 297 352
#     4  10  21  38  58  84 117 154 194 242 296 351
#
# _framework density 20.318252000000001
#
# number of rings (size 3 to 8) (size 9 to 14) (size 15 to 20)
#    0.000    1.333    0.000    6.500    0.000    4.000 
#    0.000    0.000    0.000   10.000    0.000    0.000 
#    0.000    0.000    0.000    0.000    0.000    0.000 
#
# Total GULP energy -133834.911329 kJ/mol
# GULP energy per Si atom -5576.454639 kJ/mol
# Density = 2.027201 g / cm^3
# Si number density = 20.318252 Si / 1000 Ang^3
#
#
#
# Elastic Constant Matrix: (Units=GPa)
#
#
# Indices 1 2 3 4 5 6 
#
# 1 59.6623 0.9986 38.8697 0.0000 0.0000 0.0000
# 2 0.9986 117.5642 19.2800 0.0000 0.0000 0.0000
# 3 38.8697 19.2800 134.7195 0.0000 0.0000 0.0000
# 4 0.0000 0.0000 0.0000 33.5434 0.0000 0.0000
# 5 0.0000 0.0000 0.0000 0.0000 -0.5514 0.0000
# 6 0.0000 0.0000 0.0000 0.0000 0.0000 11.8198
#
#
#
# Elastic Compliance Matrix: (Units=1/GPa)
#
#
# Indices 1 2 3 4 5 6 
#
# 1 0.020718 0.000824 -0.006096 0.000000 0.000000 0.000000
# 2 0.000824 0.008743 -0.001489 0.000000 0.000000 0.000000
# 3 -0.006096 -0.001489 0.009395 0.000000 0.000000 0.000000
# 4 0.000000 0.000000 0.000000 0.029812 0.000000 0.000000
# 5 0.000000 0.000000 0.000000 0.000000 -1.813568 0.000000
# 6 0.000000 0.000000 0.000000 0.000000 0.000000 0.084604
#
#
# Mechanical properties :
#
#
# Convention : Reuss Voigt Hill
#
# Bulk Modulus (GPa) = 39.47175 47.80472 43.63824
# Shear Modulus (GPa) = -3.05189 25.81553 11.38182
#
# Velocity S-wave (km/s) = -1.22691 3.56836 2.36937
# Velocity P-wave (km/s) = 4.17874 6.36841 5.38602
#
# Compressibility (1/GPa) = 0.02533457
#
# Stress axis : x y z
#
# Youngs Moduli (GPa) = 48.26605 114.37501 106.44363
#
# Poissons Ratio (x) = -0.09421 0.64884
# Poissons Ratio (y) = -0.03976 0.15848
# Poissons Ratio (z) = 0.29421 0.17029
#
# Static dielectric constant tensor:
#      x y z
#    x 1.748470 0.000000 0.000000 
#    y 0.000000 1.686540 0.000000 
#    z 0.000000 0.000000 1.871300 
# 
# From -- ./inp_files/25706.got.cif
#   From: 2010.05.17/outbox.cif.g08.bks.cpg/sg40_13_cif.got.tgz:25706.got - 2010.06.03 18:35:42.
