data_PCOD9364139
_publ_section_title
;
Structure prediction by ZEFSAII (Michael W. Deem and Ramdas Pophale) SiO2 
 PCOD9364139
Probable space group: A M A 2
;
_chemical_formula_sum "Si O2"
_cell_formula_units_Z 64
_cell_length_a 16.112723
_cell_length_b 11.994503
_cell_length_c 16.383783
_cell_angle_alpha 90.000000
_cell_angle_beta 90.000000
_cell_angle_gamma 90.000000
_cell_volume 3166.397148
_symmetry_space_group_name_H-M "A M A 2"
_symmetry_group_IT_number 40
_symmetry_cell_setting 'orthorhombic'
loop_
_space_group_symop_operation_xyz
x,y,z
-x,-y,z
1/2-x,y,z
1/2+x,-y,z
x,1/2+y,1/2+z
-x,1/2-y,1/2+z
1/2-x,1/2+y,1/2+z
1/2+x,1/2-y,1/2+z
loop_
_atom_site_type_symbol
_atom_site_label
_atom_site_fract_x
_atom_site_fract_y
_atom_site_fract_z
Si Si1 0.911543 0.936735 0.857450
Si Si2 0.156875 0.473028 0.188253
Si Si3 0.375920 0.153939 0.547892
Si Si4 0.650435 0.419941 0.538010
Si Si5 0.156109 0.868905 0.130514
Si Si6 0.071374 0.317490 0.071860
Si Si7 0.349060 0.295441 0.804199
Si Si8 0.401234 0.478672 0.924583
O O1 0.904533 0.802246 0.844373
O O2 0.865010 0.984573 0.777967
O O3 0.868979 0.953500 0.944939
O O4 0.000000 0.000000 0.859390
O O5 0.250000 0.428574 0.185944
O O6 0.151809 0.574544 0.122844
O O7 0.095488 0.377915 0.155816
O O8 0.340300 0.275958 0.560460
O O9 0.474023 0.171167 0.558442
O O10 0.362477 0.091653 0.461938
O O11 0.750000 0.406614 0.546021
O O12 0.618214 0.518937 0.595994
O O13 0.605233 0.305959 0.561815
O O14 0.250000 0.897650 0.155186
O O15 0.120604 0.812434 0.211426
O O16 0.109773 0.392741 0.999821
O O17 0.250000 0.264196 0.807584
O O18 0.361796 0.413564 0.849330
O O19 0.500000 0.500000 0.911227
#
# Coordination Sequence:
#
# PCOD9364139 Si02
#       8
#     8   8   8   8   8   8   8   8
#     4  12  25  39  63  94 126 163 216 268 319 378
#     4  11  21  38  63  93 124 162 210 264 320 375
#     4  10  20  37  62  90 127 159 209 262 318 369
#     4  11  24  43  64  91 128 171 215 259 321 393
#     4  10  23  40  61  88 126 166 207 261 321 383
#     4  10  21  37  63  91 127 162 209 264 315 373
#     4  11  22  42  66  91 125 169 217 260 318 391
#     4   9  20  37  60  92 124 159 207 268 309 367
#
# _framework density 20.212246
#
# number of rings (size 3 to 8) (size 9 to 14) (size 15 to 20)
#    0.000    1.500    2.500    3.750    1.750    2.500 
#    2.250    1.250    0.000    3.000    0.000    0.000 
#    0.000    0.000    0.000    0.000    0.000    0.000 
#
# Total GULP energy -178561.462447 kJ/mol
# GULP energy per Si atom -5580.045701 kJ/mol
# Density = 2.016624 g / cm^3
# Si number density = 20.212246 Si / 1000 Ang^3
#
#
#
# Elastic Constant Matrix: (Units=GPa)
#
#
# Indices 1 2 3 4 5 6 
#
# 1 55.9729 29.1584 0.6065 0.0000 0.0000 0.0000
# 2 29.1584 103.4777 24.4387 0.0000 0.0000 0.0000
# 3 0.6065 24.4387 51.6031 0.0000 0.0000 0.0000
# 4 0.0000 0.0000 0.0000 35.7816 0.0000 0.0000
# 5 0.0000 0.0000 0.0000 0.0000 21.0912 0.0000
# 6 0.0000 0.0000 0.0000 0.0000 0.0000 43.7626
#
#
#
# Elastic Compliance Matrix: (Units=1/GPa)
#
#
# Indices 1 2 3 4 5 6 
#
# 1 0.021324 -0.006699 0.002922 0.000000 0.000000 0.000000
# 2 -0.006699 0.012985 -0.006071 0.000000 0.000000 0.000000
# 3 0.002922 -0.006071 0.022220 0.000000 0.000000 0.000000
# 4 0.000000 0.000000 0.000000 0.027947 0.000000 0.000000
# 5 0.000000 0.000000 0.000000 0.000000 0.047413 0.000000
# 6 0.000000 0.000000 0.000000 0.000000 0.000000 0.022851
#
#
# Mechanical properties :
#
#
# Convention : Reuss Voigt Hill
#
# Bulk Modulus (GPa) = 27.14972 35.49564 31.32268
# Shear Modulus (GPa) = 26.77906 30.58375 28.68141
#
# Velocity S-wave (km/s) = 3.64386 3.89412 3.77106
# Velocity P-wave (km/s) = 5.58257 6.14967 5.87297
#
# Compressibility (1/GPa) = 0.03683280
#
# Stress axis : x y z
#
# Youngs Moduli (GPa) = 46.89602 77.00991 45.00549
#
# Poissons Ratio (x) = 0.51587 -0.13150
# Poissons Ratio (y) = 0.31415 0.27323
# Poissons Ratio (z) = -0.13702 0.46753
#
# Static dielectric constant tensor:
#      x y z
#    x 1.722480 0.000000 0.000000 
#    y 0.000000 1.739930 0.000000 
#    z 0.000000 0.000000 1.725170 
# 
# From -- ./inp_files/17880.got.cif
#   From: 2010.05.17/outbox.cif.g08.bks.cpg/sg40_9_cif.got.tgz:17880.got - 2010.06.03 18:35:42.
