data_PCOD9364500
_publ_section_title
;
Structure prediction by ZEFSAII (Michael W. Deem and Ramdas Pophale) SiO2 
 PCOD9364500
Probable space group: A M A 2
;
_chemical_formula_sum "Si O2"
_cell_formula_units_Z 40
_cell_length_a 8.768780
_cell_length_b 13.843639
_cell_length_c 18.908512
_cell_angle_alpha 90.000000
_cell_angle_beta 90.000000
_cell_angle_gamma 90.000000
_cell_volume 2295.338776
_symmetry_space_group_name_H-M "A M A 2"
_symmetry_group_IT_number 40
_symmetry_cell_setting 'orthorhombic'
loop_
_space_group_symop_operation_xyz
x,y,z
-x,-y,z
1/2-x,y,z
1/2+x,-y,z
x,1/2+y,1/2+z
-x,1/2-y,1/2+z
1/2-x,1/2+y,1/2+z
1/2+x,1/2-y,1/2+z
loop_
_atom_site_type_symbol
_atom_site_label
_atom_site_fract_x
_atom_site_fract_y
_atom_site_fract_z
Si Si1 0.432947 0.892448 0.481140
Si Si2 0.431992 0.604080 0.688659
Si Si3 0.933371 0.792438 0.619022
Si Si4 0.567588 0.896492 0.763947
Si Si5 0.066259 0.304966 0.828486
O O1 0.250000 0.896491 0.487693
O O2 0.501728 0.833643 0.546533
O O3 0.470541 0.841931 0.406438
O O4 0.500000 0.000000 0.481630
O O5 0.500000 0.500000 0.670360
O O6 0.250000 0.602681 0.685132
O O7 0.498789 0.688332 0.639036
O O8 0.485948 0.632181 0.767924
O O9 0.750000 0.786870 0.617012
O O10 0.976314 0.863144 0.684482
O O11 0.750000 0.903917 0.765766
O O12 0.523435 0.806752 0.814175
O O13 0.500000 0.000000 0.782009
O O14 0.250000 0.312768 0.817994
#
# Coordination Sequence:
#
# PCOD9364500 Si02
#       5
#     8   8   8   8   8
#     4  11  22  36  55  79 109 143 179 222 273 324
#     4  11  21  35  57  82 108 140 180 223 270 321
#     4  10  21  37  55  78 109 141 178 223 270 321
#     4   9  18  33  53  76 103 136 173 216 263 312
#     4   9  20  37  54  77 110 144 181 224 268 318
#
# _framework density 17.426621000000001
#
# number of rings (size 3 to 8) (size 9 to 14) (size 15 to 20)
#    0.000    2.000    0.000    5.400    0.000    8.800 
#    0.000    1.000    0.000    2.400    0.000    0.000 
#    0.000    0.000    0.000    0.000    0.000    0.000 
#
# Total GULP energy -111692.664387 kJ/mol
# GULP energy per Si atom -5584.633219 kJ/mol
# Density = 1.738696 g / cm^3
# Si number density = 17.426621 Si / 1000 Ang^3
#
#
#
# Elastic Constant Matrix: (Units=GPa)
#
#
# Indices 1 2 3 4 5 6 
#
# 1 67.4384 55.7781 60.5225 0.0000 0.0000 0.0000
# 2 55.7781 156.2179 84.2719 0.0000 0.0000 0.0000
# 3 60.5225 84.2719 139.9191 0.0000 0.0000 0.0000
# 4 0.0000 0.0000 0.0000 12.6537 0.0000 0.0000
# 5 0.0000 0.0000 0.0000 0.0000 40.3824 0.0000
# 6 0.0000 0.0000 0.0000 0.0000 0.0000 33.4419
#
#
#
# Elastic Compliance Matrix: (Units=1/GPa)
#
#
# Indices 1 2 3 4 5 6 
#
# 1 0.026513 -0.004858 -0.008542 0.000000 0.000000 0.000000
# 2 -0.004858 0.010372 -0.004146 0.000000 0.000000 0.000000
# 3 -0.008542 -0.004146 0.013339 0.000000 0.000000 0.000000
# 4 0.000000 0.000000 0.000000 0.079028 0.000000 0.000000
# 5 0.000000 0.000000 0.000000 0.000000 0.024763 0.000000
# 6 0.000000 0.000000 0.000000 0.000000 0.000000 0.029903
#
#
# Mechanical properties :
#
#
# Convention : Reuss Voigt Hill
#
# Bulk Modulus (GPa) = 66.08645 84.96894 75.52769
# Shear Modulus (GPa) = 22.31601 28.16246 25.23923
#
# Velocity S-wave (km/s) = 3.58239 4.02439 3.80980
# Velocity P-wave (km/s) = 7.42404 8.39394 7.92384
#
# Compressibility (1/GPa) = 0.01513170
#
# Stress axis : x y z
#
# Youngs Moduli (GPa) = 37.71767 96.40940 74.96957
#
# Poissons Ratio (x) = 0.46840 0.64039
# Poissons Ratio (y) = 0.18325 0.31080
# Poissons Ratio (z) = 0.32218 0.39968
#
# Static dielectric constant tensor:
#      x y z
#    x 1.584180 0.000000 0.000000 
#    y 0.000000 1.579840 0.000000 
#    z 0.000000 0.000000 1.571160 
# 
# From -- ./inp_files/14802.got.cif
#   From: 2010.05.17/outbox.cif.g08.bks.cpg/sg40_8_cif.got.tgz:14802.got - 2010.06.03 18:35:42.
