data_PCOD9364813
_publ_section_title
;
Structure prediction by ZEFSAII (Michael W. Deem and Ramdas Pophale) SiO2 
 PCOD9364813
Probable space group: A M A 2
;
_chemical_formula_sum "Si O2"
_cell_formula_units_Z 56
_cell_length_a 14.325269
_cell_length_b 12.384724
_cell_length_c 12.830983
_cell_angle_alpha 90.000000
_cell_angle_beta 90.000000
_cell_angle_gamma 90.000000
_cell_volume 2276.402469
_symmetry_space_group_name_H-M "A M A 2"
_symmetry_group_IT_number 40
_symmetry_cell_setting 'orthorhombic'
loop_
_space_group_symop_operation_xyz
x,y,z
-x,-y,z
1/2-x,y,z
1/2+x,-y,z
x,1/2+y,1/2+z
-x,1/2-y,1/2+z
1/2-x,1/2+y,1/2+z
1/2+x,1/2-y,1/2+z
loop_
_atom_site_type_symbol
_atom_site_label
_atom_site_fract_x
_atom_site_fract_y
_atom_site_fract_z
Si Si1 0.390818 0.521903 0.591900
Si Si2 0.502874 0.248277 0.312149
Si Si3 0.857475 0.049101 0.319240
Si Si4 0.639024 0.011227 0.538367
Si Si5 0.639603 0.938355 0.760863
Si Si6 0.641332 0.745536 0.118558
Si Si7 0.148316 0.358656 0.414895
O O1 0.500000 0.500000 0.588878
O O2 0.358248 0.513838 0.710986
O O3 0.366245 0.642352 0.555999
O O4 0.350563 0.428188 0.519959
O O5 0.567470 0.143766 0.309399
O O6 0.574270 0.348108 0.308297
O O7 0.432629 0.247370 0.212715
O O8 0.434102 0.272949 0.408320
O O9 0.750000 0.087754 0.336012
O O10 0.886033 0.980676 0.421046
O O11 0.750000 0.996785 0.546281
O O12 0.619959 0.138977 0.551973
O O13 0.604339 0.953536 0.642039
O O14 0.750000 0.909662 0.762928
O O15 0.632334 0.051127 0.824037
O O16 0.750000 0.734118 0.153535
O O17 0.250000 0.307969 0.400514
#
# Coordination Sequence:
#
# PCOD9364813 Si02
#       7
#     8   8   8   8   8   8   8
#     4  12  25  46  67 100 135 179 228 274 342 403
#     4  12  23  40  67 105 132 170 224 280 333 403
#     4  11  25  45  66  96 138 182 222 274 332 400
#     4   9  21  42  68  94 127 174 225 266 325 401
#     4  10  21  41  68 101 133 171 220 280 341 391
#     4  11  23  43  68  95 132 178 224 273 332 400
#     4  11  24  42  69  99 134 173 219 281 336 396
#
# _framework density 24.600221000000001
#
# number of rings (size 3 to 8) (size 9 to 14) (size 15 to 20)
#    0.000    1.143    2.857    3.429    4.000    0.000 
#    2.571    1.429    0.000    1.714    0.000    1.000 
#    0.000    0.000    0.000    0.000    0.000    0.000 
#
# Total GULP energy -156796.601965 kJ/mol
# GULP energy per Si atom -5599.878642 kJ/mol
# Density = 2.454423 g / cm^3
# Si number density = 24.600221 Si / 1000 Ang^3
#
#
#
# Elastic Constant Matrix: (Units=GPa)
#
#
# Indices 1 2 3 4 5 6 
#
# 1 159.6655 36.8742 17.6577 0.0000 0.0000 0.0000
# 2 36.8742 76.6100 6.9830 0.0000 0.0000 0.0000
# 3 17.6577 6.9830 125.9630 0.0000 0.0000 0.0000
# 4 0.0000 0.0000 0.0000 4.6190 0.0000 0.0000
# 5 0.0000 0.0000 0.0000 0.0000 -18.4368 0.0000
# 6 0.0000 0.0000 0.0000 0.0000 0.0000 -947.7771
#
#
#
# Elastic Compliance Matrix: (Units=1/GPa)
#
#
# Indices 1 2 3 4 5 6 
#
# 1 0.007128 -0.003357 -0.000813 0.000000 0.000000 0.000000
# 2 -0.003357 0.014700 -0.000344 0.000000 0.000000 0.000000
# 3 -0.000813 -0.000344 0.008072 0.000000 0.000000 0.000000
# 4 0.000000 0.000000 0.000000 0.216497 0.000000 0.000000
# 5 0.000000 0.000000 0.000000 0.000000 -0.054239 0.000000
# 6 0.000000 0.000000 0.000000 0.000000 0.000000 -0.001055
#
#
# Mechanical properties :
#
#
# Convention : Reuss Voigt Hill
#
# Bulk Modulus (GPa) = 47.91189 53.91869 50.91529
# Shear Modulus (GPa) = 24.14425 -172.27074 -74.06324
#
# Velocity S-wave (km/s) = 3.13623 -8.37736 -5.49291
# Velocity P-wave (km/s) = 5.71254 8.46215 4.41446
#
# Compressibility (1/GPa) = 0.02087165
#
# Stress axis : x y z
#
# Youngs Moduli (GPa) = 140.28628 68.02604 123.88622
#
# Poissons Ratio (x) = 0.22836 0.10074
# Poissons Ratio (y) = 0.47092 0.04266
# Poissons Ratio (z) = 0.11408 0.02343
#
# Static dielectric constant tensor:
#      x y z
#    x 1.942970 0.000000 0.000000 
#    y 0.000000 1.938300 0.000000 
#    z 0.000000 0.000000 2.012820 
# 
# From -- ./inp_files/12254.got.cif
#   From: 2010.05.17/outbox.cif.g08.bks.cpg/sg40_7_cif.got.tgz:12254.got - 2010.06.03 18:35:42.
