data_PCOD9364123
_publ_section_title
;
Structure prediction by ZEFSAII (Michael W. Deem and Ramdas Pophale) SiO2 
 PCOD9364123
Probable space group: A M A 2
;
_chemical_formula_sum "Si O2"
_cell_formula_units_Z 48
_cell_length_a 14.718228
_cell_length_b 19.472480
_cell_length_c 7.153570
_cell_angle_alpha 90.000000
_cell_angle_beta 90.000000
_cell_angle_gamma 90.000000
_cell_volume 2050.216026
_symmetry_space_group_name_H-M "A M A 2"
_symmetry_group_IT_number 40
_symmetry_cell_setting 'orthorhombic'
loop_
_space_group_symop_operation_xyz
x,y,z
-x,-y,z
1/2-x,y,z
1/2+x,-y,z
x,1/2+y,1/2+z
-x,1/2-y,1/2+z
1/2-x,1/2+y,1/2+z
1/2+x,1/2-y,1/2+z
loop_
_atom_site_type_symbol
_atom_site_label
_atom_site_fract_x
_atom_site_fract_y
_atom_site_fract_z
Si Si1 0.444540 0.822110 0.365630
Si Si2 0.250000 0.587477 0.156351
Si Si3 0.435201 0.305293 0.423340
Si Si4 0.750000 0.261017 0.987688
Si Si5 0.750000 0.660020 0.843746
Si Si6 0.750000 0.503106 0.841318
Si Si7 0.937946 0.937245 0.255893
Si Si8 0.543863 0.426618 0.311236
O O1 0.482572 0.748670 0.417787
O O2 0.426018 0.827424 0.140712
O O3 0.345584 0.834880 0.450199
O O4 0.527087 0.875459 0.384015
O O5 0.250000 0.657476 0.029771
O O6 0.351585 0.588432 0.249618
O O7 0.250000 0.511308 0.062433
O O8 0.340815 0.265848 0.384103
O O9 0.468945 0.365929 0.287324
O O10 0.750000 0.221143 0.189505
O O11 0.750000 0.580945 0.771507
O O12 0.836704 0.461483 0.777988
O O13 0.950306 0.927039 0.036550
O O14 0.000000 0.000000 0.315245
O O15 0.500000 0.500000 0.252358
#
# Coordination Sequence:
#
# PCOD9364123 Si02
#       8
#     8   4   8   4   4   4   8   8
#     4  10  20  38  61  89 122 159 209 259 321 383
#     4  12  25  44  61  96 143 177 205 282 352 397
#     4  10  21  39  64  91 120 166 211 266 324 392
#     4  10  22  40  67  92 127 168 220 273 333 392
#     4  10  20  37  61  90 118 161 209 257 320 384
#     4  12  23  37  63  94 124 160 214 268 327 379
#     4  10  20  37  62  90 118 160 216 268 307 386
#     4  10  23  41  64  90 129 175 218 263 331 401
#
# _framework density 23.412168000000001
#
# number of rings (size 3 to 8) (size 9 to 14) (size 15 to 20)
#    0.000    1.667    1.667    3.500    2.333    1.333 
#    6.000    2.500    0.000    0.000    0.000    0.000 
#    0.000    0.000    0.000    0.000    0.000    0.000 
#
# Total GULP energy -133841.161639 kJ/mol
# GULP energy per Si atom -5576.715068 kJ/mol
# Density = 2.335888 g / cm^3
# Si number density = 23.412168 Si / 1000 Ang^3
#
#
#
# Elastic Constant Matrix: (Units=GPa)
#
#
# Indices 1 2 3 4 5 6 
#
# 1 227.5700 67.8920 12.2730 0.0000 0.0000 0.0000
# 2 67.8920 127.4898 -3.4306 0.0000 0.0000 0.0000
# 3 12.2730 -3.4306 53.6587 0.0000 0.0000 0.0000
# 4 0.0000 0.0000 0.0000 16.4148 0.0000 0.0000
# 5 0.0000 0.0000 0.0000 0.0000-4473.6926 0.0000
# 6 0.0000 0.0000 0.0000 0.0000 0.0000 37.7468
#
#
#
# Elastic Compliance Matrix: (Units=1/GPa)
#
#
# Indices 1 2 3 4 5 6 
#
# 1 0.005328 -0.002875 -0.001402 0.000000 0.000000 0.000000
# 2 -0.002875 0.009409 0.001259 0.000000 0.000000 0.000000
# 3 -0.001402 0.001259 0.019038 0.000000 0.000000 0.000000
# 4 0.000000 0.000000 0.000000 0.060921 0.000000 0.000000
# 5 0.000000 0.000000 0.000000 0.000000 -0.000224 0.000000
# 6 0.000000 0.000000 0.000000 0.000000 0.000000 0.026492
#
#
# Mechanical properties :
#
#
# Convention : Reuss Voigt Hill
#
# Bulk Modulus (GPa) = 36.05230 62.46528 49.25879
# Shear Modulus (GPa) = 36.69854 -861.77394 -412.53770
#
# Velocity S-wave (km/s) = 3.96346 -19.20643 -13.28868
# Velocity P-wave (km/s) = 6.03140 21.56643 14.64126
#
# Compressibility (1/GPa) = 0.02773748
#
# Stress axis : x y z
#
# Youngs Moduli (GPa) = 187.70410 106.28618 52.52780
#
# Poissons Ratio (x) = 0.30555 0.07366
# Poissons Ratio (y) = 0.53961 -0.06614
# Poissons Ratio (z) = 0.26322 -0.13382
#
# Static dielectric constant tensor:
#      x y z
#    x 8.154290 0.000000 0.000000 
#    y 0.000000 1.101010 0.000000 
#    z 0.000000 0.000000 1.968890 
# 
# From -- ./inp_files/6545.got.cif
#   From: 2010.05.17/outbox.cif.g08.bks.cpg/sg40_4_cif.got.tgz:6545.got - 2010.06.03 18:35:42.
