data_PCOD9364672
_publ_section_title
;
Structure prediction by ZEFSAII (Michael W. Deem and Ramdas Pophale) SiO2 
 PCOD9364672
Probable space group: A M A 2
;
_chemical_formula_sum "Si O2"
_cell_formula_units_Z 48
_cell_length_a 8.825566
_cell_length_b 19.391787
_cell_length_c 15.219403
_cell_angle_alpha 90.000000
_cell_angle_beta 90.000000
_cell_angle_gamma 90.000000
_cell_volume 2604.701837
_symmetry_space_group_name_H-M "A M A 2"
_symmetry_group_IT_number 40
_symmetry_cell_setting 'orthorhombic'
loop_
_space_group_symop_operation_xyz
x,y,z
-x,-y,z
1/2-x,y,z
1/2+x,-y,z
x,1/2+y,1/2+z
-x,1/2-y,1/2+z
1/2-x,1/2+y,1/2+z
1/2+x,1/2-y,1/2+z
loop_
_atom_site_type_symbol
_atom_site_label
_atom_site_fract_x
_atom_site_fract_y
_atom_site_fract_z
Si Si1 0.069317 0.672513 0.425840
Si Si2 0.570158 0.334617 0.632193
Si Si3 0.069504 0.677326 0.927850
Si Si4 0.431158 0.323639 0.118254
Si Si5 0.431288 0.424316 0.279484
Si Si6 0.069836 0.923867 0.283608
O O1 0.250000 0.678579 0.414225
O O2 0.041503 0.655453 0.528463
O O3 0.993244 0.746322 0.406490
O O4 0.001734 0.615144 0.362406
O O5 0.750000 0.344551 0.648473
O O6 0.533755 0.254141 0.650301
O O7 0.477706 0.385081 0.694109
O O8 0.250000 0.676703 0.919724
O O9 0.997463 0.621975 0.862496
O O10 0.018617 0.663045 0.027940
O O11 0.250000 0.324534 0.099595
O O12 0.465466 0.378656 0.193250
O O13 0.500000 0.500000 0.271283
O O14 0.250000 0.427875 0.288694
O O15 0.250000 0.927664 0.291074
O O16 0.000000 0.000000 0.285253
#
# Coordination Sequence:
#
# PCOD9364672 Si02
#       6
#     8   8   8   8   8   8
#     4  10  21  39  63  88 116 151 194 241 286 338
#     4   9  19  38  62  87 114 146 189 241 290 338
#     4  11  22  38  62  89 117 150 191 238 288 343
#     4   9  20  39  61  85 115 152 194 239 285 337
#     4  11  23  38  58  85 120 158 195 238 288 343
#     4  12  25  40  59  84 117 155 194 237 288 345
#
# _framework density 18.428213
#
# number of rings (size 3 to 8) (size 9 to 14) (size 15 to 20)
#    0.000    1.667    0.000    6.000    0.000    7.333 
#    0.000    1.667    0.000    0.000    0.000    0.000 
#    0.000    0.000    0.000    0.000    0.000    0.000 
#
# Total GULP energy -134183.148528 kJ/mol
# GULP energy per Si atom -5590.964522 kJ/mol
# Density = 1.838627 g / cm^3
# Si number density = 18.428213 Si / 1000 Ang^3
#
#
#
# Elastic Constant Matrix: (Units=GPa)
#
#
# Indices 1 2 3 4 5 6 
#
# 1 193.4198 188.9253 145.8768 0.0000 0.0000 0.0000
# 2 188.9253 301.4792 195.4997 0.0000 0.0000 0.0000
# 3 145.8768 195.4997 160.0194 0.0000 0.0000 0.0000
# 4 0.0000 0.0000 0.0000 -32.3943 0.0000 0.0000
# 5 0.0000 0.0000 0.0000 0.0000 29.7129 0.0000
# 6 0.0000 0.0000 0.0000 0.0000 0.0000 51.6134
#
#
#
# Elastic Compliance Matrix: (Units=1/GPa)
#
#
# Indices 1 2 3 4 5 6 
#
# 1 0.017063 -0.002916 -0.011992 0.000000 0.000000 0.000000
# 2 -0.002916 0.016465 -0.017457 0.000000 0.000000 0.000000
# 3 -0.011992 -0.017457 0.038509 0.000000 0.000000 0.000000
# 4 0.000000 0.000000 0.000000 -0.030870 0.000000 0.000000
# 5 0.000000 0.000000 0.000000 0.000000 0.033655 0.000000
# 6 0.000000 0.000000 0.000000 0.000000 0.000000 0.019375
#
#
# Mechanical properties :
#
#
# Convention : Reuss Voigt Hill
#
# Bulk Modulus (GPa) = 136.86924 190.61355 163.74140
# Shear Modulus (GPa) = 30.98606 18.09418 24.54012
#
# Velocity S-wave (km/s) = 4.10499 3.13689 3.65315
# Velocity P-wave (km/s) = 9.84382 10.80650 10.33637
#
# Compressibility (1/GPa) = 0.00730624
#
# Stress axis : x y z
#
# Youngs Moduli (GPa) = 58.60639 60.73654 25.96794
#
# Poissons Ratio (x) = 0.17711 0.31141
# Poissons Ratio (y) = 0.17090 0.45332
# Poissons Ratio (z) = 0.70282 1.06026
#
# Static dielectric constant tensor:
#      x y z
#    x 1.625430 0.000000 0.000000 
#    y 0.000000 1.601230 0.000000 
#    z 0.000000 0.000000 1.619380 
# 
# From -- ./inp_files/15052.got.cif
#   From: 2010.05.17/outbox.cif.g08.bks.cpg/sg40_8_cif.got.tgz:15052.got - 2010.06.03 18:35:42.
