data_PCOD9364453
_publ_section_title
;
Structure prediction by ZEFSAII (Michael W. Deem and Ramdas Pophale) SiO2 
 PCOD9364453
Probable space group: A M A 2
;
_chemical_formula_sum "Si O2"
_cell_formula_units_Z 40
_cell_length_a 18.924165
_cell_length_b 18.368093
_cell_length_c 5.177665
_cell_angle_alpha 90.000000
_cell_angle_beta 90.000000
_cell_angle_gamma 90.000000
_cell_volume 1799.760613
_symmetry_space_group_name_H-M "A M A 2"
_symmetry_group_IT_number 40
_symmetry_cell_setting 'orthorhombic'
loop_
_space_group_symop_operation_xyz
x,y,z
-x,-y,z
1/2-x,y,z
1/2+x,-y,z
x,1/2+y,1/2+z
-x,1/2-y,1/2+z
1/2-x,1/2+y,1/2+z
1/2+x,1/2-y,1/2+z
loop_
_atom_site_type_symbol
_atom_site_label
_atom_site_fract_x
_atom_site_fract_y
_atom_site_fract_z
Si Si1 0.170343 0.367267 0.608600
Si Si2 0.528542 0.286505 0.403629
Si Si3 0.915837 0.987200 0.116877
Si Si4 0.670505 0.731223 0.113593
Si Si5 0.554295 0.432866 0.126280
O O1 0.250000 0.392426 0.541758
O O2 0.120023 0.435522 0.653026
O O3 0.150225 0.312208 0.375368
O O4 0.173816 0.325665 0.878716
O O5 0.515139 0.228457 0.169135
O O6 0.608172 0.282900 0.513955
O O7 0.517519 0.361890 0.247152
O O8 0.909105 0.929962 0.349016
O O9 0.890609 0.956492 0.844179
O O10 0.000000 0.000000 0.082825
O O11 0.750000 0.261808 0.649845
O O12 0.500000 0.500000 0.088208
#
# Coordination Sequence:
#
# PCOD9364453 Si02
#       5
#     8   8   8   8   8
#     4  10  21  39  64  95 125 174 226 273 330 414
#     4  12  26  40  66 100 133 177 231 280 335 412
#     4  10  21  35  61  86 128 165 208 264 337 381
#     4  10  23  41  64  92 133 173 222 281 342 397
#     4  10  23  39  58  93 131 169 207 266 344 384
#
# _framework density 22.225176999999999
#
# number of rings (size 3 to 8) (size 9 to 14) (size 15 to 20)
#    0.000    1.600    0.000    3.600   16.800    0.000 
#    0.000    2.000    0.000    0.000    0.000    0.000 
#    0.000    0.000    0.000    0.000    0.000    0.000 
#
# Total GULP energy -111502.653186 kJ/mol
# GULP energy per Si atom -5575.132659 kJ/mol
# Density = 2.217459 g / cm^3
# Si number density = 22.225177 Si / 1000 Ang^3
#
#
#
# Elastic Constant Matrix: (Units=GPa)
#
#
# Indices 1 2 3 4 5 6 
#
# 1 100.5882 28.3492 10.7039 0.0000 0.0000 0.0000
# 2 28.3492 70.1229 2.7153 0.0000 0.0000 0.0000
# 3 10.7039 2.7153 152.8189 0.0000 0.0000 0.0000
# 4 0.0000 0.0000 0.0000 40.0922 0.0000 0.0000
# 5 0.0000 0.0000 0.0000 0.0000 -12.6939 0.0000
# 6 0.0000 0.0000 0.0000 0.0000 0.0000 18.9323
#
#
#
# Elastic Compliance Matrix: (Units=1/GPa)
#
#
# Indices 1 2 3 4 5 6 
#
# 1 0.011297 -0.004539 -0.000711 0.000000 0.000000 0.000000
# 2 -0.004539 0.016095 0.000032 0.000000 0.000000 0.000000
# 3 -0.000711 0.000032 0.006593 0.000000 0.000000 0.000000
# 4 0.000000 0.000000 0.000000 0.024943 0.000000 0.000000
# 5 0.000000 0.000000 0.000000 0.000000 -0.078778 0.000000
# 6 0.000000 0.000000 0.000000 0.000000 0.000000 0.052820
#
#
# Mechanical properties :
#
#
# Convention : Reuss Voigt Hill
#
# Bulk Modulus (GPa) = 42.46644 45.22961 43.84803
# Shear Modulus (GPa) = 97.55382 28.05022 62.80202
#
# Velocity S-wave (km/s) = 6.63240 3.55645 5.32151
# Velocity P-wave (km/s) = 8.82045 6.10403 7.58484
#
# Compressibility (1/GPa) = 0.02354801
#
# Stress axis : x y z
#
# Youngs Moduli (GPa) = 88.52298 62.13250 151.67838
#
# Poissons Ratio (x) = 0.28205 0.10778
# Poissons Ratio (y) = 0.40184 -0.00485
# Poissons Ratio (z) = 0.06290 -0.00199
#
# Static dielectric constant tensor:
#      x y z
#    x 1.846660 0.000000 0.000000 
#    y 0.000000 1.813600 0.000000 
#    z 0.000000 0.000000 1.919230 
# 
# From -- ./inp_files/1731.got.cif
#   From: 2010.05.17/outbox.cif.g08.bks.cpg/sg40_1_cif.got.tgz:1731.got - 2010.06.03 18:35:42.
