data_PCOD9364955
_publ_section_title
;
Structure prediction by ZEFSAII (Michael W. Deem and Ramdas Pophale) SiO2 
 PCOD9364955
Probable space group: A M A 2
;
_chemical_formula_sum "Si O2"
_cell_formula_units_Z 64
_cell_length_a 30.092512
_cell_length_b 16.500791
_cell_length_c 4.953456
_cell_angle_alpha 90.000000
_cell_angle_beta 90.000000
_cell_angle_gamma 90.000000
_cell_volume 2459.639821
_symmetry_space_group_name_H-M "A M A 2"
_symmetry_group_IT_number 40
_symmetry_cell_setting 'orthorhombic'
loop_
_space_group_symop_operation_xyz
x,y,z
-x,-y,z
1/2-x,y,z
1/2+x,-y,z
x,1/2+y,1/2+z
-x,1/2-y,1/2+z
1/2-x,1/2+y,1/2+z
1/2+x,1/2-y,1/2+z
loop_
_atom_site_type_symbol
_atom_site_label
_atom_site_fract_x
_atom_site_fract_y
_atom_site_fract_z
Si Si1 0.199248 0.629598 0.285450
Si Si2 0.496499 0.123165 0.756259
Si Si3 0.563513 0.505859 0.385135
Si Si4 0.801145 0.233774 0.808913
Si Si5 0.434923 0.265680 0.978115
Si Si6 0.649994 0.503193 0.095671
Si Si7 0.115071 0.125700 0.208631
Si Si8 0.845838 0.162113 0.284844
O O1 0.250000 0.644986 0.393317
O O2 0.195177 0.686626 0.013041
O O3 0.194773 0.533771 0.215206
O O4 0.158149 0.633073 0.506607
O O5 0.463267 0.051222 0.671669
O O6 0.532978 0.162269 0.564215
O O7 0.528988 0.075538 0.967332
O O8 0.466343 0.198427 0.843363
O O9 0.609950 0.538581 0.274256
O O10 0.579581 0.438339 0.592947
O O11 0.750000 0.214358 0.809682
O O12 0.828230 0.170938 0.986575
O O13 0.817352 0.215489 0.501975
O O14 0.409062 0.212866 0.210719
O O15 0.395377 0.302808 0.804239
O O16 0.657582 0.569559 0.871745
O O17 0.629588 0.419099 0.978292
#
# Coordination Sequence:
#
# PCOD9364955 Si02
#       8
#     8   8   8   8   8   8   8   8
#     4  10  23  43  68  99 138 185 237 296 364 444
#     4  10  22  40  60  92 134 177 239 292 352 432
#     4   9  21  43  60  87 135 180 228 291 359 425
#     4  11  26  49  76 106 146 192 245 303 368 444
#     4  11  23  40  66 101 136 188 243 305 362 435
#     4  11  24  41  68  97 136 189 234 297 369 438
#     4  10  22  42  65  96 134 184 236 291 364 437
#     4  12  26  46  74 108 147 191 242 306 375 436
#
# _framework density 26.02007
#
# number of rings (size 3 to 8) (size 9 to 14) (size 15 to 20)
#    0.000    1.500    2.500    1.125    5.250    3.500 
#    0.000    1.250    0.000    0.000    0.000    0.000 
#    0.000    0.000    0.000    0.000    0.000    0.000 
#
# Total GULP energy -178544.577333 kJ/mol
# GULP energy per Si atom -5579.518042 kJ/mol
# Density = 2.596085 g / cm^3
# Si number density = 26.020070 Si / 1000 Ang^3
#
#
#
# Elastic Constant Matrix: (Units=GPa)
#
#
# Indices 1 2 3 4 5 6 
#
# 1 172.2940 44.9025 30.3012 0.0000 0.0000 0.0000
# 2 44.9025 64.2148 5.5536 0.0000 0.0000 0.0000
# 3 30.3012 5.5536 73.0032 0.0000 0.0000 0.0000
# 4 0.0000 0.0000 0.0000 20.1845 0.0000 0.0000
# 5 0.0000 0.0000 0.0000 0.0000 16.2604 0.0000
# 6 0.0000 0.0000 0.0000 0.0000 0.0000 39.1293
#
#
#
# Elastic Compliance Matrix: (Units=1/GPa)
#
#
# Indices 1 2 3 4 5 6 
#
# 1 0.007618 -0.005087 -0.002775 0.000000 0.000000 0.000000
# 2 -0.005087 0.019073 0.000660 0.000000 0.000000 0.000000
# 3 -0.002775 0.000660 0.014800 0.000000 0.000000 0.000000
# 4 0.000000 0.000000 0.000000 0.049543 0.000000 0.000000
# 5 0.000000 0.000000 0.000000 0.000000 0.061499 0.000000
# 6 0.000000 0.000000 0.000000 0.000000 0.000000 0.025556
#
#
# Mechanical properties :
#
#
# Convention : Reuss Voigt Hill
#
# Bulk Modulus (GPa) = 36.91756 52.33629 44.62693
# Shear Modulus (GPa) = 24.81148 30.36516 27.58832
#
# Velocity S-wave (km/s) = 3.09131 3.41983 3.25971
# Velocity P-wave (km/s) = 5.19235 5.97922 5.59963
#
# Compressibility (1/GPa) = 0.02708738
#
# Stress axis : x y z
#
# Youngs Moduli (GPa) = 131.27255 52.43142 67.56953
#
# Poissons Ratio (x) = 0.26671 0.18750
# Poissons Ratio (y) = 0.66775 -0.04462
# Poissons Ratio (z) = 0.36427 -0.03463
#
# Static dielectric constant tensor:
#      x y z
#    x 2.106730 0.000000 0.000000 
#    y 0.000000 2.137020 0.000000 
#    z 0.000000 0.000000 2.142980 
# 
# From -- ./inp_files/3488.got.cif
#   From: 2010.05.17/outbox.cif.g08.bks.cpg/sg40_2_cif.got.tgz:3488.got - 2010.06.03 18:35:42.
