data_PCOD9364533
_publ_section_title
;
Structure prediction by ZEFSAII (Michael W. Deem and Ramdas Pophale) SiO2 
 PCOD9364533
Probable space group: A M A 2
;
_chemical_formula_sum "Si O2"
_cell_formula_units_Z 44
_cell_length_a 15.290260
_cell_length_b 5.265097
_cell_length_c 26.201994
_cell_angle_alpha 90.000000
_cell_angle_beta 90.000000
_cell_angle_gamma 90.000000
_cell_volume 2109.383720
_symmetry_space_group_name_H-M "A M A 2"
_symmetry_group_IT_number 40
_symmetry_cell_setting 'orthorhombic'
loop_
_space_group_symop_operation_xyz
x,y,z
-x,-y,z
1/2-x,y,z
1/2+x,-y,z
x,1/2+y,1/2+z
-x,1/2-y,1/2+z
1/2-x,1/2+y,1/2+z
1/2+x,1/2-y,1/2+z
loop_
_atom_site_type_symbol
_atom_site_label
_atom_site_fract_x
_atom_site_fract_y
_atom_site_fract_z
Si Si1 0.000000 0.000000 0.964140
Si Si2 0.852931 0.142375 0.659364
Si Si3 0.946619 0.256977 0.562590
Si Si4 0.399316 0.920528 0.331742
Si Si5 0.643562 0.140387 0.214543
Si Si6 0.348478 0.904805 0.890538
O O1 0.072298 0.857681 0.930290
O O2 0.942358 0.825205 0.002623
O O3 0.750000 0.132215 0.668886
O O4 0.866622 0.207225 0.599964
O O5 0.889623 0.375001 0.692061
O O6 0.888483 0.875104 0.679970
O O7 0.000000 0.500000 0.583177
O O8 0.000000 0.000000 0.566396
O O9 0.381860 0.843632 0.273449
O O10 0.371909 0.676710 0.365262
O O11 0.500000 0.000000 0.337446
O O12 0.349978 0.175379 0.349809
O O13 0.750000 0.137169 0.212249
O O14 0.250000 0.916891 0.912457
#
# Coordination Sequence:
#
# PCOD9364533 Si02
#       6
#     4   8   8   8   8   8
#     4  10  26  44  68  94 132 166 232 282 334 398
#     4  10  21  39  62  90 128 168 213 264 319 393
#     4  10  23  40  63  89 123 167 205 279 318 382
#     4  12  24  43  66 100 135 174 224 281 329 411
#     4  10  21  37  61  94 131 169 212 261 323 395
#     4  12  25  44  70  96 136 178 222 281 346 402
#
# _framework density 20.859172999999998
#
# number of rings (size 3 to 8) (size 9 to 14) (size 15 to 20)
#    0.545    0.727    1.818    3.818    2.545    4.364 
#    0.000    0.909    0.000    0.000    0.000    0.000 
#    0.000    0.000    0.000    0.000    0.000    0.000 
#
# Total GULP energy -122696.515470 kJ/mol
# GULP energy per Si atom -5577.114340 kJ/mol
# Density = 2.081170 g / cm^3
# Si number density = 20.859173 Si / 1000 Ang^3
#
#
#
# Elastic Constant Matrix: (Units=GPa)
#
#
# Indices 1 2 3 4 5 6 
#
# 1 58.2095 14.9524 19.5467 0.0000 0.0000 0.0000
# 2 14.9524 138.8964 23.8381 0.0000 0.0000 0.0000
# 3 19.5467 23.8381 92.7033 0.0000 0.0000 0.0000
# 4 0.0000 0.0000 0.0000 49.0905 0.0000 0.0000
# 5 0.0000 0.0000 0.0000 0.0000 116.1177 0.0000
# 6 0.0000 0.0000 0.0000 0.0000 0.0000 0.5549
#
#
#
# Elastic Compliance Matrix: (Units=1/GPa)
#
#
# Indices 1 2 3 4 5 6 
#
# 1 0.018746 -0.001401 -0.003592 0.000000 0.000000 0.000000
# 2 -0.001401 0.007637 -0.001668 0.000000 0.000000 0.000000
# 3 -0.003592 -0.001668 0.011973 0.000000 0.000000 0.000000
# 4 0.000000 0.000000 0.000000 0.020371 0.000000 0.000000
# 5 0.000000 0.000000 0.000000 0.000000 0.008612 0.000000
# 6 0.000000 0.000000 0.000000 0.000000 0.000000 1.802228
#
#
# Mechanical properties :
#
#
# Convention : Reuss Voigt Hill
#
# Bulk Modulus (GPa) = 39.94874 45.16485 42.55679
# Shear Modulus (GPa) = 2.64378 48.58410 25.61394
#
# Velocity S-wave (km/s) = 1.12703 4.83136 3.50801
# Velocity P-wave (km/s) = 4.57021 7.26787 6.07078
#
# Compressibility (1/GPa) = 0.02503208
#
# Stress axis : x y z
#
# Youngs Moduli (GPa) = 53.34592 130.94498 83.51782
#
# Poissons Ratio (x) = 0.18352 0.30001
# Poissons Ratio (y) = 0.07476 0.13933
# Poissons Ratio (z) = 0.19163 0.21845
#
# Static dielectric constant tensor:
#      x y z
#    x 1.542740 0.000000 0.000000 
#    y 0.000000 1.748100 0.000000 
#    z 0.000000 0.000000 1.764620 
# 
# From -- ./inp_files/25680.got.cif
#   From: 2010.05.17/outbox.cif.g08.bks.cpg/sg40_13_cif.got.tgz:25680.got - 2010.06.03 18:35:42.
