data_PCOD9364318
_publ_section_title
;
Structure prediction by ZEFSAII (Michael W. Deem and Ramdas Pophale) SiO2 
 PCOD9364318
Probable space group: A M A 2
;
_chemical_formula_sum "Si O2"
_cell_formula_units_Z 36
_cell_length_a 15.959063
_cell_length_b 16.170501
_cell_length_c 7.361220
_cell_angle_alpha 90.000000
_cell_angle_beta 90.000000
_cell_angle_gamma 90.000000
_cell_volume 1899.680926
_symmetry_space_group_name_H-M "A M A 2"
_symmetry_group_IT_number 40
_symmetry_cell_setting 'orthorhombic'
loop_
_space_group_symop_operation_xyz
x,y,z
-x,-y,z
1/2-x,y,z
1/2+x,-y,z
x,1/2+y,1/2+z
-x,1/2-y,1/2+z
1/2-x,1/2+y,1/2+z
1/2+x,1/2-y,1/2+z
loop_
_atom_site_type_symbol
_atom_site_label
_atom_site_fract_x
_atom_site_fract_y
_atom_site_fract_z
Si Si1 0.082816 0.444498 0.857720
Si Si2 0.918001 0.708609 0.583908
Si Si3 0.250000 0.719238 0.646026
Si Si4 0.250000 0.704693 0.061353
Si Si5 0.750000 0.448551 0.826032
Si Si6 0.914900 0.187559 0.653905
O O1 0.076149 0.371044 0.711178
O O2 0.166325 0.497510 0.822336
O O3 0.000000 0.500000 0.847980
O O4 0.087866 0.399906 0.053219
O O5 0.836163 0.761905 0.641732
O O6 0.911917 0.683029 0.372222
O O7 0.999851 0.765180 0.603910
O O8 0.250000 0.619716 0.662899
O O9 0.164053 0.758990 0.579295
O O10 0.250000 0.743169 0.859102
O O11 0.250000 0.607770 0.010343
#
# Coordination Sequence:
#
# PCOD9364318 Si02
#       6
#     8   8   4   4   4   8
#     4  12  24  38  64  92 128 160 198 264 314 346
#     4  11  21  40  64  89 120 165 209 246 299 376
#     4   8  19  38  63  85 116 162 205 243 296 375
#     4   8  19  38  63  85 116 162 205 243 296 375
#     4  10  20  40  62  90 124 158 198 266 316 342
#     4  11  21  40  64  89 120 165 209 246 299 376
#
# _framework density 18.950551999999998
#
# number of rings (size 3 to 8) (size 9 to 14) (size 15 to 20)
#    0.667    0.889    2.222    4.000    0.000    0.889 
#    0.000    0.000    4.889    0.000    0.000    0.000 
#    0.000    0.000    0.000    0.000    0.000    0.000 
#
# Total GULP energy -100346.084353 kJ/mol
# GULP energy per Si atom -5574.782464 kJ/mol
# Density = 1.890742 g / cm^3
# Si number density = 18.950552 Si / 1000 Ang^3
#
#
#
# Elastic Constant Matrix: (Units=GPa)
#
#
# Indices 1 2 3 4 5 6 
#
# 1 171.4634 45.7312 -19.9216 0.0000 0.0000 0.0000
# 2 45.7312 70.1507 -21.1348 0.0000 0.0000 0.0000
# 3 -19.9216 -21.1348 48.9469 0.0000 0.0000 0.0000
# 4 0.0000 0.0000 0.0000 47.1628 0.0000 0.0000
# 5 0.0000 0.0000 0.0000 0.0000 19.7725 0.0000
# 6 0.0000 0.0000 0.0000 0.0000 0.0000 49.6856
#
#
#
# Elastic Compliance Matrix: (Units=1/GPa)
#
#
# Indices 1 2 3 4 5 6 
#
# 1 0.007104 -0.004322 0.001025 0.000000 0.000000 0.000000
# 2 -0.004322 0.019017 0.006452 0.000000 0.000000 0.000000
# 3 0.001025 0.006452 0.023633 0.000000 0.000000 0.000000
# 4 0.000000 0.000000 0.000000 0.021203 0.000000 0.000000
# 5 0.000000 0.000000 0.000000 0.000000 0.050575 0.000000
# 6 0.000000 0.000000 0.000000 0.000000 0.000000 0.020127
#
#
# Mechanical properties :
#
#
# Convention : Reuss Voigt Hill
#
# Bulk Modulus (GPa) = 17.83689 33.32336 25.58013
# Shear Modulus (GPa) = 32.45966 42.38326 37.42146
#
# Velocity S-wave (km/s) = 4.14316 4.73432 4.44857
# Velocity P-wave (km/s) = 5.68511 6.89257 6.31775
#
# Compressibility (1/GPa) = 0.05606357
#
# Stress axis : x y z
#
# Youngs Moduli (GPa) = 140.76479 52.58571 42.31294
#
# Poissons Ratio (x) = 0.22729 -0.04337
# Poissons Ratio (y) = 0.60843 -0.27300
# Poissons Ratio (z) = -0.14429 -0.33928
#
# Static dielectric constant tensor:
#      x y z
#    x 1.653500 0.000000 0.000000 
#    y 0.000000 1.624980 0.000000 
#    z 0.000000 0.000000 1.683040 
# 
# From -- ./inp_files/6093.got.cif
#   From: 2010.05.17/outbox.cif.g08.bks.cpg/sg40_4_cif.got.tgz:6093.got - 2010.06.03 18:35:42.
