data_PCOD9364560
_publ_section_title
;
Structure prediction by ZEFSAII (Michael W. Deem and Ramdas Pophale) SiO2 
 PCOD9364560
Probable space group: A M A 2
;
_chemical_formula_sum "Si O2"
_cell_formula_units_Z 64
_cell_length_a 8.753644
_cell_length_b 11.555291
_cell_length_c 27.821522
_cell_angle_alpha 90.000000
_cell_angle_beta 90.000000
_cell_angle_gamma 90.000000
_cell_volume 2814.172093
_symmetry_space_group_name_H-M "A M A 2"
_symmetry_group_IT_number 40
_symmetry_cell_setting 'orthorhombic'
loop_
_space_group_symop_operation_xyz
x,y,z
-x,-y,z
1/2-x,y,z
1/2+x,-y,z
x,1/2+y,1/2+z
-x,1/2-y,1/2+z
1/2-x,1/2+y,1/2+z
1/2+x,1/2-y,1/2+z
loop_
_atom_site_type_symbol
_atom_site_label
_atom_site_fract_x
_atom_site_fract_y
_atom_site_fract_z
Si Si1 0.925060 0.375539 0.450890
Si Si2 0.419865 0.642052 0.702483
Si Si3 0.071793 0.383404 0.604080
Si Si4 0.430962 0.846505 0.575477
Si Si5 0.073492 0.620488 0.814592
Si Si6 0.422154 0.900127 0.681409
Si Si7 0.924807 0.375239 0.334846
Si Si8 0.929440 0.878198 0.474994
O O1 0.750000 0.371231 0.468706
O O2 0.922806 0.380016 0.392912
O O3 0.000000 0.500000 0.466227
O O4 0.002405 0.249476 0.461862
O O5 0.250000 0.613181 0.682593
O O6 0.545291 0.615058 0.662236
O O7 0.429500 0.602727 0.756789
O O8 0.426962 0.779744 0.706944
O O9 0.250000 0.365442 0.593538
O O10 0.000000 0.500000 0.585407
O O11 0.961649 0.288651 0.581299
O O12 0.250000 0.870615 0.568520
O O13 0.489432 0.885578 0.628041
O O14 0.534929 0.885602 0.531910
O O15 0.250000 0.626480 0.830349
O O16 0.000000 0.500000 0.834478
O O17 0.999460 0.747988 0.823705
O O18 0.250000 0.934494 0.673170
O O19 0.500000 0.000000 0.710198
O O20 0.750000 0.372771 0.316783
O O21 0.000000 0.500000 0.320470
O O22 0.750000 0.877639 0.465073
O O23 0.000000 0.000000 0.454878
#
# Coordination Sequence:
#
# PCOD9364560 Si02
#       8
#     8   8   8   8   8   8   8   8
#     4  10  22  43  69  96 125 160 200 246 300 362
#     4   9  20  37  53  76 111 152 196 245 299 355
#     4  11  21  34  54  79 108 148 197 249 303 359
#     4  10  21  38  56  78 112 152 196 247 298 353
#     4  11  23  39  61  89 124 163 206 254 307 365
#     4   9  18  32  51  74 104 143 189 239 290 343
#     4  10  22  42  68  95 125 160 200 245 300 363
#     4  12  25  41  63  93 127 164 205 251 303 362
#
# _framework density 22.742034
#
# number of rings (size 3 to 8) (size 9 to 14) (size 15 to 20)
#    0.000    1.750    0.000    5.250    0.000    8.500 
#    0.000    3.750    0.000    0.000    0.000    0.000 
#    0.000    0.000    0.000    0.000    0.000    0.000 
#
# Total GULP energy -178324.157668 kJ/mol
# GULP energy per Si atom -5572.629927 kJ/mol
# Density = 2.269027 g / cm^3
# Si number density = 22.742034 Si / 1000 Ang^3
#
#
#
# Elastic Constant Matrix: (Units=GPa)
#
#
# Indices 1 2 3 4 5 6 
#
# 1 132.4403 103.3553 8.9708 0.0000 0.0000 0.0000
# 2 103.3553 221.2608 2.9181 0.0000 0.0000 0.0000
# 3 8.9708 2.9181 49.4756 0.0000 0.0000 0.0000
# 4 0.0000 0.0000 0.0000 626.2278 0.0000 0.0000
# 5 0.0000 0.0000 0.0000 0.0000 30.6812 0.0000
# 6 0.0000 0.0000 0.0000 0.0000 0.0000 46.5612
#
#
#
# Elastic Compliance Matrix: (Units=1/GPa)
#
#
# Indices 1 2 3 4 5 6 
#
# 1 0.012050 -0.005604 -0.001854 0.000000 0.000000 0.000000
# 2 -0.005604 0.007130 0.000596 0.000000 0.000000 0.000000
# 3 -0.001854 0.000596 0.020513 0.000000 0.000000 0.000000
# 4 0.000000 0.000000 0.000000 0.001597 0.000000 0.000000
# 5 0.000000 0.000000 0.000000 0.000000 0.032593 0.000000
# 6 0.000000 0.000000 0.000000 0.000000 0.000000 0.021477
#
#
# Mechanical properties :
#
#
# Convention : Reuss Voigt Hill
#
# Bulk Modulus (GPa) = 38.51101 70.40724 54.45912
# Shear Modulus (GPa) = 42.46625 159.88954 101.17789
#
# Velocity S-wave (km/s) = 4.32592 8.39395 6.67727
# Velocity P-wave (km/s) = 6.47472 11.17903 9.13490
#
# Compressibility (1/GPa) = 0.02596660
#
# Stress axis : x y z
#
# Youngs Moduli (GPa) = 82.99032 140.26218 48.74939
#
# Poissons Ratio (x) = 0.78605 0.09039
# Poissons Ratio (y) = 0.46509 -0.02904
# Poissons Ratio (z) = 0.15389 -0.08354
#
# Static dielectric constant tensor:
#      x y z
#    x 1.815230 0.000000 0.000000 
#    y 0.000000 2.362790 0.000000 
#    z 0.000000 0.000000 1.881120 
# 
# From -- ./inp_files/26385.got.cif
#   From: 2010.05.17/outbox.cif.g08.bks.cpg/sg40_14_cif.got.tgz:26385.got - 2010.06.03 18:35:42.
