data_PCOD9364630
_publ_section_title
;
Structure prediction by ZEFSAII (Michael W. Deem and Ramdas Pophale) SiO2 
 PCOD9364630
Probable space group: A M A 2
;
_chemical_formula_sum "Si O2"
_cell_formula_units_Z 56
_cell_length_a 21.923290
_cell_length_b 11.371011
_cell_length_c 10.223197
_cell_angle_alpha 90.000000
_cell_angle_beta 90.000000
_cell_angle_gamma 90.000000
_cell_volume 2548.540491
_symmetry_space_group_name_H-M "A M A 2"
_symmetry_group_IT_number 40
_symmetry_cell_setting 'orthorhombic'
loop_
_space_group_symop_operation_xyz
x,y,z
-x,-y,z
1/2-x,y,z
1/2+x,-y,z
x,1/2+y,1/2+z
-x,1/2-y,1/2+z
1/2-x,1/2+y,1/2+z
1/2+x,1/2-y,1/2+z
loop_
_atom_site_type_symbol
_atom_site_label
_atom_site_fract_x
_atom_site_fract_y
_atom_site_fract_z
Si Si1 0.178587 0.941301 0.091280
Si Si2 0.120140 0.760785 0.501280
Si Si3 0.109334 0.228110 0.708044
Si Si4 0.819369 0.825271 0.239326
Si Si5 0.929082 0.512200 0.094283
Si Si6 0.096467 0.363020 0.368732
Si Si7 0.498144 0.360501 0.594402
O O1 0.250000 0.949776 0.063267
O O2 0.158925 0.816487 0.149690
O O3 0.163723 0.041875 0.197921
O O4 0.139114 0.946677 0.958706
O O5 0.125360 0.707688 0.358211
O O6 0.176210 0.740339 0.598369
O O7 0.063608 0.696996 0.574865
O O8 0.104397 0.899057 0.496339
O O9 0.101637 0.113013 0.619723
O O10 0.043802 0.294742 0.700045
O O11 0.750000 0.822282 0.289135
O O12 0.864875 0.753145 0.332181
O O13 0.924225 0.575128 0.236112
O O14 0.000000 0.500000 0.058561
O O15 0.038241 0.339664 0.458832
O O16 0.500000 0.500000 0.618501
#
# Coordination Sequence:
#
# PCOD9364630 Si02
#       7
#     8   8   8   8   8   8   8
#     4  10  22  41  61  87 121 159 211 266 314 379
#     4  11  23  38  61  89 124 164 205 258 320 382
#     4  11  23  38  57  90 123 163 205 251 326 384
#     4  10  22  41  64  89 118 163 216 261 314 382
#     4  11  21  39  58  88 128 161 200 258 315 385
#     4  10  21  38  66  88 119 163 210 262 320 378
#     4  11  22  38  60  89 124 161 207 261 318 388
#
# _framework density 21.973362000000002
#
# number of rings (size 3 to 8) (size 9 to 14) (size 15 to 20)
#    0.000    1.429    1.429    5.143    2.000    3.429 
#    0.000    3.571    0.000    0.000    0.000    0.000 
#    0.000    0.000    0.000    0.000    0.000    0.000 
#
# Total GULP energy -156551.558887 kJ/mol
# GULP energy per Si atom -5591.127103 kJ/mol
# Density = 2.192335 g / cm^3
# Si number density = 21.973362 Si / 1000 Ang^3
#
#
#
# Elastic Constant Matrix: (Units=GPa)
#
#
# Indices 1 2 3 4 5 6 
#
# 1 61.6223 18.4355 -4.4911 0.0000 0.0000 0.0000
# 2 18.4355 147.3559 2.6638 0.0000 0.0000 0.0000
# 3 -4.4911 2.6638 39.2961 0.0000 0.0000 0.0000
# 4 0.0000 0.0000 0.0000 9.2940 0.0000 0.0000
# 5 0.0000 0.0000 0.0000 0.0000 21.1468 0.0000
# 6 0.0000 0.0000 0.0000 0.0000 0.0000 18.2761
#
#
#
# Elastic Compliance Matrix: (Units=1/GPa)
#
#
# Indices 1 2 3 4 5 6 
#
# 1 0.017029 -0.002168 0.002093 0.000000 0.000000 0.000000
# 2 -0.002168 0.007071 -0.000727 0.000000 0.000000 0.000000
# 3 0.002093 -0.000727 0.025736 0.000000 0.000000 0.000000
# 4 0.000000 0.000000 0.000000 0.107596 0.000000 0.000000
# 5 0.000000 0.000000 0.000000 0.000000 0.047289 0.000000
# 6 0.000000 0.000000 0.000000 0.000000 0.000000 0.054716
#
#
# Mechanical properties :
#
#
# Convention : Reuss Voigt Hill
#
# Bulk Modulus (GPa) = 20.73323 31.27674 26.00499
# Shear Modulus (GPa) = 18.04279 25.18777 21.61528
#
# Velocity S-wave (km/s) = 2.86863 3.38936 3.13981
# Velocity P-wave (km/s) = 4.51975 5.43892 5.00050
#
# Compressibility (1/GPa) = 0.04823174
#
# Stress axis : x y z
#
# Youngs Moduli (GPa) = 58.72285 141.42845 38.85553
#
# Poissons Ratio (x) = 0.30666 -0.08133
# Poissons Ratio (y) = 0.12733 0.02825
# Poissons Ratio (z) = -0.12292 0.10284
#
# Static dielectric constant tensor:
#      x y z
#    x 1.780590 0.000000 0.000000 
#    y 0.000000 1.853510 0.000000 
#    z 0.000000 0.000000 1.809290 
# 
# From -- ./inp_files/13579.got.cif
#   From: 2010.05.17/outbox.cif.g08.bks.cpg/sg40_7_cif.got.tgz:13579.got - 2010.06.03 18:35:42.
