data_PCOD9364511
_publ_section_title
;
Structure prediction by ZEFSAII (Michael W. Deem and Ramdas Pophale) SiO2 
 PCOD9364511
Probable space group: A M A 2
;
_chemical_formula_sum "Si O2"
_cell_formula_units_Z 56
_cell_length_a 8.834490
_cell_length_b 20.904646
_cell_length_c 15.527177
_cell_angle_alpha 90.000000
_cell_angle_beta 90.000000
_cell_angle_gamma 90.000000
_cell_volume 2867.588333
_symmetry_space_group_name_H-M "A M A 2"
_symmetry_group_IT_number 40
_symmetry_cell_setting 'orthorhombic'
loop_
_space_group_symop_operation_xyz
x,y,z
-x,-y,z
1/2-x,y,z
1/2+x,-y,z
x,1/2+y,1/2+z
-x,1/2-y,1/2+z
1/2-x,1/2+y,1/2+z
1/2+x,1/2-y,1/2+z
loop_
_atom_site_type_symbol
_atom_site_label
_atom_site_fract_x
_atom_site_fract_y
_atom_site_fract_z
Si Si1 0.933757 0.798063 0.332600
Si Si2 0.924978 0.439272 0.407100
Si Si3 0.565715 0.072589 0.408846
Si Si4 0.076943 0.771966 0.147292
Si Si5 0.574922 0.060267 0.721690
Si Si6 0.422609 0.130350 0.582535
Si Si7 0.074554 0.703114 0.477979
O O1 0.750000 0.800340 0.333110
O O2 0.001561 0.870065 0.347318
O O3 0.997637 0.771595 0.240976
O O4 0.988988 0.751552 0.411398
O O5 0.750000 0.455026 0.396163
O O6 0.937592 0.368472 0.442085
O O7 0.000000 0.500000 0.454308
O O8 0.002253 0.435055 0.314322
O O9 0.750000 0.070911 0.407243
O O10 0.503479 0.098713 0.500971
O O11 0.500000 0.000000 0.394176
O O12 0.250000 0.794561 0.159905
O O13 0.089255 0.706201 0.091753
O O14 0.980178 0.808315 0.076007
O O15 0.750000 0.051460 0.728402
O O16 0.526629 0.118305 0.664651
O O17 0.500000 0.000000 0.674814
O O18 0.250000 0.105112 0.589486
O O19 0.250000 0.724627 0.478686
#
# Coordination Sequence:
#
# PCOD9364511 Si02
#       7
#     8   8   8   8   8   8   8
#     4  12  25  43  67  97 133 174 222 273 333 399
#     4  10  21  37  58  86 121 162 206 257 316 381
#     4  12  25  43  67  94 131 174 223 276 338 402
#     4  11  24  41  65  94 126 166 216 270 327 391
#     4  11  21  33  52  80 116 158 200 246 304 371
#     4  11  22  38  59  89 125 161 209 263 323 387
#     4  11  23  41  65  94 128 165 212 268 327 390
#
# _framework density 19.528606
#
# number of rings (size 3 to 8) (size 9 to 14) (size 15 to 20)
#    0.000    0.857    1.429    7.714    0.000    7.429 
#    0.000    0.714    0.000    1.714    0.000    0.000 
#    0.000    0.000    0.000    0.000    0.000    0.000 
#
# Total GULP energy -155968.129010 kJ/mol
# GULP energy per Si atom -5570.290322 kJ/mol
# Density = 1.948416 g / cm^3
# Si number density = 19.528606 Si / 1000 Ang^3
#
#
#
# Elastic Constant Matrix: (Units=GPa)
#
#
# Indices 1 2 3 4 5 6 
#
# 1 208.1163 18.3067 44.7494 0.0000 0.0000 0.0000
# 2 18.3067 102.9627 32.1900 0.0000 0.0000 0.0000
# 3 44.7494 32.1900 113.0059 0.0000 0.0000 0.0000
# 4 0.0000 0.0000 0.0000 24.1539 0.0000 0.0000
# 5 0.0000 0.0000 0.0000 0.0000 28.2724 0.0000
# 6 0.0000 0.0000 0.0000 0.0000 0.0000 28.0283
#
#
#
# Elastic Compliance Matrix: (Units=1/GPa)
#
#
# Indices 1 2 3 4 5 6 
#
# 1 0.005261 -0.000312 -0.001995 0.000000 0.000000 0.000000
# 2 -0.000312 0.010680 -0.002919 0.000000 0.000000 0.000000
# 3 -0.001995 -0.002919 0.010470 0.000000 0.000000 0.000000
# 4 0.000000 0.000000 0.000000 0.041401 0.000000 0.000000
# 5 0.000000 0.000000 0.000000 0.000000 0.035370 0.000000
# 6 0.000000 0.000000 0.000000 0.000000 0.000000 0.035678
#
#
# Mechanical properties :
#
#
# Convention : Reuss Voigt Hill
#
# Bulk Modulus (GPa) = 62.65119 68.28634 65.46876
# Shear Modulus (GPa) = 32.33472 38.01350 35.17411
#
# Velocity S-wave (km/s) = 4.07352 4.41676 4.24861
# Velocity P-wave (km/s) = 7.36723 7.81368 7.59374
#
# Compressibility (1/GPa) = 0.01596139
#
# Stress axis : x y z
#
# Youngs Moduli (GPa) = 190.06639 93.63101 95.50766
#
# Poissons Ratio (x) = 0.02920 0.19050
# Poissons Ratio (y) = 0.05928 0.27877
# Poissons Ratio (z) = 0.37911 0.27329
#
# Static dielectric constant tensor:
#      x y z
#    x 1.702660 0.000000 0.000000 
#    y 0.000000 1.832200 0.000000 
#    z 0.000000 0.000000 1.675690 
# 
# From -- ./inp_files/15343.got.cif
#   From: 2010.05.17/outbox.cif.g08.bks.cpg/sg40_8_cif.got.tgz:15343.got - 2010.06.03 18:35:42.
