data_PCOD9364424
_publ_section_title
;
Structure prediction by ZEFSAII (Michael W. Deem and Ramdas Pophale) SiO2 
 PCOD9364424
Probable space group: A M A 2
;
_chemical_formula_sum "Si O2"
_cell_formula_units_Z 64
_cell_length_a 8.157654
_cell_length_b 19.358804
_cell_length_c 22.348222
_cell_angle_alpha 90.000000
_cell_angle_beta 90.000000
_cell_angle_gamma 90.000000
_cell_volume 3529.285410
_symmetry_space_group_name_H-M "A M A 2"
_symmetry_group_IT_number 40
_symmetry_cell_setting 'orthorhombic'
loop_
_space_group_symop_operation_xyz
x,y,z
-x,-y,z
1/2-x,y,z
1/2+x,-y,z
x,1/2+y,1/2+z
-x,1/2-y,1/2+z
1/2-x,1/2+y,1/2+z
1/2+x,1/2-y,1/2+z
loop_
_atom_site_type_symbol
_atom_site_label
_atom_site_fract_x
_atom_site_fract_y
_atom_site_fract_z
Si Si1 0.947316 0.924892 0.400220
Si Si2 0.050503 0.131509 0.273252
Si Si3 0.056835 0.072119 0.824941
Si Si4 0.946108 0.281336 0.949338
Si Si5 0.060070 0.425748 0.459436
Si Si6 0.948732 0.921879 0.144496
Si Si7 0.435469 0.183392 0.045321
Si Si8 0.551670 0.720221 0.321395
O O1 0.750000 0.922866 0.399452
O O2 0.004412 0.910174 0.332063
O O3 0.005090 0.859497 0.438974
O O4 0.000000 0.000000 0.420756
O O5 0.250000 0.130220 0.272920
O O6 0.995397 0.097841 0.211412
O O7 0.004722 0.211792 0.283431
O O8 0.250000 0.066794 0.836401
O O9 0.961427 0.074638 0.888222
O O10 0.018536 0.147547 0.798299
O O11 0.000000 0.000000 0.794776
O O12 0.750000 0.280826 0.944471
O O13 0.001191 0.237534 0.890313
O O14 0.987988 0.249938 0.013665
O O15 0.250000 0.412384 0.474114
O O16 0.000000 0.500000 0.480912
O O17 0.946025 0.370424 0.490575
O O18 0.750000 0.920382 0.142110
O O19 0.009673 0.861769 0.099432
O O20 0.000000 0.000000 0.129258
O O21 0.250000 0.200356 0.061886
O O22 0.750000 0.715218 0.321194
#
# Coordination Sequence:
#
# PCOD9364424 Si02
#       8
#     8   8   8   8   8   8   8   8
#     4   9  17  30  50  75  98 125 156 193 243 293
#     4   8  16  32  52  71  96 129 165 200 240 288
#     4  11  20  29  43  66  95 124 157 195 237 288
#     4   9  18  31  47  67  94 126 160 196 242 298
#     4  11  20  30  43  60  87 124 162 196 234 278
#     4  10  21  35  50  71  99 133 171 206 239 281
#     4  11  21  31  45  67  95 128 166 204 241 281
#     4   9  16  30  50  69  91 125 162 200 246 293
#
# _framework density 18.133982
#
# number of rings (size 3 to 8) (size 9 to 14) (size 15 to 20)
#    0.000    2.250    1.250    5.625    0.000    2.500 
#    0.000    2.500    0.000    0.000    0.000    0.875 
#    0.000    2.000    0.000    0.000    0.000    0.000 
#
# Total GULP energy -178298.273202 kJ/mol
# GULP energy per Si atom -5571.821038 kJ/mol
# Density = 1.809271 g / cm^3
# Si number density = 18.133982 Si / 1000 Ang^3
#
#
#
# Elastic Constant Matrix: (Units=GPa)
#
#
# Indices 1 2 3 4 5 6 
#
# 1 34.5056 11.3926 3.8633 0.0000 0.0000 0.0000
# 2 11.3926 140.6202 36.7368 0.0000 0.0000 0.0000
# 3 3.8633 36.7368 63.2486 0.0000 0.0000 0.0000
# 4 0.0000 0.0000 0.0000 20.5315 0.0000 0.0000
# 5 0.0000 0.0000 0.0000 0.0000 12.1689 0.0000
# 6 0.0000 0.0000 0.0000 0.0000 0.0000 25.4651
#
#
#
# Elastic Compliance Matrix: (Units=1/GPa)
#
#
# Indices 1 2 3 4 5 6 
#
# 1 0.029790 -0.002285 -0.000492 0.000000 0.000000 0.000000
# 2 -0.002285 0.008559 -0.004832 0.000000 0.000000 0.000000
# 3 -0.000492 -0.004832 0.018647 0.000000 0.000000 0.000000
# 4 0.000000 0.000000 0.000000 0.048706 0.000000 0.000000
# 5 0.000000 0.000000 0.000000 0.000000 0.082177 0.000000
# 6 0.000000 0.000000 0.000000 0.000000 0.000000 0.039269
#
#
# Mechanical properties :
#
#
# Convention : Reuss Voigt Hill
#
# Bulk Modulus (GPa) = 23.93594 38.03997 30.98796
# Shear Modulus (GPa) = 19.50903 24.05857 21.78380
#
# Velocity S-wave (km/s) = 3.28354 3.64636 3.46969
# Velocity P-wave (km/s) = 5.25392 6.22500 5.75996
#
# Compressibility (1/GPa) = 0.04177818
#
# Stress axis : x y z
#
# Youngs Moduli (GPa) = 33.56793 116.84001 53.62782
#
# Poissons Ratio (x) = 0.26696 0.02641
# Poissons Ratio (y) = 0.07670 0.25911
# Poissons Ratio (z) = 0.01653 0.56452
#
# Static dielectric constant tensor:
#      x y z
#    x 1.636670 0.000000 0.000000 
#    y 0.000000 1.678830 0.000000 
#    z 0.000000 0.000000 1.625790 
# 
# From -- ./inp_files/22517.got.cif
#   From: 2010.05.17/outbox.cif.g08.bks.cpg/sg40_12_cif.got.tgz:22517.got - 2010.06.03 18:35:42.
