data_PCOD9364576
_publ_section_title
;
Structure prediction by ZEFSAII (Michael W. Deem and Ramdas Pophale) SiO2 
 PCOD9364576
Probable space group: A M A 2
;
_chemical_formula_sum "Si O2"
_cell_formula_units_Z 32
_cell_length_a 20.899587
_cell_length_b 10.832081
_cell_length_c 4.873937
_cell_angle_alpha 90.000000
_cell_angle_beta 90.000000
_cell_angle_gamma 90.000000
_cell_volume 1103.391196
_symmetry_space_group_name_H-M "A M A 2"
_symmetry_group_IT_number 40
_symmetry_cell_setting 'orthorhombic'
loop_
_space_group_symop_operation_xyz
x,y,z
-x,-y,z
1/2-x,y,z
1/2+x,-y,z
x,1/2+y,1/2+z
-x,1/2-y,1/2+z
1/2-x,1/2+y,1/2+z
1/2+x,1/2-y,1/2+z
loop_
_atom_site_type_symbol
_atom_site_label
_atom_site_fract_x
_atom_site_fract_y
_atom_site_fract_z
Si Si1 0.250000 0.678999 0.806941
Si Si2 0.862887 0.384653 0.382537
Si Si3 0.502627 0.327694 0.670395
Si Si4 0.750000 0.568700 0.056019
Si Si5 0.862671 0.129036 0.130102
O O1 0.189085 0.649455 0.613455
O O2 0.250000 0.829819 0.805158
O O3 0.250000 0.582363 0.065184
O O4 0.933961 0.367477 0.509537
O O5 0.856118 0.279100 0.146802
O O6 0.856198 0.534674 0.370393
O O7 0.479022 0.220510 0.465164
O O8 0.436421 0.399818 0.719488
O O9 0.810446 0.593637 0.855493
#
# Coordination Sequence:
#
# PCOD9364576 Si02
#       5
#     4   8   8   4   8
#     4   8  14  26  49  78 112 154 202 258 321 390
#     4   9  17  32  54  83 118 159 208 264 327 396
#     4  10  21  38  59  86 118 160 208 262 326 394
#     4   8  14  26  49  78 112 154 202 258 321 390
#     4   9  17  32  54  83 118 159 208 264 327 396
#
# _framework density 29.001501999999999
#
# number of rings (size 3 to 8) (size 9 to 14) (size 15 to 20)
#    0.000    3.000    0.000    0.750    0.000    0.000 
#    0.000   21.250    0.000    0.000    0.000   52.500 
#    0.000    0.000    0.000    0.000    0.000    0.000 
#
# Total GULP energy -89197.318288 kJ/mol
# GULP energy per Si atom -5574.832393 kJ/mol
# Density = 2.893549 g / cm^3
# Si number density = 29.001502 Si / 1000 Ang^3
#
#
#
# Elastic Constant Matrix: (Units=GPa)
#
#
# Indices 1 2 3 4 5 6 
#
# 1 168.6925 99.3082 24.9098 0.0000 0.0000 0.0000
# 2 99.3082 210.1411 81.9583 0.0000 0.0000 0.0000
# 3 24.9098 81.9583 183.8469 0.0000 0.0000 0.0000
# 4 0.0000 0.0000 0.0000 62.9187 0.0000 0.0000
# 5 0.0000 0.0000 0.0000 0.0000 11.3841 0.0000
# 6 0.0000 0.0000 0.0000 0.0000 0.0000 78.2399
#
#
#
# Elastic Compliance Matrix: (Units=1/GPa)
#
#
# Indices 1 2 3 4 5 6 
#
# 1 0.008299 -0.004216 0.000755 0.000000 0.000000 0.000000
# 2 -0.004216 0.007902 -0.002952 0.000000 0.000000 0.000000
# 3 0.000755 -0.002952 0.006653 0.000000 0.000000 0.000000
# 4 0.000000 0.000000 0.000000 0.015894 0.000000 0.000000
# 5 0.000000 0.000000 0.000000 0.000000 0.087842 0.000000
# 6 0.000000 0.000000 0.000000 0.000000 0.000000 0.012781
#
#
# Mechanical properties :
#
#
# Convention : Reuss Voigt Hill
#
# Bulk Modulus (GPa) = 99.71648 108.33699 104.02673
# Shear Modulus (GPa) = 32.14638 54.27549 43.21094
#
# Velocity S-wave (km/s) = 3.33293 4.33074 3.86418
# Velocity P-wave (km/s) = 7.01920 7.90214 7.47372
#
# Compressibility (1/GPa) = 0.01002843
#
# Stress axis : x y z
#
# Youngs Moduli (GPa) = 120.50369 126.54425 150.31285
#
# Poissons Ratio (x) = 0.53354 -0.11352
# Poissons Ratio (y) = 0.50807 0.44366
# Poissons Ratio (z) = -0.09100 0.37351
#
# Static dielectric constant tensor:
#      x y z
#    x 2.362930 0.000000 0.000000 
#    y 0.000000 2.427530 0.000000 
#    z 0.000000 0.000000 2.061170 
# 
# From -- ./inp_files/2130.got.cif
#   From: 2010.05.17/outbox.cif.g08.bks.cpg/sg40_2_cif.got.tgz:2130.got - 2010.06.03 18:35:42.
