data_PCOD9364506
_publ_section_title
;
Structure prediction by ZEFSAII (Michael W. Deem and Ramdas Pophale) SiO2 
 PCOD9364506
Probable space group: A M A 2
;
_chemical_formula_sum "Si O2"
_cell_formula_units_Z 64
_cell_length_a 11.946391
_cell_length_b 14.775638
_cell_length_c 13.800429
_cell_angle_alpha 90.000000
_cell_angle_beta 90.000000
_cell_angle_gamma 90.000000
_cell_volume 2435.990299
_symmetry_space_group_name_H-M "A M A 2"
_symmetry_group_IT_number 40
_symmetry_cell_setting 'orthorhombic'
loop_
_space_group_symop_operation_xyz
x,y,z
-x,-y,z
1/2-x,y,z
1/2+x,-y,z
x,1/2+y,1/2+z
-x,1/2-y,1/2+z
1/2-x,1/2+y,1/2+z
1/2+x,1/2-y,1/2+z
loop_
_atom_site_type_symbol
_atom_site_label
_atom_site_fract_x
_atom_site_fract_y
_atom_site_fract_z
Si Si1 0.404950 0.722558 0.972130
Si Si2 0.872704 0.987295 0.256937
Si Si3 0.127296 0.012705 0.478959
Si Si4 0.622201 0.953773 0.753315
Si Si5 0.377799 0.046227 0.982581
Si Si6 0.404950 0.722558 0.763767
Si Si7 0.132130 0.248215 0.049871
Si Si8 0.132130 0.248215 0.686026
O O1 0.361622 0.621317 0.973902
O O2 0.378639 0.766039 0.867948
O O3 0.536665 0.711660 0.985158
O O4 0.374160 0.772567 0.072057
O O5 0.750000 0.018232 0.215617
O O6 0.878027 0.021032 0.367948
O O7 0.861622 0.878683 0.261994
O O8 0.000000 0.000000 0.215083
O O9 0.250000 0.981768 0.520280
O O10 0.000000 0.000000 0.520813
O O11 0.750000 0.994241 0.737785
O O12 0.619862 0.931721 0.867948
O O13 0.621220 0.860384 0.693619
O O14 0.500000 0.000000 0.735456
O O15 0.250000 0.005759 0.998112
O O16 0.500000 0.000000 0.000440
O O17 0.378780 0.139616 0.042278
O O18 0.374160 0.772567 0.663839
O O19 0.536665 0.711661 0.750738
O O20 0.250000 0.274129 0.009153
O O21 0.250000 0.274129 0.726744
#
# Coordination Sequence:
#
# PCOD9364506 Si02
#       8
#     8   8   8   8   8   8   8   8
#     4  10  21  37  57  82 114 152 194 242 296 350
#     4   9  18  33  53  78 109 146 187 230 278 335
#     4   9  18  33  53  78 109 146 187 230 278 335
#     4   9  18  35  59  86 117 153 194 242 295 349
#     4   9  18  35  59  86 117 153 194 242 295 349
#     4  10  21  37  57  82 114 152 194 242 296 350
#     4  10  21  37  58  84 114 152 198 244 292 351
#     4  10  21  37  58  84 114 152 198 244 292 351
#
# _framework density 26.272682
#
# number of rings (size 3 to 8) (size 9 to 14) (size 15 to 20)
#    0.000    2.500    0.000    1.500    0.000    5.000 
#    0.000    8.750    0.000   12.000    0.000    0.000 
#    0.000    0.000    0.000    0.000    0.000    0.000 
#
# Total GULP energy -178348.436660 kJ/mol
# GULP energy per Si atom -5573.388646 kJ/mol
# Density = 2.621288 g / cm^3
# Si number density = 26.272682 Si / 1000 Ang^3
#
#
#
# Elastic Constant Matrix: (Units=GPa)
#
#
# Indices 1 2 3 4 5 6 
#
# 1 325.4652 37.9498 29.4928 0.0000 0.0000 0.0000
# 2 37.9498 37.5613 -0.8693 0.0000 0.0000 0.0000
# 3 29.4928 -0.8693 174.2299 0.0000 0.0000 0.0000
# 4 0.0000 0.0000 0.0000 15.0837 0.0000 0.0000
# 5 0.0000 0.0000 0.0000 0.0000 -180.7579 0.0000
# 6 0.0000 0.0000 0.0000 0.0000 0.0000 25.9221
#
#
#
# Elastic Compliance Matrix: (Units=1/GPa)
#
#
# Indices 1 2 3 4 5 6 
#
# 1 0.003548 -0.003599 -0.000619 0.000000 0.000000 0.000000
# 2 -0.003599 0.030277 0.000760 0.000000 0.000000 0.000000
# 3 -0.000619 0.000760 0.005848 0.000000 0.000000 0.000000
# 4 0.000000 0.000000 0.000000 0.066297 0.000000 0.000000
# 5 0.000000 0.000000 0.000000 0.000000 -0.005532 0.000000
# 6 0.000000 0.000000 0.000000 0.000000 0.000000 0.038577
#
#
# Mechanical properties :
#
#
# Convention : Reuss Voigt Hill
#
# Bulk Modulus (GPa) = 30.52640 74.48919 52.50780
# Shear Modulus (GPa) = 31.87762 3.42845 17.65303
#
# Velocity S-wave (km/s) = 3.48708 1.14358 2.59495
# Velocity P-wave (km/s) = 5.27800 5.49159 5.38585
#
# Compressibility (1/GPa) = 0.03275853
#
# Stress axis : x y z
#
# Youngs Moduli (GPa) = 281.82817 33.02807 170.99717
#
# Poissons Ratio (x) = 0.11888 0.10578
# Poissons Ratio (y) = 1.01438 -0.13002
# Poissons Ratio (z) = 0.17434 -0.02511
#
# Static dielectric constant tensor:
#      x y z
#    x 2.121080 0.000000 0.000000 
#    y 0.000000 2.042300 0.000000 
#    z 0.000000 0.000000 2.025810 
# 
# From -- ./inp_files/16521.got.cif
#   From: 2010.05.17/outbox.cif.g08.bks.cpg/sg40_9_cif.got.tgz:16521.got - 2010.06.03 18:35:42.
