data_PCOD9364904
_publ_section_title
;
Structure prediction by ZEFSAII (Michael W. Deem and Ramdas Pophale) SiO2 
 PCOD9364904
Probable space group: A M A 2
;
_chemical_formula_sum "Si O2"
_cell_formula_units_Z 64
_cell_length_a 8.761129
_cell_length_b 15.811514
_cell_length_c 24.249115
_cell_angle_alpha 90.000000
_cell_angle_beta 90.000000
_cell_angle_gamma 90.000000
_cell_volume 3359.150214
_symmetry_space_group_name_H-M "A M A 2"
_symmetry_group_IT_number 40
_symmetry_cell_setting 'orthorhombic'
loop_
_space_group_symop_operation_xyz
x,y,z
-x,-y,z
1/2-x,y,z
1/2+x,-y,z
x,1/2+y,1/2+z
-x,1/2-y,1/2+z
1/2-x,1/2+y,1/2+z
1/2+x,1/2-y,1/2+z
loop_
_atom_site_type_symbol
_atom_site_label
_atom_site_fract_x
_atom_site_fract_y
_atom_site_fract_z
Si Si1 0.933457 0.589990 0.541730
Si Si2 0.566326 0.654612 0.420840
Si Si3 0.066581 0.344034 0.920933
Si Si4 0.434203 0.746228 0.111297
Si Si5 0.066413 0.256130 0.739874
Si Si6 0.567605 0.591096 0.042770
Si Si7 0.067373 0.087787 0.808106
Si Si8 0.931761 0.411215 0.808180
O O1 0.750000 0.585749 0.544038
O O2 0.977071 0.611073 0.478593
O O3 0.983012 0.668443 0.579664
O O4 0.000000 0.500000 0.558710
O O5 0.750000 0.658986 0.417721
O O6 0.498162 0.748931 0.420002
O O7 0.501441 0.605196 0.368476
O O8 0.250000 0.341709 0.915516
O O9 0.996328 0.393251 0.869355
O O10 0.026158 0.385905 0.979456
O O11 0.250000 0.740387 0.107007
O O12 0.474151 0.751104 0.175608
O O13 0.504567 0.665123 0.081503
O O14 0.250000 0.267715 0.744405
O O15 0.027967 0.168425 0.770430
O O16 0.986051 0.333723 0.770302
O O17 0.500000 0.500000 0.057257
O O18 0.750000 0.588575 0.046356
O O19 0.250000 0.082069 0.811758
O O20 0.000000 0.000000 0.786324
O O21 0.750000 0.415438 0.809931
O O22 0.000000 0.500000 0.788109
#
# Coordination Sequence:
#
# PCOD9364904 Si02
#       8
#     8   8   8   8   8   8   8   8
#     4  10  22  38  60  89 122 159 199 246 300 360
#     4  11  21  36  61  92 123 159 199 247 309 368
#     4  11  22  38  62  93 127 162 201 250 311 373
#     4  10  22  43  65  88 122 163 206 256 307 360
#     4  10  23  43  65  89 122 163 208 257 309 360
#     4  11  24  40  63  93 125 163 204 253 307 367
#     4  11  23  39  61  89 123 161 202 252 305 365
#     4  12  25  41  65  93 126 164 205 254 307 370
#
# _framework density 19.052436
#
# number of rings (size 3 to 8) (size 9 to 14) (size 15 to 20)
#    0.000    1.250    2.500    3.375    0.000    7.000 
#    0.000    2.500    0.000    0.000    0.000    0.000 
#    0.000    0.000    0.000    0.000    0.000    0.000 
#
# Total GULP energy -178982.744342 kJ/mol
# GULP energy per Si atom -5593.210761 kJ/mol
# Density = 1.900907 g / cm^3
# Si number density = 19.052436 Si / 1000 Ang^3
#
#
#
# Elastic Constant Matrix: (Units=GPa)
#
#
# Indices 1 2 3 4 5 6 
#
# 1 58.2204 59.7553 55.1168 0.0000 0.0000 0.0000
# 2 59.7553 189.2982 78.6625 0.0000 0.0000 0.0000
# 3 55.1168 78.6625 141.9410 0.0000 0.0000 0.0000
# 4 0.0000 0.0000 0.0000 -4.5180 0.0000 0.0000
# 5 0.0000 0.0000 0.0000 0.0000 28.5772 0.0000
# 6 0.0000 0.0000 0.0000 0.0000 0.0000 30.3210
#
#
#
# Elastic Compliance Matrix: (Units=1/GPa)
#
#
# Indices 1 2 3 4 5 6 
#
# 1 0.032297 -0.006475 -0.008953 0.000000 0.000000 0.000000
# 2 -0.006475 0.008161 -0.002009 0.000000 0.000000 0.000000
# 3 -0.008953 -0.002009 0.011635 0.000000 0.000000 0.000000
# 4 0.000000 0.000000 0.000000 -0.221337 0.000000 0.000000
# 5 0.000000 0.000000 0.000000 0.000000 0.034993 0.000000
# 6 0.000000 0.000000 0.000000 0.000000 0.000000 0.032980
#
#
# Mechanical properties :
#
#
# Convention : Reuss Voigt Hill
#
# Bulk Modulus (GPa) = 58.07031 86.28096 72.17563
# Shear Modulus (GPa) = -82.43072 23.93772 -29.24650
#
# Velocity S-wave (km/s) = -6.58476 3.54844 -3.92223
# Velocity P-wave (km/s) = 5.22176 7.88498 4.17769
#
# Compressibility (1/GPa) = 0.01722050
#
# Stress axis : x y z
#
# Youngs Moduli (GPa) = 30.96223 122.52999 85.94830
#
# Poissons Ratio (x) = 0.79336 0.76950
# Poissons Ratio (y) = 0.20048 0.17264
# Poissons Ratio (z) = 0.27721 0.24612
#
# Static dielectric constant tensor:
#      x y z
#    x 1.639850 0.000000 0.000000 
#    y 0.000000 1.647470 0.000000 
#    z 0.000000 0.000000 1.644500 
# 
# From -- ./inp_files/24241.got.cif
#   From: 2010.05.17/outbox.cif.g08.bks.cpg/sg40_13_cif.got.tgz:24241.got - 2010.06.03 18:35:42.
