data_PCOD9364505
_publ_section_title
;
Structure prediction by ZEFSAII (Michael W. Deem and Ramdas Pophale) SiO2 
 PCOD9364505
Probable space group: A M A 2
;
_chemical_formula_sum "Si O2"
_cell_formula_units_Z 48
_cell_length_a 8.667233
_cell_length_b 30.398801
_cell_length_c 10.215943
_cell_angle_alpha 90.000000
_cell_angle_beta 90.000000
_cell_angle_gamma 90.000000
_cell_volume 2691.630168
_symmetry_space_group_name_H-M "A M A 2"
_symmetry_group_IT_number 40
_symmetry_cell_setting 'orthorhombic'
loop_
_space_group_symop_operation_xyz
x,y,z
-x,-y,z
1/2-x,y,z
1/2+x,-y,z
x,1/2+y,1/2+z
-x,1/2-y,1/2+z
1/2-x,1/2+y,1/2+z
1/2+x,1/2-y,1/2+z
loop_
_atom_site_type_symbol
_atom_site_label
_atom_site_fract_x
_atom_site_fract_y
_atom_site_fract_z
Si Si1 0.065366 0.048554 0.954400
Si Si2 0.433713 0.883947 0.165320
Si Si3 0.564907 0.384367 0.955450
Si Si4 0.434625 0.951441 0.667696
Si Si5 0.934261 0.781978 0.462075
Si Si6 0.066604 0.211945 0.160498
O O1 0.250000 0.046949 0.949473
O O2 0.000187 0.060491 0.810953
O O3 0.000000 0.000000 0.985051
O O4 0.008390 0.083053 0.061541
O O5 0.250000 0.888641 0.164822
O O6 0.499314 0.892921 0.310539
O O7 0.480705 0.833808 0.132368
O O8 0.750000 0.389224 0.953317
O O9 0.530002 0.333288 0.988252
O O10 0.491668 0.416923 0.060411
O O11 0.250000 0.953118 0.672675
O O12 0.500000 0.000000 0.636781
O O13 0.750000 0.775991 0.477931
O O14 0.972948 0.774081 0.309368
O O15 0.020881 0.749218 0.558168
O O16 0.250000 0.203458 0.157995
#
# Coordination Sequence:
#
# PCOD9364505 Si02
#       6
#     8   8   8   8   8   8
#     4  11  22  39  60  84 114 148 186 230 280 332
#     4  11  22  38  59  84 113 147 188 233 281 333
#     4  10  21  39  59  83 115 149 187 232 281 332
#     4  11  22  38  59  85 115 149 188 230 278 330
#     4   9  20  37  56  80 111 145 183 228 276 329
#     4  10  21  37  57  82 112 146 185 229 278 332
#
# _framework density 17.833058000000001
#
# number of rings (size 3 to 8) (size 9 to 14) (size 15 to 20)
#    0.000    1.667    0.000    7.500    0.000    6.000 
#    0.000    6.667    0.000    0.000    0.000    0.000 
#    0.000    0.000    0.000    0.000    0.000    0.000 
#
# Total GULP energy -134119.355280 kJ/mol
# GULP energy per Si atom -5588.306470 kJ/mol
# Density = 1.779247 g / cm^3
# Si number density = 17.833058 Si / 1000 Ang^3
#
#
#
# Elastic Constant Matrix: (Units=GPa)
#
#
# Indices 1 2 3 4 5 6 
#
# 1 154.4354 73.8346 75.7598 0.0000 0.0000 0.0000
# 2 73.8346 108.8162 110.4612 0.0000 0.0000 0.0000
# 3 75.7598 110.4612 126.6878 0.0000 0.0000 0.0000
# 4 0.0000 0.0000 0.0000 40.5770 0.0000 0.0000
# 5 0.0000 0.0000 0.0000 0.0000 34.3000 0.0000
# 6 0.0000 0.0000 0.0000 0.0000 0.0000 45.7953
#
#
#
# Elastic Compliance Matrix: (Units=1/GPa)
#
#
# Indices 1 2 3 4 5 6 
#
# 1 0.009588 -0.005965 -0.000533 0.000000 0.000000 0.000000
# 2 -0.005965 0.083690 -0.069404 0.000000 0.000000 0.000000
# 3 -0.000533 -0.069404 0.068726 0.000000 0.000000 0.000000
# 4 0.000000 0.000000 0.000000 0.024645 0.000000 0.000000
# 5 0.000000 0.000000 0.000000 0.000000 0.029155 0.000000
# 6 0.000000 0.000000 0.000000 0.000000 0.000000 0.021836
#
#
# Mechanical properties :
#
#
# Convention : Reuss Voigt Hill
#
# Bulk Modulus (GPa) = 98.02360 101.11675 99.57017
# Shear Modulus (GPa) = 12.72769 32.79338 22.76053
#
# Velocity S-wave (km/s) = 2.67444 4.29290 3.57643
# Velocity P-wave (km/s) = 8.03888 9.02203 8.54460
#
# Compressibility (1/GPa) = 0.01020163
#
# Stress axis : x y z
#
# Youngs Moduli (GPa) = 104.29181 11.94883 14.55046
#
# Poissons Ratio (x) = 0.07128 0.00775
# Poissons Ratio (y) = 0.62211 1.00986
# Poissons Ratio (z) = 0.05558 0.82929
#
# Static dielectric constant tensor:
#      x y z
#    x 1.600690 0.000000 0.000000 
#    y 0.000000 1.581920 0.000000 
#    z 0.000000 0.000000 1.582750 
# 
# From -- ./inp_files/4609.got.cif
#   From: 2010.05.17/outbox.cif.g08.bks.cpg/sg40_3_cif.got.tgz:4609.got - 2010.06.03 18:35:42.
