data_PCOD9364609
_publ_section_title
;
Structure prediction by ZEFSAII (Michael W. Deem and Ramdas Pophale) SiO2 
 PCOD9364609
Probable space group: A M A 2
;
_chemical_formula_sum "Si O2"
_cell_formula_units_Z 56
_cell_length_a 15.422294
_cell_length_b 16.185523
_cell_length_c 10.266783
_cell_angle_alpha 90.000000
_cell_angle_beta 90.000000
_cell_angle_gamma 90.000000
_cell_volume 2562.772753
_symmetry_space_group_name_H-M "A M A 2"
_symmetry_group_IT_number 40
_symmetry_cell_setting 'orthorhombic'
loop_
_space_group_symop_operation_xyz
x,y,z
-x,-y,z
1/2-x,y,z
1/2+x,-y,z
x,1/2+y,1/2+z
-x,1/2-y,1/2+z
1/2-x,1/2+y,1/2+z
1/2+x,1/2-y,1/2+z
loop_
_atom_site_type_symbol
_atom_site_label
_atom_site_fract_x
_atom_site_fract_y
_atom_site_fract_z
Si Si1 0.505686 0.710270 0.537830
Si Si2 0.843738 0.807635 0.683124
Si Si3 0.155283 0.307615 0.929238
Si Si4 0.847945 0.585510 0.438228
Si Si5 0.902142 0.990621 0.701097
Si Si6 0.912994 0.449894 0.646584
Si Si7 0.347629 0.995241 0.412338
O O1 0.575202 0.766781 0.612055
O O2 0.433879 0.777007 0.492372
O O3 0.573671 0.651753 0.456038
O O4 0.444254 0.640745 0.604532
O O5 0.750000 0.805497 0.613094
O O6 0.835619 0.754809 0.811947
O O7 0.865092 0.900233 0.724337
O O8 0.250000 0.307256 0.001622
O O9 0.145149 0.399469 0.871945
O O10 0.750000 0.615393 0.470478
O O11 0.850281 0.555288 0.288741
O O12 0.866856 0.505682 0.533734
O O13 0.901117 0.999240 0.545127
O O14 0.000000 0.000000 0.749327
O O15 0.865513 0.450228 0.785697
O O16 0.000000 0.500000 0.675148
O O17 0.250000 0.011827 0.455951
#
# Coordination Sequence:
#
# PCOD9364609 Si02
#       7
#     8   8   8   8   8   8   8
#     4  11  23  39  63  96 126 161 213 266 315 367
#     4  11  23  41  63  90 126 170 211 253 313 386
#     4  10  22  40  63  90 127 170 209 253 317 386
#     4  11  22  40  65  94 128 168 213 263 314 375
#     4  12  24  41  65  93 126 166 212 262 314 374
#     4  10  21  38  62  90 120 160 211 260 309 372
#     4  11  23  41  63  91 125 165 210 259 315 376
#
# _framework density 21.851331999999999
#
# number of rings (size 3 to 8) (size 9 to 14) (size 15 to 20)
#    0.000    1.143    0.000    8.143    0.000    4.571 
#    0.000    0.000    0.000    2.571    0.000    2.000 
#    0.000    0.000    0.000    0.000    0.000    0.000 
#
# Total GULP energy -156064.507458 kJ/mol
# GULP energy per Si atom -5573.732409 kJ/mol
# Density = 2.180160 g / cm^3
# Si number density = 21.851332 Si / 1000 Ang^3
#
#
#
# Elastic Constant Matrix: (Units=GPa)
#
#
# Indices 1 2 3 4 5 6 
#
# 1 195.4531 50.4325 50.4722 0.0000 0.0000 0.0000
# 2 50.4325 94.7043 27.9684 0.0000 0.0000 0.0000
# 3 50.4722 27.9684 78.2390 0.0000 0.0000 0.0000
# 4 0.0000 0.0000 0.0000 24.7014 0.0000 0.0000
# 5 0.0000 0.0000 0.0000 0.0000 51.7043 0.0000
# 6 0.0000 0.0000 0.0000 0.0000 0.0000 28.7235
#
#
#
# Elastic Compliance Matrix: (Units=1/GPa)
#
#
# Indices 1 2 3 4 5 6 
#
# 1 0.006644 -0.002541 -0.003378 0.000000 0.000000 0.000000
# 2 -0.002541 0.012777 -0.002928 0.000000 0.000000 0.000000
# 3 -0.003378 -0.002928 0.016007 0.000000 0.000000 0.000000
# 4 0.000000 0.000000 0.000000 0.040484 0.000000 0.000000
# 5 0.000000 0.000000 0.000000 0.000000 0.019341 0.000000
# 6 0.000000 0.000000 0.000000 0.000000 0.000000 0.034815
#
#
# Mechanical properties :
#
#
# Convention : Reuss Voigt Hill
#
# Bulk Modulus (GPa) = 56.38768 69.57141 62.97955
# Shear Modulus (GPa) = 32.53661 36.99405 34.76533
#
# Velocity S-wave (km/s) = 3.86294 4.11906 3.99305
# Velocity P-wave (km/s) = 6.76444 7.38443 7.08122
#
# Compressibility (1/GPa) = 0.01773437
#
# Stress axis : x y z
#
# Youngs Moduli (GPa) = 150.50803 78.26586 62.47134
#
# Poissons Ratio (x) = 0.19884 0.21103
# Poissons Ratio (y) = 0.38238 0.18295
# Poissons Ratio (z) = 0.50841 0.22920
#
# Static dielectric constant tensor:
#      x y z
#    x 1.977690 0.000000 0.000000 
#    y 0.000000 1.762060 0.000000 
#    z 0.000000 0.000000 1.796530 
# 
# From -- ./inp_files/12242.got.cif
#   From: 2010.05.17/outbox.cif.g08.bks.cpg/sg40_7_cif.got.tgz:12242.got - 2010.06.03 18:35:42.
