data_PCOD9364657
_publ_section_title
;
Structure prediction by ZEFSAII (Michael W. Deem and Ramdas Pophale) SiO2 
 PCOD9364657
Probable space group: A M A 2
;
_chemical_formula_sum "Si O2"
_cell_formula_units_Z 64
_cell_length_a 18.101020
_cell_length_b 6.743658
_cell_length_c 26.884439
_cell_angle_alpha 90.000000
_cell_angle_beta 90.000000
_cell_angle_gamma 90.000000
_cell_volume 3281.705190
_symmetry_space_group_name_H-M "A M A 2"
_symmetry_group_IT_number 40
_symmetry_cell_setting 'orthorhombic'
loop_
_space_group_symop_operation_xyz
x,y,z
-x,-y,z
1/2-x,y,z
1/2+x,-y,z
x,1/2+y,1/2+z
-x,1/2-y,1/2+z
1/2-x,1/2+y,1/2+z
1/2+x,1/2-y,1/2+z
loop_
_atom_site_type_symbol
_atom_site_label
_atom_site_fract_x
_atom_site_fract_y
_atom_site_fract_z
Si Si1 0.663383 0.634381 0.491110
Si Si2 0.421067 0.605939 0.412234
Si Si3 0.417859 0.958948 0.481002
Si Si4 0.412318 0.478711 0.299399
Si Si5 0.338831 0.193673 0.063397
Si Si6 0.075157 0.614467 0.741177
Si Si7 0.662248 0.771539 0.713112
Si Si8 0.076988 0.913064 0.650118
O O1 0.750000 0.670413 0.493079
O O2 0.641634 0.485724 0.447133
O O3 0.642015 0.527182 0.543232
O O4 0.621080 0.831918 0.477607
O O5 0.500000 0.500000 0.423767
O O6 0.425812 0.833799 0.429931
O O7 0.403616 0.555862 0.355353
O O8 0.369833 0.834130 0.519904
O O9 0.500000 0.000000 0.500350
O O10 0.500000 0.500000 0.288237
O O11 0.395745 0.247863 0.287070
O O12 0.364010 0.611451 0.262522
O O13 0.250000 0.206614 0.067763
O O14 0.378737 0.273658 0.112304
O O15 0.130501 0.449768 0.719594
O O16 0.059328 0.775392 0.697957
O O17 0.000000 0.500000 0.754795
O O18 0.750000 0.769631 0.708012
O O19 0.625773 0.900405 0.668784
O O20 0.000000 0.000000 0.630075
#
# Coordination Sequence:
#
# PCOD9364657 Si02
#       8
#     8   8   8   8   8   8   8   8
#     4  10  22  41  62  88 126 166 203 257 320 380
#     4  10  21  39  61  93 120 160 212 263 318 381
#     4  11  21  39  63  88 123 162 213 266 316 381
#     4  10  21  39  63  86 124 165 209 262 322 388
#     4  10  23  40  60  90 128 166 208 259 321 382
#     4  11  20  40  62  87 122 169 212 259 320 382
#     4  11  23  39  62  93 127 164 212 267 318 377
#     4  11  22  41  66  94 126 168 215 262 316 385
#
# _framework density 19.502057000000001
#
# number of rings (size 3 to 8) (size 9 to 14) (size 15 to 20)
#    0.000    1.500    3.750    1.875    0.000    5.500 
#    2.250    2.500    0.000    0.000    0.000    0.000 
#    0.000    0.000    0.000    0.000    0.000    0.000 
#
# Total GULP energy -178573.625954 kJ/mol
# GULP energy per Si atom -5580.425811 kJ/mol
# Density = 1.945767 g / cm^3
# Si number density = 19.502057 Si / 1000 Ang^3
#
#
#
# Elastic Constant Matrix: (Units=GPa)
#
#
# Indices 1 2 3 4 5 6 
#
# 1 90.6492 42.4446 27.2154 0.0000 0.0000 0.0000
# 2 42.4446 126.4784 39.6299 0.0000 0.0000 0.0000
# 3 27.2154 39.6299 101.4074 0.0000 0.0000 0.0000
# 4 0.0000 0.0000 0.0000 33.1132 0.0000 0.0000
# 5 0.0000 0.0000 0.0000 0.0000 25.6454 0.0000
# 6 0.0000 0.0000 0.0000 0.0000 0.0000 25.8366
#
#
#
# Elastic Compliance Matrix: (Units=1/GPa)
#
#
# Indices 1 2 3 4 5 6 
#
# 1 0.013472 -0.003861 -0.002107 0.000000 0.000000 0.000000
# 2 -0.003861 0.010116 -0.002917 0.000000 0.000000 0.000000
# 3 -0.002107 -0.002917 0.011567 0.000000 0.000000 0.000000
# 4 0.000000 0.000000 0.000000 0.030199 0.000000 0.000000
# 5 0.000000 0.000000 0.000000 0.000000 0.038993 0.000000
# 6 0.000000 0.000000 0.000000 0.000000 0.000000 0.038705
#
#
# Mechanical properties :
#
#
# Convention : Reuss Voigt Hill
#
# Bulk Modulus (GPa) = 57.52063 59.67941 58.60002
# Shear Modulus (GPa) = 30.00897 30.86872 30.43885
#
# Velocity S-wave (km/s) = 3.92696 3.98281 3.95498
# Velocity P-wave (km/s) = 7.07955 7.19850 7.13927
#
# Compressibility (1/GPa) = 0.01738507
#
# Stress axis : x y z
#
# Youngs Moduli (GPa) = 74.22913 98.85115 86.45542
#
# Poissons Ratio (x) = 0.38165 0.18213
# Poissons Ratio (y) = 0.28659 0.25221
# Poissons Ratio (z) = 0.15638 0.28837
#
# Static dielectric constant tensor:
#      x y z
#    x 1.665300 0.000000 0.000000 
#    y 0.000000 1.721930 0.000000 
#    z 0.000000 0.000000 1.691760 
# 
# From -- ./inp_files/26709.got.cif
#   From: 2010.05.17/outbox.cif.g08.bks.cpg/sg40_14_cif.got.tgz:26709.got - 2010.06.03 18:35:42.
