data_PCOD9364620
_publ_section_title
;
Structure prediction by ZEFSAII (Michael W. Deem and Ramdas Pophale) SiO2 
 PCOD9364620
Probable space group: A M A 2
;
_chemical_formula_sum "Si O2"
_cell_formula_units_Z 64
_cell_length_a 11.576876
_cell_length_b 26.967856
_cell_length_c 9.450391
_cell_angle_alpha 90.000000
_cell_angle_beta 90.000000
_cell_angle_gamma 90.000000
_cell_volume 2950.445382
_symmetry_space_group_name_H-M "A M A 2"
_symmetry_group_IT_number 40
_symmetry_cell_setting 'orthorhombic'
loop_
_space_group_symop_operation_xyz
x,y,z
-x,-y,z
1/2-x,y,z
1/2+x,-y,z
x,1/2+y,1/2+z
-x,1/2-y,1/2+z
1/2-x,1/2+y,1/2+z
1/2+x,1/2-y,1/2+z
loop_
_atom_site_type_symbol
_atom_site_label
_atom_site_fract_x
_atom_site_fract_y
_atom_site_fract_z
Si Si1 0.879582 0.872344 0.752290
Si Si2 0.620034 0.067031 0.799082
Si Si3 0.626973 0.116306 0.375232
Si Si4 0.874183 0.016182 0.532944
Si Si5 0.469967 0.695371 0.022918
Si Si6 0.881410 0.853572 0.065871
Si Si7 0.540501 0.555076 0.611443
Si Si8 0.388716 0.240407 0.242451
O O1 0.750000 0.896902 0.756645
O O2 0.000190 0.904044 0.756481
O O3 0.881655 0.837148 0.615601
O O4 0.887326 0.841712 0.899238
O O5 0.750000 0.090888 0.781769
O O6 0.623131 0.017812 0.702495
O O7 0.607778 0.053864 0.963665
O O8 0.750000 0.142291 0.362590
O O9 0.631312 0.073986 0.494079
O O10 0.535392 0.155724 0.425100
O O11 0.606907 0.083479 0.235745
O O12 0.750000 0.993618 0.484665
O O13 0.000000 0.000000 0.479741
O O14 0.552382 0.717873 0.145067
O O15 0.421928 0.734956 0.908441
O O16 0.750000 0.857507 0.109852
O O17 0.930012 0.809884 0.161921
O O18 0.935584 0.907291 0.085202
O O19 0.500000 0.500000 0.649256
O O20 0.250000 0.244914 0.232993
#
# Coordination Sequence:
#
# PCOD9364620 Si02
#       8
#     8   8   8   8   8   8   8   8
#     4  10  21  39  66  96 131 172 222 278 340 410
#     4  10  21  38  63  94 135 175 222 280 335 401
#     4  11  23  41  62  92 135 177 224 281 342 409
#     4  10  21  39  60  90 129 175 223 274 333 399
#     4  12  23  43  70  97 135 174 230 284 355 417
#     4   9  20  40  63  94 133 173 217 280 343 401
#     4  11  22  39  65  96 133 178 233 277 340 404
#     4  11  24  43  68  99 134 175 226 287 352 423
#
# _framework density 21.691638999999999
#
# number of rings (size 3 to 8) (size 9 to 14) (size 15 to 20)
#    0.000    1.500    2.500    2.625    0.000    2.000 
#    0.000    5.000    0.000    0.000    0.000    0.000 
#    0.000    0.000    0.000    0.000    0.000    0.000 
#
# Total GULP energy -178183.614898 kJ/mol
# GULP energy per Si atom -5568.237966 kJ/mol
# Density = 2.164227 g / cm^3
# Si number density = 21.691639 Si / 1000 Ang^3
#
#
#
# Elastic Constant Matrix: (Units=GPa)
#
#
# Indices 1 2 3 4 5 6 
#
# 1 152.9191 33.8450 39.6159 0.0000 0.0000 0.0000
# 2 33.8450 50.1117 13.4798 0.0000 0.0000 0.0000
# 3 39.6159 13.4798 107.4597 0.0000 0.0000 0.0000
# 4 0.0000 0.0000 0.0000 21.9517 0.0000 0.0000
# 5 0.0000 0.0000 0.0000 0.0000 25.5899 0.0000
# 6 0.0000 0.0000 0.0000 0.0000 0.0000 19.7797
#
#
#
# Elastic Compliance Matrix: (Units=1/GPa)
#
#
# Indices 1 2 3 4 5 6 
#
# 1 0.008258 -0.004925 -0.002427 0.000000 0.000000 0.000000
# 2 -0.004925 0.023589 -0.001144 0.000000 0.000000 0.000000
# 3 -0.002427 -0.001144 0.010344 0.000000 0.000000 0.000000
# 4 0.000000 0.000000 0.000000 0.045554 0.000000 0.000000
# 5 0.000000 0.000000 0.000000 0.000000 0.039078 0.000000
# 6 0.000000 0.000000 0.000000 0.000000 0.000000 0.050557
#
#
# Mechanical properties :
#
#
# Convention : Reuss Voigt Hill
#
# Bulk Modulus (GPa) = 39.68041 53.81911 46.74976
# Shear Modulus (GPa) = 24.65846 28.36759 26.51303
#
# Velocity S-wave (km/s) = 3.37526 3.62023 3.49989
# Velocity P-wave (km/s) = 5.78986 6.50689 6.15882
#
# Compressibility (1/GPa) = 0.02520135
#
# Stress axis : x y z
#
# Youngs Moduli (GPa) = 121.09459 42.39254 96.67569
#
# Poissons Ratio (x) = 0.20877 0.23460
# Poissons Ratio (y) = 0.59635 0.11055
# Poissons Ratio (z) = 0.29385 0.04848
#
# Static dielectric constant tensor:
#      x y z
#    x 1.785920 0.000000 0.000000 
#    y 0.000000 1.781550 0.000000 
#    z 0.000000 0.000000 1.854580 
# 
# From -- ./inp_files/5711.got.cif
#   From: 2010.05.17/outbox.cif.g08.bks.cpg/sg40_3_cif.got.tgz:5711.got - 2010.06.03 18:35:42.
