data_PCOD9364035
_publ_section_title
;
Structure prediction by ZEFSAII (Michael W. Deem and Ramdas Pophale) SiO2 
 PCOD9364035
Probable space group: A M A 2
;
_chemical_formula_sum "Si O2"
_cell_formula_units_Z 64
_cell_length_a 17.318432
_cell_length_b 16.438597
_cell_length_c 12.377016
_cell_angle_alpha 90.000000
_cell_angle_beta 90.000000
_cell_angle_gamma 90.000000
_cell_volume 3523.621650
_symmetry_space_group_name_H-M "A M A 2"
_symmetry_group_IT_number 40
_symmetry_cell_setting 'orthorhombic'
loop_
_space_group_symop_operation_xyz
x,y,z
-x,-y,z
1/2-x,y,z
1/2+x,-y,z
x,1/2+y,1/2+z
-x,1/2-y,1/2+z
1/2-x,1/2+y,1/2+z
1/2+x,1/2-y,1/2+z
loop_
_atom_site_type_symbol
_atom_site_label
_atom_site_fract_x
_atom_site_fract_y
_atom_site_fract_z
Si Si1 0.158083 0.602854 0.228600
Si Si2 0.158458 0.863410 0.248014
Si Si3 0.842842 0.779545 0.909354
Si Si4 0.086129 0.462422 0.107276
Si Si5 0.902051 0.253013 0.077021
Si Si6 0.407352 0.010375 0.368231
Si Si7 0.844430 0.806326 0.345494
Si Si8 0.918335 0.731327 0.129525
O O1 0.250000 0.605957 0.226859
O O2 0.131427 0.640552 0.342933
O O3 0.130736 0.513697 0.197385
O O4 0.128380 0.665746 0.137659
O O5 0.250000 0.867722 0.256655
O O6 0.130221 0.797701 0.337641
O O7 0.136676 0.824462 0.133865
O O8 0.124112 0.949933 0.277448
O O9 0.750000 0.778701 0.909785
O O10 0.872344 0.769480 0.029269
O O11 0.087067 0.366664 0.127022
O O12 0.000000 0.500000 0.107898
O O13 0.119072 0.480785 0.987556
O O14 0.992453 0.248364 0.104716
O O15 0.877945 0.262634 0.952882
O O16 0.376228 0.101095 0.351325
O O17 0.500000 0.000000 0.367164
O O18 0.750000 0.804518 0.343872
O O19 0.882440 0.765257 0.240017
#
# Coordination Sequence:
#
# PCOD9364035 Si02
#       8
#     8   8   8   8   8   8   8   8
#     4  10  20  36  61  85 118 160 210 255 300 369
#     4  10  20  36  61  88 117 160 210 253 296 371
#     4   9  20  37  58  87 119 160 207 249 305 372
#     4  11  21  37  58  93 123 159 207 266 313 373
#     4  11  22  38  63  89 124 165 212 253 318 384
#     4  11  21  38  62  92 126 161 217 264 320 375
#     4  12  26  42  62  97 138 171 207 272 339 385
#     4  12  24  39  65  92 132 162 208 264 326 382
#
# _framework density 18.163131
#
# number of rings (size 3 to 8) (size 9 to 14) (size 15 to 20)
#    0.000    1.250    3.750    4.125    3.500    1.500 
#    0.000    1.250    0.000    3.000    0.000    0.000 
#    0.000    0.000    0.000    0.000    0.000    0.000 
#
# Total GULP energy -178647.202877 kJ/mol
# GULP energy per Si atom -5582.725090 kJ/mol
# Density = 1.812179 g / cm^3
# Si number density = 18.163131 Si / 1000 Ang^3
#
#
#
# Elastic Constant Matrix: (Units=GPa)
#
#
# Indices 1 2 3 4 5 6 
#
# 1 84.5449 32.9808 49.0668 0.0000 0.0000 0.0000
# 2 32.9808 65.0352 44.7830 0.0000 0.0000 0.0000
# 3 49.0668 44.7830 135.9713 0.0000 0.0000 0.0000
# 4 0.0000 0.0000 0.0000 23.8045 0.0000 0.0000
# 5 0.0000 0.0000 0.0000 0.0000 24.6905 0.0000
# 6 0.0000 0.0000 0.0000 0.0000 0.0000 13.8730
#
#
#
# Elastic Compliance Matrix: (Units=1/GPa)
#
#
# Indices 1 2 3 4 5 6 
#
# 1 0.016337 -0.005465 -0.004095 0.000000 0.000000 0.000000
# 2 -0.005465 0.021714 -0.005180 0.000000 0.000000 0.000000
# 3 -0.004095 -0.005180 0.010538 0.000000 0.000000 0.000000
# 4 0.000000 0.000000 0.000000 0.042009 0.000000 0.000000
# 5 0.000000 0.000000 0.000000 0.000000 0.040501 0.000000
# 6 0.000000 0.000000 0.000000 0.000000 0.000000 0.072083
#
#
# Mechanical properties :
#
#
# Convention : Reuss Voigt Hill
#
# Bulk Modulus (GPa) = 52.32957 59.91254 56.12106
# Shear Modulus (GPa) = 20.91772 23.05497 21.98635
#
# Velocity S-wave (km/s) = 3.39729 3.56663 3.48299
# Velocity P-wave (km/s) = 6.65298 7.07238 6.86588
#
# Compressibility (1/GPa) = 0.01910965
#
# Stress axis : x y z
#
# Youngs Moduli (GPa) = 61.21218 46.05270 94.89111
#
# Poissons Ratio (x) = 0.25166 0.38862
# Poissons Ratio (y) = 0.33450 0.49152
# Poissons Ratio (z) = 0.25069 0.23854
#
# Static dielectric constant tensor:
#      x y z
#    x 1.593060 0.000000 0.000000 
#    y 0.000000 1.616070 0.000000 
#    z 0.000000 0.000000 1.634290 
# 
# From -- ./inp_files/12464.got.cif
#   From: 2010.05.17/outbox.cif.g08.bks.cpg/sg40_7_cif.got.tgz:12464.got - 2010.06.03 18:35:42.
