data_PCOD9364634
_publ_section_title
;
Structure prediction by ZEFSAII (Michael W. Deem and Ramdas Pophale) SiO2 
 PCOD9364634
Probable space group: A M A 2
;
_chemical_formula_sum "Si O2"
_cell_formula_units_Z 48
_cell_length_a 25.061799
_cell_length_b 5.653179
_cell_length_c 13.186213
_cell_angle_alpha 90.000000
_cell_angle_beta 90.000000
_cell_angle_gamma 90.000000
_cell_volume 1868.207307
_symmetry_space_group_name_H-M "A M A 2"
_symmetry_group_IT_number 40
_symmetry_cell_setting 'orthorhombic'
loop_
_space_group_symop_operation_xyz
x,y,z
-x,-y,z
1/2-x,y,z
1/2+x,-y,z
x,1/2+y,1/2+z
-x,1/2-y,1/2+z
1/2-x,1/2+y,1/2+z
1/2+x,1/2-y,1/2+z
loop_
_atom_site_type_symbol
_atom_site_label
_atom_site_fract_x
_atom_site_fract_y
_atom_site_fract_z
Si Si1 0.581901 0.312622 0.720340
Si Si2 0.810082 0.995600 0.893062
Si Si3 0.868894 0.011251 0.394174
Si Si4 0.882249 0.907150 0.619144
Si Si5 0.010092 0.766494 0.052354
Si Si6 0.307914 0.975570 0.133332
O O1 0.579172 0.452405 0.825378
O O2 0.530965 0.300618 0.646592
O O3 0.640011 0.402705 0.679668
O O4 0.595993 0.034352 0.718716
O O5 0.750000 0.005938 0.851045
O O6 0.838479 0.749038 0.860110
O O7 0.837185 0.258006 0.884762
O O8 0.805994 0.964765 0.014910
O O9 0.880647 0.049613 0.513204
O O10 0.824340 0.800239 0.635388
O O11 0.928890 0.724014 0.589703
O O12 0.000000 0.500000 0.015428
O O13 0.000000 0.000000 0.984931
O O14 0.250000 0.024774 0.178963
#
# Coordination Sequence:
#
# PCOD9364634 Si02
#       6
#     8   8   8   8   8   8
#     4  11  23  41  65  98 132 171 227 279 337 399
#     4  10  22  42  63  93 134 179 222 273 331 399
#     4  11  24  39  67  95 131 174 223 276 333 408
#     4  10  22  44  64  93 136 175 220 278 342 395
#     4  10  21  39  68  89 124 177 207 271 335 383
#     4  10  21  38  67  93 129 178 219 267 338 400
#
# _framework density 25.693078
#
# number of rings (size 3 to 8) (size 9 to 14) (size 15 to 20)
#    0.000    1.667    3.333    0.500    2.333    2.667 
#    0.000    5.000    0.000    0.000    0.000    0.000 
#    0.000    0.000    0.000    0.000    0.000    0.000 
#
# Total GULP energy -133670.128207 kJ/mol
# GULP energy per Si atom -5569.588675 kJ/mol
# Density = 2.563460 g / cm^3
# Si number density = 25.693078 Si / 1000 Ang^3
#
#
#
# Elastic Constant Matrix: (Units=GPa)
#
#
# Indices 1 2 3 4 5 6 
#
# 1 125.5109 32.7411 12.7027 0.0000 0.0000 0.0000
# 2 32.7411 149.5851 7.4656 0.0000 0.0000 0.0000
# 3 12.7027 7.4656 92.7672 0.0000 0.0000 0.0000
# 4 0.0000 0.0000 0.0000 31.5405 0.0000 0.0000
# 5 0.0000 0.0000 0.0000 0.0000 28.0318 0.0000
# 6 0.0000 0.0000 0.0000 0.0000 0.0000 23.1509
#
#
#
# Elastic Compliance Matrix: (Units=1/GPa)
#
#
# Indices 1 2 3 4 5 6 
#
# 1 0.008546 -0.001819 -0.001024 0.000000 0.000000 0.000000
# 2 -0.001819 0.007099 -0.000322 0.000000 0.000000 0.000000
# 3 -0.001024 -0.000322 0.010946 0.000000 0.000000 0.000000
# 4 0.000000 0.000000 0.000000 0.031705 0.000000 0.000000
# 5 0.000000 0.000000 0.000000 0.000000 0.035674 0.000000
# 6 0.000000 0.000000 0.000000 0.000000 0.000000 0.043195
#
#
# Mechanical properties :
#
#
# Convention : Reuss Voigt Hill
#
# Bulk Modulus (GPa) = 49.35777 52.63134 50.99456
# Shear Modulus (GPa) = 33.27808 37.54154 35.40981
#
# Velocity S-wave (km/s) = 3.60282 3.82665 3.71642
# Velocity P-wave (km/s) = 6.04643 6.32878 6.18921
#
# Compressibility (1/GPa) = 0.02026023
#
# Stress axis : x y z
#
# Youngs Moduli (GPa) = 117.01853 140.85575 91.35936
#
# Poissons Ratio (x) = 0.25627 0.09353
# Poissons Ratio (y) = 0.21290 0.02944
# Poissons Ratio (z) = 0.11980 0.04539
#
# Static dielectric constant tensor:
#      x y z
#    x 2.033950 0.000000 0.000000 
#    y 0.000000 2.280340 0.000000 
#    z 0.000000 0.000000 2.107870 
# 
# From -- ./inp_files/18643.got.cif
#   From: 2010.05.17/outbox.cif.g08.bks.cpg/sg40_10_cif.got.tgz:18643.got - 2010.06.03 18:35:42.
