data_PCOD9364689
_publ_section_title
;
Structure prediction by ZEFSAII (Michael W. Deem and Ramdas Pophale) SiO2 
 PCOD9364689
Probable space group: A M A 2
;
_chemical_formula_sum "Si O2"
_cell_formula_units_Z 40
_cell_length_a 16.500225
_cell_length_b 4.948632
_cell_length_c 22.336991
_cell_angle_alpha 90.000000
_cell_angle_beta 90.000000
_cell_angle_gamma 90.000000
_cell_volume 1823.894420
_symmetry_space_group_name_H-M "A M A 2"
_symmetry_group_IT_number 40
_symmetry_cell_setting 'orthorhombic'
loop_
_space_group_symop_operation_xyz
x,y,z
-x,-y,z
1/2-x,y,z
1/2+x,-y,z
x,1/2+y,1/2+z
-x,1/2-y,1/2+z
1/2-x,1/2+y,1/2+z
1/2+x,1/2-y,1/2+z
loop_
_atom_site_type_symbol
_atom_site_label
_atom_site_fract_x
_atom_site_fract_y
_atom_site_fract_z
Si Si1 0.156995 0.975251 0.468860
Si Si2 0.343385 0.492962 0.386614
Si Si3 0.656960 0.587347 0.687252
Si Si4 0.053906 0.246440 0.574127
Si Si5 0.592273 0.078261 0.755052
O O1 0.250000 0.921953 0.489280
O O2 0.159005 0.205444 0.418612
O O3 0.104415 0.096453 0.522399
O O4 0.124989 0.708815 0.435263
O O5 0.250000 0.575867 0.372912
O O6 0.391048 0.463346 0.325228
O O7 0.750000 0.506857 0.678717
O O8 0.611549 0.624812 0.624402
O O9 0.612168 0.374078 0.730199
O O10 0.650254 0.874345 0.719737
O O11 0.000000 0.500000 0.552270
O O12 0.000000 0.000000 0.600378
O O13 0.500000 0.000000 0.742628
#
# Coordination Sequence:
#
# PCOD9364689 Si02
#       5
#     8   8   8   8   8
#     4  10  22  41  64  91 126 169 216 262 316 387
#     4  10  21  39  64  93 127 168 214 262 317 387
#     4  12  25  44  68  93 128 175 223 266 324 398
#     4  12  25  42  65  95 132 169 216 275 332 387
#     4  12  25  42  66  98 133 167 214 275 334 387
#
# _framework density 21.931096
#
# number of rings (size 3 to 8) (size 9 to 14) (size 15 to 20)
#    0.000    0.800    0.000    8.400    0.000    4.000 
#    0.000    6.000    0.000    0.000    0.000    0.000 
#    0.000    0.000    0.000    0.000    0.000    0.000 
#
# Total GULP energy -111941.585229 kJ/mol
# GULP energy per Si atom -5597.079261 kJ/mol
# Density = 2.188118 g / cm^3
# Si number density = 21.931096 Si / 1000 Ang^3
#
#
#
# Elastic Constant Matrix: (Units=GPa)
#
#
# Indices 1 2 3 4 5 6 
#
# 1 105.4539 9.2722 49.1789 0.0000 0.0000 0.0000
# 2 9.2722 84.7413 -2.6853 0.0000 0.0000 0.0000
# 3 49.1789 -2.6853 91.8304 0.0000 0.0000 0.0000
# 4 0.0000 0.0000 0.0000 33.2329 0.0000 0.0000
# 5 0.0000 0.0000 0.0000 0.0000 23.4590 0.0000
# 6 0.0000 0.0000 0.0000 0.0000 0.0000 12.3736
#
#
#
# Elastic Compliance Matrix: (Units=1/GPa)
#
#
# Indices 1 2 3 4 5 6 
#
# 1 0.012860 -0.001627 -0.006935 0.000000 0.000000 0.000000
# 2 -0.001627 0.012017 0.001223 0.000000 0.000000 0.000000
# 3 -0.006935 0.001223 0.014639 0.000000 0.000000 0.000000
# 4 0.000000 0.000000 0.000000 0.030091 0.000000 0.000000
# 5 0.000000 0.000000 0.000000 0.000000 0.042628 0.000000
# 6 0.000000 0.000000 0.000000 0.000000 0.000000 0.080817
#
#
# Mechanical properties :
#
#
# Convention : Reuss Voigt Hill
#
# Bulk Modulus (GPa) = 40.25947 43.72857 41.99402
# Shear Modulus (GPa) = 23.14719 28.89707 26.02213
#
# Velocity S-wave (km/s) = 3.25229 3.63386 3.44836
# Velocity P-wave (km/s) = 5.70091 6.13098 5.91985
#
# Compressibility (1/GPa) = 0.02483887
#
# Stress axis : x y z
#
# Youngs Moduli (GPa) = 77.76168 83.21293 68.31016
#
# Poissons Ratio (x) = 0.13537 0.47370
# Poissons Ratio (y) = 0.12650 -0.08352
# Poissons Ratio (z) = 0.53924 -0.10174
#
# Static dielectric constant tensor:
#      x y z
#    x 1.838130 0.000000 0.000000 
#    y 0.000000 1.763360 0.000000 
#    z 0.000000 0.000000 1.772650 
# 
# From -- ./inp_files/24676.got.cif
#   From: 2010.05.17/outbox.cif.g08.bks.cpg/sg40_13_cif.got.tgz:24676.got - 2010.06.03 18:35:42.
