data_PCOD9364411
_publ_section_title
;
Structure prediction by ZEFSAII (Michael W. Deem and Ramdas Pophale) SiO2 
 PCOD9364411
Probable space group: A M A 2
;
_chemical_formula_sum "Si O2"
_cell_formula_units_Z 64
_cell_length_a 21.473136
_cell_length_b 18.591741
_cell_length_c 9.294594
_cell_angle_alpha 90.000000
_cell_angle_beta 90.000000
_cell_angle_gamma 90.000000
_cell_volume 3710.615542
_symmetry_space_group_name_H-M "A M A 2"
_symmetry_group_IT_number 40
_symmetry_cell_setting 'orthorhombic'
loop_
_space_group_symop_operation_xyz
x,y,z
-x,-y,z
1/2-x,y,z
1/2+x,-y,z
x,1/2+y,1/2+z
-x,1/2-y,1/2+z
1/2-x,1/2+y,1/2+z
1/2+x,1/2-y,1/2+z
loop_
_atom_site_type_symbol
_atom_site_label
_atom_site_fract_x
_atom_site_fract_y
_atom_site_fract_z
Si Si1 0.178973 0.017376 0.181180
Si Si2 0.821027 0.017376 0.500780
Si Si3 0.180587 0.635344 0.157982
Si Si4 0.080780 0.750000 0.090981
Si Si5 0.892675 0.077456 0.761619
Si Si6 0.000000 0.683618 0.340980
Si Si7 0.180587 0.864656 0.023977
Si Si8 0.107325 0.577456 0.420341
O O1 0.250000 0.046889 0.192038
O O2 0.155747 0.999999 0.340980
O O3 0.135185 0.063963 0.078024
O O4 0.183170 0.941024 0.101938
O O5 0.750000 0.046889 0.489923
O O6 0.864815 0.063963 0.603937
O O7 0.816831 0.941024 0.580019
O O8 0.250000 0.667019 0.157003
O O9 0.128282 0.683089 0.081058
O O10 0.157905 0.617457 0.319389
O O11 0.037746 0.731997 0.227541
O O12 0.128282 0.816911 0.100904
O O13 0.037746 0.768004 0.954421
O O14 0.842095 0.117458 0.862570
O O15 0.952161 0.129322 0.762014
O O16 0.905528 0.000000 0.840980
O O17 0.047839 0.629322 0.419946
O O18 0.250000 0.832981 0.024957
#
# Coordination Sequence:
#
# PCOD9364411 Si02
#       8
#     8   8   8   8   8   8   8   8
#     4   9  17  29  49  78 103 120 147 195 252 297
#     4   9  17  29  49  78 103 120 147 195 252 297
#     4   9  17  31  51  72  95 124 160 199 238 286
#     4  10  21  34  48  68  93 130 168 200 236 280
#     4   9  17  31  51  71  94 126 161 199 243 288
#     4  10  21  34  48  66  95 132 170 204 236 286
#     4   9  17  31  51  72  95 124 160 199 238 286
#     4   9  17  31  51  71  94 126 161 199 243 288
#
# _framework density 17.247813000000001
#
# number of rings (size 3 to 8) (size 9 to 14) (size 15 to 20)
#    0.000    2.750    0.000    1.500    0.000    5.000 
#    0.000    0.000    0.000   13.500    0.000   17.500 
#    0.000    0.000    0.000    0.000    0.000    0.000 
#
# Total GULP energy -178159.062254 kJ/mol
# GULP energy per Si atom -5567.470695 kJ/mol
# Density = 1.720856 g / cm^3
# Si number density = 17.247813 Si / 1000 Ang^3
#
#
#
# Elastic Constant Matrix: (Units=GPa)
#
#
# Indices 1 2 3 4 5 6 
#
# 1 127.1456 49.2134 68.6128 0.0000 0.0000 0.0000
# 2 49.2134 54.0369 31.5927 0.0000 0.0000 0.0000
# 3 68.6128 31.5927 122.8581 0.0000 0.0000 0.0000
# 4 0.0000 0.0000 0.0000 24.1820 0.0000 0.0000
# 5 0.0000 0.0000 0.0000 0.0000 -2.5536 0.0000
# 6 0.0000 0.0000 0.0000 0.0000 0.0000 26.2596
#
#
#
# Elastic Compliance Matrix: (Units=1/GPa)
#
#
# Indices 1 2 3 4 5 6 
#
# 1 0.014899 -0.010244 -0.005686 0.000000 0.000000 0.000000
# 2 -0.010244 0.028824 -0.001691 0.000000 0.000000 0.000000
# 3 -0.005686 -0.001691 0.011750 0.000000 0.000000 0.000000
# 4 0.000000 0.000000 0.000000 0.041353 0.000000 0.000000
# 5 0.000000 0.000000 0.000000 0.000000 -0.391597 0.000000
# 6 0.000000 0.000000 0.000000 0.000000 0.000000 0.038081
#
#
# Mechanical properties :
#
#
# Convention : Reuss Voigt Hill
#
# Bulk Modulus (GPa) = 49.43155 66.98650 58.20903
# Shear Modulus (GPa) = -23.28796 19.88571 -1.70113
#
# Velocity S-wave (km/s) = -3.67849 3.39918 -0.99420
# Velocity P-wave (km/s) = 3.26804 7.37075 5.70123
#
# Compressibility (1/GPa) = 0.02022999
#
# Stress axis : x y z
#
# Youngs Moduli (GPa) = 67.11978 34.69277 85.10730
#
# Poissons Ratio (x) = 0.35541 0.48394
# Poissons Ratio (y) = 0.68760 0.14391
# Poissons Ratio (z) = 0.38166 0.05866
#
# Static dielectric constant tensor:
#      x y z
#    x 1.607160 0.000000 0.000000 
#    y 0.000000 1.579790 0.000000 
#    z 0.000000 0.000000 1.577810 
# 
# From -- ./inp_files/8446.got.cif
#   From: 2010.05.17/outbox.cif.g08.bks.cpg/sg40_5_cif.got.tgz:8446.got - 2010.06.03 18:35:42.
