data_PCOD9364021
_publ_section_title
;
Structure prediction by ZEFSAII (Michael W. Deem and Ramdas Pophale) SiO2 
 PCOD9364021
Probable space group: A M A 2
;
_chemical_formula_sum "Si O2"
_cell_formula_units_Z 48
_cell_length_a 17.362852
_cell_length_b 9.947371
_cell_length_c 15.016421
_cell_angle_alpha 90.000000
_cell_angle_beta 90.000000
_cell_angle_gamma 90.000000
_cell_volume 2593.557106
_symmetry_space_group_name_H-M "A M A 2"
_symmetry_group_IT_number 40
_symmetry_cell_setting 'orthorhombic'
loop_
_space_group_symop_operation_xyz
x,y,z
-x,-y,z
1/2-x,y,z
1/2+x,-y,z
x,1/2+y,1/2+z
-x,1/2-y,1/2+z
1/2-x,1/2+y,1/2+z
1/2+x,1/2-y,1/2+z
loop_
_atom_site_type_symbol
_atom_site_label
_atom_site_fract_x
_atom_site_fract_y
_atom_site_fract_z
Si Si1 0.907615 0.984057 0.245030
Si Si2 0.434326 0.236311 0.103936
Si Si3 0.662184 0.551824 0.200691
Si Si4 0.161602 0.741557 0.867224
Si Si5 0.505101 0.160762 0.922349
Si Si6 0.425183 0.223271 0.735435
O O1 0.901804 0.897130 0.153928
O O2 0.865173 0.897049 0.320202
O O3 0.879083 0.136656 0.238067
O O4 0.000000 0.000000 0.263223
O O5 0.380901 0.362579 0.125512
O O6 0.513995 0.264168 0.155536
O O7 0.452088 0.214337 0.001525
O O8 0.750000 0.530722 0.175707
O O9 0.659221 0.646241 0.288595
O O10 0.622797 0.411134 0.222153
O O11 0.250000 0.734057 0.899831
O O12 0.092948 0.787167 0.932471
O O13 0.473668 0.208272 0.826711
O O14 0.500000 0.000000 0.924285
#
# Coordination Sequence:
#
# PCOD9364021 Si02
#       6
#     8   8   8   8   8   8
#     4   9  17  35  58  83 117 150 199 243 296 360
#     4  10  21  37  59  88 117 156 204 250 292 369
#     4  10  20  39  61  86 122 158 195 255 314 357
#     4  10  20  36  60  88 119 154 195 252 312 353
#     4  12  20  36  65  91 115 160 215 249 292 368
#     4  11  19  38  60  89 116 154 208 243 300 361
#
# _framework density 18.507401000000002
#
# number of rings (size 3 to 8) (size 9 to 14) (size 15 to 20)
#    0.000    1.667    6.667    2.000    0.000    0.667 
#    6.000    2.500    0.000    5.000    0.000    0.000 
#    0.000    0.000    0.000    0.000    0.000    0.000 
#
# Total GULP energy -133899.039064 kJ/mol
# GULP energy per Si atom -5579.126628 kJ/mol
# Density = 1.846528 g / cm^3
# Si number density = 18.507401 Si / 1000 Ang^3
#
#
#
# Elastic Constant Matrix: (Units=GPa)
#
#
# Indices 1 2 3 4 5 6 
#
# 1 71.6501 53.3890 9.1951 0.0000 0.0000 0.0000
# 2 53.3890 133.0275 24.2499 0.0000 0.0000 0.0000
# 3 9.1951 24.2499 30.3018 0.0000 0.0000 0.0000
# 4 0.0000 0.0000 0.0000 12.1235 0.0000 0.0000
# 5 0.0000 0.0000 0.0000 0.0000 18.2960 0.0000
# 6 0.0000 0.0000 0.0000 0.0000 0.0000 19.2312
#
#
#
# Elastic Compliance Matrix: (Units=1/GPa)
#
#
# Indices 1 2 3 4 5 6 
#
# 1 0.019916 -0.008068 0.000413 0.000000 0.000000 0.000000
# 2 -0.008068 0.012070 -0.007211 0.000000 0.000000 0.000000
# 3 0.000413 -0.007211 0.038647 0.000000 0.000000 0.000000
# 4 0.000000 0.000000 0.000000 0.082485 0.000000 0.000000
# 5 0.000000 0.000000 0.000000 0.000000 0.054657 0.000000
# 6 0.000000 0.000000 0.000000 0.000000 0.000000 0.051999
#
#
# Mechanical properties :
#
#
# Convention : Reuss Voigt Hill
#
# Bulk Modulus (GPa) = 24.44952 45.40526 34.92739
# Shear Modulus (GPa) = 16.49418 19.80650 18.15034
#
# Velocity S-wave (km/s) = 2.98857 3.27493 3.13502
# Velocity P-wave (km/s) = 5.01479 6.23595 5.65841
#
# Compressibility (1/GPa) = 0.04090060
#
# Stress axis : x y z
#
# Youngs Moduli (GPa) = 50.21194 82.85122 25.87552
#
# Poissons Ratio (x) = 0.66846 -0.01070
# Poissons Ratio (y) = 0.40512 0.18659
# Poissons Ratio (z) = -0.02076 0.59743
#
# Static dielectric constant tensor:
#      x y z
#    x 1.646130 0.000000 0.000000 
#    y 0.000000 1.661230 0.000000 
#    z 0.000000 0.000000 1.615410 
# 
# From -- ./inp_files/17613.got.cif
#   From: 2010.05.17/outbox.cif.g08.bks.cpg/sg40_9_cif.got.tgz:17613.got - 2010.06.03 18:35:42.
