data_PCOD9364901
_publ_section_title
;
Structure prediction by ZEFSAII (Michael W. Deem and Ramdas Pophale) SiO2 
 PCOD9364901
Probable space group: A M A 2
;
_chemical_formula_sum "Si O2"
_cell_formula_units_Z 48
_cell_length_a 9.339139
_cell_length_b 23.716151
_cell_length_c 11.928686
_cell_angle_alpha 90.000000
_cell_angle_beta 90.000000
_cell_angle_gamma 90.000000
_cell_volume 2642.065943
_symmetry_space_group_name_H-M "A M A 2"
_symmetry_group_IT_number 40
_symmetry_cell_setting 'orthorhombic'
loop_
_space_group_symop_operation_xyz
x,y,z
-x,-y,z
1/2-x,y,z
1/2+x,-y,z
x,1/2+y,1/2+z
-x,1/2-y,1/2+z
1/2-x,1/2+y,1/2+z
1/2+x,1/2-y,1/2+z
loop_
_atom_site_type_symbol
_atom_site_label
_atom_site_fract_x
_atom_site_fract_y
_atom_site_fract_z
Si Si1 0.578881 0.939863 0.285210
Si Si2 0.080173 0.441574 0.209855
Si Si3 0.581423 0.345039 0.617379
Si Si4 0.916858 0.267804 0.156104
Si Si5 0.921006 0.874913 0.516277
Si Si6 0.084173 0.643232 0.353210
O O1 0.750000 0.950651 0.279885
O O2 0.533121 0.902903 0.177225
O O3 0.554327 0.898188 0.391629
O O4 0.500000 0.000000 0.295835
O O5 0.250000 0.447507 0.203061
O O6 0.000000 0.500000 0.223453
O O7 0.015282 0.412821 0.098762
O O8 0.029345 0.401998 0.310910
O O9 0.750000 0.340435 0.642880
O O10 0.504710 0.289212 0.660596
O O11 0.564034 0.345543 0.483655
O O12 0.750000 0.253984 0.142770
O O13 0.955698 0.310554 0.053370
O O14 0.933707 0.303482 0.270623
O O15 0.750000 0.881755 0.540193
O O16 0.250000 0.623721 0.336470
#
# Coordination Sequence:
#
# PCOD9364901 Si02
#       6
#     8   8   8   8   8   8
#     4  10  22  39  58  83 116 156 196 238 286 341
#     4  11  21  34  56  84 111 145 187 233 283 337
#     4  10  22  38  58  83 114 152 190 234 287 343
#     4   9  19  35  57  83 113 148 186 236 291 340
#     4   9  19  37  58  83 117 151 186 236 290 336
#     4   9  20  39  56  78 113 148 186 235 284 335
#
# _framework density 18.167601000000001
#
# number of rings (size 3 to 8) (size 9 to 14) (size 15 to 20)
#    0.000    2.333    0.000    3.000    2.333    6.667 
#    0.000    1.667    0.000    0.000    0.000    0.000 
#    0.000    0.000    0.000    0.000    0.000    0.000 
#
# Total GULP energy -133831.288196 kJ/mol
# GULP energy per Si atom -5576.303675 kJ/mol
# Density = 1.812625 g / cm^3
# Si number density = 18.167601 Si / 1000 Ang^3
#
#
#
# Elastic Constant Matrix: (Units=GPa)
#
#
# Indices 1 2 3 4 5 6 
#
# 1 53.5968 34.4702 21.8997 0.0000 0.0000 0.0000
# 2 34.4702 85.2350 29.8408 0.0000 0.0000 0.0000
# 3 21.8997 29.8408 68.4973 0.0000 0.0000 0.0000
# 4 0.0000 0.0000 0.0000 10.1441 0.0000 0.0000
# 5 0.0000 0.0000 0.0000 0.0000 24.4094 0.0000
# 6 0.0000 0.0000 0.0000 0.0000 0.0000 39.1672
#
#
#
# Elastic Compliance Matrix: (Units=1/GPa)
#
#
# Indices 1 2 3 4 5 6 
#
# 1 0.026322 -0.009084 -0.004458 0.000000 0.000000 0.000000
# 2 -0.009084 0.016979 -0.004492 0.000000 0.000000 0.000000
# 3 -0.004458 -0.004492 0.017982 0.000000 0.000000 0.000000
# 4 0.000000 0.000000 0.000000 0.098579 0.000000 0.000000
# 5 0.000000 0.000000 0.000000 0.000000 0.040968 0.000000
# 6 0.000000 0.000000 0.000000 0.000000 0.000000 0.025532
#
#
# Mechanical properties :
#
#
# Convention : Reuss Voigt Hill
#
# Bulk Modulus (GPa) = 39.66220 42.19451 40.92835
# Shear Modulus (GPa) = 18.46146 22.81870 20.64008
#
# Velocity S-wave (km/s) = 3.19121 3.54787 3.37425
# Velocity P-wave (km/s) = 5.95459 6.32920 6.14475
#
# Compressibility (1/GPa) = 0.02521293
#
# Stress axis : x y z
#
# Youngs Moduli (GPa) = 37.99138 58.89688 55.61259
#
# Poissons Ratio (x) = 0.53503 0.24792
# Poissons Ratio (y) = 0.34512 0.24984
# Poissons Ratio (z) = 0.16937 0.26459
#
# Static dielectric constant tensor:
#      x y z
#    x 1.603500 0.000000 0.000000 
#    y 0.000000 1.616800 0.000000 
#    z 0.000000 0.000000 1.642020 
# 
# From -- ./inp_files/10231.got.cif
#   From: 2010.05.17/outbox.cif.g08.bks.cpg/sg40_6_cif.got.tgz:10231.got - 2010.06.03 18:35:42.
