data_PCOD9364173
_publ_section_title
;
Structure prediction by ZEFSAII (Michael W. Deem and Ramdas Pophale) SiO2 
 PCOD9364173
Probable space group: A M A 2
;
_chemical_formula_sum "Si O2"
_cell_formula_units_Z 60
_cell_length_a 23.364393
_cell_length_b 8.726661
_cell_length_c 12.838567
_cell_angle_alpha 90.000000
_cell_angle_beta 90.000000
_cell_angle_gamma 90.000000
_cell_volume 2617.695703
_symmetry_space_group_name_H-M "A M A 2"
_symmetry_group_IT_number 40
_symmetry_cell_setting 'orthorhombic'
loop_
_space_group_symop_operation_xyz
x,y,z
-x,-y,z
1/2-x,y,z
1/2+x,-y,z
x,1/2+y,1/2+z
-x,1/2-y,1/2+z
1/2-x,1/2+y,1/2+z
1/2+x,1/2-y,1/2+z
loop_
_atom_site_type_symbol
_atom_site_label
_atom_site_fract_x
_atom_site_fract_y
_atom_site_fract_z
Si Si1 0.000000 0.000000 0.169410
Si Si2 0.502477 0.755386 0.352726
Si Si3 0.813709 0.296088 0.660556
Si Si4 0.879918 0.085605 0.115645
Si Si5 0.626661 0.280491 0.322433
Si Si6 0.593506 0.083670 0.730929
Si Si7 0.310756 0.912441 0.463952
Si Si8 0.414713 0.600845 0.017485
O O1 0.942447 0.009166 0.103458
O O2 0.001423 0.143373 0.247007
O O3 0.436132 0.722085 0.376204
O O4 0.543104 0.618906 0.312696
O O5 0.531959 0.846424 0.447521
O O6 0.750000 0.313900 0.706948
O O7 0.832559 0.454572 0.605316
O O8 0.868453 0.238241 0.725957
O O9 0.810407 0.154913 0.579771
O O10 0.874639 0.152284 0.232419
O O11 0.883107 0.241364 0.050352
O O12 0.632474 0.447736 0.274896
O O13 0.678756 0.235769 0.394309
O O14 0.572752 0.007528 0.619624
O O15 0.250000 0.988069 0.441684
O O16 0.367407 0.011643 0.450718
#
# Coordination Sequence:
#
# PCOD9364173 Si02
#       8
#     4   8   8   8   8   8   8   8
#     4  10  20  38  58  92 132 160 210 276 314 396
#     4  11  21  41  64  94 137 163 217 270 325 402
#     4  10  22  41  65  91 126 170 218 271 327 390
#     4  10  21  39  60  93 125 165 214 262 327 396
#     4  10  23  41  62  94 126 164 214 268 324 394
#     4  10  22  43  65  94 134 167 214 271 329 395
#     4  10  23  43  63  90 126 167 219 274 321 389
#     4  10  23  41  65  95 126 177 215 262 343 395
#
# _framework density 22.920922999999998
#
# number of rings (size 3 to 8) (size 9 to 14) (size 15 to 20)
#    0.000    1.867    1.333    2.000    1.867    2.667 
#   24.000    2.667    0.000    0.000    0.000    0.000 
#    0.000    0.000    0.000    0.000    0.000    0.000 
#
# Total GULP energy -167389.592527 kJ/mol
# GULP energy per Si atom -5579.653084 kJ/mol
# Density = 2.286875 g / cm^3
# Si number density = 22.920923 Si / 1000 Ang^3
#
#
#
# Elastic Constant Matrix: (Units=GPa)
#
#
# Indices 1 2 3 4 5 6 
#
# 1 73.2838 15.7089 10.2955 0.0000 0.0000 0.0000
# 2 15.7089 78.4915 8.3572 0.0000 0.0000 0.0000
# 3 10.2955 8.3572 48.7084 0.0000 0.0000 0.0000
# 4 0.0000 0.0000 0.0000 28.7340 0.0000 0.0000
# 5 0.0000 0.0000 0.0000 0.0000 10.3073 0.0000
# 6 0.0000 0.0000 0.0000 0.0000 0.0000 13.2394
#
#
#
# Elastic Compliance Matrix: (Units=1/GPa)
#
#
# Indices 1 2 3 4 5 6 
#
# 1 0.014580 -0.002638 -0.002629 0.000000 0.000000 0.000000
# 2 -0.002638 0.013455 -0.001751 0.000000 0.000000 0.000000
# 3 -0.002629 -0.001751 0.021386 0.000000 0.000000 0.000000
# 4 0.000000 0.000000 0.000000 0.034802 0.000000 0.000000
# 5 0.000000 0.000000 0.000000 0.000000 0.097018 0.000000
# 6 0.000000 0.000000 0.000000 0.000000 0.000000 0.075532
#
#
# Mechanical properties :
#
#
# Convention : Reuss Voigt Hill
#
# Bulk Modulus (GPa) = 28.26046 29.91187 29.08616
# Shear Modulus (GPa) = 17.69249 21.53094 19.61171
#
# Velocity S-wave (km/s) = 2.78131 3.06822 2.92828
# Velocity P-wave (km/s) = 4.76136 5.06264 4.91431
#
# Compressibility (1/GPa) = 0.03538513
#
# Stress axis : x y z
#
# Youngs Moduli (GPa) = 68.58500 74.32382 46.75848
#
# Poissons Ratio (x) = 0.19607 0.12294
# Poissons Ratio (y) = 0.18094 0.08187
# Poissons Ratio (z) = 0.18033 0.13013
#
# Static dielectric constant tensor:
#      x y z
#    x 1.912010 0.000000 0.000000 
#    y 0.000000 1.956550 0.000000 
#    z 0.000000 0.000000 1.896380 
# 
# From -- ./inp_files/18474.got.cif
#   From: 2010.05.17/outbox.cif.g08.bks.cpg/sg40_10_cif.got.tgz:18474.got - 2010.06.03 18:35:42.
