data_PCOD9364888
_publ_section_title
;
Structure prediction by ZEFSAII (Michael W. Deem and Ramdas Pophale) SiO2 
 PCOD9364888
Probable space group: A M A 2
;
_chemical_formula_sum "Si O2"
_cell_formula_units_Z 56
_cell_length_a 20.771653
_cell_length_b 16.329243
_cell_length_c 9.016312
_cell_angle_alpha 90.000000
_cell_angle_beta 90.000000
_cell_angle_gamma 90.000000
_cell_volume 3058.201116
_symmetry_space_group_name_H-M "A M A 2"
_symmetry_group_IT_number 40
_symmetry_cell_setting 'orthorhombic'
loop_
_space_group_symop_operation_xyz
x,y,z
-x,-y,z
1/2-x,y,z
1/2+x,-y,z
x,1/2+y,1/2+z
-x,1/2-y,1/2+z
1/2-x,1/2+y,1/2+z
1/2+x,1/2-y,1/2+z
loop_
_atom_site_type_symbol
_atom_site_label
_atom_site_fract_x
_atom_site_fract_y
_atom_site_fract_z
Si Si1 0.179860 0.372328 0.452550
Si Si2 0.084568 0.224079 0.437126
Si Si3 0.019836 0.805179 0.190434
Si Si4 0.447002 0.562671 0.499495
Si Si5 0.824714 0.430679 0.959202
Si Si6 0.677176 0.452252 0.311361
Si Si7 0.380910 0.943283 0.235602
O O1 0.250000 0.334216 0.437296
O O2 0.125865 0.306437 0.421382
O O3 0.174615 0.451085 0.348028
O O4 0.170449 0.407387 0.618663
O O5 0.029799 0.221716 0.314035
O O6 0.130374 0.145947 0.418718
O O7 0.054472 0.232088 0.602041
O O8 0.070955 0.867950 0.263812
O O9 0.983143 0.858526 0.063869
O O10 0.500000 0.500000 0.429025
O O11 0.384998 0.582528 0.398257
O O12 0.419752 0.511313 0.640174
O O13 0.750000 0.417354 0.917459
O O14 0.850587 0.511227 0.875057
O O15 0.827939 0.439355 0.136535
O O16 0.750000 0.424400 0.358763
#
# Coordination Sequence:
#
# PCOD9364888 Si02
#       7
#     8   8   8   8   8   8   8
#     4   9  18  37  59  78 107 150 190 225 281 348
#     4  11  23  37  55  84 116 150 186 236 286 340
#     4  10  22  37  54  80 119 152 190 230 288 345
#     4   9  17  36  57  80 108 146 194 230 271 341
#     4  11  22  37  59  89 116 141 187 245 290 332
#     4   9  20  36  57  84 113 147 190 237 288 342
#     4   9  18  36  59  80 107 148 190 233 273 340
#
# _framework density 18.311418
#
# number of rings (size 3 to 8) (size 9 to 14) (size 15 to 20)
#    0.000    2.286    1.429    1.714    2.000    1.714 
#    2.571    0.000    0.000    0.000    0.000    0.000 
#    0.000    0.000    0.000    0.000    0.000    0.000 
#
# Total GULP energy -156122.583388 kJ/mol
# GULP energy per Si atom -5575.806550 kJ/mol
# Density = 1.826974 g / cm^3
# Si number density = 18.311418 Si / 1000 Ang^3
#
#
#
# Elastic Constant Matrix: (Units=GPa)
#
#
# Indices 1 2 3 4 5 6 
#
# 1 108.5715 28.4557 27.6991 0.0000 0.0000 0.0000
# 2 28.4557 48.7076 18.5708 0.0000 0.0000 0.0000
# 3 27.6991 18.5708 29.2278 0.0000 0.0000 0.0000
# 4 0.0000 0.0000 0.0000 19.9186 0.0000 0.0000
# 5 0.0000 0.0000 0.0000 0.0000 26.5611 0.0000
# 6 0.0000 0.0000 0.0000 0.0000 0.0000 16.8844
#
#
#
# Elastic Compliance Matrix: (Units=1/GPa)
#
#
# Indices 1 2 3 4 5 6 
#
# 1 0.012638 -0.003717 -0.009615 0.000000 0.000000 0.000000
# 2 -0.003717 0.028188 -0.014387 0.000000 0.000000 0.000000
# 3 -0.009615 -0.014387 0.052467 0.000000 0.000000 0.000000
# 4 0.000000 0.000000 0.000000 0.050204 0.000000 0.000000
# 5 0.000000 0.000000 0.000000 0.000000 0.037649 0.000000
# 6 0.000000 0.000000 0.000000 0.000000 0.000000 0.059226
#
#
# Mechanical properties :
#
#
# Convention : Reuss Voigt Hill
#
# Bulk Modulus (GPa) = 26.41711 37.32869 31.87290
# Shear Modulus (GPa) = 16.21119 20.12491 18.16805
#
# Velocity S-wave (km/s) = 2.97864 3.31877 3.15329
# Velocity P-wave (km/s) = 5.12714 5.92582 5.54089
#
# Compressibility (1/GPa) = 0.03785426
#
# Stress axis : x y z
#
# Youngs Moduli (GPa) = 79.12786 35.47643 19.05953
#
# Poissons Ratio (x) = 0.13188 0.18325
# Poissons Ratio (y) = 0.29414 0.27421
# Poissons Ratio (z) = 0.76080 0.51040
#
# Static dielectric constant tensor:
#      x y z
#    x 1.679190 0.000000 0.000000 
#    y 0.000000 1.613360 0.000000 
#    z 0.000000 0.000000 1.611290 
# 
# From -- ./inp_files/8293.got.cif
#   From: 2010.05.17/outbox.cif.g08.bks.cpg/sg40_5_cif.got.tgz:8293.got - 2010.06.03 18:35:42.
