data_PCOD9364130
_publ_section_title
;
Structure prediction by ZEFSAII (Michael W. Deem and Ramdas Pophale) SiO2 
 PCOD9364130
Probable space group: A M A 2
;
_chemical_formula_sum "Si O2"
_cell_formula_units_Z 48
_cell_length_a 19.008417
_cell_length_b 14.198543
_cell_length_c 8.677125
_cell_angle_alpha 90.000000
_cell_angle_beta 90.000000
_cell_angle_gamma 90.000000
_cell_volume 2341.885112
_symmetry_space_group_name_H-M "A M A 2"
_symmetry_group_IT_number 40
_symmetry_cell_setting 'orthorhombic'
loop_
_space_group_symop_operation_xyz
x,y,z
-x,-y,z
1/2-x,y,z
1/2+x,-y,z
x,1/2+y,1/2+z
-x,1/2-y,1/2+z
1/2-x,1/2+y,1/2+z
1/2+x,1/2-y,1/2+z
loop_
_atom_site_type_symbol
_atom_site_label
_atom_site_fract_x
_atom_site_fract_y
_atom_site_fract_z
Si Si1 0.085234 0.503112 0.436900
Si Si2 0.576426 0.679191 0.628566
Si Si3 0.328399 0.841467 0.397066
Si Si4 0.056027 0.236374 0.302350
Si Si5 0.568160 0.563955 0.120301
Si Si6 0.328848 0.159643 0.110414
O O1 0.101951 0.416479 0.548266
O O2 0.108169 0.489235 0.260251
O O3 0.120610 0.593510 0.510105
O O4 0.000000 0.500000 0.432141
O O5 0.638821 0.704801 0.743987
O O6 0.554398 0.742875 0.483198
O O7 0.507877 0.674336 0.737567
O O8 0.250000 0.879606 0.370683
O O9 0.382849 0.914975 0.474009
O O10 0.323863 0.758041 0.520711
O O11 0.050304 0.335971 0.207350
O O12 0.128920 0.185254 0.264083
O O13 0.500000 0.500000 0.082359
O O14 0.250000 0.121679 0.130843
#
# Coordination Sequence:
#
# PCOD9364130 Si02
#       6
#     8   8   8   8   8   8
#     4  10  20  37  61  96 123 156 209 256 309 370
#     4  11  22  37  64  86 126 159 209 264 312 365
#     4  10  23  41  60  89 127 165 208 260 318 375
#     4  10  20  38  61  93 119 162 211 258 305 377
#     4   9  20  36  64  90 121 162 208 254 307 374
#     4  10  21  40  63  89 126 167 205 250 316 382
#
# _framework density 20.496307999999999
#
# number of rings (size 3 to 8) (size 9 to 14) (size 15 to 20)
#    0.000    2.000    1.667    2.000    4.667    2.667 
#    3.000    3.333    0.000    0.000    0.000    0.000 
#    0.000    0.000    0.000    0.000    0.000    0.000 
#
# Total GULP energy -133818.820266 kJ/mol
# GULP energy per Si atom -5575.784178 kJ/mol
# Density = 2.044966 g / cm^3
# Si number density = 20.496308 Si / 1000 Ang^3
#
#
#
# Elastic Constant Matrix: (Units=GPa)
#
#
# Indices 1 2 3 4 5 6 
#
# 1 128.7642 26.6545 57.5645 0.0000 0.0000 0.0000
# 2 26.6545 38.0029 10.6207 0.0000 0.0000 0.0000
# 3 57.5645 10.6207 104.1150 0.0000 0.0000 0.0000
# 4 0.0000 0.0000 0.0000 14.3303 0.0000 0.0000
# 5 0.0000 0.0000 0.0000 0.0000 9.6237 0.0000
# 6 0.0000 0.0000 0.0000 0.0000 0.0000 26.5659
#
#
#
# Elastic Compliance Matrix: (Units=1/GPa)
#
#
# Indices 1 2 3 4 5 6 
#
# 1 0.011732 -0.006604 -0.005813 0.000000 0.000000 0.000000
# 2 -0.006604 0.030803 0.000509 0.000000 0.000000 0.000000
# 3 -0.005813 0.000509 0.012767 0.000000 0.000000 0.000000
# 4 0.000000 0.000000 0.000000 0.069782 0.000000 0.000000
# 5 0.000000 0.000000 0.000000 0.000000 0.103910 0.000000
# 6 0.000000 0.000000 0.000000 0.000000 0.000000 0.037642
#
#
# Mechanical properties :
#
#
# Convention : Reuss Voigt Hill
#
# Bulk Modulus (GPa) = 31.75964 51.17350 41.46657
# Shear Modulus (GPa) = 16.61425 21.84017 19.22721
#
# Velocity S-wave (km/s) = 2.85019 3.26784 3.06613
# Velocity P-wave (km/s) = 5.13423 6.26576 5.72801
#
# Compressibility (1/GPa) = 0.03148651
#
# Stress axis : x y z
#
# Youngs Moduli (GPa) = 85.23862 32.46399 78.32898
#
# Poissons Ratio (x) = 0.21439 0.45531
# Poissons Ratio (y) = 0.56291 -0.03987
# Poissons Ratio (z) = 0.49547 -0.01653
#
# Static dielectric constant tensor:
#      x y z
#    x 1.754420 0.000000 0.000000 
#    y 0.000000 1.773960 0.000000 
#    z 0.000000 0.000000 1.734000 
# 
# From -- ./inp_files/7441.got.cif
#   From: 2010.05.17/outbox.cif.g08.bks.cpg/sg40_4_cif.got.tgz:7441.got - 2010.06.03 18:35:42.
