data_PCOD9364090
_publ_section_title
;
Structure prediction by ZEFSAII (Michael W. Deem and Ramdas Pophale) SiO2 
 PCOD9364090
Probable space group: A M A 2
;
_chemical_formula_sum "Si O2"
_cell_formula_units_Z 64
_cell_length_a 15.312972
_cell_length_b 9.302391
_cell_length_c 23.303752
_cell_angle_alpha 90.000000
_cell_angle_beta 90.000000
_cell_angle_gamma 90.000000
_cell_volume 3319.555455
_symmetry_space_group_name_H-M "A M A 2"
_symmetry_group_IT_number 40
_symmetry_cell_setting 'orthorhombic'
loop_
_space_group_symop_operation_xyz
x,y,z
-x,-y,z
1/2-x,y,z
1/2+x,-y,z
x,1/2+y,1/2+z
-x,1/2-y,1/2+z
1/2-x,1/2+y,1/2+z
1/2+x,1/2-y,1/2+z
loop_
_atom_site_type_symbol
_atom_site_label
_atom_site_fract_x
_atom_site_fract_y
_atom_site_fract_z
Si Si1 0.478952 0.336576 0.827860
Si Si2 0.345373 0.290861 0.930912
Si Si3 0.078712 0.898876 0.540901
Si Si4 0.351987 0.122555 0.769514
Si Si5 0.541900 0.144663 0.081077
Si Si6 0.398061 0.973456 0.962298
Si Si7 0.348509 0.342880 0.348158
Si Si8 0.853063 0.395661 0.139150
O O1 0.500000 0.500000 0.813586
O O2 0.424097 0.325242 0.887527
O O3 0.416503 0.251684 0.784230
O O4 0.571850 0.257735 0.831268
O O5 0.250000 0.313179 0.903938
O O6 0.352896 0.126246 0.952083
O O7 0.355532 0.382578 0.988652
O O8 0.035949 0.745521 0.556512
O O9 0.116431 0.978106 0.596602
O O10 0.000000 0.000000 0.520179
O O11 0.250000 0.166373 0.771106
O O12 0.370780 0.067332 0.705385
O O13 0.362735 0.996224 0.816336
O O14 0.596791 0.249891 0.121406
O O15 0.500000 0.000000 0.107046
O O16 0.598727 0.090279 0.026353
O O17 0.356820 0.867069 0.916216
O O18 0.500000 0.000000 0.947030
O O19 0.250000 0.294422 0.333609
O O20 0.750000 0.374192 0.132195
#
# Coordination Sequence:
#
# PCOD9364090 Si02
#       8
#     8   8   8   8   8   8   8   8
#     4  12  25  40  61  93 128 160 196 257 322 376
#     4  12  22  36  60  91 127 167 206 249 307 373
#     4  10  20  37  59  85 123 167 205 250 302 363
#     4  10  22  44  68  88 118 164 214 256 301 366
#     4  10  20  37  59  85 122 163 205 250 304 365
#     4  11  18  36  61  88 125 162 204 252 302 358
#     4  11  22  39  66  92 118 160 211 256 301 366
#     4  10  23  41  62  91 123 158 206 259 306 362
#
# _framework density 19.279691
#
# number of rings (size 3 to 8) (size 9 to 14) (size 15 to 20)
#    0.000    1.250    5.000    1.875    0.000    6.500 
#    0.000    0.000    0.000    3.000    0.000    0.000 
#    0.000    0.000    0.000    0.000    0.000    0.000 
#
# Total GULP energy -178669.550970 kJ/mol
# GULP energy per Si atom -5583.423468 kJ/mol
# Density = 1.923581 g / cm^3
# Si number density = 19.279691 Si / 1000 Ang^3
#
#
#
# Elastic Constant Matrix: (Units=GPa)
#
#
# Indices 1 2 3 4 5 6 
#
# 1 106.4331 37.8511 16.9478 0.0000 0.0000 0.0000
# 2 37.8511 78.9973 8.2497 0.0000 0.0000 0.0000
# 3 16.9478 8.2497 73.4795 0.0000 0.0000 0.0000
# 4 0.0000 0.0000 0.0000 24.8612 0.0000 0.0000
# 5 0.0000 0.0000 0.0000 0.0000 16.8325 0.0000
# 6 0.0000 0.0000 0.0000 0.0000 0.0000 11.8462
#
#
#
# Elastic Compliance Matrix: (Units=1/GPa)
#
#
# Indices 1 2 3 4 5 6 
#
# 1 0.011632 -0.005356 -0.002081 0.000000 0.000000 0.000000
# 2 -0.005356 0.015275 -0.000480 0.000000 0.000000 0.000000
# 3 -0.002081 -0.000480 0.014143 0.000000 0.000000 0.000000
# 4 0.000000 0.000000 0.000000 0.040223 0.000000 0.000000
# 5 0.000000 0.000000 0.000000 0.000000 0.059409 0.000000
# 6 0.000000 0.000000 0.000000 0.000000 0.000000 0.084415
#
#
# Mechanical properties :
#
#
# Convention : Reuss Voigt Hill
#
# Bulk Modulus (GPa) = 39.65763 42.77856 41.21809
# Shear Modulus (GPa) = 20.05319 23.76540 21.90929
#
# Velocity S-wave (km/s) = 3.22859 3.51474 3.37470
# Velocity P-wave (km/s) = 5.87475 6.22156 6.05064
#
# Compressibility (1/GPa) = 0.02521583
#
# Stress axis : x y z
#
# Youngs Moduli (GPa) = 85.97156 65.46648 70.70548
#
# Poissons Ratio (x) = 0.35063 0.14717
# Poissons Ratio (y) = 0.46046 0.03391
# Poissons Ratio (z) = 0.17895 0.03140
#
# Static dielectric constant tensor:
#      x y z
#    x 1.686780 0.000000 0.000000 
#    y 0.000000 1.670160 0.000000 
#    z 0.000000 0.000000 1.671830 
# 
# From -- ./inp_files/24795.got.cif
#   From: 2010.05.17/outbox.cif.g08.bks.cpg/sg40_13_cif.got.tgz:24795.got - 2010.06.03 18:35:42.
