data_PCOD9364557
_publ_section_title
;
Structure prediction by ZEFSAII (Michael W. Deem and Ramdas Pophale) SiO2 
 PCOD9364557
Probable space group: A M A 2
;
_chemical_formula_sum "Si O2"
_cell_formula_units_Z 40
_cell_length_a 15.748875
_cell_length_b 20.011581
_cell_length_c 5.102480
_cell_angle_alpha 90.000000
_cell_angle_beta 90.000000
_cell_angle_gamma 90.000000
_cell_volume 1608.097024
_symmetry_space_group_name_H-M "A M A 2"
_symmetry_group_IT_number 40
_symmetry_cell_setting 'orthorhombic'
loop_
_space_group_symop_operation_xyz
x,y,z
-x,-y,z
1/2-x,y,z
1/2+x,-y,z
x,1/2+y,1/2+z
-x,1/2-y,1/2+z
1/2-x,1/2+y,1/2+z
1/2+x,1/2-y,1/2+z
loop_
_atom_site_type_symbol
_atom_site_label
_atom_site_fract_x
_atom_site_fract_y
_atom_site_fract_z
Si Si1 0.499314 0.924553 0.098490
Si Si2 0.099931 0.702428 0.247839
Si Si3 0.153905 0.075622 0.442257
Si Si4 0.603899 0.076495 0.577976
Si Si5 0.608748 0.213040 0.747944
O O1 0.590108 0.903099 0.207474
O O2 0.430032 0.894903 0.298543
O O3 0.627964 0.764331 0.016813
O O4 0.500000 0.000000 0.197493
O O5 0.134067 0.629495 0.168315
O O6 0.129003 0.751930 0.018566
O O7 0.969391 0.569558 0.300922
O O8 0.995544 0.702431 0.251362
O O9 0.250000 0.081734 0.353316
O O10 0.142392 0.997627 0.537266
O O11 0.650741 0.140853 0.698515
#
# Coordination Sequence:
#
# PCOD9364557 Si02
#       5
#     8   8   8   8   8
#     4  10  21  37  65  95 131 175 228 283 340 403
#     4  10  22  38  63 101 132 169 222 284 345 408
#     4  11  25  45  70 107 147 185 231 301 376 424
#     4  11  22  42  69  98 130 182 239 288 330 418
#     4  10  21  38  66  97 127 171 231 282 327 407
#
# _framework density 24.874120999999999
#
# number of rings (size 3 to 8) (size 9 to 14) (size 15 to 20)
#    0.000    1.600    2.000    3.000    5.600    1.600 
#    3.600   18.000    0.000    0.000    0.000    0.000 
#    0.000    0.000    0.000    0.000    0.000    0.000 
#
# Total GULP energy -111582.056264 kJ/mol
# GULP energy per Si atom -5579.102813 kJ/mol
# Density = 2.481751 g / cm^3
# Si number density = 24.874121 Si / 1000 Ang^3
#
#
#
# Elastic Constant Matrix: (Units=GPa)
#
#
# Indices 1 2 3 4 5 6 
#
# 1 60.9983 13.3135 -2.9690 0.0000 0.0000 0.0000
# 2 13.3135 164.1049 14.1823 0.0000 0.0000 0.0000
# 3 -2.9690 14.1823 90.8248 0.0000 0.0000 0.0000
# 4 0.0000 0.0000 0.0000 21.5301 0.0000 0.0000
# 5 0.0000 0.0000 0.0000 0.0000 -5.5891 0.0000
# 6 0.0000 0.0000 0.0000 0.0000 0.0000 11.2710
#
#
#
# Elastic Compliance Matrix: (Units=1/GPa)
#
#
# Indices 1 2 3 4 5 6 
#
# 1 0.016742 -0.001425 0.000770 0.000000 0.000000 0.000000
# 2 -0.001425 0.006298 -0.001030 0.000000 0.000000 0.000000
# 3 0.000770 -0.001030 0.011196 0.000000 0.000000 0.000000
# 4 0.000000 0.000000 0.000000 0.046447 0.000000 0.000000
# 5 0.000000 0.000000 0.000000 0.000000 -0.178920 0.000000
# 6 0.000000 0.000000 0.000000 0.000000 0.000000 0.088723
#
#
# Mechanical properties :
#
#
# Convention : Reuss Voigt Hill
#
# Bulk Modulus (GPa) = 32.39736 40.55350 36.47543
# Shear Modulus (GPa) = 1206.14641 24.86916 615.50778
#
# Velocity S-wave (km/s) = 22.04434 3.16539 15.74758
# Velocity P-wave (km/s) = 25.70972 5.44963 18.58344
#
# Compressibility (1/GPa) = 0.03086671
#
# Stress axis : x y z
#
# Youngs Moduli (GPa) = 59.72876 158.77367 89.31593
#
# Poissons Ratio (x) = 0.22622 -0.06875
# Poissons Ratio (y) = 0.08510 0.09200
# Poissons Ratio (z) = -0.04598 0.16354
#
# Static dielectric constant tensor:
#      x y z
#    x 2.065260 0.000000 0.000000 
#    y 0.000000 2.049960 0.000000 
#    z 0.000000 0.000000 1.923250 
# 
# From -- ./inp_files/7300.got.cif
#   From: 2010.05.17/outbox.cif.g08.bks.cpg/sg40_4_cif.got.tgz:7300.got - 2010.06.03 18:35:42.
