data_PCOD9364502
_publ_section_title
;
Structure prediction by ZEFSAII (Michael W. Deem and Ramdas Pophale) SiO2 
 PCOD9364502
Probable space group: A M A 2
;
_chemical_formula_sum "Si O2"
_cell_formula_units_Z 64
_cell_length_a 37.883507
_cell_length_b 5.177800
_cell_length_c 15.312588
_cell_angle_alpha 90.000000
_cell_angle_beta 90.000000
_cell_angle_gamma 90.000000
_cell_volume 3003.613482
_symmetry_space_group_name_H-M "A M A 2"
_symmetry_group_IT_number 40
_symmetry_cell_setting 'orthorhombic'
loop_
_space_group_symop_operation_xyz
x,y,z
-x,-y,z
1/2-x,y,z
1/2+x,-y,z
x,1/2+y,1/2+z
-x,1/2-y,1/2+z
1/2-x,1/2+y,1/2+z
1/2+x,1/2-y,1/2+z
loop_
_atom_site_type_symbol
_atom_site_label
_atom_site_fract_x
_atom_site_fract_y
_atom_site_fract_z
Si Si1 0.521142 0.255877 0.995570
Si Si2 0.288952 0.958913 0.038128
Si Si3 0.637806 0.477619 0.454220
Si Si4 0.401293 0.533183 0.954867
Si Si5 0.289011 0.456644 0.157824
Si Si6 0.598484 0.524876 0.745609
Si Si7 0.362899 0.986320 0.744871
Si Si8 0.521209 0.244121 0.206360
O O1 0.500000 0.500000 0.961194
O O2 0.561289 0.330419 0.974137
O O3 0.500000 0.000000 0.965060
O O4 0.519254 0.250047 0.100965
O O5 0.250000 0.949223 0.995115
O O6 0.287686 0.181780 0.110505
O O7 0.294464 0.684675 0.086486
O O8 0.321312 0.045543 0.977678
O O9 0.626032 0.755643 0.488828
O O10 0.633854 0.494469 0.349631
O O11 0.611713 0.248704 0.487200
O O12 0.399881 0.504629 0.850198
O O13 0.250000 0.505314 0.197854
O O14 0.322545 0.440602 0.220488
O O15 0.626472 0.731801 0.711082
O O16 0.561410 0.668318 0.727357
O O17 0.610119 0.239749 0.713072
O O18 0.500000 0.500000 0.236860
O O19 0.500000 0.000000 0.240684
#
# Coordination Sequence:
#
# PCOD9364502 Si02
#       8
#     8   8   8   8   8   8   8   8
#     4  10  21  37  56  80 109 141 181 227 274 329
#     4  10  21  37  57  84 116 149 190 236 280 333
#     4  10  21  37  57  82 113 147 186 231 278 332
#     4  10  21  37  56  82 112 143 184 231 277 330
#     4  10  21  37  57  84 116 149 190 236 280 333
#     4  10  21  37  56  82 112 143 184 231 277 330
#     4  10  21  37  57  82 113 147 186 231 278 332
#     4  10  21  37  56  80 109 141 181 227 274 329
#
# _framework density 21.307669000000001
#
# number of rings (size 3 to 8) (size 9 to 14) (size 15 to 20)
#    0.000    2.000    0.000    3.000    0.000    4.000 
#    0.000    1.250    0.000    9.000    0.000    0.000 
#    0.000    0.000    0.000    0.000    0.000    0.000 
#
# Total GULP energy -178306.598613 kJ/mol
# GULP energy per Si atom -5572.081207 kJ/mol
# Density = 2.125917 g / cm^3
# Si number density = 21.307669 Si / 1000 Ang^3
#
#
#
# Elastic Constant Matrix: (Units=GPa)
#
#
# Indices 1 2 3 4 5 6 
#
# 1 149.4688 51.0527 9.1876 0.0000 0.0000 0.0000
# 2 51.0527 145.0472 18.3376 0.0000 0.0000 0.0000
# 3 9.1876 18.3376 28.3098 0.0000 0.0000 0.0000
# 4 0.0000 0.0000 0.0000 -6.5626 0.0000 0.0000
# 5 0.0000 0.0000 0.0000 0.0000 59.5952 0.0000
# 6 0.0000 0.0000 0.0000 0.0000 0.0000 37.8856
#
#
#
# Elastic Compliance Matrix: (Units=1/GPa)
#
#
# Indices 1 2 3 4 5 6 
#
# 1 0.007621 -0.002581 -0.000801 0.000000 0.000000 0.000000
# 2 -0.002581 0.008383 -0.004593 0.000000 0.000000 0.000000
# 3 -0.000801 -0.004593 0.038558 0.000000 0.000000 0.000000
# 4 0.000000 0.000000 0.000000 -0.152380 0.000000 0.000000
# 5 0.000000 0.000000 0.000000 0.000000 0.016780 0.000000
# 6 0.000000 0.000000 0.000000 0.000000 0.000000 0.026395
#
#
# Mechanical properties :
#
#
# Convention : Reuss Voigt Hill
#
# Bulk Modulus (GPa) = 25.89829 53.33130 39.61480
# Shear Modulus (GPa) = -193.64873 34.46685 -79.59094
#
# Velocity S-wave (km/s) = -9.54356 4.02628 -6.11836
# Velocity P-wave (km/s) = 10.45268 6.83360 5.59287
#
# Compressibility (1/GPa) = 0.03861259
#
# Stress axis : x y z
#
# Youngs Moduli (GPa) = 131.21223 119.28290 25.93465
#
# Poissons Ratio (x) = 0.30789 0.02079
# Poissons Ratio (y) = 0.33868 0.11911
# Poissons Ratio (z) = 0.10516 0.54783
#
# Static dielectric constant tensor:
#      x y z
#    x 1.949170 0.000000 0.000000 
#    y 0.000000 1.788360 0.000000 
#    z 0.000000 0.000000 1.753960 
# 
# From -- ./inp_files/21692.got.cif
#   From: 2010.05.17/outbox.cif.g08.bks.cpg/sg40_11_cif.got.tgz:21692.got - 2010.06.03 18:35:42.
