data_PCOD9364939
_publ_section_title
;
Structure prediction by ZEFSAII (Michael W. Deem and Ramdas Pophale) SiO2 
 PCOD9364939
Probable space group: A M A 2
;
_chemical_formula_sum "Si O2"
_cell_formula_units_Z 60
_cell_length_a 23.632439
_cell_length_b 8.097127
_cell_length_c 12.603591
_cell_angle_alpha 90.000000
_cell_angle_beta 90.000000
_cell_angle_gamma 90.000000
_cell_volume 2411.758390
_symmetry_space_group_name_H-M "A M A 2"
_symmetry_group_IT_number 40
_symmetry_cell_setting 'orthorhombic'
loop_
_space_group_symop_operation_xyz
x,y,z
-x,-y,z
1/2-x,y,z
1/2+x,-y,z
x,1/2+y,1/2+z
-x,1/2-y,1/2+z
1/2-x,1/2+y,1/2+z
1/2+x,1/2-y,1/2+z
loop_
_atom_site_type_symbol
_atom_site_label
_atom_site_fract_x
_atom_site_fract_y
_atom_site_fract_z
Si Si1 0.640919 0.432295 0.581510
Si Si2 0.686051 0.487130 0.810734
Si Si3 0.527435 0.825345 0.013746
Si Si4 0.943250 0.420115 0.277792
Si Si5 0.750000 0.423020 0.430205
Si Si6 0.684243 0.542310 0.040683
Si Si7 0.832747 0.618174 0.282056
Si Si8 0.588558 0.270653 0.071885
O O1 0.651042 0.485417 0.702925
O O2 0.588340 0.303839 0.569773
O O3 0.699279 0.395029 0.520522
O O4 0.614860 0.599889 0.531943
O O5 0.750000 0.534326 0.781061
O O6 0.673693 0.593804 0.916252
O O7 0.683016 0.291005 0.837658
O O8 0.474057 0.704424 0.024322
O O9 0.500000 0.000000 0.053926
O O10 0.542052 0.846407 0.891119
O O11 0.897532 0.564997 0.287989
O O12 0.921341 0.282267 0.197953
O O13 0.000000 0.500000 0.232678
O O14 0.798249 0.475625 0.341035
O O15 0.750000 0.483253 0.033888
O O16 0.682330 0.631635 0.156315
O O17 0.635485 0.407401 0.052129
#
# Coordination Sequence:
#
# PCOD9364939 Si02
#       8
#     8   8   8   8   4   8   8   8
#     4  11  23  39  61  93 127 164 210 254 326 384
#     4  11  23  38  62  90 127 168 199 254 327 386
#     4   9  20  38  60  85 120 158 208 256 303 381
#     4  10  22  40  63  92 119 162 218 266 314 380
#     4  12  20  38  68  90 120 162 214 260 306 382
#     4  10  22  39  62  90 124 164 212 261 315 385
#     4  11  22  41  65  90 124 163 214 264 315 385
#     4  10  23  39  60  94 121 164 212 265 319 371
#
# _framework density 24.878114
#
# number of rings (size 3 to 8) (size 9 to 14) (size 15 to 20)
#    0.000    1.600    3.333    0.800    8.400    0.000 
#    2.400    0.000    5.867    0.800    0.000    0.000 
#    0.000    0.000    0.000    0.000    0.000    0.000 
#
# Total GULP energy -167025.796101 kJ/mol
# GULP energy per Si atom -5567.526537 kJ/mol
# Density = 2.482149 g / cm^3
# Si number density = 24.878114 Si / 1000 Ang^3
#
#
#
# Elastic Constant Matrix: (Units=GPa)
#
#
# Indices 1 2 3 4 5 6 
#
# 1 169.5554 24.7003 53.7487 0.0000 0.0000 0.0000
# 2 24.7003 54.4725 30.7927 0.0000 0.0000 0.0000
# 3 53.7487 30.7927 182.6594 0.0000 0.0000 0.0000
# 4 0.0000 0.0000 0.0000 41.5642 0.0000 0.0000
# 5 0.0000 0.0000 0.0000 0.0000 -146.4015 0.0000
# 6 0.0000 0.0000 0.0000 0.0000 0.0000 2.3513
#
#
#
# Elastic Compliance Matrix: (Units=1/GPa)
#
#
# Indices 1 2 3 4 5 6 
#
# 1 0.006721 -0.002133 -0.001618 0.000000 0.000000 0.000000
# 2 -0.002133 0.020969 -0.002907 0.000000 0.000000 0.000000
# 3 -0.001618 -0.002907 0.006441 0.000000 0.000000 0.000000
# 4 0.000000 0.000000 0.000000 0.024059 0.000000 0.000000
# 5 0.000000 0.000000 0.000000 0.000000 -0.006831 0.000000
# 6 0.000000 0.000000 0.000000 0.000000 0.000000 0.425296
#
#
# Mechanical properties :
#
#
# Convention : Reuss Voigt Hill
#
# Bulk Modulus (GPa) = 48.04471 69.46341 58.75406
# Shear Modulus (GPa) = 10.06218 -0.66748 4.69735
#
# Velocity S-wave (km/s) = 2.01330 -0.51854 1.37559
# Velocity P-wave (km/s) = 4.97579 5.25582 5.11772
#
# Compressibility (1/GPa) = 0.02081395
#
# Stress axis : x y z
#
# Youngs Moduli (GPa) = 148.77643 47.69054 155.25663
#
# Poissons Ratio (x) = 0.10173 0.25124
# Poissons Ratio (y) = 0.31735 0.45136
# Poissons Ratio (z) = 0.24076 0.13865
#
# Static dielectric constant tensor:
#      x y z
#    x 2.126860 0.000000 0.000000 
#    y 0.000000 2.168630 0.000000 
#    z 0.000000 0.000000 1.956210 
# 
# From -- ./inp_files/13629.got.cif
#   From: 2010.05.17/outbox.cif.g08.bks.cpg/sg40_7_cif.got.tgz:13629.got - 2010.06.03 18:35:42.
