data_PCOD9364928
_publ_section_title
;
Structure prediction by ZEFSAII (Michael W. Deem and Ramdas Pophale) SiO2 
 PCOD9364928
Probable space group: A M A 2
;
_chemical_formula_sum "Si O2"
_cell_formula_units_Z 60
_cell_length_a 27.606502
_cell_length_b 11.246831
_cell_length_c 9.027746
_cell_angle_alpha 90.000000
_cell_angle_beta 90.000000
_cell_angle_gamma 90.000000
_cell_volume 2802.985698
_symmetry_space_group_name_H-M "A M A 2"
_symmetry_group_IT_number 40
_symmetry_cell_setting 'orthorhombic'
loop_
_space_group_symop_operation_xyz
x,y,z
-x,-y,z
1/2-x,y,z
1/2+x,-y,z
x,1/2+y,1/2+z
-x,1/2-y,1/2+z
1/2-x,1/2+y,1/2+z
1/2+x,1/2-y,1/2+z
loop_
_atom_site_type_symbol
_atom_site_label
_atom_site_fract_x
_atom_site_fract_y
_atom_site_fract_z
Si Si1 0.250000 0.106778 0.470850
Si Si2 0.930056 0.112492 0.989796
Si Si3 0.906180 0.725749 0.045344
Si Si4 0.488930 0.660376 0.015586
Si Si5 0.839108 0.758834 0.615711
Si Si6 0.915130 0.906526 0.769025
Si Si7 0.425291 0.565687 0.757952
Si Si8 0.835083 0.578194 0.886803
O O1 0.206899 0.200980 0.522868
O O2 0.208288 0.007652 0.425324
O O3 0.975166 0.201603 0.986512
O O4 0.920707 0.033961 0.844957
O O5 0.881935 0.189138 0.028344
O O6 0.939395 0.021859 0.124768
O O7 0.912266 0.810295 0.901341
O O8 0.856752 0.654679 0.022895
O O9 0.954317 0.646239 0.039265
O O10 0.908179 0.810433 0.186174
O O11 0.466708 0.595701 0.874053
O O12 0.459439 0.622306 0.160816
O O13 0.866007 0.876916 0.679615
O O14 0.824918 0.671383 0.752464
O O15 0.380280 0.502092 0.835207
#
# Coordination Sequence:
#
# PCOD9364928 Si02
#       8
#     4   8   8   8   8   8   8   8
#     4  12  22  40  66  86 108 146 194 248 312 364
#     4   9  20  39  60  83 120 161 196 244 291 337
#     4  10  22  39  59  89 128 163 197 239 287 348
#     4  11  21  35  59  92 125 161 207 240 270 339
#     4   9  20  39  61  85 113 147 194 246 298 359
#     4   9  19  38  60  86 123 164 199 237 292 345
#     4  10  22  39  61  88 121 162 201 238 291 346
#     4  10  22  41  62  84 116 152 190 247 304 352
#
# _framework density 21.405746000000001
#
# number of rings (size 3 to 8) (size 9 to 14) (size 15 to 20)
#    0.000    2.133    0.000    3.600    0.000    5.867 
#    0.000    6.667    0.000    6.400    0.000    0.000 
#    0.000    0.000    0.000    0.000    0.000    0.000 
#
# Total GULP energy -167392.183182 kJ/mol
# GULP energy per Si atom -5579.739439 kJ/mol
# Density = 2.135703 g / cm^3
# Si number density = 21.405746 Si / 1000 Ang^3
#
#
#
# Elastic Constant Matrix: (Units=GPa)
#
#
# Indices 1 2 3 4 5 6 
#
# 1 71.0238 23.7390 2.3512 0.0000 0.0000 0.0000
# 2 23.7390 113.1445 35.6567 0.0000 0.0000 0.0000
# 3 2.3512 35.6567 63.1467 0.0000 0.0000 0.0000
# 4 0.0000 0.0000 0.0000 34.8608 0.0000 0.0000
# 5 0.0000 0.0000 0.0000 0.0000 1.6368 0.0000
# 6 0.0000 0.0000 0.0000 0.0000 0.0000 4.8781
#
#
#
# Elastic Compliance Matrix: (Units=1/GPa)
#
#
# Indices 1 2 3 4 5 6 
#
# 1 0.015259 -0.003677 0.001508 0.000000 0.000000 0.000000
# 2 -0.003677 0.011637 -0.006434 0.000000 0.000000 0.000000
# 3 0.001508 -0.006434 0.019413 0.000000 0.000000 0.000000
# 4 0.000000 0.000000 0.000000 0.028686 0.000000 0.000000
# 5 0.000000 0.000000 0.000000 0.000000 0.610966 0.000000
# 6 0.000000 0.000000 0.000000 0.000000 0.000000 0.204998
#
#
# Mechanical properties :
#
#
# Convention : Reuss Voigt Hill
#
# Bulk Modulus (GPa) = 34.36038 41.20097 37.78067
# Shear Modulus (GPa) = 5.44742 20.64633 13.04688
#
# Velocity S-wave (km/s) = 1.59699 3.10905 2.47149
# Velocity P-wave (km/s) = 4.41444 5.67253 5.08256
#
# Compressibility (1/GPa) = 0.02910329
#
# Stress axis : x y z
#
# Youngs Moduli (GPa) = 65.53609 85.92988 51.51123
#
# Poissons Ratio (x) = 0.31594 -0.07768
# Poissons Ratio (y) = 0.24096 0.33144
# Poissons Ratio (z) = -0.09883 0.55290
#
# Static dielectric constant tensor:
#      x y z
#    x 1.710400 0.000000 0.000000 
#    y 0.000000 1.835320 0.000000 
#    z 0.000000 0.000000 1.805990 
# 
# From -- ./inp_files/9178.got.cif
#   From: 2010.05.17/outbox.cif.g08.bks.cpg/sg40_5_cif.got.tgz:9178.got - 2010.06.03 18:35:42.
