data_PCOD9364945
_publ_section_title
;
Structure prediction by ZEFSAII (Michael W. Deem and Ramdas Pophale) SiO2 
 PCOD9364945
Probable space group: A M A 2
;
_chemical_formula_sum "Si O2"
_cell_formula_units_Z 60
_cell_length_a 12.311132
_cell_length_b 26.308897
_cell_length_c 9.502282
_cell_angle_alpha 90.000000
_cell_angle_beta 90.000000
_cell_angle_gamma 90.000000
_cell_volume 3077.716008
_symmetry_space_group_name_H-M "A M A 2"
_symmetry_group_IT_number 40
_symmetry_cell_setting 'orthorhombic'
loop_
_space_group_symop_operation_xyz
x,y,z
-x,-y,z
1/2-x,y,z
1/2+x,-y,z
x,1/2+y,1/2+z
-x,1/2-y,1/2+z
1/2-x,1/2+y,1/2+z
1/2+x,1/2-y,1/2+z
loop_
_atom_site_type_symbol
_atom_site_label
_atom_site_fract_x
_atom_site_fract_y
_atom_site_fract_z
Si Si1 0.628172 0.633772 0.732020
Si Si2 0.371856 0.370878 0.417253
Si Si3 0.876092 0.230346 0.744708
Si Si4 0.055171 0.552486 0.329732
Si Si5 0.626614 0.384204 0.059498
Si Si6 0.750000 0.958413 0.055070
Si Si7 0.939343 0.947318 0.292053
Si Si8 0.026647 0.294578 0.954558
O O1 0.750000 0.611791 0.747386
O O2 0.620412 0.654340 0.572208
O O3 0.533745 0.592284 0.746334
O O4 0.609287 0.675903 0.851196
O O5 0.250000 0.393272 0.407407
O O6 0.382348 0.328053 0.298096
O O7 0.461896 0.413801 0.404169
O O8 0.750000 0.246374 0.756078
O O9 0.951940 0.261355 0.851208
O O10 0.915331 0.234313 0.583222
O O11 0.095449 0.586297 0.200204
O O12 0.154198 0.541182 0.433199
O O13 0.000000 0.500000 0.282480
O O14 0.750000 0.365933 0.067549
O O15 0.612467 0.423240 0.931194
O O16 0.548338 0.337090 0.027800
O O17 0.846308 0.954519 0.176582
O O18 0.000000 0.000000 0.320104
#
# Coordination Sequence:
#
# PCOD9364945 Si02
#       8
#     8   8   8   8   8   4   8   8
#     4  10  22  39  64  94 130 171 217 272 331 394
#     4  10  22  40  64  93 132 171 216 270 329 394
#     4  11  23  43  67  96 129 169 219 277 339 408
#     4  12  25  41  64  97 132 180 224 273 332 394
#     4  11  23  44  64  92 133 173 221 274 337 405
#     4  12  24  40  66  92 134 166 230 274 328 388
#     4  11  24  40  63  93 130 177 222 274 331 388
#     4  11  23  42  69  95 132 170 222 277 342 409
#
# _framework density 19.494976999999999
#
# number of rings (size 3 to 8) (size 9 to 14) (size 15 to 20)
#    0.000    1.067    4.000    2.400    1.867    0.000 
#    0.000    2.000    1.467    0.000    0.000    0.000 
#    0.000    0.000    0.000    0.000    0.000    0.000 
#
# Total GULP energy -167043.252939 kJ/mol
# GULP energy per Si atom -5568.108431 kJ/mol
# Density = 1.945061 g / cm^3
# Si number density = 19.494977 Si / 1000 Ang^3
#
#
#
# Elastic Constant Matrix: (Units=GPa)
#
#
# Indices 1 2 3 4 5 6 
#
# 1 90.1770 -3.6536 -9.0865 0.0000 0.0000 0.0000
# 2 -3.6536 16.9329 -18.5024 0.0000 0.0000 0.0000
# 3 -9.0865 -18.5024 58.0714 0.0000 0.0000 0.0000
# 4 0.0000 0.0000 0.0000 191.1208 0.0000 0.0000
# 5 0.0000 0.0000 0.0000 0.0000 33.5623 0.0000
# 6 0.0000 0.0000 0.0000 0.0000 0.0000 0.7839
#
#
#
# Elastic Compliance Matrix: (Units=1/GPa)
#
#
# Indices 1 2 3 4 5 6 
#
# 1 0.011783 0.006991 0.004071 0.000000 0.000000 0.000000
# 2 0.006991 0.094745 0.031281 0.000000 0.000000 0.000000
# 3 0.004071 0.031281 0.027824 0.000000 0.000000 0.000000
# 4 0.000000 0.000000 0.000000 0.005232 0.000000 0.000000
# 5 0.000000 0.000000 0.000000 0.000000 0.029795 0.000000
# 6 0.000000 0.000000 0.000000 0.000000 0.000000 1.275739
#
#
# Mechanical properties :
#
#
# Convention : Reuss Voigt Hill
#
# Bulk Modulus (GPa) = 4.56544 11.41071 7.98808
# Shear Modulus (GPa) = 3.48810 58.18830 30.83820
#
# Velocity S-wave (km/s) = 1.33907 5.46924 3.98157
# Velocity P-wave (km/s) = 2.17664 6.76383 5.02430
#
# Compressibility (1/GPa) = 0.21903690
#
# Stress axis : x y z
#
# Youngs Moduli (GPa) = 84.86988 10.55462 35.94056
#
# Poissons Ratio (x) = -0.07378 -0.14631
# Poissons Ratio (y) = -0.59330 -1.12426
# Poissons Ratio (z) = -0.34550 -0.33016
#
# Static dielectric constant tensor:
#      x y z
#    x 1.681020 0.000000 0.000000 
#    y 0.000000 1.674030 0.000000 
#    z 0.000000 0.000000 1.673630 
# 
# From -- ./inp_files/5571.got.cif
#   From: 2010.05.17/outbox.cif.g08.bks.cpg/sg40_3_cif.got.tgz:5571.got - 2010.06.03 18:35:42.
