data_PCOD9364038
_publ_section_title
;
Structure prediction by ZEFSAII (Michael W. Deem and Ramdas Pophale) SiO2 
 PCOD9364038
Probable space group: A M A 2
;
_chemical_formula_sum "Si O2"
_cell_formula_units_Z 48
_cell_length_a 15.749738
_cell_length_b 8.832085
_cell_length_c 18.987974
_cell_angle_alpha 90.000000
_cell_angle_beta 90.000000
_cell_angle_gamma 90.000000
_cell_volume 2641.284617
_symmetry_space_group_name_H-M "A M A 2"
_symmetry_group_IT_number 40
_symmetry_cell_setting 'orthorhombic'
loop_
_space_group_symop_operation_xyz
x,y,z
-x,-y,z
1/2-x,y,z
1/2+x,-y,z
x,1/2+y,1/2+z
-x,1/2-y,1/2+z
1/2-x,1/2+y,1/2+z
1/2+x,1/2-y,1/2+z
loop_
_atom_site_type_symbol
_atom_site_label
_atom_site_fract_x
_atom_site_fract_y
_atom_site_fract_z
Si Si1 0.491175 0.679012 0.373370
Si Si2 0.007654 0.320375 0.027226
Si Si3 0.343799 0.792259 0.274807
Si Si4 0.847904 0.180705 0.108315
Si Si5 0.349301 0.679458 0.623948
Si Si6 0.414766 0.603409 0.774894
O O1 0.500000 0.500000 0.378900
O O2 0.480464 0.749423 0.450245
O O3 0.411490 0.710454 0.322822
O O4 0.565883 0.773382 0.334331
O O5 0.088131 0.273840 0.074816
O O6 0.000000 0.500000 0.021991
O O7 0.921512 0.255225 0.062420
O O8 0.250000 0.733065 0.287554
O O9 0.361745 0.781063 0.191108
O O10 0.348271 0.971532 0.292587
O O11 0.750000 0.223060 0.090672
O O12 0.854270 0.998340 0.102774
O O13 0.250000 0.724063 0.621397
O O14 0.385235 0.683032 0.703431
O O15 0.500000 0.500000 0.763157
#
# Coordination Sequence:
#
# PCOD9364038 Si02
#       6
#     8   8   8   8   8   8
#     4  11  23  38  56  79 111 151 188 227 278 330
#     4  12  24  38  56  80 115 153 188 231 279 329
#     4   9  18  36  61  85 111 142 181 228 275 329
#     4   9  19  38  63  87 111 145 186 228 277 331
#     4  10  20  36  61  88 114 146 183 225 276 335
#     4   9  17  34  59  85 111 145 184 223 274 332
#
# _framework density 18.172975000000001
#
# number of rings (size 3 to 8) (size 9 to 14) (size 15 to 20)
#    0.000    2.000    0.000    7.500    0.000    4.000 
#    0.000    7.500    0.000    0.000    0.000    0.000 
#    0.000    0.000    0.000    0.000    0.000    0.000 
#
# Total GULP energy -133907.897541 kJ/mol
# GULP energy per Si atom -5579.495731 kJ/mol
# Density = 1.813161 g / cm^3
# Si number density = 18.172975 Si / 1000 Ang^3
#
#
#
# Elastic Constant Matrix: (Units=GPa)
#
#
# Indices 1 2 3 4 5 6 
#
# 1 73.3613 20.5064 22.9945 0.0000 0.0000 0.0000
# 2 20.5064 75.7639 45.1308 0.0000 0.0000 0.0000
# 3 22.9945 45.1308 55.9253 0.0000 0.0000 0.0000
# 4 0.0000 0.0000 0.0000 33.9381 0.0000 0.0000
# 5 0.0000 0.0000 0.0000 0.0000 2.1171 0.0000
# 6 0.0000 0.0000 0.0000 0.0000 0.0000 21.3480
#
#
#
# Elastic Compliance Matrix: (Units=1/GPa)
#
#
# Indices 1 2 3 4 5 6 
#
# 1 0.015671 -0.000777 -0.005817 0.000000 0.000000 0.000000
# 2 -0.000777 0.025455 -0.020223 0.000000 0.000000 0.000000
# 3 -0.005817 -0.020223 0.036592 0.000000 0.000000 0.000000
# 4 0.000000 0.000000 0.000000 0.029465 0.000000 0.000000
# 5 0.000000 0.000000 0.000000 0.000000 0.472344 0.000000
# 6 0.000000 0.000000 0.000000 0.000000 0.000000 0.046843
#
#
# Mechanical properties :
#
#
# Convention : Reuss Voigt Hill
#
# Bulk Modulus (GPa) = 41.51703 42.47931 41.99817
# Shear Modulus (GPa) = 7.26710 19.24191 13.25450
#
# Velocity S-wave (km/s) = 2.00188 3.25748 2.70358
# Velocity P-wave (km/s) = 5.31399 6.12976 5.73639
#
# Compressibility (1/GPa) = 0.02408650
#
# Stress axis : x y z
#
# Youngs Moduli (GPa) = 63.81010 39.28462 27.32844
#
# Poissons Ratio (x) = 0.03052 0.15896
# Poissons Ratio (y) = 0.04957 0.55265
# Poissons Ratio (z) = 0.37117 0.79444
#
# Static dielectric constant tensor:
#      x y z
#    x 1.669680 0.000000 0.000000 
#    y 0.000000 1.613990 0.000000 
#    z 0.000000 0.000000 1.599580 
# 
# From -- ./inp_files/20585.got.cif
#   From: 2010.05.17/outbox.cif.g08.bks.cpg/sg40_11_cif.got.tgz:20585.got - 2010.06.03 18:35:42.
