data_PCOD9364701
_publ_section_title
;
Structure prediction by ZEFSAII (Michael W. Deem and Ramdas Pophale) SiO2 
 PCOD9364701
Probable space group: A M A 2
;
_chemical_formula_sum "Si O2"
_cell_formula_units_Z 36
_cell_length_a 17.080997
_cell_length_b 6.583478
_cell_length_c 14.262952
_cell_angle_alpha 90.000000
_cell_angle_beta 90.000000
_cell_angle_gamma 90.000000
_cell_volume 1603.902727
_symmetry_space_group_name_H-M "A M A 2"
_symmetry_group_IT_number 40
_symmetry_cell_setting 'orthorhombic'
loop_
_space_group_symop_operation_xyz
x,y,z
-x,-y,z
1/2-x,y,z
1/2+x,-y,z
x,1/2+y,1/2+z
-x,1/2-y,1/2+z
1/2-x,1/2+y,1/2+z
1/2+x,1/2-y,1/2+z
loop_
_atom_site_type_symbol
_atom_site_label
_atom_site_fract_x
_atom_site_fract_y
_atom_site_fract_z
Si Si1 0.000000 0.500000 0.176850
Si Si2 0.414028 0.511963 0.869007
Si Si3 0.164840 0.622623 0.455751
Si Si4 0.336772 0.846746 0.770000
Si Si5 0.061981 0.331675 0.534951
O O1 0.918353 0.570745 0.225737
O O2 0.971754 0.302064 0.118597
O O3 0.500000 0.500000 0.823459
O O4 0.388623 0.305364 0.918809
O O5 0.423536 0.669978 0.953827
O O6 0.352994 0.611978 0.797644
O O7 0.250000 0.709509 0.476513
O O8 0.168943 0.473183 0.366651
O O9 0.136680 0.480642 0.541788
O O10 0.250000 0.869675 0.723770
O O11 0.000000 0.500000 0.502772
#
# Coordination Sequence:
#
# PCOD9364701 Si02
#       5
#     4   8   8   8   8
#     4  12  24  40  66  98 140 184 220 280 346 404
#     4  11  19  38  69  93 124 172 225 277 332 401
#     4  10  21  39  65  95 127 170 226 283 334 398
#     4  10  24  41  62  97 136 174 225 278 336 405
#     4  11  22  40  60  93 127 172 222 268 334 403
#
# _framework density 22.445253000000001
#
# number of rings (size 3 to 8) (size 9 to 14) (size 15 to 20)
#    0.000    1.333    3.333    2.000    3.111    4.444 
#    0.000    3.333    0.000    0.000    0.000    0.000 
#    0.000    0.000    0.000    0.000    0.000    0.000 
#
# Total GULP energy -100281.666684 kJ/mol
# GULP energy per Si atom -5571.203705 kJ/mol
# Density = 2.239417 g / cm^3
# Si number density = 22.445253 Si / 1000 Ang^3
#
#
#
# Elastic Constant Matrix: (Units=GPa)
#
#
# Indices 1 2 3 4 5 6 
#
# 1 179.8578 58.9208 39.8568 0.0000 0.0000 0.0000
# 2 58.9208 137.6072 26.1126 0.0000 0.0000 0.0000
# 3 39.8568 26.1126 41.6432 0.0000 0.0000 0.0000
# 4 0.0000 0.0000 0.0000 26.0181 0.0000 0.0000
# 5 0.0000 0.0000 0.0000 0.0000 17.1776 0.0000
# 6 0.0000 0.0000 0.0000 0.0000 0.0000 23.8509
#
#
#
# Elastic Compliance Matrix: (Units=1/GPa)
#
#
# Indices 1 2 3 4 5 6 
#
# 1 0.007563 -0.002117 -0.005912 0.000000 0.000000 0.000000
# 2 -0.002117 0.008841 -0.003518 0.000000 0.000000 0.000000
# 3 -0.005912 -0.003518 0.031877 0.000000 0.000000 0.000000
# 4 0.000000 0.000000 0.000000 0.038435 0.000000 0.000000
# 5 0.000000 0.000000 0.000000 0.000000 0.058215 0.000000
# 6 0.000000 0.000000 0.000000 0.000000 0.000000 0.041927
#
#
# Mechanical properties :
#
#
# Convention : Reuss Voigt Hill
#
# Bulk Modulus (GPa) = 39.69930 67.65428 53.67679
# Shear Modulus (GPa) = 22.89922 29.02386 25.96154
#
# Velocity S-wave (km/s) = 3.19756 3.59986 3.40466
# Velocity P-wave (km/s) = 5.59983 6.89101 6.27870
#
# Compressibility (1/GPa) = 0.02518936
#
# Stress axis : x y z
#
# Youngs Moduli (GPa) = 132.21559 113.11010 31.37015
#
# Poissons Ratio (x) = 0.23942 0.18545
# Poissons Ratio (y) = 0.27986 0.11036
# Poissons Ratio (z) = 0.78161 0.39791
#
# Static dielectric constant tensor:
#      x y z
#    x 1.997420 0.000000 0.000000 
#    y 0.000000 1.808980 0.000000 
#    z 0.000000 0.000000 1.842000 
# 
# From -- ./inp_files/18011.got.cif
#   From: 2010.05.17/outbox.cif.g08.bks.cpg/sg40_10_cif.got.tgz:18011.got - 2010.06.03 18:35:42.
