data_PCOD9364422
_publ_section_title
;
Structure prediction by ZEFSAII (Michael W. Deem and Ramdas Pophale) SiO2 
 PCOD9364422
Probable space group: A M A 2
;
_chemical_formula_sum "Si O2"
_cell_formula_units_Z 40
_cell_length_a 11.881739
_cell_length_b 25.985983
_cell_length_c 5.213321
_cell_angle_alpha 90.000000
_cell_angle_beta 90.000000
_cell_angle_gamma 90.000000
_cell_volume 1609.658046
_symmetry_space_group_name_H-M "A M A 2"
_symmetry_group_IT_number 40
_symmetry_cell_setting 'orthorhombic'
loop_
_space_group_symop_operation_xyz
x,y,z
-x,-y,z
1/2-x,y,z
1/2+x,-y,z
x,1/2+y,1/2+z
-x,1/2-y,1/2+z
1/2-x,1/2+y,1/2+z
1/2+x,1/2-y,1/2+z
loop_
_atom_site_type_symbol
_atom_site_label
_atom_site_fract_x
_atom_site_fract_y
_atom_site_fract_z
Si Si1 0.866341 0.233632 0.465790
Si Si2 0.377269 0.026234 0.878348
Si Si3 0.052468 0.674277 0.221145
Si Si4 0.376758 0.365697 0.608522
Si Si5 0.426651 0.087286 0.366889
O O1 0.750000 0.221385 0.611161
O O2 0.975399 0.220725 0.623074
O O3 0.870531 0.190891 0.238966
O O4 0.865649 0.293360 0.396212
O O5 0.250000 0.001743 0.885272
O O6 0.373193 0.069676 0.100765
O O7 0.500000 0.000000 0.936210
O O8 0.395088 0.047849 0.591231
O O9 0.963152 0.638860 0.372660
O O10 0.105771 0.642194 0.991243
O O11 0.250000 0.381294 0.545588
O O12 0.440060 0.403993 0.806089
#
# Coordination Sequence:
#
# PCOD9364422 Si02
#       5
#     8   8   8   8   8
#     4  10  21  34  57  91 135 192 246 302 353 415
#     4  12  28  53  82 114 150 187 236 302 378 465
#     4  11  20  40  63  98 147 193 251 301 364 427
#     4  10  21  40  66  99 143 193 252 308 359 426
#     4  11  25  47  73 108 148 190 240 302 370 443
#
# _framework density 24.849996999999998
#
# number of rings (size 3 to 8) (size 9 to 14) (size 15 to 20)
#    0.000    1.200    4.000    1.800    0.000    4.000 
#    0.000    0.000    0.000    0.000    0.000    0.000 
#    0.000    0.000    0.000    0.000    0.000    0.000 
#
# Total GULP energy -111520.806119 kJ/mol
# GULP energy per Si atom -5576.040306 kJ/mol
# Density = 2.479344 g / cm^3
# Si number density = 24.849997 Si / 1000 Ang^3
#
#
#
# Elastic Constant Matrix: (Units=GPa)
#
#
# Indices 1 2 3 4 5 6 
#
# 1 180.2360 51.1955 32.7295 0.0000 0.0000 0.0000
# 2 51.1955 55.7929 17.1585 0.0000 0.0000 0.0000
# 3 32.7295 17.1585 104.8804 0.0000 0.0000 0.0000
# 4 0.0000 0.0000 0.0000 36.4088 0.0000 0.0000
# 5 0.0000 0.0000 0.0000 0.0000 145.0827 0.0000
# 6 0.0000 0.0000 0.0000 0.0000 0.0000 26.3299
#
#
#
# Elastic Compliance Matrix: (Units=1/GPa)
#
#
# Indices 1 2 3 4 5 6 
#
# 1 0.007671 -0.006637 -0.001308 0.000000 0.000000 0.000000
# 2 -0.006637 0.024615 -0.001956 0.000000 0.000000 0.000000
# 3 -0.001308 -0.001956 0.010263 0.000000 0.000000 0.000000
# 4 0.000000 0.000000 0.000000 0.027466 0.000000 0.000000
# 5 0.000000 0.000000 0.000000 0.000000 0.006893 0.000000
# 6 0.000000 0.000000 0.000000 0.000000 0.000000 0.037980
#
#
# Mechanical properties :
#
#
# Convention : Reuss Voigt Hill
#
# Bulk Modulus (GPa) = 43.96128 60.34184 52.15156
# Shear Modulus (GPa) = 35.14442 57.55267 46.34855
#
# Velocity S-wave (km/s) = 3.76475 4.81771 4.32340
# Velocity P-wave (km/s) = 6.05201 7.43520 6.77898
#
# Compressibility (1/GPa) = 0.02274729
#
# Stress axis : x y z
#
# Youngs Moduli (GPa) = 130.36271 40.62627 97.43865
#
# Poissons Ratio (x) = 0.26962 0.12746
# Poissons Ratio (y) = 0.86516 0.19058
# Poissons Ratio (z) = 0.17052 0.07946
#
# Static dielectric constant tensor:
#      x y z
#    x 1.562680 0.000000 0.000000 
#    y 0.000000 1.998960 0.000000 
#    z 0.000000 0.000000 1.993850 
# 
# From -- ./inp_files/875.got.cif
#   From: 2010.05.17/outbox.cif.g08.bks.cpg/sg40_1_cif.got.tgz:875.got - 2010.06.03 18:35:42.
