data_PCOD9364134
_publ_section_title
;
Structure prediction by ZEFSAII (Michael W. Deem and Ramdas Pophale) SiO2 
 PCOD9364134
Probable space group: A M A 2
;
_chemical_formula_sum "Si O2"
_cell_formula_units_Z 64
_cell_length_a 19.168173
_cell_length_b 5.316632
_cell_length_c 29.503835
_cell_angle_alpha 90.000000
_cell_angle_beta 90.000000
_cell_angle_gamma 90.000000
_cell_volume 3006.739423
_symmetry_space_group_name_H-M "A M A 2"
_symmetry_group_IT_number 40
_symmetry_cell_setting 'orthorhombic'
loop_
_space_group_symop_operation_xyz
x,y,z
-x,-y,z
1/2-x,y,z
1/2+x,-y,z
x,1/2+y,1/2+z
-x,1/2-y,1/2+z
1/2-x,1/2+y,1/2+z
1/2+x,1/2-y,1/2+z
loop_
_atom_site_type_symbol
_atom_site_label
_atom_site_fract_x
_atom_site_fract_y
_atom_site_fract_z
Si Si1 0.833755 0.783557 0.438360
Si Si2 0.327616 0.213669 0.256220
Si Si3 0.085032 0.523100 0.579071
Si Si4 0.430106 0.871548 0.209653
Si Si5 0.172788 0.425268 0.850853
Si Si6 0.571503 0.888228 0.802557
Si Si7 0.582899 0.479498 0.128483
Si Si8 0.835116 0.789071 0.989786
O O1 0.750000 0.784387 0.441268
O O2 0.849272 0.866856 0.387093
O O3 0.856325 0.012782 0.471498
O O4 0.854109 0.505107 0.453185
O O5 0.250000 0.300471 0.243796
O O6 0.376283 0.428520 0.276110
O O7 0.366818 0.063238 0.216884
O O8 0.321240 0.032446 0.300056
O O9 0.108894 0.246092 0.595678
O O10 0.123420 0.621317 0.534160
O O11 0.000000 0.500000 0.573669
O O12 0.105800 0.739941 0.615624
O O13 0.449757 0.792598 0.260787
O O14 0.408713 0.635081 0.178813
O O15 0.500000 0.000000 0.189471
O O16 0.250000 0.326871 0.864135
O O17 0.113526 0.222795 0.844382
O O18 0.500000 0.000000 0.819381
O O19 0.500000 0.500000 0.121782
O O20 0.750000 0.789943 0.996502
#
# Coordination Sequence:
#
# PCOD9364134 Si02
#       8
#     8   8   8   8   8   8   8   8
#     4   9  19  35  60  88 113 154 204 245 293 365
#     4  10  22  38  58  85 121 163 204 253 310 363
#     4  10  21  38  60  87 117 153 193 244 302 369
#     4  11  21  37  60  87 118 158 211 258 304 363
#     4   9  20  36  56  83 117 158 205 254 305 360
#     4  11  21  34  59  84 118 164 210 254 307 361
#     4  10  21  36  62  89 115 154 204 247 294 363
#     4  10  20  37  62  88 117 152 196 247 301 367
#
# _framework density 21.285515
#
# number of rings (size 3 to 8) (size 9 to 14) (size 15 to 20)
#    0.000    2.000    1.250    2.625    3.500    0.500 
#    0.000    1.875    2.750    0.000    0.000    0.000 
#    0.000    0.000    0.000    0.000    0.000    0.000 
#
# Total GULP energy -178481.135479 kJ/mol
# GULP energy per Si atom -5577.535484 kJ/mol
# Density = 2.123707 g / cm^3
# Si number density = 21.285515 Si / 1000 Ang^3
#
#
#
# Elastic Constant Matrix: (Units=GPa)
#
#
# Indices 1 2 3 4 5 6 
#
# 1 79.3248 25.8204 8.6123 0.0000 0.0000 0.0000
# 2 25.8204 77.8846 0.5575 0.0000 0.0000 0.0000
# 3 8.6123 0.5575 68.5394 0.0000 0.0000 0.0000
# 4 0.0000 0.0000 0.0000 45.3162 0.0000 0.0000
# 5 0.0000 0.0000 0.0000 0.0000 25.8276 0.0000
# 6 0.0000 0.0000 0.0000 0.0000 0.0000 24.0505
#
#
#
# Elastic Compliance Matrix: (Units=1/GPa)
#
#
# Indices 1 2 3 4 5 6 
#
# 1 0.014341 -0.004742 -0.001763 0.000000 0.000000 0.000000
# 2 -0.004742 0.014408 0.000479 0.000000 0.000000 0.000000
# 3 -0.001763 0.000479 0.014808 0.000000 0.000000 0.000000
# 4 0.000000 0.000000 0.000000 0.022067 0.000000 0.000000
# 5 0.000000 0.000000 0.000000 0.000000 0.038718 0.000000
# 6 0.000000 0.000000 0.000000 0.000000 0.000000 0.041579
#
#
# Mechanical properties :
#
#
# Convention : Reuss Voigt Hill
#
# Bulk Modulus (GPa) = 31.74209 32.85881 32.30045
# Shear Modulus (GPa) = 29.67771 31.75610 30.71690
#
# Velocity S-wave (km/s) = 3.73804 3.86672 3.80292
# Velocity P-wave (km/s) = 5.79444 5.95030 5.87288
#
# Compressibility (1/GPa) = 0.03150391
#
# Stress axis : x y z
#
# Youngs Moduli (GPa) = 69.72844 69.40537 67.53174
#
# Poissons Ratio (x) = 0.32911 0.11909
# Poissons Ratio (y) = 0.33064 -0.03232
# Poissons Ratio (z) = 0.12297 -0.03322
#
# Static dielectric constant tensor:
#      x y z
#    x 1.751130 0.000000 0.000000 
#    y 0.000000 1.853880 0.000000 
#    z 0.000000 0.000000 1.793870 
# 
# From -- ./inp_files/25865.got.cif
#   From: 2010.05.17/outbox.cif.g08.bks.cpg/sg40_13_cif.got.tgz:25865.got - 2010.06.03 18:35:42.
