data_PCOD9364436
_publ_section_title
;
Structure prediction by ZEFSAII (Michael W. Deem and Ramdas Pophale) SiO2 
 PCOD9364436
Probable space group: A M A 2
;
_chemical_formula_sum "Si O2"
_cell_formula_units_Z 40
_cell_length_a 20.595949
_cell_length_b 5.169970
_cell_length_c 18.946462
_cell_angle_alpha 90.000000
_cell_angle_beta 90.000000
_cell_angle_gamma 90.000000
_cell_volume 2017.427581
_symmetry_space_group_name_H-M "A M A 2"
_symmetry_group_IT_number 40
_symmetry_cell_setting 'orthorhombic'
loop_
_space_group_symop_operation_xyz
x,y,z
-x,-y,z
1/2-x,y,z
1/2+x,-y,z
x,1/2+y,1/2+z
-x,1/2-y,1/2+z
1/2-x,1/2+y,1/2+z
1/2+x,1/2-y,1/2+z
loop_
_atom_site_type_symbol
_atom_site_label
_atom_site_fract_x
_atom_site_fract_y
_atom_site_fract_z
Si Si1 0.078425 0.984092 0.770440
Si Si2 0.566541 0.358591 0.059615
Si Si3 0.176129 0.345592 0.990979
Si Si4 0.879543 0.672701 0.425955
Si Si5 0.922078 0.516310 0.692261
O O1 0.098732 0.896795 0.848090
O O2 0.101145 0.766495 0.714568
O O3 0.000000 0.500000 0.700096
O O4 0.102512 0.265695 0.746821
O O5 0.500000 0.500000 0.080634
O O6 0.586552 0.139012 0.114991
O O7 0.624391 0.564745 0.049933
O O8 0.561705 0.236536 0.980917
O O9 0.250000 0.351830 0.015288
O O10 0.163695 0.568498 0.932010
O O11 0.158092 0.068512 0.959745
O O12 0.000000 0.000000 0.769147
#
# Coordination Sequence:
#
# PCOD9364436 Si02
#       5
#     8   8   8   8   8
#     4  10  21  35  56  87 126 160 191 245 314 372
#     4  10  24  36  64  95 124 155 206 259 303 359
#     4  10  23  40  61  89 121 164 206 256 315 365
#     4  10  23  36  64  87 116 161 207 256 297 367
#     4  10  21  35  54  86 130 162 187 242 317 367
#
# _framework density 19.827231999999999
#
# number of rings (size 3 to 8) (size 9 to 14) (size 15 to 20)
#    1.200    0.800    0.000    3.600    8.400    0.800 
#    0.000    0.000    0.000    7.200    0.000    0.000 
#    0.000    0.000    0.000    0.000    0.000    0.000 
#
# Total GULP energy -111460.119726 kJ/mol
# GULP energy per Si atom -5573.005986 kJ/mol
# Density = 1.978210 g / cm^3
# Si number density = 19.827232 Si / 1000 Ang^3
#
#
#
# Elastic Constant Matrix: (Units=GPa)
#
#
# Indices 1 2 3 4 5 6 
#
# 1 63.4336 24.6807 15.4292 0.0000 0.0000 0.0000
# 2 24.6807 92.2420 6.8821 0.0000 0.0000 0.0000
# 3 15.4292 6.8821 102.1563 0.0000 0.0000 0.0000
# 4 0.0000 0.0000 0.0000 20.8938 0.0000 0.0000
# 5 0.0000 0.0000 0.0000 0.0000 1.1285 0.0000
# 6 0.0000 0.0000 0.0000 0.0000 0.0000 12.2678
#
#
#
# Elastic Compliance Matrix: (Units=1/GPa)
#
#
# Indices 1 2 3 4 5 6 
#
# 1 0.018177 -0.004682 -0.002430 0.000000 0.000000 0.000000
# 2 -0.004682 0.012102 -0.000108 0.000000 0.000000 0.000000
# 3 -0.002430 -0.000108 0.010163 0.000000 0.000000 0.000000
# 4 0.000000 0.000000 0.000000 0.047861 0.000000 0.000000
# 5 0.000000 0.000000 0.000000 0.000000 0.886131 0.000000
# 6 0.000000 0.000000 0.000000 0.000000 0.000000 0.081514
#
#
# Mechanical properties :
#
#
# Convention : Reuss Voigt Hill
#
# Bulk Modulus (GPa) = 38.45900 39.09066 38.77483
# Shear Modulus (GPa) = 4.63368 20.91401 12.77385
#
# Velocity S-wave (km/s) = 1.53039 3.25131 2.54098
# Velocity P-wave (km/s) = 4.74994 5.81835 5.31108
#
# Compressibility (1/GPa) = 0.02600172
#
# Stress axis : x y z
#
# Youngs Moduli (GPa) = 55.01354 82.63145 98.39408
#
# Poissons Ratio (x) = 0.38691 0.23910
# Poissons Ratio (y) = 0.25759 0.01064
# Poissons Ratio (z) = 0.13368 0.00893
#
# Static dielectric constant tensor:
#      x y z
#    x 1.675790 0.000000 0.000000 
#    y 0.000000 1.735950 0.000000 
#    z 0.000000 0.000000 1.723330 
# 
# From -- ./inp_files/21276.got.cif
#   From: 2010.05.17/outbox.cif.g08.bks.cpg/sg40_11_cif.got.tgz:21276.got - 2010.06.03 18:35:42.
