data_PCOD9364284
_publ_section_title
;
Structure prediction by ZEFSAII (Michael W. Deem and Ramdas Pophale) SiO2 
 PCOD9364284
Probable space group: A M A 2
;
_chemical_formula_sum "Si O2"
_cell_formula_units_Z 64
_cell_length_a 23.221800
_cell_length_b 16.458564
_cell_length_c 8.618873
_cell_angle_alpha 90.000000
_cell_angle_beta 90.000000
_cell_angle_gamma 90.000000
_cell_volume 3294.111554
_symmetry_space_group_name_H-M "A M A 2"
_symmetry_group_IT_number 40
_symmetry_cell_setting 'orthorhombic'
loop_
_space_group_symop_operation_xyz
x,y,z
-x,-y,z
1/2-x,y,z
1/2+x,-y,z
x,1/2+y,1/2+z
-x,1/2-y,1/2+z
1/2-x,1/2+y,1/2+z
1/2+x,1/2-y,1/2+z
loop_
_atom_site_type_symbol
_atom_site_label
_atom_site_fract_x
_atom_site_fract_y
_atom_site_fract_z
Si Si1 0.684119 0.237169 0.071970
Si Si2 0.033661 0.266044 0.399215
Si Si3 0.318546 0.990266 0.241146
Si Si4 0.887261 0.599618 0.467057
Si Si5 0.434957 0.480386 0.162299
Si Si6 0.878315 0.382342 0.956974
Si Si7 0.816281 0.179218 0.406990
Si Si8 0.069398 0.309367 0.053595
O O1 0.750000 0.215455 0.081127
O O2 0.661984 0.219112 0.245352
O O3 0.656395 0.175284 0.949732
O O4 0.672985 0.328995 0.027958
O O5 0.055065 0.345381 0.497692
O O6 0.072682 0.186015 0.428045
O O7 0.044481 0.289139 0.221921
O O8 0.968583 0.241841 0.434917
O O9 0.250000 0.004271 0.202277
O O10 0.317711 0.917097 0.368258
O O11 0.351628 0.067189 0.314020
O O12 0.357286 0.955370 0.098757
O O13 0.899383 0.549980 0.311508
O O14 0.500000 0.500000 0.212133
O O15 0.439108 0.406201 0.039781
O O16 0.404770 0.555105 0.079204
O O17 0.750000 0.202000 0.439451
O O18 0.862658 0.203828 0.534729
#
# Coordination Sequence:
#
# PCOD9364284 Si02
#       8
#     8   8   8   8   8   8   8   8
#     4   9  19  38  63  88 118 159 206 256 304 359
#     4  10  24  38  62  91 121 165 201 262 309 363
#     4  10  20  39  64  89 123 163 204 250 306 372
#     4   9  21  40  60  87 119 164 204 245 305 370
#     4  11  22  40  60  90 127 157 200 255 310 372
#     4  11  21  39  61  91 122 157 202 255 316 359
#     4   9  19  37  64  89 118 163 210 251 296 369
#     4  11  22  40  62  93 124 162 210 251 311 371
#
# _framework density 19.428607
#
# number of rings (size 3 to 8) (size 9 to 14) (size 15 to 20)
#    0.000    2.000    2.500    1.500    5.250    0.000 
#    6.750   11.250    0.000    0.000    0.000    0.000 
#    0.000    0.000    0.000    0.000    0.000    0.000 
#
# Total GULP energy -178245.482071 kJ/mol
# GULP energy per Si atom -5570.171315 kJ/mol
# Density = 1.938439 g / cm^3
# Si number density = 19.428607 Si / 1000 Ang^3
#
#
#
# Elastic Constant Matrix: (Units=GPa)
#
#
# Indices 1 2 3 4 5 6 
#
# 1 84.9789 7.1419 30.4077 0.0000 0.0000 0.0000
# 2 7.1419 87.0856 21.3232 0.0000 0.0000 0.0000
# 3 30.4077 21.3232 41.0504 0.0000 0.0000 0.0000
# 4 0.0000 0.0000 0.0000 27.9216 0.0000 0.0000
# 5 0.0000 0.0000 0.0000 0.0000 31.1897 0.0000
# 6 0.0000 0.0000 0.0000 0.0000 0.0000 21.5415
#
#
#
# Elastic Compliance Matrix: (Units=1/GPa)
#
#
# Indices 1 2 3 4 5 6 
#
# 1 0.016268 0.001852 -0.013013 0.000000 0.000000 0.000000
# 2 0.001852 0.013367 -0.008315 0.000000 0.000000 0.000000
# 3 -0.013013 -0.008315 0.038319 0.000000 0.000000 0.000000
# 4 0.000000 0.000000 0.000000 0.035815 0.000000 0.000000
# 5 0.000000 0.000000 0.000000 0.000000 0.032062 0.000000
# 6 0.000000 0.000000 0.000000 0.000000 0.000000 0.046422
#
#
# Mechanical properties :
#
#
# Convention : Reuss Voigt Hill
#
# Bulk Modulus (GPa) = 34.48014 36.76231 35.62122
# Shear Modulus (GPa) = 21.65709 26.41337 24.03523
#
# Velocity S-wave (km/s) = 3.34234 3.69115 3.52107
# Velocity P-wave (km/s) = 5.71669 6.09335 5.90803
#
# Compressibility (1/GPa) = 0.02900220
#
# Stress axis : x y z
#
# Youngs Moduli (GPa) = 61.46955 74.81060 26.09705
#
# Poissons Ratio (x) = -0.13855 0.33959
# Poissons Ratio (y) = -0.11384 0.21700
# Poissons Ratio (z) = 0.79988 0.62207
#
# Static dielectric constant tensor:
#      x y z
#    x 1.732830 0.000000 0.000000 
#    y 0.000000 1.696330 0.000000 
#    z 0.000000 0.000000 1.705880 
# 
# From -- ./inp_files/8985.got.cif
#   From: 2010.05.17/outbox.cif.g08.bks.cpg/sg40_5_cif.got.tgz:8985.got - 2010.06.03 18:35:42.
