data_PCOD9364988
_publ_section_title
;
Structure prediction by ZEFSAII (Michael W. Deem and Ramdas Pophale) SiO2 
 PCOD9364988
Probable space group: A M A 2
;
_chemical_formula_sum "Si O2"
_cell_formula_units_Z 64
_cell_length_a 27.249373
_cell_length_b 7.079199
_cell_length_c 12.807296
_cell_angle_alpha 90.000000
_cell_angle_beta 90.000000
_cell_angle_gamma 90.000000
_cell_volume 2470.575222
_symmetry_space_group_name_H-M "A M A 2"
_symmetry_group_IT_number 40
_symmetry_cell_setting 'orthorhombic'
loop_
_space_group_symop_operation_xyz
x,y,z
-x,-y,z
1/2-x,y,z
1/2+x,-y,z
x,1/2+y,1/2+z
-x,1/2-y,1/2+z
1/2-x,1/2+y,1/2+z
1/2+x,1/2-y,1/2+z
loop_
_atom_site_type_symbol
_atom_site_label
_atom_site_fract_x
_atom_site_fract_y
_atom_site_fract_z
Si Si1 0.658556 0.430269 0.135710
Si Si2 0.120300 0.679066 0.543589
Si Si3 0.804421 0.871622 0.409898
Si Si4 0.483115 0.224911 0.347362
Si Si5 0.505003 0.724440 0.066660
Si Si6 0.886951 0.891287 0.262488
Si Si7 0.694998 0.823970 0.864984
Si Si8 0.432587 0.248933 0.736868
O O1 0.681160 0.339614 0.030600
O O2 0.687361 0.385725 0.243741
O O3 0.604294 0.366990 0.168250
O O4 0.596592 0.095855 0.304699
O O5 0.061977 0.728688 0.540180
O O6 0.124293 0.545292 0.644651
O O7 0.149999 0.856709 0.594658
O O8 0.155379 0.202485 0.328961
O O9 0.750000 0.801205 0.389875
O O10 0.804248 0.095723 0.380387
O O11 0.471645 0.268344 0.466201
O O12 0.435546 0.234504 0.274656
O O13 0.531001 0.345701 0.318227
O O14 0.500000 0.000000 0.351606
O O15 0.500000 0.500000 0.088572
O O16 0.475434 0.824327 0.159821
O O17 0.849637 0.386136 0.442045
O O18 0.750000 0.884270 0.898806
#
# Coordination Sequence:
#
# PCOD9364988 Si02
#       8
#     8   8   8   8   8   8   8   8
#     4  11  21  40  67  92 118 161 217 260 310 382
#     4  11  24  39  62  94 131 164 205 262 324 386
#     4  10  22  40  67  94 118 159 216 268 314 375
#     4   9  20  33  58  83 119 164 205 249 306 368
#     4  11  20  35  58  90 123 163 212 257 303 372
#     4  11  22  41  59  91 130 165 204 258 324 379
#     4  10  22  43  67  91 120 162 213 265 321 380
#     4  11  20  36  63  88 121 167 209 249 314 382
#
# _framework density 25.904900000000001
#
# number of rings (size 3 to 8) (size 9 to 14) (size 15 to 20)
#    0.000    1.500    3.750    1.875    7.000    1.000 
#    4.500    0.000    2.750    0.000    0.000    0.000 
#    0.000    0.000    0.000    0.000    0.000    0.000 
#
# Total GULP energy -178565.882119 kJ/mol
# GULP energy per Si atom -5580.183816 kJ/mol
# Density = 2.584594 g / cm^3
# Si number density = 25.904900 Si / 1000 Ang^3
#
#
#
# Elastic Constant Matrix: (Units=GPa)
#
#
# Indices 1 2 3 4 5 6 
#
# 1 194.0145 9.1402 66.2439 0.0000 0.0000 0.0000
# 2 9.1402 76.1704 7.6276 0.0000 0.0000 0.0000
# 3 66.2439 7.6276 155.2561 0.0000 0.0000 0.0000
# 4 0.0000 0.0000 0.0000 33.6241 0.0000 0.0000
# 5 0.0000 0.0000 0.0000 0.0000 42.1967 0.0000
# 6 0.0000 0.0000 0.0000 0.0000 0.0000 5.1230
#
#
#
# Elastic Compliance Matrix: (Units=1/GPa)
#
#
# Indices 1 2 3 4 5 6 
#
# 1 0.006050 -0.000470 -0.002558 0.000000 0.000000 0.000000
# 2 -0.000470 0.013230 -0.000450 0.000000 0.000000 0.000000
# 3 -0.002558 -0.000450 0.007555 0.000000 0.000000 0.000000
# 4 0.000000 0.000000 0.000000 0.029741 0.000000 0.000000
# 5 0.000000 0.000000 0.000000 0.000000 0.023699 0.000000
# 6 0.000000 0.000000 0.000000 0.000000 0.000000 0.195197
#
#
# Mechanical properties :
#
#
# Convention : Reuss Voigt Hill
#
# Bulk Modulus (GPa) = 50.30383 65.71826 58.01105
# Shear Modulus (GPa) = 17.29796 39.01737 28.15767
#
# Velocity S-wave (km/s) = 2.58689 3.88516 3.30049
# Velocity P-wave (km/s) = 5.32761 6.74908 6.08003
#
# Compressibility (1/GPa) = 0.01987920
#
# Stress axis : x y z
#
# Youngs Moduli (GPa) = 165.29281 75.58665 132.36973
#
# Poissons Ratio (x) = 0.03551 0.33863
# Poissons Ratio (y) = 0.07765 0.05950
# Poissons Ratio (z) = 0.42286 0.03398
#
# Static dielectric constant tensor:
#      x y z
#    x 2.067230 0.000000 0.000000 
#    y 0.000000 2.211930 0.000000 
#    z 0.000000 0.000000 2.131960 
# 
# From -- ./inp_files/18769.got.cif
#   From: 2010.05.17/outbox.cif.g08.bks.cpg/sg40_10_cif.got.tgz:18769.got - 2010.06.03 18:35:42.
