data_PCOD9364663
_publ_section_title
;
Structure prediction by ZEFSAII (Michael W. Deem and Ramdas Pophale) SiO2 
 PCOD9364663
Probable space group: A M A 2
;
_chemical_formula_sum "Si O2"
_cell_formula_units_Z 56
_cell_length_a 22.756506
_cell_length_b 13.103753
_cell_length_c 8.917873
_cell_angle_alpha 90.000000
_cell_angle_beta 90.000000
_cell_angle_gamma 90.000000
_cell_volume 2659.270791
_symmetry_space_group_name_H-M "A M A 2"
_symmetry_group_IT_number 40
_symmetry_cell_setting 'orthorhombic'
loop_
_space_group_symop_operation_xyz
x,y,z
-x,-y,z
1/2-x,y,z
1/2+x,-y,z
x,1/2+y,1/2+z
-x,1/2-y,1/2+z
1/2-x,1/2+y,1/2+z
1/2+x,1/2-y,1/2+z
loop_
_atom_site_type_symbol
_atom_site_label
_atom_site_fract_x
_atom_site_fract_y
_atom_site_fract_z
Si Si1 0.994965 0.748039 0.555310
Si Si2 0.815013 0.724579 0.094191
Si Si3 0.411742 0.135662 0.216339
Si Si4 0.680710 0.523661 0.294054
Si Si5 0.404906 0.860274 0.390631
Si Si6 0.910161 0.571197 0.558216
Si Si7 0.594972 0.427654 0.047786
O O1 0.032632 0.709124 0.698270
O O2 0.046636 0.779518 0.441207
O O3 0.956236 0.653117 0.493240
O O4 0.954808 0.846386 0.595356
O O5 0.750000 0.761459 0.073506
O O6 0.857404 0.816170 0.131727
O O7 0.817680 0.636421 0.219608
O O8 0.841368 0.669660 0.950656
O O9 0.388521 0.119498 0.384816
O O10 0.432537 0.034995 0.128517
O O11 0.750000 0.493082 0.313869
O O12 0.641615 0.540734 0.443701
O O13 0.643820 0.951344 0.676080
O O14 0.395745 0.873239 0.215175
O O15 0.424767 0.961073 0.485150
#
# Coordination Sequence:
#
# PCOD9364663 Si02
#       7
#     8   8   8   8   8   8   8
#     4  11  21  37  62  90 124 163 205 260 323 394
#     4   9  19  39  64  87 118 164 214 260 310 373
#     4  10  22  39  61  91 124 163 213 259 314 388
#     4  10  23  42  62  90 126 164 214 271 324 382
#     4   9  21  39  61  91 124 162 210 258 315 387
#     4  11  23  39  61  91 126 164 205 260 322 382
#     4  10  21  39  62  88 123 168 209 256 319 384
#
# _framework density 21.058405
#
# number of rings (size 3 to 8) (size 9 to 14) (size 15 to 20)
#    0.000    2.000    0.000    2.571    0.000    9.714 
#    0.000    7.857    0.000    0.000    0.000    0.000 
#    0.000    0.000    0.000    0.000    0.000    0.000 
#
# Total GULP energy -155921.896083 kJ/mol
# GULP energy per Si atom -5568.639146 kJ/mol
# Density = 2.101048 g / cm^3
# Si number density = 21.058405 Si / 1000 Ang^3
#
#
#
# Elastic Constant Matrix: (Units=GPa)
#
#
# Indices 1 2 3 4 5 6 
#
# 1 132.7388 39.6514 59.4094 0.0000 0.0000 0.0000
# 2 39.6514 47.5007 36.8714 0.0000 0.0000 0.0000
# 3 59.4094 36.8714 123.4443 0.0000 0.0000 0.0000
# 4 0.0000 0.0000 0.0000 27.9262 0.0000 0.0000
# 5 0.0000 0.0000 0.0000 0.0000 -2.1970 0.0000
# 6 0.0000 0.0000 0.0000 0.0000 0.0000 27.4979
#
#
#
# Elastic Compliance Matrix: (Units=1/GPa)
#
#
# Indices 1 2 3 4 5 6 
#
# 1 0.010990 -0.006598 -0.003318 0.000000 0.000000 0.000000
# 2 -0.006598 0.031368 -0.006194 0.000000 0.000000 0.000000
# 3 -0.003318 -0.006194 0.011548 0.000000 0.000000 0.000000
# 4 0.000000 0.000000 0.000000 0.035809 0.000000 0.000000
# 5 0.000000 0.000000 0.000000 0.000000 -0.455160 0.000000
# 6 0.000000 0.000000 0.000000 0.000000 0.000000 0.036366
#
#
# Mechanical properties :
#
#
# Convention : Reuss Voigt Hill
#
# Bulk Modulus (GPa) = 46.11425 63.94978 55.03201
# Shear Modulus (GPa) = -17.26330 21.82886 2.28278
#
# Velocity S-wave (km/s) = -2.86629 3.22310 1.04229
# Velocity P-wave (km/s) = 3.31537 6.65469 5.25721
#
# Compressibility (1/GPa) = 0.02168527
#
# Stress axis : x y z
#
# Youngs Moduli (GPa) = 90.99494 31.87975 86.59677
#
# Poissons Ratio (x) = 0.21034 0.28734
# Poissons Ratio (y) = 0.60038 0.53637
# Poissons Ratio (z) = 0.30194 0.19746
#
# Static dielectric constant tensor:
#      x y z
#    x 1.750680 0.000000 0.000000 
#    y 0.000000 1.823000 0.000000 
#    z 0.000000 0.000000 1.809570 
# 
# From -- ./inp_files/13587.got.cif
#   From: 2010.05.17/outbox.cif.g08.bks.cpg/sg40_7_cif.got.tgz:13587.got - 2010.06.03 18:35:42.
