data_PCOD9364073
_publ_section_title
;
Structure prediction by ZEFSAII (Michael W. Deem and Ramdas Pophale) SiO2 
 PCOD9364073
Probable space group: A M A 2
;
_chemical_formula_sum "Si O2"
_cell_formula_units_Z 64
_cell_length_a 8.576472
_cell_length_b 20.677235
_cell_length_c 20.154379
_cell_angle_alpha 90.000000
_cell_angle_beta 90.000000
_cell_angle_gamma 90.000000
_cell_volume 3574.131761
_symmetry_space_group_name_H-M "A M A 2"
_symmetry_group_IT_number 40
_symmetry_cell_setting 'orthorhombic'
loop_
_space_group_symop_operation_xyz
x,y,z
-x,-y,z
1/2-x,y,z
1/2+x,-y,z
x,1/2+y,1/2+z
-x,1/2-y,1/2+z
1/2-x,1/2+y,1/2+z
1/2+x,1/2-y,1/2+z
loop_
_atom_site_type_symbol
_atom_site_label
_atom_site_fract_x
_atom_site_fract_y
_atom_site_fract_z
Si Si1 0.563274 0.928688 0.814270
Si Si2 0.438138 0.818360 0.417287
Si Si3 0.936392 0.319905 0.564831
Si Si4 0.063235 0.428552 0.166615
Si Si5 0.063384 0.823748 0.917021
Si Si6 0.062502 0.429813 0.815970
Si Si7 0.437646 0.428988 0.662430
Si Si8 0.563298 0.822293 0.565077
O O1 0.750000 0.929868 0.812674
O O2 0.499325 0.913990 0.740576
O O3 0.503123 0.876201 0.866348
O O4 0.500000 0.000000 0.831963
O O5 0.250000 0.814917 0.419054
O O6 0.504589 0.748107 0.398727
O O7 0.487646 0.872934 0.365019
O O8 0.499976 0.834289 0.490757
O O9 0.750000 0.316100 0.562358
O O10 0.000686 0.335677 0.491417
O O11 0.991704 0.374171 0.615903
O O12 0.004425 0.249584 0.583548
O O13 0.250000 0.429736 0.167432
O O14 0.000000 0.500000 0.149044
O O15 0.002006 0.375471 0.115314
O O16 0.250000 0.825291 0.917367
O O17 0.250000 0.432061 0.817357
O O18 0.015810 0.418103 0.739459
O O19 0.000000 0.500000 0.836253
O O20 0.500000 0.500000 0.643576
O O21 0.250000 0.428046 0.658108
O O22 0.750000 0.823206 0.564732
#
# Coordination Sequence:
#
# PCOD9364073 Si02
#       8
#     8   8   8   8   8   8   8   8
#     4  11  22  39  60  85 115 148 184 229 278 332
#     4  10  20  37  57  82 113 148 187 233 281 331
#     4  11  22  38  58  83 112 147 187 233 282 334
#     4  11  22  39  60  85 114 148 187 231 278 332
#     4  11  22  38  58  83 112 147 187 231 278 332
#     4   9  20  36  57  81 111 145 182 225 273 324
#     4  10  20  37  57  82 112 146 185 229 278 333
#     4  11  22  38  58  83 113 149 187 231 280 332
#
# _framework density 17.906447
#
# number of rings (size 3 to 8) (size 9 to 14) (size 15 to 20)
#    0.000    1.500    0.000    8.625    0.000    3.500 
#    0.000    7.500    0.000    0.000    0.000    0.000 
#    0.000    0.000    0.000    0.000    0.000    0.000 
#
# Total GULP energy -178848.806059 kJ/mol
# GULP energy per Si atom -5589.025189 kJ/mol
# Density = 1.786569 g / cm^3
# Si number density = 17.906447 Si / 1000 Ang^3
#
#
#
# Elastic Constant Matrix: (Units=GPa)
#
#
# Indices 1 2 3 4 5 6 
#
# 1 164.0441 73.8094 60.9684 0.0000 0.0000 0.0000
# 2 73.8094 176.1859 134.4032 0.0000 0.0000 0.0000
# 3 60.9684 134.4032 114.4248 0.0000 0.0000 0.0000
# 4 0.0000 0.0000 0.0000 46.9281 0.0000 0.0000
# 5 0.0000 0.0000 0.0000 0.0000 48.3264 0.0000
# 6 0.0000 0.0000 0.0000 0.0000 0.0000 35.6115
#
#
#
# Elastic Compliance Matrix: (Units=1/GPa)
#
#
# Indices 1 2 3 4 5 6 
#
# 1 0.007616 -0.000913 -0.002986 0.000000 0.000000 0.000000
# 2 -0.000913 0.054706 -0.063771 0.000000 0.000000 0.000000
# 3 -0.002986 -0.063771 0.085235 0.000000 0.000000 0.000000
# 4 0.000000 0.000000 0.000000 0.021309 0.000000 0.000000
# 5 0.000000 0.000000 0.000000 0.000000 0.020693 0.000000
# 6 0.000000 0.000000 0.000000 0.000000 0.000000 0.028081
#
#
# Mechanical properties :
#
#
# Convention : Reuss Voigt Hill
#
# Bulk Modulus (GPa) = 81.84430 110.33521 96.08975
# Shear Modulus (GPa) = 14.00354 38.53814 26.27084
#
# Velocity S-wave (km/s) = 2.79953 4.64421 3.83445
# Velocity P-wave (km/s) = 7.50038 9.51365 8.56637
#
# Compressibility (1/GPa) = 0.01221832
#
# Stress axis : x y z
#
# Youngs Moduli (GPa) = 131.29526 18.27955 11.73222
#
# Poissons Ratio (x) = 0.01669 0.03503
# Poissons Ratio (y) = 0.11990 0.74817
# Poissons Ratio (z) = 0.39199 1.16570
#
# Static dielectric constant tensor:
#      x y z
#    x 1.598780 0.000000 0.000000 
#    y 0.000000 1.584590 0.000000 
#    z 0.000000 0.000000 1.590990 
# 
# From -- ./inp_files/19561.got.cif
#   From: 2010.05.17/outbox.cif.g08.bks.cpg/sg40_10_cif.got.tgz:19561.got - 2010.06.03 18:35:42.
