data_PCOD9364337
_publ_section_title
;
Structure prediction by ZEFSAII (Michael W. Deem and Ramdas Pophale) SiO2 
 PCOD9364337
Probable space group: A M A 2
;
_chemical_formula_sum "Si O2"
_cell_formula_units_Z 52
_cell_length_a 15.417567
_cell_length_b 5.361906
_cell_length_c 27.707734
_cell_angle_alpha 90.000000
_cell_angle_beta 90.000000
_cell_angle_gamma 90.000000
_cell_volume 2290.530347
_symmetry_space_group_name_H-M "A M A 2"
_symmetry_group_IT_number 40
_symmetry_cell_setting 'orthorhombic'
loop_
_space_group_symop_operation_xyz
x,y,z
-x,-y,z
1/2-x,y,z
1/2+x,-y,z
x,1/2+y,1/2+z
-x,1/2-y,1/2+z
1/2-x,1/2+y,1/2+z
1/2+x,1/2-y,1/2+z
loop_
_atom_site_type_symbol
_atom_site_label
_atom_site_fract_x
_atom_site_fract_y
_atom_site_fract_z
Si Si1 0.851309 0.797840 0.450810
Si Si2 0.347806 0.535980 0.296958
Si Si3 0.596127 0.938991 0.345994
Si Si4 0.145062 0.210336 0.999081
Si Si5 0.000000 0.000000 0.169977
Si Si6 0.345389 0.190233 0.692186
Si Si7 0.850746 0.712747 0.112573
O O1 0.750000 0.793544 0.465199
O O2 0.854595 0.846866 0.393850
O O3 0.887907 0.541710 0.473298
O O4 0.891459 0.044157 0.474013
O O5 0.250000 0.482656 0.314507
O O6 0.406696 0.308755 0.313684
O O7 0.344724 0.516873 0.238966
O O8 0.369421 0.813344 0.317889
O O9 0.500000 0.000000 0.362523
O O10 0.250000 0.207509 0.992136
O O11 0.132076 0.252094 0.056026
O O12 0.929645 0.853263 0.138194
O O13 0.065932 0.836241 0.200325
O O14 0.250000 0.318001 0.694407
O O15 0.351823 0.054743 0.640148
O O16 0.750000 0.797800 0.119616
#
# Coordination Sequence:
#
# PCOD9364337 Si02
#       7
#     8   8   8   8   4   8   8
#     4  10  20  40  66  93 128 179 229 279 342 416
#     4  11  25  46  72  99 133 189 239 284 347 429
#     4  12  26  43  67 104 144 176 229 295 360 416
#     4   9  20  38  66  95 127 176 231 278 339 410
#     4  12  24  40  68 100 136 180 230 286 350 414
#     4  10  25  45  69 100 140 184 235 291 354 427
#     4  10  23  43  65  97 139 183 232 287 346 420
#
# _framework density 22.702166999999999
#
# number of rings (size 3 to 8) (size 9 to 14) (size 15 to 20)
#    0.000    1.538    0.000    3.692    5.385    2.462 
#    2.769    0.000    0.000    0.000    0.000    0.000 
#    0.000    0.000    0.000    0.000    0.000    0.000 
#
# Total GULP energy -144930.604613 kJ/mol
# GULP energy per Si atom -5574.254024 kJ/mol
# Density = 2.265050 g / cm^3
# Si number density = 22.702167 Si / 1000 Ang^3
#
#
#
# Elastic Constant Matrix: (Units=GPa)
#
#
# Indices 1 2 3 4 5 6 
#
# 1 113.3238 20.5308 6.6290 0.0000 0.0000 0.0000
# 2 20.5308 133.7543 48.7246 0.0000 0.0000 0.0000
# 3 6.6290 48.7246 68.2639 0.0000 0.0000 0.0000
# 4 0.0000 0.0000 0.0000 30.5530 0.0000 0.0000
# 5 0.0000 0.0000 0.0000 0.0000 153.7542 0.0000
# 6 0.0000 0.0000 0.0000 0.0000 0.0000 29.9721
#
#
#
# Elastic Compliance Matrix: (Units=1/GPa)
#
#
# Indices 1 2 3 4 5 6 
#
# 1 0.009078 -0.001449 0.000153 0.000000 0.000000 0.000000
# 2 -0.001449 0.010335 -0.007236 0.000000 0.000000 0.000000
# 3 0.000153 -0.007236 0.019799 0.000000 0.000000 0.000000
# 4 0.000000 0.000000 0.000000 0.032730 0.000000 0.000000
# 5 0.000000 0.000000 0.000000 0.000000 0.006504 0.000000
# 6 0.000000 0.000000 0.000000 0.000000 0.000000 0.033364
#
#
# Mechanical properties :
#
#
# Convention : Reuss Voigt Hill
#
# Bulk Modulus (GPa) = 45.15255 51.90121 48.52688
# Shear Modulus (GPa) = 36.69548 58.81970 47.75759
#
# Velocity S-wave (km/s) = 4.02479 5.09564 4.59154
# Velocity P-wave (km/s) = 6.44445 7.58499 7.03786
#
# Compressibility (1/GPa) = 0.02214714
#
# Stress axis : x y z
#
# Youngs Moduli (GPa) = 110.15807 96.76106 50.50776
#
# Poissons Ratio (x) = 0.14021 -0.00772
# Poissons Ratio (y) = 0.15963 0.36547
# Poissons Ratio (z) = -0.01683 0.70015
#
# Static dielectric constant tensor:
#      x y z
#    x 1.619940 0.000000 0.000000 
#    y 0.000000 1.920060 0.000000 
#    z 0.000000 0.000000 1.818950 
# 
# From -- ./inp_files/25779.got.cif
#   From: 2010.05.17/outbox.cif.g08.bks.cpg/sg40_13_cif.got.tgz:25779.got - 2010.06.03 18:35:42.
