data_PCOD9364906
_publ_section_title
;
Structure prediction by ZEFSAII (Michael W. Deem and Ramdas Pophale) SiO2 
 PCOD9364906
Probable space group: A M A 2
;
_chemical_formula_sum "Si O2"
_cell_formula_units_Z 48
_cell_length_a 11.378369
_cell_length_b 23.691094
_cell_length_c 7.840897
_cell_angle_alpha 90.000000
_cell_angle_beta 90.000000
_cell_angle_gamma 90.000000
_cell_volume 2113.639316
_symmetry_space_group_name_H-M "A M A 2"
_symmetry_group_IT_number 40
_symmetry_cell_setting 'orthorhombic'
loop_
_space_group_symop_operation_xyz
x,y,z
-x,-y,z
1/2-x,y,z
1/2+x,-y,z
x,1/2+y,1/2+z
-x,1/2-y,1/2+z
1/2-x,1/2+y,1/2+z
1/2+x,1/2-y,1/2+z
loop_
_atom_site_type_symbol
_atom_site_label
_atom_site_fract_x
_atom_site_fract_y
_atom_site_fract_z
Si Si1 0.250000 0.884829 0.082520
Si Si2 0.750000 0.135457 0.477215
Si Si3 0.750000 0.757162 0.152873
Si Si4 0.005954 0.067056 0.103138
Si Si5 0.250000 0.270530 0.518087
Si Si6 0.494296 0.740534 0.490046
Si Si7 0.495291 0.626565 0.958146
Si Si8 0.112609 0.641652 0.310780
O O1 0.250000 0.855370 0.270911
O O2 0.129273 0.916635 0.067967
O O3 0.250000 0.834263 0.950169
O O4 0.750000 0.193361 0.580848
O O5 0.626406 0.104970 0.508766
O O6 0.750000 0.768283 0.352802
O O7 0.623068 0.777222 0.090354
O O8 0.040195 0.095976 0.283678
O O9 0.000000 0.000000 0.114322
O O10 0.084139 0.094338 0.952888
O O11 0.381089 0.264301 0.588781
O O12 0.488556 0.805613 0.433056
O O13 0.482783 0.692359 0.343971
O O14 0.411242 0.619785 0.119845
O O15 0.250000 0.660224 0.320363
#
# Coordination Sequence:
#
# PCOD9364906 Si02
#       8
#     4   4   4   8   4   8   8   8
#     4  10  22  42  68 103 125 184 243 301 355 420
#     4   8  18  38  66  93 132 178 238 284 348 420
#     4  10  22  38  61  93 147 190 216 285 354 433
#     4  11  27  50  76 103 145 193 251 308 359 429
#     4  12  24  38  67 103 136 192 237 288 361 445
#     4  11  23  40  66 106 152 186 235 294 366 446
#     4  10  25  44  71 108 147 194 238 305 368 441
#     4  12  27  45  72 109 151 196 241 298 376 448
#
# _framework density 22.709647
#
# number of rings (size 3 to 8) (size 9 to 14) (size 15 to 20)
#    0.000    1.333    2.500    2.000    7.000    4.000 
#    0.000    0.000    3.667    0.000    0.000    0.000 
#    0.000    0.000    0.000    0.000    0.000    0.000 
#
# Total GULP energy -133935.931583 kJ/mol
# GULP energy per Si atom -5580.663816 kJ/mol
# Density = 2.265796 g / cm^3
# Si number density = 22.709647 Si / 1000 Ang^3
#
#
#
# Elastic Constant Matrix: (Units=GPa)
#
#
# Indices 1 2 3 4 5 6 
#
# 1 163.9340 19.1878 61.0654 0.0000 0.0000 0.0000
# 2 19.1878 110.4841 37.0786 0.0000 0.0000 0.0000
# 3 61.0654 37.0786 91.4308 0.0000 0.0000 0.0000
# 4 0.0000 0.0000 0.0000 19.6492 0.0000 0.0000
# 5 0.0000 0.0000 0.0000 0.0000 33.0692 0.0000
# 6 0.0000 0.0000 0.0000 0.0000 0.0000 23.8648
#
#
#
# Elastic Compliance Matrix: (Units=1/GPa)
#
#
# Indices 1 2 3 4 5 6 
#
# 1 0.008142 0.000476 -0.005631 0.000000 0.000000 0.000000
# 2 0.000476 0.010505 -0.004578 0.000000 0.000000 0.000000
# 3 -0.005631 -0.004578 0.016554 0.000000 0.000000 0.000000
# 4 0.000000 0.000000 0.000000 0.050893 0.000000 0.000000
# 5 0.000000 0.000000 0.000000 0.000000 0.030240 0.000000
# 6 0.000000 0.000000 0.000000 0.000000 0.000000 0.041903
#
#
# Mechanical properties :
#
#
# Convention : Reuss Voigt Hill
#
# Bulk Modulus (GPa) = 63.55126 66.72362 65.13744
# Shear Modulus (GPa) = 27.33039 31.88445 29.60742
#
# Velocity S-wave (km/s) = 3.47287 3.75107 3.61465
# Velocity P-wave (km/s) = 6.64275 6.94303 6.79455
#
# Compressibility (1/GPa) = 0.01573533
#
# Stress axis : x y z
#
# Youngs Moduli (GPa) = 122.82349 95.19482 60.40711
#
# Poissons Ratio (x) = -0.04528 0.34013
# Poissons Ratio (y) = -0.05842 0.27653
# Poissons Ratio (z) = 0.69158 0.43578
#
# Static dielectric constant tensor:
#      x y z
#    x 1.906670 0.000000 0.000000 
#    y 0.000000 1.831720 0.000000 
#    z 0.000000 0.000000 1.948850 
# 
# From -- ./inp_files/5469.got.cif
#   From: 2010.05.17/outbox.cif.g08.bks.cpg/sg40_3_cif.got.tgz:5469.got - 2010.06.03 18:35:42.
