data_PCOD9364257
_publ_section_title
;
Structure prediction by ZEFSAII (Michael W. Deem and Ramdas Pophale) SiO2 
 PCOD9364257
Probable space group: A M A 2
;
_chemical_formula_sum "Si O2"
_cell_formula_units_Z 64
_cell_length_a 15.052649
_cell_length_b 17.772494
_cell_length_c 10.787725
_cell_angle_alpha 90.000000
_cell_angle_beta 90.000000
_cell_angle_gamma 90.000000
_cell_volume 2885.965785
_symmetry_space_group_name_H-M "A M A 2"
_symmetry_group_IT_number 40
_symmetry_cell_setting 'orthorhombic'
loop_
_space_group_symop_operation_xyz
x,y,z
-x,-y,z
1/2-x,y,z
1/2+x,-y,z
x,1/2+y,1/2+z
-x,1/2-y,1/2+z
1/2-x,1/2+y,1/2+z
1/2+x,1/2-y,1/2+z
loop_
_atom_site_type_symbol
_atom_site_label
_atom_site_fract_x
_atom_site_fract_y
_atom_site_fract_z
Si Si1 0.105984 0.011869 0.965410
Si Si2 0.856175 0.726463 0.445639
Si Si3 0.855242 0.340044 0.587247
Si Si4 0.148663 0.386496 0.655106
Si Si5 0.016637 0.082153 0.282805
Si Si6 0.849996 0.901684 0.490215
Si Si7 0.396150 0.483076 0.192842
Si Si8 0.356694 0.816274 0.667901
O O1 0.139521 0.981140 0.833642
O O2 0.148139 0.965275 0.078993
O O3 0.000000 0.000000 0.966696
O O4 0.126520 0.100395 0.978869
O O5 0.750000 0.713641 0.440395
O O6 0.889756 0.670515 0.551361
O O7 0.867248 0.812144 0.490440
O O8 0.889545 0.707567 0.306965
O O9 0.750000 0.343123 0.617044
O O10 0.914426 0.371658 0.699568
O O11 0.880163 0.252235 0.575712
O O12 0.250000 0.368525 0.689066
O O13 0.081448 0.383561 0.770565
O O14 0.068514 0.068571 0.409011
O O15 0.000000 0.000000 0.228279
O O16 0.750000 0.911715 0.436110
O O17 0.852845 0.949475 0.615584
O O18 0.500000 0.500000 0.199689
O O19 0.386151 0.400098 0.135696
O O20 0.250000 0.819052 0.672976
#
# Coordination Sequence:
#
# PCOD9364257 Si02
#       8
#     8   8   8   8   8   8   8   8
#     4  11  21  39  64  99 138 175 233 287 347 408
#     4   9  19  37  64  97 128 173 232 276 332 413
#     4  11  21  36  65 101 134 177 229 290 346 400
#     4  11  21  36  65 100 136 175 227 292 345 401
#     4  12  23  38  61  95 135 171 227 278 334 417
#     4  11  24  45  69  94 134 184 231 284 349 420
#     4  11  25  43  66 100 139 182 232 285 346 421
#     4  10  20  38  67 101 135 178 233 280 335 413
#
# _framework density 22.176283999999999
#
# number of rings (size 3 to 8) (size 9 to 14) (size 15 to 20)
#    0.000    1.250    5.000    1.500    0.000    3.000 
#    0.000    0.000    2.750    0.000    0.000    0.875 
#    0.000    0.000    0.000    0.000    0.000    0.000 
#
# Total GULP energy -178589.727648 kJ/mol
# GULP energy per Si atom -5580.928989 kJ/mol
# Density = 2.212581 g / cm^3
# Si number density = 22.176284 Si / 1000 Ang^3
#
#
#
# Elastic Constant Matrix: (Units=GPa)
#
#
# Indices 1 2 3 4 5 6 
#
# 1 103.0021 9.3614 19.8627 0.0000 0.0000 0.0000
# 2 9.3614 120.8228 8.8470 0.0000 0.0000 0.0000
# 3 19.8627 8.8470 43.0317 0.0000 0.0000 0.0000
# 4 0.0000 0.0000 0.0000 29.2208 0.0000 0.0000
# 5 0.0000 0.0000 0.0000 0.0000 -175.4151 0.0000
# 6 0.0000 0.0000 0.0000 0.0000 0.0000 19.6458
#
#
#
# Elastic Compliance Matrix: (Units=1/GPa)
#
#
# Indices 1 2 3 4 5 6 
#
# 1 0.010684 -0.000474 -0.004834 0.000000 0.000000 0.000000
# 2 -0.000474 0.008424 -0.001513 0.000000 0.000000 0.000000
# 3 -0.004834 -0.001513 0.025781 0.000000 0.000000 0.000000
# 4 0.000000 0.000000 0.000000 0.034222 0.000000 0.000000
# 5 0.000000 0.000000 0.000000 0.000000 -0.005701 0.000000
# 6 0.000000 0.000000 0.000000 0.000000 0.000000 0.050901
#
#
# Mechanical properties :
#
#
# Convention : Reuss Voigt Hill
#
# Bulk Modulus (GPa) = 32.00329 38.11101 35.05715
# Shear Modulus (GPa) = 33.69964 -10.05731 11.82117
#
# Velocity S-wave (km/s) = 3.90247 -2.13190 2.31130
# Velocity P-wave (km/s) = 5.89646 3.34107 4.79224
#
# Compressibility (1/GPa) = 0.03124679
#
# Stress axis : x y z
#
# Youngs Moduli (GPa) = 93.59976 118.70711 38.78811
#
# Poissons Ratio (x) = 0.05625 0.18750
# Poissons Ratio (y) = 0.04435 0.05870
# Poissons Ratio (z) = 0.45247 0.17963
#
# Static dielectric constant tensor:
#      x y z
#    x 1.861180 0.000000 0.000000 
#    y 0.000000 1.848960 0.000000 
#    z 0.000000 0.000000 1.863780 
# 
# From -- ./inp_files/12409.got.cif
#   From: 2010.05.17/outbox.cif.g08.bks.cpg/sg40_7_cif.got.tgz:12409.got - 2010.06.03 18:35:42.
