data_PCOD9364518
_publ_section_title
;
Structure prediction by ZEFSAII (Michael W. Deem and Ramdas Pophale) SiO2 
 PCOD9364518
Probable space group: A M A 2
;
_chemical_formula_sum "Si O2"
_cell_formula_units_Z 64
_cell_length_a 8.963419
_cell_length_b 24.544246
_cell_length_c 14.237307
_cell_angle_alpha 90.000000
_cell_angle_beta 90.000000
_cell_angle_gamma 90.000000
_cell_volume 3132.212679
_symmetry_space_group_name_H-M "A M A 2"
_symmetry_group_IT_number 40
_symmetry_cell_setting 'orthorhombic'
loop_
_space_group_symop_operation_xyz
x,y,z
-x,-y,z
1/2-x,y,z
1/2+x,-y,z
x,1/2+y,1/2+z
-x,1/2-y,1/2+z
1/2-x,1/2+y,1/2+z
1/2+x,1/2-y,1/2+z
loop_
_atom_site_type_symbol
_atom_site_label
_atom_site_fract_x
_atom_site_fract_y
_atom_site_fract_z
Si Si1 0.572567 0.555067 0.940320
Si Si2 0.429579 0.658612 0.269725
Si Si3 0.421334 0.778065 0.276285
Si Si4 0.073180 0.443525 0.373555
Si Si5 0.420610 0.270088 0.547383
Si Si6 0.427101 0.338674 0.064426
Si Si7 0.927911 0.609725 0.565570
Si Si8 0.573248 0.891395 0.267127
O O1 0.500000 0.500000 0.979332
O O2 0.750000 0.548886 0.934411
O O3 0.504032 0.567313 0.838509
O O4 0.539621 0.608444 0.002358
O O5 0.250000 0.657000 0.270619
O O6 0.473247 0.718526 0.309636
O O7 0.498877 0.607916 0.323377
O O8 0.488697 0.655788 0.163227
O O9 0.250000 0.788633 0.306625
O O10 0.418846 0.772238 0.162149
O O11 0.521419 0.830307 0.296078
O O12 0.250000 0.443568 0.355679
O O13 0.049505 0.434302 0.484894
O O14 0.000000 0.500000 0.343096
O O15 0.250000 0.262347 0.515648
O O16 0.518675 0.218371 0.519524
O O17 0.473270 0.330993 0.523880
O O18 0.250000 0.335869 0.080126
O O19 0.750000 0.613839 0.586244
O O20 0.014581 0.599619 0.661470
O O21 0.750000 0.896070 0.271426
#
# Coordination Sequence:
#
# PCOD9364518 Si02
#       8
#     8   8   8   8   8   8   8   8
#     4  11  25  43  60  81 112 150 195 243 286 336
#     4  10  21  38  61  87 118 154 189 234 288 338
#     4   8  16  33  56  84 118 152 186 228 281 338
#     4  11  24  41  60  83 113 151 197 243 284 336
#     4   8  15  31  56  85 115 147 184 228 283 342
#     4  10  21  37  59  87 117 149 186 233 287 342
#     4   9  20  39  60  83 116 154 189 234 287 336
#     4  11  22  36  60  90 118 151 189 233 285 342
#
# _framework density 20.432839000000001
#
# number of rings (size 3 to 8) (size 9 to 14) (size 15 to 20)
#    0.000    2.250    0.000    4.125    0.000   10.000 
#    0.000    5.000    0.000    0.000    0.000    0.000 
#    0.000    0.000    0.000    0.000    0.000    0.000 
#
# Total GULP energy -178800.940093 kJ/mol
# GULP energy per Si atom -5587.529378 kJ/mol
# Density = 2.038633 g / cm^3
# Si number density = 20.432839 Si / 1000 Ang^3
#
#
#
# Elastic Constant Matrix: (Units=GPa)
#
#
# Indices 1 2 3 4 5 6 
#
# 1 61.2799 35.3873 22.3047 0.0000 0.0000 0.0000
# 2 35.3873 90.1102 9.7407 0.0000 0.0000 0.0000
# 3 22.3047 9.7407 39.5779 0.0000 0.0000 0.0000
# 4 0.0000 0.0000 0.0000 22.6960 0.0000 0.0000
# 5 0.0000 0.0000 0.0000 0.0000 -2.8706 0.0000
# 6 0.0000 0.0000 0.0000 0.0000 0.0000 23.4359
#
#
#
# Elastic Compliance Matrix: (Units=1/GPa)
#
#
# Indices 1 2 3 4 5 6 
#
# 1 0.025961 -0.008849 -0.012453 0.000000 0.000000 0.000000
# 2 -0.008849 0.014417 0.001439 0.000000 0.000000 0.000000
# 3 -0.012453 0.001439 0.031931 0.000000 0.000000 0.000000
# 4 0.000000 0.000000 0.000000 0.044061 0.000000 0.000000
# 5 0.000000 0.000000 0.000000 0.000000 -0.348354 0.000000
# 6 0.000000 0.000000 0.000000 0.000000 0.000000 0.042670
#
#
# Mechanical properties :
#
#
# Convention : Reuss Voigt Hill
#
# Bulk Modulus (GPa) = 30.69145 36.20371 33.44758
# Shear Modulus (GPa) = -36.04207 16.88794 -9.57707
#
# Velocity S-wave (km/s) = -4.20447 2.87803 -2.16732
# Velocity P-wave (km/s) = 2.91836 5.36665 3.18466
#
# Compressibility (1/GPa) = 0.03258237
#
# Stress axis : x y z
#
# Youngs Moduli (GPa) = 38.51876 69.36183 31.31793
#
# Poissons Ratio (x) = 0.61379 0.39000
# Poissons Ratio (y) = 0.34086 -0.04506
# Poissons Ratio (z) = 0.47968 -0.09980
#
# Static dielectric constant tensor:
#      x y z
#    x 1.676080 0.000000 0.000000 
#    y 0.000000 1.740520 0.000000 
#    z 0.000000 0.000000 1.749210 
# 
# From -- ./inp_files/15639.got.cif
#   From: 2010.05.17/outbox.cif.g08.bks.cpg/sg40_8_cif.got.tgz:15639.got - 2010.06.03 18:35:42.
