data_PCOD9364078
_publ_section_title
;
Structure prediction by ZEFSAII (Michael W. Deem and Ramdas Pophale) SiO2 
 PCOD9364078
Probable space group: A M A 2
;
_chemical_formula_sum "Si O2"
_cell_formula_units_Z 56
_cell_length_a 7.724084
_cell_length_b 19.131580
_cell_length_c 17.895598
_cell_angle_alpha 90.000000
_cell_angle_beta 90.000000
_cell_angle_gamma 90.000000
_cell_volume 2644.502864
_symmetry_space_group_name_H-M "A M A 2"
_symmetry_group_IT_number 40
_symmetry_cell_setting 'orthorhombic'
loop_
_space_group_symop_operation_xyz
x,y,z
-x,-y,z
1/2-x,y,z
1/2+x,-y,z
x,1/2+y,1/2+z
-x,1/2-y,1/2+z
1/2-x,1/2+y,1/2+z
1/2+x,1/2-y,1/2+z
loop_
_atom_site_type_symbol
_atom_site_label
_atom_site_fract_x
_atom_site_fract_y
_atom_site_fract_z
Si Si1 0.958059 0.081472 0.070310
Si Si2 0.042348 0.686581 0.868974
Si Si3 0.958626 0.918606 0.490734
Si Si4 0.538315 0.162384 0.922777
Si Si5 0.548662 0.330524 0.130650
Si Si6 0.958979 0.685038 0.694254
Si Si7 0.543377 0.081396 0.773504
O O1 0.750000 0.086659 0.069396
O O2 0.019418 0.118406 0.146535
O O3 0.021551 0.125982 0.998956
O O4 0.000000 0.000000 0.064704
O O5 0.250000 0.688068 0.875217
O O6 0.979561 0.619547 0.915310
O O7 0.979571 0.758417 0.907565
O O8 0.003143 0.684836 0.781377
O O9 0.750000 0.914916 0.492410
O O10 0.026087 0.873289 0.560949
O O11 0.000000 0.000000 0.495962
O O12 0.750000 0.163274 0.924873
O O13 0.486665 0.116373 0.851163
O O14 0.750000 0.317217 0.111746
O O15 0.473720 0.255508 0.153933
O O16 0.538445 0.379008 0.203549
O O17 0.750000 0.687020 0.691026
O O18 0.750000 0.090316 0.767487
O O19 0.500000 0.000000 0.772527
#
# Coordination Sequence:
#
# PCOD9364078 Si02
#       7
#     8   8   8   8   8   8   8
#     4  10  21  38  58  82 113 149 187 230 279 332
#     4  10  20  38  61  83 109 146 190 231 277 333
#     4  10  22  38  58  82 111 148 188 231 278 331
#     4   9  18  35  58  81 108 144 186 227 273 329
#     4  10  20  37  58  82 111 146 187 231 279 332
#     4  10  21  37  59  85 113 145 186 234 282 330
#     4  11  21  33  53  83 115 149 183 224 276 332
#
# _framework density 21.176003999999999
#
# number of rings (size 3 to 8) (size 9 to 14) (size 15 to 20)
#    0.000    2.000    1.429    2.143    0.000    6.857 
#    0.000    4.286    0.000    3.429    0.000    0.000 
#    0.000    0.000    0.000    0.000    0.000    0.000 
#
# Total GULP energy -156426.305344 kJ/mol
# GULP energy per Si atom -5586.653762 kJ/mol
# Density = 2.112781 g / cm^3
# Si number density = 21.176004 Si / 1000 Ang^3
#
#
#
# Elastic Constant Matrix: (Units=GPa)
#
#
# Indices 1 2 3 4 5 6 
#
# 1 33.6286 4.0443 5.0294 0.0000 0.0000 0.0000
# 2 4.0443 110.1076 123.6458 0.0000 0.0000 0.0000
# 3 5.0294 123.6458 163.6614 0.0000 0.0000 0.0000
# 4 0.0000 0.0000 0.0000 26.3371 0.0000 0.0000
# 5 0.0000 0.0000 0.0000 0.0000 12.7303 0.0000
# 6 0.0000 0.0000 0.0000 0.0000 0.0000 23.8397
#
#
#
# Elastic Compliance Matrix: (Units=1/GPa)
#
#
# Indices 1 2 3 4 5 6 
#
# 1 0.029877 -0.000438 -0.000587 0.000000 0.000000 0.000000
# 2 -0.000438 0.059910 -0.045248 0.000000 0.000000 0.000000
# 3 -0.000587 -0.045248 0.040313 0.000000 0.000000 0.000000
# 4 0.000000 0.000000 0.000000 0.037969 0.000000 0.000000
# 5 0.000000 0.000000 0.000000 0.000000 0.078553 0.000000
# 6 0.000000 0.000000 0.000000 0.000000 0.000000 0.041947
#
#
# Mechanical properties :
#
#
# Convention : Reuss Voigt Hill
#
# Bulk Modulus (GPa) = 26.62885 63.64849 45.13867
# Shear Modulus (GPa) = 12.70217 24.22663 18.46440
#
# Velocity S-wave (km/s) = 2.45182 3.38607 2.95608
# Velocity P-wave (km/s) = 4.54065 6.73865 5.74573
#
# Compressibility (1/GPa) = 0.03755325
#
# Stress axis : x y z
#
# Youngs Moduli (GPa) = 33.47043 16.69175 24.80577
#
# Poissons Ratio (x) = 0.00731 0.01457
# Poissons Ratio (y) = 0.01465 1.12242
# Poissons Ratio (z) = 0.01966 0.75527
#
# Static dielectric constant tensor:
#      x y z
#    x 1.824280 0.000000 0.000000 
#    y 0.000000 1.735220 0.000000 
#    z 0.000000 0.000000 1.739090 
# 
# From -- ./inp_files/15335.got.cif
#   From: 2010.05.17/outbox.cif.g08.bks.cpg/sg40_8_cif.got.tgz:15335.got - 2010.06.03 18:35:42.
