data_PCOD9364710
_publ_section_title
;
Structure prediction by ZEFSAII (Michael W. Deem and Ramdas Pophale) SiO2 
 PCOD9364710
Probable space group: A M A 2
;
_chemical_formula_sum "Si O2"
_cell_formula_units_Z 56
_cell_length_a 14.643622
_cell_length_b 14.977690
_cell_length_c 11.966097
_cell_angle_alpha 90.000000
_cell_angle_beta 90.000000
_cell_angle_gamma 90.000000
_cell_volume 2624.495705
_symmetry_space_group_name_H-M "A M A 2"
_symmetry_group_IT_number 40
_symmetry_cell_setting 'orthorhombic'
loop_
_space_group_symop_operation_xyz
x,y,z
-x,-y,z
1/2-x,y,z
1/2+x,-y,z
x,1/2+y,1/2+z
-x,1/2-y,1/2+z
1/2-x,1/2+y,1/2+z
1/2+x,1/2-y,1/2+z
loop_
_atom_site_type_symbol
_atom_site_label
_atom_site_fract_x
_atom_site_fract_y
_atom_site_fract_z
Si Si1 0.891537 0.989203 0.258270
Si Si2 0.645408 0.550008 0.438406
Si Si3 0.994304 0.713797 0.079001
Si Si4 0.648707 0.910801 0.496112
Si Si5 0.145983 0.829751 0.138446
Si Si6 0.904945 0.046097 0.690645
Si Si7 0.356981 0.129286 0.045472
O O1 0.861937 0.965724 0.382445
O O2 0.862645 0.912199 0.170781
O O3 0.854306 0.084073 0.217148
O O4 0.000000 0.000000 0.253461
O O5 0.750000 0.540889 0.477021
O O6 0.614012 0.630805 0.517074
O O7 0.643873 0.564048 0.307192
O O8 0.606206 0.453189 0.470095
O O9 0.066169 0.660438 0.000576
O O10 0.066103 0.759865 0.165723
O O11 0.930601 0.638285 0.132233
O O12 0.924350 0.787459 0.033425
O O13 0.750000 0.870251 0.497251
O O14 0.639458 0.977718 0.602011
O O15 0.250000 0.794878 0.135941
O O16 0.000000 0.000000 0.722841
O O17 0.250000 0.150378 0.020683
#
# Coordination Sequence:
#
# PCOD9364710 Si02
#       7
#     8   8   8   8   8   8   8
#     4  11  20  40  68  96 129 172 216 265 326 398
#     4   9  20  39  64  91 124 168 214 258 320 392
#     4  11  23  41  61 100 130 166 215 274 325 377
#     4  11  24  44  65  88 132 181 219 262 324 399
#     4  10  21  39  66  99 128 166 217 268 324 383
#     4  10  23  40  60  87 124 174 217 258 322 389
#     4  10  22  40  65 100 132 167 216 273 329 378
#
# _framework density 21.337433000000001
#
# number of rings (size 3 to 8) (size 9 to 14) (size 15 to 20)
#    0.000    1.714    1.429    4.286    2.000    2.286 
#    5.143    1.429    0.000    3.429    0.000    0.000 
#    0.000    0.000    0.000    0.000    0.000    0.000 
#
# Total GULP energy -156277.560619 kJ/mol
# GULP energy per Si atom -5581.341451 kJ/mol
# Density = 2.128887 g / cm^3
# Si number density = 21.337433 Si / 1000 Ang^3
#
#
#
# Elastic Constant Matrix: (Units=GPa)
#
#
# Indices 1 2 3 4 5 6 
#
# 1 118.2850 22.9874 4.0907 0.0000 0.0000 0.0000
# 2 22.9874 67.2503 -2.9543 0.0000 0.0000 0.0000
# 3 4.0907 -2.9543 77.6216 0.0000 0.0000 0.0000
# 4 0.0000 0.0000 0.0000 8.9743 0.0000 0.0000
# 5 0.0000 0.0000 0.0000 0.0000 42.3277 0.0000
# 6 0.0000 0.0000 0.0000 0.0000 0.0000 -2.1167
#
#
#
# Elastic Compliance Matrix: (Units=1/GPa)
#
#
# Indices 1 2 3 4 5 6 
#
# 1 0.009083 -0.003131 -0.000598 0.000000 0.000000 0.000000
# 2 -0.003131 0.015974 0.000773 0.000000 0.000000 0.000000
# 3 -0.000598 0.000773 0.012944 0.000000 0.000000 0.000000
# 4 0.000000 0.000000 0.000000 0.111429 0.000000 0.000000
# 5 0.000000 0.000000 0.000000 0.000000 0.023625 0.000000
# 6 0.000000 0.000000 0.000000 0.000000 0.000000 -0.472436
#
#
# Mechanical properties :
#
#
# Convention : Reuss Voigt Hill
#
# Bulk Modulus (GPa) = 31.16299 34.60049 32.88174
# Shear Modulus (GPa) = -17.68208 25.77260 4.04526
#
# Velocity S-wave (km/s) = -2.88182 3.47920 1.37839
# Velocity P-wave (km/s) = 1.88769 5.69129 4.23994
#
# Compressibility (1/GPa) = 0.03208935
#
# Stress axis : x y z
#
# Youngs Moduli (GPa) = 110.09174 62.60154 77.25621
#
# Poissons Ratio (x) = 0.19601 0.04619
# Poissons Ratio (y) = 0.34471 -0.05972
# Poissons Ratio (z) = 0.06582 -0.04839
#
# Static dielectric constant tensor:
#      x y z
#    x 1.765550 0.000000 0.000000 
#    y 0.000000 1.828870 0.000000 
#    z 0.000000 0.000000 1.758150 
# 
# From -- ./inp_files/12217.got.cif
#   From: 2010.05.17/outbox.cif.g08.bks.cpg/sg40_7_cif.got.tgz:12217.got - 2010.06.03 18:35:42.
