data_PCOD9364006
_publ_section_title
;
Structure prediction by ZEFSAII (Michael W. Deem and Ramdas Pophale) SiO2 
 PCOD9364006
Probable space group: A M A 2
;
_chemical_formula_sum "Si O2"
_cell_formula_units_Z 48
_cell_length_a 28.858411
_cell_length_b 9.265784
_cell_length_c 6.814672
_cell_angle_alpha 90.000000
_cell_angle_beta 90.000000
_cell_angle_gamma 90.000000
_cell_volume 1822.214691
_symmetry_space_group_name_H-M "A M A 2"
_symmetry_group_IT_number 40
_symmetry_cell_setting 'orthorhombic'
loop_
_space_group_symop_operation_xyz
x,y,z
-x,-y,z
1/2-x,y,z
1/2+x,-y,z
x,1/2+y,1/2+z
-x,1/2-y,1/2+z
1/2-x,1/2+y,1/2+z
1/2+x,1/2-y,1/2+z
loop_
_atom_site_type_symbol
_atom_site_label
_atom_site_fract_x
_atom_site_fract_y
_atom_site_fract_z
Si Si1 0.060357 0.350429 0.204550
Si Si2 0.301012 0.592182 0.639618
Si Si3 0.155569 0.374913 0.128093
Si Si4 0.800429 0.848322 0.607534
Si Si5 0.877485 0.617090 0.700395
Si Si6 0.456488 0.693107 0.294428
O O1 0.113686 0.327389 0.270286
O O2 0.055926 0.529718 0.218753
O O3 0.012023 0.300553 0.299041
O O4 0.058328 0.243013 0.012553
O O5 0.250000 0.534327 0.584889
O O6 0.309652 0.751612 0.561648
O O7 0.349863 0.512965 0.600055
O O8 0.299078 0.617139 0.875702
O O9 0.187275 0.500928 0.208777
O O10 0.127505 0.423166 0.933007
O O11 0.750000 0.793269 0.663648
O O12 0.842190 0.745980 0.658938
O O13 0.928845 0.682234 0.670965
#
# Coordination Sequence:
#
# PCOD9364006 Si02
#       6
#     8   8   8   8   8   8
#     4  10  22  45  70 102 137 179 234 289 352 424
#     4  10  22  38  58  91 128 167 223 281 339 403
#     4  10  21  40  62  89 125 172 219 276 339 407
#     4  10  20  36  59  86 123 166 216 274 337 405
#     4  10  21  40  62  89 125 172 218 277 339 407
#     4  10  22  45  71 101 138 180 232 289 352 424
#
# _framework density 26.341573
#
# number of rings (size 3 to 8) (size 9 to 14) (size 15 to 20)
#    0.000    2.000    1.667    1.000    0.000    4.667 
#   18.000    0.000    0.000    0.000    0.000    0.000 
#    0.000    0.000    0.000    0.000    0.000    0.000 
#
# Total GULP energy -133707.960618 kJ/mol
# GULP energy per Si atom -5571.165026 kJ/mol
# Density = 2.628162 g / cm^3
# Si number density = 26.341573 Si / 1000 Ang^3
#
#
#
# Elastic Constant Matrix: (Units=GPa)
#
#
# Indices 1 2 3 4 5 6 
#
# 1 170.9215 22.3538 22.0212 0.0000 0.0000 0.0000
# 2 22.3538 101.7662 2.5076 0.0000 0.0000 0.0000
# 3 22.0212 2.5076 93.5293 0.0000 0.0000 0.0000
# 4 0.0000 0.0000 0.0000 25.9563 0.0000 0.0000
# 5 0.0000 0.0000 0.0000 0.0000 33.8723 0.0000
# 6 0.0000 0.0000 0.0000 0.0000 0.0000 182.3003
#
#
#
# Elastic Compliance Matrix: (Units=1/GPa)
#
#
# Indices 1 2 3 4 5 6 
#
# 1 0.006208 -0.001329 -0.001426 0.000000 0.000000 0.000000
# 2 -0.001329 0.010117 0.000042 0.000000 0.000000 0.000000
# 3 -0.001426 0.000042 0.011026 0.000000 0.000000 0.000000
# 4 0.000000 0.000000 0.000000 0.038526 0.000000 0.000000
# 5 0.000000 0.000000 0.000000 0.000000 0.029523 0.000000
# 6 0.000000 0.000000 0.000000 0.000000 0.000000 0.005485
#
#
# Mechanical properties :
#
#
# Convention : Reuss Voigt Hill
#
# Bulk Modulus (GPa) = 45.60845 51.10913 48.35879
# Shear Modulus (GPa) = 44.00598 69.71475 56.86036
#
# Velocity S-wave (km/s) = 4.09172 5.15006 4.65109
# Velocity P-wave (km/s) = 6.29879 7.40329 6.87326
#
# Compressibility (1/GPa) = 0.02192576
#
# Stress axis : x y z
#
# Youngs Moduli (GPa) = 161.07940 98.84113 90.69072
#
# Poissons Ratio (x) = 0.13131 0.12933
# Poissons Ratio (y) = 0.21400 -0.00377
# Poissons Ratio (z) = 0.22971 -0.00411
#
# Static dielectric constant tensor:
#      x y z
#    x 1.995590 0.000000 0.000000 
#    y 0.000000 2.153610 0.000000 
#    z 0.000000 0.000000 2.342040 
# 
# From -- ./inp_files/9334.got.cif
#   From: 2010.05.17/outbox.cif.g08.bks.cpg/sg40_5_cif.got.tgz:9334.got - 2010.06.03 18:35:42.
