data_PCOD9364741
_publ_section_title
;
Structure prediction by ZEFSAII (Michael W. Deem and Ramdas Pophale) SiO2 
 PCOD9364741
Probable space group: A M A 2
;
_chemical_formula_sum "Si O2"
_cell_formula_units_Z 40
_cell_length_a 14.889999
_cell_length_b 7.619023
_cell_length_c 17.059031
_cell_angle_alpha 90.000000
_cell_angle_beta 90.000000
_cell_angle_gamma 90.000000
_cell_volume 1935.300067
_symmetry_space_group_name_H-M "A M A 2"
_symmetry_group_IT_number 40
_symmetry_cell_setting 'orthorhombic'
loop_
_space_group_symop_operation_xyz
x,y,z
-x,-y,z
1/2-x,y,z
1/2+x,-y,z
x,1/2+y,1/2+z
-x,1/2-y,1/2+z
1/2-x,1/2+y,1/2+z
1/2+x,1/2-y,1/2+z
loop_
_atom_site_type_symbol
_atom_site_label
_atom_site_fract_x
_atom_site_fract_y
_atom_site_fract_z
Si Si1 0.000000 0.000000 0.883600
Si Si2 0.851535 0.253820 0.100329
Si Si3 0.347676 0.067204 0.769353
Si Si4 0.500000 0.500000 0.656937
Si Si5 0.080213 0.139074 0.441243
Si Si6 0.651823 0.353032 0.770799
O O1 0.929216 0.896981 0.827706
O O2 0.952201 0.157683 0.929900
O O3 0.750000 0.178011 0.097373
O O4 0.859300 0.359678 0.182060
O O5 0.935854 0.122912 0.105533
O O6 0.864321 0.366462 0.021677
O O7 0.250000 0.128950 0.798950
O O8 0.345438 0.857025 0.766152
O O9 0.571824 0.410025 0.714678
O O10 0.132784 0.097981 0.360873
O O11 0.000000 0.000000 0.447188
O O12 0.750000 0.422639 0.747014
#
# Coordination Sequence:
#
# PCOD9364741 Si02
#       6
#     4   8   8   4   8   8
#     4  10  21  42  61  92 122 162 208 258 305 378
#     4  11  24  41  61  91 129 166 209 267 322 380
#     4   9  20  38  64  87 117 161 206 258 311 368
#     4  12  23  38  63  94 120 170 204 264 319 382
#     4  11  23  39  63  92 126 171 204 258 321 374
#     4  10  21  40  63  91 122 161 214 262 312 376
#
# _framework density 20.66863
#
# number of rings (size 3 to 8) (size 9 to 14) (size 15 to 20)
#    0.000    1.600    1.000    4.200    4.200    0.800 
#    0.000    1.000    0.000    0.000    0.000    0.000 
#    0.000    0.000    0.000    0.000    0.000    0.000 
#
# Total GULP energy -111613.278341 kJ/mol
# GULP energy per Si atom -5580.663917 kJ/mol
# Density = 2.062159 g / cm^3
# Si number density = 20.668630 Si / 1000 Ang^3
#
#
#
# Elastic Constant Matrix: (Units=GPa)
#
#
# Indices 1 2 3 4 5 6 
#
# 1 151.2305 20.2143 55.2699 0.0000 0.0000 0.0000
# 2 20.2143 29.0774 9.9593 0.0000 0.0000 0.0000
# 3 55.2699 9.9593 102.8739 0.0000 0.0000 0.0000
# 4 0.0000 0.0000 0.0000 16.4957 0.0000 0.0000
# 5 0.0000 0.0000 0.0000 0.0000 -5.3111 0.0000
# 6 0.0000 0.0000 0.0000 0.0000 0.0000 19.5212
#
#
#
# Elastic Compliance Matrix: (Units=1/GPa)
#
#
# Indices 1 2 3 4 5 6 
#
# 1 0.008797 -0.004651 -0.004276 0.000000 0.000000 0.000000
# 2 -0.004651 0.038029 -0.001183 0.000000 0.000000 0.000000
# 3 -0.004276 -0.001183 0.012132 0.000000 0.000000 0.000000
# 4 0.000000 0.000000 0.000000 0.060622 0.000000 0.000000
# 5 0.000000 0.000000 0.000000 0.000000 -0.188286 0.000000
# 6 0.000000 0.000000 0.000000 0.000000 0.000000 0.051226
#
#
# Mechanical properties :
#
#
# Convention : Reuss Voigt Hill
#
# Bulk Modulus (GPa) = 25.81365 50.45208 38.13287
# Shear Modulus (GPa) = 319.42319 19.32371 169.37345
#
# Velocity S-wave (km/s) = 12.44510 3.06098 9.06228
# Velocity P-wave (km/s) = 14.79945 6.07912 11.31325
#
# Compressibility (1/GPa) = 0.03873919
#
# Stress axis : x y z
#
# Youngs Moduli (GPa) = 113.67784 26.29542 82.42380
#
# Poissons Ratio (x) = 0.12230 0.35244
# Poissons Ratio (y) = 0.52870 0.09750
# Poissons Ratio (z) = 0.48607 0.03111
#
# Static dielectric constant tensor:
#      x y z
#    x 1.777830 0.000000 0.000000 
#    y 0.000000 1.752150 0.000000 
#    z 0.000000 0.000000 1.717580 
# 
# From -- ./inp_files/16831.got.cif
#   From: 2010.05.17/outbox.cif.g08.bks.cpg/sg40_9_cif.got.tgz:16831.got - 2010.06.03 18:35:42.
