data_PCOD9364615
_publ_section_title
;
Structure prediction by ZEFSAII (Michael W. Deem and Ramdas Pophale) SiO2 
 PCOD9364615
Probable space group: A M A 2
;
_chemical_formula_sum "Si O2"
_cell_formula_units_Z 32
_cell_length_a 18.774292
_cell_length_b 5.337202
_cell_length_c 13.239732
_cell_angle_alpha 90.000000
_cell_angle_beta 90.000000
_cell_angle_gamma 90.000000
_cell_volume 1326.650126
_symmetry_space_group_name_H-M "A M A 2"
_symmetry_group_IT_number 40
_symmetry_cell_setting 'orthorhombic'
loop_
_space_group_symop_operation_xyz
x,y,z
-x,-y,z
1/2-x,y,z
1/2+x,-y,z
x,1/2+y,1/2+z
-x,1/2-y,1/2+z
1/2-x,1/2+y,1/2+z
1/2+x,1/2-y,1/2+z
loop_
_atom_site_type_symbol
_atom_site_label
_atom_site_fract_x
_atom_site_fract_y
_atom_site_fract_z
Si Si1 0.958298 0.248172 0.147150
Si Si2 0.109587 0.818554 0.352248
Si Si3 0.327516 0.815102 0.781672
Si Si4 0.165568 0.980005 0.558726
O O1 0.950936 0.251564 0.269996
O O2 0.880940 0.277044 0.093263
O O3 0.000000 0.500000 0.118925
O O4 0.000000 0.000000 0.116777
O O5 0.163960 0.596728 0.321061
O O6 0.121537 0.837892 0.471911
O O7 0.120505 0.110137 0.325081
O O8 0.250000 0.718956 0.809228
O O9 0.334567 0.821815 0.661661
O O10 0.250000 0.026261 0.534325
#
# Coordination Sequence:
#
# PCOD9364615 Si02
#       4
#     8   8   8   8
#     4  11  25  48  70  98 142 188 232 282 343 417
#     4  11  23  42  67  97 135 181 227 277 341 407
#     4  10  21  38  62  98 139 172 215 277 340 405
#     4  10  23  44  74 107 138 179 232 292 351 405
#
# _framework density 24.120902999999998
#
# number of rings (size 3 to 8) (size 9 to 14) (size 15 to 20)
#    0.000    1.500    0.000    5.250    0.000    9.000 
#    0.000   16.250    0.000    0.000    0.000    0.000 
#    0.000    0.000    0.000    0.000    0.000    0.000 
#
# Total GULP energy -89144.693266 kJ/mol
# GULP energy per Si atom -5571.543329 kJ/mol
# Density = 2.406600 g / cm^3
# Si number density = 24.120903 Si / 1000 Ang^3
#
#
#
# Elastic Constant Matrix: (Units=GPa)
#
#
# Indices 1 2 3 4 5 6 
#
# 1 71.4171 28.3225 14.6408 0.0000 0.0000 0.0000
# 2 28.3225 96.0110 32.4678 0.0000 0.0000 0.0000
# 3 14.6408 32.4678 160.5439 0.0000 0.0000 0.0000
# 4 0.0000 0.0000 0.0000 32.1922 0.0000 0.0000
# 5 0.0000 0.0000 0.0000 0.0000 -12.6492 0.0000
# 6 0.0000 0.0000 0.0000 0.0000 0.0000 317.5882
#
#
#
# Elastic Compliance Matrix: (Units=1/GPa)
#
#
# Indices 1 2 3 4 5 6 
#
# 1 0.015901 -0.004509 -0.000538 0.000000 0.000000 0.000000
# 2 -0.004509 0.012458 -0.002108 0.000000 0.000000 0.000000
# 3 -0.000538 -0.002108 0.006704 0.000000 0.000000 0.000000
# 4 0.000000 0.000000 0.000000 0.031063 0.000000 0.000000
# 5 0.000000 0.000000 0.000000 0.000000 -0.079056 0.000000
# 6 0.000000 0.000000 0.000000 0.000000 0.000000 0.003149
#
#
# Mechanical properties :
#
#
# Convention : Reuss Voigt Hill
#
# Bulk Modulus (GPa) = 48.18590 53.20380 50.69485
# Shear Modulus (GPa) = 436.79439 84.26231 260.52835
#
# Velocity S-wave (km/s) = 13.47140 5.91685 10.40403
# Velocity P-wave (km/s) = 16.18615 8.29361 12.86032
#
# Compressibility (1/GPa) = 0.02075296
#
# Stress axis : x y z
#
# Youngs Moduli (GPa) = 62.89075 80.26681 149.15785
#
# Poissons Ratio (x) = 0.36189 0.08029
# Poissons Ratio (y) = 0.28355 0.31448
# Poissons Ratio (z) = 0.03385 0.16923
#
# Static dielectric constant tensor:
#      x y z
#    x 2.098770 0.000000 0.000000 
#    y 0.000000 1.857710 0.000000 
#    z 0.000000 0.000000 1.969730 
# 
# From -- ./inp_files/13338.got.cif
#   From: 2010.05.17/outbox.cif.g08.bks.cpg/sg40_7_cif.got.tgz:13338.got - 2010.06.03 18:35:42.
