data_PCOD9364809
_publ_section_title
;
Structure prediction by ZEFSAII (Michael W. Deem and Ramdas Pophale) SiO2 
 PCOD9364809
Probable space group: A M A 2
;
_chemical_formula_sum "Si O2"
_cell_formula_units_Z 48
_cell_length_a 17.008085
_cell_length_b 9.828110
_cell_length_c 11.756166
_cell_angle_alpha 90.000000
_cell_angle_beta 90.000000
_cell_angle_gamma 90.000000
_cell_volume 1965.129323
_symmetry_space_group_name_H-M "A M A 2"
_symmetry_group_IT_number 40
_symmetry_cell_setting 'orthorhombic'
loop_
_space_group_symop_operation_xyz
x,y,z
-x,-y,z
1/2-x,y,z
1/2+x,-y,z
x,1/2+y,1/2+z
-x,1/2-y,1/2+z
1/2-x,1/2+y,1/2+z
1/2+x,1/2-y,1/2+z
loop_
_atom_site_type_symbol
_atom_site_label
_atom_site_fract_x
_atom_site_fract_y
_atom_site_fract_z
Si Si1 0.581313 0.716926 0.958520
Si Si2 0.843345 0.753425 0.205698
Si Si3 0.592979 0.686989 0.432801
Si Si4 0.659596 0.957525 0.507489
Si Si5 0.660399 0.039850 0.128526
Si Si6 0.340140 0.163930 0.744886
O O1 0.489747 0.747469 0.966301
O O2 0.611596 0.815682 0.859123
O O3 0.627406 0.734152 0.076954
O O4 0.602539 0.558448 0.940428
O O5 0.750000 0.725630 0.217324
O O6 0.893747 0.670886 0.298530
O O7 0.858116 0.916438 0.212983
O O8 0.656480 0.804741 0.459711
O O9 0.608079 0.560867 0.516215
O O10 0.750000 0.006226 0.499926
O O11 0.636957 0.935111 0.640701
O O12 0.750000 0.015440 0.089968
O O13 0.657497 0.183891 0.191798
O O14 0.250000 0.130328 0.773588
#
# Coordination Sequence:
#
# PCOD9364809 Si02
#       6
#     8   8   8   8   8   8
#     4  12  25  39  62 100 136 167 217 278 339 398
#     4  11  24  42  67  96 131 179 227 267 333 416
#     4  11  24  41  64  97 134 169 217 279 339 394
#     4  10  21  41  67  92 125 173 224 267 325 405
#     4   9  20  41  68  92 123 170 223 269 320 398
#     4   9  19  38  65  91 123 169 219 269 324 391
#
# _framework density 24.425871999999998
#
# number of rings (size 3 to 8) (size 9 to 14) (size 15 to 20)
#    0.000    1.667    0.000    5.500    4.667    3.333 
#    0.000    1.667    0.000    0.000    0.000    0.000 
#    0.000    0.000    0.000    0.000    0.000    0.000 
#
# Total GULP energy -134166.758719 kJ/mol
# GULP energy per Si atom -5590.281613 kJ/mol
# Density = 2.437028 g / cm^3
# Si number density = 24.425872 Si / 1000 Ang^3
#
#
#
# Elastic Constant Matrix: (Units=GPa)
#
#
# Indices 1 2 3 4 5 6 
#
# 1 69.9574 7.4903 33.5515 0.0000 0.0000 0.0000
# 2 7.4903 36.3159 -2.1976 0.0000 0.0000 0.0000
# 3 33.5515 -2.1976 97.8308 0.0000 0.0000 0.0000
# 4 0.0000 0.0000 0.0000 40.6208 0.0000 0.0000
# 5 0.0000 0.0000 0.0000 0.0000 -26.2159 0.0000
# 6 0.0000 0.0000 0.0000 0.0000 0.0000 17.5595
#
#
#
# Elastic Compliance Matrix: (Units=1/GPa)
#
#
# Indices 1 2 3 4 5 6 
#
# 1 0.017675 -0.004018 -0.006152 0.000000 0.000000 0.000000
# 2 -0.004018 0.028487 0.002018 0.000000 0.000000 0.000000
# 3 -0.006152 0.002018 0.012377 0.000000 0.000000 0.000000
# 4 0.000000 0.000000 0.000000 0.024618 0.000000 0.000000
# 5 0.000000 0.000000 0.000000 0.000000 -0.038145 0.000000
# 6 0.000000 0.000000 0.000000 0.000000 0.000000 0.056949
#
#
# Mechanical properties :
#
#
# Convention : Reuss Voigt Hill
#
# Bulk Modulus (GPa) = 23.67710 31.31030 27.49370
# Shear Modulus (GPa) = 37.78041 17.41020 27.59531
#
# Velocity S-wave (km/s) = 3.93713 2.67268 3.36483
# Velocity P-wave (km/s) = 5.51203 4.72976 5.13581
#
# Compressibility (1/GPa) = 0.04223491
#
# Stress axis : x y z
#
# Youngs Moduli (GPa) = 56.57672 35.10383 80.79558
#
# Poissons Ratio (x) = 0.14104 0.49706
# Poissons Ratio (y) = 0.22732 -0.16303
# Poissons Ratio (z) = 0.34806 -0.07083
#
# Static dielectric constant tensor:
#      x y z
#    x 2.036960 0.000000 0.000000 
#    y 0.000000 2.127600 0.000000 
#    z 0.000000 0.000000 2.028920 
# 
# From -- ./inp_files/12907.got.cif
#   From: 2010.05.17/outbox.cif.g08.bks.cpg/sg40_7_cif.got.tgz:12907.got - 2010.06.03 18:35:42.
