data_PCOD9364462
_publ_section_title
;
Structure prediction by ZEFSAII (Michael W. Deem and Ramdas Pophale) SiO2 
 PCOD9364462
Probable space group: A M A 2
;
_chemical_formula_sum "Si O2"
_cell_formula_units_Z 56
_cell_length_a 14.627971
_cell_length_b 5.219174
_cell_length_c 30.860831
_cell_angle_alpha 90.000000
_cell_angle_beta 90.000000
_cell_angle_gamma 90.000000
_cell_volume 2356.098717
_symmetry_space_group_name_H-M "A M A 2"
_symmetry_group_IT_number 40
_symmetry_cell_setting 'orthorhombic'
loop_
_space_group_symop_operation_xyz
x,y,z
-x,-y,z
1/2-x,y,z
1/2+x,-y,z
x,1/2+y,1/2+z
-x,1/2-y,1/2+z
1/2-x,1/2+y,1/2+z
1/2+x,1/2-y,1/2+z
loop_
_atom_site_type_symbol
_atom_site_label
_atom_site_fract_x
_atom_site_fract_y
_atom_site_fract_z
Si Si1 0.139025 0.178571 0.133570
Si Si2 0.894833 0.567506 0.041383
Si Si3 0.937816 0.248660 0.273675
Si Si4 0.894834 0.067505 0.005974
Si Si5 0.859254 0.322865 0.367043
Si Si6 0.859253 0.322899 0.180310
Si Si7 0.639025 0.321399 0.913786
O O1 0.250000 0.168902 0.133364
O O2 0.110847 0.293033 0.087406
O O3 0.107704 0.393150 0.168108
O O4 0.105561 0.898261 0.147760
O O5 0.000000 0.500000 0.030979
O O6 0.853933 0.781252 0.008881
O O7 0.853932 0.281254 0.038475
O O8 0.880786 0.252233 0.317897
O O9 0.880773 0.252264 0.229457
O O10 0.000000 0.500000 0.273676
O O11 0.000000 0.000000 0.273670
O O12 0.889158 0.206954 0.959950
O O13 0.000000 0.000000 0.016380
O O14 0.750000 0.329092 0.372234
O O15 0.892293 0.606816 0.379248
O O16 0.894436 0.101708 0.399594
O O17 0.750000 0.329137 0.175113
O O18 0.750000 0.331059 0.913993
#
# Coordination Sequence:
#
# PCOD9364462 Si02
#       7
#     8   8   8   8   8   8   8
#     4  10  21  37  60  86 111 149 198 240 285 343
#     4  10  21  36  54  80 115 153 190 233 290 346
#     4  12  25  40  61  92 120 148 194 240 285 344
#     4  10  21  36  54  80 115 153 190 233 290 346
#     4  10  22  41  61  84 118 156 191 235 295 352
#     4  10  22  41  61  84 118 156 191 235 295 352
#     4  10  21  37  60  86 111 149 198 240 285 343
#
# _framework density 23.768106
#
# number of rings (size 3 to 8) (size 9 to 14) (size 15 to 20)
#    0.000    1.714    0.000    3.857    0.000    4.571 
#    0.000    5.714    0.000    0.000    0.000    0.000 
#    0.000    0.000    0.000    0.000    0.000    0.000 
#
# Total GULP energy -156588.023753 kJ/mol
# GULP energy per Si atom -5592.429420 kJ/mol
# Density = 2.371401 g / cm^3
# Si number density = 23.768106 Si / 1000 Ang^3
#
#
#
# Elastic Constant Matrix: (Units=GPa)
#
#
# Indices 1 2 3 4 5 6 
#
# 1 48.9144 9.5325 -24.7787 0.0000 0.0000 0.0000
# 2 9.5325 162.2289 10.2479 0.0000 0.0000 0.0000
# 3 -24.7787 10.2479 90.4799 0.0000 0.0000 0.0000
# 4 0.0000 0.0000 0.0000 45.8584 0.0000 0.0000
# 5 0.0000 0.0000 0.0000 0.0000 35.6556 0.0000
# 6 0.0000 0.0000 0.0000 0.0000 0.0000 15.4319
#
#
#
# Elastic Compliance Matrix: (Units=1/GPa)
#
#
# Indices 1 2 3 4 5 6 
#
# 1 0.024282 -0.001860 0.006860 0.000000 0.000000 0.000000
# 2 -0.001860 0.006351 -0.001229 0.000000 0.000000 0.000000
# 3 0.006860 -0.001229 0.013070 0.000000 0.000000 0.000000
# 4 0.000000 0.000000 0.000000 0.021806 0.000000 0.000000
# 5 0.000000 0.000000 0.000000 0.000000 0.028046 0.000000
# 6 0.000000 0.000000 0.000000 0.000000 0.000000 0.064801
#
#
# Mechanical properties :
#
#
# Convention : Reuss Voigt Hill
#
# Bulk Modulus (GPa) = 19.51373 32.40293 25.95833
# Shear Modulus (GPa) = 29.78056 39.83064 34.80560
#
# Velocity S-wave (km/s) = 3.54356 4.09810 3.83088
# Velocity P-wave (km/s) = 4.99703 6.00459 5.52383
#
# Compressibility (1/GPa) = 0.05124598
#
# Stress axis : x y z
#
# Youngs Moduli (GPa) = 41.18332 157.45428 76.51026
#
# Poissons Ratio (x) = 0.29289 -0.52489
# Poissons Ratio (y) = 0.07661 0.09401
# Poissons Ratio (z) = -0.28254 0.19347
#
# Static dielectric constant tensor:
#      x y z
#    x 1.914870 0.000000 0.000000 
#    y 0.000000 1.980270 0.000000 
#    z 0.000000 0.000000 1.887700 
# 
# From -- ./inp_files/26596.got.cif
#   From: 2010.05.17/outbox.cif.g08.bks.cpg/sg40_14_cif.got.tgz:26596.got - 2010.06.03 18:35:42.
