data_PCOD9364731
_publ_section_title
;
Structure prediction by ZEFSAII (Michael W. Deem and Ramdas Pophale) SiO2 
 PCOD9364731
Probable space group: A M A 2
;
_chemical_formula_sum "Si O2"
_cell_formula_units_Z 40
_cell_length_a 17.506127
_cell_length_b 7.392800
_cell_length_c 15.403713
_cell_angle_alpha 90.000000
_cell_angle_beta 90.000000
_cell_angle_gamma 90.000000
_cell_volume 1993.537687
_symmetry_space_group_name_H-M "A M A 2"
_symmetry_group_IT_number 40
_symmetry_cell_setting 'orthorhombic'
loop_
_space_group_symop_operation_xyz
x,y,z
-x,-y,z
1/2-x,y,z
1/2+x,-y,z
x,1/2+y,1/2+z
-x,1/2-y,1/2+z
1/2-x,1/2+y,1/2+z
1/2+x,1/2-y,1/2+z
loop_
_atom_site_type_symbol
_atom_site_label
_atom_site_fract_x
_atom_site_fract_y
_atom_site_fract_z
Si Si1 0.471594 0.795115 0.139780
Si Si2 0.085902 0.322648 0.999290
Si Si3 0.336117 0.145822 0.398212
Si Si4 0.665560 0.557586 0.540583
Si Si5 0.010882 0.785857 0.832985
O O1 0.387827 0.816049 0.099991
O O2 0.472639 0.749815 0.240503
O O3 0.500000 0.000000 0.129119
O O4 0.530091 0.673637 0.083287
O O5 0.030444 0.294876 0.916995
O O6 0.862182 0.510539 0.966554
O O7 0.134476 0.141699 0.018578
O O8 0.250000 0.104778 0.364952
O O9 0.331974 0.332455 0.451143
O O10 0.404925 0.192085 0.331470
O O11 0.750000 0.542980 0.578324
O O12 0.000000 0.000000 0.846762
#
# Coordination Sequence:
#
# PCOD9364731 Si02
#       5
#     8   8   8   8   8
#     4  10  22  39  63  94 123 166 216 257 306 379
#     4  11  21  42  65  89 124 171 211 259 313 374
#     4  11  23  40  64  94 125 165 207 262 315 370
#     4  10  21  40  62  95 129 162 206 263 314 369
#     4  12  23  40  65  94 126 170 216 259 310 379
#
# _framework density 20.064834000000001
#
# number of rings (size 3 to 8) (size 9 to 14) (size 15 to 20)
#    0.000    1.200    4.000    3.000    2.800    0.000 
#    0.000   12.000    0.000    0.000    0.000    0.000 
#    0.000    0.000    0.000    0.000    0.000    0.000 
#
# Total GULP energy -111462.113425 kJ/mol
# GULP energy per Si atom -5573.105671 kJ/mol
# Density = 2.001917 g / cm^3
# Si number density = 20.064834 Si / 1000 Ang^3
#
#
#
# Elastic Constant Matrix: (Units=GPa)
#
#
# Indices 1 2 3 4 5 6 
#
# 1 94.4442 -0.7484 -0.5930 0.0000 0.0000 0.0000
# 2 -0.7484 83.3037 -28.0092 0.0000 0.0000 0.0000
# 3 -0.5930 -28.0092 61.6732 0.0000 0.0000 0.0000
# 4 0.0000 0.0000 0.0000 19.8285 0.0000 0.0000
# 5 0.0000 0.0000 0.0000 0.0000 11.7691 0.0000
# 6 0.0000 0.0000 0.0000 0.0000 0.0000 19.0560
#
#
#
# Elastic Compliance Matrix: (Units=1/GPa)
#
#
# Indices 1 2 3 4 5 6 
#
# 1 0.010591 0.000153 0.000171 0.000000 0.000000 0.000000
# 2 0.000153 0.014170 0.006437 0.000000 0.000000 0.000000
# 3 0.000171 0.006437 0.019139 0.000000 0.000000 0.000000
# 4 0.000000 0.000000 0.000000 0.050432 0.000000 0.000000
# 5 0.000000 0.000000 0.000000 0.000000 0.084968 0.000000
# 6 0.000000 0.000000 0.000000 0.000000 0.000000 0.052477
#
#
# Mechanical properties :
#
#
# Convention : Reuss Voigt Hill
#
# Bulk Modulus (GPa) = 17.41517 20.07999 18.74758
# Shear Modulus (GPa) = 21.06182 28.04885 24.55533
#
# Velocity S-wave (km/s) = 3.24340 3.74292 3.50208
# Velocity P-wave (km/s) = 4.76702 5.35804 5.07115
#
# Compressibility (1/GPa) = 0.05742121
#
# Stress axis : x y z
#
# Youngs Moduli (GPa) = 94.42387 70.57221 52.24815
#
# Poissons Ratio (x) = -0.01078 -0.00894
# Poissons Ratio (y) = -0.01442 -0.33631
# Poissons Ratio (z) = -0.01616 -0.45426
#
# Static dielectric constant tensor:
#      x y z
#    x 1.804720 0.000000 0.000000 
#    y 0.000000 1.741900 0.000000 
#    z 0.000000 0.000000 1.699130 
# 
# From -- ./inp_files/17465.got.cif
#   From: 2010.05.17/outbox.cif.g08.bks.cpg/sg40_9_cif.got.tgz:17465.got - 2010.06.03 18:35:42.
