data_PCOD9364584
_publ_section_title
;
Structure prediction by ZEFSAII (Michael W. Deem and Ramdas Pophale) SiO2 
 PCOD9364584
Probable space group: A M A 2
;
_chemical_formula_sum "Si O2"
_cell_formula_units_Z 48
_cell_length_a 8.667277
_cell_length_b 9.291122
_cell_length_c 31.450830
_cell_angle_alpha 90.000000
_cell_angle_beta 90.000000
_cell_angle_gamma 90.000000
_cell_volume 2532.695335
_symmetry_space_group_name_H-M "A M A 2"
_symmetry_group_IT_number 40
_symmetry_cell_setting 'orthorhombic'
loop_
_space_group_symop_operation_xyz
x,y,z
-x,-y,z
1/2-x,y,z
1/2+x,-y,z
x,1/2+y,1/2+z
-x,1/2-y,1/2+z
1/2-x,1/2+y,1/2+z
1/2+x,1/2-y,1/2+z
loop_
_atom_site_type_symbol
_atom_site_label
_atom_site_fract_x
_atom_site_fract_y
_atom_site_fract_z
Si Si1 0.934897 0.660566 0.329710
Si Si2 0.564274 0.160436 0.083437
Si Si3 0.064827 0.659304 0.913247
Si Si4 0.064147 0.660767 0.167024
Si Si5 0.065446 0.839177 0.505132
Si Si6 0.935448 0.661049 0.750565
O O1 0.750000 0.657433 0.325796
O O2 0.973891 0.734216 0.374818
O O3 0.000000 0.500000 0.327278
O O4 0.003462 0.756428 0.291912
O O5 0.750000 0.156949 0.081457
O O6 0.517319 0.255623 0.124266
O O7 0.498440 0.234452 0.041196
O O8 0.500000 0.000000 0.087927
O O9 0.250000 0.650686 0.917517
O O10 0.000000 0.500000 0.903669
O O11 0.992848 0.704774 0.958278
O O12 0.250000 0.653416 0.167305
O O13 0.015801 0.750684 0.208546
O O14 0.000000 0.500000 0.167955
O O15 0.250000 0.843442 0.505952
O O16 0.000000 0.000000 0.512694
O O17 0.750000 0.656063 0.751678
O O18 0.000000 0.500000 0.749172
#
# Coordination Sequence:
#
# PCOD9364584 Si02
#       6
#     8   8   8   8   8   8
#     4  11  24  40  60  87 119 156 197 242 292 347
#     4  11  23  40  60  86 119 155 197 242 292 347
#     4  10  21  38  60  86 116 152 196 243 293 349
#     4  10  23  40  61  88 118 154 195 240 289 345
#     4  11  22  38  61  88 118 154 196 242 293 348
#     4  11  23  40  62  89 120 155 196 241 291 346
#
# _framework density 18.952141000000001
#
# number of rings (size 3 to 8) (size 9 to 14) (size 15 to 20)
#    0.000    1.333    0.000    6.500    0.000   10.000 
#    0.000    1.667    0.000    0.000    0.000    0.000 
#    0.000    0.000    0.000    0.000    0.000    0.000 
#
# Total GULP energy -134251.891391 kJ/mol
# GULP energy per Si atom -5593.828808 kJ/mol
# Density = 1.890901 g / cm^3
# Si number density = 18.952141 Si / 1000 Ang^3
#
#
#
# Elastic Constant Matrix: (Units=GPa)
#
#
# Indices 1 2 3 4 5 6 
#
# 1 83.9581 63.2626 68.7376 0.0000 0.0000 0.0000
# 2 63.2626 190.4515 136.0442 0.0000 0.0000 0.0000
# 3 68.7376 136.0442 173.3380 0.0000 0.0000 0.0000
# 4 0.0000 0.0000 0.0000 39.8467 0.0000 0.0000
# 5 0.0000 0.0000 0.0000 0.0000 30.0267 0.0000
# 6 0.0000 0.0000 0.0000 0.0000 0.0000 39.6113
#
#
#
# Elastic Compliance Matrix: (Units=1/GPa)
#
#
# Indices 1 2 3 4 5 6 
#
# 1 0.017965 -0.002000 -0.005555 0.000000 0.000000 0.000000
# 2 -0.002000 0.012173 -0.008761 0.000000 0.000000 0.000000
# 3 -0.005555 -0.008761 0.014848 0.000000 0.000000 0.000000
# 4 0.000000 0.000000 0.000000 0.025096 0.000000 0.000000
# 5 0.000000 0.000000 0.000000 0.000000 0.033304 0.000000
# 6 0.000000 0.000000 0.000000 0.000000 0.000000 0.025245
#
#
# Mechanical properties :
#
#
# Convention : Reuss Voigt Hill
#
# Bulk Modulus (GPa) = 80.93679 109.31515 95.12597
# Shear Modulus (GPa) = 30.23320 33.87717 32.05519
#
# Velocity S-wave (km/s) = 3.99838 4.23248 4.11710
# Velocity P-wave (km/s) = 8.00716 9.03825 8.53829
#
# Compressibility (1/GPa) = 0.01235532
#
# Stress axis : x y z
#
# Youngs Moduli (GPa) = 55.66337 82.14726 67.34898
#
# Poissons Ratio (x) = 0.16427 0.37410
# Poissons Ratio (y) = 0.11131 0.59006
# Poissons Ratio (z) = 0.30919 0.71971
#
# Static dielectric constant tensor:
#      x y z
#    x 1.638720 0.000000 0.000000 
#    y 0.000000 1.613400 0.000000 
#    z 0.000000 0.000000 1.642280 
# 
# From -- ./inp_files/26134.got.cif
#   From: 2010.05.17/outbox.cif.g08.bks.cpg/sg40_14_cif.got.tgz:26134.got - 2010.06.03 18:35:42.
