data_PCOD9364720
_publ_section_title
;
Structure prediction by ZEFSAII (Michael W. Deem and Ramdas Pophale) SiO2 
 PCOD9364720
Probable space group: A M A 2
;
_chemical_formula_sum "Si O2"
_cell_formula_units_Z 64
_cell_length_a 23.053225
_cell_length_b 12.931676
_cell_length_c 11.206258
_cell_angle_alpha 90.000000
_cell_angle_beta 90.000000
_cell_angle_gamma 90.000000
_cell_volume 3340.774183
_symmetry_space_group_name_H-M "A M A 2"
_symmetry_group_IT_number 40
_symmetry_cell_setting 'orthorhombic'
loop_
_space_group_symop_operation_xyz
x,y,z
-x,-y,z
1/2-x,y,z
1/2+x,-y,z
x,1/2+y,1/2+z
-x,1/2-y,1/2+z
1/2-x,1/2+y,1/2+z
1/2+x,1/2-y,1/2+z
loop_
_atom_site_type_symbol
_atom_site_label
_atom_site_fract_x
_atom_site_fract_y
_atom_site_fract_z
Si Si1 0.568323 0.479077 0.557060
Si Si2 0.473181 0.153716 0.657716
Si Si3 0.181364 0.259512 0.896382
Si Si4 0.819390 0.635831 0.154849
Si Si5 0.491299 0.613611 0.889265
Si Si6 0.094816 0.342448 0.732140
Si Si7 0.620759 0.456983 0.312003
Si Si8 0.414376 0.220375 0.211257
O O1 0.500000 0.500000 0.542263
O O2 0.590643 0.551709 0.662563
O O3 0.600899 0.508961 0.435452
O O4 0.578579 0.360837 0.601512
O O5 0.482234 0.109115 0.527958
O O6 0.431237 0.253988 0.647077
O O7 0.438052 0.080434 0.746309
O O8 0.536783 0.190836 0.697082
O O9 0.250000 0.246309 0.900960
O O10 0.157701 0.325185 0.785258
O O11 0.154027 0.146308 0.862394
O O12 0.166183 0.326836 0.017064
O O13 0.750000 0.633197 0.165039
O O14 0.845035 0.530898 0.217550
O O15 0.851891 0.729199 0.222346
O O16 0.500000 0.500000 0.839234
O O17 0.549835 0.669040 0.844262
O O18 0.435537 0.661591 0.827904
#
# Coordination Sequence:
#
# PCOD9364720 Si02
#       8
#     8   8   8   8   8   8   8   8
#     4  12  22  40  62  98 136 171 202 264 344 402
#     4  10  24  35  60  98 124 162 202 261 323 391
#     4  10  22  45  69  89 124 175 224 273 321 380
#     4  11  25  43  66  93 126 175 227 274 321 383
#     4  11  21  36  60  87 129 160 199 256 325 385
#     4  10  21  40  60  92 126 166 208 259 324 386
#     4  11  26  41  67  97 134 167 219 268 331 402
#     4  11  22  39  61  92 128 171 209 264 319 401
#
# _framework density 19.157236000000001
#
# number of rings (size 3 to 8) (size 9 to 14) (size 15 to 20)
#    0.000    1.250    5.000    1.125   10.500    0.000 
#    0.000    1.875    0.000    0.750    0.000    0.000 
#    0.000    0.000    0.000    0.000    0.000    0.000 
#
# Total GULP energy -178239.194551 kJ/mol
# GULP energy per Si atom -5569.974830 kJ/mol
# Density = 1.911363 g / cm^3
# Si number density = 19.157236 Si / 1000 Ang^3
#
#
#
# Elastic Constant Matrix: (Units=GPa)
#
#
# Indices 1 2 3 4 5 6 
#
# 1 53.2815 46.2212 40.4014 0.0000 0.0000 0.0000
# 2 46.2212 89.6854 46.4674 0.0000 0.0000 0.0000
# 3 40.4014 46.4674 105.0276 0.0000 0.0000 0.0000
# 4 0.0000 0.0000 0.0000 30.8969 0.0000 0.0000
# 5 0.0000 0.0000 0.0000 0.0000 25.2204 0.0000
# 6 0.0000 0.0000 0.0000 0.0000 0.0000 24.4869
#
#
#
# Elastic Compliance Matrix: (Units=1/GPa)
#
#
# Indices 1 2 3 4 5 6 
#
# 1 0.038290 -0.015701 -0.007782 0.000000 0.000000 0.000000
# 2 -0.015701 0.020905 -0.003209 0.000000 0.000000 0.000000
# 3 -0.007782 -0.003209 0.013935 0.000000 0.000000 0.000000
# 4 0.000000 0.000000 0.000000 0.032366 0.000000 0.000000
# 5 0.000000 0.000000 0.000000 0.000000 0.039650 0.000000
# 6 0.000000 0.000000 0.000000 0.000000 0.000000 0.040838
#
#
# Mechanical properties :
#
#
# Convention : Reuss Voigt Hill
#
# Bulk Modulus (GPa) = 50.64825 57.13050 53.88938
# Shear Modulus (GPa) = 20.32924 23.78114 22.05519
#
# Velocity S-wave (km/s) = 3.26111 3.52712 3.39672
# Velocity P-wave (km/s) = 6.37772 6.81719 6.60112
#
# Compressibility (1/GPa) = 0.01974402
#
# Stress axis : x y z
#
# Youngs Moduli (GPa) = 26.11631 47.83601 71.76295
#
# Poissons Ratio (x) = 0.75109 0.55849
# Poissons Ratio (y) = 0.41006 0.23028
# Poissons Ratio (z) = 0.20325 0.15350
#
# Static dielectric constant tensor:
#      x y z
#    x 1.656160 0.000000 0.000000 
#    y 0.000000 1.768380 0.000000 
#    z 0.000000 0.000000 1.682440 
# 
# From -- ./inp_files/14026.got.cif
#   From: 2010.05.17/outbox.cif.g08.bks.cpg/sg40_8_cif.got.tgz:14026.got - 2010.06.03 18:35:42.
