data_PCOD9364860
_publ_section_title
;
Structure prediction by ZEFSAII (Michael W. Deem and Ramdas Pophale) SiO2 
 PCOD9364860
Probable space group: A M A 2
;
_chemical_formula_sum "Si O2"
_cell_formula_units_Z 48
_cell_length_a 14.648070
_cell_length_b 8.766125
_cell_length_c 18.960446
_cell_angle_alpha 90.000000
_cell_angle_beta 90.000000
_cell_angle_gamma 90.000000
_cell_volume 2434.650437
_symmetry_space_group_name_H-M "A M A 2"
_symmetry_group_IT_number 40
_symmetry_cell_setting 'orthorhombic'
loop_
_space_group_symop_operation_xyz
x,y,z
-x,-y,z
1/2-x,y,z
1/2+x,-y,z
x,1/2+y,1/2+z
-x,1/2-y,1/2+z
1/2-x,1/2+y,1/2+z
1/2+x,1/2-y,1/2+z
loop_
_atom_site_type_symbol
_atom_site_label
_atom_site_fract_x
_atom_site_fract_y
_atom_site_fract_z
Si Si1 0.934527 0.851617 0.188700
Si Si2 0.852119 0.219449 0.967556
Si Si3 0.250000 0.805588 0.319093
Si Si4 0.250000 0.200706 0.658788
Si Si5 0.750000 0.936229 0.945106
Si Si6 0.400773 0.563186 0.840389
Si Si7 0.750000 0.940909 0.111453
Si Si8 0.557595 0.855551 0.596510
O O1 0.907780 0.835203 0.270099
O O2 0.994195 0.718867 0.155667
O O3 0.842177 0.877006 0.145449
O O4 0.000000 0.000000 0.184814
O O5 0.750000 0.255530 0.995940
O O6 0.922837 0.242755 0.030610
O O7 0.838015 0.048779 0.938078
O O8 0.868113 0.336926 0.905267
O O9 0.250000 0.718090 0.244150
O O10 0.250000 0.694582 0.387050
O O11 0.335914 0.920215 0.323220
O O12 0.250000 0.377783 0.630834
O O13 0.342495 0.119996 0.631195
O O14 0.750000 0.899623 0.028524
O O15 0.500000 0.500000 0.857182
O O16 0.500000 0.000000 0.570028
#
# Coordination Sequence:
#
# PCOD9364860 Si02
#       8
#     8   8   4   4   4   8   4   8
#     4  11  22  40  68  97 124 182 240 277 357 431
#     4  10  21  44  66  88 143 183 215 284 368 403
#     4  12  23  42  70 101 133 185 234 282 351 432
#     4  12  20  45  67  91 144 181 220 305 354 396
#     4  10  23  38  66  93 123 181 220 270 356 415
#     4  11  22  40  67  96 131 176 231 284 346 425
#     4  12  20  41  69  91 134 179 226 295 335 423
#     4  12  25  42  69 101 134 186 240 298 352 418
#
# _framework density 19.715357000000001
#
# number of rings (size 3 to 8) (size 9 to 14) (size 15 to 20)
#    0.500    0.333    6.667    1.500    0.000    4.667 
#    0.000    2.500    0.000    0.000    0.000    0.000 
#    0.000    0.000    0.000    0.000    0.000    0.000 
#
# Total GULP energy -133918.648717 kJ/mol
# GULP energy per Si atom -5579.943697 kJ/mol
# Density = 1.967048 g / cm^3
# Si number density = 19.715357 Si / 1000 Ang^3
#
#
#
# Elastic Constant Matrix: (Units=GPa)
#
#
# Indices 1 2 3 4 5 6 
#
# 1 122.9688 19.6193 19.4330 0.0000 0.0000 0.0000
# 2 19.6193 23.5218 20.9421 0.0000 0.0000 0.0000
# 3 19.4330 20.9421 117.4881 0.0000 0.0000 0.0000
# 4 0.0000 0.0000 0.0000 35.9456 0.0000 0.0000
# 5 0.0000 0.0000 0.0000 0.0000 4.4818 0.0000
# 6 0.0000 0.0000 0.0000 0.0000 0.0000 20.3658
#
#
#
# Elastic Compliance Matrix: (Units=1/GPa)
#
#
# Indices 1 2 3 4 5 6 
#
# 1 0.009384 -0.007661 -0.000187 0.000000 0.000000 0.000000
# 2 -0.007661 0.056788 -0.008855 0.000000 0.000000 0.000000
# 3 -0.000187 -0.008855 0.010121 0.000000 0.000000 0.000000
# 4 0.000000 0.000000 0.000000 0.027820 0.000000 0.000000
# 5 0.000000 0.000000 0.000000 0.000000 0.223126 0.000000
# 6 0.000000 0.000000 0.000000 0.000000 0.000000 0.049102
#
#
# Mechanical properties :
#
#
# Convention : Reuss Voigt Hill
#
# Bulk Modulus (GPa) = 23.31706 42.66304 32.99005
# Shear Modulus (GPa) = 11.79131 25.75760 18.77445
#
# Velocity S-wave (km/s) = 2.44822 3.61844 3.08924
# Velocity P-wave (km/s) = 4.45468 6.25651 5.43084
#
# Compressibility (1/GPa) = 0.04288706
#
# Stress axis : x y z
#
# Youngs Moduli (GPa) = 106.56550 17.60944 98.80655
#
# Poissons Ratio (x) = 0.13490 0.01844
# Poissons Ratio (y) = 0.81639 0.87495
# Poissons Ratio (z) = 0.01988 0.15593
#
# Static dielectric constant tensor:
#      x y z
#    x 1.690310 0.000000 0.000000 
#    y 0.000000 1.723030 0.000000 
#    z 0.000000 0.000000 1.692120 
# 
# From -- ./inp_files/20628.got.cif
#   From: 2010.05.17/outbox.cif.g08.bks.cpg/sg40_11_cif.got.tgz:20628.got - 2010.06.03 18:35:42.
