data_PCOD9364467
_publ_section_title
;
Structure prediction by ZEFSAII (Michael W. Deem and Ramdas Pophale) SiO2 
 PCOD9364467
Probable space group: A M A 2
;
_chemical_formula_sum "Si O2"
_cell_formula_units_Z 40
_cell_length_a 8.971936
_cell_length_b 29.649799
_cell_length_c 7.343219
_cell_angle_alpha 90.000000
_cell_angle_beta 90.000000
_cell_angle_gamma 90.000000
_cell_volume 1953.414473
_symmetry_space_group_name_H-M "A M A 2"
_symmetry_group_IT_number 40
_symmetry_cell_setting 'orthorhombic'
loop_
_space_group_symop_operation_xyz
x,y,z
-x,-y,z
1/2-x,y,z
1/2+x,-y,z
x,1/2+y,1/2+z
-x,1/2-y,1/2+z
1/2-x,1/2+y,1/2+z
1/2+x,1/2-y,1/2+z
loop_
_atom_site_type_symbol
_atom_site_label
_atom_site_fract_x
_atom_site_fract_y
_atom_site_fract_z
Si Si1 0.083473 0.808489 0.884160
Si Si2 0.071905 0.952795 0.094808
Si Si3 0.073057 0.602775 0.290937
Si Si4 0.570398 0.621580 0.900105
Si Si5 0.916966 0.718645 0.961376
O O1 0.250000 0.819493 0.952190
O O2 0.093311 0.798214 0.668521
O O3 0.976861 0.851375 0.894792
O O4 0.020614 0.762095 0.962276
O O5 0.250000 0.956672 0.080473
O O6 0.037446 0.913842 0.242045
O O7 0.000000 0.000000 0.151694
O O8 0.002548 0.937368 0.903108
O O9 0.250000 0.598584 0.287987
O O10 0.009071 0.606764 0.086647
O O11 0.750000 0.622303 0.929199
O O12 0.528450 0.673785 0.856069
O O13 0.750000 0.731063 0.897418
#
# Coordination Sequence:
#
# PCOD9364467 Si02
#       5
#     8   8   8   8   8
#     4  10  21  36  55  83 119 160 202 248 300 360
#     4  11  24  43  67  95 124 161 207 259 313 370
#     4  11  23  40  63  91 125 164 206 255 307 369
#     4   9  21  42  64  88 123 163 205 256 311 366
#     4   9  19  35  54  83 116 154 202 248 300 360
#
# _framework density 20.476966000000001
#
# number of rings (size 3 to 8) (size 9 to 14) (size 15 to 20)
#    0.000    2.000    0.000    4.200    2.800    6.400 
#    0.000    2.000    0.000    0.000    0.000    0.000 
#    0.000    0.000    0.000    0.000    0.000    0.000 
#
# Total GULP energy -111749.001629 kJ/mol
# GULP energy per Si atom -5587.450081 kJ/mol
# Density = 2.043036 g / cm^3
# Si number density = 20.476966 Si / 1000 Ang^3
#
#
#
# Elastic Constant Matrix: (Units=GPa)
#
#
# Indices 1 2 3 4 5 6 
#
# 1 84.4223 33.3392 32.0918 0.0000 0.0000 0.0000
# 2 33.3392 85.7334 22.4290 0.0000 0.0000 0.0000
# 3 32.0918 22.4290 55.5438 0.0000 0.0000 0.0000
# 4 0.0000 0.0000 0.0000 34.6516 0.0000 0.0000
# 5 0.0000 0.0000 0.0000 0.0000 19.2788 0.0000
# 6 0.0000 0.0000 0.0000 0.0000 0.0000 37.9639
#
#
#
# Elastic Compliance Matrix: (Units=1/GPa)
#
#
# Indices 1 2 3 4 5 6 
#
# 1 0.016539 -0.004396 -0.007781 0.000000 0.000000 0.000000
# 2 -0.004396 0.014210 -0.003198 0.000000 0.000000 0.000000
# 3 -0.007781 -0.003198 0.023791 0.000000 0.000000 0.000000
# 4 0.000000 0.000000 0.000000 0.028859 0.000000 0.000000
# 5 0.000000 0.000000 0.000000 0.000000 0.051871 0.000000
# 6 0.000000 0.000000 0.000000 0.000000 0.000000 0.026341
#
#
# Mechanical properties :
#
#
# Convention : Reuss Voigt Hill
#
# Bulk Modulus (GPa) = 42.03435 44.60217 43.31826
# Shear Modulus (GPa) = 24.96382 27.56816 26.26599
#
# Velocity S-wave (km/s) = 3.49537 3.67318 3.58538
# Velocity P-wave (km/s) = 6.07144 6.31020 6.19197
#
# Compressibility (1/GPa) = 0.02379007
#
# Stress axis : x y z
#
# Youngs Moduli (GPa) = 60.46355 70.37170 42.03312
#
# Poissons Ratio (x) = 0.30935 0.32704
# Poissons Ratio (y) = 0.26580 0.13444
# Poissons Ratio (z) = 0.47044 0.22507
#
# Static dielectric constant tensor:
#      x y z
#    x 1.708490 0.000000 0.000000 
#    y 0.000000 1.743880 0.000000 
#    z 0.000000 0.000000 1.765680 
# 
# From -- ./inp_files/4247.got.cif
#   From: 2010.05.17/outbox.cif.g08.bks.cpg/sg40_3_cif.got.tgz:4247.got - 2010.06.03 18:35:42.
