data_PCOD9364480
_publ_section_title
;
Structure prediction by ZEFSAII (Michael W. Deem and Ramdas Pophale) SiO2 
 PCOD9364480
Probable space group: A M A 2
;
_chemical_formula_sum "Si O2"
_cell_formula_units_Z 48
_cell_length_a 15.830507
_cell_length_b 12.977513
_cell_length_c 12.902680
_cell_angle_alpha 90.000000
_cell_angle_beta 90.000000
_cell_angle_gamma 90.000000
_cell_volume 2650.734455
_symmetry_space_group_name_H-M "A M A 2"
_symmetry_group_IT_number 40
_symmetry_cell_setting 'orthorhombic'
loop_
_space_group_symop_operation_xyz
x,y,z
-x,-y,z
1/2-x,y,z
1/2+x,-y,z
x,1/2+y,1/2+z
-x,1/2-y,1/2+z
1/2-x,1/2+y,1/2+z
1/2+x,1/2-y,1/2+z
loop_
_atom_site_type_symbol
_atom_site_label
_atom_site_fract_x
_atom_site_fract_y
_atom_site_fract_z
Si Si1 0.420925 0.423366 0.667800
Si Si2 0.914409 0.657280 0.902745
Si Si3 0.916082 0.261819 0.003139
Si Si4 0.750000 0.991829 0.074004
Si Si5 0.250000 0.239151 0.988248
Si Si6 0.750000 0.598555 0.175344
Si Si7 0.406823 0.511909 0.085042
Si Si8 0.750000 0.173079 0.906770
O O1 0.500000 0.500000 0.657421
O O2 0.417746 0.380327 0.784802
O O3 0.429627 0.328759 0.586897
O O4 0.334059 0.482908 0.640054
O O5 0.833404 0.729010 0.924389
O O6 0.999556 0.716439 0.936884
O O7 0.907165 0.558242 0.980138
O O8 0.835221 0.233390 0.934774
O O9 0.894926 0.369194 0.059040
O O10 0.750000 0.877522 0.027564
O O11 0.750000 0.071850 0.978725
O O12 0.250000 0.311762 0.089638
O O13 0.667040 0.530965 0.155710
O O14 0.750000 0.644716 0.287987
O O15 0.500000 0.500000 0.132447
#
# Coordination Sequence:
#
# PCOD9364480 Si02
#       8
#     8   8   8   4   4   4   8   4
#     4  11  22  38  59  84 114 152 192 235 287 342
#     4  10  21  37  59  86 113 146 188 235 285 337
#     4  10  21  37  56  80 112 148 186 229 279 338
#     4  10  23  40  56  82 120 152 189 234 282 348
#     4  10  21  38  60  88 118 148 189 236 282 340
#     4  10  21  36  58  84 110 142 185 232 278 328
#     4   9  19  36  55  81 112 141 180 228 274 331
#     4  10  23  38  54  80 112 148 187 228 280 336
#
# _framework density 18.108187999999998
#
# number of rings (size 3 to 8) (size 9 to 14) (size 15 to 20)
#    0.000    2.000    0.000    3.500    0.000    8.000 
#    0.000    3.333    0.000    0.000    0.000    0.000 
#    0.000    0.000    0.000    0.000    0.000    0.000 
#
# Total GULP energy -134034.919479 kJ/mol
# GULP energy per Si atom -5584.788312 kJ/mol
# Density = 1.806697 g / cm^3
# Si number density = 18.108188 Si / 1000 Ang^3
#
#
#
# Elastic Constant Matrix: (Units=GPa)
#
#
# Indices 1 2 3 4 5 6 
#
# 1 167.9341 103.0360 76.0924 0.0000 0.0000 0.0000
# 2 103.0360 139.1452 50.8725 0.0000 0.0000 0.0000
# 3 76.0924 50.8725 99.9302 0.0000 0.0000 0.0000
# 4 0.0000 0.0000 0.0000 10.4143 0.0000 0.0000
# 5 0.0000 0.0000 0.0000 0.0000 8.3754 0.0000
# 6 0.0000 0.0000 0.0000 0.0000 0.0000 32.0156
#
#
#
# Elastic Compliance Matrix: (Units=1/GPa)
#
#
# Indices 1 2 3 4 5 6 
#
# 1 0.013608 -0.007726 -0.006429 0.000000 0.000000 0.000000
# 2 -0.007726 0.013217 -0.000845 0.000000 0.000000 0.000000
# 3 -0.006429 -0.000845 0.015332 0.000000 0.000000 0.000000
# 4 0.000000 0.000000 0.000000 0.096022 0.000000 0.000000
# 5 0.000000 0.000000 0.000000 0.000000 0.119397 0.000000
# 6 0.000000 0.000000 0.000000 0.000000 0.000000 0.031235
#
#
# Mechanical properties :
#
#
# Convention : Reuss Voigt Hill
#
# Bulk Modulus (GPa) = 82.25668 96.33461 89.29565
# Shear Modulus (GPa) = 15.48638 21.96163 18.72400
#
# Velocity S-wave (km/s) = 2.92758 3.48631 3.21909
# Velocity P-wave (km/s) = 7.54661 8.33791 7.95211
#
# Compressibility (1/GPa) = 0.01215707
#
# Stress axis : x y z
#
# Youngs Moduli (GPa) = 73.48583 75.65967 65.22134
#
# Poissons Ratio (x) = 0.58457 0.41928
# Poissons Ratio (y) = 0.56778 0.05513
# Poissons Ratio (z) = 0.47241 0.06396
#
# Static dielectric constant tensor:
#      x y z
#    x 1.630730 0.000000 0.000000 
#    y 0.000000 1.602160 0.000000 
#    z 0.000000 0.000000 1.580170 
# 
# From -- ./inp_files/12949.got.cif
#   From: 2010.05.17/outbox.cif.g08.bks.cpg/sg40_7_cif.got.tgz:12949.got - 2010.06.03 18:35:42.
