data_PCOD9364234
_publ_section_title
;
Structure prediction by ZEFSAII (Michael W. Deem and Ramdas Pophale) SiO2 
 PCOD9364234
Probable space group: A M A 2
;
_chemical_formula_sum "Si O2"
_cell_formula_units_Z 44
_cell_length_a 20.962568
_cell_length_b 12.561898
_cell_length_c 7.191075
_cell_angle_alpha 90.000000
_cell_angle_beta 90.000000
_cell_angle_gamma 90.000000
_cell_volume 1893.623198
_symmetry_space_group_name_H-M "A M A 2"
_symmetry_group_IT_number 40
_symmetry_cell_setting 'orthorhombic'
loop_
_space_group_symop_operation_xyz
x,y,z
-x,-y,z
1/2-x,y,z
1/2+x,-y,z
x,1/2+y,1/2+z
-x,1/2-y,1/2+z
1/2-x,1/2+y,1/2+z
1/2+x,1/2-y,1/2+z
loop_
_atom_site_type_symbol
_atom_site_label
_atom_site_fract_x
_atom_site_fract_y
_atom_site_fract_z
Si Si1 0.750000 0.112038 0.076160
Si Si2 0.990935 0.346732 0.183675
Si Si3 0.891848 0.516687 0.137221
Si Si4 0.148616 0.048639 0.024389
Si Si5 0.250000 0.913866 0.627231
Si Si6 0.478200 0.114006 0.119910
Si Si7 0.750000 0.289337 0.368286
O O1 0.750000 0.226530 0.172953
O O2 0.809920 0.038177 0.132238
O O3 0.750000 0.109320 0.850364
O O4 0.930561 0.407795 0.092803
O O5 0.989324 0.380639 0.398459
O O6 0.057170 0.389660 0.093897
O O7 0.988740 0.220049 0.189573
O O8 0.885634 0.517572 0.362164
O O9 0.817884 0.529675 0.078335
O O10 0.098030 0.112476 0.144846
O O11 0.190978 0.133422 0.911088
O O12 0.250000 0.803509 0.519366
O O13 0.500000 0.000000 0.193345
#
# Coordination Sequence:
#
# PCOD9364234 Si02
#       7
#     4   8   8   8   4   8   4
#     4   9  21  39  60  84 126 169 199 259 328 368
#     4  10  20  39  65  86 123 168 206 256 320 381
#     4   9  18  40  62  84 125 169 200 255 331 371
#     4   9  19  38  59  83 126 161 204 264 316 375
#     4  10  20  38  64  90 128 163 213 269 313 385
#     4  11  21  40  61  89 123 162 210 263 318 374
#     4  11  21  37  62  94 122 168 216 254 319 399
#
# _framework density 23.235879000000001
#
# number of rings (size 3 to 8) (size 9 to 14) (size 15 to 20)
#    0.000    2.182    3.636    1.636    0.000    2.909 
#    6.545    7.273    0.000    0.000    0.000    0.000 
#    0.000    0.000    0.000    0.000    0.000    0.000 
#
# Total GULP energy -122693.614537 kJ/mol
# GULP energy per Si atom -5576.982479 kJ/mol
# Density = 2.318299 g / cm^3
# Si number density = 23.235879 Si / 1000 Ang^3
#
#
#
# Elastic Constant Matrix: (Units=GPa)
#
#
# Indices 1 2 3 4 5 6 
#
# 1 160.3513 61.9448 21.7254 0.0000 0.0000 0.0000
# 2 61.9448 161.5631 16.9795 0.0000 0.0000 0.0000
# 3 21.7254 16.9795 64.8232 0.0000 0.0000 0.0000
# 4 0.0000 0.0000 0.0000 29.3079 0.0000 0.0000
# 5 0.0000 0.0000 0.0000 0.0000 -3.3950 0.0000
# 6 0.0000 0.0000 0.0000 0.0000 0.0000 -3.4922
#
#
#
# Elastic Compliance Matrix: (Units=1/GPa)
#
#
# Indices 1 2 3 4 5 6 
#
# 1 0.007523 -0.002693 -0.001816 0.000000 0.000000 0.000000
# 2 -0.002693 0.007329 -0.001017 0.000000 0.000000 0.000000
# 3 -0.001816 -0.001017 0.016302 0.000000 0.000000 0.000000
# 4 0.000000 0.000000 0.000000 0.034120 0.000000 0.000000
# 5 0.000000 0.000000 0.000000 0.000000 -0.294551 0.000000
# 6 0.000000 0.000000 0.000000 0.000000 0.000000 -0.286356
#
#
# Mechanical properties :
#
#
# Convention : Reuss Voigt Hill
#
# Bulk Modulus (GPa) = 49.74894 65.33743 57.54319
# Shear Modulus (GPa) = -10.04257 23.55668 6.75706
#
# Velocity S-wave (km/s) = -2.08120 3.18749 1.70714
# Velocity P-wave (km/s) = 3.96001 6.45964 5.35764
#
# Compressibility (1/GPa) = 0.02010093
#
# Stress axis : x y z
#
# Youngs Moduli (GPa) = 132.92870 136.44185 61.34394
#
# Poissons Ratio (x) = 0.36751 0.11138
# Poissons Ratio (y) = 0.35804 0.06239
# Poissons Ratio (z) = 0.24136 0.13877
#
# Static dielectric constant tensor:
#      x y z
#    x 1.978130 0.000000 0.000000 
#    y 0.000000 1.855380 0.000000 
#    z 0.000000 0.000000 1.909850 
# 
# From -- ./inp_files/8697.got.cif
#   From: 2010.05.17/outbox.cif.g08.bks.cpg/sg40_5_cif.got.tgz:8697.got - 2010.06.03 18:35:42.
