data_PCOD9364461
_publ_section_title
;
Structure prediction by ZEFSAII (Michael W. Deem and Ramdas Pophale) SiO2 
 PCOD9364461
Probable space group: A M A 2
;
_chemical_formula_sum "Si O2"
_cell_formula_units_Z 48
_cell_length_a 8.398074
_cell_length_b 9.362683
_cell_length_c 31.745607
_cell_angle_alpha 90.000000
_cell_angle_beta 90.000000
_cell_angle_gamma 90.000000
_cell_volume 2496.109608
_symmetry_space_group_name_H-M "A M A 2"
_symmetry_group_IT_number 40
_symmetry_cell_setting 'orthorhombic'
loop_
_space_group_symop_operation_xyz
x,y,z
-x,-y,z
1/2-x,y,z
1/2+x,-y,z
x,1/2+y,1/2+z
-x,1/2-y,1/2+z
1/2-x,1/2+y,1/2+z
1/2+x,1/2-y,1/2+z
loop_
_atom_site_type_symbol
_atom_site_label
_atom_site_fract_x
_atom_site_fract_y
_atom_site_fract_z
Si Si1 0.557610 0.337728 0.682380
Si Si2 0.442530 0.838630 0.764321
Si Si3 0.940926 0.661294 0.519830
Si Si4 0.942375 0.839214 0.439617
Si Si5 0.059007 0.337750 0.100049
Si Si6 0.057584 0.160723 0.344548
O O1 0.500000 0.500000 0.681068
O O2 0.750000 0.338593 0.682377
O O3 0.504040 0.257227 0.724781
O O4 0.504165 0.249479 0.641337
O O5 0.250000 0.838548 0.764347
O O6 0.497596 0.767127 0.808061
O O7 0.500000 0.000000 0.760096
O O8 0.750000 0.661200 0.519859
O O9 0.997316 0.732017 0.475923
O O10 0.000000 0.500000 0.524257
O O11 0.999377 0.757502 0.558473
O O12 0.750000 0.840077 0.439829
O O13 0.995292 0.801212 0.392080
O O14 0.000000 0.000000 0.448588
O O15 0.250000 0.338225 0.099816
O O16 0.000000 0.500000 0.101300
O O17 0.250000 0.160206 0.344295
O O18 0.000000 0.000000 0.335705
#
# Coordination Sequence:
#
# PCOD9364461 Si02
#       6
#     8   8   8   8   8   8
#     4  10  22  38  57  82 110 141 178 221 267 317
#     4  10  21  36  54  79 110 142 178 219 264 316
#     4  11  23  38  56  80 111 145 183 226 272 322
#     4   9  19  35  55  79 107 140 178 222 269 319
#     4  11  23  39  59  83 111 143 181 223 270 322
#     4   9  18  34  55  79 107 139 178 221 266 318
#
# _framework density 19.229925000000001
#
# number of rings (size 3 to 8) (size 9 to 14) (size 15 to 20)
#    0.000    2.000    0.000    3.000    0.000    7.333 
#    0.000    0.000    0.000    0.000    0.000    0.000 
#    0.000    0.000    0.000    0.000    0.000    0.000 
#
# Total GULP energy -134078.301561 kJ/mol
# GULP energy per Si atom -5586.595898 kJ/mol
# Density = 1.918616 g / cm^3
# Si number density = 19.229925 Si / 1000 Ang^3
#
#
#
# Elastic Constant Matrix: (Units=GPa)
#
#
# Indices 1 2 3 4 5 6 
#
# 1 16.8373 22.4437 28.9053 0.0000 0.0000 0.0000
# 2 22.4437 193.4786 130.5503 0.0000 0.0000 0.0000
# 3 28.9053 130.5503 172.5963 0.0000 0.0000 0.0000
# 4 0.0000 0.0000 0.0000 44.3525 0.0000 0.0000
# 5 0.0000 0.0000 0.0000 0.0000 21.1622 0.0000
# 6 0.0000 0.0000 0.0000 0.0000 0.0000 38.0037
#
#
#
# Elastic Compliance Matrix: (Units=1/GPa)
#
#
# Indices 1 2 3 4 5 6 
#
# 1 0.083383 -0.000511 -0.013578 0.000000 0.000000 0.000000
# 2 -0.000511 0.010559 -0.007901 0.000000 0.000000 0.000000
# 3 -0.013578 -0.007901 0.014044 0.000000 0.000000 0.000000
# 4 0.000000 0.000000 0.000000 0.022547 0.000000 0.000000
# 5 0.000000 0.000000 0.000000 0.000000 0.047254 0.000000
# 6 0.000000 0.000000 0.000000 0.000000 0.000000 0.026313
#
#
# Mechanical properties :
#
#
# Convention : Reuss Voigt Hill
#
# Bulk Modulus (GPa) = 15.62352 82.96786 49.29569
# Shear Modulus (GPa) = 18.55865 34.10453 26.33159
#
# Velocity S-wave (km/s) = 3.10996 4.21588 3.70442
# Velocity P-wave (km/s) = 4.58673 8.18150 6.63231
#
# Compressibility (1/GPa) = 0.06400607
#
# Stress axis : x y z
#
# Youngs Moduli (GPa) = 11.99289 94.70355 71.20265
#
# Poissons Ratio (x) = 0.04835 0.96680
# Poissons Ratio (y) = 0.00612 0.56260
# Poissons Ratio (z) = 0.16284 0.74829
#
# Static dielectric constant tensor:
#      x y z
#    x 1.668950 0.000000 0.000000 
#    y 0.000000 1.610340 0.000000 
#    z 0.000000 0.000000 1.682960 
# 
# From -- ./inp_files/26110.got.cif
#   From: 2010.05.17/outbox.cif.g08.bks.cpg/sg40_14_cif.got.tgz:26110.got - 2010.06.03 18:35:42.
