data_PCOD9364141
_publ_section_title
;
Structure prediction by ZEFSAII (Michael W. Deem and Ramdas Pophale) SiO2 
 PCOD9364141
Probable space group: A M A 2
;
_chemical_formula_sum "Si O2"
_cell_formula_units_Z 56
_cell_length_a 16.641293
_cell_length_b 5.225509
_cell_length_c 30.477455
_cell_angle_alpha 90.000000
_cell_angle_beta 90.000000
_cell_angle_gamma 90.000000
_cell_volume 2650.295908
_symmetry_space_group_name_H-M "A M A 2"
_symmetry_group_IT_number 40
_symmetry_cell_setting 'orthorhombic'
loop_
_space_group_symop_operation_xyz
x,y,z
-x,-y,z
1/2-x,y,z
1/2+x,-y,z
x,1/2+y,1/2+z
-x,1/2-y,1/2+z
1/2-x,1/2+y,1/2+z
1/2+x,1/2-y,1/2+z
loop_
_atom_site_type_symbol
_atom_site_label
_atom_site_fract_x
_atom_site_fract_y
_atom_site_fract_z
Si Si1 0.847034 0.581867 0.547770
Si Si2 0.443573 0.252866 0.188315
Si Si3 0.250000 0.939303 0.462869
Si Si4 0.582219 0.867096 0.475698
Si Si5 0.055383 0.245656 0.283134
Si Si6 0.084072 0.348684 0.378695
Si Si7 0.250000 0.955714 0.907864
Si Si8 0.845500 0.582217 0.103395
O O1 0.750000 0.604824 0.539763
O O2 0.899716 0.614944 0.503918
O O3 0.861692 0.311617 0.569875
O O4 0.870732 0.811437 0.581700
O O5 0.500000 0.500000 0.191615
O O6 0.399819 0.241239 0.236171
O O7 0.386427 0.322564 0.148086
O O8 0.500000 0.000000 0.181724
O O9 0.250000 0.651083 0.447427
O O10 0.335002 0.983033 0.485837
O O11 0.250000 0.161404 0.424912
O O12 0.579102 0.817542 0.423290
O O13 0.500000 0.000000 0.488695
O O14 0.095052 0.221624 0.331033
O O15 0.000000 0.500000 0.284832
O O16 0.000000 0.000000 0.279953
O O17 0.166136 0.508542 0.383914
O O18 0.000000 0.500000 0.378393
O O19 0.750000 0.562731 0.110374
#
# Coordination Sequence:
#
# PCOD9364141 Si02
#       8
#     8   8   4   8   8   8   4   8
#     4  10  22  40  58  84 120 160 198 246 308 355
#     4  10  20  37  62  91 118 155 196 247 301 355
#     4  10  22  40  56  80 118 152 198 254 294 338
#     4  11  22  37  61  89 118 164 206 247 295 356
#     4   9  19  36  60  85 118 157 192 236 302 357
#     4  10  21  39  60  89 123 162 201 249 297 355
#     4  10  22  36  58  84 112 156 202 244 292 348
#     4  10  22  40  62  86 119 159 194 245 308 358
#
# _framework density 21.129716999999999
#
# number of rings (size 3 to 8) (size 9 to 14) (size 15 to 20)
#    0.000    2.000    0.714    2.143    0.000    8.571 
#    1.286    0.000    0.000    0.000    1.857    0.000 
#    0.000    0.000    0.000    0.000    0.000    0.000 
#
# Total GULP energy -156123.844110 kJ/mol
# GULP energy per Si atom -5575.851575 kJ/mol
# Density = 2.108162 g / cm^3
# Si number density = 21.129717 Si / 1000 Ang^3
#
#
#
# Elastic Constant Matrix: (Units=GPa)
#
#
# Indices 1 2 3 4 5 6 
#
# 1 97.6675 12.6878 23.6870 0.0000 0.0000 0.0000
# 2 12.6878 89.1045 29.4735 0.0000 0.0000 0.0000
# 3 23.6870 29.4735 150.1853 0.0000 0.0000 0.0000
# 4 0.0000 0.0000 0.0000 18.3442 0.0000 0.0000
# 5 0.0000 0.0000 0.0000 0.0000 8.9715 0.0000
# 6 0.0000 0.0000 0.0000 0.0000 0.0000 17.0798
#
#
#
# Elastic Compliance Matrix: (Units=1/GPa)
#
#
# Indices 1 2 3 4 5 6 
#
# 1 0.010735 -0.001036 -0.001490 0.000000 0.000000 0.000000
# 2 -0.001036 0.012102 -0.002212 0.000000 0.000000 0.000000
# 3 -0.001490 -0.002212 0.007327 0.000000 0.000000 0.000000
# 4 0.000000 0.000000 0.000000 0.054513 0.000000 0.000000
# 5 0.000000 0.000000 0.000000 0.000000 0.111464 0.000000
# 6 0.000000 0.000000 0.000000 0.000000 0.000000 0.058549
#
#
# Mechanical properties :
#
#
# Convention : Reuss Voigt Hill
#
# Bulk Modulus (GPa) = 48.33338 52.07267 50.20303
# Shear Modulus (GPa) = 18.44604 26.95303 22.69954
#
# Velocity S-wave (km/s) = 2.95785 3.57543 3.28120
# Velocity P-wave (km/s) = 5.88128 6.46086 6.17787
#
# Compressibility (1/GPa) = 0.02068963
#
# Stress axis : x y z
#
# Youngs Moduli (GPa) = 93.15595 82.63234 136.47353
#
# Poissons Ratio (x) = 0.08559 0.20332
# Poissons Ratio (y) = 0.09649 0.30182
# Poissons Ratio (z) = 0.13878 0.18275
#
# Static dielectric constant tensor:
#      x y z
#    x 1.787860 0.000000 0.000000 
#    y 0.000000 1.793770 0.000000 
#    z 0.000000 0.000000 1.881890 
# 
# From -- ./inp_files/26658.got.cif
#   From: 2010.05.17/outbox.cif.g08.bks.cpg/sg40_14_cif.got.tgz:26658.got - 2010.06.03 18:35:42.
