data_PCOD9364866
_publ_section_title
;
Structure prediction by ZEFSAII (Michael W. Deem and Ramdas Pophale) SiO2 
 PCOD9364866
Probable space group: A M A 2
;
_chemical_formula_sum "Si O2"
_cell_formula_units_Z 28
_cell_length_a 14.315471
_cell_length_b 13.092043
_cell_length_c 6.735494
_cell_angle_alpha 90.000000
_cell_angle_beta 90.000000
_cell_angle_gamma 90.000000
_cell_volume 1262.357946
_symmetry_space_group_name_H-M "A M A 2"
_symmetry_group_IT_number 40
_symmetry_cell_setting 'orthorhombic'
loop_
_space_group_symop_operation_xyz
x,y,z
-x,-y,z
1/2-x,y,z
1/2+x,-y,z
x,1/2+y,1/2+z
-x,1/2-y,1/2+z
1/2-x,1/2+y,1/2+z
1/2+x,1/2-y,1/2+z
loop_
_atom_site_type_symbol
_atom_site_label
_atom_site_fract_x
_atom_site_fract_y
_atom_site_fract_z
Si Si1 0.750000 0.644085 0.554150
Si Si2 0.750000 0.477644 0.267516
Si Si3 0.405836 0.747744 0.788703
Si Si4 0.750000 0.689758 0.014560
Si Si5 0.942235 0.895713 0.619396
O O1 0.750000 0.525871 0.487303
O O2 0.658565 0.694242 0.452338
O O3 0.750000 0.579247 0.126255
O O4 0.750000 0.667027 0.784401
O O5 0.841975 0.415209 0.215839
O O6 0.340044 0.749863 0.595575
O O7 0.497520 0.810758 0.733555
O O8 0.429501 0.641592 0.892635
O O9 0.000000 0.000000 0.627412
#
# Coordination Sequence:
#
# PCOD9364866 Si02
#       5
#     4   4   8   4   8
#     4  10  21  45  74 105 148 191 254 307 389 447
#     4  10  22  46  71 106 149 198 244 327 370 449
#     4  10  25  43  72 106 150 195 241 323 367 454
#     4  10  21  45  71 109 145 195 254 304 385 454
#     4  12  23  49  74 108 157 191 260 312 381 453
#
# _framework density 22.180713000000001
#
# number of rings (size 3 to 8) (size 9 to 14) (size 15 to 20)
#    0.000    1.714    5.714    1.714    4.000    0.000 
#    5.143    5.714    0.000    0.000    0.000    0.000 
#    0.000    0.000    0.000    0.000    0.000    0.000 
#
# Total GULP energy -78345.605269 kJ/mol
# GULP energy per Si atom -5596.114662 kJ/mol
# Density = 2.213023 g / cm^3
# Si number density = 22.180713 Si / 1000 Ang^3
#
#
#
# Elastic Constant Matrix: (Units=GPa)
#
#
# Indices 1 2 3 4 5 6 
#
# 1 179.2150 43.9876 55.7736 0.0000 0.0000 0.0000
# 2 43.9876 60.3116 33.5448 0.0000 0.0000 0.0000
# 3 55.7736 33.5448 171.5439 0.0000 0.0000 0.0000
# 4 0.0000 0.0000 0.0000 50.0556 0.0000 0.0000
# 5 0.0000 0.0000 0.0000 0.0000 11.7251 0.0000
# 6 0.0000 0.0000 0.0000 0.0000 0.0000 11.2408
#
#
#
# Elastic Compliance Matrix: (Units=1/GPa)
#
#
# Indices 1 2 3 4 5 6 
#
# 1 0.007106 -0.004373 -0.001455 0.000000 0.000000 0.000000
# 2 -0.004373 0.021296 -0.002742 0.000000 0.000000 0.000000
# 3 -0.001455 -0.002742 0.006839 0.000000 0.000000 0.000000
# 4 0.000000 0.000000 0.000000 0.019978 0.000000 0.000000
# 5 0.000000 0.000000 0.000000 0.000000 0.085287 0.000000
# 6 0.000000 0.000000 0.000000 0.000000 0.000000 0.088961
#
#
# Mechanical properties :
#
#
# Convention : Reuss Voigt Hill
#
# Bulk Modulus (GPa) = 55.25304 75.29808 65.27556
# Shear Modulus (GPa) = 19.79086 33.12193 26.45639
#
# Velocity S-wave (km/s) = 2.99030 3.86849 3.45739
# Velocity P-wave (km/s) = 6.07347 7.34676 6.74025
#
# Compressibility (1/GPa) = 0.01809855
#
# Stress axis : x y z
#
# Youngs Moduli (GPa) = 140.72186 46.95808 146.22450
#
# Poissons Ratio (x) = 0.20537 0.21279
# Poissons Ratio (y) = 0.61544 0.40100
# Poissons Ratio (z) = 0.20478 0.12878
#
# Static dielectric constant tensor:
#      x y z
#    x 1.803170 0.000000 0.000000 
#    y 0.000000 1.832930 0.000000 
#    z 0.000000 0.000000 1.826680 
# 
# From -- ./inp_files/11687.got.cif
#   From: 2010.05.17/outbox.cif.g08.bks.cpg/sg40_6_cif.got.tgz:11687.got - 2010.06.03 18:35:42.
