data_PCOD9364407
_publ_section_title
;
Structure prediction by ZEFSAII (Michael W. Deem and Ramdas Pophale) SiO2 
 PCOD9364407
Probable space group: A M A 2
;
_chemical_formula_sum "Si O2"
_cell_formula_units_Z 64
_cell_length_a 25.012820
_cell_length_b 11.196292
_cell_length_c 10.430026
_cell_angle_alpha 90.000000
_cell_angle_beta 90.000000
_cell_angle_gamma 90.000000
_cell_volume 2920.937506
_symmetry_space_group_name_H-M "A M A 2"
_symmetry_group_IT_number 40
_symmetry_cell_setting 'orthorhombic'
loop_
_space_group_symop_operation_xyz
x,y,z
-x,-y,z
1/2-x,y,z
1/2+x,-y,z
x,1/2+y,1/2+z
-x,1/2-y,1/2+z
1/2-x,1/2+y,1/2+z
1/2+x,1/2-y,1/2+z
loop_
_atom_site_type_symbol
_atom_site_label
_atom_site_fract_x
_atom_site_fract_y
_atom_site_fract_z
Si Si1 0.308380 0.671666 0.950970
Si Si2 0.041954 0.810738 0.794212
Si Si3 0.857250 0.572952 0.428442
Si Si4 0.074135 0.213858 0.766032
Si Si5 0.838939 0.976116 0.678869
Si Si6 0.075555 0.077259 0.388978
Si Si7 0.408720 0.347014 0.032649
Si Si8 0.557315 0.039798 0.119385
O O1 0.250000 0.666584 0.885447
O O2 0.326246 0.808636 0.971401
O O3 0.361219 0.611127 0.888153
O O4 0.303822 0.600281 0.083228
O O5 0.089631 0.890893 0.846925
O O6 0.043009 0.699236 0.892820
O O7 0.059223 0.783829 0.647175
O O8 0.981653 0.851595 0.792721
O O9 0.821416 0.506881 0.323055
O O10 0.888109 0.508426 0.543262
O O11 0.112901 0.117839 0.703948
O O12 0.095519 0.271078 0.901007
O O13 0.062440 0.321509 0.665070
O O14 0.855658 0.097670 0.602055
O O15 0.064396 0.972512 0.488775
O O16 0.059874 0.027433 0.252598
O O17 0.500000 0.000000 0.060191
#
# Coordination Sequence:
#
# PCOD9364407 Si02
#       8
#     8   8   8   8   8   8   8   8
#     4  10  21  43  67  83 110 157 208 264 321 365
#     4  10  21  33  52  82 116 165 197 234 296 356
#     4  10  23  37  57  92 127 152 207 254 298 375
#     4  11  22  33  57  84 117 172 202 235 298 364
#     4  10  22  40  58  87 117 154 199 255 308 360
#     4   9  20  37  56  81 114 152 199 250 301 355
#     4   9  22  36  50  78 117 149 197 249 281 345
#     4  11  21  36  56  89 130 169 198 242 306 372
#
# _framework density 21.910774
#
# number of rings (size 3 to 8) (size 9 to 14) (size 15 to 20)
#    0.000    2.000    2.500    0.000    5.250    3.000 
#    0.000    0.625    0.000    0.000    0.000    0.000 
#    0.000    0.000    0.000    0.000    0.000    0.000 
#
# Total GULP energy -178273.311929 kJ/mol
# GULP energy per Si atom -5571.040998 kJ/mol
# Density = 2.186090 g / cm^3
# Si number density = 21.910774 Si / 1000 Ang^3
#
#
#
# Elastic Constant Matrix: (Units=GPa)
#
#
# Indices 1 2 3 4 5 6 
#
# 1 100.9516 11.0581 6.1498 0.0000 0.0000 0.0000
# 2 11.0581 64.9361 15.0917 0.0000 0.0000 0.0000
# 3 6.1498 15.0917 81.9874 0.0000 0.0000 0.0000
# 4 0.0000 0.0000 0.0000 40.0108 0.0000 0.0000
# 5 0.0000 0.0000 0.0000 0.0000 11.8660 0.0000
# 6 0.0000 0.0000 0.0000 0.0000 0.0000 -22.9286
#
#
#
# Elastic Compliance Matrix: (Units=1/GPa)
#
#
# Indices 1 2 3 4 5 6 
#
# 1 0.010111 -0.001615 -0.000461 0.000000 0.000000 0.000000
# 2 -0.001615 0.016346 -0.002888 0.000000 0.000000 0.000000
# 3 -0.000461 -0.002888 0.012763 0.000000 0.000000 0.000000
# 4 0.000000 0.000000 0.000000 0.024993 0.000000 0.000000
# 5 0.000000 0.000000 0.000000 0.000000 0.084274 0.000000
# 6 0.000000 0.000000 0.000000 0.000000 0.000000 -0.043614
#
#
# Mechanical properties :
#
#
# Convention : Reuss Voigt Hill
#
# Bulk Modulus (GPa) = 34.13824 34.71937 34.42881
# Shear Modulus (GPa) = 40.13975 20.16134 30.15054
#
# Velocity S-wave (km/s) = 4.28479 3.03670 3.71355
# Velocity P-wave (km/s) = 6.33195 5.30807 5.84248
#
# Compressibility (1/GPa) = 0.02929266
#
# Stress axis : x y z
#
# Youngs Moduli (GPa) = 98.90525 61.17767 78.35056
#
# Poissons Ratio (x) = 0.09878 0.03614
# Poissons Ratio (y) = 0.15969 0.22626
# Poissons Ratio (z) = 0.04561 0.17666
#
# Static dielectric constant tensor:
#      x y z
#    x 1.796880 0.000000 0.000000 
#    y 0.000000 1.889330 0.000000 
#    z 0.000000 0.000000 1.907890 
# 
# From -- ./inp_files/14046.got.cif
#   From: 2010.05.17/outbox.cif.g08.bks.cpg/sg40_8_cif.got.tgz:14046.got - 2010.06.03 18:35:42.
