data_PCOD9364952
_publ_section_title
;
Structure prediction by ZEFSAII (Michael W. Deem and Ramdas Pophale) SiO2 
 PCOD9364952
Probable space group: A M A 2
;
_chemical_formula_sum "Si O2"
_cell_formula_units_Z 56
_cell_length_a 21.290862
_cell_length_b 11.242220
_cell_length_c 10.150142
_cell_angle_alpha 90.000000
_cell_angle_beta 90.000000
_cell_angle_gamma 90.000000
_cell_volume 2429.503018
_symmetry_space_group_name_H-M "A M A 2"
_symmetry_group_IT_number 40
_symmetry_cell_setting 'orthorhombic'
loop_
_space_group_symop_operation_xyz
x,y,z
-x,-y,z
1/2-x,y,z
1/2+x,-y,z
x,1/2+y,1/2+z
-x,1/2-y,1/2+z
1/2-x,1/2+y,1/2+z
1/2+x,1/2-y,1/2+z
loop_
_atom_site_type_symbol
_atom_site_label
_atom_site_fract_x
_atom_site_fract_y
_atom_site_fract_z
Si Si1 0.321405 0.078520 0.365840
Si Si2 0.181934 0.954122 0.651938
Si Si3 0.676793 0.299032 0.523898
Si Si4 0.609224 0.232310 0.014236
Si Si5 0.822799 0.659640 0.760727
Si Si6 0.055188 0.085389 0.712309
Si Si7 0.064541 0.530705 0.501077
O O1 0.250000 0.113445 0.323710
O O2 0.366946 0.188184 0.393950
O O3 0.314987 0.016478 0.508947
O O4 0.351221 0.970897 0.281724
O O5 0.250000 0.974229 0.718825
O O6 0.174523 0.814713 0.620497
O O7 0.121633 0.015480 0.713506
O O8 0.750000 0.341576 0.521376
O O9 0.660394 0.248577 0.378074
O O10 0.622546 0.392600 0.555372
O O11 0.665677 0.212265 0.118327
O O12 0.561585 0.304191 0.111495
O O13 0.589533 0.101820 0.971425
O O14 0.750000 0.637043 0.780930
O O15 0.042691 0.101581 0.868101
O O16 0.000000 0.000000 0.661832
O O17 0.000000 0.500000 0.579049
#
# Coordination Sequence:
#
# PCOD9364952 Si02
#       7
#     8   8   8   8   8   8   8
#     4   8  16  32  56  90 120 145 194 248 293 355
#     4   8  16  33  61  88 115 155 198 246 300 350
#     4   9  18  36  61  88 120 156 198 249 300 356
#     4  11  21  38  61  83 114 163 198 240 304 351
#     4   9  17  34  62  88 118 156 192 245 305 355
#     4  10  22  40  60  86 117 157 203 250 300 359
#     4  11  25  41  57  89 125 156 200 251 294 362
#
# _framework density 23.049979
#
# number of rings (size 3 to 8) (size 9 to 14) (size 15 to 20)
#    0.000    2.571    1.429    2.143    2.000    2.286 
#    2.571    0.000    0.000    0.000    0.000    0.000 
#    0.000    0.000    0.000    0.000    0.000    0.000 
#
# Total GULP energy -156130.012140 kJ/mol
# GULP energy per Si atom -5576.071862 kJ/mol
# Density = 2.299752 g / cm^3
# Si number density = 23.049979 Si / 1000 Ang^3
#
#
#
# Elastic Constant Matrix: (Units=GPa)
#
#
# Indices 1 2 3 4 5 6 
#
# 1 70.6379 30.0781 -6.6973 0.0000 0.0000 0.0000
# 2 30.0781 109.9029 9.7385 0.0000 0.0000 0.0000
# 3 -6.6973 9.7385 60.1344 0.0000 0.0000 0.0000
# 4 0.0000 0.0000 0.0000 34.0040 0.0000 0.0000
# 5 0.0000 0.0000 0.0000 0.0000 -132.6497 0.0000
# 6 0.0000 0.0000 0.0000 0.0000 0.0000 95.6412
#
#
#
# Elastic Compliance Matrix: (Units=1/GPa)
#
#
# Indices 1 2 3 4 5 6 
#
# 1 0.016413 -0.004722 0.002593 0.000000 0.000000 0.000000
# 2 -0.004722 0.010590 -0.002241 0.000000 0.000000 0.000000
# 3 0.002593 -0.002241 0.017281 0.000000 0.000000 0.000000
# 4 0.000000 0.000000 0.000000 0.029408 0.000000 0.000000
# 5 0.000000 0.000000 0.000000 0.000000 -0.007539 0.000000
# 6 0.000000 0.000000 0.000000 0.000000 0.000000 0.010456
#
#
# Mechanical properties :
#
#
# Convention : Reuss Voigt Hill
#
# Bulk Modulus (GPa) = 28.13409 34.10156 31.11782
# Shear Modulus (GPa) = 51.44194 13.23614 32.33904
#
# Velocity S-wave (km/s) = 4.72927 2.39892 3.74972
# Velocity P-wave (km/s) = 6.48487 4.74340 5.68126
#
# Compressibility (1/GPa) = 0.03554407
#
# Stress axis : x y z
#
# Youngs Moduli (GPa) = 60.92724 94.43127 57.86685
#
# Poissons Ratio (x) = 0.44587 -0.15003
# Poissons Ratio (y) = 0.28768 0.12967
# Poissons Ratio (z) = -0.15796 0.21160
#
# Static dielectric constant tensor:
#      x y z
#    x 1.912650 0.000000 0.000000 
#    y 0.000000 1.936210 0.000000 
#    z 0.000000 0.000000 1.896940 
# 
# From -- ./inp_files/13550.got.cif
#   From: 2010.05.17/outbox.cif.g08.bks.cpg/sg40_7_cif.got.tgz:13550.got - 2010.06.03 18:35:42.
