data_PCOD9364332
_publ_section_title
;
Structure prediction by ZEFSAII (Michael W. Deem and Ramdas Pophale) SiO2 
 PCOD9364332
Probable space group: A M A 2
;
_chemical_formula_sum "Si O2"
_cell_formula_units_Z 48
_cell_length_a 26.461575
_cell_length_b 5.255610
_cell_length_c 14.079598
_cell_angle_alpha 90.000000
_cell_angle_beta 90.000000
_cell_angle_gamma 90.000000
_cell_volume 1958.073885
_symmetry_space_group_name_H-M "A M A 2"
_symmetry_group_IT_number 40
_symmetry_cell_setting 'orthorhombic'
loop_
_space_group_symop_operation_xyz
x,y,z
-x,-y,z
1/2-x,y,z
1/2+x,-y,z
x,1/2+y,1/2+z
-x,1/2-y,1/2+z
1/2-x,1/2+y,1/2+z
1/2+x,1/2-y,1/2+z
loop_
_atom_site_type_symbol
_atom_site_label
_atom_site_fract_x
_atom_site_fract_y
_atom_site_fract_z
Si Si1 0.028616 0.745372 0.898950
Si Si2 0.484374 0.755204 0.611286
Si Si3 0.860405 0.605955 0.350465
Si Si4 0.250000 0.770982 0.149654
Si Si5 0.250000 0.763646 0.779935
Si Si6 0.620680 0.008843 0.636442
Si Si7 0.154153 0.500278 0.557839
O O1 0.088011 0.735408 0.873179
O O2 0.000000 0.500000 0.862607
O O3 0.000000 0.000000 0.868010
O O4 0.015419 0.745002 0.012488
O O5 0.500000 0.500000 0.659962
O O6 0.425606 0.811355 0.600215
O O7 0.500000 0.000000 0.669183
O O8 0.804111 0.723971 0.335944
O O9 0.873643 0.477431 0.249672
O O10 0.854969 0.446030 0.447080
O O11 0.250000 0.510354 0.209536
O O12 0.202840 0.827762 0.082281
O O13 0.250000 0.994903 0.227348
O O14 0.661811 0.225740 0.607575
O O15 0.615999 0.724201 0.594801
#
# Coordination Sequence:
#
# PCOD9364332 Si02
#       7
#     8   8   8   4   4   8   8
#     4  10  22  41  67 104 147 189 247 301 362 442
#     4  10  20  40  64  98 143 189 237 299 362 431
#     4  12  27  48  80 112 153 202 255 311 379 454
#     4  12  23  50  73 102 152 196 247 316 377 442
#     4  12  27  50  73 116 152 194 259 310 377 460
#     4  12  26  45  74 107 149 194 251 314 371 439
#     4  12  25  46  73 105 146 195 246 312 376 441
#
# _framework density 24.513888000000001
#
# number of rings (size 3 to 8) (size 9 to 14) (size 15 to 20)
#    0.000    0.667    3.333    5.500    0.000    6.667 
#    0.000    1.667    0.000    0.000    0.000    0.000 
#    0.000    0.000    0.000    0.000    0.000    0.000 
#
# Total GULP energy -133664.108622 kJ/mol
# GULP energy per Si atom -5569.337859 kJ/mol
# Density = 2.445809 g / cm^3
# Si number density = 24.513888 Si / 1000 Ang^3
#
#
#
# Elastic Constant Matrix: (Units=GPa)
#
#
# Indices 1 2 3 4 5 6 
#
# 1 139.9845 14.8429 10.6241 0.0000 0.0000 0.0000
# 2 14.8429 188.6032 36.6192 0.0000 0.0000 0.0000
# 3 10.6241 36.6192 190.3281 0.0000 0.0000 0.0000
# 4 0.0000 0.0000 0.0000 -25.6356 0.0000 0.0000
# 5 0.0000 0.0000 0.0000 0.0000 49.5491 0.0000
# 6 0.0000 0.0000 0.0000 0.0000 0.0000 17.3940
#
#
#
# Elastic Compliance Matrix: (Units=1/GPa)
#
#
# Indices 1 2 3 4 5 6 
#
# 1 0.007221 -0.000509 -0.000305 0.000000 0.000000 0.000000
# 2 -0.000509 0.005544 -0.001038 0.000000 0.000000 0.000000
# 3 -0.000305 -0.001038 0.005471 0.000000 0.000000 0.000000
# 4 0.000000 0.000000 0.000000 -0.039008 0.000000 0.000000
# 5 0.000000 0.000000 0.000000 0.000000 0.020182 0.000000
# 6 0.000000 0.000000 0.000000 0.000000 0.000000 0.057491
#
#
# Mechanical properties :
#
#
# Convention : Reuss Voigt Hill
#
# Bulk Modulus (GPa) = 68.81979 71.45422 70.13700
# Shear Modulus (GPa) = 76.39605 38.71682 57.55643
#
# Velocity S-wave (km/s) = 5.58856 3.97846 4.85078
# Velocity P-wave (km/s) = 8.35329 7.09337 7.74898
#
# Compressibility (1/GPa) = 0.01453070
#
# Stress axis : x y z
#
# Youngs Moduli (GPa) = 138.48918 180.38250 182.78636
#
# Poissons Ratio (x) = 0.09182 0.05577
# Poissons Ratio (y) = 0.07049 0.18977
# Poissons Ratio (z) = 0.04226 0.18727
#
# Static dielectric constant tensor:
#      x y z
#    x 2.239560 0.000000 0.000000 
#    y 0.000000 2.550860 0.000000 
#    z 0.000000 0.000000 1.925010 
# 
# From -- ./inp_files/18674.got.cif
#   From: 2010.05.17/outbox.cif.g08.bks.cpg/sg40_10_cif.got.tgz:18674.got - 2010.06.03 18:35:42.
