data_PCOD9364706
_publ_section_title
;
Structure prediction by ZEFSAII (Michael W. Deem and Ramdas Pophale) SiO2 
 PCOD9364706
Probable space group: A M A 2
;
_chemical_formula_sum "Si O2"
_cell_formula_units_Z 56
_cell_length_a 29.283401
_cell_length_b 14.314508
_cell_length_c 4.840747
_cell_angle_alpha 90.000000
_cell_angle_beta 90.000000
_cell_angle_gamma 90.000000
_cell_volume 2029.132119
_symmetry_space_group_name_H-M "A M A 2"
_symmetry_group_IT_number 40
_symmetry_cell_setting 'orthorhombic'
loop_
_space_group_symop_operation_xyz
x,y,z
-x,-y,z
1/2-x,y,z
1/2+x,-y,z
x,1/2+y,1/2+z
-x,1/2-y,1/2+z
1/2-x,1/2+y,1/2+z
1/2+x,1/2-y,1/2+z
loop_
_atom_site_type_symbol
_atom_site_label
_atom_site_fract_x
_atom_site_fract_y
_atom_site_fract_z
Si Si1 0.604803 0.507884 0.559110
Si Si2 0.972500 0.773656 0.176868
Si Si3 0.199591 0.912914 0.409170
Si Si4 0.699656 0.753203 0.536276
Si Si5 0.548073 0.449787 0.061896
Si Si6 0.879637 0.689801 0.226232
Si Si7 0.800732 0.433424 0.358591
O O1 0.575458 0.444449 0.347537
O O2 0.603008 0.612657 0.443278
O O3 0.657067 0.471743 0.537172
O O4 0.582140 0.505433 0.857270
O O5 0.962722 0.860041 0.377259
O O6 0.924240 0.731295 0.088299
O O7 0.001303 0.792293 0.900880
O O8 0.250000 0.881639 0.509985
O O9 0.200131 0.857242 0.113938
O O10 0.197074 0.014247 0.560438
O O11 0.155732 0.862385 0.532489
O O12 0.750000 0.775863 0.416523
O O13 0.652733 0.766481 0.371647
O O14 0.696145 0.823728 0.794964
O O15 0.500000 0.500000 0.109654
O O16 0.750000 0.454134 0.480327
#
# Coordination Sequence:
#
# PCOD9364706 Si02
#       7
#     8   8   8   8   8   8   8
#     4  11  25  42  70  99 133 181 225 281 349 410
#     4  12  27  45  70 101 134 178 227 288 349 414
#     4   9  20  38  62  92 131 176 224 282 348 415
#     4  10  21  39  66  96 133 178 227 283 346 412
#     4  12  25  46  69  98 135 174 229 285 350 418
#     4  11  24  39  66  90 135 169 228 280 343 412
#     4   9  20  41  63  96 138 176 231 283 343 420
#
# _framework density 27.598008
#
# number of rings (size 3 to 8) (size 9 to 14) (size 15 to 20)
#    0.000    1.429    0.000    4.286    8.000    0.571 
#    0.000    0.714    0.000    0.000    0.000    0.000 
#    0.000    0.000    0.000    0.000    0.000    0.000 
#
# Total GULP energy -156747.471706 kJ/mol
# GULP energy per Si atom -5598.123989 kJ/mol
# Density = 2.753519 g / cm^3
# Si number density = 27.598008 Si / 1000 Ang^3
#
#
#
# Elastic Constant Matrix: (Units=GPa)
#
#
# Indices 1 2 3 4 5 6 
#
# 1 201.3568 20.2765 42.2740 0.0000 0.0000 0.0000
# 2 20.2765 96.4887 -2.5053 0.0000 0.0000 0.0000
# 3 42.2740 -2.5053 113.1700 0.0000 0.0000 0.0000
# 4 0.0000 0.0000 0.0000 29.0885 0.0000 0.0000
# 5 0.0000 0.0000 0.0000 0.0000 4.8852 0.0000
# 6 0.0000 0.0000 0.0000 0.0000 0.0000 45.5002
#
#
#
# Elastic Compliance Matrix: (Units=1/GPa)
#
#
# Indices 1 2 3 4 5 6 
#
# 1 0.005528 -0.001216 -0.002092 0.000000 0.000000 0.000000
# 2 -0.001216 0.010637 0.000690 0.000000 0.000000 0.000000
# 3 -0.002092 0.000690 0.009633 0.000000 0.000000 0.000000
# 4 0.000000 0.000000 0.000000 0.034378 0.000000 0.000000
# 5 0.000000 0.000000 0.000000 0.000000 0.204700 0.000000
# 6 0.000000 0.000000 0.000000 0.000000 0.000000 0.021978
#
#
# Mechanical properties :
#
#
# Convention : Reuss Voigt Hill
#
# Bulk Modulus (GPa) = 48.63349 59.01178 53.82264
# Shear Modulus (GPa) = 16.72554 39.29282 28.00918
#
# Velocity S-wave (km/s) = 2.46446 3.77736 3.18920
# Velocity P-wave (km/s) = 5.07528 6.36032 5.75379
#
# Compressibility (1/GPa) = 0.02056196
#
# Stress axis : x y z
#
# Youngs Moduli (GPa) = 180.89958 94.00846 103.81064
#
# Poissons Ratio (x) = 0.11431 0.21716
# Poissons Ratio (y) = 0.21997 -0.07160
# Poissons Ratio (z) = 0.37841 -0.06484
#
# Static dielectric constant tensor:
#      x y z
#    x 2.136420 0.000000 0.000000 
#    y 0.000000 2.246320 0.000000 
#    z 0.000000 0.000000 2.166020 
# 
# From -- ./inp_files/3380.got.cif
#   From: 2010.05.17/outbox.cif.g08.bks.cpg/sg40_2_cif.got.tgz:3380.got - 2010.06.03 18:35:42.
