data_PCOD9364328
_publ_section_title
;
Structure prediction by ZEFSAII (Michael W. Deem and Ramdas Pophale) SiO2 
 PCOD9364328
Probable space group: A M A 2
;
_chemical_formula_sum "Si O2"
_cell_formula_units_Z 48
_cell_length_a 15.002575
_cell_length_b 28.911865
_cell_length_c 5.146928
_cell_angle_alpha 90.000000
_cell_angle_beta 90.000000
_cell_angle_gamma 90.000000
_cell_volume 2232.492491
_symmetry_space_group_name_H-M "A M A 2"
_symmetry_group_IT_number 40
_symmetry_cell_setting 'orthorhombic'
loop_
_space_group_symop_operation_xyz
x,y,z
-x,-y,z
1/2-x,y,z
1/2+x,-y,z
x,1/2+y,1/2+z
-x,1/2-y,1/2+z
1/2-x,1/2+y,1/2+z
1/2+x,1/2-y,1/2+z
loop_
_atom_site_type_symbol
_atom_site_label
_atom_site_fract_x
_atom_site_fract_y
_atom_site_fract_z
Si Si1 0.651635 0.831301 0.853580
Si Si2 0.558247 0.742810 0.042786
Si Si3 0.569430 0.556571 0.343613
Si Si4 0.469827 0.857535 0.555614
Si Si5 0.852512 0.008561 0.352851
Si Si6 0.582756 0.913992 0.162473
O O1 0.750000 0.831257 0.732094
O O2 0.631005 0.782018 0.986776
O O3 0.565896 0.841366 0.672650
O O4 0.644960 0.873488 0.057462
O O5 0.478727 0.752386 0.835196
O O6 0.582313 0.689359 0.994192
O O7 0.622318 0.535250 0.586272
O O8 0.466221 0.558630 0.429675
O O9 0.583505 0.609926 0.254866
O O10 0.589316 0.527827 0.087126
O O11 0.502264 0.888718 0.315594
O O12 0.750000 0.017319 0.414513
O O13 0.869007 0.953864 0.320978
#
# Coordination Sequence:
#
# PCOD9364328 Si02
#       6
#     8   8   8   8   8   8
#     4  10  22  39  64 102 136 164 211 279 338 383
#     4  10  20  40  64  93 127 172 210 257 322 396
#     4  11  25  43  68  94 129 178 228 263 319 405
#     4  10  22  41  69  93 129 175 225 263 316 403
#     4  12  27  43  64  97 137 171 218 284 337 375
#     4  11  23  41  69  96 128 178 221 268 324 405
#
# _framework density 21.500632
#
# number of rings (size 3 to 8) (size 9 to 14) (size 15 to 20)
#    0.000    1.333    3.333    1.500    7.000    1.333 
#    0.000    1.667    0.000    0.000    0.000    0.000 
#    0.000    0.000    0.000    0.000    0.000    0.000 
#
# Total GULP energy -133995.327856 kJ/mol
# GULP energy per Si atom -5583.138661 kJ/mol
# Density = 2.145170 g / cm^3
# Si number density = 21.500632 Si / 1000 Ang^3
#
#
#
# Elastic Constant Matrix: (Units=GPa)
#
#
# Indices 1 2 3 4 5 6 
#
# 1 57.3100 55.1393 20.2740 0.0000 0.0000 0.0000
# 2 55.1393 146.2318 41.1970 0.0000 0.0000 0.0000
# 3 20.2740 41.1970 87.7371 0.0000 0.0000 0.0000
# 4 0.0000 0.0000 0.0000 37.8787 0.0000 0.0000
# 5 0.0000 0.0000 0.0000 0.0000 1.4334 0.0000
# 6 0.0000 0.0000 0.0000 0.0000 0.0000 7.2371
#
#
#
# Elastic Compliance Matrix: (Units=1/GPa)
#
#
# Indices 1 2 3 4 5 6 
#
# 1 0.027606 -0.009925 -0.001719 0.000000 0.000000 0.000000
# 2 -0.009925 0.011449 -0.003083 0.000000 0.000000 0.000000
# 3 -0.001719 -0.003083 0.013242 0.000000 0.000000 0.000000
# 4 0.000000 0.000000 0.000000 0.026400 0.000000 0.000000
# 5 0.000000 0.000000 0.000000 0.000000 0.697640 0.000000
# 6 0.000000 0.000000 0.000000 0.000000 0.000000 0.138177
#
#
# Mechanical properties :
#
#
# Convention : Reuss Voigt Hill
#
# Bulk Modulus (GPa) = 43.77365 58.27770 51.02567
# Shear Modulus (GPa) = 5.25440 20.95442 13.10441
#
# Velocity S-wave (km/s) = 1.56497 3.12524 2.47146
# Velocity P-wave (km/s) = 4.86508 6.33930 5.65047
#
# Compressibility (1/GPa) = 0.02284480
#
# Stress axis : x y z
#
# Youngs Moduli (GPa) = 36.22369 87.34106 75.51569
#
# Poissons Ratio (x) = 0.86688 0.12979
# Poissons Ratio (y) = 0.35953 0.23278
# Poissons Ratio (z) = 0.06226 0.26924
#
# Static dielectric constant tensor:
#      x y z
#    x 1.886460 0.000000 0.000000 
#    y 0.000000 1.841750 0.000000 
#    z 0.000000 0.000000 1.844900 
# 
# From -- ./inp_files/1354.got.cif
#   From: 2010.05.17/outbox.cif.g08.bks.cpg/sg40_1_cif.got.tgz:1354.got - 2010.06.03 18:35:42.
