data_PCOD9364512
_publ_section_title
;
Structure prediction by ZEFSAII (Michael W. Deem and Ramdas Pophale) SiO2 
 PCOD9364512
Probable space group: A M A 2
;
_chemical_formula_sum "Si O2"
_cell_formula_units_Z 40
_cell_length_a 8.779732
_cell_length_b 29.034442
_cell_length_c 7.998625
_cell_angle_alpha 90.000000
_cell_angle_beta 90.000000
_cell_angle_gamma 90.000000
_cell_volume 2038.966449
_symmetry_space_group_name_H-M "A M A 2"
_symmetry_group_IT_number 40
_symmetry_cell_setting 'orthorhombic'
loop_
_space_group_symop_operation_xyz
x,y,z
-x,-y,z
1/2-x,y,z
1/2+x,-y,z
x,1/2+y,1/2+z
-x,1/2-y,1/2+z
1/2-x,1/2+y,1/2+z
1/2+x,1/2-y,1/2+z
loop_
_atom_site_type_symbol
_atom_site_label
_atom_site_fract_x
_atom_site_fract_y
_atom_site_fract_z
Si Si1 0.067782 0.608580 0.552740
Si Si2 0.930821 0.700588 0.668859
Si Si3 0.931722 0.301184 0.032406
Si Si4 0.068569 0.449220 0.858995
Si Si5 0.932289 0.899729 0.680240
O O1 0.250000 0.605735 0.568088
O O2 0.023077 0.589226 0.370580
O O3 0.017665 0.661786 0.564245
O O4 0.992480 0.582088 0.707076
O O5 0.750000 0.694574 0.648596
O O6 0.971433 0.752542 0.616028
O O7 0.978181 0.693672 0.860529
O O8 0.750000 0.300859 0.996322
O O9 0.961776 0.345577 0.146322
O O10 0.250000 0.450756 0.853458
O O11 0.000000 0.500000 0.841177
O O12 0.014316 0.427992 0.035298
O O13 0.750000 0.906879 0.663917
#
# Coordination Sequence:
#
# PCOD9364512 Si02
#       5
#     8   8   8   8   8
#     4  11  23  42  67  95 132 173 214 267 325 385
#     4  11  22  36  58  92 128 171 221 266 318 381
#     4  10  21  37  58  87 128 172 215 264 320 383
#     4  12  26  45  70  98 129 169 216 272 329 390
#     4  10  22  42  67  94 129 173 215 264 325 385
#
# _framework density 19.617782999999999
#
# number of rings (size 3 to 8) (size 9 to 14) (size 15 to 20)
#    0.000    1.200    2.000    4.200    0.000    5.600 
#    0.000    0.000    0.000    0.000    0.000    0.000 
#    0.000    0.000    0.000    0.000    0.000    0.000 
#
# Total GULP energy -111844.613306 kJ/mol
# GULP energy per Si atom -5592.230665 kJ/mol
# Density = 1.957313 g / cm^3
# Si number density = 19.617783 Si / 1000 Ang^3
#
#
#
# Elastic Constant Matrix: (Units=GPa)
#
#
# Indices 1 2 3 4 5 6 
#
# 1 65.0808 32.7866 45.6977 0.0000 0.0000 0.0000
# 2 32.7866 78.9294 7.3135 0.0000 0.0000 0.0000
# 3 45.6977 7.3135 103.4556 0.0000 0.0000 0.0000
# 4 0.0000 0.0000 0.0000 22.3261 0.0000 0.0000
# 5 0.0000 0.0000 0.0000 0.0000 -0.3969 0.0000
# 6 0.0000 0.0000 0.0000 0.0000 0.0000 33.8599
#
#
#
# Elastic Compliance Matrix: (Units=1/GPa)
#
#
# Indices 1 2 3 4 5 6 
#
# 1 0.029625 -0.011167 -0.012297 0.000000 0.000000 0.000000
# 2 -0.011167 0.016962 0.003733 0.000000 0.000000 0.000000
# 3 -0.012297 0.003733 0.014834 0.000000 0.000000 0.000000
# 4 0.000000 0.000000 0.000000 0.044791 0.000000 0.000000
# 5 0.000000 0.000000 0.000000 0.000000 -2.519739 0.000000
# 6 0.000000 0.000000 0.000000 0.000000 0.000000 0.029533
#
#
# Mechanical properties :
#
#
# Convention : Reuss Voigt Hill
#
# Bulk Modulus (GPa) = 45.53436 46.56238 46.04837
# Shear Modulus (GPa) = -2.13930 21.93570 9.89820
#
# Velocity S-wave (km/s) = -1.04540 3.34751 2.24866
# Velocity P-wave (km/s) = 4.66948 6.22313 5.50143
#
# Compressibility (1/GPa) = 0.02196144
#
# Stress axis : x y z
#
# Youngs Moduli (GPa) = 33.75489 58.95468 67.41457
#
# Poissons Ratio (x) = 0.65833 0.82896
# Poissons Ratio (y) = 0.37693 -0.25169
# Poissons Ratio (z) = 0.41507 -0.22010
#
# Static dielectric constant tensor:
#      x y z
#    x 1.652520 0.000000 0.000000 
#    y 0.000000 1.685960 0.000000 
#    z 0.000000 0.000000 1.674200 
# 
# From -- ./inp_files/4371.got.cif
#   From: 2010.05.17/outbox.cif.g08.bks.cpg/sg40_3_cif.got.tgz:4371.got - 2010.06.03 18:35:42.
