data_PCOD9364534
_publ_section_title
;
Structure prediction by ZEFSAII (Michael W. Deem and Ramdas Pophale) SiO2 
 PCOD9364534
Probable space group: A M A 2
;
_chemical_formula_sum "Si O2"
_cell_formula_units_Z 48
_cell_length_a 8.678167
_cell_length_b 27.973795
_cell_length_c 9.846400
_cell_angle_alpha 90.000000
_cell_angle_beta 90.000000
_cell_angle_gamma 90.000000
_cell_volume 2390.324516
_symmetry_space_group_name_H-M "A M A 2"
_symmetry_group_IT_number 40
_symmetry_cell_setting 'orthorhombic'
loop_
_space_group_symop_operation_xyz
x,y,z
-x,-y,z
1/2-x,y,z
1/2+x,-y,z
x,1/2+y,1/2+z
-x,1/2-y,1/2+z
1/2-x,1/2+y,1/2+z
1/2+x,1/2-y,1/2+z
loop_
_atom_site_type_symbol
_atom_site_label
_atom_site_fract_x
_atom_site_fract_y
_atom_site_fract_z
Si Si1 0.435786 0.304072 0.644790
Si Si2 0.565241 0.626523 0.067832
Si Si3 0.933531 0.048433 0.351917
Si Si4 0.936714 0.586801 0.566824
Si Si5 0.066892 0.052647 0.783132
Si Si6 0.065615 0.220270 0.443894
O O1 0.250000 0.302475 0.656672
O O2 0.476351 0.358315 0.603523
O O3 0.482642 0.268703 0.522157
O O4 0.500117 0.288235 0.792106
O O5 0.750000 0.631695 0.076193
O O6 0.505545 0.594555 0.191364
O O7 0.523407 0.594863 0.936475
O O8 0.489557 0.677533 0.042431
O O9 0.750000 0.045310 0.355549
O O10 0.982264 0.055917 0.197577
O O11 0.000000 0.000000 0.411381
O O12 0.750000 0.584293 0.548597
O O13 0.020054 0.566518 0.435768
O O14 0.250000 0.051530 0.765528
O O15 0.000000 0.000000 0.751280
O O16 0.250000 0.220159 0.433797
#
# Coordination Sequence:
#
# PCOD9364534 Si02
#       6
#     8   8   8   8   8   8
#     4  10  23  44  66  93 130 168 210 259 320 387
#     4  11  23  43  66  90 126 172 210 261 322 377
#     4  10  21  37  62  90 118 157 203 251 310 371
#     4  10  21  42  65  90 125 168 211 258 317 381
#     4  12  26  43  63  95 130 170 217 265 317 382
#     4  11  24  41  66 100 129 165 214 264 319 383
#
# _framework density 20.080954999999999
#
# number of rings (size 3 to 8) (size 9 to 14) (size 15 to 20)
#    0.000    1.333    1.667    3.500    2.333    6.667 
#    0.000    0.000    0.000    0.000    0.000    0.000 
#    0.000    0.000    0.000    0.000    0.000    0.000 
#
# Total GULP energy -134143.133575 kJ/mol
# GULP energy per Si atom -5589.297232 kJ/mol
# Density = 2.003525 g / cm^3
# Si number density = 20.080955 Si / 1000 Ang^3
#
#
#
# Elastic Constant Matrix: (Units=GPa)
#
#
# Indices 1 2 3 4 5 6 
#
# 1 17.4723 12.4342 5.3189 0.0000 0.0000 0.0000
# 2 12.4342 96.6232 -2.2272 0.0000 0.0000 0.0000
# 3 5.3189 -2.2272 65.1986 0.0000 0.0000 0.0000
# 4 0.0000 0.0000 0.0000 38.3566 0.0000 0.0000
# 5 0.0000 0.0000 0.0000 0.0000 18.6425 0.0000
# 6 0.0000 0.0000 0.0000 0.0000 0.0000 25.9960
#
#
#
# Elastic Compliance Matrix: (Units=1/GPa)
#
#
# Indices 1 2 3 4 5 6 
#
# 1 0.064978 -0.008491 -0.005591 0.000000 0.000000 0.000000
# 2 -0.008491 0.011467 0.001084 0.000000 0.000000 0.000000
# 3 -0.005591 0.001084 0.015831 0.000000 0.000000 0.000000
# 4 0.000000 0.000000 0.000000 0.026071 0.000000 0.000000
# 5 0.000000 0.000000 0.000000 0.000000 0.053641 0.000000
# 6 0.000000 0.000000 0.000000 0.000000 0.000000 0.038467
#
#
# Mechanical properties :
#
#
# Convention : Reuss Voigt Hill
#
# Bulk Modulus (GPa) = 15.08720 23.37175 19.22947
# Shear Modulus (GPa) = 19.33909 27.51690 23.42800
#
# Velocity S-wave (km/s) = 3.10668 3.70577 3.41937
# Velocity P-wave (km/s) = 4.51643 5.47488 5.01859
#
# Compressibility (1/GPa) = 0.06628137
#
# Stress axis : x y z
#
# Youngs Moduli (GPa) = 15.38987 87.20586 63.16756
#
# Poissons Ratio (x) = 0.74044 0.35317
# Poissons Ratio (y) = 0.13067 -0.06850
# Poissons Ratio (z) = 0.08604 -0.09457
#
# Static dielectric constant tensor:
#      x y z
#    x 1.687120 0.000000 0.000000 
#    y 0.000000 1.939850 0.000000 
#    z 0.000000 0.000000 1.716000 
# 
# From -- ./inp_files/4588.got.cif
#   From: 2010.05.17/outbox.cif.g08.bks.cpg/sg40_3_cif.got.tgz:4588.got - 2010.06.03 18:35:42.
