data_PCOD9364648
_publ_section_title
;
Structure prediction by ZEFSAII (Michael W. Deem and Ramdas Pophale) SiO2 
 PCOD9364648
Probable space group: A M A 2
;
_chemical_formula_sum "Si O2"
_cell_formula_units_Z 56
_cell_length_a 8.953028
_cell_length_b 19.694815
_cell_length_c 17.621999
_cell_angle_alpha 90.000000
_cell_angle_beta 90.000000
_cell_angle_gamma 90.000000
_cell_volume 3107.255895
_symmetry_space_group_name_H-M "A M A 2"
_symmetry_group_IT_number 40
_symmetry_cell_setting 'orthorhombic'
loop_
_space_group_symop_operation_xyz
x,y,z
-x,-y,z
1/2-x,y,z
1/2+x,-y,z
x,1/2+y,1/2+z
-x,1/2-y,1/2+z
1/2-x,1/2+y,1/2+z
1/2+x,1/2-y,1/2+z
loop_
_atom_site_type_symbol
_atom_site_label
_atom_site_fract_x
_atom_site_fract_y
_atom_site_fract_z
Si Si1 0.919718 0.433431 0.333240
Si Si2 0.071771 0.199870 0.303804
Si Si3 0.071615 0.700973 0.412786
Si Si4 0.922842 0.786763 0.673747
Si Si5 0.919858 0.432681 0.150173
Si Si6 0.569306 0.574624 0.714483
Si Si7 0.580233 0.158249 0.065528
O O1 0.750000 0.435844 0.359754
O O2 0.981004 0.361562 0.359537
O O3 0.920616 0.436895 0.242098
O O4 0.000000 0.500000 0.363408
O O5 0.250000 0.193220 0.306166
O O6 0.008641 0.231011 0.382437
O O7 0.020440 0.255371 0.240853
O O8 0.997453 0.129740 0.273903
O O9 0.250000 0.710387 0.406201
O O10 0.026646 0.673718 0.495481
O O11 0.750000 0.798931 0.701270
O O12 0.981648 0.856984 0.638286
O O13 0.914117 0.728549 0.611609
O O14 0.750000 0.433840 0.122799
O O15 0.000000 0.500000 0.121078
O O16 0.500000 0.500000 0.724863
O O17 0.750000 0.573922 0.721177
O O18 0.534472 0.602972 0.629236
O O19 0.750000 0.142157 0.039528
#
# Coordination Sequence:
#
# PCOD9364648 Si02
#       7
#     8   8   8   8   8   8   8
#     4   9  18  30  45  67  98 133 166 201 246 298
#     4  11  21  33  55  82 106 137 183 230 274 325
#     4  11  21  35  52  74 108 146 182 223 271 324
#     4   9  17  34  53  71 102 137 171 215 268 319
#     4   9  16  28  46  69  97 128 162 200 247 298
#     4  10  21  39  61  84 114 147 185 231 281 336
#     4   9  20  35  53  77 105 140 178 220 270 326
#
# _framework density 18.022331999999999
#
# number of rings (size 3 to 8) (size 9 to 14) (size 15 to 20)
#    0.000    2.286    1.429    3.000    0.000    5.143 
#    0.000    2.857    0.000    0.857    0.000    4.000 
#    0.000    0.000    0.000    0.000    0.000    0.000 
#
# Total GULP energy -155930.635307 kJ/mol
# GULP energy per Si atom -5568.951261 kJ/mol
# Density = 1.798131 g / cm^3
# Si number density = 18.022332 Si / 1000 Ang^3
#
#
#
# Elastic Constant Matrix: (Units=GPa)
#
#
# Indices 1 2 3 4 5 6 
#
# 1 69.6535 42.8798 24.5161 0.0000 0.0000 0.0000
# 2 42.8798 145.1571 19.6024 0.0000 0.0000 0.0000
# 3 24.5161 19.6024 31.3880 0.0000 0.0000 0.0000
# 4 0.0000 0.0000 0.0000 10.6778 0.0000 0.0000
# 5 0.0000 0.0000 0.0000 0.0000 -2.3937 0.0000
# 6 0.0000 0.0000 0.0000 0.0000 0.0000 28.6431
#
#
#
# Elastic Compliance Matrix: (Units=1/GPa)
#
#
# Indices 1 2 3 4 5 6 
#
# 1 0.022328 -0.004631 -0.014547 0.000000 0.000000 0.000000
# 2 -0.004631 0.008484 -0.001681 0.000000 0.000000 0.000000
# 3 -0.014547 -0.001681 0.044272 0.000000 0.000000 0.000000
# 4 0.000000 0.000000 0.000000 0.093653 0.000000 0.000000
# 5 0.000000 0.000000 0.000000 0.000000 -0.417758 0.000000
# 6 0.000000 0.000000 0.000000 0.000000 0.000000 0.034912
#
#
# Mechanical properties :
#
#
# Convention : Reuss Voigt Hill
#
# Bulk Modulus (GPa) = 29.97219 46.68837 38.33028
# Shear Modulus (GPa) = -31.00434 17.99878 -6.50278
#
# Velocity S-wave (km/s) = -4.15218 3.16364 -1.90158
# Velocity P-wave (km/s) = 2.51413 6.26952 4.06116
#
# Compressibility (1/GPa) = 0.03336426
#
# Stress axis : x y z
#
# Youngs Moduli (GPa) = 44.78655 117.86592 22.58776
#
# Poissons Ratio (x) = 0.54587 0.32859
# Poissons Ratio (y) = 0.20742 0.03798
# Poissons Ratio (z) = 0.65153 0.19816
#
# Static dielectric constant tensor:
#      x y z
#    x 1.633520 0.000000 0.000000 
#    y 0.000000 1.652030 0.000000 
#    z 0.000000 0.000000 1.629980 
# 
# From -- ./inp_files/19518.got.cif
#   From: 2010.05.17/outbox.cif.g08.bks.cpg/sg40_10_cif.got.tgz:19518.got - 2010.06.03 18:35:42.
