data_PCOD9364314
_publ_section_title
;
Structure prediction by ZEFSAII (Michael W. Deem and Ramdas Pophale) SiO2 
 PCOD9364314
Probable space group: A M A 2
;
_chemical_formula_sum "Si O2"
_cell_formula_units_Z 36
_cell_length_a 14.761190
_cell_length_b 17.023396
_cell_length_c 7.999492
_cell_angle_alpha 90.000000
_cell_angle_beta 90.000000
_cell_angle_gamma 90.000000
_cell_volume 2010.157009
_symmetry_space_group_name_H-M "A M A 2"
_symmetry_group_IT_number 40
_symmetry_cell_setting 'orthorhombic'
loop_
_space_group_symop_operation_xyz
x,y,z
-x,-y,z
1/2-x,y,z
1/2+x,-y,z
x,1/2+y,1/2+z
-x,1/2-y,1/2+z
1/2-x,1/2+y,1/2+z
1/2+x,1/2-y,1/2+z
loop_
_atom_site_type_symbol
_atom_site_label
_atom_site_fract_x
_atom_site_fract_y
_atom_site_fract_z
Si Si1 0.500000 0.500000 0.318310
Si Si2 0.961383 0.313863 0.761838
Si Si3 0.144533 0.044460 0.096350
Si Si4 0.351142 0.380514 0.777089
Si Si5 0.048912 0.350128 0.097898
O O1 0.415949 0.521896 0.437426
O O2 0.476618 0.425199 0.205371
O O3 0.895997 0.377388 0.678801
O O4 0.064602 0.332787 0.699523
O O5 0.936267 0.226164 0.710982
O O6 0.971486 0.329086 0.959982
O O7 0.250000 0.054108 0.054578
O O8 0.136441 0.971034 0.224102
O O9 0.250000 0.355924 0.727969
O O10 0.367061 0.369500 0.975231
#
# Coordination Sequence:
#
# PCOD9364314 Si02
#       5
#     4   8   8   8   8
#     4  12  20  40  58  92 122 158 202 240 302 352
#     4  10  20  40  57  90 119 155 193 247 304 341
#     4  11  22  38  63  87 119 159 199 245 300 360
#     4   9  20  38  62  86 114 156 197 241 297 354
#     4  10  22  35  66  83 122 160 191 249 297 353
#
# _framework density 17.909049
#
# number of rings (size 3 to 8) (size 9 to 14) (size 15 to 20)
#    1.333    0.444    2.222    2.667    0.000    1.778 
#    0.000    2.222    0.000    0.000    0.000    0.000 
#    0.000    0.000    0.000    0.000    0.000    0.000 
#
# Total GULP energy -100253.019008 kJ/mol
# GULP energy per Si atom -5569.612167 kJ/mol
# Density = 1.786829 g / cm^3
# Si number density = 17.909049 Si / 1000 Ang^3
#
#
#
# Elastic Constant Matrix: (Units=GPa)
#
#
# Indices 1 2 3 4 5 6 
#
# 1 82.9620 9.3030 6.8153 0.0000 0.0000 0.0000
# 2 9.3030 90.3417 26.1102 0.0000 0.0000 0.0000
# 3 6.8153 26.1102 63.4367 0.0000 0.0000 0.0000
# 4 0.0000 0.0000 0.0000 35.4439 0.0000 0.0000
# 5 0.0000 0.0000 0.0000 0.0000 8.6337 0.0000
# 6 0.0000 0.0000 0.0000 0.0000 0.0000 11.2799
#
#
#
# Elastic Compliance Matrix: (Units=1/GPa)
#
#
# Indices 1 2 3 4 5 6 
#
# 1 0.012240 -0.000999 -0.000904 0.000000 0.000000 0.000000
# 2 -0.000999 0.012645 -0.005097 0.000000 0.000000 0.000000
# 3 -0.000904 -0.005097 0.017959 0.000000 0.000000 0.000000
# 4 0.000000 0.000000 0.000000 0.028214 0.000000 0.000000
# 5 0.000000 0.000000 0.000000 0.000000 0.115825 0.000000
# 6 0.000000 0.000000 0.000000 0.000000 0.000000 0.088654
#
#
# Mechanical properties :
#
#
# Convention : Reuss Voigt Hill
#
# Bulk Modulus (GPa) = 34.66989 35.68860 35.17924
# Shear Modulus (GPa) = 16.71396 24.03896 20.37646
#
# Velocity S-wave (km/s) = 3.05826 3.66769 3.37675
# Velocity P-wave (km/s) = 5.64548 6.15686 5.90671
#
# Compressibility (1/GPa) = 0.02884348
#
# Stress axis : x y z
#
# Youngs Moduli (GPa) = 81.69930 79.08135 55.68279
#
# Poissons Ratio (x) = 0.07902 0.05032
# Poissons Ratio (y) = 0.08164 0.28383
# Poissons Ratio (z) = 0.07383 0.40311
#
# Static dielectric constant tensor:
#      x y z
#    x 1.621370 0.000000 0.000000 
#    y 0.000000 1.581810 0.000000 
#    z 0.000000 0.000000 1.614280 
# 
# From -- ./inp_files/7248.got.cif
#   From: 2010.05.17/outbox.cif.g08.bks.cpg/sg40_4_cif.got.tgz:7248.got - 2010.06.03 18:35:42.
