data_PCOD9364767
_publ_section_title
;
Structure prediction by ZEFSAII (Michael W. Deem and Ramdas Pophale) SiO2 
 PCOD9364767
Probable space group: A M A 2
;
_chemical_formula_sum "Si O2"
_cell_formula_units_Z 64
_cell_length_a 18.498504
_cell_length_b 12.700251
_cell_length_c 15.009942
_cell_angle_alpha 90.000000
_cell_angle_beta 90.000000
_cell_angle_gamma 90.000000
_cell_volume 3526.370389
_symmetry_space_group_name_H-M "A M A 2"
_symmetry_group_IT_number 40
_symmetry_cell_setting 'orthorhombic'
loop_
_space_group_symop_operation_xyz
x,y,z
-x,-y,z
1/2-x,y,z
1/2+x,-y,z
x,1/2+y,1/2+z
-x,1/2-y,1/2+z
1/2-x,1/2+y,1/2+z
1/2+x,1/2-y,1/2+z
loop_
_atom_site_type_symbol
_atom_site_label
_atom_site_fract_x
_atom_site_fract_y
_atom_site_fract_z
Si Si1 0.477105 0.378286 0.080270
Si Si2 0.581440 0.541951 0.472237
Si Si3 0.441068 0.732634 0.244488
Si Si4 0.583684 0.035313 0.181136
Si Si5 0.664772 0.948047 0.810091
Si Si6 0.833339 0.144072 0.676266
Si Si7 0.165802 0.140500 0.289775
Si Si8 0.548149 0.273475 0.909957
O O1 0.500000 0.500000 0.084558
O O2 0.516133 0.316669 0.160999
O O3 0.391990 0.364412 0.098556
O O4 0.503186 0.329196 0.987672
O O5 0.500000 0.500000 0.457318
O O6 0.598976 0.528541 0.575906
O O7 0.634393 0.480565 0.406446
O O8 0.579967 0.664409 0.446757
O O9 0.410617 0.845573 0.215282
O O10 0.379838 0.650776 0.273895
O O11 0.496352 0.749194 0.326208
O O12 0.500000 0.000000 0.194548
O O13 0.635356 0.956922 0.233959
O O14 0.750000 0.927662 0.812962
O O15 0.652331 0.048100 0.744805
O O16 0.750000 0.136783 0.646456
O O17 0.841792 0.253429 0.730009
O O18 0.250000 0.128740 0.312266
O O19 0.114205 0.156391 0.374494
#
# Coordination Sequence:
#
# PCOD9364767 Si02
#       8
#     8   8   8   8   8   8   8   8
#     4  12  24  41  68  99 125 173 222 266 324 386
#     4  11  22  38  64  98 128 166 220 272 321 389
#     4  12  23  42  66  96 134 168 220 275 322 391
#     4  11  23  41  65  95 132 172 219 271 325 391
#     4  11  23  40  65  98 131 171 218 277 338 385
#     4  10  21  40  66  96 129 166 212 267 329 392
#     4  11  24  42  66  94 130 175 215 261 329 395
#     4  12  24  40  66  99 129 171 222 267 319 391
#
# _framework density 18.148973999999999
#
# number of rings (size 3 to 8) (size 9 to 14) (size 15 to 20)
#    0.000    0.750    7.500    0.000    3.500    1.000 
#    0.000    3.125    0.000    0.000    0.000    0.000 
#    0.000    0.000    0.000    0.000    0.000    0.000 
#
# Total GULP energy -178914.717795 kJ/mol
# GULP energy per Si atom -5591.084931 kJ/mol
# Density = 1.810767 g / cm^3
# Si number density = 18.148974 Si / 1000 Ang^3
#
#
#
# Elastic Constant Matrix: (Units=GPa)
#
#
# Indices 1 2 3 4 5 6 
#
# 1 112.2324 54.0655 61.5123 0.0000 0.0000 0.0000
# 2 54.0655 131.2105 50.3544 0.0000 0.0000 0.0000
# 3 61.5123 50.3544 104.0348 0.0000 0.0000 0.0000
# 4 0.0000 0.0000 0.0000 31.9507 0.0000 0.0000
# 5 0.0000 0.0000 0.0000 0.0000 9.6910 0.0000
# 6 0.0000 0.0000 0.0000 0.0000 0.0000 25.4897
#
#
#
# Elastic Compliance Matrix: (Units=1/GPa)
#
#
# Indices 1 2 3 4 5 6 
#
# 1 0.014217 -0.003233 -0.006841 0.000000 0.000000 0.000000
# 2 -0.003233 0.010095 -0.002975 0.000000 0.000000 0.000000
# 3 -0.006841 -0.002975 0.015097 0.000000 0.000000 0.000000
# 4 0.000000 0.000000 0.000000 0.031298 0.000000 0.000000
# 5 0.000000 0.000000 0.000000 0.000000 0.103189 0.000000
# 6 0.000000 0.000000 0.000000 0.000000 0.000000 0.039232
#
#
# Mechanical properties :
#
#
# Convention : Reuss Voigt Hill
#
# Bulk Modulus (GPa) = 75.12324 75.48248 75.30286
# Shear Modulus (GPa) = 20.52019 25.52930 23.02474
#
# Velocity S-wave (km/s) = 3.36617 3.75461 3.56568
# Velocity P-wave (km/s) = 7.52267 7.77669 7.65073
#
# Compressibility (1/GPa) = 0.01331146
#
# Stress axis : x y z
#
# Youngs Moduli (GPa) = 70.33862 99.05918 66.23798
#
# Poissons Ratio (x) = 0.32022 0.45316
# Poissons Ratio (y) = 0.22738 0.19704
# Poissons Ratio (z) = 0.48121 0.29468
#
# Static dielectric constant tensor:
#      x y z
#    x 1.609500 0.000000 0.000000 
#    y 0.000000 1.613820 0.000000 
#    z 0.000000 0.000000 1.600900 
# 
# From -- ./inp_files/17865.got.cif
#   From: 2010.05.17/outbox.cif.g08.bks.cpg/sg40_9_cif.got.tgz:17865.got - 2010.06.03 18:35:42.
