data_PCOD9364119
_publ_section_title
;
Structure prediction by ZEFSAII (Michael W. Deem and Ramdas Pophale) SiO2 
 PCOD9364119
Probable space group: A M A 2
;
_chemical_formula_sum "Si O2"
_cell_formula_units_Z 64
_cell_length_a 8.663023
_cell_length_b 14.405597
_cell_length_c 24.975509
_cell_angle_alpha 90.000000
_cell_angle_beta 90.000000
_cell_angle_gamma 90.000000
_cell_volume 3116.844074
_symmetry_space_group_name_H-M "A M A 2"
_symmetry_group_IT_number 40
_symmetry_cell_setting 'orthorhombic'
loop_
_space_group_symop_operation_xyz
x,y,z
-x,-y,z
1/2-x,y,z
1/2+x,-y,z
x,1/2+y,1/2+z
-x,1/2-y,1/2+z
1/2-x,1/2+y,1/2+z
1/2+x,1/2-y,1/2+z
loop_
_atom_site_type_symbol
_atom_site_label
_atom_site_fract_x
_atom_site_fract_y
_atom_site_fract_z
Si Si1 0.435566 0.604744 0.439530
Si Si2 0.433099 0.279441 0.340689
Si Si3 0.436255 0.394923 0.126975
Si Si4 0.564715 0.394753 0.557225
Si Si5 0.064048 0.895184 0.510299
Si Si6 0.435597 0.896095 0.391641
Si Si7 0.065534 0.216150 0.727713
Si Si8 0.934010 0.602895 0.669313
O O1 0.500000 0.500000 0.437345
O O2 0.250000 0.602970 0.436570
O O3 0.500885 0.660959 0.389795
O O4 0.475715 0.645354 0.498735
O O5 0.250000 0.280631 0.342288
O O6 0.496037 0.175473 0.349584
O O7 0.492165 0.314663 0.283442
O O8 0.500000 0.500000 0.128426
O O9 0.250000 0.395185 0.130280
O O10 0.480919 0.354123 0.068052
O O11 0.505507 0.341356 0.177102
O O12 0.500000 0.500000 0.555539
O O13 0.750000 0.395140 0.561615
O O14 0.496351 0.358009 0.612570
O O15 0.250000 0.896992 0.510128
O O16 0.018590 0.859826 0.451516
O O17 0.000000 0.000000 0.511042
O O18 0.250000 0.897396 0.388211
O O19 0.500000 0.000000 0.385525
O O20 0.250000 0.208756 0.730970
O O21 0.024509 0.323395 0.714845
O O22 0.750000 0.596074 0.665661
O O23 0.000000 0.500000 0.677926
#
# Coordination Sequence:
#
# PCOD9364119 Si02
#       8
#     8   8   8   8   8   8   8   8
#     4  10  21  39  62  89 120 154 190 235 288 344
#     4  12  26  42  60  84 113 152 200 247 291 342
#     4  10  20  37  61  89 119 152 189 233 284 341
#     4   9  17  31  56  87 119 151 185 227 280 341
#     4   8  16  31  55  86 118 149 184 226 279 340
#     4  10  20  38  62  89 121 156 192 236 288 343
#     4  11  25  43  59  81 113 151 197 246 289 339
#     4  10  21  37  60  87 117 151 188 234 287 340
#
# _framework density 20.533591999999999
#
# number of rings (size 3 to 8) (size 9 to 14) (size 15 to 20)
#    0.000    2.000    0.000    4.125    0.000    6.500 
#    0.000    7.500    0.000    0.000    0.000    0.000 
#    0.000    0.000    0.000    0.000    0.000    0.000 
#
# Total GULP energy -178688.860186 kJ/mol
# GULP energy per Si atom -5584.026881 kJ/mol
# Density = 2.048686 g / cm^3
# Si number density = 20.533592 Si / 1000 Ang^3
#
#
#
# Elastic Constant Matrix: (Units=GPa)
#
#
# Indices 1 2 3 4 5 6 
#
# 1 65.6953 9.3600 28.0486 0.0000 0.0000 0.0000
# 2 9.3600 41.6058 9.5686 0.0000 0.0000 0.0000
# 3 28.0486 9.5686 107.6529 0.0000 0.0000 0.0000
# 4 0.0000 0.0000 0.0000 33.7243 0.0000 0.0000
# 5 0.0000 0.0000 0.0000 0.0000 39.0538 0.0000
# 6 0.0000 0.0000 0.0000 0.0000 0.0000 22.0770
#
#
#
# Elastic Compliance Matrix: (Units=1/GPa)
#
#
# Indices 1 2 3 4 5 6 
#
# 1 0.017473 -0.002944 -0.004291 0.000000 0.000000 0.000000
# 2 -0.002944 0.025033 -0.001458 0.000000 0.000000 0.000000
# 3 -0.004291 -0.001458 0.010537 0.000000 0.000000 0.000000
# 4 0.000000 0.000000 0.000000 0.029652 0.000000 0.000000
# 5 0.000000 0.000000 0.000000 0.000000 0.025606 0.000000
# 6 0.000000 0.000000 0.000000 0.000000 0.000000 0.045296
#
#
# Mechanical properties :
#
#
# Convention : Reuss Voigt Hill
#
# Bulk Modulus (GPa) = 28.04513 34.32314 31.18413
# Shear Modulus (GPa) = 27.34211 30.16947 28.75579
#
# Velocity S-wave (km/s) = 3.65304 3.83727 3.74629
# Velocity P-wave (km/s) = 5.61077 6.03198 5.82518
#
# Compressibility (1/GPa) = 0.03565682
#
# Stress axis : x y z
#
# Youngs Moduli (GPa) = 57.23038 39.94769 94.90659
#
# Poissons Ratio (x) = 0.11761 0.40724
# Poissons Ratio (y) = 0.16849 0.13837
# Poissons Ratio (z) = 0.24557 0.05824
#
# Static dielectric constant tensor:
#      x y z
#    x 1.688120 0.000000 0.000000 
#    y 0.000000 1.731070 0.000000 
#    z 0.000000 0.000000 1.749240 
# 
# From -- ./inp_files/24239.got.cif
#   From: 2010.05.17/outbox.cif.g08.bks.cpg/sg40_13_cif.got.tgz:24239.got - 2010.06.03 18:35:42.
