data_PCOD9364553
_publ_section_title
;
Structure prediction by ZEFSAII (Michael W. Deem and Ramdas Pophale) SiO2 
 PCOD9364553
Probable space group: A M A 2
;
_chemical_formula_sum "Si O2"
_cell_formula_units_Z 56
_cell_length_a 14.238646
_cell_length_b 15.384894
_cell_length_c 12.998277
_cell_angle_alpha 90.000000
_cell_angle_beta 90.000000
_cell_angle_gamma 90.000000
_cell_volume 2847.403332
_symmetry_space_group_name_H-M "A M A 2"
_symmetry_group_IT_number 40
_symmetry_cell_setting 'orthorhombic'
loop_
_space_group_symop_operation_xyz
x,y,z
-x,-y,z
1/2-x,y,z
1/2+x,-y,z
x,1/2+y,1/2+z
-x,1/2-y,1/2+z
1/2-x,1/2+y,1/2+z
1/2+x,1/2-y,1/2+z
loop_
_atom_site_type_symbol
_atom_site_label
_atom_site_fract_x
_atom_site_fract_y
_atom_site_fract_z
Si Si1 0.642938 0.425133 0.343220
Si Si2 0.361704 0.055121 0.207913
Si Si3 0.000000 0.500000 0.878106
Si Si4 0.857236 0.062313 0.022119
Si Si5 0.857420 0.748554 0.194495
Si Si6 0.521939 0.701007 0.396221
Si Si7 0.000000 0.500000 0.191531
Si Si8 0.545266 0.640427 0.030811
O O1 0.750000 0.405169 0.312500
O O2 0.645412 0.477744 0.449528
O O3 0.576339 0.342167 0.360253
O O4 0.590763 0.490763 0.264162
O O5 0.250000 0.047251 0.229039
O O6 0.376213 0.151515 0.162338
O O7 0.426356 0.050218 0.307430
O O8 0.387483 0.975753 0.132144
O O9 0.061594 0.434463 0.947108
O O10 0.750000 0.095957 0.029660
O O11 0.923477 0.130934 0.966406
O O12 0.750000 0.741858 0.228580
O O13 0.921427 0.722937 0.291887
O O14 0.874410 0.688109 0.095671
O O15 0.508009 0.784905 0.467963
O O16 0.005813 0.584987 0.120187
#
# Coordination Sequence:
#
# PCOD9364553 Si02
#       8
#     8   8   4   8   8   8   4   8
#     4  11  22  40  67  98 130 166 216 271 316 379
#     4  10  23  42  65  96 129 169 215 260 321 388
#     4  11  24  43  66  90 134 171 212 261 324 386
#     4  10  21  37  64  97 127 169 216 264 324 381
#     4  11  23  43  69  96 128 169 218 268 323 390
#     4  12  22  40  67  99 132 163 216 274 323 377
#     4  11  22  45  62  92 130 175 218 253 324 390
#     4  11  25  40  65  95 128 169 214 261 323 382
#
# _framework density 19.66704
#
# number of rings (size 3 to 8) (size 9 to 14) (size 15 to 20)
#    0.000    1.143    4.286    1.286    4.000    4.000 
#    0.000    3.571    0.000    0.000    0.000    0.000 
#    0.000    0.000    0.000    0.000    0.000    0.000 
#
# Total GULP energy -156203.368123 kJ/mol
# GULP energy per Si atom -5578.691719 kJ/mol
# Density = 1.962228 g / cm^3
# Si number density = 19.667040 Si / 1000 Ang^3
#
#
#
# Elastic Constant Matrix: (Units=GPa)
#
#
# Indices 1 2 3 4 5 6 
#
# 1 100.7133 42.4450 35.8361 0.0000 0.0000 0.0000
# 2 42.4450 98.1865 33.5763 0.0000 0.0000 0.0000
# 3 35.8361 33.5763 87.0904 0.0000 0.0000 0.0000
# 4 0.0000 0.0000 0.0000 33.0060 0.0000 0.0000
# 5 0.0000 0.0000 0.0000 0.0000 14.9868 0.0000
# 6 0.0000 0.0000 0.0000 0.0000 0.0000 19.0900
#
#
#
# Elastic Compliance Matrix: (Units=1/GPa)
#
#
# Indices 1 2 3 4 5 6 
#
# 1 0.013097 -0.004399 -0.003693 0.000000 0.000000 0.000000
# 2 -0.004399 0.013209 -0.003282 0.000000 0.000000 0.000000
# 3 -0.003693 -0.003282 0.014268 0.000000 0.000000 0.000000
# 4 0.000000 0.000000 0.000000 0.030298 0.000000 0.000000
# 5 0.000000 0.000000 0.000000 0.000000 0.066725 0.000000
# 6 0.000000 0.000000 0.000000 0.000000 0.000000 0.052383
#
#
# Mechanical properties :
#
#
# Convention : Reuss Voigt Hill
#
# Bulk Modulus (GPa) = 56.10297 56.63389 56.36843
# Shear Modulus (GPa) = 22.86548 25.02542 23.94545
#
# Velocity S-wave (km/s) = 3.41343 3.57102 3.49312
# Velocity P-wave (km/s) = 6.64257 6.77213 6.70766
#
# Compressibility (1/GPa) = 0.01782437
#
# Stress axis : x y z
#
# Youngs Moduli (GPa) = 76.35220 75.70767 70.08911
#
# Poissons Ratio (x) = 0.33302 0.25887
# Poissons Ratio (y) = 0.33586 0.23006
# Poissons Ratio (z) = 0.28200 0.24850
#
# Static dielectric constant tensor:
#      x y z
#    x 1.680220 0.000000 0.000000 
#    y 0.000000 1.701570 0.000000 
#    z 0.000000 0.000000 1.690300 
# 
# From -- ./inp_files/12259.got.cif
#   From: 2010.05.17/outbox.cif.g08.bks.cpg/sg40_7_cif.got.tgz:12259.got - 2010.06.03 18:35:42.
