data_PCOD9364129
_publ_section_title
;
Structure prediction by ZEFSAII (Michael W. Deem and Ramdas Pophale) SiO2 
 PCOD9364129
Probable space group: A M A 2
;
_chemical_formula_sum "Si O2"
_cell_formula_units_Z 56
_cell_length_a 17.785901
_cell_length_b 16.631468
_cell_length_c 7.628709
_cell_angle_alpha 90.000000
_cell_angle_beta 90.000000
_cell_angle_gamma 90.000000
_cell_volume 2256.615174
_symmetry_space_group_name_H-M "A M A 2"
_symmetry_group_IT_number 40
_symmetry_cell_setting 'orthorhombic'
loop_
_space_group_symop_operation_xyz
x,y,z
-x,-y,z
1/2-x,y,z
1/2+x,-y,z
x,1/2+y,1/2+z
-x,1/2-y,1/2+z
1/2-x,1/2+y,1/2+z
1/2+x,1/2-y,1/2+z
loop_
_atom_site_type_symbol
_atom_site_label
_atom_site_fract_x
_atom_site_fract_y
_atom_site_fract_z
Si Si1 0.097960 0.758470 0.223810
Si Si2 0.926417 0.046272 0.731793
Si Si3 0.336010 0.036139 0.242366
Si Si4 0.048364 0.419401 0.639900
Si Si5 0.336906 0.600554 0.343849
Si Si6 0.334226 0.321101 0.059295
Si Si7 0.660484 0.301498 0.869805
O O1 0.099052 0.666183 0.293739
O O2 0.157734 0.792583 0.361776
O O3 0.034226 0.828792 0.210464
O O4 0.125052 0.748604 0.025868
O O5 0.859625 0.981510 0.748453
O O6 0.898148 0.116201 0.608604
O O7 0.943611 0.079276 0.928546
O O8 0.000000 0.000000 0.668591
O O9 0.250000 0.024413 0.291511
O O10 0.374261 0.950629 0.224633
O O11 0.369031 0.106993 0.362743
O O12 0.339693 0.076679 0.048549
O O13 0.000000 0.500000 0.679273
O O14 0.250000 0.624877 0.304387
O O15 0.250000 0.350942 0.096854
O O16 0.347961 0.245279 0.187588
O O17 0.750000 0.306742 0.899655
#
# Coordination Sequence:
#
# PCOD9364129 Si02
#       7
#     8   8   8   8   8   8   8
#     4  12  23  39  65  97 131 166 214 273 325 387
#     4  10  22  44  65  92 134 180 221 265 334 396
#     4   9  19  38  63  89 130 174 211 266 334 388
#     4  10  23  43  63  96 133 172 224 272 322 400
#     4  10  20  38  63  97 131 166 216 277 328 387
#     4  11  22  39  65  98 128 166 215 270 324 385
#     4  10  20  37  61  95 128 160 205 265 323 380
#
# _framework density 24.815928
#
# number of rings (size 3 to 8) (size 9 to 14) (size 15 to 20)
#    0.000    1.714    2.857    1.714    0.000    4.000 
#    2.571    1.429    0.000    0.000    0.000    0.000 
#    0.000    0.000    0.000    0.000    0.000    0.000 
#
# Total GULP energy -156400.117736 kJ/mol
# GULP energy per Si atom -5585.718491 kJ/mol
# Density = 2.475945 g / cm^3
# Si number density = 24.815928 Si / 1000 Ang^3
#
#
#
# Elastic Constant Matrix: (Units=GPa)
#
#
# Indices 1 2 3 4 5 6 
#
# 1 38.9214 1.3003 6.5026 0.0000 0.0000 0.0000
# 2 1.3003 78.9544 18.9574 0.0000 0.0000 0.0000
# 3 6.5026 18.9574 78.0091 0.0000 0.0000 0.0000
# 4 0.0000 0.0000 0.0000 37.8663 0.0000 0.0000
# 5 0.0000 0.0000 0.0000 0.0000 8.9288 0.0000
# 6 0.0000 0.0000 0.0000 0.0000 0.0000 30.8572
#
#
#
# Elastic Compliance Matrix: (Units=1/GPa)
#
#
# Indices 1 2 3 4 5 6 
#
# 1 0.026056 0.000098 -0.002196 0.000000 0.000000 0.000000
# 2 0.000098 0.013451 -0.003277 0.000000 0.000000 0.000000
# 3 -0.002196 -0.003277 0.013798 0.000000 0.000000 0.000000
# 4 0.000000 0.000000 0.000000 0.026409 0.000000 0.000000
# 5 0.000000 0.000000 0.000000 0.000000 0.111997 0.000000
# 6 0.000000 0.000000 0.000000 0.000000 0.000000 0.032407
#
#
# Mechanical properties :
#
#
# Convention : Reuss Voigt Hill
#
# Bulk Modulus (GPa) = 23.49830 27.71172 25.60501
# Shear Modulus (GPa) = 20.07600 26.80541 23.44070
#
# Velocity S-wave (km/s) = 2.84737 3.29016 3.07674
# Velocity P-wave (km/s) = 4.50551 5.06208 4.79188
#
# Compressibility (1/GPa) = 0.04255626
#
# Stress axis : x y z
#
# Youngs Moduli (GPa) = 38.37826 74.34543 72.47224
#
# Poissons Ratio (x) = -0.00729 0.15914
# Poissons Ratio (y) = -0.00376 0.23748
# Poissons Ratio (z) = 0.08427 0.24362
#
# Static dielectric constant tensor:
#      x y z
#    x 2.023720 0.000000 0.000000 
#    y 0.000000 1.980400 0.000000 
#    z 0.000000 0.000000 1.958760 
# 
# From -- ./inp_files/8328.got.cif
#   From: 2010.05.17/outbox.cif.g08.bks.cpg/sg40_5_cif.got.tgz:8328.got - 2010.06.03 18:35:42.
