data_PCOD9364426
_publ_section_title
;
Structure prediction by ZEFSAII (Michael W. Deem and Ramdas Pophale) SiO2 
 PCOD9364426
Probable space group: A M A 2
;
_chemical_formula_sum "Si O2"
_cell_formula_units_Z 48
_cell_length_a 7.397924
_cell_length_b 23.296175
_cell_length_c 12.320800
_cell_angle_alpha 90.000000
_cell_angle_beta 90.000000
_cell_angle_gamma 90.000000
_cell_volume 2123.407727
_symmetry_space_group_name_H-M "A M A 2"
_symmetry_group_IT_number 40
_symmetry_cell_setting 'orthorhombic'
loop_
_space_group_symop_operation_xyz
x,y,z
-x,-y,z
1/2-x,y,z
1/2+x,-y,z
x,1/2+y,1/2+z
-x,1/2-y,1/2+z
1/2-x,1/2+y,1/2+z
1/2+x,1/2-y,1/2+z
loop_
_atom_site_type_symbol
_atom_site_label
_atom_site_fract_x
_atom_site_fract_y
_atom_site_fract_z
Si Si1 0.542592 0.636837 0.152800
Si Si2 0.968859 0.239074 0.088429
Si Si3 0.533034 0.067445 0.456442
Si Si4 0.964091 0.566222 0.556126
Si Si5 0.470219 0.842045 0.891472
Si Si6 0.470188 0.857045 0.254537
O O1 0.750000 0.619564 0.174782
O O2 0.539097 0.696689 0.088463
O O3 0.461595 0.654262 0.269061
O O4 0.464031 0.587927 0.074524
O O5 0.750000 0.239946 0.089029
O O6 0.025079 0.203378 0.197570
O O7 0.026655 0.206390 0.978263
O O8 0.750000 0.073258 0.458057
O O9 0.468065 0.114214 0.367115
O O10 0.500000 0.000000 0.432063
O O11 0.750000 0.575444 0.558908
O O12 0.026707 0.599133 0.449941
O O13 0.031007 0.597165 0.663783
O O14 0.000000 0.500000 0.555386
O O15 0.250000 0.837035 0.887198
O O16 0.250000 0.854668 0.259892
#
# Coordination Sequence:
#
# PCOD9364426 Si02
#       6
#     8   8   8   8   8   8
#     4  10  21  35  52  75 105 137 168 212 264 308
#     4   9  18  34  56  76  99 133 175 213 255 314
#     4  10  21  36  53  75 106 141 176 214 259 310
#     4   9  16  29  50  71  95 128 165 204 247 295
#     4   8  17  34  50  69 100 136 165 198 256 315
#     4   8  16  32  52  74 100 133 168 209 259 304
#
# _framework density 22.605170999999999
#
# number of rings (size 3 to 8) (size 9 to 14) (size 15 to 20)
#    0.000    3.000    0.000    2.500    2.333    1.333 
#    0.000    5.000    0.000    0.000    0.000    0.000 
#    0.000    0.000    0.000    0.000    0.000    0.000 
#
# Total GULP energy -133790.635002 kJ/mol
# GULP energy per Si atom -5574.609792 kJ/mol
# Density = 2.255372 g / cm^3
# Si number density = 22.605171 Si / 1000 Ang^3
#
#
#
# Elastic Constant Matrix: (Units=GPa)
#
#
# Indices 1 2 3 4 5 6 
#
# 1 75.1359 -13.1914 6.0416 0.0000 0.0000 0.0000
# 2 -13.1914 57.1229 12.2436 0.0000 0.0000 0.0000
# 3 6.0416 12.2436 117.3784 0.0000 0.0000 0.0000
# 4 0.0000 0.0000 0.0000 16.8520 0.0000 0.0000
# 5 0.0000 0.0000 0.0000 0.0000 -1.6633 0.0000
# 6 0.0000 0.0000 0.0000 0.0000 0.0000 18.8761
#
#
#
# Elastic Compliance Matrix: (Units=1/GPa)
#
#
# Indices 1 2 3 4 5 6 
#
# 1 0.014005 0.003466 -0.001082 0.000000 0.000000 0.000000
# 2 0.003466 0.018764 -0.002136 0.000000 0.000000 0.000000
# 3 -0.001082 -0.002136 0.008798 0.000000 0.000000 0.000000
# 4 0.000000 0.000000 0.000000 0.059340 0.000000 0.000000
# 5 0.000000 0.000000 0.000000 0.000000 -0.601212 0.000000
# 6 0.000000 0.000000 0.000000 0.000000 0.000000 0.052977
#
#
# Mechanical properties :
#
#
# Convention : Reuss Voigt Hill
#
# Bulk Modulus (GPa) = 23.77378 28.86941 26.32160
# Shear Modulus (GPa) = -11.52597 23.11586 5.79495
#
# Velocity S-wave (km/s) = -2.26051 3.20127 1.60285
# Velocity P-wave (km/s) = 1.93044 5.14422 3.88521
#
# Compressibility (1/GPa) = 0.04206315
#
# Stress axis : x y z
#
# Youngs Moduli (GPa) = 71.40416 53.29264 113.66300
#
# Poissons Ratio (x) = -0.18472 0.12303
# Poissons Ratio (y) = -0.24750 0.24275
# Poissons Ratio (z) = 0.07729 0.11382
#
# Static dielectric constant tensor:
#      x y z
#    x 1.866610 0.000000 0.000000 
#    y 0.000000 1.755350 0.000000 
#    z 0.000000 0.000000 1.872720 
# 
# From -- ./inp_files/10230.got.cif
#   From: 2010.05.17/outbox.cif.g08.bks.cpg/sg40_6_cif.got.tgz:10230.got - 2010.06.03 18:35:42.
