data_PCOD9364208
_publ_section_title
;
Structure prediction by ZEFSAII (Michael W. Deem and Ramdas Pophale) SiO2 
 PCOD9364208
Probable space group: A M A 2
;
_chemical_formula_sum "Si O2"
_cell_formula_units_Z 48
_cell_length_a 8.727750
_cell_length_b 31.417680
_cell_length_c 9.238666
_cell_angle_alpha 90.000000
_cell_angle_beta 90.000000
_cell_angle_gamma 90.000000
_cell_volume 2533.294477
_symmetry_space_group_name_H-M "A M A 2"
_symmetry_group_IT_number 40
_symmetry_cell_setting 'orthorhombic'
loop_
_space_group_symop_operation_xyz
x,y,z
-x,-y,z
1/2-x,y,z
1/2+x,-y,z
x,1/2+y,1/2+z
-x,1/2-y,1/2+z
1/2-x,1/2+y,1/2+z
1/2+x,1/2-y,1/2+z
loop_
_atom_site_type_symbol
_atom_site_label
_atom_site_fract_x
_atom_site_fract_y
_atom_site_fract_z
Si Si1 0.433048 0.126913 0.950890
Si Si2 0.933366 0.292020 0.952865
Si Si3 0.566651 0.706155 0.274351
Si Si4 0.933892 0.045676 0.448186
Si Si5 0.934630 0.129283 0.272561
Si Si6 0.065784 0.953822 0.785783
O O1 0.250000 0.126663 0.952824
O O2 0.493209 0.165785 0.853586
O O3 0.496043 0.083318 0.882381
O O4 0.497404 0.132095 0.112467
O O5 0.750000 0.297088 0.959751
O O6 0.967022 0.248709 0.865617
O O7 0.005946 0.331685 0.868512
O O8 0.001127 0.289578 0.113417
O O9 0.750000 0.700566 0.268099
O O10 0.750000 0.043174 0.442900
O O11 0.982478 0.084990 0.348811
O O12 0.976423 0.053436 0.616475
O O13 0.000000 0.000000 0.403742
O O14 0.750000 0.130423 0.266012
O O15 0.250000 0.953761 0.797182
O O16 0.000000 0.000000 0.826468
#
# Coordination Sequence:
#
# PCOD9364208 Si02
#       6
#     8   8   8   8   8   8
#     4  12  25  40  60  88 121 159 204 252 302 358
#     4  11  24  41  64  93 122 156 200 247 297 357
#     4  11  24  42  64  90 122 159 198 244 300 360
#     4   9  20  37  60  87 115 151 194 241 293 352
#     4  11  23  40  61  87 122 161 200 246 302 360
#     4  10  20  38  62  89 120 156 200 248 303 363
#
# _framework density 18.947658000000001
#
# number of rings (size 3 to 8) (size 9 to 14) (size 15 to 20)
#    0.000    1.333    0.000    5.500    0.000    9.333 
#    0.000    1.667    0.000    0.000    0.000    0.000 
#    0.000    0.000    0.000    0.000    0.000    0.000 
#
# Total GULP energy -134262.331837 kJ/mol
# GULP energy per Si atom -5594.263827 kJ/mol
# Density = 1.890453 g / cm^3
# Si number density = 18.947658 Si / 1000 Ang^3
#
#
#
# Elastic Constant Matrix: (Units=GPa)
#
#
# Indices 1 2 3 4 5 6 
#
# 1 94.8664 87.5470 78.7982 0.0000 0.0000 0.0000
# 2 87.5470 172.6498 119.8982 0.0000 0.0000 0.0000
# 3 78.7982 119.8982 178.6834 0.0000 0.0000 0.0000
# 4 0.0000 0.0000 0.0000 35.5470 0.0000 0.0000
# 5 0.0000 0.0000 0.0000 0.0000 32.5091 0.0000
# 6 0.0000 0.0000 0.0000 0.0000 0.0000 31.6417
#
#
#
# Elastic Compliance Matrix: (Units=1/GPa)
#
#
# Indices 1 2 3 4 5 6 
#
# 1 0.021242 -0.007988 -0.004007 0.000000 0.000000 0.000000
# 2 -0.007988 0.013851 -0.005771 0.000000 0.000000 0.000000
# 3 -0.004007 -0.005771 0.011236 0.000000 0.000000 0.000000
# 4 0.000000 0.000000 0.000000 0.028132 0.000000 0.000000
# 5 0.000000 0.000000 0.000000 0.000000 0.030761 0.000000
# 6 0.000000 0.000000 0.000000 0.000000 0.000000 0.031604
#
#
# Mechanical properties :
#
#
# Convention : Reuss Voigt Hill
#
# Bulk Modulus (GPa) = 92.63460 113.18737 102.91099
# Shear Modulus (GPa) = 28.41624 30.60331 29.50978
#
# Velocity S-wave (km/s) = 3.87683 4.02325 3.95072
# Velocity P-wave (km/s) = 8.30877 9.02489 8.67422
#
# Compressibility (1/GPa) = 0.01079510
#
# Stress axis : x y z
#
# Youngs Moduli (GPa) = 47.07750 72.19938 88.99951
#
# Poissons Ratio (x) = 0.57675 0.35663
# Poissons Ratio (y) = 0.37607 0.51362
# Poissons Ratio (z) = 0.18865 0.41666
#
# Static dielectric constant tensor:
#      x y z
#    x 1.634760 0.000000 0.000000 
#    y 0.000000 1.626790 0.000000 
#    z 0.000000 0.000000 1.627670 
# 
# From -- ./inp_files/4614.got.cif
#   From: 2010.05.17/outbox.cif.g08.bks.cpg/sg40_3_cif.got.tgz:4614.got - 2010.06.03 18:35:42.
