data_PCOD9364221
_publ_section_title
;
Structure prediction by ZEFSAII (Michael W. Deem and Ramdas Pophale) SiO2 
 PCOD9364221
Probable space group: A M A 2
;
_chemical_formula_sum "Si O2"
_cell_formula_units_Z 64
_cell_length_a 18.638136
_cell_length_b 16.028042
_cell_length_c 11.999788
_cell_angle_alpha 90.000000
_cell_angle_beta 90.000000
_cell_angle_gamma 90.000000
_cell_volume 3584.730588
_symmetry_space_group_name_H-M "A M A 2"
_symmetry_group_IT_number 40
_symmetry_cell_setting 'orthorhombic'
loop_
_space_group_symop_operation_xyz
x,y,z
-x,-y,z
1/2-x,y,z
1/2+x,-y,z
x,1/2+y,1/2+z
-x,1/2-y,1/2+z
1/2-x,1/2+y,1/2+z
1/2+x,1/2-y,1/2+z
loop_
_atom_site_type_symbol
_atom_site_label
_atom_site_fract_x
_atom_site_fract_y
_atom_site_fract_z
Si Si1 0.902746 0.730010 0.254650
Si Si2 0.335116 0.094238 0.272583
Si Si3 0.438738 0.877088 0.537647
Si Si4 0.833957 0.150255 0.968405
Si Si5 0.058005 0.303437 0.799708
Si Si6 0.331204 0.706273 0.154394
Si Si7 0.424423 0.459662 0.632844
Si Si8 0.395775 0.565623 0.021158
O O1 0.854283 0.811848 0.235798
O O2 0.918422 0.678413 0.143227
O O3 0.865610 0.673922 0.348940
O O4 0.978952 0.764351 0.299073
O O5 0.250000 0.080588 0.271559
O O6 0.365326 0.082486 0.397872
O O7 0.376065 0.028385 0.194690
O O8 0.420341 0.830492 0.423097
O O9 0.524104 0.896242 0.531928
O O10 0.401135 0.967159 0.540768
O O11 0.750000 0.127529 0.962066
O O12 0.838964 0.232628 0.047049
O O13 0.880793 0.080813 0.031282
O O14 0.112933 0.238613 0.745030
O O15 0.058863 0.385803 0.721552
O O16 0.250000 0.714152 0.194954
O O17 0.348183 0.614382 0.110571
O O18 0.500000 0.500000 0.598778
#
# Coordination Sequence:
#
# PCOD9364221 Si02
#       8
#     8   8   8   8   8   8   8   8
#     4  12  23  39  64  90 126 169 205 254 312 377
#     4  12  23  39  66  95 124 162 207 259 315 369
#     4  11  23  39  63  95 125 159 209 266 307 363
#     4  10  22  40  62  91 127 163 206 257 310 375
#     4  11  21  38  62  94 128 159 210 265 310 364
#     4  10  20  38  63  91 123 164 208 253 310 373
#     4  11  21  39  64  97 124 159 210 264 312 359
#     4  11  20  39  63  93 124 157 211 259 307 367
#
# _framework density 17.853503
#
# number of rings (size 3 to 8) (size 9 to 14) (size 15 to 20)
#    0.000    1.000    6.250    1.125    1.750    0.500 
#    2.250    5.000    0.000    0.000    0.000    0.000 
#    0.000    0.000    0.000    0.000    0.000    0.000 
#
# Total GULP energy -178830.747879 kJ/mol
# GULP energy per Si atom -5588.460871 kJ/mol
# Density = 1.781287 g / cm^3
# Si number density = 17.853503 Si / 1000 Ang^3
#
#
#
# Elastic Constant Matrix: (Units=GPa)
#
#
# Indices 1 2 3 4 5 6 
#
# 1 133.1623 57.7683 51.3150 0.0000 0.0000 0.0000
# 2 57.7683 105.7378 63.9293 0.0000 0.0000 0.0000
# 3 51.3150 63.9293 96.3457 0.0000 0.0000 0.0000
# 4 0.0000 0.0000 0.0000 29.5948 0.0000 0.0000
# 5 0.0000 0.0000 0.0000 0.0000 24.9832 0.0000
# 6 0.0000 0.0000 0.0000 0.0000 0.0000 24.2865
#
#
#
# Elastic Compliance Matrix: (Units=1/GPa)
#
#
# Indices 1 2 3 4 5 6 
#
# 1 0.010315 -0.003864 -0.002930 0.000000 0.000000 0.000000
# 2 -0.003864 0.017241 -0.009382 0.000000 0.000000 0.000000
# 3 -0.002930 -0.009382 0.018165 0.000000 0.000000 0.000000
# 4 0.000000 0.000000 0.000000 0.033790 0.000000 0.000000
# 5 0.000000 0.000000 0.000000 0.000000 0.040027 0.000000
# 6 0.000000 0.000000 0.000000 0.000000 0.000000 0.041175
#
#
# Mechanical properties :
#
#
# Convention : Reuss Voigt Hill
#
# Bulk Modulus (GPa) = 74.79951 75.69676 75.24814
# Shear Modulus (GPa) = 25.31382 26.58845 25.95113
#
# Velocity S-wave (km/s) = 3.76954 3.86328 3.81669
# Velocity P-wave (km/s) = 7.80597 7.89878 7.85251
#
# Compressibility (1/GPa) = 0.01336907
#
# Stress axis : x y z
#
# Youngs Moduli (GPa) = 96.94634 58.00238 55.05054
#
# Poissons Ratio (x) = 0.22412 0.16130
# Poissons Ratio (y) = 0.37460 0.51648
# Poissons Ratio (z) = 0.28405 0.54417
#
# Static dielectric constant tensor:
#      x y z
#    x 1.606900 0.000000 0.000000 
#    y 0.000000 1.605260 0.000000 
#    z 0.000000 0.000000 1.577030 
# 
# From -- ./inp_files/13135.got.cif
#   From: 2010.05.17/outbox.cif.g08.bks.cpg/sg40_7_cif.got.tgz:13135.got - 2010.06.03 18:35:42.
