data_PCOD9364481
_publ_section_title
;
Structure prediction by ZEFSAII (Michael W. Deem and Ramdas Pophale) SiO2 
 PCOD9364481
Probable space group: A M A 2
;
_chemical_formula_sum "Si O2"
_cell_formula_units_Z 48
_cell_length_a 23.915800
_cell_length_b 10.061438
_cell_length_c 10.098772
_cell_angle_alpha 90.000000
_cell_angle_beta 90.000000
_cell_angle_gamma 90.000000
_cell_volume 2430.040633
_symmetry_space_group_name_H-M "A M A 2"
_symmetry_group_IT_number 40
_symmetry_cell_setting 'orthorhombic'
loop_
_space_group_symop_operation_xyz
x,y,z
-x,-y,z
1/2-x,y,z
1/2+x,-y,z
x,1/2+y,1/2+z
-x,1/2-y,1/2+z
1/2-x,1/2+y,1/2+z
1/2+x,1/2-y,1/2+z
loop_
_atom_site_type_symbol
_atom_site_label
_atom_site_fract_x
_atom_site_fract_y
_atom_site_fract_z
Si Si1 0.508969 0.343106 0.142260
Si Si2 0.848050 0.447555 0.941545
Si Si3 0.186599 0.019997 0.152530
Si Si4 0.028781 0.635277 0.847042
Si Si5 0.361703 0.237802 0.671883
Si Si6 0.182897 0.759825 0.463631
O O1 0.500000 0.500000 0.166653
O O2 0.473020 0.249941 0.238245
O O3 0.573330 0.302996 0.172038
O O4 0.498747 0.321855 0.984950
O O5 0.812628 0.443743 0.807578
O O6 0.909472 0.404994 0.893062
O O7 0.846070 0.599097 0.991483
O O8 0.832061 0.350288 0.059873
O O9 0.250000 0.983545 0.112265
O O10 0.146928 0.892768 0.138185
O O11 0.168011 0.145145 0.066636
O O12 0.000000 0.500000 0.796402
O O13 0.335082 0.218652 0.816009
O O14 0.250000 0.779334 0.467919
#
# Coordination Sequence:
#
# PCOD9364481 Si02
#       6
#     8   8   8   8   8   8
#     4  10  23  39  57  85 116 148 191 237 285 341
#     4  10  21  36  58  84 113 149 188 232 283 338
#     4  10  22  38  57  84 115 149 191 234 282 343
#     4  10  21  38  58  83 113 148 188 233 282 335
#     4  10  21  38  59  84 115 152 191 236 285 339
#     4  10  22  39  59  86 119 152 189 236 287 340
#
# _framework density 19.752755000000001
#
# number of rings (size 3 to 8) (size 9 to 14) (size 15 to 20)
#    0.000    2.000    0.000    4.000    0.000   12.667 
#    0.000    3.333    0.000    0.000    0.000    0.000 
#    0.000    0.000    0.000    0.000    0.000    0.000 
#
# Total GULP energy -134021.478130 kJ/mol
# GULP energy per Si atom -5584.228255 kJ/mol
# Density = 1.970780 g / cm^3
# Si number density = 19.752755 Si / 1000 Ang^3
#
#
#
# Elastic Constant Matrix: (Units=GPa)
#
#
# Indices 1 2 3 4 5 6 
#
# 1 54.4917 35.1171 5.0066 0.0000 0.0000 0.0000
# 2 35.1171 135.5502 86.9023 0.0000 0.0000 0.0000
# 3 5.0066 86.9023 79.4421 0.0000 0.0000 0.0000
# 4 0.0000 0.0000 0.0000 42.5422 0.0000 0.0000
# 5 0.0000 0.0000 0.0000 0.0000 71.9556 0.0000
# 6 0.0000 0.0000 0.0000 0.0000 0.0000 43.4084
#
#
#
# Elastic Compliance Matrix: (Units=1/GPa)
#
#
# Indices 1 2 3 4 5 6 
#
# 1 0.030791 -0.022542 0.022719 0.000000 0.000000 0.000000
# 2 -0.022542 0.041202 -0.043651 0.000000 0.000000 0.000000
# 3 0.022719 -0.043651 0.058906 0.000000 0.000000 0.000000
# 4 0.000000 0.000000 0.000000 0.023506 0.000000 0.000000
# 5 0.000000 0.000000 0.000000 0.000000 0.013897 0.000000
# 6 0.000000 0.000000 0.000000 0.000000 0.000000 0.023037
#
#
# Mechanical properties :
#
#
# Convention : Reuss Voigt Hill
#
# Bulk Modulus (GPa) = 22.75277 58.17065 40.46171
# Shear Modulus (GPa) = 17.06839 41.07843 29.07341
#
# Velocity S-wave (km/s) = 2.94275 4.56524 3.84065
# Velocity P-wave (km/s) = 4.80522 7.56980 6.34003
#
# Compressibility (1/GPa) = 0.04395069
#
# Stress axis : x y z
#
# Youngs Moduli (GPa) = 32.47662 24.27053 16.97622
#
# Poissons Ratio (x) = 0.54711 -0.38567
# Poissons Ratio (y) = 0.73209 0.74103
# Poissons Ratio (z) = -0.73782 1.05943
#
# Static dielectric constant tensor:
#      x y z
#    x 1.740170 0.000000 0.000000 
#    y 0.000000 1.672450 0.000000 
#    z 0.000000 0.000000 1.693940 
# 
# From -- ./inp_files/13928.got.cif
#   From: 2010.05.17/outbox.cif.g08.bks.cpg/sg40_7_cif.got.tgz:13928.got - 2010.06.03 18:35:42.
