data_PCOD9364273
_publ_section_title
;
Structure prediction by ZEFSAII (Michael W. Deem and Ramdas Pophale) SiO2 
 PCOD9364273
Probable space group: A M A 2
;
_chemical_formula_sum "Si O2"
_cell_formula_units_Z 48
_cell_length_a 13.980885
_cell_length_b 27.325973
_cell_length_c 6.585202
_cell_angle_alpha 90.000000
_cell_angle_beta 90.000000
_cell_angle_gamma 90.000000
_cell_volume 2515.819041
_symmetry_space_group_name_H-M "A M A 2"
_symmetry_group_IT_number 40
_symmetry_cell_setting 'orthorhombic'
loop_
_space_group_symop_operation_xyz
x,y,z
-x,-y,z
1/2-x,y,z
1/2+x,-y,z
x,1/2+y,1/2+z
-x,1/2-y,1/2+z
1/2-x,1/2+y,1/2+z
1/2+x,1/2-y,1/2+z
loop_
_atom_site_type_symbol
_atom_site_label
_atom_site_fract_x
_atom_site_fract_y
_atom_site_fract_z
Si Si1 0.490844 0.120365 0.916410
Si Si2 0.009069 0.557649 0.798857
Si Si3 0.863177 0.869419 0.533780
Si Si4 0.457651 0.706521 0.732118
Si Si5 0.858738 0.616636 0.062454
Si Si6 0.144736 0.770261 0.428449
O O1 0.402443 0.125997 0.761973
O O2 0.583379 0.117418 0.773082
O O3 0.485026 0.073938 0.064643
O O4 0.490194 0.166560 0.066352
O O5 0.000000 0.500000 0.823130
O O6 0.918097 0.583757 0.905045
O O7 0.099024 0.582548 0.913665
O O8 0.750000 0.864410 0.523938
O O9 0.915512 0.824059 0.420881
O O10 0.377178 0.740204 0.632134
O O11 0.551583 0.737469 0.789727
O O12 0.750000 0.599980 0.087149
O O13 0.856974 0.672082 0.978498
O O14 0.250000 0.757376 0.346471
#
# Coordination Sequence:
#
# PCOD9364273 Si02
#       6
#     8   8   8   8   8   8
#     4  10  20  39  61  89 120 161 202 260 304 370
#     4  10  22  41  63  88 123 162 202 260 316 367
#     4  10  22  41  63  88 122 166 208 258 315 373
#     4  11  22  41  60  91 132 161 210 261 305 374
#     4  10  21  40  61  88 121 159 203 250 306 370
#     4  11  22  38  63  90 123 167 206 249 312 372
#
# _framework density 19.079274000000002
#
# number of rings (size 3 to 8) (size 9 to 14) (size 15 to 20)
#    0.000    1.667    5.000    1.500    0.000    8.000 
#    0.000    0.833    0.000    0.000    0.000    0.000 
#    0.000    0.000    0.000    0.000    0.000    0.000 
#
# Total GULP energy -134021.006660 kJ/mol
# GULP energy per Si atom -5584.208611 kJ/mol
# Density = 1.903585 g / cm^3
# Si number density = 19.079274 Si / 1000 Ang^3
#
#
#
# Elastic Constant Matrix: (Units=GPa)
#
#
# Indices 1 2 3 4 5 6 
#
# 1 165.3885 17.6492 40.8933 0.0000 0.0000 0.0000
# 2 17.6492 91.7955 19.7589 0.0000 0.0000 0.0000
# 3 40.8933 19.7589 89.3999 0.0000 0.0000 0.0000
# 4 0.0000 0.0000 0.0000 18.9634 0.0000 0.0000
# 5 0.0000 0.0000 0.0000 0.0000 11.8592 0.0000
# 6 0.0000 0.0000 0.0000 0.0000 0.0000 8.8578
#
#
#
# Elastic Compliance Matrix: (Units=1/GPa)
#
#
# Indices 1 2 3 4 5 6 
#
# 1 0.006857 -0.000675 -0.002987 0.000000 0.000000 0.000000
# 2 -0.000675 0.011504 -0.002234 0.000000 0.000000 0.000000
# 3 -0.002987 -0.002234 0.013046 0.000000 0.000000 0.000000
# 4 0.000000 0.000000 0.000000 0.052733 0.000000 0.000000
# 5 0.000000 0.000000 0.000000 0.000000 0.084322 0.000000
# 6 0.000000 0.000000 0.000000 0.000000 0.000000 0.112894
#
#
# Mechanical properties :
#
#
# Convention : Reuss Voigt Hill
#
# Bulk Modulus (GPa) = 50.98263 55.90964 53.44613
# Shear Modulus (GPa) = 16.68401 25.82161 21.25281
#
# Velocity S-wave (km/s) = 2.96033 3.68283 3.34117
# Velocity P-wave (km/s) = 6.20195 6.88853 6.55424
#
# Compressibility (1/GPa) = 0.01961452
#
# Stress axis : x y z
#
# Youngs Moduli (GPa) = 145.83504 86.92294 76.65286
#
# Poissons Ratio (x) = 0.05871 0.22898
# Poissons Ratio (y) = 0.09849 0.17122
# Poissons Ratio (z) = 0.43565 0.19416
#
# Static dielectric constant tensor:
#      x y z
#    x 1.664600 0.000000 0.000000 
#    y 0.000000 1.661060 0.000000 
#    z 0.000000 0.000000 1.672280 
# 
# From -- ./inp_files/1336.got.cif
#   From: 2010.05.17/outbox.cif.g08.bks.cpg/sg40_1_cif.got.tgz:1336.got - 2010.06.03 18:35:42.
