data_PCOD9364777
_publ_section_title
;
Structure prediction by ZEFSAII (Michael W. Deem and Ramdas Pophale) SiO2 
 PCOD9364777
Probable space group: A M A 2
;
_chemical_formula_sum "Si O2"
_cell_formula_units_Z 40
_cell_length_a 20.541522
_cell_length_b 5.425863
_cell_length_c 13.980693
_cell_angle_alpha 90.000000
_cell_angle_beta 90.000000
_cell_angle_gamma 90.000000
_cell_volume 1558.224908
_symmetry_space_group_name_H-M "A M A 2"
_symmetry_group_IT_number 40
_symmetry_cell_setting 'orthorhombic'
loop_
_space_group_symop_operation_xyz
x,y,z
-x,-y,z
1/2-x,y,z
1/2+x,-y,z
x,1/2+y,1/2+z
-x,1/2-y,1/2+z
1/2-x,1/2+y,1/2+z
1/2+x,1/2-y,1/2+z
loop_
_atom_site_type_symbol
_atom_site_label
_atom_site_fract_x
_atom_site_fract_y
_atom_site_fract_z
Si Si1 0.320399 0.371801 0.804420
Si Si2 0.178122 0.631108 0.993306
Si Si3 0.823664 0.747456 0.156337
Si Si4 0.037069 0.252142 0.553369
Si Si5 0.933374 0.429161 0.259137
O O1 0.250000 0.250625 0.817938
O O2 0.321435 0.591022 0.880123
O O3 0.325089 0.473143 0.695776
O O4 0.383363 0.214330 0.824646
O O5 0.250000 0.735576 0.019033
O O6 0.173023 0.365425 0.049510
O O7 0.111378 0.763749 0.018291
O O8 0.750000 0.669883 0.186756
O O9 0.885862 0.628845 0.209209
O O10 0.040914 0.229040 0.668885
O O11 0.000000 0.500000 0.529352
O O12 0.000000 0.000000 0.521348
O O13 0.000000 0.500000 0.309834
#
# Coordination Sequence:
#
# PCOD9364777 Si02
#       5
#     8   8   8   8   8
#     4  10  21  40  68  97 132 175 230 293 355 428
#     4   9  20  43  69 101 137 177 235 293 354 432
#     4   9  19  39  64  91 127 174 224 281 348 411
#     4  10  23  44  70  99 140 184 232 289 356 427
#     4  10  22  37  65  91 133 178 224 283 347 423
#
# _framework density 25.670238000000001
#
# number of rings (size 3 to 8) (size 9 to 14) (size 15 to 20)
#    0.000    2.400    0.000    0.600    8.400    0.800 
#    7.200    1.000    4.400    0.000    0.000    0.000 
#    0.000    0.000    0.000    0.000    0.000    0.000 
#
# Total GULP energy -111640.230101 kJ/mol
# GULP energy per Si atom -5582.011505 kJ/mol
# Density = 2.561181 g / cm^3
# Si number density = 25.670238 Si / 1000 Ang^3
#
#
#
# Elastic Constant Matrix: (Units=GPa)
#
#
# Indices 1 2 3 4 5 6 
#
# 1 293.2247 87.9966 41.5841 0.0000 0.0000 0.0000
# 2 87.9966 68.6235 18.0762 0.0000 0.0000 0.0000
# 3 41.5841 18.0762 73.4964 0.0000 0.0000 0.0000
# 4 0.0000 0.0000 0.0000 16.2524 0.0000 0.0000
# 5 0.0000 0.0000 0.0000 0.0000 -36.1798 0.0000
# 6 0.0000 0.0000 0.0000 0.0000 0.0000 48.5557
#
#
#
# Elastic Compliance Matrix: (Units=1/GPa)
#
#
# Indices 1 2 3 4 5 6 
#
# 1 0.005699 -0.006906 -0.001526 0.000000 0.000000 0.000000
# 2 -0.006906 0.023951 -0.001983 0.000000 0.000000 0.000000
# 3 -0.001526 -0.001983 0.014957 0.000000 0.000000 0.000000
# 4 0.000000 0.000000 0.000000 0.061529 0.000000 0.000000
# 5 0.000000 0.000000 0.000000 0.000000 -0.027640 0.000000
# 6 0.000000 0.000000 0.000000 0.000000 0.000000 0.020595
#
#
# Mechanical properties :
#
#
# Convention : Reuss Voigt Hill
#
# Bulk Modulus (GPa) = 42.05838 81.18426 61.62132
# Shear Modulus (GPa) = 39.10887 24.90484 32.00685
#
# Velocity S-wave (km/s) = 3.90745 3.11816 3.53490
# Velocity P-wave (km/s) = 6.06442 6.68269 6.38105
#
# Compressibility (1/GPa) = 0.02377648
#
# Stress axis : x y z
#
# Youngs Moduli (GPa) = 175.45753 41.75236 66.85710
#
# Poissons Ratio (x) = 0.28836 0.10203
# Poissons Ratio (y) = 1.21178 0.13258
# Poissons Ratio (z) = 0.26777 0.08279
#
# Static dielectric constant tensor:
#      x y z
#    x 2.015590 0.000000 0.000000 
#    y 0.000000 2.148940 0.000000 
#    z 0.000000 0.000000 1.960330 
# 
# From -- ./inp_files/20903.got.cif
#   From: 2010.05.17/outbox.cif.g08.bks.cpg/sg40_11_cif.got.tgz:20903.got - 2010.06.03 18:35:42.
