data_PCOD9364899
_publ_section_title
;
Structure prediction by ZEFSAII (Michael W. Deem and Ramdas Pophale) SiO2 
 PCOD9364899
Probable space group: A M A 2
;
_chemical_formula_sum "Si O2"
_cell_formula_units_Z 40
_cell_length_a 10.082137
_cell_length_b 32.472021
_cell_length_c 5.506322
_cell_angle_alpha 90.000000
_cell_angle_beta 90.000000
_cell_angle_gamma 90.000000
_cell_volume 1802.700247
_symmetry_space_group_name_H-M "A M A 2"
_symmetry_group_IT_number 40
_symmetry_cell_setting 'orthorhombic'
loop_
_space_group_symop_operation_xyz
x,y,z
-x,-y,z
1/2-x,y,z
1/2+x,-y,z
x,1/2+y,1/2+z
-x,1/2-y,1/2+z
1/2-x,1/2+y,1/2+z
1/2+x,1/2-y,1/2+z
loop_
_atom_site_type_symbol
_atom_site_label
_atom_site_fract_x
_atom_site_fract_y
_atom_site_fract_z
Si Si1 0.399190 0.850001 0.876080
Si Si2 0.601738 0.312666 0.702879
Si Si3 0.904584 0.409979 0.147709
Si Si4 0.610703 0.721958 0.034657
Si Si5 0.403093 0.538618 0.648797
O O1 0.250000 0.865969 0.922749
O O2 0.480291 0.875951 0.676023
O O3 0.382722 0.803001 0.785128
O O4 0.503652 0.846417 0.093836
O O5 0.750000 0.328338 0.742364
O O6 0.612476 0.270982 0.543305
O O7 0.526129 0.293608 0.928986
O O8 0.750000 0.394778 0.158685
O O9 0.922228 0.437706 0.391776
O O10 0.920722 0.433983 0.893131
O O11 0.750000 0.709284 0.903506
O O12 0.500000 0.500000 0.659421
O O13 0.250000 0.524744 0.651997
#
# Coordination Sequence:
#
# PCOD9364899 Si02
#       5
#     8   8   8   8   8
#     4  11  24  41  59  86 122 160 209 266 315 376
#     4  11  22  37  59  83 114 159 207 262 322 378
#     4  10  23  42  63  96 132 169 209 256 316 381
#     4  10  22  38  56  82 115 155 208 263 316 373
#     4  10  22  42  69  97 130 163 207 255 307 381
#
# _framework density 22.188936999999999
#
# number of rings (size 3 to 8) (size 9 to 14) (size 15 to 20)
#    0.000    1.600    2.000    1.800    2.800    4.000 
#    0.000    0.000    0.000    0.000    0.000    0.000 
#    0.000    0.000    0.000    0.000    0.000    0.000 
#
# Total GULP energy -111494.037744 kJ/mol
# GULP energy per Si atom -5574.701887 kJ/mol
# Density = 2.213843 g / cm^3
# Si number density = 22.188937 Si / 1000 Ang^3
#
#
#
# Elastic Constant Matrix: (Units=GPa)
#
#
# Indices 1 2 3 4 5 6 
#
# 1 197.2179 59.8810 51.1580 0.0000 0.0000 0.0000
# 2 59.8810 78.7066 30.2432 0.0000 0.0000 0.0000
# 3 51.1580 30.2432 98.3507 0.0000 0.0000 0.0000
# 4 0.0000 0.0000 0.0000 31.5296 0.0000 0.0000
# 5 0.0000 0.0000 0.0000 0.0000 1.1027 0.0000
# 6 0.0000 0.0000 0.0000 0.0000 0.0000 31.4785
#
#
#
# Elastic Compliance Matrix: (Units=1/GPa)
#
#
# Indices 1 2 3 4 5 6 
#
# 1 0.007016 -0.004463 -0.002277 0.000000 0.000000 0.000000
# 2 -0.004463 0.017247 -0.002982 0.000000 0.000000 0.000000
# 3 -0.002277 -0.002982 0.012269 0.000000 0.000000 0.000000
# 4 0.000000 0.000000 0.000000 0.031716 0.000000 0.000000
# 5 0.000000 0.000000 0.000000 0.000000 0.906836 0.000000
# 6 0.000000 0.000000 0.000000 0.000000 0.000000 0.031768
#
#
# Mechanical properties :
#
#
# Convention : Reuss Voigt Hill
#
# Bulk Modulus (GPa) = 58.52112 72.98217 65.75164
# Shear Modulus (GPa) = 4.84499 28.35505 16.60002
#
# Velocity S-wave (km/s) = 1.47928 3.57864 2.73815
# Velocity P-wave (km/s) = 5.41747 7.07377 6.30028
#
# Compressibility (1/GPa) = 0.01708785
#
# Stress axis : x y z
#
# Youngs Moduli (GPa) = 142.52393 57.98172 81.50521
#
# Poissons Ratio (x) = 0.25878 0.18560
# Poissons Ratio (y) = 0.63610 0.24304
# Poissons Ratio (z) = 0.32456 0.17290
#
# Static dielectric constant tensor:
#      x y z
#    x 1.913460 0.000000 0.000000 
#    y 0.000000 1.840740 0.000000 
#    z 0.000000 0.000000 1.891840 
# 
# From -- ./inp_files/876.got.cif
#   From: 2010.05.17/outbox.cif.g08.bks.cpg/sg40_1_cif.got.tgz:876.got - 2010.06.03 18:35:42.
