data_PCOD9364949
_publ_section_title
;
Structure prediction by ZEFSAII (Michael W. Deem and Ramdas Pophale) SiO2 
 PCOD9364949
Probable space group: A M A 2
;
_chemical_formula_sum "Si O2"
_cell_formula_units_Z 56
_cell_length_a 21.713976
_cell_length_b 14.261169
_cell_length_c 8.036452
_cell_angle_alpha 90.000000
_cell_angle_beta 90.000000
_cell_angle_gamma 90.000000
_cell_volume 2488.621421
_symmetry_space_group_name_H-M "A M A 2"
_symmetry_group_IT_number 40
_symmetry_cell_setting 'orthorhombic'
loop_
_space_group_symop_operation_xyz
x,y,z
-x,-y,z
1/2-x,y,z
1/2+x,-y,z
x,1/2+y,1/2+z
-x,1/2-y,1/2+z
1/2-x,1/2+y,1/2+z
1/2+x,1/2-y,1/2+z
loop_
_atom_site_type_symbol
_atom_site_label
_atom_site_fract_x
_atom_site_fract_y
_atom_site_fract_z
Si Si1 0.934996 0.282373 0.302500
Si Si2 0.064978 0.079525 0.295594
Si Si3 0.557137 0.599798 0.981885
Si Si4 0.315746 0.111363 0.729991
Si Si5 0.180307 0.202344 0.356500
Si Si6 0.866014 0.083192 0.809194
Si Si7 0.966734 0.136843 0.024824
O O1 0.921170 0.202823 0.437484
O O2 0.879067 0.352581 0.305235
O O3 0.999166 0.327058 0.358979
O O4 0.941816 0.224932 0.131149
O O5 0.123379 0.145595 0.277948
O O6 0.020331 0.094706 0.139606
O O7 0.016922 0.100046 0.450736
O O8 0.082665 0.974054 0.345262
O O9 0.586126 0.575909 0.156142
O O10 0.250000 0.144899 0.800095
O O11 0.318087 0.155050 0.542515
O O12 0.319366 0.999726 0.762341
O O13 0.250000 0.188657 0.290134
O O14 0.163854 0.313360 0.338071
O O15 0.910033 0.072231 0.970315
#
# Coordination Sequence:
#
# PCOD9364949 Si02
#       7
#     8   8   8   8   8   8   8
#     4  11  23  41  63 101 143 182 222 296 352 435
#     4  10  22  43  66 106 143 180 227 305 355 438
#     4  10  22  39  69 100 144 171 234 289 362 422
#     4  11  26  45  66  98 139 187 240 293 351 435
#     4  11  23  43  68  98 140 188 242 299 355 435
#     4  12  23  42  74 104 129 192 238 300 360 439
#     4  11  24  39  70 101 143 178 233 295 377 420
#
# _framework density 22.502419
#
# number of rings (size 3 to 8) (size 9 to 14) (size 15 to 20)
#    0.000    1.143    2.857    3.857    2.000    5.143 
#    0.000    4.286    0.000    0.000    0.000    0.000 
#    0.000    0.000    0.000    0.000    0.000    0.000 
#
# Total GULP energy -156223.476810 kJ/mol
# GULP energy per Si atom -5579.409886 kJ/mol
# Density = 2.245120 g / cm^3
# Si number density = 22.502419 Si / 1000 Ang^3
#
#
#
# Elastic Constant Matrix: (Units=GPa)
#
#
# Indices 1 2 3 4 5 6 
#
# 1 142.5848 44.9499 32.7827 0.0000 0.0000 0.0000
# 2 44.9499 119.5807 4.6771 0.0000 0.0000 0.0000
# 3 32.7827 4.6771 59.1125 0.0000 0.0000 0.0000
# 4 0.0000 0.0000 0.0000 34.4898 0.0000 0.0000
# 5 0.0000 0.0000 0.0000 0.0000 3.2632 0.0000
# 6 0.0000 0.0000 0.0000 0.0000 0.0000 24.6804
#
#
#
# Elastic Compliance Matrix: (Units=1/GPa)
#
#
# Indices 1 2 3 4 5 6 
#
# 1 0.009145 -0.003249 -0.004814 0.000000 0.000000 0.000000
# 2 -0.003249 0.009543 0.001047 0.000000 0.000000 0.000000
# 3 -0.004814 0.001047 0.019504 0.000000 0.000000 0.000000
# 4 0.000000 0.000000 0.000000 0.028994 0.000000 0.000000
# 5 0.000000 0.000000 0.000000 0.000000 0.306447 0.000000
# 6 0.000000 0.000000 0.000000 0.000000 0.000000 0.040518
#
#
# Mechanical properties :
#
#
# Convention : Reuss Voigt Hill
#
# Bulk Modulus (GPa) = 41.39362 54.01082 47.70222
# Shear Modulus (GPa) = 11.46166 28.41124 19.93645
#
# Velocity S-wave (km/s) = 2.25933 3.55714 2.97975
# Velocity P-wave (km/s) = 5.02406 6.39729 5.75181
#
# Compressibility (1/GPa) = 0.02415832
#
# Stress axis : x y z
#
# Youngs Moduli (GPa) = 109.35480 104.78957 51.27152
#
# Poissons Ratio (x) = 0.34047 0.24684
# Poissons Ratio (y) = 0.35530 -0.05367
# Poissons Ratio (z) = 0.52647 -0.10970
#
# Static dielectric constant tensor:
#      x y z
#    x 1.829760 0.000000 0.000000 
#    y 0.000000 1.916530 0.000000 
#    z 0.000000 0.000000 1.899560 
# 
# From -- ./inp_files/8301.got.cif
#   From: 2010.05.17/outbox.cif.g08.bks.cpg/sg40_5_cif.got.tgz:8301.got - 2010.06.03 18:35:42.
