data_PCOD9364932
_publ_section_title
;
Structure prediction by ZEFSAII (Michael W. Deem and Ramdas Pophale) SiO2 
 PCOD9364932
Probable space group: A M A 2
;
_chemical_formula_sum "Si O2"
_cell_formula_units_Z 56
_cell_length_a 8.381620
_cell_length_b 19.075868
_cell_length_c 17.717408
_cell_angle_alpha 90.000000
_cell_angle_beta 90.000000
_cell_angle_gamma 90.000000
_cell_volume 2832.777486
_symmetry_space_group_name_H-M "A M A 2"
_symmetry_group_IT_number 40
_symmetry_cell_setting 'orthorhombic'
loop_
_space_group_symop_operation_xyz
x,y,z
-x,-y,z
1/2-x,y,z
1/2+x,-y,z
x,1/2+y,1/2+z
-x,1/2-y,1/2+z
1/2-x,1/2+y,1/2+z
1/2+x,1/2-y,1/2+z
loop_
_atom_site_type_symbol
_atom_site_label
_atom_site_fract_x
_atom_site_fract_y
_atom_site_fract_z
Si Si1 0.444884 0.811184 0.609580
Si Si2 0.059204 0.079234 0.317869
Si Si3 0.441729 0.579472 0.518840
Si Si4 0.555828 0.838191 0.170327
Si Si5 0.440428 0.314436 0.936088
Si Si6 0.557235 0.079588 0.731748
Si Si7 0.440182 0.831618 0.876989
O O1 0.250000 0.809928 0.608581
O O2 0.496601 0.741216 0.654106
O O3 0.498523 0.808843 0.522745
O O4 0.493955 0.879891 0.655870
O O5 0.250000 0.078932 0.315182
O O6 0.998954 0.125686 0.247010
O O7 0.004487 0.117398 0.393847
O O8 0.000000 0.000000 0.312139
O O9 0.500000 0.500000 0.516007
O O10 0.250000 0.582202 0.512959
O O11 0.488410 0.615078 0.597989
O O12 0.514365 0.623095 0.450097
O O13 0.750000 0.836677 0.173539
O O14 0.250000 0.317174 0.938274
O O15 0.490879 0.245611 0.889597
O O16 0.750000 0.078808 0.733353
O O17 0.497180 0.873638 0.803114
O O18 0.500000 0.000000 0.736440
O O19 0.750000 0.175305 0.870993
#
# Coordination Sequence:
#
# PCOD9364932 Si02
#       7
#     8   8   8   8   8   8   8
#     4   9  18  37  62  86 112 152 197 241 296 353
#     4  11  23  40  62  88 122 159 202 248 299 356
#     4  11  21  35  57  86 120 158 197 241 297 357
#     4   9  18  36  61  85 114 155 198 244 298 357
#     4  11  22  39  64  90 120 156 198 246 300 359
#     4  10  22  39  60  84 116 155 197 242 293 349
#     4  11  22  38  60  87 119 156 199 245 295 356
#
# _framework density 19.768585000000002
#
# number of rings (size 3 to 8) (size 9 to 14) (size 15 to 20)
#    0.000    1.714    1.429    3.429    0.000    5.143 
#    0.000    5.000    0.000    0.000    0.000    0.000 
#    0.000    0.000    0.000    0.000    0.000    0.000 
#
# Total GULP energy -156474.876145 kJ/mol
# GULP energy per Si atom -5588.388434 kJ/mol
# Density = 1.972359 g / cm^3
# Si number density = 19.768585 Si / 1000 Ang^3
#
#
#
# Elastic Constant Matrix: (Units=GPa)
#
#
# Indices 1 2 3 4 5 6 
#
# 1 25.6237 17.0040 23.8025 0.0000 0.0000 0.0000
# 2 17.0040 122.2527 100.3442 0.0000 0.0000 0.0000
# 3 23.8025 100.3442 112.1787 0.0000 0.0000 0.0000
# 4 0.0000 0.0000 0.0000 9.4226 0.0000 0.0000
# 5 0.0000 0.0000 0.0000 0.0000 19.1419 0.0000
# 6 0.0000 0.0000 0.0000 0.0000 0.0000 30.5257
#
#
#
# Elastic Compliance Matrix: (Units=1/GPa)
#
#
# Indices 1 2 3 4 5 6 
#
# 1 0.049981 0.006595 -0.016504 0.000000 0.000000 0.000000
# 2 0.006595 0.031645 -0.029706 0.000000 0.000000 0.000000
# 3 -0.016504 -0.029706 0.038988 0.000000 0.000000 0.000000
# 4 0.000000 0.000000 0.000000 0.106127 0.000000 0.000000
# 5 0.000000 0.000000 0.000000 0.000000 0.052241 0.000000
# 6 0.000000 0.000000 0.000000 0.000000 0.000000 0.032759
#
#
# Mechanical properties :
#
#
# Convention : Reuss Voigt Hill
#
# Bulk Modulus (GPa) = 24.16399 60.26181 42.21290
# Shear Modulus (GPa) = 12.35280 19.74502 16.04891
#
# Velocity S-wave (km/s) = 2.50245 3.16382 2.85237
# Velocity P-wave (km/s) = 4.53868 6.62542 5.67872
#
# Compressibility (1/GPa) = 0.04138389
#
# Stress axis : x y z
#
# Youngs Moduli (GPa) = 20.00748 31.60090 25.64894
#
# Poissons Ratio (x) = -0.20840 0.42331
# Poissons Ratio (y) = -0.13194 0.76192
# Poissons Ratio (z) = 0.33021 0.93872
#
# Static dielectric constant tensor:
#      x y z
#    x 1.689290 0.000000 0.000000 
#    y 0.000000 1.659220 0.000000 
#    z 0.000000 0.000000 1.691690 
# 
# From -- ./inp_files/16399.got.cif
#   From: 2010.05.17/outbox.cif.g08.bks.cpg/sg40_9_cif.got.tgz:16399.got - 2010.06.03 18:35:42.
