data_PCOD9364270
_publ_section_title
;
Structure prediction by ZEFSAII (Michael W. Deem and Ramdas Pophale) SiO2 
 PCOD9364270
Probable space group: A M A 2
;
_chemical_formula_sum "Si O2"
_cell_formula_units_Z 60
_cell_length_a 22.852087
_cell_length_b 11.307431
_cell_length_c 11.057850
_cell_angle_alpha 90.000000
_cell_angle_beta 90.000000
_cell_angle_gamma 90.000000
_cell_volume 2857.330714
_symmetry_space_group_name_H-M "A M A 2"
_symmetry_group_IT_number 40
_symmetry_cell_setting 'orthorhombic'
loop_
_space_group_symop_operation_xyz
x,y,z
-x,-y,z
1/2-x,y,z
1/2+x,-y,z
x,1/2+y,1/2+z
-x,1/2-y,1/2+z
1/2-x,1/2+y,1/2+z
1/2+x,1/2-y,1/2+z
loop_
_atom_site_type_symbol
_atom_site_label
_atom_site_fract_x
_atom_site_fract_y
_atom_site_fract_z
Si Si1 0.181051 0.546534 0.836390
Si Si2 0.584104 0.563407 0.520892
Si Si3 0.471325 0.858842 0.614086
Si Si4 0.117474 0.811905 0.410277
Si Si5 0.573249 0.339268 0.951894
Si Si6 0.500000 0.500000 0.338468
Si Si7 0.818812 0.397422 0.557004
Si Si8 0.015939 0.853241 0.237011
O O1 0.250000 0.553492 0.864266
O O2 0.159633 0.409845 0.848745
O O3 0.137803 0.614646 0.927385
O O4 0.172267 0.604929 0.703173
O O5 0.576200 0.697633 0.473263
O O6 0.550829 0.471785 0.433340
O O7 0.650209 0.520701 0.523309
O O8 0.554303 0.559303 0.653688
O O9 0.420576 0.873158 0.517467
O O10 0.535902 0.891104 0.563491
O O11 0.478446 0.720101 0.640692
O O12 0.468272 0.911957 0.746686
O O13 0.152141 0.707209 0.477559
O O14 0.067424 0.781900 0.309901
O O15 0.531300 0.379247 0.840949
O O16 0.750000 0.397541 0.534798
#
# Coordination Sequence:
#
# PCOD9364270 Si02
#       8
#     8   8   8   8   8   4   8   8
#     4  11  24  43  66  92 128 178 227 273 322 398
#     4  11  24  38  67  95 133 173 210 278 337 403
#     4  10  21  36  60  96 133 163 209 267 344 398
#     4  11  22  42  70  95 134 174 224 282 334 406
#     4  10  22  40  63  97 129 170 211 274 338 403
#     4  12  22  36  58  98 134 172 204 270 336 410
#     4  11  25  43  66  95 130 177 230 278 333 404
#     4  10  20  39  61 102 128 165 217 265 351 395
#
# _framework density 20.998619999999999
#
# number of rings (size 3 to 8) (size 9 to 14) (size 15 to 20)
#    0.000    1.333    2.667    2.800    5.600    2.133 
#    0.000    0.000    0.000    4.000    0.000    0.000 
#    0.000    0.000    0.000    0.000    0.000    0.000 
#
# Total GULP energy -167191.897082 kJ/mol
# GULP energy per Si atom -5573.063236 kJ/mol
# Density = 2.095083 g / cm^3
# Si number density = 20.998620 Si / 1000 Ang^3
#
#
#
# Elastic Constant Matrix: (Units=GPa)
#
#
# Indices 1 2 3 4 5 6 
#
# 1 133.1165 26.5833 46.8466 0.0000 0.0000 0.0000
# 2 26.5833 74.7768 31.7621 0.0000 0.0000 0.0000
# 3 46.8466 31.7621 111.5677 0.0000 0.0000 0.0000
# 4 0.0000 0.0000 0.0000 33.6789 0.0000 0.0000
# 5 0.0000 0.0000 0.0000 0.0000 31.5350 0.0000
# 6 0.0000 0.0000 0.0000 0.0000 0.0000 35.1664
#
#
#
# Elastic Compliance Matrix: (Units=1/GPa)
#
#
# Indices 1 2 3 4 5 6 
#
# 1 0.009027 -0.001819 -0.003273 0.000000 0.000000 0.000000
# 2 -0.001819 0.015579 -0.003671 0.000000 0.000000 0.000000
# 3 -0.003273 -0.003671 0.011383 0.000000 0.000000 0.000000
# 4 0.000000 0.000000 0.000000 0.029692 0.000000 0.000000
# 5 0.000000 0.000000 0.000000 0.000000 0.031711 0.000000
# 6 0.000000 0.000000 0.000000 0.000000 0.000000 0.028436
#
#
# Mechanical properties :
#
#
# Convention : Reuss Voigt Hill
#
# Bulk Modulus (GPa) = 54.16309 58.87169 56.51739
# Shear Modulus (GPa) = 33.44286 34.36066 33.90176
#
# Velocity S-wave (km/s) = 3.99510 4.04955 4.02241
# Velocity P-wave (km/s) = 6.86518 7.06838 6.96752
#
# Compressibility (1/GPa) = 0.01846276
#
# Stress axis : x y z
#
# Youngs Moduli (GPa) = 110.77648 64.18775 87.85404
#
# Poissons Ratio (x) = 0.11677 0.28751
# Poissons Ratio (y) = 0.20152 0.32255
# Poissons Ratio (z) = 0.36252 0.23566
#
# Static dielectric constant tensor:
#      x y z
#    x 1.717940 0.000000 0.000000 
#    y 0.000000 1.929330 0.000000 
#    z 0.000000 0.000000 1.755300 
# 
# From -- ./inp_files/13628.got.cif
#   From: 2010.05.17/outbox.cif.g08.bks.cpg/sg40_7_cif.got.tgz:13628.got - 2010.06.03 18:35:42.
