data_PCOD9364666
_publ_section_title
;
Structure prediction by ZEFSAII (Michael W. Deem and Ramdas Pophale) SiO2 
 PCOD9364666
Probable space group: A M A 2
;
_chemical_formula_sum "Si O2"
_cell_formula_units_Z 64
_cell_length_a 16.945660
_cell_length_b 15.074811
_cell_length_c 12.788028
_cell_angle_alpha 90.000000
_cell_angle_beta 90.000000
_cell_angle_gamma 90.000000
_cell_volume 3266.735280
_symmetry_space_group_name_H-M "A M A 2"
_symmetry_group_IT_number 40
_symmetry_cell_setting 'orthorhombic'
loop_
_space_group_symop_operation_xyz
x,y,z
-x,-y,z
1/2-x,y,z
1/2+x,-y,z
x,1/2+y,1/2+z
-x,1/2-y,1/2+z
1/2-x,1/2+y,1/2+z
1/2+x,1/2-y,1/2+z
loop_
_atom_site_type_symbol
_atom_site_label
_atom_site_fract_x
_atom_site_fract_y
_atom_site_fract_z
Si Si1 0.455988 0.760797 0.407770
Si Si2 0.843679 0.509856 0.224468
Si Si3 0.973197 0.406354 0.769786
Si Si4 0.841452 0.872581 0.125116
Si Si5 0.343703 0.831041 0.574235
Si Si6 0.594424 0.003070 0.957621
Si Si7 0.572490 0.667835 0.574784
Si Si8 0.844380 0.308176 0.221554
O O1 0.515374 0.824316 0.345736
O O2 0.395072 0.823262 0.470331
O O3 0.509493 0.707103 0.491107
O O4 0.401585 0.708414 0.322732
O O5 0.750000 0.523026 0.239363
O O6 0.870627 0.588847 0.148632
O O7 0.883351 0.511009 0.337439
O O8 0.855039 0.409653 0.184292
O O9 0.886771 0.414130 0.722157
O O10 0.000000 0.500000 0.814991
O O11 0.025775 0.382030 0.667847
O O12 0.750000 0.888211 0.133069
O O13 0.855269 0.766586 0.124850
O O14 0.870087 0.918786 0.017976
O O15 0.250000 0.840989 0.553152
O O16 0.500000 0.000000 0.967297
O O17 0.621795 0.092213 0.016227
O O18 0.624901 0.742038 0.631680
O O19 0.750000 0.295747 0.245431
#
# Coordination Sequence:
#
# PCOD9364666 Si02
#       8
#     8   8   8   8   8   8   8   8
#     4  11  23  38  66  88 122 166 206 251 314 369
#     4  10  23  39  60  92 124 156 203 253 302 365
#     4  11  22  42  59  91 126 156 209 258 299 367
#     4  11  21  38  63  87 123 164 203 251 312 366
#     4  10  21  39  62  90 122 161 207 252 303 369
#     4  12  21  37  63  95 121 156 201 255 305 363
#     4  11  22  39  62  89 124 159 201 255 312 363
#     4  10  23  42  61  88 124 163 207 255 308 375
#
# _framework density 19.591425000000001
#
# number of rings (size 3 to 8) (size 9 to 14) (size 15 to 20)
#    0.000    1.250    3.750    2.250    1.750    5.000 
#    0.000    1.250    0.000    0.000    0.000    0.000 
#    0.000    0.000    0.000    0.000    0.000    0.000 
#
# Total GULP energy -178651.343277 kJ/mol
# GULP energy per Si atom -5582.854477 kJ/mol
# Density = 1.954683 g / cm^3
# Si number density = 19.591425 Si / 1000 Ang^3
#
#
#
# Elastic Constant Matrix: (Units=GPa)
#
#
# Indices 1 2 3 4 5 6 
#
# 1 53.2710 33.3916 9.3617 0.0000 0.0000 0.0000
# 2 33.3916 114.0740 45.2670 0.0000 0.0000 0.0000
# 3 9.3617 45.2670 54.4815 0.0000 0.0000 0.0000
# 4 0.0000 0.0000 0.0000 36.1671 0.0000 0.0000
# 5 0.0000 0.0000 0.0000 0.0000 29.1163 0.0000
# 6 0.0000 0.0000 0.0000 0.0000 0.0000 21.2809
#
#
#
# Elastic Compliance Matrix: (Units=1/GPa)
#
#
# Indices 1 2 3 4 5 6 
#
# 1 0.023211 -0.007775 0.002472 0.000000 0.000000 0.000000
# 2 -0.007775 0.015683 -0.011694 0.000000 0.000000 0.000000
# 3 0.002472 -0.011694 0.027647 0.000000 0.000000 0.000000
# 4 0.000000 0.000000 0.000000 0.027649 0.000000 0.000000
# 5 0.000000 0.000000 0.000000 0.000000 0.034345 0.000000
# 6 0.000000 0.000000 0.000000 0.000000 0.000000 0.046990
#
#
# Mechanical properties :
#
#
# Convention : Reuss Voigt Hill
#
# Bulk Modulus (GPa) = 30.72667 44.20746 37.46706
# Shear Modulus (GPa) = 22.68920 26.23329 24.46125
#
# Velocity S-wave (km/s) = 3.40681 3.66323 3.53734
# Velocity P-wave (km/s) = 5.58506 6.36443 5.98744
#
# Compressibility (1/GPa) = 0.03254502
#
# Stress axis : x y z
#
# Youngs Moduli (GPa) = 43.08258 63.76448 36.17089
#
# Poissons Ratio (x) = 0.49578 -0.08940
# Poissons Ratio (y) = 0.33497 0.42299
# Poissons Ratio (z) = -0.10649 0.74568
#
# Static dielectric constant tensor:
#      x y z
#    x 1.703030 0.000000 0.000000 
#    y 0.000000 1.723080 0.000000 
#    z 0.000000 0.000000 1.682820 
# 
# From -- ./inp_files/13151.got.cif
#   From: 2010.05.17/outbox.cif.g08.bks.cpg/sg40_7_cif.got.tgz:13151.got - 2010.06.03 18:35:42.
