data_PCOD9364694
_publ_section_title
;
Structure prediction by ZEFSAII (Michael W. Deem and Ramdas Pophale) SiO2 
 PCOD9364694
Probable space group: A M A 2
;
_chemical_formula_sum "Si O2"
_cell_formula_units_Z 48
_cell_length_a 18.626639
_cell_length_b 9.893258
_cell_length_c 11.479011
_cell_angle_alpha 90.000000
_cell_angle_beta 90.000000
_cell_angle_gamma 90.000000
_cell_volume 2115.330857
_symmetry_space_group_name_H-M "A M A 2"
_symmetry_group_IT_number 40
_symmetry_cell_setting 'orthorhombic'
loop_
_space_group_symop_operation_xyz
x,y,z
-x,-y,z
1/2-x,y,z
1/2+x,-y,z
x,1/2+y,1/2+z
-x,1/2-y,1/2+z
1/2-x,1/2+y,1/2+z
1/2+x,1/2-y,1/2+z
loop_
_atom_site_type_symbol
_atom_site_label
_atom_site_fract_x
_atom_site_fract_y
_atom_site_fract_z
Si Si1 0.669627 0.093978 0.655940
Si Si2 0.335906 0.695804 0.085414
Si Si3 0.415500 0.214599 0.833984
Si Si4 0.668585 0.893484 0.045001
Si Si5 0.917575 0.497299 0.754498
Si Si6 0.416266 0.296765 0.362896
O O1 0.750000 0.077717 0.704985
O O2 0.666408 0.239336 0.594286
O O3 0.616282 0.105760 0.764562
O O4 0.659617 0.967929 0.569023
O O5 0.250000 0.727106 0.097446
O O6 0.382708 0.703606 0.204134
O O7 0.373851 0.784456 0.984831
O O8 0.371715 0.124951 0.924165
O O9 0.408692 0.378076 0.842728
O O10 0.498363 0.180428 0.860811
O O11 0.750000 0.934216 0.026254
O O12 0.633593 0.988491 0.142730
O O13 0.906460 0.355825 0.816928
O O14 0.000000 0.500000 0.711511
#
# Coordination Sequence:
#
# PCOD9364694 Si02
#       6
#     8   8   8   8   8   8
#     4   9  20  40  64  92 124 163 215 264 315 385
#     4  11  24  41  63  94 131 170 212 264 328 389
#     4  11  24  39  61  94 131 164 214 263 322 389
#     4  10  21  39  65  90 123 167 211 261 319 382
#     4   9  21  41  63  91 124 163 214 267 317 382
#     4  10  22  40  65  93 123 169 214 267 322 382
#
# _framework density 22.691485
#
# number of rings (size 3 to 8) (size 9 to 14) (size 15 to 20)
#    0.000    2.000    0.000    2.000    7.000    4.000 
#    0.000    0.000    0.000    0.000    0.000    0.000 
#    0.000    0.000    0.000    0.000    0.000    0.000 
#
# Total GULP energy -133954.199815 kJ/mol
# GULP energy per Si atom -5581.424992 kJ/mol
# Density = 2.263984 g / cm^3
# Si number density = 22.691485 Si / 1000 Ang^3
#
#
#
# Elastic Constant Matrix: (Units=GPa)
#
#
# Indices 1 2 3 4 5 6 
#
# 1 119.9190 15.4956 81.9377 0.0000 0.0000 0.0000
# 2 15.4956 43.9223 -10.5998 0.0000 0.0000 0.0000
# 3 81.9377 -10.5998 93.2580 0.0000 0.0000 0.0000
# 4 0.0000 0.0000 0.0000 41.7175 0.0000 0.0000
# 5 0.0000 0.0000 0.0000 0.0000 33.3937 0.0000
# 6 0.0000 0.0000 0.0000 0.0000 0.0000 -9.7757
#
#
#
# Elastic Compliance Matrix: (Units=1/GPa)
#
#
# Indices 1 2 3 4 5 6 
#
# 1 0.029834 -0.017326 -0.028181 0.000000 0.000000 0.000000
# 2 -0.017326 0.033472 0.019027 0.000000 0.000000 0.000000
# 3 -0.028181 0.019027 0.037646 0.000000 0.000000 0.000000
# 4 0.000000 0.000000 0.000000 0.023971 0.000000 0.000000
# 5 0.000000 0.000000 0.000000 0.000000 0.029946 0.000000
# 6 0.000000 0.000000 0.000000 0.000000 0.000000 -0.102294
#
#
# Mechanical properties :
#
#
# Convention : Reuss Voigt Hill
#
# Bulk Modulus (GPa) = 20.83706 47.86294 34.35000
# Shear Modulus (GPa) = 41.14164 24.41815 32.77989
#
# Velocity S-wave (km/s) = 4.26266 3.28394 3.80490
# Velocity P-wave (km/s) = 5.78184 5.95968 5.87143
#
# Compressibility (1/GPa) = 0.04799141
#
# Stress axis : x y z
#
# Youngs Moduli (GPa) = 33.51936 29.87574 26.56310
#
# Poissons Ratio (x) = 0.51763 0.74859
# Poissons Ratio (y) = 0.58076 -0.50543
# Poissons Ratio (z) = 0.94462 -0.56846
#
# Static dielectric constant tensor:
#      x y z
#    x 1.818550 0.000000 0.000000 
#    y 0.000000 1.923690 0.000000 
#    z 0.000000 0.000000 1.830140 
# 
# From -- ./inp_files/12912.got.cif
#   From: 2010.05.17/outbox.cif.g08.bks.cpg/sg40_7_cif.got.tgz:12912.got - 2010.06.03 18:35:42.
