data_PCOD9364907
_publ_section_title
;
Structure prediction by ZEFSAII (Michael W. Deem and Ramdas Pophale) SiO2 
 PCOD9364907
Probable space group: A M A 2
;
_chemical_formula_sum "Si O2"
_cell_formula_units_Z 56
_cell_length_a 14.098014
_cell_length_b 7.245221
_cell_length_c 23.557014
_cell_angle_alpha 90.000000
_cell_angle_beta 90.000000
_cell_angle_gamma 90.000000
_cell_volume 2406.189431
_symmetry_space_group_name_H-M "A M A 2"
_symmetry_group_IT_number 40
_symmetry_cell_setting 'orthorhombic'
loop_
_space_group_symop_operation_xyz
x,y,z
-x,-y,z
1/2-x,y,z
1/2+x,-y,z
x,1/2+y,1/2+z
-x,1/2-y,1/2+z
1/2-x,1/2+y,1/2+z
1/2+x,1/2-y,1/2+z
loop_
_atom_site_type_symbol
_atom_site_label
_atom_site_fract_x
_atom_site_fract_y
_atom_site_fract_z
Si Si1 0.642945 0.161386 0.698360
Si Si2 0.942178 0.185927 0.049666
Si Si3 0.860932 0.616548 0.321600
Si Si4 0.646096 0.086409 0.164292
Si Si5 0.000000 0.000000 0.253257
Si Si6 0.521757 0.719199 0.426014
Si Si7 0.000000 0.000000 0.622270
Si Si8 0.136500 0.822313 0.346823
O O1 0.750000 0.100038 0.707418
O O2 0.597921 0.180994 0.760981
O O3 0.645782 0.362157 0.669921
O O4 0.590631 0.010280 0.661851
O O5 0.864285 0.146039 0.098453
O O6 0.008488 0.329089 0.081390
O O7 0.928061 0.262393 0.986035
O O8 0.000000 0.000000 0.044032
O O9 0.750000 0.657041 0.323473
O O10 0.908445 0.724111 0.372875
O O11 0.873147 0.394962 0.327788
O O12 0.750000 0.146205 0.186408
O O13 0.554475 0.128815 0.203255
O O14 0.916114 0.051881 0.300047
O O15 0.500000 0.500000 0.429274
O O16 0.425677 0.823783 0.405691
O O17 0.250000 0.859552 0.352421
#
# Coordination Sequence:
#
# PCOD9364907 Si02
#       8
#     8   8   8   8   4   8   4   8
#     4  10  22  38  61  95 128 164 215 273 335 401
#     4  11  23  43  62  94 127 177 224 274 334 402
#     4   9  19  36  62  96 128 166 220 281 349 414
#     4  11  23  40  63  96 139 182 225 276 342 412
#     4  12  22  37  62  95 136 174 222 274 346 416
#     4   9  20  38  65  88 124 163 218 273 332 406
#     4  12  24  39  68  87 132 170 218 270 328 398
#     4  10  22  39  62  95 129 173 225 284 354 419
#
# _framework density 23.273312000000001
#
# number of rings (size 3 to 8) (size 9 to 14) (size 15 to 20)
#    0.000    1.714    2.143    1.286    7.000    1.714 
#    0.000    3.571    0.000    2.571    0.000    0.000 
#    0.000    0.000    0.000    0.000    0.000    0.000 
#
# Total GULP energy -155958.189774 kJ/mol
# GULP energy per Si atom -5569.935349 kJ/mol
# Density = 2.322034 g / cm^3
# Si number density = 23.273312 Si / 1000 Ang^3
#
#
#
# Elastic Constant Matrix: (Units=GPa)
#
#
# Indices 1 2 3 4 5 6 
#
# 1 149.7741 23.2509 68.5875 0.0000 0.0000 0.0000
# 2 23.2509 71.6220 43.4065 0.0000 0.0000 0.0000
# 3 68.5875 43.4065 203.4077 0.0000 0.0000 0.0000
# 4 0.0000 0.0000 0.0000 43.9860 0.0000 0.0000
# 5 0.0000 0.0000 0.0000 0.0000 22.5119 0.0000
# 6 0.0000 0.0000 0.0000 0.0000 0.0000 25.1934
#
#
#
# Elastic Compliance Matrix: (Units=1/GPa)
#
#
# Indices 1 2 3 4 5 6 
#
# 1 0.007971 -0.001101 -0.002453 0.000000 0.000000 0.000000
# 2 -0.001101 0.016188 -0.003083 0.000000 0.000000 0.000000
# 3 -0.002453 -0.003083 0.006401 0.000000 0.000000 0.000000
# 4 0.000000 0.000000 0.000000 0.022735 0.000000 0.000000
# 5 0.000000 0.000000 0.000000 0.000000 0.044421 0.000000
# 6 0.000000 0.000000 0.000000 0.000000 0.000000 0.039693
#
#
# Mechanical properties :
#
#
# Convention : Reuss Voigt Hill
#
# Bulk Modulus (GPa) = 57.84976 77.25482 67.55229
# Shear Modulus (GPa) = 31.96013 37.64219 34.80116
#
# Velocity S-wave (km/s) = 3.70976 4.02605 3.87114
# Velocity P-wave (km/s) = 6.57727 7.40802 7.00497
#
# Compressibility (1/GPa) = 0.01728616
#
# Stress axis : x y z
#
# Youngs Moduli (GPa) = 125.45689 61.77328 156.22006
#
# Poissons Ratio (x) = 0.06802 0.38317
# Poissons Ratio (y) = 0.13814 0.48166
# Poissons Ratio (z) = 0.30771 0.19046
#
# Static dielectric constant tensor:
#      x y z
#    x 1.975040 0.000000 0.000000 
#    y 0.000000 2.277980 0.000000 
#    z 0.000000 0.000000 1.915600 
# 
# From -- ./inp_files/23163.got.cif
#   From: 2010.05.17/outbox.cif.g08.bks.cpg/sg40_12_cif.got.tgz:23163.got - 2010.06.03 18:35:42.
