data_PCOD9364376
_publ_section_title
;
Structure prediction by ZEFSAII (Michael W. Deem and Ramdas Pophale) SiO2 
 PCOD9364376
Probable space group: A M A 2
;
_chemical_formula_sum "Si O2"
_cell_formula_units_Z 60
_cell_length_a 14.917447
_cell_length_b 5.329759
_cell_length_c 33.805877
_cell_angle_alpha 90.000000
_cell_angle_beta 90.000000
_cell_angle_gamma 90.000000
_cell_volume 2687.783491
_symmetry_space_group_name_H-M "A M A 2"
_symmetry_group_IT_number 40
_symmetry_cell_setting 'orthorhombic'
loop_
_space_group_symop_operation_xyz
x,y,z
-x,-y,z
1/2-x,y,z
1/2+x,-y,z
x,1/2+y,1/2+z
-x,1/2-y,1/2+z
1/2-x,1/2+y,1/2+z
1/2+x,1/2-y,1/2+z
loop_
_atom_site_type_symbol
_atom_site_label
_atom_site_fract_x
_atom_site_fract_y
_atom_site_fract_z
Si Si1 0.109129 0.010019 0.979000
Si Si2 0.858964 0.098356 0.160291
Si Si3 0.356948 0.405579 0.115840
Si Si4 0.500000 0.500000 0.876873
Si Si5 0.344891 0.322144 0.397927
Si Si6 0.902132 0.372916 0.324580
Si Si7 0.107213 0.502686 0.023772
Si Si8 0.942310 0.243304 0.243510
O O1 0.148577 0.006228 0.934999
O O2 0.137972 0.766410 0.004911
O O3 0.000000 0.000000 0.977846
O O4 0.139809 0.264844 0.999327
O O5 0.750000 0.094519 0.161182
O O6 0.890667 0.343842 0.136894
O O7 0.894788 0.137848 0.204503
O O8 0.890428 0.847566 0.137372
O O9 0.250000 0.398433 0.121541
O O10 0.372370 0.445459 0.069478
O O11 0.438942 0.679162 0.902557
O O12 0.574377 0.625299 0.849008
O O13 0.250000 0.181438 0.400677
O O14 0.348958 0.454637 0.355053
O O15 0.875555 0.315907 0.279726
O O16 0.000000 0.500000 0.320171
O O17 0.000000 0.500000 0.020593
O O18 0.000000 0.500000 0.235033
O O19 0.000000 0.000000 0.257923
#
# Coordination Sequence:
#
# PCOD9364376 Si02
#       8
#     8   8   8   4   8   8   8   8
#     4  10  22  40  61  91 125 170 207 269 338 386
#     4  10  22  39  60  88 127 168 207 263 328 388
#     4  10  21  39  60  85 122 168 208 256 329 388
#     4  10  20  42  66  88 128 178 210 278 340 378
#     4  11  25  40  64  99 129 176 231 273 333 412
#     4   9  20  39  63  86 126 168 210 266 338 388
#     4  10  22  38  62  89 123 160 212 265 327 391
#     4  11  22  39  65  97 123 167 220 265 326 393
#
# _framework density 22.323225999999998
#
# number of rings (size 3 to 8) (size 9 to 14) (size 15 to 20)
#    0.000    1.867    0.667    2.800    4.667    3.733 
#    0.000    0.000    0.000    0.000    0.000    0.000 
#    0.000    0.000    0.000    0.000    0.000    0.000 
#
# Total GULP energy -167430.351227 kJ/mol
# GULP energy per Si atom -5581.011708 kJ/mol
# Density = 2.227242 g / cm^3
# Si number density = 22.323226 Si / 1000 Ang^3
#
#
#
# Elastic Constant Matrix: (Units=GPa)
#
#
# Indices 1 2 3 4 5 6 
#
# 1 66.7718 31.5724 29.1855 0.0000 0.0000 0.0000
# 2 31.5724 155.3252 63.6309 0.0000 0.0000 0.0000
# 3 29.1855 63.6309 165.2154 0.0000 0.0000 0.0000
# 4 0.0000 0.0000 0.0000 24.8942 0.0000 0.0000
# 5 0.0000 0.0000 0.0000 0.0000 112.4186 0.0000
# 6 0.0000 0.0000 0.0000 0.0000 0.0000 -12.2372
#
#
#
# Elastic Compliance Matrix: (Units=1/GPa)
#
#
# Indices 1 2 3 4 5 6 
#
# 1 0.017107 -0.002659 -0.001998 0.000000 0.000000 0.000000
# 2 -0.002659 0.008057 -0.002634 0.000000 0.000000 0.000000
# 3 -0.001998 -0.002634 0.007420 0.000000 0.000000 0.000000
# 4 0.000000 0.000000 0.000000 0.040170 0.000000 0.000000
# 5 0.000000 0.000000 0.000000 0.000000 0.008895 0.000000
# 6 0.000000 0.000000 0.000000 0.000000 0.000000 -0.081718
#
#
# Mechanical properties :
#
#
# Convention : Reuss Voigt Hill
#
# Bulk Modulus (GPa) = 55.54429 70.67667 63.11048
# Shear Modulus (GPa) = 243.74465 42.54336 143.14401
#
# Velocity S-wave (km/s) = 10.46068 4.37027 8.01639
# Velocity P-wave (km/s) = 13.07046 7.56274 10.67783
#
# Compressibility (1/GPa) = 0.01800365
#
# Stress axis : x y z
#
# Youngs Moduli (GPa) = 58.45618 124.10944 134.77217
#
# Poissons Ratio (x) = 0.32998 0.26927
# Poissons Ratio (y) = 0.15542 0.35493
# Poissons Ratio (z) = 0.11679 0.32685
#
# Static dielectric constant tensor:
#      x y z
#    x 1.804540 0.000000 0.000000 
#    y 0.000000 1.932120 0.000000 
#    z 0.000000 0.000000 1.826790 
# 
# From -- ./inp_files/25808.got.cif
#   From: 2010.05.17/outbox.cif.g08.bks.cpg/sg40_13_cif.got.tgz:25808.got - 2010.06.03 18:35:42.
