data_PCOD9364233
_publ_section_title
;
Structure prediction by ZEFSAII (Michael W. Deem and Ramdas Pophale) SiO2 
 PCOD9364233
Probable space group: A M A 2
;
_chemical_formula_sum "Si O2"
_cell_formula_units_Z 40
_cell_length_a 20.732584
_cell_length_b 6.650104
_cell_length_c 14.981100
_cell_angle_alpha 90.000000
_cell_angle_beta 90.000000
_cell_angle_gamma 90.000000
_cell_volume 2065.501781
_symmetry_space_group_name_H-M "A M A 2"
_symmetry_group_IT_number 40
_symmetry_cell_setting 'orthorhombic'
loop_
_space_group_symop_operation_xyz
x,y,z
-x,-y,z
1/2-x,y,z
1/2+x,-y,z
x,1/2+y,1/2+z
-x,1/2-y,1/2+z
1/2-x,1/2+y,1/2+z
1/2+x,1/2-y,1/2+z
loop_
_atom_site_type_symbol
_atom_site_label
_atom_site_fract_x
_atom_site_fract_y
_atom_site_fract_z
Si Si1 0.564225 0.118360 0.024560
Si Si2 0.250000 0.958013 0.642003
Si Si3 0.750000 0.647418 0.936641
Si Si4 0.750000 0.915376 0.271330
Si Si5 0.608283 0.307696 0.379173
Si Si6 0.500000 0.000000 0.449982
Si Si7 0.146142 0.782353 0.191058
O O1 0.610213 0.117326 0.108900
O O2 0.500000 0.000000 0.049512
O O3 0.543701 0.345390 0.004828
O O4 0.591077 0.006211 0.936308
O O5 0.250000 0.866617 0.543163
O O6 0.250000 0.797835 0.722698
O O7 0.189585 0.104688 0.652322
O O8 0.750000 0.437988 0.879055
O O9 0.682245 0.751445 0.907410
O O10 0.810736 0.043560 0.236026
O O11 0.606860 0.318355 0.272129
O O12 0.553275 0.140880 0.401357
#
# Coordination Sequence:
#
# PCOD9364233 Si02
#       7
#     8   4   4   4   8   4   8
#     4  10  22  41  60  86 121 160 207 264 314 377
#     4  11  21  35  58  88 122 159 201 251 316 378
#     4  10  20  38  64  90 124 168 206 260 324 377
#     4   9  21  39  58  90 124 155 199 253 310 377
#     4  10  22  40  62  90 125 163 210 263 322 382
#     4  10  22  42  60  86 122 164 210 252 324 388
#     4  10  22  37  59  91 117 156 209 250 313 382
#
# _framework density 19.365755
#
# number of rings (size 3 to 8) (size 9 to 14) (size 15 to 20)
#    0.000    2.000    0.000    3.000    1.400    7.200 
#    5.400    3.000    0.000    0.000    0.000    0.000 
#    0.000    0.000    0.000    0.000    0.000    0.000 
#
# Total GULP energy -111462.681002 kJ/mol
# GULP energy per Si atom -5573.134050 kJ/mol
# Density = 1.932168 g / cm^3
# Si number density = 19.365755 Si / 1000 Ang^3
#
#
#
# Elastic Constant Matrix: (Units=GPa)
#
#
# Indices 1 2 3 4 5 6 
#
# 1 60.4170 0.7994 5.1763 0.0000 0.0000 0.0000
# 2 0.7994 41.9095 7.0363 0.0000 0.0000 0.0000
# 3 5.1763 7.0363 67.6918 0.0000 0.0000 0.0000
# 4 0.0000 0.0000 0.0000 3.0432 0.0000 0.0000
# 5 0.0000 0.0000 0.0000 0.0000 9755.0536 0.0000
# 6 0.0000 0.0000 0.0000 0.0000 0.0000 23.8678
#
#
#
# Elastic Compliance Matrix: (Units=1/GPa)
#
#
# Indices 1 2 3 4 5 6 
#
# 1 0.016661 -0.000106 -0.001263 0.000000 0.000000 0.000000
# 2 -0.000106 0.024285 -0.002516 0.000000 0.000000 0.000000
# 3 -0.001263 -0.002516 0.015131 0.000000 0.000000 0.000000
# 4 0.000000 0.000000 0.000000 0.328606 0.000000 0.000000
# 5 0.000000 0.000000 0.000000 0.000000 0.000103 0.000000
# 6 0.000000 0.000000 0.000000 0.000000 0.000000 0.041897
#
#
# Mechanical properties :
#
#
# Convention : Reuss Voigt Hill
#
# Bulk Modulus (GPa) = 20.70075 21.78247 21.24161
# Shear Modulus (GPa) = 11.09739 1966.86001 988.97870
#
# Velocity S-wave (km/s) = 2.39643 31.90365 22.62284
# Velocity P-wave (km/s) = 4.28599 36.99184 26.33217
#
# Compressibility (1/GPa) = 0.04830744
#
# Stress axis : x y z
#
# Youngs Moduli (GPa) = 60.01955 41.17700 66.08955
#
# Poissons Ratio (x) = 0.00435 0.08348
# Poissons Ratio (y) = 0.00635 0.16630
# Poissons Ratio (z) = 0.07581 0.10361
#
# Static dielectric constant tensor:
#      x y z
#    x 1.246380 0.000000 0.000000 
#    y 0.000000 1.682710 0.000000 
#    z 0.000000 0.000000 1.695320 
# 
# From -- ./inp_files/18390.got.cif
#   From: 2010.05.17/outbox.cif.g08.bks.cpg/sg40_10_cif.got.tgz:18390.got - 2010.06.03 18:35:42.
