data_PCOD9364617
_publ_section_title
;
Structure prediction by ZEFSAII (Michael W. Deem and Ramdas Pophale) SiO2 
 PCOD9364617
Probable space group: A M A 2
;
_chemical_formula_sum "Si O2"
_cell_formula_units_Z 64
_cell_length_a 18.131642
_cell_length_b 17.341692
_cell_length_c 9.608028
_cell_angle_alpha 90.000000
_cell_angle_beta 90.000000
_cell_angle_gamma 90.000000
_cell_volume 3021.084441
_symmetry_space_group_name_H-M "A M A 2"
_symmetry_group_IT_number 40
_symmetry_cell_setting 'orthorhombic'
loop_
_space_group_symop_operation_xyz
x,y,z
-x,-y,z
1/2-x,y,z
1/2+x,-y,z
x,1/2+y,1/2+z
-x,1/2-y,1/2+z
1/2-x,1/2+y,1/2+z
1/2+x,1/2-y,1/2+z
loop_
_atom_site_type_symbol
_atom_site_label
_atom_site_fract_x
_atom_site_fract_y
_atom_site_fract_z
Si Si1 0.164612 0.094922 0.593280
Si Si2 0.971911 0.383476 0.558232
Si Si3 0.836615 0.733006 0.254026
Si Si4 0.433735 0.782194 0.490364
Si Si5 0.131606 0.891087 0.989538
Si Si6 0.836384 0.235335 0.217515
Si Si7 0.436807 0.123310 0.362764
Si Si8 0.830815 0.444798 0.404437
O O1 0.250000 0.085948 0.553445
O O2 0.152028 0.185896 0.629420
O O3 0.111805 0.072606 0.467077
O O4 0.152884 0.051609 0.739498
O O5 0.980006 0.290914 0.547102
O O6 0.964534 0.410436 0.716897
O O7 0.896124 0.400660 0.480128
O O8 0.045352 0.414016 0.487157
O O9 0.750000 0.752150 0.238028
O O10 0.845968 0.665193 0.365188
O O11 0.883317 0.806130 0.311488
O O12 0.874266 0.704340 0.111367
O O13 0.389560 0.762933 0.349698
O O14 0.493314 0.846072 0.449397
O O15 0.172107 0.971397 0.972219
O O16 0.147205 0.840779 0.126852
O O17 0.750000 0.234550 0.256823
O O18 0.750000 0.406634 0.417856
#
# Coordination Sequence:
#
# PCOD9364617 Si02
#       8
#     8   8   8   8   8   8   8   8
#     4  10  21  38  63  93 124 163 214 264 315 377
#     4  11  23  39  64  92 127 171 209 265 317 388
#     4  11  23  37  61  94 129 165 209 263 324 378
#     4  11  22  37  61  95 131 159 210 266 320 371
#     4  12  23  42  64  93 126 168 213 259 321 388
#     4  11  20  37  64  91 126 166 208 258 320 377
#     4  11  22  38  63  93 128 163 211 262 321 377
#     4  11  25  42  64  92 126 166 215 265 320 387
#
# _framework density 21.184446000000001
#
# number of rings (size 3 to 8) (size 9 to 14) (size 15 to 20)
#    0.000    1.000    5.000    2.250    3.500    2.500 
#    0.000    1.250    0.000    1.500    0.000    0.000 
#    0.000    0.000    0.000    0.000    0.000    0.000 
#
# Total GULP energy -178858.128390 kJ/mol
# GULP energy per Si atom -5589.316512 kJ/mol
# Density = 2.113623 g / cm^3
# Si number density = 21.184446 Si / 1000 Ang^3
#
#
#
# Elastic Constant Matrix: (Units=GPa)
#
#
# Indices 1 2 3 4 5 6 
#
# 1 118.3725 1.3150 31.4085 0.0000 0.0000 0.0000
# 2 1.3150 37.7935 1.7504 0.0000 0.0000 0.0000
# 3 31.4085 1.7504 98.8725 0.0000 0.0000 0.0000
# 4 0.0000 0.0000 0.0000 17.6071 0.0000 0.0000
# 5 0.0000 0.0000 0.0000 0.0000 23.4499 0.0000
# 6 0.0000 0.0000 0.0000 0.0000 0.0000 13.2034
#
#
#
# Elastic Compliance Matrix: (Units=1/GPa)
#
#
# Indices 1 2 3 4 5 6 
#
# 1 0.009227 -0.000185 -0.002928 0.000000 0.000000 0.000000
# 2 -0.000185 0.026485 -0.000410 0.000000 0.000000 0.000000
# 3 -0.002928 -0.000410 0.011051 0.000000 0.000000 0.000000
# 4 0.000000 0.000000 0.000000 0.056795 0.000000 0.000000
# 5 0.000000 0.000000 0.000000 0.000000 0.042644 0.000000
# 6 0.000000 0.000000 0.000000 0.000000 0.000000 0.075738
#
#
# Mechanical properties :
#
#
# Convention : Reuss Voigt Hill
#
# Bulk Modulus (GPa) = 25.17823 35.99847 30.58835
# Shear Modulus (GPa) = 20.64189 25.55639 23.09914
#
# Velocity S-wave (km/s) = 3.12491 3.47706 3.30568
# Velocity P-wave (km/s) = 4.99311 5.75758 5.38891
#
# Compressibility (1/GPa) = 0.03971684
#
# Stress axis : x y z
#
# Youngs Moduli (GPa) = 108.37985 37.75716 90.48676
#
# Poissons Ratio (x) = 0.00700 0.26492
# Poissons Ratio (y) = 0.02010 0.03710
# Poissons Ratio (z) = 0.31731 0.01548
#
# Static dielectric constant tensor:
#      x y z
#    x 1.777580 0.000000 0.000000 
#    y 0.000000 1.773840 0.000000 
#    z 0.000000 0.000000 1.753570 
# 
# From -- ./inp_files/7835.got.cif
#   From: 2010.05.17/outbox.cif.g08.bks.cpg/sg40_4_cif.got.tgz:7835.got - 2010.06.03 18:35:42.
