data_PCOD9364994
_publ_section_title
;
Structure prediction by ZEFSAII (Michael W. Deem and Ramdas Pophale) SiO2 
 PCOD9364994
Probable space group: A M A 2
;
_chemical_formula_sum "Si O2"
_cell_formula_units_Z 28
_cell_length_a 14.739523
_cell_length_b 11.968342
_cell_length_c 6.632605
_cell_angle_alpha 90.000000
_cell_angle_beta 90.000000
_cell_angle_gamma 90.000000
_cell_volume 1170.042276
_symmetry_space_group_name_H-M "A M A 2"
_symmetry_group_IT_number 40
_symmetry_cell_setting 'orthorhombic'
loop_
_space_group_symop_operation_xyz
x,y,z
-x,-y,z
1/2-x,y,z
1/2+x,-y,z
x,1/2+y,1/2+z
-x,1/2-y,1/2+z
1/2-x,1/2+y,1/2+z
1/2+x,1/2-y,1/2+z
loop_
_atom_site_type_symbol
_atom_site_label
_atom_site_fract_x
_atom_site_fract_y
_atom_site_fract_z
Si Si1 0.750000 0.042020 0.521080
Si Si2 0.055881 0.405865 0.944919
Si Si3 0.902968 0.820536 0.178767
Si Si4 0.250000 0.791593 0.874063
Si Si5 0.750000 0.458051 0.451602
O O1 0.750000 0.955262 0.707051
O O2 0.844439 0.043938 0.405639
O O3 0.750000 0.159326 0.644297
O O4 0.000000 0.500000 0.066963
O O5 0.993253 0.380488 0.754190
O O6 0.066587 0.291384 0.064603
O O7 0.840789 0.781626 0.371414
O O8 0.837769 0.895562 0.039321
O O9 0.250000 0.907437 0.995249
#
# Coordination Sequence:
#
# PCOD9364994 Si02
#       5
#     4   8   8   4   4
#     4   8  20  44  69  91 142 179 221 278 341 396
#     4  11  25  43  64 108 136 175 239 278 336 423
#     4  10  22  40  70 102 136 182 230 276 346 405
#     4   7  17  39  65  98 132 177 226 261 340 411
#     4   9  19  43  74  99 138 188 223 281 343 411
#
# _framework density 23.930758999999998
#
# number of rings (size 3 to 8) (size 9 to 14) (size 15 to 20)
#    0.857    1.714    0.000    0.857    4.000    4.571 
#    0.000    2.857    0.000    0.000    0.000    0.000 
#    0.000    0.000    0.000    0.000    0.000    0.000 
#
# Total GULP energy -78139.686066 kJ/mol
# GULP energy per Si atom -5581.406148 kJ/mol
# Density = 2.387629 g / cm^3
# Si number density = 23.930759 Si / 1000 Ang^3
#
#
#
# Elastic Constant Matrix: (Units=GPa)
#
#
# Indices 1 2 3 4 5 6 
#
# 1 240.4309 88.3852 78.3691 0.0000 0.0000 0.0000
# 2 88.3852 181.2880 58.3822 0.0000 0.0000 0.0000
# 3 78.3691 58.3822 77.4847 0.0000 0.0000 0.0000
# 4 0.0000 0.0000 0.0000 33.8787 0.0000 0.0000
# 5 0.0000 0.0000 0.0000 0.0000 26.1204 0.0000
# 6 0.0000 0.0000 0.0000 0.0000 0.0000 31.0338
#
#
#
# Elastic Compliance Matrix: (Units=1/GPa)
#
#
# Indices 1 2 3 4 5 6 
#
# 1 0.006456 -0.001379 -0.005490 0.000000 0.000000 0.000000
# 2 -0.001379 0.007578 -0.004315 0.000000 0.000000 0.000000
# 3 -0.005490 -0.004315 0.021710 0.000000 0.000000 0.000000
# 4 0.000000 0.000000 0.000000 0.029517 0.000000 0.000000
# 5 0.000000 0.000000 0.000000 0.000000 0.038284 0.000000
# 6 0.000000 0.000000 0.000000 0.000000 0.000000 0.032223
#
#
# Mechanical properties :
#
#
# Convention : Reuss Voigt Hill
#
# Bulk Modulus (GPa) = 74.76659 105.49739 90.13199
# Shear Modulus (GPa) = 30.75135 36.47775 33.61455
#
# Velocity S-wave (km/s) = 3.58860 3.90847 3.75194
# Velocity P-wave (km/s) = 6.96286 8.03420 7.51764
#
# Compressibility (1/GPa) = 0.01337496
#
# Stress axis : x y z
#
# Youngs Moduli (GPa) = 154.89902 131.95897 46.06266
#
# Poissons Ratio (x) = 0.18203 0.25289
# Poissons Ratio (y) = 0.21367 0.19875
# Poissons Ratio (z) = 0.85042 0.56936
#
# Static dielectric constant tensor:
#      x y z
#    x 1.954740 0.000000 0.000000 
#    y 0.000000 1.973890 0.000000 
#    z 0.000000 0.000000 1.915600 
# 
# From -- ./inp_files/5856.got.cif
#   From: 2010.05.17/outbox.cif.g08.bks.cpg/sg40_3_cif.got.tgz:5856.got - 2010.06.03 18:35:42.
