data_PCOD9364659
_publ_section_title
;
Structure prediction by ZEFSAII (Michael W. Deem and Ramdas Pophale) SiO2 
 PCOD9364659
Probable space group: A M A 2
;
_chemical_formula_sum "Si O2"
_cell_formula_units_Z 60
_cell_length_a 27.953821
_cell_length_b 18.018972
_cell_length_c 5.372250
_cell_angle_alpha 90.000000
_cell_angle_beta 90.000000
_cell_angle_gamma 90.000000
_cell_volume 2705.997586
_symmetry_space_group_name_H-M "A M A 2"
_symmetry_group_IT_number 40
_symmetry_cell_setting 'orthorhombic'
loop_
_space_group_symop_operation_xyz
x,y,z
-x,-y,z
1/2-x,y,z
1/2+x,-y,z
x,1/2+y,1/2+z
-x,1/2-y,1/2+z
1/2-x,1/2+y,1/2+z
1/2+x,1/2-y,1/2+z
loop_
_atom_site_type_symbol
_atom_site_label
_atom_site_fract_x
_atom_site_fract_y
_atom_site_fract_z
Si Si1 0.625670 0.269082 0.951340
Si Si2 0.691558 0.393369 0.166787
Si Si3 0.916999 0.100048 0.537800
Si Si4 0.547433 0.855126 0.161947
Si Si5 0.044500 0.762778 0.327691
Si Si6 0.305870 0.027675 0.164107
Si Si7 0.500000 0.500000 0.848033
Si Si8 0.858884 0.608581 0.515418
O O1 0.662934 0.318820 0.104606
O O2 0.598380 0.326477 0.765859
O O3 0.653386 0.190970 0.910858
O O4 0.581378 0.234352 0.104148
O O5 0.750000 0.384497 0.167349
O O6 0.677772 0.449972 0.941437
O O7 0.675185 0.422321 0.436470
O O8 0.932588 0.186970 0.547333
O O9 0.889803 0.077402 0.785801
O O10 0.963105 0.048950 0.504155
O O11 0.887639 0.098858 0.277791
O O12 0.505129 0.803418 0.278487
O O13 0.532068 0.939605 0.198683
O O14 0.543036 0.824520 0.882886
O O15 0.250000 0.042539 0.170763
O O16 0.314602 0.944079 0.075733
#
# Coordination Sequence:
#
# PCOD9364659 Si02
#       8
#     8   8   8   8   8   8   4   8
#     4  11  24  38  66  92 124 175 211 271 322 389
#     4  10  24  44  66  97 131 164 211 268 326 389
#     4  10  23  42  58  93 124 162 206 270 303 375
#     4  11  21  41  57  88 126 173 214 271 316 385
#     4  10  21  39  62  84 129 169 219 257 328 371
#     4  10  23  44  67  93 130 166 203 264 329 385
#     4  10  26  38  58  90 126 166 222 260 320 362
#     4  11  23  40  66  91 124 160 213 254 315 382
#
# _framework density 22.172968000000001
#
# number of rings (size 3 to 8) (size 9 to 14) (size 15 to 20)
#    0.000    1.600    2.667    0.800    5.600    1.067 
#    0.000    0.000    0.000    5.600    0.000    0.000 
#    0.000    0.000    0.000    0.000    0.000    0.000 
#
# Total GULP energy -167075.631220 kJ/mol
# GULP energy per Si atom -5569.187707 kJ/mol
# Density = 2.212250 g / cm^3
# Si number density = 22.172968 Si / 1000 Ang^3
#
#
#
# Elastic Constant Matrix: (Units=GPa)
#
#
# Indices 1 2 3 4 5 6 
#
# 1 11.3491 10.7295 16.1155 0.0000 0.0000 0.0000
# 2 10.7295 100.6560 8.8219 0.0000 0.0000 0.0000
# 3 16.1155 8.8219 85.0889 0.0000 0.0000 0.0000
# 4 0.0000 0.0000 0.0000 27.3088 0.0000 0.0000
# 5 0.0000 0.0000 0.0000 0.0000 29.5226 0.0000
# 6 0.0000 0.0000 0.0000 0.0000 0.0000 34.9192
#
#
#
# Elastic Compliance Matrix: (Units=1/GPa)
#
#
# Indices 1 2 3 4 5 6 
#
# 1 0.133794 -0.012151 -0.024080 0.000000 0.000000 0.000000
# 2 -0.012151 0.011130 0.001148 0.000000 0.000000 0.000000
# 3 -0.024080 0.001148 0.016194 0.000000 0.000000 0.000000
# 4 0.000000 0.000000 0.000000 0.036618 0.000000 0.000000
# 5 0.000000 0.000000 0.000000 0.000000 0.033872 0.000000
# 6 0.000000 0.000000 0.000000 0.000000 0.000000 0.028638
#
#
# Mechanical properties :
#
#
# Convention : Reuss Voigt Hill
#
# Bulk Modulus (GPa) = 10.99513 29.82532 20.41022
# Shear Modulus (GPa) = 13.86080 29.11193 21.48636
#
# Velocity S-wave (km/s) = 2.50296 3.62739 3.11631
# Velocity P-wave (km/s) = 3.65002 5.56995 4.70887
#
# Compressibility (1/GPa) = 0.09094937
#
# Stress axis : x y z
#
# Youngs Moduli (GPa) = 7.47420 89.85098 61.75092
#
# Poissons Ratio (x) = 1.09181 1.48697
# Poissons Ratio (y) = 0.09082 -0.07086
# Poissons Ratio (z) = 0.17998 -0.10311
#
# Static dielectric constant tensor:
#      x y z
#    x 1.606640 0.000000 0.000000 
#    y 0.000000 1.766790 0.000000 
#    z 0.000000 0.000000 1.908210 
# 
# From -- ./inp_files/3467.got.cif
#   From: 2010.05.17/outbox.cif.g08.bks.cpg/sg40_2_cif.got.tgz:3467.got - 2010.06.03 18:35:42.
