data_PCOD9364803
_publ_section_title
;
Structure prediction by ZEFSAII (Michael W. Deem and Ramdas Pophale) SiO2 
 PCOD9364803
Probable space group: A M A 2
;
_chemical_formula_sum "Si O2"
_cell_formula_units_Z 52
_cell_length_a 7.569484
_cell_length_b 18.426949
_cell_length_c 16.543628
_cell_angle_alpha 90.000000
_cell_angle_beta 90.000000
_cell_angle_gamma 90.000000
_cell_volume 2307.546520
_symmetry_space_group_name_H-M "A M A 2"
_symmetry_group_IT_number 40
_symmetry_cell_setting 'orthorhombic'
loop_
_space_group_symop_operation_xyz
x,y,z
-x,-y,z
1/2-x,y,z
1/2+x,-y,z
x,1/2+y,1/2+z
-x,1/2-y,1/2+z
1/2-x,1/2+y,1/2+z
1/2+x,1/2-y,1/2+z
loop_
_atom_site_type_symbol
_atom_site_label
_atom_site_fract_x
_atom_site_fract_y
_atom_site_fract_z
Si Si1 0.958430 0.418903 0.924480
Si Si2 0.036299 0.209684 0.822277
Si Si3 0.250000 0.390094 0.610042
Si Si4 0.549162 0.175458 0.570734
Si Si5 0.044760 0.634194 0.750332
Si Si6 0.037536 0.672257 0.508693
Si Si7 0.944888 0.917757 0.716106
O O1 0.750000 0.405733 0.929869
O O2 0.008419 0.409716 0.831256
O O3 0.000000 0.500000 0.952724
O O4 0.047078 0.360544 0.982523
O O5 0.250000 0.215814 0.812395
O O6 0.964048 0.138663 0.776316
O O7 0.962889 0.282124 0.780681
O O8 0.002879 0.198129 0.917025
O O9 0.406812 0.382929 0.680266
O O10 0.407569 0.389354 0.539526
O O11 0.750000 0.177717 0.599989
O O12 0.484450 0.257612 0.563785
O O13 0.445906 0.123702 0.630837
O O14 0.250000 0.617518 0.728526
O O15 0.250000 0.659892 0.516594
O O16 0.750000 0.924079 0.750554
O O17 0.000000 0.000000 0.704814
#
# Coordination Sequence:
#
# PCOD9364803 Si02
#       7
#     8   8   4   8   8   8   8
#     4  11  24  39  63  93 130 175 214 258 321 401
#     4  10  21  41  66  93 129 169 216 273 324 388
#     4  12  24  38  66  90 128 168 212 278 324 374
#     4  11  22  37  60  91 136 171 213 259 314 393
#     4  11  24  40  64  98 130 168 217 266 331 393
#     4  10  23  40  64  99 129 168 218 267 329 387
#     4  11  24  40  61  91 130 175 216 264 322 388
#
# _framework density 22.534756000000002
#
# number of rings (size 3 to 8) (size 9 to 14) (size 15 to 20)
#    0.000    1.231    2.308    3.231    7.538    2.462 
#    0.000    0.000    0.000    0.923    4.000    0.000 
#    0.000    0.000    0.000    0.000    0.000    0.000 
#
# Total GULP energy -144780.048204 kJ/mol
# GULP energy per Si atom -5568.463392 kJ/mol
# Density = 2.248347 g / cm^3
# Si number density = 22.534756 Si / 1000 Ang^3
#
#
#
# Elastic Constant Matrix: (Units=GPa)
#
#
# Indices 1 2 3 4 5 6 
#
# 1 80.7943 -6.4613 8.8899 0.0000 0.0000 0.0000
# 2 -6.4613 22.8078 2.6622 0.0000 0.0000 0.0000
# 3 8.8899 2.6622 61.4295 0.0000 0.0000 0.0000
# 4 0.0000 0.0000 0.0000 23.5976 0.0000 0.0000
# 5 0.0000 0.0000 0.0000 0.0000 -7.5079 0.0000
# 6 0.0000 0.0000 0.0000 0.0000 0.0000 -208.6253
#
#
#
# Elastic Compliance Matrix: (Units=1/GPa)
#
#
# Indices 1 2 3 4 5 6 
#
# 1 0.012913 0.003896 -0.002038 0.000000 0.000000 0.000000
# 2 0.003896 0.045243 -0.002525 0.000000 0.000000 0.000000
# 3 -0.002038 -0.002525 0.016683 0.000000 0.000000 0.000000
# 4 0.000000 0.000000 0.000000 0.042377 0.000000 0.000000
# 5 0.000000 0.000000 0.000000 0.000000 -0.133193 0.000000
# 6 0.000000 0.000000 0.000000 0.000000 0.000000 -0.004793
#
#
# Mechanical properties :
#
#
# Convention : Reuss Voigt Hill
#
# Bulk Modulus (GPa) = 13.60417 19.46813 16.53615
# Shear Modulus (GPa) = 987.28465 -27.84439 479.72013
#
# Velocity S-wave (km/s) = 20.95394 -3.51895 14.60624
# Velocity P-wave (km/s) = 24.32023 2.80228 17.08246
#
# Compressibility (1/GPa) = 0.07350686
#
# Stress axis : x y z
#
# Youngs Moduli (GPa) = 77.44210 22.10281 59.94090
#
# Poissons Ratio (x) = -0.08611 0.12213
# Poissons Ratio (y) = -0.30171 0.15132
# Poissons Ratio (z) = 0.15779 0.05580
#
# Static dielectric constant tensor:
#      x y z
#    x 1.851100 0.000000 0.000000 
#    y 0.000000 1.888950 0.000000 
#    z 0.000000 0.000000 1.838020 
# 
# From -- ./inp_files/15244.got.cif
#   From: 2010.05.17/outbox.cif.g08.bks.cpg/sg40_8_cif.got.tgz:15244.got - 2010.06.03 18:35:42.
