data_PCOD9364520
_publ_section_title
;
Structure prediction by ZEFSAII (Michael W. Deem and Ramdas Pophale) SiO2 
 PCOD9364520
Probable space group: A M A 2
;
_chemical_formula_sum "Si O2"
_cell_formula_units_Z 64
_cell_length_a 20.916301
_cell_length_b 15.789651
_cell_length_c 10.138888
_cell_angle_alpha 90.000000
_cell_angle_beta 90.000000
_cell_angle_gamma 90.000000
_cell_volume 3348.480233
_symmetry_space_group_name_H-M "A M A 2"
_symmetry_group_IT_number 40
_symmetry_cell_setting 'orthorhombic'
loop_
_space_group_symop_operation_xyz
x,y,z
-x,-y,z
1/2-x,y,z
1/2+x,-y,z
x,1/2+y,1/2+z
-x,1/2-y,1/2+z
1/2-x,1/2+y,1/2+z
1/2+x,1/2-y,1/2+z
loop_
_atom_site_type_symbol
_atom_site_label
_atom_site_fract_x
_atom_site_fract_y
_atom_site_fract_z
Si Si1 0.676972 0.547397 0.913120
Si Si2 0.027545 0.406134 0.151107
Si Si3 0.097496 0.165091 0.768220
Si Si4 0.673402 0.369426 0.011223
Si Si5 0.076888 0.986889 0.897680
Si Si6 0.324560 0.677524 0.715287
Si Si7 0.325314 0.981345 0.126130
Si Si8 0.882650 0.704431 0.001230
O O1 0.750000 0.521235 0.889137
O O2 0.651432 0.557812 0.765122
O O3 0.650131 0.467612 0.994398
O O4 0.673535 0.636544 0.983506
O O5 0.075931 0.424487 0.272066
O O6 0.058730 0.358387 0.030058
O O7 0.000000 0.500000 0.120029
O O8 0.973130 0.345455 0.209145
O O9 0.142945 0.169446 0.641446
O O10 0.104849 0.076377 0.846783
O O11 0.107648 0.239083 0.872519
O O12 0.750000 0.366993 0.026232
O O13 0.657689 0.327136 0.870045
O O14 0.123773 0.958604 0.013687
O O15 0.000000 0.000000 0.930844
O O16 0.250000 0.703677 0.706562
O O17 0.327803 0.582310 0.656069
O O18 0.368381 0.736748 0.626157
O O19 0.250000 0.960035 0.097075
#
# Coordination Sequence:
#
# PCOD9364520 Si02
#       8
#     8   8   8   8   8   8   8   8
#     4   9  19  35  56  85 118 152 192 236 285 347
#     4   9  22  41  58  76 116 155 196 246 291 352
#     4  10  21  37  59  88 110 146 201 244 296 340
#     4   9  19  38  61  84 117 158 190 229 290 365
#     4   9  18  38  59  82 115 156 201 246 288 356
#     4   9  19  35  59  89 122 151 185 238 299 353
#     4   9  17  35  59  86 119 155 196 239 291 359
#     4  12  21  37  61  86 114 151 194 248 294 344
#
# _framework density 19.113147999999999
#
# number of rings (size 3 to 8) (size 9 to 14) (size 15 to 20)
#    0.000    2.750    1.250    3.375    0.000    2.500 
#    6.750    4.375    0.000    0.000    0.000    0.000 
#    0.000    0.000    0.000    0.000    0.000    0.000 
#
# Total GULP energy -178214.894037 kJ/mol
# GULP energy per Si atom -5569.215439 kJ/mol
# Density = 1.906965 g / cm^3
# Si number density = 19.113148 Si / 1000 Ang^3
#
#
#
# Elastic Constant Matrix: (Units=GPa)
#
#
# Indices 1 2 3 4 5 6 
#
# 1 44.6514 24.7376 54.0890 0.0000 0.0000 0.0000
# 2 24.7376 74.4571 56.9305 0.0000 0.0000 0.0000
# 3 54.0890 56.9305 135.5685 0.0000 0.0000 0.0000
# 4 0.0000 0.0000 0.0000 28.2048 0.0000 0.0000
# 5 0.0000 0.0000 0.0000 0.0000 22.1627 0.0000
# 6 0.0000 0.0000 0.0000 0.0000 0.0000 11.0132
#
#
#
# Elastic Compliance Matrix: (Units=1/GPa)
#
#
# Indices 1 2 3 4 5 6 
#
# 1 0.043497 -0.001741 -0.016623 0.000000 0.000000 0.000000
# 2 -0.001741 0.019852 -0.007642 0.000000 0.000000 0.000000
# 3 -0.016623 -0.007642 0.017218 0.000000 0.000000 0.000000
# 4 0.000000 0.000000 0.000000 0.035455 0.000000 0.000000
# 5 0.000000 0.000000 0.000000 0.000000 0.045121 0.000000
# 6 0.000000 0.000000 0.000000 0.000000 0.000000 0.090800
#
#
# Mechanical properties :
#
#
# Convention : Reuss Voigt Hill
#
# Bulk Modulus (GPa) = 35.02106 58.46568 46.74337
# Shear Modulus (GPa) = 15.95032 20.20416 18.07724
#
# Velocity S-wave (km/s) = 2.89194 3.25481 3.07872
# Velocity P-wave (km/s) = 5.43267 6.69184 6.09486
#
# Compressibility (1/GPa) = 0.02855424
#
# Stress axis : x y z
#
# Youngs Moduli (GPa) = 22.99006 50.37233 58.07930
#
# Poissons Ratio (x) = 0.08771 0.96547
# Poissons Ratio (y) = 0.04003 0.44384
# Poissons Ratio (z) = 0.38217 0.38495
#
# Static dielectric constant tensor:
#      x y z
#    x 1.748450 0.000000 0.000000 
#    y 0.000000 1.668670 0.000000 
#    z 0.000000 0.000000 1.685940 
# 
# From -- ./inp_files/8909.got.cif
#   From: 2010.05.17/outbox.cif.g08.bks.cpg/sg40_5_cif.got.tgz:8909.got - 2010.06.03 18:35:42.
