data_PCOD9364799
_publ_section_title
;
Structure prediction by ZEFSAII (Michael W. Deem and Ramdas Pophale) SiO2 
 PCOD9364799
Probable space group: A M A 2
;
_chemical_formula_sum "Si O2"
_cell_formula_units_Z 64
_cell_length_a 19.724494
_cell_length_b 9.283893
_cell_length_c 18.427842
_cell_angle_alpha 90.000000
_cell_angle_beta 90.000000
_cell_angle_gamma 90.000000
_cell_volume 3374.508118
_symmetry_space_group_name_H-M "A M A 2"
_symmetry_group_IT_number 40
_symmetry_cell_setting 'orthorhombic'
loop_
_space_group_symop_operation_xyz
x,y,z
-x,-y,z
1/2-x,y,z
1/2+x,-y,z
x,1/2+y,1/2+z
-x,1/2-y,1/2+z
1/2-x,1/2+y,1/2+z
1/2+x,1/2-y,1/2+z
loop_
_atom_site_type_symbol
_atom_site_label
_atom_site_fract_x
_atom_site_fract_y
_atom_site_fract_z
Si Si1 0.535697 0.648459 0.049540
Si Si2 0.075849 0.940198 0.803433
Si Si3 0.605594 0.602528 0.724308
Si Si4 0.670827 0.795544 0.837576
Si Si5 0.540986 0.793384 0.199596
Si Si6 0.671237 0.566300 0.569333
Si Si7 0.049637 0.859591 0.962235
Si Si8 0.326872 0.254938 0.008463
O O1 0.500000 0.500000 0.070614
O O2 0.533649 0.763852 0.114528
O O3 0.614762 0.634994 0.031053
O O4 0.495147 0.721982 0.983621
O O5 0.083056 0.834406 0.736031
O O6 0.075844 0.856629 0.880024
O O7 0.128572 0.069221 0.808375
O O8 0.000000 0.000000 0.797162
O O9 0.647268 0.654117 0.793918
O O10 0.577639 0.440385 0.721108
O O11 0.536938 0.697505 0.725104
O O12 0.649097 0.613515 0.650206
O O13 0.750000 0.818801 0.825375
O O14 0.660215 0.784413 0.924118
O O15 0.750000 0.606720 0.555028
O O16 0.614116 0.627780 0.515196
O O17 0.667885 0.392926 0.555153
O O18 0.000000 0.000000 0.969939
O O19 0.250000 0.308936 0.015117
#
# Coordination Sequence:
#
# PCOD9364799 Si02
#       8
#     8   8   8   8   8   8   8   8
#     4  12  24  39  63  95 129 167 214 269 322 374
#     4  11  21  38  60  90 125 163 210 259 320 379
#     4  11  22  39  61  92 128 163 213 261 313 383
#     4  11  23  41  66  95 128 165 210 267 324 385
#     4  11  23  38  61  89 128 169 206 263 319 373
#     4  11  20  36  65  91 117 161 214 259 307 377
#     4  11  20  38  62  90 121 161 215 264 307 382
#     4  10  21  41  66  92 125 166 210 259 323 384
#
# _framework density 18.965727000000001
#
# number of rings (size 3 to 8) (size 9 to 14) (size 15 to 20)
#    0.000    1.000    6.250    1.500    0.000    1.000 
#    0.000    2.500    0.000    0.000    0.000    0.000 
#    0.000    0.000    0.000    0.000    0.000    0.000 
#
# Total GULP energy -178597.586465 kJ/mol
# GULP energy per Si atom -5581.174577 kJ/mol
# Density = 1.892256 g / cm^3
# Si number density = 18.965727 Si / 1000 Ang^3
#
#
#
# Elastic Constant Matrix: (Units=GPa)
#
#
# Indices 1 2 3 4 5 6 
#
# 1 117.8907 24.9060 0.6791 0.0000 0.0000 0.0000
# 2 24.9060 45.5324 14.0907 0.0000 0.0000 0.0000
# 3 0.6791 14.0907 32.7737 0.0000 0.0000 0.0000
# 4 0.0000 0.0000 0.0000 20.9290 0.0000 0.0000
# 5 0.0000 0.0000 0.0000 0.0000 26.3076 0.0000
# 6 0.0000 0.0000 0.0000 0.0000 0.0000 22.9789
#
#
#
# Elastic Compliance Matrix: (Units=1/GPa)
#
#
# Indices 1 2 3 4 5 6 
#
# 1 0.009753 -0.006082 0.002413 0.000000 0.000000 0.000000
# 2 -0.006082 0.029125 -0.012396 0.000000 0.000000 0.000000
# 3 0.002413 -0.012396 0.035792 0.000000 0.000000 0.000000
# 4 0.000000 0.000000 0.000000 0.047781 0.000000 0.000000
# 5 0.000000 0.000000 0.000000 0.000000 0.038012 0.000000
# 6 0.000000 0.000000 0.000000 0.000000 0.000000 0.043518
#
#
# Mechanical properties :
#
#
# Convention : Reuss Voigt Hill
#
# Bulk Modulus (GPa) = 23.50714 30.61647 27.06181
# Shear Modulus (GPa) = 19.97672 24.47781 22.22727
#
# Velocity S-wave (km/s) = 3.24899 3.59644 3.42712
# Velocity P-wave (km/s) = 5.14743 5.78134 5.47357
#
# Compressibility (1/GPa) = 0.04254027
#
# Stress axis : x y z
#
# Youngs Moduli (GPa) = 102.52865 34.33455 27.93932
#
# Poissons Ratio (x) = 0.20881 -0.06741
# Poissons Ratio (y) = 0.62355 0.34634
# Poissons Ratio (z) = -0.24737 0.42561
#
# Static dielectric constant tensor:
#      x y z
#    x 1.656080 0.000000 0.000000 
#    y 0.000000 1.662620 0.000000 
#    z 0.000000 0.000000 1.670310 
# 
# From -- ./inp_files/21409.got.cif
#   From: 2010.05.17/outbox.cif.g08.bks.cpg/sg40_11_cif.got.tgz:21409.got - 2010.06.03 18:35:42.
