data_PCOD9364933
_publ_section_title
;
Structure prediction by ZEFSAII (Michael W. Deem and Ramdas Pophale) SiO2 
 PCOD9364933
Probable space group: A M A 2
;
_chemical_formula_sum "Si O2"
_cell_formula_units_Z 64
_cell_length_a 18.334755
_cell_length_b 32.292072
_cell_length_c 5.408540
_cell_angle_alpha 90.000000
_cell_angle_beta 90.000000
_cell_angle_gamma 90.000000
_cell_volume 3202.219288
_symmetry_space_group_name_H-M "A M A 2"
_symmetry_group_IT_number 40
_symmetry_cell_setting 'orthorhombic'
loop_
_space_group_symop_operation_xyz
x,y,z
-x,-y,z
1/2-x,y,z
1/2+x,-y,z
x,1/2+y,1/2+z
-x,1/2-y,1/2+z
1/2-x,1/2+y,1/2+z
1/2+x,1/2-y,1/2+z
loop_
_atom_site_type_symbol
_atom_site_label
_atom_site_fract_x
_atom_site_fract_y
_atom_site_fract_z
Si Si1 0.327982 0.749082 0.951360
Si Si2 0.078840 0.804117 0.210300
Si Si3 0.054737 0.595867 0.275259
Si Si4 0.568854 0.275149 0.566132
Si Si5 0.669017 0.831353 0.798933
Si Si6 0.834370 0.534648 0.776810
Si Si7 0.041185 0.896494 0.283011
Si Si8 0.334692 0.519256 0.275856
O O1 0.250000 0.752227 0.816541
O O2 0.405088 0.744545 0.818928
O O3 0.343315 0.792046 0.094531
O O4 0.325405 0.707267 0.111488
O O5 0.067678 0.764362 0.388441
O O6 0.073767 0.850119 0.313893
O O7 0.004443 0.800988 0.050885
O O8 0.110106 0.634318 0.232401
O O9 0.106649 0.555796 0.290064
O O10 0.008364 0.600602 0.531349
O O11 0.004551 0.593788 0.031270
O O12 0.635071 0.307466 0.530548
O O13 0.750000 0.848336 0.838880
O O14 0.750000 0.549214 0.788064
O O15 0.892863 0.571140 0.764121
O O16 0.841636 0.507681 0.526147
O O17 0.846796 0.507441 0.025598
O O18 0.250000 0.534252 0.265464
#
# Coordination Sequence:
#
# PCOD9364933 Si02
#       8
#     8   8   8   8   8   8   8   8
#     4  10  22  39  60  87 119 165 220 271 319 377
#     4  11  23  36  62  86 124 171 212 266 319 380
#     4  12  25  41  65 102 133 166 212 263 320 391
#     4  11  20  38  62  85 121 171 215 262 324 378
#     4  10  22  39  60  90 130 166 211 267 324 383
#     4  10  23  46  70  93 128 173 213 263 324 381
#     4  12  27  41  66  98 134 165 220 267 320 381
#     4  10  22  44  71  97 130 171 212 254 323 394
#
# _framework density 19.986136999999999
#
# number of rings (size 3 to 8) (size 9 to 14) (size 15 to 20)
#    0.000    1.250    2.500    3.000    3.500    4.000 
#    0.000    1.250    0.000    0.000    0.000    0.000 
#    0.000    0.000    0.000    0.000    0.000    0.000 
#
# Total GULP energy -178185.925018 kJ/mol
# GULP energy per Si atom -5568.310157 kJ/mol
# Density = 1.994065 g / cm^3
# Si number density = 19.986137 Si / 1000 Ang^3
#
#
#
# Elastic Constant Matrix: (Units=GPa)
#
#
# Indices 1 2 3 4 5 6 
#
# 1 131.6802 71.2617 40.2085 0.0000 0.0000 0.0000
# 2 71.2617 110.9396 28.9186 0.0000 0.0000 0.0000
# 3 40.2085 28.9186 89.5336 0.0000 0.0000 0.0000
# 4 0.0000 0.0000 0.0000 9.4074 0.0000 0.0000
# 5 0.0000 0.0000 0.0000 0.0000 25.7906 0.0000
# 6 0.0000 0.0000 0.0000 0.0000 0.0000-9039.1782
#
#
#
# Elastic Compliance Matrix: (Units=1/GPa)
#
#
# Indices 1 2 3 4 5 6 
#
# 1 0.012469 -0.007152 -0.003290 0.000000 0.000000 0.000000
# 2 -0.007152 0.013945 -0.001292 0.000000 0.000000 0.000000
# 3 -0.003290 -0.001292 0.013064 0.000000 0.000000 0.000000
# 4 0.000000 0.000000 0.000000 0.106300 0.000000 0.000000
# 5 0.000000 0.000000 0.000000 0.000000 0.038774 0.000000
# 6 0.000000 0.000000 0.000000 0.000000 0.000000 -0.000111
#
#
# Mechanical properties :
#
#
# Convention : Reuss Voigt Hill
#
# Bulk Modulus (GPa) = 62.46130 68.10344 65.28237
# Shear Modulus (GPa) = 23.44724 -1788.01174 -882.28225
#
# Velocity S-wave (km/s) = 3.42888 -29.94275 -21.03344
# Velocity P-wave (km/s) = 6.85540 34.07748 23.60380
#
# Compressibility (1/GPa) = 0.01600991
#
# Stress axis : x y z
#
# Youngs Moduli (GPa) = 80.19804 71.71132 76.54779
#
# Poissons Ratio (x) = 0.51288 0.25182
# Poissons Ratio (y) = 0.57357 0.09891
# Poissons Ratio (z) = 0.26383 0.09266
#
# Static dielectric constant tensor:
#      x y z
#    x 1.678830 0.000000 0.000000 
#    y 0.000000 1.694520 0.000000 
#    z 0.000000 0.000000 1.830980 
# 
# From -- ./inp_files/2026.got.cif
#   From: 2010.05.17/outbox.cif.g08.bks.cpg/sg40_2_cif.got.tgz:2026.got - 2010.06.03 18:35:42.
