data_PCOD9364807
_publ_section_title
;
Structure prediction by ZEFSAII (Michael W. Deem and Ramdas Pophale) SiO2 
 PCOD9364807
Probable space group: A M A 2
;
_chemical_formula_sum "Si O2"
_cell_formula_units_Z 40
_cell_length_a 17.630191
_cell_length_b 8.866994
_cell_length_c 11.590744
_cell_angle_alpha 90.000000
_cell_angle_beta 90.000000
_cell_angle_gamma 90.000000
_cell_volume 1811.943894
_symmetry_space_group_name_H-M "A M A 2"
_symmetry_group_IT_number 40
_symmetry_cell_setting 'orthorhombic'
loop_
_space_group_symop_operation_xyz
x,y,z
-x,-y,z
1/2-x,y,z
1/2+x,-y,z
x,1/2+y,1/2+z
-x,1/2-y,1/2+z
1/2-x,1/2+y,1/2+z
1/2+x,1/2-y,1/2+z
loop_
_atom_site_type_symbol
_atom_site_label
_atom_site_fract_x
_atom_site_fract_y
_atom_site_fract_z
Si Si1 0.086485 0.290450 0.849330
Si Si2 0.750000 0.122300 0.084556
Si Si3 0.500000 0.000000 0.784322
Si Si4 0.601103 0.163615 0.601178
Si Si5 0.250000 0.385764 0.839045
Si Si6 0.587859 0.013717 0.111687
Si Si7 0.750000 0.472768 0.069254
O O1 0.177058 0.284363 0.859716
O O2 0.076401 0.391145 0.732640
O O3 0.052078 0.124487 0.844630
O O4 0.063909 0.358676 0.973696
O O5 0.662173 0.085580 0.044300
O O6 0.750000 0.301219 0.105961
O O7 0.750000 0.049092 0.211542
O O8 0.450425 0.896699 0.701662
O O9 0.612640 0.340315 0.623332
O O10 0.676812 0.065391 0.606109
O O11 0.250000 0.520367 0.930063
O O12 0.500000 0.000000 0.066334
#
# Coordination Sequence:
#
# PCOD9364807 Si02
#       7
#     8   4   4   8   4   8   4
#     4  10  23  41  63  90 129 164 214 271 317 383
#     4  10  21  41  67  90 138 167 207 284 324 385
#     4  12  24  36  60  96 122 172 208 252 324 386
#     4  11  24  40  66  92 127 165 216 267 322 387
#     4   8  18  40  62  88 118 160 210 266 316 374
#     4  11  22  42  65  96 130 172 215 266 332 390
#     4  10  21  41  67  96 118 169 223 264 332 389
#
# _framework density 22.07574
#
# number of rings (size 3 to 8) (size 9 to 14) (size 15 to 20)
#    0.000    1.600    2.000    3.000    2.800    0.000 
#    0.000    6.000    0.000   16.800    0.000    1.400 
#    0.000    0.000    0.000    0.000    0.000    0.000 
#
# Total GULP energy -111366.635505 kJ/mol
# GULP energy per Si atom -5568.331775 kJ/mol
# Density = 2.202549 g / cm^3
# Si number density = 22.075740 Si / 1000 Ang^3
#
#
#
# Elastic Constant Matrix: (Units=GPa)
#
#
# Indices 1 2 3 4 5 6 
#
# 1 102.5983 37.6480 7.4864 0.0000 0.0000 0.0000
# 2 37.6480 133.5728 -0.2007 0.0000 0.0000 0.0000
# 3 7.4864 -0.2007 49.1917 0.0000 0.0000 0.0000
# 4 0.0000 0.0000 0.0000 37.9901 0.0000 0.0000
# 5 0.0000 0.0000 0.0000 0.0000 0.1543 0.0000
# 6 0.0000 0.0000 0.0000 0.0000 0.0000 45.0600
#
#
#
# Elastic Compliance Matrix: (Units=1/GPa)
#
#
# Indices 1 2 3 4 5 6 
#
# 1 0.011010 -0.003106 -0.001688 0.000000 0.000000 0.000000
# 2 -0.003106 0.008363 0.000507 0.000000 0.000000 0.000000
# 3 -0.001688 0.000507 0.020588 0.000000 0.000000 0.000000
# 4 0.000000 0.000000 0.000000 0.026323 0.000000 0.000000
# 5 0.000000 0.000000 0.000000 0.000000 6.479631 0.000000
# 6 0.000000 0.000000 0.000000 0.000000 0.000000 0.022193
#
#
# Mechanical properties :
#
#
# Convention : Reuss Voigt Hill
#
# Bulk Modulus (GPa) = 31.86163 41.69224 36.77694
# Shear Modulus (GPa) = 0.75905 32.66950 16.71428
#
# Velocity S-wave (km/s) = 0.58702 3.85110 2.75459
# Velocity P-wave (km/s) = 3.86311 6.22106 5.17809
#
# Compressibility (1/GPa) = 0.03138571
#
# Stress axis : x y z
#
# Youngs Moduli (GPa) = 90.83043 119.57933 48.57285
#
# Poissons Ratio (x) = 0.37137 0.08200
# Poissons Ratio (y) = 0.28208 -0.02461
# Poissons Ratio (z) = 0.15334 -0.06060
#
# Static dielectric constant tensor:
#      x y z
#    x 1.894690 0.000000 0.000000 
#    y 0.000000 1.671420 0.000000 
#    z 0.000000 0.000000 1.926910 
# 
# From -- ./inp_files/12753.got.cif
#   From: 2010.05.17/outbox.cif.g08.bks.cpg/sg40_7_cif.got.tgz:12753.got - 2010.06.03 18:35:42.
