data_PCOD9364291
_publ_section_title
;
Structure prediction by ZEFSAII (Michael W. Deem and Ramdas Pophale) SiO2 
 PCOD9364291
Probable space group: A M A 2
;
_chemical_formula_sum "Si O2"
_cell_formula_units_Z 56
_cell_length_a 19.306473
_cell_length_b 16.029978
_cell_length_c 9.655494
_cell_angle_alpha 90.000000
_cell_angle_beta 90.000000
_cell_angle_gamma 90.000000
_cell_volume 2988.204852
_symmetry_space_group_name_H-M "A M A 2"
_symmetry_group_IT_number 40
_symmetry_cell_setting 'orthorhombic'
loop_
_space_group_symop_operation_xyz
x,y,z
-x,-y,z
1/2-x,y,z
1/2+x,-y,z
x,1/2+y,1/2+z
-x,1/2-y,1/2+z
1/2-x,1/2+y,1/2+z
1/2+x,1/2-y,1/2+z
loop_
_atom_site_type_symbol
_atom_site_label
_atom_site_fract_x
_atom_site_fract_y
_atom_site_fract_z
Si Si1 0.831719 0.688389 0.990950
Si Si2 0.416815 0.795708 0.209371
Si Si3 0.547368 0.891287 0.633152
Si Si4 0.606801 0.560974 0.203118
Si Si5 0.168424 0.334190 0.442751
Si Si6 0.963061 0.412171 0.802068
Si Si7 0.831187 0.320134 0.733948
O O1 0.750000 0.684121 0.964717
O O2 0.874026 0.696277 0.850709
O O3 0.856068 0.606624 0.074748
O O4 0.844119 0.766696 0.094231
O O5 0.427784 0.699769 0.171382
O O6 0.489828 0.840552 0.234531
O O7 0.375508 0.835520 0.081866
O O8 0.472519 0.906914 0.702036
O O9 0.537196 0.902109 0.468453
O O10 0.600337 0.962420 0.682997
O O11 0.645031 0.592597 0.339586
O O12 0.250000 0.339380 0.470920
O O13 0.156608 0.247402 0.357695
O O14 0.884869 0.395573 0.751004
O O15 0.000000 0.500000 0.769689
O O16 0.750000 0.343959 0.737457
#
# Coordination Sequence:
#
# PCOD9364291 Si02
#       7
#     8   8   8   8   8   8   8
#     4  10  20  39  65  92 126 169 210 256 320 385
#     4  12  23  38  65  95 130 164 205 277 321 376
#     4  11  22  38  64  93 123 159 219 266 318 379
#     4  10  20  41  64  89 121 164 214 262 308 386
#     4  10  21  40  63  94 129 167 211 258 319 382
#     4  12  23  42  64  94 127 166 219 270 319 383
#     4   9  20  39  65  91 123 167 215 256 313 390
#
# _framework density 18.740348000000001
#
# number of rings (size 3 to 8) (size 9 to 14) (size 15 to 20)
#    0.000    1.429    4.286    3.429    0.000    0.000 
#    5.143    7.143    0.000    0.000    0.000    0.000 
#    0.000    0.000    0.000    0.000    0.000    0.000 
#
# Total GULP energy -156434.604824 kJ/mol
# GULP energy per Si atom -5586.950172 kJ/mol
# Density = 1.869769 g / cm^3
# Si number density = 18.740348 Si / 1000 Ang^3
#
#
#
# Elastic Constant Matrix: (Units=GPa)
#
#
# Indices 1 2 3 4 5 6 
#
# 1 89.1328 42.1563 33.5458 0.0000 0.0000 0.0000
# 2 42.1563 112.2218 25.9322 0.0000 0.0000 0.0000
# 3 33.5458 25.9322 88.7502 0.0000 0.0000 0.0000
# 4 0.0000 0.0000 0.0000 8.9189 0.0000 0.0000
# 5 0.0000 0.0000 0.0000 0.0000 4.1002 0.0000
# 6 0.0000 0.0000 0.0000 0.0000 0.0000 36.9549
#
#
#
# Elastic Compliance Matrix: (Units=1/GPa)
#
#
# Indices 1 2 3 4 5 6 
#
# 1 0.015049 -0.004653 -0.004329 0.000000 0.000000 0.000000
# 2 -0.004653 0.010995 -0.001454 0.000000 0.000000 0.000000
# 3 -0.004329 -0.001454 0.013329 0.000000 0.000000 0.000000
# 4 0.000000 0.000000 0.000000 0.112121 0.000000 0.000000
# 5 0.000000 0.000000 0.000000 0.000000 0.243892 0.000000
# 6 0.000000 0.000000 0.000000 0.000000 0.000000 0.027060
#
#
# Mechanical properties :
#
#
# Convention : Reuss Voigt Hill
#
# Bulk Modulus (GPa) = 54.05006 54.81927 54.43467
# Shear Modulus (GPa) = 11.12387 22.55950 16.84169
#
# Velocity S-wave (km/s) = 2.43899 3.47334 3.00106
# Velocity P-wave (km/s) = 6.06924 6.73802 6.41236
#
# Compressibility (1/GPa) = 0.01850137
#
# Stress axis : x y z
#
# Youngs Moduli (GPa) = 66.44963 90.95242 75.02698
#
# Poissons Ratio (x) = 0.42319 0.32477
# Poissons Ratio (y) = 0.30918 0.10908
# Poissons Ratio (z) = 0.28764 0.13223
#
# Static dielectric constant tensor:
#      x y z
#    x 1.648020 0.000000 0.000000 
#    y 0.000000 1.653160 0.000000 
#    z 0.000000 0.000000 1.627170 
# 
# From -- ./inp_files/8322.got.cif
#   From: 2010.05.17/outbox.cif.g08.bks.cpg/sg40_5_cif.got.tgz:8322.got - 2010.06.03 18:35:42.
