data_PCOD9364145
_publ_section_title
;
Structure prediction by ZEFSAII (Michael W. Deem and Ramdas Pophale) SiO2 
 PCOD9364145
Probable space group: A M A 2
;
_chemical_formula_sum "Si O2"
_cell_formula_units_Z 64
_cell_length_a 15.984371
_cell_length_b 19.440656
_cell_length_c 9.089599
_cell_angle_alpha 90.000000
_cell_angle_beta 90.000000
_cell_angle_gamma 90.000000
_cell_volume 2824.562512
_symmetry_space_group_name_H-M "A M A 2"
_symmetry_group_IT_number 40
_symmetry_cell_setting 'orthorhombic'
loop_
_space_group_symop_operation_xyz
x,y,z
-x,-y,z
1/2-x,y,z
1/2+x,-y,z
x,1/2+y,1/2+z
-x,1/2-y,1/2+z
1/2-x,1/2+y,1/2+z
1/2+x,1/2-y,1/2+z
loop_
_atom_site_type_symbol
_atom_site_label
_atom_site_fract_x
_atom_site_fract_y
_atom_site_fract_z
Si Si1 0.342864 0.223305 0.640570
Si Si2 0.841041 0.623017 0.514573
Si Si3 0.475600 0.629420 0.579287
Si Si4 0.923540 0.233098 0.449213
Si Si5 0.054591 0.569106 0.284175
Si Si6 0.389789 0.868620 0.674009
Si Si7 0.933774 0.371006 0.898583
Si Si8 0.844110 0.986488 0.544309
O O1 0.250000 0.197179 0.670536
O O2 0.337153 0.299680 0.574621
O O3 0.385365 0.234170 0.801391
O O4 0.380260 0.175986 0.510211
O O5 0.750000 0.590174 0.549425
O O6 0.851781 0.625718 0.337442
O O7 0.930066 0.597670 0.581788
O O8 0.481021 0.708305 0.522395
O O9 0.429729 0.589954 0.449099
O O10 0.420793 0.630147 0.724630
O O11 0.869876 0.200741 0.583808
O O12 0.975550 0.165298 0.404248
O O13 0.138518 0.552599 0.198253
O O14 0.000000 0.500000 0.279716
O O15 0.990213 0.623060 0.206784
O O16 0.360430 0.933834 0.578474
O O17 0.914439 0.449041 0.946479
O O18 0.750000 0.976153 0.490202
#
# Coordination Sequence:
#
# PCOD9364145 Si02
#       8
#     8   8   8   8   8   8   8   8
#     4  11  24  40  62  96 133 169 211 271 336 384
#     4  10  20  37  62  94 131 164 208 272 329 381
#     4  11  23  39  67  97 127 177 226 268 328 395
#     4  12  22  39  68  93 131 170 223 270 325 398
#     4   9  20  41  64  96 129 168 225 275 318 399
#     4  10  22  40  67  95 127 171 225 267 329 397
#     4  12  22  40  62  94 127 175 221 266 320 397
#     4  11  23  42  66  92 129 176 218 273 337 391
#
# _framework density 22.658376000000001
#
# number of rings (size 3 to 8) (size 9 to 14) (size 15 to 20)
#    0.000    1.250    3.750    2.250    3.500    1.000 
#    2.250    2.500    0.000    0.000    0.000    0.000 
#    0.000    0.000    0.000    0.000    0.000    0.000 
#
# Total GULP energy -178415.684227 kJ/mol
# GULP energy per Si atom -5575.490132 kJ/mol
# Density = 2.260680 g / cm^3
# Si number density = 22.658376 Si / 1000 Ang^3
#
#
#
# Elastic Constant Matrix: (Units=GPa)
#
#
# Indices 1 2 3 4 5 6 
#
# 1 90.6653 20.9867 37.7446 0.0000 0.0000 0.0000
# 2 20.9867 40.2840 36.8288 0.0000 0.0000 0.0000
# 3 37.7446 36.8288 130.6729 0.0000 0.0000 0.0000
# 4 0.0000 0.0000 0.0000 35.3255 0.0000 0.0000
# 5 0.0000 0.0000 0.0000 0.0000 17.3624 0.0000
# 6 0.0000 0.0000 0.0000 0.0000 0.0000 20.8183
#
#
#
# Elastic Compliance Matrix: (Units=1/GPa)
#
#
# Indices 1 2 3 4 5 6 
#
# 1 0.013127 -0.004543 -0.002511 0.000000 0.000000 0.000000
# 2 -0.004543 0.035012 -0.008556 0.000000 0.000000 0.000000
# 3 -0.002511 -0.008556 0.010789 0.000000 0.000000 0.000000
# 4 0.000000 0.000000 0.000000 0.028308 0.000000 0.000000
# 5 0.000000 0.000000 0.000000 0.000000 0.057596 0.000000
# 6 0.000000 0.000000 0.000000 0.000000 0.000000 0.048035
#
#
# Mechanical properties :
#
#
# Convention : Reuss Voigt Hill
#
# Bulk Modulus (GPa) = 36.08946 50.30472 43.19709
# Shear Modulus (GPa) = 21.42959 25.77205 23.60082
#
# Velocity S-wave (km/s) = 3.07867 3.37622 3.23087
# Velocity P-wave (km/s) = 5.34788 6.11948 5.74665
#
# Compressibility (1/GPa) = 0.02770892
#
# Stress axis : x y z
#
# Youngs Moduli (GPa) = 76.18155 28.56151 92.68349
#
# Poissons Ratio (x) = 0.12974 0.23275
# Poissons Ratio (y) = 0.34606 0.79297
# Poissons Ratio (z) = 0.19131 0.24436
#
# Static dielectric constant tensor:
#      x y z
#    x 1.947820 0.000000 0.000000 
#    y 0.000000 1.893610 0.000000 
#    z 0.000000 0.000000 1.902860 
# 
# From -- ./inp_files/7811.got.cif
#   From: 2010.05.17/outbox.cif.g08.bks.cpg/sg40_4_cif.got.tgz:7811.got - 2010.06.03 18:35:42.
