data_PCOD9364414
_publ_section_title
;
Structure prediction by ZEFSAII (Michael W. Deem and Ramdas Pophale) SiO2 
 PCOD9364414
Probable space group: A M A 2
;
_chemical_formula_sum "Si O2"
_cell_formula_units_Z 48
_cell_length_a 9.910715
_cell_length_b 29.630968
_cell_length_c 8.656178
_cell_angle_alpha 90.000000
_cell_angle_beta 90.000000
_cell_angle_gamma 90.000000
_cell_volume 2542.008540
_symmetry_space_group_name_H-M "A M A 2"
_symmetry_group_IT_number 40
_symmetry_cell_setting 'orthorhombic'
loop_
_space_group_symop_operation_xyz
x,y,z
-x,-y,z
1/2-x,y,z
1/2+x,-y,z
x,1/2+y,1/2+z
-x,1/2-y,1/2+z
1/2-x,1/2+y,1/2+z
1/2+x,1/2-y,1/2+z
loop_
_atom_site_type_symbol
_atom_site_label
_atom_site_fract_x
_atom_site_fract_y
_atom_site_fract_z
Si Si1 0.097440 0.775180 0.033930
Si Si2 0.397019 0.373190 0.102295
Si Si3 0.406224 0.153639 0.868995
Si Si4 0.399264 0.102736 0.182422
Si Si5 0.907919 0.043395 0.377644
Si Si6 0.994624 0.309219 0.855757
O O1 0.250000 0.791667 0.011339
O O2 0.059811 0.781482 0.213905
O O3 0.990950 0.804930 0.938564
O O4 0.085085 0.724986 0.965971
O O5 0.250000 0.370586 0.179539
O O6 0.517918 0.363479 0.218020
O O7 0.411753 0.421475 0.020059
O O8 0.403217 0.335793 0.966862
O O9 0.250000 0.165557 0.841355
O O10 0.410212 0.115861 0.003369
O O11 0.250000 0.083510 0.213485
O O12 0.518299 0.070482 0.239169
O O13 0.411617 0.150208 0.275332
O O14 0.750000 0.033398 0.346704
O O15 0.000000 0.000000 0.408552
#
# Coordination Sequence:
#
# PCOD9364414 Si02
#       6
#     8   8   8   8   8   8
#     4  11  22  36  55  78 109 148 190 233 276 324
#     4  10  21  37  57  81 112 148 185 225 272 325
#     4  10  22  37  56  82 111 146 186 229 276 324
#     4   9  19  37  57  79 109 143 182 228 277 328
#     4  10  21  37  60  88 113 142 179 220 269 328
#     4  10  21  34  54  82 110 145 190 233 277 323
#
# _framework density 18.882705999999999
#
# number of rings (size 3 to 8) (size 9 to 14) (size 15 to 20)
#    0.000    2.000    0.000    3.000    0.000   12.000 
#    0.000    0.833    0.000    2.000    0.000    0.000 
#    0.000    0.000    0.000    0.000    0.000    0.000 
#
# Total GULP energy -133896.990311 kJ/mol
# GULP energy per Si atom -5579.041263 kJ/mol
# Density = 1.883973 g / cm^3
# Si number density = 18.882706 Si / 1000 Ang^3
#
#
#
# Elastic Constant Matrix: (Units=GPa)
#
#
# Indices 1 2 3 4 5 6 
#
# 1 178.0852 51.8760 62.2084 0.0000 0.0000 0.0000
# 2 51.8760 77.6295 44.1916 0.0000 0.0000 0.0000
# 3 62.2084 44.1916 86.1248 0.0000 0.0000 0.0000
# 4 0.0000 0.0000 0.0000 14.5338 0.0000 0.0000
# 5 0.0000 0.0000 0.0000 0.0000 17.2750 0.0000
# 6 0.0000 0.0000 0.0000 0.0000 0.0000 -2.6850
#
#
#
# Elastic Compliance Matrix: (Units=1/GPa)
#
#
# Indices 1 2 3 4 5 6 
#
# 1 0.007943 -0.002884 -0.004257 0.000000 0.000000 0.000000
# 2 -0.002884 0.019244 -0.007791 0.000000 0.000000 0.000000
# 3 -0.004257 -0.007791 0.018684 0.000000 0.000000 0.000000
# 4 0.000000 0.000000 0.000000 0.068805 0.000000 0.000000
# 5 0.000000 0.000000 0.000000 0.000000 0.057887 0.000000
# 6 0.000000 0.000000 0.000000 0.000000 0.000000 -0.372446
#
#
# Mechanical properties :
#
#
# Convention : Reuss Voigt Hill
#
# Bulk Modulus (GPa) = 62.47784 73.15461 67.81622
# Shear Modulus (GPa) = -30.36126 18.06233 -6.14947
#
# Velocity S-wave (km/s) = -4.01420 3.09618 -1.80658
# Velocity P-wave (km/s) = 3.41674 7.18383 5.62501
#
# Compressibility (1/GPa) = 0.01600568
#
# Stress axis : x y z
#
# Youngs Moduli (GPa) = 125.90477 51.96341 53.52280
#
# Poissons Ratio (x) = 0.14988 0.22785
# Poissons Ratio (y) = 0.36314 0.41700
# Poissons Ratio (z) = 0.53597 0.40485
#
# Static dielectric constant tensor:
#      x y z
#    x 1.657130 0.000000 0.000000 
#    y 0.000000 1.651630 0.000000 
#    z 0.000000 0.000000 1.648470 
# 
# From -- ./inp_files/4608.got.cif
#   From: 2010.05.17/outbox.cif.g08.bks.cpg/sg40_3_cif.got.tgz:4608.got - 2010.06.03 18:35:42.
