data_PCOD9364253
_publ_section_title
;
Structure prediction by ZEFSAII (Michael W. Deem and Ramdas Pophale) SiO2 
 PCOD9364253
Probable space group: A M A 2
;
_chemical_formula_sum "Si O2"
_cell_formula_units_Z 48
_cell_length_a 25.215938
_cell_length_b 8.946296
_cell_length_c 11.347041
_cell_angle_alpha 90.000000
_cell_angle_beta 90.000000
_cell_angle_gamma 90.000000
_cell_volume 2559.770415
_symmetry_space_group_name_H-M "A M A 2"
_symmetry_group_IT_number 40
_symmetry_cell_setting 'orthorhombic'
loop_
_space_group_symop_operation_xyz
x,y,z
-x,-y,z
1/2-x,y,z
1/2+x,-y,z
x,1/2+y,1/2+z
-x,1/2-y,1/2+z
1/2-x,1/2+y,1/2+z
1/2+x,1/2-y,1/2+z
loop_
_atom_site_type_symbol
_atom_site_label
_atom_site_fract_x
_atom_site_fract_y
_atom_site_fract_z
Si Si1 0.643640 0.680812 0.141210
Si Si2 0.250000 0.455759 0.226207
Si Si3 0.834549 0.473221 0.784389
Si Si4 0.500000 0.500000 0.012290
Si Si5 0.250000 0.790186 0.198005
Si Si6 0.750000 0.297201 0.925740
Si Si7 0.058582 0.537500 0.239384
Si Si8 0.914979 0.680462 0.893262
O O1 0.697239 0.583799 0.152249
O O2 0.599410 0.599605 0.223734
O O3 0.657528 0.843586 0.189850
O O4 0.620696 0.697562 0.010324
O O5 0.250000 0.629166 0.260323
O O6 0.250000 0.346459 0.339110
O O7 0.800018 0.609498 0.733845
O O8 0.800972 0.396129 0.889316
O O9 0.889639 0.541645 0.824680
O O10 0.527484 0.627809 0.936824
O O11 0.457012 0.571875 0.102634
O O12 0.250000 0.752867 0.059748
O O13 0.082775 0.673187 0.312530
O O14 0.000000 0.500000 0.290931
#
# Coordination Sequence:
#
# PCOD9364253 Si02
#       8
#     8   4   8   4   4   4   8   8
#     4  10  22  41  58  92 123 157 196 251 298 353
#     4  10  20  38  66  84 126 160 194 244 298 360
#     4  10  23  36  59  91 119 150 208 239 289 367
#     4   8  22  38  58  82 114 148 200 248 298 348
#     4  11  21  37  58  92 118 161 201 233 292 368
#     4   9  21  41  58  86 128 161 183 251 296 344
#     4   9  21  42  58  85 121 151 207 245 291 367
#     4  11  21  39  63  83 116 160 192 252 305 343
#
# _framework density 18.751681999999999
#
# number of rings (size 3 to 8) (size 9 to 14) (size 15 to 20)
#    0.500    1.667    0.000    2.500    2.333    6.000 
#    3.000    2.500    0.000    0.000    0.000    0.000 
#    0.000    0.000    0.000    0.000    0.000    0.000 
#
# Total GULP energy -133811.522576 kJ/mol
# GULP energy per Si atom -5575.480107 kJ/mol
# Density = 1.870900 g / cm^3
# Si number density = 18.751682 Si / 1000 Ang^3
#
#
#
# Elastic Constant Matrix: (Units=GPa)
#
#
# Indices 1 2 3 4 5 6 
#
# 1 77.4252 34.5754 2.7659 0.0000 0.0000 0.0000
# 2 34.5754 134.2857 34.1496 0.0000 0.0000 0.0000
# 3 2.7659 34.1496 56.1319 0.0000 0.0000 0.0000
# 4 0.0000 0.0000 0.0000 29.5170 0.0000 0.0000
# 5 0.0000 0.0000 0.0000 0.0000 19.3325 0.0000
# 6 0.0000 0.0000 0.0000 0.0000 0.0000 22.5349
#
#
#
# Elastic Compliance Matrix: (Units=1/GPa)
#
#
# Indices 1 2 3 4 5 6 
#
# 1 0.014759 -0.004277 0.001875 0.000000 0.000000 0.000000
# 2 -0.004277 0.010049 -0.005903 0.000000 0.000000 0.000000
# 3 0.001875 -0.005903 0.021314 0.000000 0.000000 0.000000
# 4 0.000000 0.000000 0.000000 0.033879 0.000000 0.000000
# 5 0.000000 0.000000 0.000000 0.000000 0.051726 0.000000
# 6 0.000000 0.000000 0.000000 0.000000 0.000000 0.044376
#
#
# Mechanical properties :
#
#
# Convention : Reuss Voigt Hill
#
# Bulk Modulus (GPa) = 33.88493 45.64719 39.76606
# Shear Modulus (GPa) = 24.68528 27.36700 26.02614
#
# Velocity S-wave (km/s) = 3.63220 3.82441 3.72954
# Velocity P-wave (km/s) = 5.97495 6.62550 6.30862
#
# Compressibility (1/GPa) = 0.02951164
#
# Stress axis : x y z
#
# Youngs Moduli (GPa) = 67.75735 99.51130 46.91744
#
# Poissons Ratio (x) = 0.42558 -0.08795
# Poissons Ratio (y) = 0.28978 0.27695
# Poissons Ratio (z) = -0.12702 0.58741
#
# Static dielectric constant tensor:
#      x y z
#    x 1.670490 0.000000 0.000000 
#    y 0.000000 1.613040 0.000000 
#    z 0.000000 0.000000 1.640250 
# 
# From -- ./inp_files/13959.got.cif
#   From: 2010.05.17/outbox.cif.g08.bks.cpg/sg40_7_cif.got.tgz:13959.got - 2010.06.03 18:35:42.
