data_PCOD9364444
_publ_section_title
;
Structure prediction by ZEFSAII (Michael W. Deem and Ramdas Pophale) SiO2 
 PCOD9364444
Probable space group: A M A 2
;
_chemical_formula_sum "Si O2"
_cell_formula_units_Z 60
_cell_length_a 9.613575
_cell_length_b 17.863843
_cell_length_c 17.127799
_cell_angle_alpha 90.000000
_cell_angle_beta 90.000000
_cell_angle_gamma 90.000000
_cell_volume 2941.449318
_symmetry_space_group_name_H-M "A M A 2"
_symmetry_group_IT_number 40
_symmetry_cell_setting 'orthorhombic'
loop_
_space_group_symop_operation_xyz
x,y,z
-x,-y,z
1/2-x,y,z
1/2+x,-y,z
x,1/2+y,1/2+z
-x,1/2-y,1/2+z
1/2-x,1/2+y,1/2+z
1/2+x,1/2-y,1/2+z
loop_
_atom_site_type_symbol
_atom_site_label
_atom_site_fract_x
_atom_site_fract_y
_atom_site_fract_z
Si Si1 0.750000 0.484619 0.278240
Si Si2 0.585010 0.073666 0.294702
Si Si3 0.408970 0.286398 0.194833
Si Si4 0.411840 0.427074 0.078825
Si Si5 0.415201 0.850002 0.131471
Si Si6 0.581570 0.674664 0.935064
Si Si7 0.082754 0.655582 0.478403
Si Si8 0.005835 0.395394 0.312064
O O1 0.870215 0.546986 0.299440
O O2 0.628056 0.422055 0.264473
O O3 0.750000 0.061496 0.306920
O O4 0.563823 0.094413 0.204327
O O5 0.541835 0.142783 0.350529
O O6 0.500000 0.000000 0.315809
O O7 0.250000 0.257692 0.189765
O O8 0.414622 0.362329 0.143609
O O9 0.516448 0.227557 0.160444
O O10 0.446409 0.314528 0.280980
O O11 0.500000 0.500000 0.097860
O O12 0.250000 0.450038 0.071671
O O13 0.460477 0.386894 0.999381
O O14 0.250000 0.843099 0.117156
O O15 0.498697 0.871603 0.053717
O O16 0.750000 0.677307 0.937117
O O17 0.539739 0.758014 0.960435
O O18 0.250000 0.652943 0.490601
O O19 0.044113 0.609036 0.401490
#
# Coordination Sequence:
#
# PCOD9364444 Si02
#       8
#     4   8   8   8   8   8   8   8
#     4  10  24  42  60  92 132 162 218 264 320 388
#     4  10  22  42  65  92 123 163 209 261 317 376
#     4  11  23  40  64  92 130 170 212 256 315 389
#     4  10  21  35  56  88 123 163 203 250 307 372
#     4  11  25  42  63  95 130 163 217 273 317 383
#     4   9  18  38  64  86 120 160 207 256 310 377
#     4  11  22  43  67  90 124 171 215 261 327 388
#     4  11  23  41  64  93 125 174 212 264 323 387
#
# _framework density 20.398108000000001
#
# number of rings (size 3 to 8) (size 9 to 14) (size 15 to 20)
#    0.000    1.600    2.667    1.600    3.733    2.667 
#    2.400    0.667    0.000    0.000    0.000    0.000 
#    0.000    0.000    0.000    0.000    0.000    0.000 
#
# Total GULP energy -167062.043092 kJ/mol
# GULP energy per Si atom -5568.734770 kJ/mol
# Density = 2.035168 g / cm^3
# Si number density = 20.398108 Si / 1000 Ang^3
#
#
#
# Elastic Constant Matrix: (Units=GPa)
#
#
# Indices 1 2 3 4 5 6 
#
# 1 101.6082 11.9183 20.5322 0.0000 0.0000 0.0000
# 2 11.9183 33.4649 -14.2573 0.0000 0.0000 0.0000
# 3 20.5322 -14.2573 83.6843 0.0000 0.0000 0.0000
# 4 0.0000 0.0000 0.0000 12.8845 0.0000 0.0000
# 5 0.0000 0.0000 0.0000 0.0000 -22.7962 0.0000
# 6 0.0000 0.0000 0.0000 0.0000 0.0000 34.4949
#
#
#
# Elastic Compliance Matrix: (Units=1/GPa)
#
#
# Indices 1 2 3 4 5 6 
#
# 1 0.011247 -0.005587 -0.003711 0.000000 0.000000 0.000000
# 2 -0.005587 0.034996 0.007333 0.000000 0.000000 0.000000
# 3 -0.003711 0.007333 0.014110 0.000000 0.000000 0.000000
# 4 0.000000 0.000000 0.000000 0.077612 0.000000 0.000000
# 5 0.000000 0.000000 0.000000 0.000000 -0.043867 0.000000
# 6 0.000000 0.000000 0.000000 0.000000 0.000000 0.028990
#
#
# Mechanical properties :
#
#
# Convention : Reuss Voigt Hill
#
# Bulk Modulus (GPa) = 17.72348 28.34930 23.03639
# Shear Modulus (GPa) = 34.28764 18.28758 26.28761
#
# Velocity S-wave (km/s) = 4.10435 2.99746 3.59378
# Velocity P-wave (km/s) = 5.58289 5.08998 5.34212
#
# Compressibility (1/GPa) = 0.05642232
#
# Stress axis : x y z
#
# Youngs Moduli (GPa) = 88.91288 28.57487 70.87391
#
# Poissons Ratio (x) = 0.15964 0.26303
# Poissons Ratio (y) = 0.49673 -0.51971
# Poissons Ratio (z) = 0.32998 -0.20954
#
# Static dielectric constant tensor:
#      x y z
#    x 1.692830 0.000000 0.000000 
#    y 0.000000 1.717400 0.000000 
#    z 0.000000 0.000000 1.803250 
# 
# From -- ./inp_files/19401.got.cif
#   From: 2010.05.17/outbox.cif.g08.bks.cpg/sg40_10_cif.got.tgz:19401.got - 2010.06.03 18:35:42.
