data_PCOD9364549
_publ_section_title
;
Structure prediction by ZEFSAII (Michael W. Deem and Ramdas Pophale) SiO2 
 PCOD9364549
Probable space group: A M A 2
;
_chemical_formula_sum "Si O2"
_cell_formula_units_Z 64
_cell_length_a 15.313868
_cell_length_b 17.799409
_cell_length_c 11.662612
_cell_angle_alpha 90.000000
_cell_angle_beta 90.000000
_cell_angle_gamma 90.000000
_cell_volume 3178.969120
_symmetry_space_group_name_H-M "A M A 2"
_symmetry_group_IT_number 40
_symmetry_cell_setting 'orthorhombic'
loop_
_space_group_symop_operation_xyz
x,y,z
-x,-y,z
1/2-x,y,z
1/2+x,-y,z
x,1/2+y,1/2+z
-x,1/2-y,1/2+z
1/2-x,1/2+y,1/2+z
1/2+x,1/2-y,1/2+z
loop_
_atom_site_type_symbol
_atom_site_label
_atom_site_fract_x
_atom_site_fract_y
_atom_site_fract_z
Si Si1 0.424422 0.552112 0.492910
Si Si2 0.583715 0.318363 0.316823
Si Si3 0.351465 0.578824 0.119235
Si Si4 0.347440 0.618871 0.720644
Si Si5 0.900871 0.710479 0.211791
Si Si6 0.352430 0.452724 0.285799
Si Si7 0.350720 0.822036 0.449372
Si Si8 0.478925 0.084508 0.417297
O O1 0.500000 0.500000 0.546399
O O2 0.451438 0.622907 0.412927
O O3 0.365752 0.587919 0.592646
O O4 0.383738 0.494364 0.400279
O O5 0.640630 0.365417 0.227105
O O6 0.502375 0.283191 0.247315
O O7 0.639388 0.255391 0.380232
O O8 0.250000 0.572367 0.081815
O O9 0.384851 0.499267 0.173676
O O10 0.415044 0.610058 0.020749
O O11 0.250000 0.596246 0.755394
O O12 0.356025 0.709308 0.731511
O O13 0.421721 0.587987 0.803289
O O14 0.871160 0.635490 0.278706
O O15 0.878564 0.692176 0.080488
O O16 0.250000 0.463240 0.280989
O O17 0.250000 0.849146 0.444198
O O18 0.428756 0.874199 0.403877
O O19 0.500000 0.000000 0.445807
#
# Coordination Sequence:
#
# PCOD9364549 Si02
#       8
#     8   8   8   8   8   8   8   8
#     4  11  22  40  66  95 134 181 229 284 347 412
#     4  11  22  40  68 100 135 173 225 281 344 412
#     4  10  22  40  66  97 133 171 216 278 341 401
#     4  12  26  43  66  95 134 184 231 279 344 413
#     4  12  22  40  66  99 132 174 224 279 340 409
#     4  10  21  37  63  99 130 165 220 285 345 405
#     4  12  25  43  69 101 139 179 223 282 350 419
#     4  12  26  44  67  93 131 178 232 280 336 407
#
# _framework density 20.132314000000001
#
# number of rings (size 3 to 8) (size 9 to 14) (size 15 to 20)
#    0.000    0.750    5.000    3.375    0.000    3.000 
#    0.000    0.000    0.000    0.000    0.000    0.000 
#    0.000    0.000    0.000    0.000    0.000    0.000 
#
# Total GULP energy -178578.259234 kJ/mol
# GULP energy per Si atom -5580.570601 kJ/mol
# Density = 2.008649 g / cm^3
# Si number density = 20.132314 Si / 1000 Ang^3
#
#
#
# Elastic Constant Matrix: (Units=GPa)
#
#
# Indices 1 2 3 4 5 6 
#
# 1 132.4824 22.2264 39.7208 0.0000 0.0000 0.0000
# 2 22.2264 70.7999 22.1126 0.0000 0.0000 0.0000
# 3 39.7208 22.1126 87.2301 0.0000 0.0000 0.0000
# 4 0.0000 0.0000 0.0000 510.8927 0.0000 0.0000
# 5 0.0000 0.0000 0.0000 0.0000 4.9045 0.0000
# 6 0.0000 0.0000 0.0000 0.0000 0.0000 11.9332
#
#
#
# Elastic Compliance Matrix: (Units=1/GPa)
#
#
# Indices 1 2 3 4 5 6 
#
# 1 0.008918 -0.001663 -0.003639 0.000000 0.000000 0.000000
# 2 -0.001663 0.015649 -0.003210 0.000000 0.000000 0.000000
# 3 -0.003639 -0.003210 0.013935 0.000000 0.000000 0.000000
# 4 0.000000 0.000000 0.000000 0.001957 0.000000 0.000000
# 5 0.000000 0.000000 0.000000 0.000000 0.203896 0.000000
# 6 0.000000 0.000000 0.000000 0.000000 0.000000 0.083800
#
#
# Mechanical properties :
#
#
# Convention : Reuss Voigt Hill
#
# Bulk Modulus (GPa) = 46.55994 50.95911 48.75953
# Shear Modulus (GPa) = 14.19088 119.30957 66.75023
#
# Velocity S-wave (km/s) = 2.65784 7.70658 5.76435
# Velocity P-wave (km/s) = 5.70929 10.22524 8.28105
#
# Compressibility (1/GPa) = 0.02147769
#
# Stress axis : x y z
#
# Youngs Moduli (GPa) = 112.12815 63.90236 71.76270
#
# Poissons Ratio (x) = 0.10627 0.26118
# Poissons Ratio (y) = 0.18648 0.23033
# Poissons Ratio (z) = 0.40809 0.20510
#
# Static dielectric constant tensor:
#      x y z
#    x 1.492420 0.000000 0.000000 
#    y 0.000000 1.415380 0.000000 
#    z 0.000000 0.000000 1.725150 
# 
# From -- ./inp_files/12487.got.cif
#   From: 2010.05.17/outbox.cif.g08.bks.cpg/sg40_7_cif.got.tgz:12487.got - 2010.06.03 18:35:42.
