data_PCOD9364610
_publ_section_title
;
Structure prediction by ZEFSAII (Michael W. Deem and Ramdas Pophale) SiO2 
 PCOD9364610
Probable space group: A M A 2
;
_chemical_formula_sum "Si O2"
_cell_formula_units_Z 32
_cell_length_a 13.961089
_cell_length_b 4.877921
_cell_length_c 20.429345
_cell_angle_alpha 90.000000
_cell_angle_beta 90.000000
_cell_angle_gamma 90.000000
_cell_volume 1391.260646
_symmetry_space_group_name_H-M "A M A 2"
_symmetry_group_IT_number 40
_symmetry_cell_setting 'orthorhombic'
loop_
_space_group_symop_operation_xyz
x,y,z
-x,-y,z
1/2-x,y,z
1/2+x,-y,z
x,1/2+y,1/2+z
-x,1/2-y,1/2+z
1/2-x,1/2+y,1/2+z
1/2+x,1/2-y,1/2+z
loop_
_atom_site_type_symbol
_atom_site_label
_atom_site_fract_x
_atom_site_fract_y
_atom_site_fract_z
Si Si1 0.429299 0.750089 0.688800
Si Si2 0.886186 0.471556 0.901390
Si Si3 0.250000 0.625970 0.603814
Si Si4 0.250000 0.111692 0.516371
Si Si5 0.614865 0.477366 0.316946
O O1 0.500000 0.500000 0.712221
O O2 0.350874 0.604507 0.642415
O O3 0.366292 0.899025 0.745731
O O4 0.500000 0.000000 0.664019
O O5 0.855216 0.179991 0.873984
O O6 0.000000 0.500000 0.908201
O O7 0.857724 0.681968 0.843575
O O8 0.838538 0.487140 0.971875
O O9 0.250000 0.424605 0.540808
O O10 0.250000 0.940941 0.582191
O O11 0.500000 0.500000 0.316767
#
# Coordination Sequence:
#
# PCOD9364610 Si02
#       5
#     8   8   4   4   8
#     4  11  23  43  69  97 134 174 219 285 348 400
#     4  10  21  38  62  90 123 160 204 266 330 385
#     4  12  28  44  62  94 132 180 238 270 315 408
#     4  12  26  42  60  90 130 176 230 270 311 398
#     4   9  18  37  64  94 121 152 204 264 334 403
#
# _framework density 23.000724999999999
#
# number of rings (size 3 to 8) (size 9 to 14) (size 15 to 20)
#    0.000    1.500    0.000    6.750    0.000    5.000 
#    0.000    0.000    0.000    1.500    0.000    0.000 
#    0.000    0.000    0.000    0.000    0.000    0.000 
#
# Total GULP energy -89179.927729 kJ/mol
# GULP energy per Si atom -5573.745483 kJ/mol
# Density = 2.294837 g / cm^3
# Si number density = 23.000725 Si / 1000 Ang^3
#
#
#
# Elastic Constant Matrix: (Units=GPa)
#
#
# Indices 1 2 3 4 5 6 
#
# 1 148.9331 12.5003 35.2704 0.0000 0.0000 0.0000
# 2 12.5003 83.5014 5.8824 0.0000 0.0000 0.0000
# 3 35.2704 5.8824 76.7501 0.0000 0.0000 0.0000
# 4 0.0000 0.0000 0.0000 51.0422 0.0000 0.0000
# 5 0.0000 0.0000 0.0000 0.0000 32.0139 0.0000
# 6 0.0000 0.0000 0.0000 0.0000 0.0000 1.0592
#
#
#
# Elastic Compliance Matrix: (Units=1/GPa)
#
#
# Indices 1 2 3 4 5 6 
#
# 1 0.007601 -0.000897 -0.003424 0.000000 0.000000 0.000000
# 2 -0.000897 0.012147 -0.000519 0.000000 0.000000 0.000000
# 3 -0.003424 -0.000519 0.014643 0.000000 0.000000 0.000000
# 4 0.000000 0.000000 0.000000 0.019592 0.000000 0.000000
# 5 0.000000 0.000000 0.000000 0.000000 0.031236 0.000000
# 6 0.000000 0.000000 0.000000 0.000000 0.000000 0.944088
#
#
# Mechanical properties :
#
#
# Convention : Reuss Voigt Hill
#
# Bulk Modulus (GPa) = 40.46857 46.27675 43.37266
# Shear Modulus (GPa) = 4.77454 33.85848 19.31651
#
# Velocity S-wave (km/s) = 1.44233 3.84091 2.90111
# Velocity P-wave (km/s) = 4.51735 6.31138 5.48816
#
# Compressibility (1/GPa) = 0.02471053
#
# Stress axis : x y z
#
# Youngs Moduli (GPa) = 131.56894 82.32740 68.29376
#
# Poissons Ratio (x) = 0.07381 0.23385
# Poissons Ratio (y) = 0.11796 0.03544
# Poissons Ratio (z) = 0.45051 0.04272
#
# Static dielectric constant tensor:
#      x y z
#    x 1.520450 0.000000 0.000000 
#    y 0.000000 1.831730 0.000000 
#    z 0.000000 0.000000 1.866220 
# 
# From -- ./inp_files/20281.got.cif
#   From: 2010.05.17/outbox.cif.g08.bks.cpg/sg40_11_cif.got.tgz:20281.got - 2010.06.03 18:35:42.
