data_PCOD9364450
_publ_section_title
;
Structure prediction by ZEFSAII (Michael W. Deem and Ramdas Pophale) SiO2 
 PCOD9364450
Probable space group: A M A 2
;
_chemical_formula_sum "Si O2"
_cell_formula_units_Z 64
_cell_length_a 17.350905
_cell_length_b 9.668532
_cell_length_c 17.195169
_cell_angle_alpha 90.000000
_cell_angle_beta 90.000000
_cell_angle_gamma 90.000000
_cell_volume 2884.623382
_symmetry_space_group_name_H-M "A M A 2"
_symmetry_group_IT_number 40
_symmetry_cell_setting 'orthorhombic'
loop_
_space_group_symop_operation_xyz
x,y,z
-x,-y,z
1/2-x,y,z
1/2+x,-y,z
x,1/2+y,1/2+z
-x,1/2-y,1/2+z
1/2-x,1/2+y,1/2+z
1/2+x,1/2-y,1/2+z
loop_
_atom_site_type_symbol
_atom_site_label
_atom_site_fract_x
_atom_site_fract_y
_atom_site_fract_z
Si Si1 0.414526 0.061964 0.041540
Si Si2 0.945099 0.378097 0.293689
Si Si3 0.838201 0.675315 0.629613
Si Si4 0.659788 0.521598 0.388570
Si Si5 0.074119 0.921132 0.283035
Si Si6 0.158393 0.287417 0.144863
Si Si7 0.658530 0.815564 0.322407
Si Si8 0.572923 0.433412 0.118474
O O1 0.396634 0.203384 0.085981
O O2 0.500000 0.000000 0.053245
O O3 0.352121 0.958569 0.078571
O O4 0.391570 0.057657 0.951665
O O5 0.860010 0.437085 0.310202
O O6 0.953214 0.221624 0.322863
O O7 0.959862 0.376964 0.201309
O O8 0.000000 0.500000 0.324626
O O9 0.750000 0.714514 0.636453
O O10 0.870294 0.631009 0.714260
O O11 0.884769 0.798543 0.588025
O O12 0.750000 0.514872 0.406250
O O13 0.638530 0.682683 0.375228
O O14 0.115730 0.038794 0.333881
O O15 0.000000 0.000000 0.248701
O O16 0.250000 0.268718 0.129049
O O17 0.143988 0.232562 0.232753
O O18 0.133819 0.446306 0.136112
O O19 0.750000 0.837353 0.330016
O O20 0.500000 0.500000 0.075351
#
# Coordination Sequence:
#
# PCOD9364450 Si02
#       8
#     8   8   8   8   8   8   8   8
#     4  12  25  41  64  90 128 169 217 264 326 393
#     4  10  21  37  58  88 125 164 212 263 322 387
#     4  11  22  37  58  89 124 162 212 265 322 385
#     4  11  23  41  63  89 123 170 215 263 329 400
#     4  11  22  34  60  91 126 164 210 269 330 384
#     4  11  21  38  62  92 125 164 213 268 321 383
#     4  10  21  37  61  91 127 164 212 269 329 388
#     4  10  21  35  60  92 125 163 205 267 324 380
#
# _framework density 22.186606000000001
#
# number of rings (size 3 to 8) (size 9 to 14) (size 15 to 20)
#    0.000    1.250    2.500    4.125    3.500    2.500 
#    0.000    1.250    0.000    4.500    0.000    0.000 
#    0.000    0.000    0.000    0.000    0.000    0.000 
#
# Total GULP energy -178663.367890 kJ/mol
# GULP energy per Si atom -5583.230247 kJ/mol
# Density = 2.213611 g / cm^3
# Si number density = 22.186606 Si / 1000 Ang^3
#
#
#
# Elastic Constant Matrix: (Units=GPa)
#
#
# Indices 1 2 3 4 5 6 
#
# 1 87.6772 15.3816 3.8736 0.0000 0.0000 0.0000
# 2 15.3816 137.5106 -0.3294 0.0000 0.0000 0.0000
# 3 3.8736 -0.3294 30.5061 0.0000 0.0000 0.0000
# 4 0.0000 0.0000 0.0000 5.4950 0.0000 0.0000
# 5 0.0000 0.0000 0.0000 0.0000 6.8235 0.0000
# 6 0.0000 0.0000 0.0000 0.0000 0.0000 39.2095
#
#
#
# Elastic Compliance Matrix: (Units=1/GPa)
#
#
# Indices 1 2 3 4 5 6 
#
# 1 0.011702 -0.001313 -0.001500 0.000000 0.000000 0.000000
# 2 -0.001313 0.007420 0.000247 0.000000 0.000000 0.000000
# 3 -0.001500 0.000247 0.032973 0.000000 0.000000 0.000000
# 4 0.000000 0.000000 0.000000 0.181985 0.000000 0.000000
# 5 0.000000 0.000000 0.000000 0.000000 0.146552 0.000000
# 6 0.000000 0.000000 0.000000 0.000000 0.000000 0.025504
#
#
# Mechanical properties :
#
#
# Convention : Reuss Voigt Hill
#
# Bulk Modulus (GPa) = 21.29321 32.61618 26.95469
# Shear Modulus (GPa) = 11.71174 26.09015 18.90094
#
# Velocity S-wave (km/s) = 2.30004 3.43292 2.92191
# Velocity P-wave (km/s) = 4.08311 5.51779 4.85375
#
# Compressibility (1/GPa) = 0.04696333
#
# Stress axis : x y z
#
# Youngs Moduli (GPa) = 85.45536 134.77863 30.32745
#
# Poissons Ratio (x) = 0.17690 0.04549
# Poissons Ratio (y) = 0.11216 -0.00748
# Poissons Ratio (z) = 0.12819 -0.03326
#
# Static dielectric constant tensor:
#      x y z
#    x 1.874940 0.000000 0.000000 
#    y 0.000000 1.821300 0.000000 
#    z 0.000000 0.000000 1.942730 
# 
# From -- ./inp_files/21428.got.cif
#   From: 2010.05.17/outbox.cif.g08.bks.cpg/sg40_11_cif.got.tgz:21428.got - 2010.06.03 18:35:42.
