data_PCOD9364084
_publ_section_title
;
Structure prediction by ZEFSAII (Michael W. Deem and Ramdas Pophale) SiO2 
 PCOD9364084
Probable space group: A M A 2
;
_chemical_formula_sum "Si O2"
_cell_formula_units_Z 48
_cell_length_a 8.662981
_cell_length_b 9.278865
_cell_length_c 31.494891
_cell_angle_alpha 90.000000
_cell_angle_beta 90.000000
_cell_angle_gamma 90.000000
_cell_volume 2531.642208
_symmetry_space_group_name_H-M "A M A 2"
_symmetry_group_IT_number 40
_symmetry_cell_setting 'orthorhombic'
loop_
_space_group_symop_operation_xyz
x,y,z
-x,-y,z
1/2-x,y,z
1/2+x,-y,z
x,1/2+y,1/2+z
-x,1/2-y,1/2+z
1/2-x,1/2+y,1/2+z
1/2+x,1/2-y,1/2+z
loop_
_atom_site_type_symbol
_atom_site_label
_atom_site_fract_x
_atom_site_fract_y
_atom_site_fract_z
Si Si1 0.064928 0.838705 0.707970
Si Si2 0.435558 0.838665 0.128461
Si Si3 0.935962 0.160524 0.962655
Si Si4 0.434620 0.661093 0.371004
Si Si5 0.064056 0.660313 0.045250
Si Si6 0.064765 0.660371 0.792696
O O1 0.250000 0.843306 0.704354
O O2 0.024878 0.755944 0.751492
O O3 0.996703 0.751211 0.668424
O O4 0.000000 0.000000 0.708598
O O5 0.250000 0.843314 0.129721
O O6 0.484414 0.757907 0.085196
O O7 0.500000 0.000000 0.129508
O O8 0.750000 0.154512 0.960174
O O9 0.002982 0.207286 0.917206
O O10 0.982426 0.264362 0.001132
O O11 0.000000 0.000000 0.970848
O O12 0.500000 0.500000 0.363402
O O13 0.250000 0.655540 0.371565
O O14 0.494055 0.765271 0.334242
O O15 0.250000 0.653912 0.045729
O O16 0.000000 0.500000 0.048969
O O17 0.250000 0.655815 0.796466
O O18 0.000000 0.500000 0.787485
#
# Coordination Sequence:
#
# PCOD9364084 Si02
#       6
#     8   8   8   8   8   8
#     4  11  24  41  63  90 120 155 195 240 290 346
#     4  11  23  40  62  89 120 155 196 241 292 347
#     4  10  20  37  59  85 116 151 195 242 291 347
#     4  11  22  38  61  88 118 154 196 242 294 349
#     4  10  23  39  58  85 117 154 195 240 289 346
#     4  11  24  41  61  87 119 155 196 241 291 347
#
# _framework density 18.960025999999999
#
# number of rings (size 3 to 8) (size 9 to 14) (size 15 to 20)
#    0.000    1.333    0.000    6.500    0.000   10.000 
#    0.000    1.667    0.000    0.000    0.000    0.000 
#    0.000    0.000    0.000    0.000    0.000    0.000 
#
# Total GULP energy -134249.879957 kJ/mol
# GULP energy per Si atom -5593.744998 kJ/mol
# Density = 1.891687 g / cm^3
# Si number density = 18.960026 Si / 1000 Ang^3
#
#
#
# Elastic Constant Matrix: (Units=GPa)
#
#
# Indices 1 2 3 4 5 6 
#
# 1 82.6888 63.9040 71.5461 0.0000 0.0000 0.0000
# 2 63.9040 186.0695 135.2415 0.0000 0.0000 0.0000
# 3 71.5461 135.2415 184.2533 0.0000 0.0000 0.0000
# 4 0.0000 0.0000 0.0000 38.0501 0.0000 0.0000
# 5 0.0000 0.0000 0.0000 0.0000 31.7500 0.0000
# 6 0.0000 0.0000 0.0000 0.0000 0.0000 39.0721
#
#
#
# Elastic Compliance Matrix: (Units=1/GPa)
#
#
# Indices 1 2 3 4 5 6 
#
# 1 0.018722 -0.002457 -0.005467 0.000000 0.000000 0.000000
# 2 -0.002457 0.011843 -0.007739 0.000000 0.000000 0.000000
# 3 -0.005467 -0.007739 0.013230 0.000000 0.000000 0.000000
# 4 0.000000 0.000000 0.000000 0.026281 0.000000 0.000000
# 5 0.000000 0.000000 0.000000 0.000000 0.031496 0.000000
# 6 0.000000 0.000000 0.000000 0.000000 0.000000 0.025594
#
#
# Mechanical properties :
#
#
# Convention : Reuss Voigt Hill
#
# Bulk Modulus (GPa) = 80.18500 110.48832 95.33666
# Shear Modulus (GPa) = 30.74145 33.92911 32.33528
#
# Velocity S-wave (km/s) = 4.03101 4.23485 4.13418
# Velocity P-wave (km/s) = 8.00305 9.07264 8.55458
#
# Compressibility (1/GPa) = 0.01247116
#
# Stress axis : x y z
#
# Youngs Moduli (GPa) = 53.41283 84.44016 75.58456
#
# Poissons Ratio (x) = 0.20743 0.41320
# Poissons Ratio (y) = 0.13121 0.58492
# Poissons Ratio (z) = 0.29200 0.65345
#
# Static dielectric constant tensor:
#      x y z
#    x 1.639220 0.000000 0.000000 
#    y 0.000000 1.614580 0.000000 
#    z 0.000000 0.000000 1.642700 
# 
# From -- ./inp_files/26138.got.cif
#   From: 2010.05.17/outbox.cif.g08.bks.cpg/sg40_14_cif.got.tgz:26138.got - 2010.06.03 18:35:42.
