data_PCOD9364137
_publ_section_title
;
Structure prediction by ZEFSAII (Michael W. Deem and Ramdas Pophale) SiO2 
 PCOD9364137
Probable space group: A M A 2
;
_chemical_formula_sum "Si O2"
_cell_formula_units_Z 64
_cell_length_a 18.868312
_cell_length_b 12.093555
_cell_length_c 15.141007
_cell_angle_alpha 90.000000
_cell_angle_beta 90.000000
_cell_angle_gamma 90.000000
_cell_volume 3454.950212
_symmetry_space_group_name_H-M "A M A 2"
_symmetry_group_IT_number 40
_symmetry_cell_setting 'orthorhombic'
loop_
_space_group_symop_operation_xyz
x,y,z
-x,-y,z
1/2-x,y,z
1/2+x,-y,z
x,1/2+y,1/2+z
-x,1/2-y,1/2+z
1/2-x,1/2+y,1/2+z
1/2+x,1/2-y,1/2+z
loop_
_atom_site_type_symbol
_atom_site_label
_atom_site_fract_x
_atom_site_fract_y
_atom_site_fract_z
Si Si1 0.993726 0.832265 0.415510
Si Si2 0.894403 0.331449 0.626266
Si Si3 0.331687 0.982124 0.246220
Si Si4 0.555663 0.904334 0.952757
Si Si5 0.168986 0.413867 0.129257
Si Si6 0.425656 0.564413 0.251810
Si Si7 0.120439 0.000661 0.447103
Si Si8 0.040475 0.816199 0.216003
O O1 0.011005 0.708497 0.442188
O O2 0.000762 0.838790 0.309509
O O3 0.919931 0.881832 0.448584
O O4 0.056874 0.910709 0.448858
O O5 0.852178 0.403505 0.697903
O O6 0.887368 0.384056 0.529155
O O7 0.870488 0.204365 0.627518
O O8 0.978691 0.337764 0.646160
O O9 0.250000 0.952559 0.227260
O O10 0.341638 0.990321 0.352432
O O11 0.390951 0.894586 0.212993
O O12 0.588925 0.927944 0.856584
O O13 0.500000 0.000000 0.974001
O O14 0.250000 0.394100 0.153284
O O15 0.131357 0.495087 0.198173
O O16 0.164817 0.471924 0.033199
O O17 0.500000 0.500000 0.242142
O O18 0.435585 0.688736 0.216219
#
# Coordination Sequence:
#
# PCOD9364137 Si02
#       8
#     8   8   8   8   8   8   8   8
#     4   9  18  34  60  97 117 155 207 261 305 359
#     4  12  22  41  64  96 124 165 214 263 309 377
#     4  11  23  39  61  93 131 167 204 260 323 377
#     4  10  21  36  61  94 125 156 207 262 307 367
#     4  12  26  41  62  94 127 165 210 259 320 379
#     4  10  22  41  64  93 122 161 208 261 313 371
#     4  10  20  37  62  89 128 158 206 258 312 374
#     4  10  20  37  65  93 122 158 212 259 308 371
#
# _framework density 18.524145000000001
#
# number of rings (size 3 to 8) (size 9 to 14) (size 15 to 20)
#    0.000    1.500    3.750    1.875    3.500    0.500 
#    0.000    1.250    0.000    0.000    0.000    0.000 
#    0.000    0.000    0.000    0.000    0.000    0.000 
#
# Total GULP energy -178664.119753 kJ/mol
# GULP energy per Si atom -5583.253742 kJ/mol
# Density = 1.848198 g / cm^3
# Si number density = 18.524145 Si / 1000 Ang^3
#
#
#
# Elastic Constant Matrix: (Units=GPa)
#
#
# Indices 1 2 3 4 5 6 
#
# 1 99.7356 31.7575 46.8346 0.0000 0.0000 0.0000
# 2 31.7575 103.5276 47.0291 0.0000 0.0000 0.0000
# 3 46.8346 47.0291 85.0468 0.0000 0.0000 0.0000
# 4 0.0000 0.0000 0.0000 25.9048 0.0000 0.0000
# 5 0.0000 0.0000 0.0000 0.0000 3.2380 0.0000
# 6 0.0000 0.0000 0.0000 0.0000 0.0000 12.5114
#
#
#
# Elastic Compliance Matrix: (Units=1/GPa)
#
#
# Indices 1 2 3 4 5 6 
#
# 1 0.013605 -0.001028 -0.006924 0.000000 0.000000 0.000000
# 2 -0.001028 0.012977 -0.006610 0.000000 0.000000 0.000000
# 3 -0.006924 -0.006610 0.019226 0.000000 0.000000 0.000000
# 4 0.000000 0.000000 0.000000 0.038603 0.000000 0.000000
# 5 0.000000 0.000000 0.000000 0.000000 0.308828 0.000000
# 6 0.000000 0.000000 0.000000 0.000000 0.000000 0.079927
#
#
# Mechanical properties :
#
#
# Convention : Reuss Voigt Hill
#
# Bulk Modulus (GPa) = 59.93406 59.95026 59.94216
# Shear Modulus (GPa) = 9.84538 19.17676 14.51107
#
# Velocity S-wave (km/s) = 2.30791 3.22099 2.80189
# Velocity P-wave (km/s) = 6.28703 6.80196 6.54955
#
# Compressibility (1/GPa) = 0.01668500
#
# Stress axis : x y z
#
# Youngs Moduli (GPa) = 73.50127 77.05733 52.01234
#
# Poissons Ratio (x) = 0.07923 0.36012
# Poissons Ratio (y) = 0.07558 0.34380
# Poissons Ratio (z) = 0.50890 0.50934
#
# Static dielectric constant tensor:
#      x y z
#    x 1.608970 0.000000 0.000000 
#    y 0.000000 1.631580 0.000000 
#    z 0.000000 0.000000 1.690280 
# 
# From -- ./inp_files/17886.got.cif
#   From: 2010.05.17/outbox.cif.g08.bks.cpg/sg40_9_cif.got.tgz:17886.got - 2010.06.03 18:35:42.
