data_PCOD9364240
_publ_section_title
;
Structure prediction by ZEFSAII (Michael W. Deem and Ramdas Pophale) SiO2 
 PCOD9364240
Probable space group: A M A 2
;
_chemical_formula_sum "Si O2"
_cell_formula_units_Z 40
_cell_length_a 10.079886
_cell_length_b 21.930530
_cell_length_c 8.914693
_cell_angle_alpha 90.000000
_cell_angle_beta 90.000000
_cell_angle_gamma 90.000000
_cell_volume 1970.657451
_symmetry_space_group_name_H-M "A M A 2"
_symmetry_group_IT_number 40
_symmetry_cell_setting 'orthorhombic'
loop_
_space_group_symop_operation_xyz
x,y,z
-x,-y,z
1/2-x,y,z
1/2+x,-y,z
x,1/2+y,1/2+z
-x,1/2-y,1/2+z
1/2-x,1/2+y,1/2+z
1/2+x,1/2-y,1/2+z
loop_
_atom_site_type_symbol
_atom_site_label
_atom_site_fract_x
_atom_site_fract_y
_atom_site_fract_z
Si Si1 0.109962 0.425282 0.150160
Si Si2 0.000000 0.000000 0.912689
Si Si3 0.096652 0.592236 0.657719
Si Si4 0.092898 0.682060 0.153744
Si Si5 0.407820 0.218086 0.005347
Si Si6 0.500000 0.000000 0.401793
O O1 0.250000 0.390726 0.147369
O O2 0.094769 0.461638 0.304684
O O3 0.982253 0.382221 0.136631
O O4 0.107907 0.474397 0.016991
O O5 0.922283 0.952916 0.017150
O O6 0.250000 0.597864 0.696014
O O7 0.051711 0.658776 0.604023
O O8 0.029362 0.557336 0.794980
O O9 0.250000 0.679733 0.116651
O O10 0.081263 0.701762 0.328947
O O11 0.007782 0.728626 0.052639
O O12 0.250000 0.230954 0.033069
#
# Coordination Sequence:
#
# PCOD9364240 Si02
#       6
#     8   4   8   8   8   4
#     4  11  23  40  64  95 131 167 208 259 316 379
#     4  10  20  38  64  94 122 162 208 258 316 380
#     4  10  20  40  64  90 125 164 208 259 314 374
#     4  11  25  44  67  94 125 165 215 265 316 378
#     4  10  23  44  67  93 125 164 211 264 316 375
#     4  10  24  38  60  98 130 170 208 254 312 376
#
# _framework density 20.297794
#
# number of rings (size 3 to 8) (size 9 to 14) (size 15 to 20)
#    0.000    1.600    2.000    1.800    2.800    5.600 
#    0.000    1.000    0.000    0.000    0.000    0.000 
#    0.000    0.000    0.000    0.000    0.000    0.000 
#
# Total GULP energy -111595.885044 kJ/mol
# GULP energy per Si atom -5579.794252 kJ/mol
# Density = 2.025160 g / cm^3
# Si number density = 20.297794 Si / 1000 Ang^3
#
#
#
# Elastic Constant Matrix: (Units=GPa)
#
#
# Indices 1 2 3 4 5 6 
#
# 1 122.7595 43.6587 28.9259 0.0000 0.0000 0.0000
# 2 43.6587 76.2316 12.2165 0.0000 0.0000 0.0000
# 3 28.9259 12.2165 84.5240 0.0000 0.0000 0.0000
# 4 0.0000 0.0000 0.0000 32.7783 0.0000 0.0000
# 5 0.0000 0.0000 0.0000 0.0000 -122.2290 0.0000
# 6 0.0000 0.0000 0.0000 0.0000 0.0000 23.8433
#
#
#
# Elastic Compliance Matrix: (Units=1/GPa)
#
#
# Indices 1 2 3 4 5 6 
#
# 1 0.010878 -0.005767 -0.002889 0.000000 0.000000 0.000000
# 2 -0.005767 0.016486 -0.000409 0.000000 0.000000 0.000000
# 3 -0.002889 -0.000409 0.012879 0.000000 0.000000 0.000000
# 4 0.000000 0.000000 0.000000 0.030508 0.000000 0.000000
# 5 0.000000 0.000000 0.000000 0.000000 -0.008181 0.000000
# 6 0.000000 0.000000 0.000000 0.000000 0.000000 0.041940
#
#
# Mechanical properties :
#
#
# Convention : Reuss Voigt Hill
#
# Bulk Modulus (GPa) = 45.22346 50.34637 47.78491
# Shear Modulus (GPa) = 38.45830 0.12613 19.29222
#
# Velocity S-wave (km/s) = 4.35754 0.24955 3.08630
# Velocity P-wave (km/s) = 6.90260 4.99407 6.02439
#
# Compressibility (1/GPa) = 0.02211242
#
# Stress axis : x y z
#
# Youngs Moduli (GPa) = 91.93119 60.65671 77.64687
#
# Poissons Ratio (x) = 0.34979 0.22433
# Poissons Ratio (y) = 0.53015 0.03178
# Poissons Ratio (z) = 0.26560 0.02483
#
# Static dielectric constant tensor:
#      x y z
#    x 1.782350 0.000000 0.000000 
#    y 0.000000 1.793190 0.000000 
#    z 0.000000 0.000000 1.716180 
# 
# From -- ./inp_files/4266.got.cif
#   From: 2010.05.17/outbox.cif.g08.bks.cpg/sg40_3_cif.got.tgz:4266.got - 2010.06.03 18:35:42.
