data_PCOD9364755
_publ_section_title
;
Structure prediction by ZEFSAII (Michael W. Deem and Ramdas Pophale) SiO2 
 PCOD9364755
Probable space group: A M A 2
;
_chemical_formula_sum "Si O2"
_cell_formula_units_Z 48
_cell_length_a 15.581414
_cell_length_b 18.245941
_cell_length_c 8.860975
_cell_angle_alpha 90.000000
_cell_angle_beta 90.000000
_cell_angle_gamma 90.000000
_cell_volume 2519.153577
_symmetry_space_group_name_H-M "A M A 2"
_symmetry_group_IT_number 40
_symmetry_cell_setting 'orthorhombic'
loop_
_space_group_symop_operation_xyz
x,y,z
-x,-y,z
1/2-x,y,z
1/2+x,-y,z
x,1/2+y,1/2+z
-x,1/2-y,1/2+z
1/2-x,1/2+y,1/2+z
1/2+x,1/2-y,1/2+z
loop_
_atom_site_type_symbol
_atom_site_label
_atom_site_fract_x
_atom_site_fract_y
_atom_site_fract_z
Si Si1 0.074434 0.291113 0.517030
Si Si2 0.750000 0.294856 0.003386
Si Si3 0.250000 0.189689 0.860147
Si Si4 0.917068 0.048704 0.875297
Si Si5 0.250000 0.529851 0.509353
Si Si6 0.250000 0.548033 0.866011
Si Si7 0.847979 0.065623 0.544774
Si Si8 0.585525 0.207698 0.376748
O O1 0.165295 0.253342 0.479525
O O2 0.070041 0.369876 0.438355
O O3 0.070123 0.298950 0.697810
O O4 0.997366 0.240939 0.457610
O O5 0.750000 0.366619 0.901033
O O6 0.750000 0.320687 0.178644
O O7 0.334252 0.237068 0.898715
O O8 0.250000 0.111732 0.941551
O O9 0.899990 0.051523 0.696126
O O10 0.000000 0.000000 0.907813
O O11 0.833767 0.012394 0.950796
O O12 0.250000 0.532483 0.689700
O O13 0.169241 0.507397 0.946123
O O14 0.750000 0.088711 0.587705
O O15 0.889297 0.129599 0.446395
#
# Coordination Sequence:
#
# PCOD9364755 Si02
#       8
#     8   4   4   8   4   4   8   8
#     4  11  25  41  66  96 130 173 219 270 330 388
#     4  10  23  42  63  89 131 169 213 258 323 386
#     4  10  21  40  65  87 125 171 207 268 323 390
#     4  12  25  43  65  96 131 174 220 273 328 395
#     4  12  23  40  65  91 131 169 219 266 331 392
#     4  10  23  40  65  97 123 171 215 266 325 388
#     4  10  22  43  68  92 128 171 219 262 334 390
#     4  11  22  43  65  96 129 168 220 273 327 393
#
# _framework density 19.054019
#
# number of rings (size 3 to 8) (size 9 to 14) (size 15 to 20)
#    0.500    0.667    1.667    4.500    0.000    8.000 
#    0.000    1.667    0.000    0.000    0.000    0.000 
#    0.000    0.000    0.000    0.000    0.000    0.000 
#
# Total GULP energy -134178.654860 kJ/mol
# GULP energy per Si atom -5590.777286 kJ/mol
# Density = 1.901065 g / cm^3
# Si number density = 19.054019 Si / 1000 Ang^3
#
#
#
# Elastic Constant Matrix: (Units=GPa)
#
#
# Indices 1 2 3 4 5 6 
#
# 1 123.3343 31.9273 28.4450 0.0000 0.0000 0.0000
# 2 31.9273 101.2632 36.1475 0.0000 0.0000 0.0000
# 3 28.4450 36.1475 53.9860 0.0000 0.0000 0.0000
# 4 0.0000 0.0000 0.0000 34.8679 0.0000 0.0000
# 5 0.0000 0.0000 0.0000 0.0000 -130.9916 0.0000
# 6 0.0000 0.0000 0.0000 0.0000 0.0000 16.9813
#
#
#
# Elastic Compliance Matrix: (Units=1/GPa)
#
#
# Indices 1 2 3 4 5 6 
#
# 1 0.009417 -0.001574 -0.003908 0.000000 0.000000 0.000000
# 2 -0.001574 0.013240 -0.008036 0.000000 0.000000 0.000000
# 3 -0.003908 -0.008036 0.025963 0.000000 0.000000 0.000000
# 4 0.000000 0.000000 0.000000 0.028680 0.000000 0.000000
# 5 0.000000 0.000000 0.000000 0.000000 -0.007634 0.000000
# 6 0.000000 0.000000 0.000000 0.000000 0.000000 0.058888
#
#
# Mechanical properties :
#
#
# Convention : Reuss Voigt Hill
#
# Bulk Modulus (GPa) = 46.32955 52.40256 49.36606
# Shear Modulus (GPa) = 30.71564 -3.69091 13.51236
#
# Velocity S-wave (km/s) = 4.01936 -1.39330 2.66590
# Velocity P-wave (km/s) = 6.77555 4.99734 5.95321
#
# Compressibility (1/GPa) = 0.02158449
#
# Stress axis : x y z
#
# Youngs Moduli (GPa) = 106.19347 75.52838 38.51659
#
# Poissons Ratio (x) = 0.11889 0.15051
# Poissons Ratio (y) = 0.16716 0.30951
# Poissons Ratio (z) = 0.41497 0.60693
#
# Static dielectric constant tensor:
#      x y z
#    x 1.643270 0.000000 0.000000 
#    y 0.000000 1.625790 0.000000 
#    z 0.000000 0.000000 1.636080 
# 
# From -- ./inp_files/6521.got.cif
#   From: 2010.05.17/outbox.cif.g08.bks.cpg/sg40_4_cif.got.tgz:6521.got - 2010.06.03 18:35:42.
