data_PCOD9364818
_publ_section_title
;
Structure prediction by ZEFSAII (Michael W. Deem and Ramdas Pophale) SiO2 
 PCOD9364818
Probable space group: A M A 2
;
_chemical_formula_sum "Si O2"
_cell_formula_units_Z 64
_cell_length_a 19.185208
_cell_length_b 21.072253
_cell_length_c 6.852610
_cell_angle_alpha 90.000000
_cell_angle_beta 90.000000
_cell_angle_gamma 90.000000
_cell_volume 2770.342724
_symmetry_space_group_name_H-M "A M A 2"
_symmetry_group_IT_number 40
_symmetry_cell_setting 'orthorhombic'
loop_
_space_group_symop_operation_xyz
x,y,z
-x,-y,z
1/2-x,y,z
1/2+x,-y,z
x,1/2+y,1/2+z
-x,1/2-y,1/2+z
1/2-x,1/2+y,1/2+z
1/2+x,1/2-y,1/2+z
loop_
_atom_site_type_symbol
_atom_site_label
_atom_site_fract_x
_atom_site_fract_y
_atom_site_fract_z
Si Si1 0.427914 0.966840 0.804080
Si Si2 0.329020 0.500256 0.640665
Si Si3 0.832461 0.462592 0.055025
Si Si4 0.960714 0.676209 0.285211
Si Si5 0.327134 0.761718 0.858516
Si Si6 0.327024 0.351583 0.716878
Si Si7 0.667527 0.829991 0.725412
Si Si8 0.927719 0.235570 0.468636
O O1 0.441892 0.893377 0.845978
O O2 0.500000 0.000000 0.757822
O O3 0.374447 0.976488 0.627620
O O4 0.388986 0.000980 0.982274
O O5 0.250000 0.512501 0.564879
O O6 0.329186 0.427156 0.713953
O O7 0.342437 0.545193 0.824130
O O8 0.750000 0.472120 0.082522
O O9 0.855657 0.401467 0.177904
O O10 0.893240 0.725017 0.213841
O O11 0.006309 0.715498 0.429849
O O12 0.985833 0.680357 0.067351
O O13 0.250000 0.755408 0.770612
O O14 0.328205 0.824496 0.994794
O O15 0.338869 0.707525 0.017819
O O16 0.250000 0.332537 0.795490
O O17 0.388213 0.317315 0.830408
O O18 0.750000 0.831694 0.767539
O O19 0.628961 0.793486 0.897378
#
# Coordination Sequence:
#
# PCOD9364818 Si02
#       8
#     8   8   8   8   8   8   8   8
#     4  12  26  43  63  97 135 179 227 279 340 410
#     4  10  21  41  70  99 128 174 229 282 338 400
#     4  10  22  43  69  95 130 175 221 276 338 402
#     4  12  25  39  60  88 126 168 219 271 330 402
#     4   9  18  35  60  88 120 156 198 263 325 377
#     4   9  17  35  63  90 122 156 203 267 327 387
#     4   9  19  40  64  91 127 161 202 261 328 402
#     4  11  22  38  59  90 123 169 212 265 338 403
#
# _framework density 23.101835000000001
#
# number of rings (size 3 to 8) (size 9 to 14) (size 15 to 20)
#    0.000    1.750    1.250    4.500    0.000    2.000 
#    4.500    1.250    0.000    0.000    0.000    0.000 
#    0.000    0.000    0.000    0.000    0.000    0.000 
#
# Total GULP energy -178147.977130 kJ/mol
# GULP energy per Si atom -5567.124285 kJ/mol
# Density = 2.304925 g / cm^3
# Si number density = 23.101835 Si / 1000 Ang^3
#
#
#
# Elastic Constant Matrix: (Units=GPa)
#
#
# Indices 1 2 3 4 5 6 
#
# 1 81.0385 30.7868 33.9072 0.0000 0.0000 0.0000
# 2 30.7868 67.3263 14.8317 0.0000 0.0000 0.0000
# 3 33.9072 14.8317 79.5304 0.0000 0.0000 0.0000
# 4 0.0000 0.0000 0.0000 10.5582 0.0000 0.0000
# 5 0.0000 0.0000 0.0000 0.0000 8751.7667 0.0000
# 6 0.0000 0.0000 0.0000 0.0000 0.0000 148.5206
#
#
#
# Elastic Compliance Matrix: (Units=1/GPa)
#
#
# Indices 1 2 3 4 5 6 
#
# 1 0.017448 -0.006612 -0.006206 0.000000 0.000000 0.000000
# 2 -0.006612 0.017995 -0.000537 0.000000 0.000000 0.000000
# 3 -0.006206 -0.000537 0.015320 0.000000 0.000000 0.000000
# 4 0.000000 0.000000 0.000000 0.094713 0.000000 0.000000
# 5 0.000000 0.000000 0.000000 0.000000 0.000114 0.000000
# 6 0.000000 0.000000 0.000000 0.000000 0.000000 0.006733
#
#
# Mechanical properties :
#
#
# Convention : Reuss Voigt Hill
#
# Bulk Modulus (GPa) = 41.57375 42.99407 42.28391
# Shear Modulus (GPa) = 26.73085 1792.06039 909.39562
#
# Velocity S-wave (km/s) = 3.40529 27.88200 19.86205
# Velocity P-wave (km/s) = 5.78760 32.48373 23.33119
#
# Compressibility (1/GPa) = 0.02405364
#
# Stress axis : x y z
#
# Youngs Moduli (GPa) = 57.31262 55.57203 65.27494
#
# Poissons Ratio (x) = 0.36742 0.40509
# Poissons Ratio (y) = 0.37892 0.03506
# Poissons Ratio (z) = 0.35568 0.02985
#
# Static dielectric constant tensor:
#      x y z
#    x -14.099140 0.000000 0.000000 
#    y 0.000000 1.912710 0.000000 
#    z 0.000000 0.000000 1.891240 
# 
# From -- ./inp_files/7794.got.cif
#   From: 2010.05.17/outbox.cif.g08.bks.cpg/sg40_4_cif.got.tgz:7794.got - 2010.06.03 18:35:42.
