data_PCOD9364433
_publ_section_title
;
Structure prediction by ZEFSAII (Michael W. Deem and Ramdas Pophale) SiO2 
 PCOD9364433
Probable space group: A M A 2
;
_chemical_formula_sum "Si O2"
_cell_formula_units_Z 40
_cell_length_a 9.445469
_cell_length_b 29.770662
_cell_length_c 7.382284
_cell_angle_alpha 90.000000
_cell_angle_beta 90.000000
_cell_angle_gamma 90.000000
_cell_volume 2075.882500
_symmetry_space_group_name_H-M "A M A 2"
_symmetry_group_IT_number 40
_symmetry_cell_setting 'orthorhombic'
loop_
_space_group_symop_operation_xyz
x,y,z
-x,-y,z
1/2-x,y,z
1/2+x,-y,z
x,1/2+y,1/2+z
-x,1/2-y,1/2+z
1/2-x,1/2+y,1/2+z
1/2+x,1/2-y,1/2+z
loop_
_atom_site_type_symbol
_atom_site_label
_atom_site_fract_x
_atom_site_fract_y
_atom_site_fract_z
Si Si1 0.581694 0.954231 0.795830
Si Si2 0.910011 0.697948 0.052387
Si Si3 0.083341 0.612243 0.993313
Si Si4 0.082214 0.126951 0.067065
Si Si5 0.410290 0.786262 0.123078
O O1 0.750000 0.962034 0.809754
O O2 0.550822 0.933875 0.596649
O O3 0.500000 0.000000 0.830049
O O4 0.545940 0.914504 0.937228
O O5 0.750000 0.698078 0.124105
O O6 0.901820 0.701851 0.834754
O O7 0.992600 0.651777 0.083584
O O8 0.999294 0.740968 0.112047
O O9 0.250000 0.621859 0.023553
O O10 0.060401 0.612490 0.777300
O O11 0.250000 0.137199 0.044570
O O12 0.991547 0.171866 0.032358
O O13 0.250000 0.779924 0.054707
#
# Coordination Sequence:
#
# PCOD9364433 Si02
#       5
#     8   8   8   8   8
#     4  10  22  38  58  84 110 142 186 232 283 338
#     4  10  21  35  53  80 112 147 186 227 276 333
#     4   9  19  37  57  78 110 147 183 229 280 329
#     4   9  19  37  57  78 110 147 183 229 280 329
#     4  10  21  35  53  80 112 147 186 227 276 333
#
# _framework density 19.268913000000001
#
# number of rings (size 3 to 8) (size 9 to 14) (size 15 to 20)
#    0.000    2.400    0.000    1.200    2.800    4.800 
#    0.000    0.000    0.000    0.000    0.000    0.000 
#    0.000    0.000    0.000    0.000    0.000    0.000 
#
# Total GULP energy -111658.588178 kJ/mol
# GULP energy per Si atom -5582.929409 kJ/mol
# Density = 1.922506 g / cm^3
# Si number density = 19.268913 Si / 1000 Ang^3
#
#
#
# Elastic Constant Matrix: (Units=GPa)
#
#
# Indices 1 2 3 4 5 6 
#
# 1 81.6877 57.1819 15.4658 0.0000 0.0000 0.0000
# 2 57.1819 106.0295 3.9365 0.0000 0.0000 0.0000
# 3 15.4658 3.9365 37.4185 0.0000 0.0000 0.0000
# 4 0.0000 0.0000 0.0000 29.5771 0.0000 0.0000
# 5 0.0000 0.0000 0.0000 0.0000 17.4873 0.0000
# 6 0.0000 0.0000 0.0000 0.0000 0.0000 42.4516
#
#
#
# Elastic Compliance Matrix: (Units=1/GPa)
#
#
# Indices 1 2 3 4 5 6 
#
# 1 0.021705 -0.011417 -0.007770 0.000000 0.000000 0.000000
# 2 -0.011417 0.015474 0.003091 0.000000 0.000000 0.000000
# 3 -0.007770 0.003091 0.029611 0.000000 0.000000 0.000000
# 4 0.000000 0.000000 0.000000 0.033810 0.000000 0.000000
# 5 0.000000 0.000000 0.000000 0.000000 0.057184 0.000000
# 6 0.000000 0.000000 0.000000 0.000000 0.000000 0.023556
#
#
# Mechanical properties :
#
#
# Convention : Reuss Voigt Hill
#
# Bulk Modulus (GPa) = 28.90358 42.03377 35.46868
# Shear Modulus (GPa) = 22.21585 27.80661 25.01123
#
# Velocity S-wave (km/s) = 3.39918 3.80291 3.60670
# Velocity P-wave (km/s) = 5.51711 6.41440 5.98260
#
# Compressibility (1/GPa) = 0.03459779
#
# Stress axis : x y z
#
# Youngs Moduli (GPa) = 46.07293 64.62559 33.77120
#
# Poissons Ratio (x) = 0.73783 0.26240
# Poissons Ratio (y) = 0.52601 -0.10439
# Poissons Ratio (z) = 0.35798 -0.19975
#
# Static dielectric constant tensor:
#      x y z
#    x 1.671140 0.000000 0.000000 
#    y 0.000000 1.618730 0.000000 
#    z 0.000000 0.000000 1.720220 
# 
# From -- ./inp_files/4227.got.cif
#   From: 2010.05.17/outbox.cif.g08.bks.cpg/sg40_3_cif.got.tgz:4227.got - 2010.06.03 18:35:42.
