data_PCOD9364336
_publ_section_title
;
Structure prediction by ZEFSAII (Michael W. Deem and Ramdas Pophale) SiO2 
 PCOD9364336
Probable space group: A M A 2
;
_chemical_formula_sum "Si O2"
_cell_formula_units_Z 40
_cell_length_a 13.304195
_cell_length_b 17.836184
_cell_length_c 7.462405
_cell_angle_alpha 90.000000
_cell_angle_beta 90.000000
_cell_angle_gamma 90.000000
_cell_volume 1770.799379
_symmetry_space_group_name_H-M "A M A 2"
_symmetry_group_IT_number 40
_symmetry_cell_setting 'orthorhombic'
loop_
_space_group_symop_operation_xyz
x,y,z
-x,-y,z
1/2-x,y,z
1/2+x,-y,z
x,1/2+y,1/2+z
-x,1/2-y,1/2+z
1/2-x,1/2+y,1/2+z
1/2+x,1/2-y,1/2+z
loop_
_atom_site_type_symbol
_atom_site_label
_atom_site_fract_x
_atom_site_fract_y
_atom_site_fract_z
Si Si1 0.420384 0.651791 0.578710
Si Si2 0.144390 0.367716 0.468890
Si Si3 0.386255 0.526527 0.297614
Si Si4 0.135062 0.820218 0.570106
Si Si5 0.051618 0.577177 0.933773
O O1 0.387768 0.734496 0.523285
O O2 0.377387 0.594930 0.432118
O O3 0.542369 0.644335 0.575703
O O4 0.394151 0.622877 0.776649
O O5 0.250000 0.348480 0.561762
O O6 0.153782 0.452236 0.392688
O O7 0.133470 0.321090 0.286393
O O8 0.500000 0.500000 0.281304
O O9 0.371545 0.554023 0.093772
O O10 0.250000 0.842982 0.518319
O O11 0.043265 0.873264 0.506880
O O12 0.000000 0.500000 0.862886
#
# Coordination Sequence:
#
# PCOD9364336 Si02
#       5
#     8   8   8   8   8
#     4  11  22  38  64  91 123 164 204 257 315 368
#     4  10  20  40  65  89 126 168 210 260 313 373
#     4   9  18  38  60  88 116 158 204 254 308 366
#     4  11  23  40  60  89 129 163 202 258 312 368
#     4  11  20  38  65  89 115 163 210 251 310 373
#
# _framework density 22.588666
#
# number of rings (size 3 to 8) (size 9 to 14) (size 15 to 20)
#    0.000    1.600    6.000    3.000    0.000    1.600 
#    0.000    2.000    0.000    1.200    0.000    0.000 
#    0.000    0.000    0.000    0.000    0.000    0.000 
#
# Total GULP energy -111510.125997 kJ/mol
# GULP energy per Si atom -5575.506300 kJ/mol
# Density = 2.253725 g / cm^3
# Si number density = 22.588666 Si / 1000 Ang^3
#
#
#
# Elastic Constant Matrix: (Units=GPa)
#
#
# Indices 1 2 3 4 5 6 
#
# 1 66.8753 -7.1678 -2.7817 0.0000 0.0000 0.0000
# 2 -7.1678 108.9938 -0.9441 0.0000 0.0000 0.0000
# 3 -2.7817 -0.9441 55.3176 0.0000 0.0000 0.0000
# 4 0.0000 0.0000 0.0000 39.2974 0.0000 0.0000
# 5 0.0000 0.0000 0.0000 0.0000 57.3006 0.0000
# 6 0.0000 0.0000 0.0000 0.0000 0.0000 -28.4392
#
#
#
# Elastic Compliance Matrix: (Units=1/GPa)
#
#
# Indices 1 2 3 4 5 6 
#
# 1 0.015093 0.000999 0.000776 0.000000 0.000000 0.000000
# 2 0.000999 0.009242 0.000208 0.000000 0.000000 0.000000
# 3 0.000776 0.000208 0.018120 0.000000 0.000000 0.000000
# 4 0.000000 0.000000 0.000000 0.025447 0.000000 0.000000
# 5 0.000000 0.000000 0.000000 0.000000 0.017452 0.000000
# 6 0.000000 0.000000 0.000000 0.000000 0.000000 -0.035163
#
#
# Mechanical properties :
#
#
# Convention : Reuss Voigt Hill
#
# Bulk Modulus (GPa) = 21.54177 23.26661 22.40419
# Shear Modulus (GPa) = 81.03956 29.77046 55.40501
#
# Velocity S-wave (km/s) = 5.99617 3.63428 4.95793
# Velocity P-wave (km/s) = 7.58261 5.28518 6.53564
#
# Compressibility (1/GPa) = 0.04642143
#
# Stress axis : x y z
#
# Youngs Moduli (GPa) = 66.25773 108.19761 55.18765
#
# Poissons Ratio (x) = -0.10812 -0.04283
# Poissons Ratio (y) = -0.06621 -0.01148
# Poissons Ratio (z) = -0.05142 -0.02250
#
# Static dielectric constant tensor:
#      x y z
#    x 1.715570 0.000000 0.000000 
#    y 0.000000 1.839020 0.000000 
#    z 0.000000 0.000000 1.861340 
# 
# From -- ./inp_files/7308.got.cif
#   From: 2010.05.17/outbox.cif.g08.bks.cpg/sg40_4_cif.got.tgz:7308.got - 2010.06.03 18:35:42.
