data_PCOD9364714
_publ_section_title
;
Structure prediction by ZEFSAII (Michael W. Deem and Ramdas Pophale) SiO2 
 PCOD9364714
Probable space group: A M A 2
;
_chemical_formula_sum "Si O2"
_cell_formula_units_Z 40
_cell_length_a 13.679365
_cell_length_b 15.625051
_cell_length_c 7.332389
_cell_angle_alpha 90.000000
_cell_angle_beta 90.000000
_cell_angle_gamma 90.000000
_cell_volume 1567.230513
_symmetry_space_group_name_H-M "A M A 2"
_symmetry_group_IT_number 40
_symmetry_cell_setting 'orthorhombic'
loop_
_space_group_symop_operation_xyz
x,y,z
-x,-y,z
1/2-x,y,z
1/2+x,-y,z
x,1/2+y,1/2+z
-x,1/2-y,1/2+z
1/2-x,1/2+y,1/2+z
1/2+x,1/2-y,1/2+z
loop_
_atom_site_type_symbol
_atom_site_label
_atom_site_fract_x
_atom_site_fract_y
_atom_site_fract_z
Si Si1 0.365501 0.880884 0.752520
Si Si2 0.551922 0.619691 0.652526
Si Si3 0.358632 0.209084 0.165807
Si Si4 0.365247 0.017804 0.447055
Si Si5 0.360468 0.700886 0.088618
O O1 0.250000 0.871654 0.787476
O O2 0.396772 0.802713 0.614483
O O3 0.372623 0.961737 0.625550
O O4 0.417974 0.896930 0.944014
O O5 0.434701 0.633168 0.646157
O O6 0.590636 0.545455 0.788136
O O7 0.591389 0.717936 0.691672
O O8 0.250000 0.190366 0.097306
O O9 0.352878 0.231530 0.380214
O O10 0.250000 0.034440 0.396891
O O11 0.404190 0.107852 0.535792
O O12 0.250000 0.688688 0.161947
#
# Coordination Sequence:
#
# PCOD9364714 Si02
#       5
#     8   8   8   8   8
#     4   9  20  39  62  97 135 167 218 284 337 407
#     4  11  21  38  71  95 131 184 228 270 351 420
#     4   9  20  39  62  90 132 176 222 284 338 393
#     4  10  21  39  69 103 137 178 221 278 354 424
#     4   9  20  41  67 100 138 173 222 288 348 420
#
# _framework density 25.522729000000002
#
# number of rings (size 3 to 8) (size 9 to 14) (size 15 to 20)
#    0.000    2.400    0.000    3.000    5.600    0.800 
#    0.000    4.000    8.800   13.200    0.000    0.000 
#    0.000    0.000    0.000    0.000    0.000    0.000 
#
# Total GULP energy -111352.205862 kJ/mol
# GULP energy per Si atom -5567.610293 kJ/mol
# Density = 2.546464 g / cm^3
# Si number density = 25.522729 Si / 1000 Ang^3
#
#
#
# Elastic Constant Matrix: (Units=GPa)
#
#
# Indices 1 2 3 4 5 6 
#
# 1 131.4893 69.3785 31.3665 0.0000 0.0000 0.0000
# 2 69.3785 210.7072 45.3376 0.0000 0.0000 0.0000
# 3 31.3665 45.3376 130.7937 0.0000 0.0000 0.0000
# 4 0.0000 0.0000 0.0000 15.9955 0.0000 0.0000
# 5 0.0000 0.0000 0.0000 0.0000 0.5581 0.0000
# 6 0.0000 0.0000 0.0000 0.0000 0.0000 22.6542
#
#
#
# Elastic Compliance Matrix: (Units=1/GPa)
#
#
# Indices 1 2 3 4 5 6 
#
# 1 0.009397 -0.002820 -0.001276 0.000000 0.000000 0.000000
# 2 -0.002820 0.005974 -0.001395 0.000000 0.000000 0.000000
# 3 -0.001276 -0.001395 0.008435 0.000000 0.000000 0.000000
# 4 0.000000 0.000000 0.000000 0.062517 0.000000 0.000000
# 5 0.000000 0.000000 0.000000 0.000000 1.791646 0.000000
# 6 0.000000 0.000000 0.000000 0.000000 0.000000 0.044142
#
#
# Mechanical properties :
#
#
# Convention : Reuss Voigt Hill
#
# Bulk Modulus (GPa) = 77.96850 85.01728 81.49289
# Shear Modulus (GPa) = 2.58082 29.63543 16.10812
#
# Velocity S-wave (km/s) = 1.00667 3.41125 2.51495
# Velocity P-wave (km/s) = 5.65386 6.99272 6.35863
#
# Compressibility (1/GPa) = 0.01282569
#
# Stress axis : x y z
#
# Youngs Moduli (GPa) = 106.41289 167.38006 118.55133
#
# Poissons Ratio (x) = 0.47195 0.15130
# Poissons Ratio (y) = 0.30004 0.16535
# Poissons Ratio (z) = 0.13581 0.23345
#
# Static dielectric constant tensor:
#      x y z
#    x 2.145560 0.000000 0.000000 
#    y 0.000000 2.364850 0.000000 
#    z 0.000000 0.000000 2.016560 
# 
# From -- ./inp_files/6142.got.cif
#   From: 2010.05.17/outbox.cif.g08.bks.cpg/sg40_4_cif.got.tgz:6142.got - 2010.06.03 18:35:42.
