data_PCOD9364653
_publ_section_title
;
Structure prediction by ZEFSAII (Michael W. Deem and Ramdas Pophale) SiO2 
 PCOD9364653
Probable space group: A M A 2
;
_chemical_formula_sum "Si O2"
_cell_formula_units_Z 48
_cell_length_a 10.296585
_cell_length_b 7.654413
_cell_length_c 30.574343
_cell_angle_alpha 90.000000
_cell_angle_beta 90.000000
_cell_angle_gamma 90.000000
_cell_volume 2409.695872
_symmetry_space_group_name_H-M "A M A 2"
_symmetry_group_IT_number 40
_symmetry_cell_setting 'orthorhombic'
loop_
_space_group_symop_operation_xyz
x,y,z
-x,-y,z
1/2-x,y,z
1/2+x,-y,z
x,1/2+y,1/2+z
-x,1/2-y,1/2+z
1/2-x,1/2+y,1/2+z
1/2+x,1/2-y,1/2+z
loop_
_atom_site_type_symbol
_atom_site_label
_atom_site_fract_x
_atom_site_fract_y
_atom_site_fract_z
Si Si1 0.602766 0.357988 0.387710
Si Si2 0.500000 0.000000 0.609731
Si Si3 0.750000 0.938131 0.669382
Si Si4 0.096994 0.157430 0.058522
Si Si5 0.750000 0.725804 0.247331
Si Si6 0.393849 0.357264 0.973103
Si Si7 0.485444 0.795418 0.295965
Si Si8 0.250000 0.863117 0.231827
O O1 0.500000 0.500000 0.402479
O O2 0.750000 0.426057 0.387366
O O3 0.597321 0.203687 0.423066
O O4 0.563885 0.299386 0.339180
O O5 0.377272 0.037391 0.640430
O O6 0.457387 0.833007 0.581148
O O7 0.750000 0.078699 0.709654
O O8 0.750000 0.741261 0.687266
O O9 0.250000 0.128961 0.070131
O O10 0.092503 0.196221 0.006462
O O11 0.000000 0.000000 0.069699
O O12 0.619718 0.718108 0.276959
O O13 0.750000 0.926202 0.228761
O O14 0.500000 0.500000 0.982815
O O15 0.250000 0.431207 0.980998
O O16 0.375961 0.799057 0.258629
O O17 0.500000 0.000000 0.307607
#
# Coordination Sequence:
#
# PCOD9364653 Si02
#       8
#     8   4   4   8   4   8   8   4
#     4  11  24  38  58  93 131 170 221 274 321 390
#     4  12  26  46  68 104 140 172 234 288 346 418
#     4  12  26  42  70  96 132 174 228 286 342 412
#     4  11  25  45  74 104 139 185 227 280 347 413
#     4  10  24  40  64  95 125 175 226 270 345 408
#     4  10  22  42  67  97 136 176 224 273 334 399
#     4  10  21  39  61  88 128 169 221 270 332 395
#     4  10  22  42  64  89 129 175 218 282 333 400
#
# _framework density 19.919528
#
# number of rings (size 3 to 8) (size 9 to 14) (size 15 to 20)
#    0.000    1.333    2.500    2.000    4.667    2.667 
#    0.000    0.000    0.000    0.000    0.000    0.000 
#    0.000    0.000    0.000    0.000    0.000    0.000 
#
# Total GULP energy -134095.649321 kJ/mol
# GULP energy per Si atom -5587.318722 kJ/mol
# Density = 1.987419 g / cm^3
# Si number density = 19.919528 Si / 1000 Ang^3
#
#
#
# Elastic Constant Matrix: (Units=GPa)
#
#
# Indices 1 2 3 4 5 6 
#
# 1 179.8882 60.8309 33.3289 0.0000 0.0000 0.0000
# 2 60.8309 76.7274 27.7895 0.0000 0.0000 0.0000
# 3 33.3289 27.7895 63.7011 0.0000 0.0000 0.0000
# 4 0.0000 0.0000 0.0000 18.1890 0.0000 0.0000
# 5 0.0000 0.0000 0.0000 0.0000 -8.2830 0.0000
# 6 0.0000 0.0000 0.0000 0.0000 0.0000 29.8724
#
#
#
# Elastic Compliance Matrix: (Units=1/GPa)
#
#
# Indices 1 2 3 4 5 6 
#
# 1 0.007735 -0.005542 -0.001629 0.000000 0.000000 0.000000
# 2 -0.005542 0.019450 -0.005585 0.000000 0.000000 0.000000
# 3 -0.001629 -0.005585 0.018987 0.000000 0.000000 0.000000
# 4 0.000000 0.000000 0.000000 0.054978 0.000000 0.000000
# 5 0.000000 0.000000 0.000000 0.000000 -0.120729 0.000000
# 6 0.000000 0.000000 0.000000 0.000000 0.000000 0.033476
#
#
# Mechanical properties :
#
#
# Convention : Reuss Voigt Hill
#
# Bulk Modulus (GPa) = 48.40555 62.69059 55.54807
# Shear Modulus (GPa) = 107.99701 21.18017 64.58859
#
# Velocity S-wave (km/s) = 7.37118 3.26435 5.70045
# Velocity P-wave (km/s) = 9.83865 6.76374 8.44237
#
# Compressibility (1/GPa) = 0.02065879
#
# Stress axis : x y z
#
# Youngs Moduli (GPa) = 129.28094 51.41333 52.66684
#
# Poissons Ratio (x) = 0.28496 0.08580
# Poissons Ratio (y) = 0.71653 0.29416
# Poissons Ratio (z) = 0.21062 0.28716
#
# Static dielectric constant tensor:
#      x y z
#    x 1.776390 0.000000 0.000000 
#    y 0.000000 1.703530 0.000000 
#    z 0.000000 0.000000 1.679990 
# 
# From -- ./inp_files/26232.got.cif
#   From: 2010.05.17/outbox.cif.g08.bks.cpg/sg40_14_cif.got.tgz:26232.got - 2010.06.03 18:35:42.
