data_PCOD9364746
_publ_section_title
;
Structure prediction by ZEFSAII (Michael W. Deem and Ramdas Pophale) SiO2 
 PCOD9364746
Probable space group: A M A 2
;
_chemical_formula_sum "Si O2"
_cell_formula_units_Z 64
_cell_length_a 29.083719
_cell_length_b 11.733446
_cell_length_c 7.183202
_cell_angle_alpha 90.000000
_cell_angle_beta 90.000000
_cell_angle_gamma 90.000000
_cell_volume 2451.283819
_symmetry_space_group_name_H-M "A M A 2"
_symmetry_group_IT_number 40
_symmetry_cell_setting 'orthorhombic'
loop_
_space_group_symop_operation_xyz
x,y,z
-x,-y,z
1/2-x,y,z
1/2+x,-y,z
x,1/2+y,1/2+z
-x,1/2-y,1/2+z
1/2-x,1/2+y,1/2+z
1/2+x,1/2-y,1/2+z
loop_
_atom_site_type_symbol
_atom_site_label
_atom_site_fract_x
_atom_site_fract_y
_atom_site_fract_z
Si Si1 0.966758 0.149612 0.773970
Si Si2 0.801223 0.781325 0.901239
Si Si3 0.371432 0.042572 0.492022
Si Si4 0.989136 0.129319 0.334150
Si Si5 0.196920 0.226162 0.331482
Si Si6 0.931207 0.920192 0.831017
Si Si7 0.105811 0.802276 0.313796
Si Si8 0.698073 0.033432 0.806724
O O1 0.972834 0.130551 0.551023
O O2 0.968180 0.284684 0.807221
O O3 0.015776 0.110282 0.855852
O O4 0.929352 0.058376 0.849700
O O5 0.750000 0.753254 0.830886
O O6 0.806066 0.741777 0.112723
O O7 0.841668 0.734260 0.771725
O O8 0.803957 0.917713 0.922779
O O9 0.387642 0.932728 0.379402
O O10 0.336979 0.991434 0.644212
O O11 0.341782 0.135702 0.382750
O O12 0.412139 0.094587 0.619028
O O13 0.945033 0.180690 0.222561
O O14 0.000000 0.000000 0.282555
O O15 0.250000 0.187917 0.368895
O O16 0.188965 0.351310 0.416643
O O17 0.905105 0.816098 0.933565
O O18 0.750000 0.040945 0.733361
#
# Coordination Sequence:
#
# PCOD9364746 Si02
#       8
#     8   8   8   8   8   8   8   8
#     4  10  21  44  69  87 129 172 199 263 325 383
#     4  10  21  41  62  89 131 169 210 267 323 383
#     4  12  21  38  65  91 125 163 213 266 313 378
#     4  11  22  45  67  97 131 167 216 269 326 390
#     4  10  23  40  61  92 127 168 217 266 317 376
#     4  10  21  42  63  91 131 162 209 261 321 382
#     4  11  22  39  66  97 124 168 219 261 320 390
#     4  10  21  40  64  87 123 172 212 259 323 380
#
# _framework density 26.10877
#
# number of rings (size 3 to 8) (size 9 to 14) (size 15 to 20)
#    0.000    1.500    5.000    0.375    0.000    1.500 
#   13.500    1.250    0.000    0.000    0.000    0.000 
#    0.000    0.000    0.000    0.000    0.000    0.000 
#
# Total GULP energy -178397.235060 kJ/mol
# GULP energy per Si atom -5574.913596 kJ/mol
# Density = 2.604935 g / cm^3
# Si number density = 26.108770 Si / 1000 Ang^3
#
#
#
# Elastic Constant Matrix: (Units=GPa)
#
#
# Indices 1 2 3 4 5 6 
#
# 1 116.1746 64.0756 9.2481 0.0000 0.0000 0.0000
# 2 64.0756 190.7096 9.2197 0.0000 0.0000 0.0000
# 3 9.2481 9.2197 45.0459 0.0000 0.0000 0.0000
# 4 0.0000 0.0000 0.0000 24.5027 0.0000 0.0000
# 5 0.0000 0.0000 0.0000 0.0000 23.7996 0.0000
# 6 0.0000 0.0000 0.0000 0.0000 0.0000 4.9092
#
#
#
# Elastic Compliance Matrix: (Units=1/GPa)
#
#
# Indices 1 2 3 4 5 6 
#
# 1 0.010661 -0.003511 -0.001470 0.000000 0.000000 0.000000
# 2 -0.003511 0.006452 -0.000600 0.000000 0.000000 0.000000
# 3 -0.001470 -0.000600 0.022624 0.000000 0.000000 0.000000
# 4 0.000000 0.000000 0.000000 0.040812 0.000000 0.000000
# 5 0.000000 0.000000 0.000000 0.000000 0.042017 0.000000
# 6 0.000000 0.000000 0.000000 0.000000 0.000000 0.203700
#
#
# Mechanical properties :
#
#
# Convention : Reuss Voigt Hill
#
# Bulk Modulus (GPa) = 34.99469 57.44633 46.22051
# Shear Modulus (GPa) = 14.41113 28.60143 21.50628
#
# Velocity S-wave (km/s) = 2.35194 3.31338 2.87316
# Velocity P-wave (km/s) = 4.56158 6.05710 5.36174
#
# Compressibility (1/GPa) = 0.02857576
#
# Stress axis : x y z
#
# Youngs Moduli (GPa) = 93.79800 154.98607 44.20051
#
# Poissons Ratio (x) = 0.54415 0.06498
# Poissons Ratio (y) = 0.32932 0.02651
# Poissons Ratio (z) = 0.13790 0.09296
#
# Static dielectric constant tensor:
#      x y z
#    x 2.236400 0.000000 0.000000 
#    y 0.000000 2.252100 0.000000 
#    z 0.000000 0.000000 2.187220 
# 
# From -- ./inp_files/9416.got.cif
#   From: 2010.05.17/outbox.cif.g08.bks.cpg/sg40_5_cif.got.tgz:9416.got - 2010.06.03 18:35:42.
