data_PCOD9364658
_publ_section_title
;
Structure prediction by ZEFSAII (Michael W. Deem and Ramdas Pophale) SiO2 
 PCOD9364658
Probable space group: A M A 2
;
_chemical_formula_sum "Si O2"
_cell_formula_units_Z 44
_cell_length_a 19.949699
_cell_length_b 9.160463
_cell_length_c 11.268833
_cell_angle_alpha 90.000000
_cell_angle_beta 90.000000
_cell_angle_gamma 90.000000
_cell_volume 2059.362097
_symmetry_space_group_name_H-M "A M A 2"
_symmetry_group_IT_number 40
_symmetry_cell_setting 'orthorhombic'
loop_
_space_group_symop_operation_xyz
x,y,z
-x,-y,z
1/2-x,y,z
1/2+x,-y,z
x,1/2+y,1/2+z
-x,1/2-y,1/2+z
1/2-x,1/2+y,1/2+z
1/2+x,1/2-y,1/2+z
loop_
_atom_site_type_symbol
_atom_site_label
_atom_site_fract_x
_atom_site_fract_y
_atom_site_fract_z
Si Si1 0.250000 0.672749 0.184520
Si Si2 0.563808 0.567714 0.918368
Si Si3 0.549032 0.813218 0.572143
Si Si4 0.750000 0.477918 0.685615
Si Si5 0.611824 0.840311 0.805100
Si Si6 0.862115 0.550617 0.505874
Si Si7 0.250000 0.732230 0.916098
O O1 0.318031 0.618832 0.243702
O O2 0.250000 0.847681 0.208679
O O3 0.250000 0.648733 0.043320
O O4 0.500000 0.500000 0.845860
O O5 0.611531 0.671003 0.845938
O O6 0.591031 0.429672 0.990907
O O7 0.523947 0.666310 0.015718
O O8 0.554228 0.858351 0.708033
O O9 0.583696 0.657513 0.563567
O O10 0.815766 0.464881 0.600977
O O11 0.750000 0.372056 0.800275
O O12 0.603087 0.939578 0.918184
O O13 0.813266 0.657770 0.429697
#
# Coordination Sequence:
#
# PCOD9364658 Si02
#       7
#     4   8   8   4   8   8   4
#     4  10  22  36  66  98 127 174 207 267 335 382
#     4   8  24  43  60  92 130 172 221 254 330 387
#     4   9  21  43  57  93 129 167 219 263 321 375
#     4  10  21  39  61  93 130 168 214 261 331 400
#     4  12  21  43  68  93 137 164 219 276 316 400
#     4  10  22  38  64  96 121 168 224 259 327 387
#     4  10  21  41  59  95 139 166 209 270 330 392
#
# _framework density 21.365839000000001
#
# number of rings (size 3 to 8) (size 9 to 14) (size 15 to 20)
#    1.091    1.091    3.636    1.091    2.545    5.091 
#    3.273    1.818    0.000    0.000    0.000    0.000 
#    0.000    0.000    0.000    0.000    0.000    0.000 
#
# Total GULP energy -122519.587687 kJ/mol
# GULP energy per Si atom -5569.072168 kJ/mol
# Density = 2.131721 g / cm^3
# Si number density = 21.365839 Si / 1000 Ang^3
#
#
#
# Elastic Constant Matrix: (Units=GPa)
#
#
# Indices 1 2 3 4 5 6 
#
# 1 46.1363 7.3287 31.7517 0.0000 0.0000 0.0000
# 2 7.3287 59.9765 56.3988 0.0000 0.0000 0.0000
# 3 31.7517 56.3988 121.2841 0.0000 0.0000 0.0000
# 4 0.0000 0.0000 0.0000 37.5010 0.0000 0.0000
# 5 0.0000 0.0000 0.0000 0.0000 21.2122 0.0000
# 6 0.0000 0.0000 0.0000 0.0000 0.0000 13.3059
#
#
#
# Elastic Compliance Matrix: (Units=1/GPa)
#
#
# Indices 1 2 3 4 5 6 
#
# 1 0.027635 0.006089 -0.010066 0.000000 0.000000 0.000000
# 2 0.006089 0.030971 -0.015996 0.000000 0.000000 0.000000
# 3 -0.010066 -0.015996 0.018319 0.000000 0.000000 0.000000
# 4 0.000000 0.000000 0.000000 0.026666 0.000000 0.000000
# 5 0.000000 0.000000 0.000000 0.000000 0.047143 0.000000
# 6 0.000000 0.000000 0.000000 0.000000 0.000000 0.075155
#
#
# Mechanical properties :
#
#
# Convention : Reuss Voigt Hill
#
# Bulk Modulus (GPa) = 27.04270 46.48391 36.76330
# Shear Modulus (GPa) = 17.97517 23.19833 20.58675
#
# Velocity S-wave (km/s) = 2.90367 3.29867 3.10745
# Velocity P-wave (km/s) = 4.89144 6.02592 5.48808
#
# Compressibility (1/GPa) = 0.03697856
#
# Stress axis : x y z
#
# Youngs Moduli (GPa) = 36.18539 32.28828 54.58880
#
# Poissons Ratio (x) = -0.19660 0.54951
# Poissons Ratio (y) = -0.22033 0.87320
# Poissons Ratio (z) = 0.36425 0.51648
#
# Static dielectric constant tensor:
#      x y z
#    x 1.815470 0.000000 0.000000 
#    y 0.000000 1.783800 0.000000 
#    z 0.000000 0.000000 1.778500 
# 
# From -- ./inp_files/13890.got.cif
#   From: 2010.05.17/outbox.cif.g08.bks.cpg/sg40_7_cif.got.tgz:13890.got - 2010.06.03 18:35:42.
