data_PCOD9364108
_publ_section_title
;
Structure prediction by ZEFSAII (Michael W. Deem and Ramdas Pophale) SiO2 
 PCOD9364108
Probable space group: A M A 2
;
_chemical_formula_sum "Si O2"
_cell_formula_units_Z 48
_cell_length_a 8.686960
_cell_length_b 20.817397
_cell_length_c 14.707581
_cell_angle_alpha 90.000000
_cell_angle_beta 90.000000
_cell_angle_gamma 90.000000
_cell_volume 2659.717404
_symmetry_space_group_name_H-M "A M A 2"
_symmetry_group_IT_number 40
_symmetry_cell_setting 'orthorhombic'
loop_
_space_group_symop_operation_xyz
x,y,z
-x,-y,z
1/2-x,y,z
1/2+x,-y,z
x,1/2+y,1/2+z
-x,1/2-y,1/2+z
1/2-x,1/2+y,1/2+z
1/2+x,1/2-y,1/2+z
loop_
_atom_site_type_symbol
_atom_site_label
_atom_site_fract_x
_atom_site_fract_y
_atom_site_fract_z
Si Si1 0.564645 0.309990 0.133610
Si Si2 0.566439 0.809226 0.248840
Si Si3 0.566751 0.569989 0.643326
Si Si4 0.065125 0.619864 0.455066
Si Si5 0.066162 0.772515 0.442355
Si Si6 0.435344 0.069426 0.756731
O O1 0.750000 0.307616 0.129367
O O2 0.505636 0.248703 0.190080
O O3 0.517808 0.374154 0.187844
O O4 0.494925 0.305923 0.033284
O O5 0.750000 0.806964 0.240528
O O6 0.504407 0.875652 0.208020
O O7 0.514383 0.799102 0.352380
O O8 0.500000 0.500000 0.664473
O O9 0.750000 0.569966 0.651220
O O10 0.518415 0.588577 0.540551
O O11 0.250000 0.611707 0.466078
O O12 0.034191 0.696121 0.451033
O O13 0.017414 0.588809 0.359253
O O14 0.250000 0.779900 0.433956
O O15 0.250000 0.067276 0.756313
O O16 0.500000 0.000000 0.732675
#
# Coordination Sequence:
#
# PCOD9364108 Si02
#       6
#     8   8   8   8   8   8
#     4  11  22  40  62  89 123 161 204 255 307 360
#     4  12  24  40  63  91 123 162 207 253 305 368
#     4  12  25  41  62  90 126 165 206 254 311 372
#     4  10  20  37  60  91 127 160 198 252 308 364
#     4  11  22  39  63  93 125 157 203 256 305 363
#     4  10  22  39  59  86 124 161 199 247 299 358
#
# _framework density 18.047028999999998
#
# number of rings (size 3 to 8) (size 9 to 14) (size 15 to 20)
#    0.000    1.000    3.333    4.500    0.000    4.000 
#    0.000    0.833    0.000    2.000    0.000    0.000 
#    0.000    0.000    0.000    0.000    0.000    0.000 
#
# Total GULP energy -134243.790764 kJ/mol
# GULP energy per Si atom -5593.491282 kJ/mol
# Density = 1.800595 g / cm^3
# Si number density = 18.047029 Si / 1000 Ang^3
#
#
#
# Elastic Constant Matrix: (Units=GPa)
#
#
# Indices 1 2 3 4 5 6 
#
# 1 52.3243 32.4553 4.8878 0.0000 0.0000 0.0000
# 2 32.4553 135.3189 38.7268 0.0000 0.0000 0.0000
# 3 4.8878 38.7268 85.7478 0.0000 0.0000 0.0000
# 4 0.0000 0.0000 0.0000 12.2747 0.0000 0.0000
# 5 0.0000 0.0000 0.0000 0.0000 70.6852 0.0000
# 6 0.0000 0.0000 0.0000 0.0000 0.0000 47.1373
#
#
#
# Elastic Compliance Matrix: (Units=1/GPa)
#
#
# Indices 1 2 3 4 5 6 
#
# 1 0.022583 -0.005797 0.001331 0.000000 0.000000 0.000000
# 2 -0.005797 0.009975 -0.004175 0.000000 0.000000 0.000000
# 3 0.001331 -0.004175 0.013472 0.000000 0.000000 0.000000
# 4 0.000000 0.000000 0.000000 0.081469 0.000000 0.000000
# 5 0.000000 0.000000 0.000000 0.000000 0.014147 0.000000
# 6 0.000000 0.000000 0.000000 0.000000 0.000000 0.021215
#
#
# Mechanical properties :
#
#
# Convention : Reuss Voigt Hill
#
# Bulk Modulus (GPa) = 34.78506 47.28118 41.03312
# Shear Modulus (GPa) = 26.35392 39.17417 32.76404
#
# Velocity S-wave (km/s) = 3.82552 4.66410 4.26547
# Velocity P-wave (km/s) = 6.23132 7.43376 6.85894
#
# Compressibility (1/GPa) = 0.02874797
#
# Stress axis : x y z
#
# Youngs Moduli (GPa) = 44.28077 100.24910 74.22984
#
# Poissons Ratio (x) = 0.58118 -0.09880
# Poissons Ratio (y) = 0.25671 0.30989
# Poissons Ratio (z) = -0.05894 0.41851
#
# Static dielectric constant tensor:
#      x y z
#    x 1.578790 0.000000 0.000000 
#    y 0.000000 1.595580 0.000000 
#    z 0.000000 0.000000 1.595240 
# 
# From -- ./inp_files/15032.got.cif
#   From: 2010.05.17/outbox.cif.g08.bks.cpg/sg40_8_cif.got.tgz:15032.got - 2010.06.03 18:35:42.
