data_PCOD9364577
_publ_section_title
;
Structure prediction by ZEFSAII (Michael W. Deem and Ramdas Pophale) SiO2 
 PCOD9364577
Probable space group: A M A 2
;
_chemical_formula_sum "Si O2"
_cell_formula_units_Z 40
_cell_length_a 7.651762
_cell_length_b 30.741667
_cell_length_c 7.331792
_cell_angle_alpha 90.000000
_cell_angle_beta 90.000000
_cell_angle_gamma 90.000000
_cell_volume 1724.642177
_symmetry_space_group_name_H-M "A M A 2"
_symmetry_group_IT_number 40
_symmetry_cell_setting 'orthorhombic'
loop_
_space_group_symop_operation_xyz
x,y,z
-x,-y,z
1/2-x,y,z
1/2+x,-y,z
x,1/2+y,1/2+z
-x,1/2-y,1/2+z
1/2-x,1/2+y,1/2+z
1/2+x,1/2-y,1/2+z
loop_
_atom_site_type_symbol
_atom_site_label
_atom_site_fract_x
_atom_site_fract_y
_atom_site_fract_z
Si Si1 0.535355 0.787336 0.651650
Si Si2 0.955078 0.376926 0.276923
Si Si3 0.550118 0.192393 0.241787
Si Si4 0.042951 0.895128 0.360829
Si Si5 0.542843 0.450752 0.541934
O O1 0.750000 0.786842 0.647681
O O2 0.480572 0.826521 0.787790
O O3 0.458504 0.801531 0.459613
O O4 0.471356 0.738030 0.677584
O O5 0.750000 0.373778 0.316652
O O6 0.033996 0.414187 0.405029
O O7 0.970716 0.392030 0.065088
O O8 0.750000 0.191178 0.175985
O O9 0.469856 0.144239 0.231215
O O10 0.250000 0.888089 0.376610
O O11 0.012721 0.938648 0.247320
O O12 0.500000 0.500000 0.491550
O O13 0.750000 0.447298 0.534817
#
# Coordination Sequence:
#
# PCOD9364577 Si02
#       5
#     8   8   8   8   8
#     4   9  18  33  52  78 111 148 190 232 278 337
#     4   9  20  39  60  83 115 155 198 241 290 347
#     4   9  19  33  51  80 114 149 190 231 280 335
#     4  10  21  38  59  86 121 156 192 240 291 347
#     4  11  24  41  63  89 114 150 196 245 297 350
#
# _framework density 23.193216
#
# number of rings (size 3 to 8) (size 9 to 14) (size 15 to 20)
#    0.000    2.400    0.000    1.200    2.800    4.000 
#    0.000    2.000    0.000    0.000    0.000    0.000 
#    0.000    0.000    0.000    0.000    0.000    0.000 
#
# Total GULP energy -111529.403349 kJ/mol
# GULP energy per Si atom -5576.470167 kJ/mol
# Density = 2.314043 g / cm^3
# Si number density = 23.193216 Si / 1000 Ang^3
#
#
#
# Elastic Constant Matrix: (Units=GPa)
#
#
# Indices 1 2 3 4 5 6 
#
# 1 68.0922 0.8068 -2.2223 0.0000 0.0000 0.0000
# 2 0.8068 119.5097 37.8179 0.0000 0.0000 0.0000
# 3 -2.2223 37.8179 52.3117 0.0000 0.0000 0.0000
# 4 0.0000 0.0000 0.0000 39.8852 0.0000 0.0000
# 5 0.0000 0.0000 0.0000 0.0000 19.3034 0.0000
# 6 0.0000 0.0000 0.0000 0.0000 0.0000 12.3969
#
#
#
# Elastic Compliance Matrix: (Units=1/GPa)
#
#
# Indices 1 2 3 4 5 6 
#
# 1 0.014720 -0.000385 0.000904 0.000000 0.000000 0.000000
# 2 -0.000385 0.010860 -0.007867 0.000000 0.000000 0.000000
# 3 0.000904 -0.007867 0.024842 0.000000 0.000000 0.000000
# 4 0.000000 0.000000 0.000000 0.025072 0.000000 0.000000
# 5 0.000000 0.000000 0.000000 0.000000 0.051804 0.000000
# 6 0.000000 0.000000 0.000000 0.000000 0.000000 0.080665
#
#
# Mechanical properties :
#
#
# Convention : Reuss Voigt Hill
#
# Bulk Modulus (GPa) = 27.99202 34.74648 31.36925
# Shear Modulus (GPa) = 21.31572 27.88452 24.60012
#
# Velocity S-wave (km/s) = 3.03487 3.47114 3.26031
# Velocity P-wave (km/s) = 4.93719 5.57485 5.26568
#
# Compressibility (1/GPa) = 0.03572446
#
# Stress axis : x y z
#
# Youngs Moduli (GPa) = 67.93459 92.08424 40.25434
#
# Poissons Ratio (x) = 0.03549 -0.03639
# Poissons Ratio (y) = 0.02618 0.31669
# Poissons Ratio (z) = -0.06141 0.72444
#
# Static dielectric constant tensor:
#      x y z
#    x 1.858890 0.000000 0.000000 
#    y 0.000000 2.009630 0.000000 
#    z 0.000000 0.000000 1.882240 
# 
# From -- ./inp_files/4234.got.cif
#   From: 2010.05.17/outbox.cif.g08.bks.cpg/sg40_3_cif.got.tgz:4234.got - 2010.06.03 18:35:42.
