data_PCOD9364646
_publ_section_title
;
Structure prediction by ZEFSAII (Michael W. Deem and Ramdas Pophale) SiO2 
 PCOD9364646
Probable space group: A M A 2
;
_chemical_formula_sum "Si O2"
_cell_formula_units_Z 48
_cell_length_a 25.727741
_cell_length_b 7.842696
_cell_length_c 12.205271
_cell_angle_alpha 90.000000
_cell_angle_beta 90.000000
_cell_angle_gamma 90.000000
_cell_volume 2462.716743
_symmetry_space_group_name_H-M "A M A 2"
_symmetry_group_IT_number 40
_symmetry_cell_setting 'orthorhombic'
loop_
_space_group_symop_operation_xyz
x,y,z
-x,-y,z
1/2-x,y,z
1/2+x,-y,z
x,1/2+y,1/2+z
-x,1/2-y,1/2+z
1/2-x,1/2+y,1/2+z
1/2+x,1/2-y,1/2+z
loop_
_atom_site_type_symbol
_atom_site_label
_atom_site_fract_x
_atom_site_fract_y
_atom_site_fract_z
Si Si1 0.631289 0.317306 0.935950
Si Si2 0.411425 0.334202 0.991937
Si Si3 0.190801 0.862760 0.379681
Si Si4 0.923240 0.298204 0.726229
Si Si5 0.122962 0.330163 0.672870
Si Si6 0.971792 0.318280 0.298182
O O1 0.588545 0.467865 0.956513
O O2 0.680881 0.434845 0.904325
O O3 0.610357 0.224925 0.827850
O O4 0.635887 0.212498 0.047350
O O5 0.352571 0.278340 0.958688
O O6 0.451158 0.228242 0.918762
O O7 0.420360 0.315603 0.118791
O O8 0.250000 0.815811 0.398555
O O9 0.171459 0.821526 0.256701
O O10 0.899845 0.480617 0.691758
O O11 0.982668 0.308748 0.762089
O O12 0.077660 0.206421 0.718977
O O13 0.000000 0.500000 0.295163
#
# Coordination Sequence:
#
# PCOD9364646 Si02
#       6
#     8   8   8   8   8   8
#     4   9  21  39  60  85 122 151 199 249 303 356
#     4   9  22  40  56  89 120 155 206 249 292 370
#     4   8  18  40  65  85 117 156 199 254 309 361
#     4  11  22  38  58  86 126 157 200 250 297 358
#     4  10  21  39  60  90 120 157 203 254 297 369
#     4  11  23  36  58  87 122 172 202 242 305 361
#
# _framework density 19.490670000000001
#
# number of rings (size 3 to 8) (size 9 to 14) (size 15 to 20)
#    1.000    1.333    1.667    1.500    4.667    0.667 
#    0.000    3.333    0.000    0.000    0.000    0.000 
#    0.000    0.000    0.000    0.000    0.000    0.000 
#
# Total GULP energy -133700.681813 kJ/mol
# GULP energy per Si atom -5570.861742 kJ/mol
# Density = 1.944631 g / cm^3
# Si number density = 19.490670 Si / 1000 Ang^3
#
#
#
# Elastic Constant Matrix: (Units=GPa)
#
#
# Indices 1 2 3 4 5 6 
#
# 1 97.7462 3.5677 40.3580 0.0000 0.0000 0.0000
# 2 3.5677 33.4189 10.3673 0.0000 0.0000 0.0000
# 3 40.3580 10.3673 153.6618 0.0000 0.0000 0.0000
# 4 0.0000 0.0000 0.0000 26.6057 0.0000 0.0000
# 5 0.0000 0.0000 0.0000 0.0000 4.6915 0.0000
# 6 0.0000 0.0000 0.0000 0.0000 0.0000 11.1171
#
#
#
# Elastic Compliance Matrix: (Units=1/GPa)
#
#
# Indices 1 2 3 4 5 6 
#
# 1 0.011478 -0.000296 -0.002995 0.000000 0.000000 0.000000
# 2 -0.000296 0.030571 -0.001985 0.000000 0.000000 0.000000
# 3 -0.002995 -0.001985 0.007428 0.000000 0.000000 0.000000
# 4 0.000000 0.000000 0.000000 0.037586 0.000000 0.000000
# 5 0.000000 0.000000 0.000000 0.000000 0.213151 0.000000
# 6 0.000000 0.000000 0.000000 0.000000 0.000000 0.089951
#
#
# Mechanical properties :
#
#
# Convention : Reuss Voigt Hill
#
# Bulk Modulus (GPa) = 25.69023 43.71254 34.70139
# Shear Modulus (GPa) = 12.08631 23.85179 17.96905
#
# Velocity S-wave (km/s) = 2.49290 3.50201 3.03963
# Velocity P-wave (km/s) = 4.63632 6.23123 5.49198
#
# Compressibility (1/GPa) = 0.03892530
#
# Stress axis : x y z
#
# Youngs Moduli (GPa) = 87.12471 32.71120 134.62212
#
# Poissons Ratio (x) = 0.00969 0.40313
# Poissons Ratio (y) = 0.02582 0.26719
# Poissons Ratio (z) = 0.26090 0.06492
#
# Static dielectric constant tensor:
#      x y z
#    x 1.662090 0.000000 0.000000 
#    y 0.000000 1.794740 0.000000 
#    z 0.000000 0.000000 1.685160 
# 
# From -- ./inp_files/14151.got.cif
#   From: 2010.05.17/outbox.cif.g08.bks.cpg/sg40_8_cif.got.tgz:14151.got - 2010.06.03 18:35:42.
