data_PCOD9364881
_publ_section_title
;
Structure prediction by ZEFSAII (Michael W. Deem and Ramdas Pophale) SiO2 
 PCOD9364881
Probable space group: A M A 2
;
_chemical_formula_sum "Si O2"
_cell_formula_units_Z 64
_cell_length_a 17.707584
_cell_length_b 28.315501
_cell_length_c 6.953741
_cell_angle_alpha 90.000000
_cell_angle_beta 90.000000
_cell_angle_gamma 90.000000
_cell_volume 3486.599566
_symmetry_space_group_name_H-M "A M A 2"
_symmetry_group_IT_number 40
_symmetry_cell_setting 'orthorhombic'
loop_
_space_group_symop_operation_xyz
x,y,z
-x,-y,z
1/2-x,y,z
1/2+x,-y,z
x,1/2+y,1/2+z
-x,1/2-y,1/2+z
1/2-x,1/2+y,1/2+z
1/2+x,1/2-y,1/2+z
loop_
_atom_site_type_symbol
_atom_site_label
_atom_site_fract_x
_atom_site_fract_y
_atom_site_fract_z
Si Si1 0.939046 0.038540 0.985620
Si Si2 0.076224 0.695153 0.678653
Si Si3 0.336615 0.758352 0.928627
Si Si4 0.039971 0.089608 0.306801
Si Si5 0.838252 0.677789 0.090816
Si Si6 0.840257 0.493058 0.807691
Si Si7 0.428420 0.251564 0.816552
Si Si8 0.902163 0.076050 0.578797
O O1 0.908342 0.065724 0.803423
O O2 0.000000 0.000000 0.915094
O O3 0.986814 0.069758 0.135687
O O4 0.871964 0.014340 0.106905
O O5 0.151409 0.716727 0.772991
O O6 0.063212 0.642215 0.747873
O O7 0.072604 0.704996 0.450197
O O8 0.010872 0.728824 0.766817
O O9 0.250000 0.762657 0.986841
O O10 0.358197 0.805547 0.808388
O O11 0.385223 0.747534 0.115932
O O12 0.111410 0.054968 0.334472
O O13 0.985195 0.086375 0.491165
O O14 0.750000 0.688615 0.065161
O O15 0.853949 0.623302 0.051628
O O16 0.887231 0.708944 0.945712
O O17 0.750000 0.486785 0.808995
O O18 0.866238 0.531383 0.967735
#
# Coordination Sequence:
#
# PCOD9364881 Si02
#       8
#     8   8   8   8   8   8   8   8
#     4   9  20  37  57  82 112 151 194 240 291 345
#     4  11  22  36  63  89 114 156 206 244 297 360
#     4  10  23  40  57  84 122 156 194 247 302 352
#     4  10  22  38  59  88 118 155 197 250 299 354
#     4  10  22  36  56  87 118 149 188 240 304 362
#     4  10  22  39  57  83 120 159 198 244 300 360
#     4  11  21  38  59  84 117 155 196 245 295 355
#     4  11  20  36  64  88 117 150 198 246 302 359
#
# _framework density 18.355993000000002
#
# number of rings (size 3 to 8) (size 9 to 14) (size 15 to 20)
#    0.000    1.750    2.500    2.625    1.750    3.000 
#    0.000    1.250    0.000    0.000    0.000    0.000 
#    0.000    0.000    0.000    0.000    0.000    0.000 
#
# Total GULP energy -178558.973847 kJ/mol
# GULP energy per Si atom -5579.967933 kJ/mol
# Density = 1.831421 g / cm^3
# Si number density = 18.355993 Si / 1000 Ang^3
#
#
#
# Elastic Constant Matrix: (Units=GPa)
#
#
# Indices 1 2 3 4 5 6 
#
# 1 91.9936 29.1029 30.1197 0.0000 0.0000 0.0000
# 2 29.1029 85.0520 9.2194 0.0000 0.0000 0.0000
# 3 30.1197 9.2194 68.3068 0.0000 0.0000 0.0000
# 4 0.0000 0.0000 0.0000 21.6061 0.0000 0.0000
# 5 0.0000 0.0000 0.0000 0.0000 10.0300 0.0000
# 6 0.0000 0.0000 0.0000 0.0000 0.0000 21.9356
#
#
#
# Elastic Compliance Matrix: (Units=1/GPa)
#
#
# Indices 1 2 3 4 5 6 
#
# 1 0.014039 -0.004194 -0.005624 0.000000 0.000000 0.000000
# 2 -0.004194 0.013185 0.000070 0.000000 0.000000 0.000000
# 3 -0.005624 0.000070 0.017110 0.000000 0.000000 0.000000
# 4 0.000000 0.000000 0.000000 0.046283 0.000000 0.000000
# 5 0.000000 0.000000 0.000000 0.000000 0.099701 0.000000
# 6 0.000000 0.000000 0.000000 0.000000 0.000000 0.045588
#
#
# Mechanical properties :
#
#
# Convention : Reuss Voigt Hill
#
# Bulk Modulus (GPa) = 40.26241 42.47072 41.36656
# Shear Modulus (GPa) = 18.96223 22.50836 20.73530
#
# Velocity S-wave (km/s) = 3.21756 3.50553 3.36463
# Velocity P-wave (km/s) = 5.98209 6.29067 6.13832
#
# Compressibility (1/GPa) = 0.02483706
#
# Stress axis : x y z
#
# Youngs Moduli (GPa) = 71.23233 75.84338 58.44398
#
# Poissons Ratio (x) = 0.31809 0.32870
# Poissons Ratio (y) = 0.29875 -0.00408
# Poissons Ratio (z) = 0.40063 -0.00529
#
# Static dielectric constant tensor:
#      x y z
#    x 1.625590 0.000000 0.000000 
#    y 0.000000 1.637260 0.000000 
#    z 0.000000 0.000000 1.635290 
# 
# From -- ./inp_files/2001.got.cif
#   From: 2010.05.17/outbox.cif.g08.bks.cpg/sg40_2_cif.got.tgz:2001.got - 2010.06.03 18:35:42.
