data_PCOD9364298
_publ_section_title
;
Structure prediction by ZEFSAII (Michael W. Deem and Ramdas Pophale) SiO2 
 PCOD9364298
Probable space group: A M A 2
;
_chemical_formula_sum "Si O2"
_cell_formula_units_Z 40
_cell_length_a 10.081797
_cell_length_b 7.035915
_cell_length_c 22.871454
_cell_angle_alpha 90.000000
_cell_angle_beta 90.000000
_cell_angle_gamma 90.000000
_cell_volume 1622.378967
_symmetry_space_group_name_H-M "A M A 2"
_symmetry_group_IT_number 40
_symmetry_cell_setting 'orthorhombic'
loop_
_space_group_symop_operation_xyz
x,y,z
-x,-y,z
1/2-x,y,z
1/2+x,-y,z
x,1/2+y,1/2+z
-x,1/2-y,1/2+z
1/2-x,1/2+y,1/2+z
1/2+x,1/2-y,1/2+z
loop_
_atom_site_type_symbol
_atom_site_label
_atom_site_fract_x
_atom_site_fract_y
_atom_site_fract_z
Si Si1 0.750000 0.074965 0.658551
Si Si2 0.416157 0.155440 0.090258
Si Si3 0.750000 0.185863 0.790168
Si Si4 0.750000 0.135474 0.255796
Si Si5 0.396822 0.166275 0.962579
Si Si6 0.750000 0.149541 0.116781
Si Si7 0.978064 0.722604 0.835467
O O1 0.617386 0.194577 0.641352
O O2 0.750000 0.076937 0.728723
O O3 0.750000 0.882077 0.620122
O O4 0.250000 0.081186 0.088227
O O5 0.581088 0.105609 0.098019
O O6 0.415515 0.260248 0.026128
O O7 0.750000 0.414214 0.776508
O O8 0.885956 0.160544 0.826881
O O9 0.750000 0.113485 0.186763
O O10 0.625301 0.246925 0.282996
O O11 0.250000 0.085055 0.961118
O O12 0.420283 0.260954 0.900619
O O13 0.500000 0.000000 0.966555
O O14 0.000000 0.500000 0.830364
#
# Coordination Sequence:
#
# PCOD9364298 Si02
#       7
#     4   8   4   4   8   4   8
#     4  11  23  41  69 106 138 180 239 290 350 438
#     4  10  23  46  67  95 143 189 228 296 360 415
#     4  10  22  39  64 102 144 184 226 285 368 425
#     4  10  20  39  66  95 144 185 221 287 360 424
#     4  11  23  45  67  92 135 186 236 287 351 418
#     4  11  23  39  69 103 132 181 236 290 352 431
#     4  10  23  42  69 101 135 187 231 289 356 425
#
# _framework density 24.655152999999999
#
# number of rings (size 3 to 8) (size 9 to 14) (size 15 to 20)
#    0.000    1.600    5.000    0.000    4.200    2.400 
#    7.200    0.000    0.000    0.000    0.000    0.000 
#    0.000    0.000    0.000    0.000    0.000    0.000 
#
# Total GULP energy -111369.821774 kJ/mol
# GULP energy per Si atom -5568.491089 kJ/mol
# Density = 2.459904 g / cm^3
# Si number density = 24.655153 Si / 1000 Ang^3
#
#
#
# Elastic Constant Matrix: (Units=GPa)
#
#
# Indices 1 2 3 4 5 6 
#
# 1 162.4735 31.9462 74.3352 0.0000 0.0000 0.0000
# 2 31.9462 80.0704 19.0651 0.0000 0.0000 0.0000
# 3 74.3352 19.0651 191.3493 0.0000 0.0000 0.0000
# 4 0.0000 0.0000 0.0000 1.8097 0.0000 0.0000
# 5 0.0000 0.0000 0.0000 0.0000 53.0652 0.0000
# 6 0.0000 0.0000 0.0000 0.0000 0.0000 78.6343
#
#
#
# Elastic Compliance Matrix: (Units=1/GPa)
#
#
# Indices 1 2 3 4 5 6 
#
# 1 0.007943 -0.002494 -0.002837 0.000000 0.000000 0.000000
# 2 -0.002494 0.013575 -0.000384 0.000000 0.000000 0.000000
# 3 -0.002837 -0.000384 0.006367 0.000000 0.000000 0.000000
# 4 0.000000 0.000000 0.000000 0.552575 0.000000 0.000000
# 5 0.000000 0.000000 0.000000 0.000000 0.018845 0.000000
# 6 0.000000 0.000000 0.000000 0.000000 0.000000 0.012717
#
#
# Mechanical properties :
#
#
# Convention : Reuss Voigt Hill
#
# Bulk Modulus (GPa) = 60.76999 76.06516 68.41757
# Shear Modulus (GPa) = 7.94992 47.27162 27.61077
#
# Velocity S-wave (km/s) = 1.79762 4.38346 3.35009
# Velocity P-wave (km/s) = 5.38610 7.51919 6.54020
#
# Compressibility (1/GPa) = 0.01645549
#
# Stress axis : x y z
#
# Youngs Moduli (GPa) = 125.89219 73.66324 157.07102
#
# Poissons Ratio (x) = 0.18369 0.44567
# Poissons Ratio (y) = 0.31393 0.06029
# Poissons Ratio (z) = 0.35720 0.02828
#
# Static dielectric constant tensor:
#      x y z
#    x 2.112700 0.000000 0.000000 
#    y 0.000000 2.023260 0.000000 
#    z 0.000000 0.000000 2.069160 
# 
# From -- ./inp_files/23874.got.cif
#   From: 2010.05.17/outbox.cif.g08.bks.cpg/sg40_12_cif.got.tgz:23874.got - 2010.06.03 18:35:42.
