data_PCOD9364015
_publ_section_title
;
Structure prediction by ZEFSAII (Michael W. Deem and Ramdas Pophale) SiO2 
 PCOD9364015
Probable space group: A M A 2
;
_chemical_formula_sum "Si O2"
_cell_formula_units_Z 56
_cell_length_a 15.390779
_cell_length_b 11.296972
_cell_length_c 15.743497
_cell_angle_alpha 90.000000
_cell_angle_beta 90.000000
_cell_angle_gamma 90.000000
_cell_volume 2737.309219
_symmetry_space_group_name_H-M "A M A 2"
_symmetry_group_IT_number 40
_symmetry_cell_setting 'orthorhombic'
loop_
_space_group_symop_operation_xyz
x,y,z
-x,-y,z
1/2-x,y,z
1/2+x,-y,z
x,1/2+y,1/2+z
-x,1/2-y,1/2+z
1/2-x,1/2+y,1/2+z
1/2+x,1/2-y,1/2+z
loop_
_atom_site_type_symbol
_atom_site_label
_atom_site_fract_x
_atom_site_fract_y
_atom_site_fract_z
Si Si1 0.493546 0.361604 0.393550
Si Si2 0.589678 0.459907 0.840408
Si Si3 0.348803 0.647324 0.160279
Si Si4 0.025381 0.239736 0.221600
Si Si5 0.656609 0.265548 0.968466
Si Si6 0.652171 0.183053 0.413624
Si Si7 0.851980 0.617040 0.107745
O O1 0.500000 0.500000 0.396465
O O2 0.455687 0.322545 0.302727
O O3 0.424327 0.320335 0.462444
O O4 0.581366 0.285878 0.404345
O O5 0.500000 0.500000 0.885292
O O6 0.555561 0.389173 0.757010
O O7 0.640655 0.368129 0.899191
O O8 0.640873 0.583120 0.840545
O O9 0.250000 0.659145 0.196715
O O10 0.424844 0.728538 0.199919
O O11 0.373535 0.507957 0.153623
O O12 0.342139 0.681307 0.061676
O O13 0.085383 0.282892 0.145015
O O14 0.750000 0.208334 0.950926
O O15 0.750000 0.229750 0.412281
O O16 0.639408 0.118280 0.505283
O O17 0.750000 0.640451 0.125485
#
# Coordination Sequence:
#
# PCOD9364015 Si02
#       7
#     8   8   8   8   8   8   8
#     4  11  24  40  59  91 127 169 213 262 332 393
#     4  11  21  40  62  94 126 165 213 262 330 381
#     4  10  20  36  59  91 126 168 218 269 321 383
#     4  11  23  36  60  91 132 161 201 266 336 386
#     4  10  20  37  66  93 119 162 219 272 317 374
#     4  11  22  41  70  96 122 169 229 278 319 388
#     4  10  21  37  63  96 127 168 224 278 324 375
#
# _framework density 20.458047000000001
#
# number of rings (size 3 to 8) (size 9 to 14) (size 15 to 20)
#    0.000    1.429    4.286    2.571    0.000    4.000 
#    0.000    2.857    0.000    1.714    0.000    0.000 
#    0.000    0.000    0.000    0.000    0.000    0.000 
#
# Total GULP energy -156120.744404 kJ/mol
# GULP energy per Si atom -5575.740872 kJ/mol
# Density = 2.041148 g / cm^3
# Si number density = 20.458047 Si / 1000 Ang^3
#
#
#
# Elastic Constant Matrix: (Units=GPa)
#
#
# Indices 1 2 3 4 5 6 
#
# 1 106.7085 55.0331 33.0419 0.0000 0.0000 0.0000
# 2 55.0331 124.2474 25.8773 0.0000 0.0000 0.0000
# 3 33.0419 25.8773 57.0560 0.0000 0.0000 0.0000
# 4 0.0000 0.0000 0.0000 27.3636 0.0000 0.0000
# 5 0.0000 0.0000 0.0000 0.0000 16.5851 0.0000
# 6 0.0000 0.0000 0.0000 0.0000 0.0000 -14.3260
#
#
#
# Elastic Compliance Matrix: (Units=1/GPa)
#
#
# Indices 1 2 3 4 5 6 
#
# 1 0.013639 -0.004855 -0.005697 0.000000 0.000000 0.000000
# 2 -0.004855 0.010616 -0.002003 0.000000 0.000000 0.000000
# 3 -0.005697 -0.002003 0.021734 0.000000 0.000000 0.000000
# 4 0.000000 0.000000 0.000000 0.036545 0.000000 0.000000
# 5 0.000000 0.000000 0.000000 0.000000 0.060295 0.000000
# 6 0.000000 0.000000 0.000000 0.000000 0.000000 -0.069803
#
#
# Mechanical properties :
#
#
# Convention : Reuss Voigt Hill
#
# Bulk Modulus (GPa) = 47.89337 57.32405 52.60871
# Shear Modulus (GPa) = 47.57577 17.52852 32.55215
#
# Velocity S-wave (km/s) = 4.82761 2.93030 3.99327
# Velocity P-wave (km/s) = 7.38483 6.28729 6.85805
#
# Compressibility (1/GPa) = 0.02087972
#
# Stress axis : x y z
#
# Youngs Moduli (GPa) = 73.31907 94.19739 46.01023
#
# Poissons Ratio (x) = 0.45730 0.26211
# Poissons Ratio (y) = 0.35594 0.09218
# Poissons Ratio (z) = 0.41768 0.18871
#
# Static dielectric constant tensor:
#      x y z
#    x 1.791530 0.000000 0.000000 
#    y 0.000000 1.758920 0.000000 
#    z 0.000000 0.000000 1.737550 
# 
# From -- ./inp_files/17068.got.cif
#   From: 2010.05.17/outbox.cif.g08.bks.cpg/sg40_9_cif.got.tgz:17068.got - 2010.06.03 18:35:42.
