data_PCOD9364457
_publ_section_title
;
Structure prediction by ZEFSAII (Michael W. Deem and Ramdas Pophale) SiO2 
 PCOD9364457
Probable space group: A M A 2
;
_chemical_formula_sum "Si O2"
_cell_formula_units_Z 48
_cell_length_a 17.216099
_cell_length_b 15.733053
_cell_length_c 8.511515
_cell_angle_alpha 90.000000
_cell_angle_beta 90.000000
_cell_angle_gamma 90.000000
_cell_volume 2305.444257
_symmetry_space_group_name_H-M "A M A 2"
_symmetry_group_IT_number 40
_symmetry_cell_setting 'orthorhombic'
loop_
_space_group_symop_operation_xyz
x,y,z
-x,-y,z
1/2-x,y,z
1/2+x,-y,z
x,1/2+y,1/2+z
-x,1/2-y,1/2+z
1/2-x,1/2+y,1/2+z
1/2+x,1/2-y,1/2+z
loop_
_atom_site_type_symbol
_atom_site_label
_atom_site_fract_x
_atom_site_fract_y
_atom_site_fract_z
Si Si1 0.074381 0.884591 0.389460
Si Si2 0.575409 0.798604 0.743496
Si Si3 0.101331 0.361406 0.252543
Si Si4 0.903318 0.440691 0.764123
Si Si5 0.912260 0.468840 0.396502
Si Si6 0.165956 0.210910 0.430278
O O1 0.092076 0.789512 0.331896
O O2 0.095103 0.889440 0.572210
O O3 0.984833 0.908693 0.343549
O O4 0.117033 0.962597 0.305796
O O5 0.485300 0.821391 0.776803
O O6 0.614836 0.886878 0.798907
O O7 0.599627 0.783326 0.563669
O O8 0.128175 0.442284 0.356085
O O9 0.155596 0.284408 0.302185
O O10 0.912898 0.439734 0.576844
O O11 0.842412 0.376429 0.836392
O O12 0.000000 0.500000 0.353275
O O13 0.250000 0.217556 0.508599
#
# Coordination Sequence:
#
# PCOD9364457 Si02
#       6
#     8   8   8   8   8   8
#     4  11  21  35  66  97 125 161 223 270 314 371
#     4  11  21  38  64  97 125 171 214 272 316 387
#     4  11  21  39  64  96 127 171 216 270 317 388
#     4  11  21  38  61  99 129 165 210 271 324 386
#     4  10  21  35  65  98 129 154 215 271 324 372
#     4  12  26  43  64  96 137 175 214 271 340 393
#
# _framework density 20.820281000000001
#
# number of rings (size 3 to 8) (size 9 to 14) (size 15 to 20)
#    0.000    1.000    5.000    3.000    7.000    0.000 
#    0.000   10.000    0.000    0.000    0.000    0.000 
#    0.000    0.000    0.000    0.000    0.000    0.000 
#
# Total GULP energy -133787.221465 kJ/mol
# GULP energy per Si atom -5574.467561 kJ/mol
# Density = 2.077289 g / cm^3
# Si number density = 20.820281 Si / 1000 Ang^3
#
#
#
# Elastic Constant Matrix: (Units=GPa)
#
#
# Indices 1 2 3 4 5 6 
#
# 1 32.6356 20.4564 8.3585 0.0000 0.0000 0.0000
# 2 20.4564 117.9772 17.3099 0.0000 0.0000 0.0000
# 3 8.3585 17.3099 84.7181 0.0000 0.0000 0.0000
# 4 0.0000 0.0000 0.0000 41.2982 0.0000 0.0000
# 5 0.0000 0.0000 0.0000 0.0000 -13.2234 0.0000
# 6 0.0000 0.0000 0.0000 0.0000 0.0000 -4.6672
#
#
#
# Elastic Compliance Matrix: (Units=1/GPa)
#
#
# Indices 1 2 3 4 5 6 
#
# 1 0.034795 -0.005700 -0.002268 0.000000 0.000000 0.000000
# 2 -0.005700 0.009672 -0.001414 0.000000 0.000000 0.000000
# 3 -0.002268 -0.001414 0.012317 0.000000 0.000000 0.000000
# 4 0.000000 0.000000 0.000000 0.024214 0.000000 0.000000
# 5 0.000000 0.000000 0.000000 0.000000 -0.075623 0.000000
# 6 0.000000 0.000000 0.000000 0.000000 0.000000 -0.214263
#
#
# Mechanical properties :
#
#
# Convention : Reuss Voigt Hill
#
# Bulk Modulus (GPa) = 26.30269 36.39783 31.35026
# Shear Modulus (GPa) = -28.17696 17.29526 -5.44085
#
# Velocity S-wave (km/s) = -3.68277 2.88530 -1.61831
# Velocity P-wave (km/s) = 2.32876 5.34975 3.40564
#
# Compressibility (1/GPa) = 0.03801892
#
# Stress axis : x y z
#
# Youngs Moduli (GPa) = 28.73940 103.39046 81.19174
#
# Poissons Ratio (x) = 0.58937 0.18417
# Poissons Ratio (y) = 0.16383 0.11479
# Poissons Ratio (z) = 0.06519 0.14617
#
# Static dielectric constant tensor:
#      x y z
#    x 1.820710 0.000000 0.000000 
#    y 0.000000 1.778460 0.000000 
#    z 0.000000 0.000000 1.721650 
# 
# From -- ./inp_files/7473.got.cif
#   From: 2010.05.17/outbox.cif.g08.bks.cpg/sg40_4_cif.got.tgz:7473.got - 2010.06.03 18:35:42.
