data_PCOD9364769
_publ_section_title
;
Structure prediction by ZEFSAII (Michael W. Deem and Ramdas Pophale) SiO2 
 PCOD9364769
Probable space group: A M A 2
;
_chemical_formula_sum "Si O2"
_cell_formula_units_Z 64
_cell_length_a 17.654441
_cell_length_b 17.700885
_cell_length_c 9.619634
_cell_angle_alpha 90.000000
_cell_angle_beta 90.000000
_cell_angle_gamma 90.000000
_cell_volume 3006.128217
_symmetry_space_group_name_H-M "A M A 2"
_symmetry_group_IT_number 40
_symmetry_cell_setting 'orthorhombic'
loop_
_space_group_symop_operation_xyz
x,y,z
-x,-y,z
1/2-x,y,z
1/2+x,-y,z
x,1/2+y,1/2+z
-x,1/2-y,1/2+z
1/2-x,1/2+y,1/2+z
1/2+x,1/2-y,1/2+z
loop_
_atom_site_type_symbol
_atom_site_label
_atom_site_fract_x
_atom_site_fract_y
_atom_site_fract_z
Si Si1 0.835615 0.312660 0.993530
Si Si2 0.418109 0.644880 0.723363
Si Si3 0.057506 0.269139 0.989945
Si Si4 0.587795 0.480039 0.304483
Si Si5 0.554413 0.813901 0.716770
Si Si6 0.839707 0.503149 0.601053
Si Si7 0.912112 0.100075 0.322601
Si Si8 0.335984 0.005293 0.528344
O O1 0.750000 0.286217 0.983791
O O2 0.878342 0.309214 0.847545
O O3 0.879081 0.276054 0.124287
O O4 0.836343 0.403708 0.019023
O O5 0.421224 0.700109 0.590115
O O6 0.369054 0.571658 0.681637
O O7 0.501493 0.615601 0.772323
O O8 0.007329 0.321177 0.093760
O O9 0.023632 0.230441 0.850216
O O10 0.113732 0.327638 0.914097
O O11 0.500000 0.500000 0.288056
O O12 0.587716 0.390151 0.280220
O O13 0.618358 0.502475 0.453860
O O14 0.639576 0.515109 0.184175
O O15 0.750000 0.499291 0.584807
O O16 0.864427 0.576166 0.688865
O O17 0.898102 0.030322 0.426856
O O18 0.250000 0.980732 0.493349
#
# Coordination Sequence:
#
# PCOD9364769 Si02
#       8
#     8   8   8   8   8   8   8   8
#     4  10  21  40  66  98 137 182 234 292 363 424
#     4  12  23  42  70 100 133 187 240 302 349 430
#     4  12  24  43  67 102 140 178 237 296 354 425
#     4  11  23  39  70 103 132 178 234 287 353 427
#     4  11  22  41  66  98 137 182 226 294 357 418
#     4  12  26  44  66 101 142 181 233 304 365 423
#     4  12  24  42  71  98 137 177 236 290 359 426
#     4  10  22  40  65 100 139 174 223 296 360 418
#
# _framework density 21.289843999999999
#
# number of rings (size 3 to 8) (size 9 to 14) (size 15 to 20)
#    0.000    0.750    5.000    3.000    1.750    0.500 
#    0.000    3.750    0.000    0.000    0.000    0.000 
#    0.000    0.000    0.000    0.000    0.000    0.000 
#
# Total GULP energy -178477.767623 kJ/mol
# GULP energy per Si atom -5577.430238 kJ/mol
# Density = 2.124139 g / cm^3
# Si number density = 21.289844 Si / 1000 Ang^3
#
#
#
# Elastic Constant Matrix: (Units=GPa)
#
#
# Indices 1 2 3 4 5 6 
#
# 1 82.8378 14.7927 23.8899 0.0000 0.0000 0.0000
# 2 14.7927 46.6011 27.5626 0.0000 0.0000 0.0000
# 3 23.8899 27.5626 166.4739 0.0000 0.0000 0.0000
# 4 0.0000 0.0000 0.0000 35.4259 0.0000 0.0000
# 5 0.0000 0.0000 0.0000 0.0000 23.1049 0.0000
# 6 0.0000 0.0000 0.0000 0.0000 0.0000 11.4831
#
#
#
# Elastic Compliance Matrix: (Units=1/GPa)
#
#
# Indices 1 2 3 4 5 6 
#
# 1 0.013052 -0.003365 -0.001316 0.000000 0.000000 0.000000
# 2 -0.003365 0.024656 -0.003599 0.000000 0.000000 0.000000
# 3 -0.001316 -0.003599 0.006792 0.000000 0.000000 0.000000
# 4 0.000000 0.000000 0.000000 0.028228 0.000000 0.000000
# 5 0.000000 0.000000 0.000000 0.000000 0.043281 0.000000
# 6 0.000000 0.000000 0.000000 0.000000 0.000000 0.087084
#
#
# Mechanical properties :
#
#
# Convention : Reuss Voigt Hill
#
# Bulk Modulus (GPa) = 35.79181 47.60036 41.69608
# Shear Modulus (GPa) = 21.83731 29.31397 25.57564
#
# Velocity S-wave (km/s) = 3.20615 3.71468 3.46975
# Velocity P-wave (km/s) = 5.52757 6.38790 5.97325
#
# Compressibility (1/GPa) = 0.02793935
#
# Stress axis : x y z
#
# Youngs Moduli (GPa) = 76.61565 40.55864 147.23819
#
# Poissons Ratio (x) = 0.13647 0.19376
# Poissons Ratio (y) = 0.25780 0.52995
# Poissons Ratio (z) = 0.10082 0.14598
#
# Static dielectric constant tensor:
#      x y z
#    x 1.786770 0.000000 0.000000 
#    y 0.000000 1.918240 0.000000 
#    z 0.000000 0.000000 1.773850 
# 
# From -- ./inp_files/7802.got.cif
#   From: 2010.05.17/outbox.cif.g08.bks.cpg/sg40_4_cif.got.tgz:7802.got - 2010.06.03 18:35:42.
