data_PCOD9364768
_publ_section_title
;
Structure prediction by ZEFSAII (Michael W. Deem and Ramdas Pophale) SiO2 
 PCOD9364768
Probable space group: A M A 2
;
_chemical_formula_sum "Si O2"
_cell_formula_units_Z 64
_cell_length_a 22.467552
_cell_length_b 11.057009
_cell_length_c 10.019030
_cell_angle_alpha 90.000000
_cell_angle_beta 90.000000
_cell_angle_gamma 90.000000
_cell_volume 2488.966754
_symmetry_space_group_name_H-M "A M A 2"
_symmetry_group_IT_number 40
_symmetry_cell_setting 'orthorhombic'
loop_
_space_group_symop_operation_xyz
x,y,z
-x,-y,z
1/2-x,y,z
1/2+x,-y,z
x,1/2+y,1/2+z
-x,1/2-y,1/2+z
1/2-x,1/2+y,1/2+z
1/2+x,1/2-y,1/2+z
loop_
_atom_site_type_symbol
_atom_site_label
_atom_site_fract_x
_atom_site_fract_y
_atom_site_fract_z
Si Si1 0.063027 0.572567 0.060350
Si Si2 0.612397 0.151787 0.432268
Si Si3 0.182570 0.213284 0.148239
Si Si4 0.573671 0.008336 0.847316
Si Si5 0.315514 0.835909 0.912919
Si Si6 0.585977 0.948940 0.143565
Si Si7 0.819738 0.117260 0.206153
Si Si8 0.480863 0.732789 0.849049
O O1 0.077845 0.573097 0.215741
O O2 0.000000 0.500000 0.047163
O O3 0.107394 0.488998 0.975682
O O4 0.054531 0.698494 0.985014
O O5 0.631626 0.210138 0.576229
O O6 0.669985 0.187024 0.344809
O O7 0.548876 0.207158 0.388646
O O8 0.250000 0.236239 0.110402
O O9 0.177547 0.228176 0.307884
O O10 0.157489 0.080643 0.122044
O O11 0.637849 0.065632 0.869366
O O12 0.466807 0.872372 0.816153
O O13 0.559960 0.958943 0.996043
O O14 0.250000 0.885961 0.890010
O O15 0.320684 0.809017 0.068449
O O16 0.545704 0.861702 0.236836
O O17 0.607574 0.071352 0.214783
O O18 0.750000 0.069318 0.215206
#
# Coordination Sequence:
#
# PCOD9364768 Si02
#       8
#     8   8   8   8   8   8   8   8
#     4  10  22  44  63  96 142 178 229 292 345 424
#     4  11  22  43  67 102 140 187 231 302 356 429
#     4  11  22  43  72 101 136 188 243 294 366 430
#     4  11  23  47  69 100 138 184 237 288 355 428
#     4   9  19  38  65  94 131 174 226 291 349 412
#     4  11  23  44  69 104 137 183 239 291 362 429
#     4  10  21  40  66  98 135 179 232 291 356 421
#     4  11  24  47  68 102 148 183 236 289 365 428
#
# _framework density 25.713481999999999
#
# number of rings (size 3 to 8) (size 9 to 14) (size 15 to 20)
#    0.000    1.500    3.750    0.750    0.000    1.500 
#   24.750    0.000    0.000    0.000    0.000    0.000 
#    0.000    0.000    0.000    0.000    0.000    0.000 
#
# Total GULP energy -178349.291963 kJ/mol
# GULP energy per Si atom -5573.415374 kJ/mol
# Density = 2.565496 g / cm^3
# Si number density = 25.713482 Si / 1000 Ang^3
#
#
#
# Elastic Constant Matrix: (Units=GPa)
#
#
# Indices 1 2 3 4 5 6 
#
# 1 166.7156 13.8921 75.9722 0.0000 0.0000 0.0000
# 2 13.8921 64.9020 30.7738 0.0000 0.0000 0.0000
# 3 75.9722 30.7738 160.6300 0.0000 0.0000 0.0000
# 4 0.0000 0.0000 0.0000 38.9802 0.0000 0.0000
# 5 0.0000 0.0000 0.0000 0.0000 49.2342 0.0000
# 6 0.0000 0.0000 0.0000 0.0000 0.0000 21.5204
#
#
#
# Elastic Compliance Matrix: (Units=1/GPa)
#
#
# Indices 1 2 3 4 5 6 
#
# 1 0.007647 0.000086 -0.003633 0.000000 0.000000 0.000000
# 2 0.000086 0.016948 -0.003288 0.000000 0.000000 0.000000
# 3 -0.003633 -0.003288 0.008574 0.000000 0.000000 0.000000
# 4 0.000000 0.000000 0.000000 0.025654 0.000000 0.000000
# 5 0.000000 0.000000 0.000000 0.000000 0.020311 0.000000
# 6 0.000000 0.000000 0.000000 0.000000 0.000000 0.046468
#
#
# Mechanical properties :
#
#
# Convention : Reuss Voigt Hill
#
# Bulk Modulus (GPa) = 51.28451 70.39153 60.83802
# Shear Modulus (GPa) = 34.30049 40.05427 37.17738
#
# Velocity S-wave (km/s) = 3.65629 3.95107 3.80653
# Velocity P-wave (km/s) = 6.14919 6.94618 6.55980
#
# Compressibility (1/GPa) = 0.01949907
#
# Stress axis : x y z
#
# Youngs Moduli (GPa) = 130.77606 59.00293 116.63666
#
# Poissons Ratio (x) = -0.00507 0.42375
# Poissons Ratio (y) = -0.01123 0.38346
# Poissons Ratio (z) = 0.47512 0.19398
#
# Static dielectric constant tensor:
#      x y z
#    x 1.995260 0.000000 0.000000 
#    y 0.000000 1.848700 0.000000 
#    z 0.000000 0.000000 2.169900 
# 
# From -- ./inp_files/8932.got.cif
#   From: 2010.05.17/outbox.cif.g08.bks.cpg/sg40_5_cif.got.tgz:8932.got - 2010.06.03 18:35:42.
