data_PCOD9364082
_publ_section_title
;
Structure prediction by ZEFSAII (Michael W. Deem and Ramdas Pophale) SiO2 
 PCOD9364082
Probable space group: A M A 2
;
_chemical_formula_sum "Si O2"
_cell_formula_units_Z 56
_cell_length_a 13.823415
_cell_length_b 12.719780
_cell_length_c 12.961150
_cell_angle_alpha 90.000000
_cell_angle_beta 90.000000
_cell_angle_gamma 90.000000
_cell_volume 2278.969343
_symmetry_space_group_name_H-M "A M A 2"
_symmetry_group_IT_number 40
_symmetry_cell_setting 'orthorhombic'
loop_
_space_group_symop_operation_xyz
x,y,z
-x,-y,z
1/2-x,y,z
1/2+x,-y,z
x,1/2+y,1/2+z
-x,1/2-y,1/2+z
1/2-x,1/2+y,1/2+z
1/2+x,1/2-y,1/2+z
loop_
_atom_site_type_symbol
_atom_site_label
_atom_site_fract_x
_atom_site_fract_y
_atom_site_fract_z
Si Si1 0.105284 0.047444 0.062390
Si Si2 0.865622 0.456987 0.895148
Si Si3 0.640821 0.624346 0.733147
Si Si4 0.866758 0.035452 0.619725
Si Si5 0.011249 0.251384 0.123691
Si Si6 0.868469 0.729970 0.427172
Si Si7 0.361073 0.990513 0.839450
O O1 0.092463 0.159710 0.113984
O O2 0.150309 0.958079 0.136312
O O3 0.000000 0.000000 0.051619
O O4 0.137299 0.057680 0.943776
O O5 0.750000 0.467869 0.886898
O O6 0.901225 0.551198 0.824092
O O7 0.884461 0.337137 0.864588
O O8 0.890866 0.474844 0.014633
O O9 0.750000 0.663585 0.754503
O O10 0.564572 0.716023 0.711562
O O11 0.750000 0.055019 0.613610
O O12 0.891493 0.973296 0.725894
O O13 0.928684 0.141750 0.625160
O O14 0.938097 0.242078 0.025572
O O15 0.750000 0.724595 0.451553
O O16 0.902021 0.624151 0.370026
O O17 0.250000 0.965497 0.822909
#
# Coordination Sequence:
#
# PCOD9364082 Si02
#       7
#     8   8   8   8   8   8   8
#     4  10  20  37  58  90 125 155 202 257 308 358
#     4   9  21  42  65  90 128 170 210 258 316 375
#     4  10  20  39  67  94 126 162 205 260 313 372
#     4  10  24  44  60  88 129 169 211 257 312 374
#     4  11  23  39  62 100 125 164 204 265 317 369
#     4  10  20  39  65  95 124 164 213 252 305 378
#     4  10  20  39  66  87 120 166 210 255 303 374
#
# _framework density 24.572510000000001
#
# number of rings (size 3 to 8) (size 9 to 14) (size 15 to 20)
#    0.000    2.000    2.857    0.857    2.000    2.857 
#    7.714    0.000    0.000    5.143    0.000    1.000 
#    0.000    0.000    0.000    0.000    0.000    0.000 
#
# Total GULP energy -156259.602241 kJ/mol
# GULP energy per Si atom -5580.700080 kJ/mol
# Density = 2.451658 g / cm^3
# Si number density = 24.572510 Si / 1000 Ang^3
#
#
#
# Elastic Constant Matrix: (Units=GPa)
#
#
# Indices 1 2 3 4 5 6 
#
# 1 104.3262 17.9644 12.4188 0.0000 0.0000 0.0000
# 2 17.9644 87.8676 7.9147 0.0000 0.0000 0.0000
# 3 12.4188 7.9147 127.3107 0.0000 0.0000 0.0000
# 4 0.0000 0.0000 0.0000 10.7274 0.0000 0.0000
# 5 0.0000 0.0000 0.0000 0.0000 39.3060 0.0000
# 6 0.0000 0.0000 0.0000 0.0000 0.0000 51.7019
#
#
#
# Elastic Compliance Matrix: (Units=1/GPa)
#
#
# Indices 1 2 3 4 5 6 
#
# 1 0.010027 -0.001973 -0.000855 0.000000 0.000000 0.000000
# 2 -0.001973 0.011833 -0.000543 0.000000 0.000000 0.000000
# 3 -0.000855 -0.000543 0.007972 0.000000 0.000000 0.000000
# 4 0.000000 0.000000 0.000000 0.093219 0.000000 0.000000
# 5 0.000000 0.000000 0.000000 0.000000 0.025441 0.000000
# 6 0.000000 0.000000 0.000000 0.000000 0.000000 0.019342
#
#
# Mechanical properties :
#
#
# Convention : Reuss Voigt Hill
#
# Bulk Modulus (GPa) = 43.31099 44.01115 43.66107
# Shear Modulus (GPa) = 27.43129 39.09418 33.26274
#
# Velocity S-wave (km/s) = 3.34479 3.99303 3.68320
# Velocity P-wave (km/s) = 5.70797 6.26168 5.99122
#
# Compressibility (1/GPa) = 0.02308883
#
# Stress axis : x y z
#
# Youngs Moduli (GPa) = 99.73197 84.50909 125.43885
#
# Poissons Ratio (x) = 0.16673 0.10731
# Poissons Ratio (y) = 0.19676 0.06814
# Poissons Ratio (z) = 0.08531 0.04590
#
# Static dielectric constant tensor:
#      x y z
#    x 1.951930 0.000000 0.000000 
#    y 0.000000 1.943340 0.000000 
#    z 0.000000 0.000000 2.046760 
# 
# From -- ./inp_files/12246.got.cif
#   From: 2010.05.17/outbox.cif.g08.bks.cpg/sg40_7_cif.got.tgz:12246.got - 2010.06.03 18:35:42.
