data_PCOD9364508
_publ_section_title
;
Structure prediction by ZEFSAII (Michael W. Deem and Ramdas Pophale) SiO2 
 PCOD9364508
Probable space group: A M A 2
;
_chemical_formula_sum "Si O2"
_cell_formula_units_Z 40
_cell_length_a 8.626725
_cell_length_b 13.782726
_cell_length_c 18.860308
_cell_angle_alpha 90.000000
_cell_angle_beta 90.000000
_cell_angle_gamma 90.000000
_cell_volume 2242.486603
_symmetry_space_group_name_H-M "A M A 2"
_symmetry_group_IT_number 40
_symmetry_cell_setting 'orthorhombic'
loop_
_space_group_symop_operation_xyz
x,y,z
-x,-y,z
1/2-x,y,z
1/2+x,-y,z
x,1/2+y,1/2+z
-x,1/2-y,1/2+z
1/2-x,1/2+y,1/2+z
1/2+x,1/2-y,1/2+z
loop_
_atom_site_type_symbol
_atom_site_label
_atom_site_fract_x
_atom_site_fract_y
_atom_site_fract_z
Si Si1 0.435852 0.108937 0.668530
Si Si2 0.564136 0.797721 0.820081
Si Si3 0.064604 0.605680 0.885238
Si Si4 0.435239 0.394217 0.460181
Si Si5 0.064843 0.298002 0.026252
O O1 0.250000 0.106621 0.660532
O O2 0.472785 0.162490 0.742369
O O3 0.509178 0.163753 0.601802
O O4 0.500000 0.000000 0.670955
O O5 0.750000 0.798410 0.829685
O O6 0.500952 0.689875 0.834414
O O7 0.489337 0.864825 0.880900
O O8 0.250000 0.606365 0.884026
O O9 0.000000 0.500000 0.867130
O O10 0.006451 0.635418 0.963835
O O11 0.500000 0.500000 0.477685
O O12 0.250000 0.392736 0.463669
O O13 0.504461 0.310235 0.510052
O O14 0.250000 0.300872 0.020783
#
# Coordination Sequence:
#
# PCOD9364508 Si02
#       5
#     8   8   8   8   8
#     4  11  23  38  57  82 113 146 181 224 274 326
#     4  10  21  37  57  83 113 144 183 227 272 324
#     4  11  21  36  58  82 111 145 184 227 273 324
#     4  11  21  36  58  83 112 145 184 226 272 323
#     4  11  22  37  57  82 112 144 184 228 273 325
#
# _framework density 17.837343000000001
#
# number of rings (size 3 to 8) (size 9 to 14) (size 15 to 20)
#    0.000    1.200    0.000   10.200    0.000    4.800 
#    0.000    1.000    0.000    4.800    0.000    0.000 
#    0.000    0.000    0.000    0.000    0.000    0.000 
#
# Total GULP energy -111845.534771 kJ/mol
# GULP energy per Si atom -5592.276739 kJ/mol
# Density = 1.779674 g / cm^3
# Si number density = 17.837343 Si / 1000 Ang^3
#
#
#
# Elastic Constant Matrix: (Units=GPa)
#
#
# Indices 1 2 3 4 5 6 
#
# 1 129.8808 49.0333 59.2043 0.0000 0.0000 0.0000
# 2 49.0333 138.2948 70.0754 0.0000 0.0000 0.0000
# 3 59.2043 70.0754 124.1209 0.0000 0.0000 0.0000
# 4 0.0000 0.0000 0.0000 8.2250 0.0000 0.0000
# 5 0.0000 0.0000 0.0000 0.0000 37.3549 0.0000
# 6 0.0000 0.0000 0.0000 0.0000 0.0000 73.6559
#
#
#
# Elastic Compliance Matrix: (Units=1/GPa)
#
#
# Indices 1 2 3 4 5 6 
#
# 1 0.010083 -0.001594 -0.003910 0.000000 0.000000 0.000000
# 2 -0.001594 0.010380 -0.005100 0.000000 0.000000 0.000000
# 3 -0.003910 -0.005100 0.012801 0.000000 0.000000 0.000000
# 4 0.000000 0.000000 0.000000 0.121581 0.000000 0.000000
# 5 0.000000 0.000000 0.000000 0.000000 0.026770 0.000000
# 6 0.000000 0.000000 0.000000 0.000000 0.000000 0.013577
#
#
# Mechanical properties :
#
#
# Convention : Reuss Voigt Hill
#
# Bulk Modulus (GPa) = 82.93992 83.21361 83.07676
# Shear Modulus (GPa) = 22.68409 38.11273 30.39841
#
# Velocity S-wave (km/s) = 3.56999 4.62744 4.13267
# Velocity P-wave (km/s) = 7.97445 8.67776 8.33353
#
# Compressibility (1/GPa) = 0.01205692
#
# Stress axis : x y z
#
# Youngs Moduli (GPa) = 99.17357 96.33532 78.11919
#
# Poissons Ratio (x) = 0.15356 0.30542
# Poissons Ratio (y) = 0.15809 0.39842
# Poissons Ratio (z) = 0.38774 0.49133
#
# Static dielectric constant tensor:
#      x y z
#    x 1.594590 0.000000 0.000000 
#    y 0.000000 1.593010 0.000000 
#    z 0.000000 0.000000 1.582730 
# 
# From -- ./inp_files/19091.got.cif
#   From: 2010.05.17/outbox.cif.g08.bks.cpg/sg40_10_cif.got.tgz:19091.got - 2010.06.03 18:35:42.
