data_PCOD9364593
_publ_section_title
;
Structure prediction by ZEFSAII (Michael W. Deem and Ramdas Pophale) SiO2 
 PCOD9364593
Probable space group: A M A 2
;
_chemical_formula_sum "Si O2"
_cell_formula_units_Z 56
_cell_length_a 26.509717
_cell_length_b 5.088062
_cell_length_c 18.924815
_cell_angle_alpha 90.000000
_cell_angle_beta 90.000000
_cell_angle_gamma 90.000000
_cell_volume 2552.637406
_symmetry_space_group_name_H-M "A M A 2"
_symmetry_group_IT_number 40
_symmetry_cell_setting 'orthorhombic'
loop_
_space_group_symop_operation_xyz
x,y,z
-x,-y,z
1/2-x,y,z
1/2+x,-y,z
x,1/2+y,1/2+z
-x,1/2-y,1/2+z
1/2-x,1/2+y,1/2+z
1/2+x,1/2-y,1/2+z
loop_
_atom_site_type_symbol
_atom_site_label
_atom_site_fract_x
_atom_site_fract_y
_atom_site_fract_z
Si Si1 0.945780 0.449196 0.400410
Si Si2 0.193153 0.571206 0.886165
Si Si3 0.613367 0.046461 0.493026
Si Si4 0.693560 0.879530 0.666252
Si Si5 0.193577 0.116830 0.068167
Si Si6 0.965938 0.744217 0.546319
Si Si7 0.346570 0.051764 0.811956
O O1 0.928577 0.178537 0.440336
O O2 0.901770 0.495005 0.344517
O O3 0.000000 0.500000 0.364319
O O4 0.047371 0.357901 0.467450
O O5 0.250000 0.581892 0.912407
O O6 0.152994 0.623637 0.948150
O O7 0.179300 0.287157 0.855377
O O8 0.184526 0.787046 0.825918
O O9 0.647567 0.291068 0.519351
O O10 0.588587 0.885403 0.558120
O O11 0.750000 0.835901 0.697381
O O12 0.687277 0.658893 0.606816
O O13 0.654650 0.872007 0.730254
O O14 0.693501 0.160389 0.628707
O O15 0.250000 0.122039 0.034353
O O16 0.000000 0.500000 0.576649
O O17 0.000000 0.000000 0.551907
#
# Coordination Sequence:
#
# PCOD9364593 Si02
#       7
#     8   8   8   8   8   8   8
#     4  10  21  38  60  90 120 151 194 248 311 367
#     4  11  22  34  54  87 120 150 188 248 310 366
#     4  11  22  37  59  88 122 156 195 245 310 374
#     4  10  21  39  58  81 115 162 210 246 290 354
#     4  10  23  39  60  85 119 163 205 248 293 361
#     4  11  20  35  56  84 119 148 191 237 295 369
#     4  11  22  37  60  85 116 158 201 248 302 360
#
# _framework density 21.938096000000002
#
# number of rings (size 3 to 8) (size 9 to 14) (size 15 to 20)
#    0.000    1.429    4.286    2.571    2.000    1.143 
#    0.000    2.857    0.000    2.571    0.000    0.000 
#    0.000    0.000    0.000    0.000    0.000    0.000 
#
# Total GULP energy -156091.837335 kJ/mol
# GULP energy per Si atom -5574.708476 kJ/mol
# Density = 2.188816 g / cm^3
# Si number density = 21.938096 Si / 1000 Ang^3
#
#
#
# Elastic Constant Matrix: (Units=GPa)
#
#
# Indices 1 2 3 4 5 6 
#
# 1 155.2906 39.8437 15.3914 0.0000 0.0000 0.0000
# 2 39.8437 84.8132 -2.4466 0.0000 0.0000 0.0000
# 3 15.3914 -2.4466 37.3487 0.0000 0.0000 0.0000
# 4 0.0000 0.0000 0.0000 19.7590 0.0000 0.0000
# 5 0.0000 0.0000 0.0000 0.0000 23.6472 0.0000
# 6 0.0000 0.0000 0.0000 0.0000 0.0000 21.5095
#
#
#
# Elastic Compliance Matrix: (Units=1/GPa)
#
#
# Indices 1 2 3 4 5 6 
#
# 1 0.007738 -0.003734 -0.003433 0.000000 0.000000 0.000000
# 2 -0.003734 0.013615 0.002431 0.000000 0.000000 0.000000
# 3 -0.003433 0.002431 0.028349 0.000000 0.000000 0.000000
# 4 0.000000 0.000000 0.000000 0.050610 0.000000 0.000000
# 5 0.000000 0.000000 0.000000 0.000000 0.042288 0.000000
# 6 0.000000 0.000000 0.000000 0.000000 0.000000 0.046491
#
#
# Mechanical properties :
#
#
# Convention : Reuss Voigt Hill
#
# Bulk Modulus (GPa) = 24.85831 42.55882 33.70856
# Shear Modulus (GPa) = 23.58780 27.96074 25.77427
#
# Velocity S-wave (km/s) = 3.28258 3.57393 3.43135
# Velocity P-wave (km/s) = 5.07177 6.03922 5.57652
#
# Compressibility (1/GPa) = 0.04022800
#
# Stress axis : x y z
#
# Youngs Moduli (GPa) = 129.23341 73.44849 35.27483
#
# Poissons Ratio (x) = 0.27427 0.12111
# Poissons Ratio (y) = 0.48258 -0.08574
# Poissons Ratio (z) = 0.44371 -0.17853
#
# Static dielectric constant tensor:
#      x y z
#    x 1.961920 0.000000 0.000000 
#    y 0.000000 1.890880 0.000000 
#    z 0.000000 0.000000 1.790230 
# 
# From -- ./inp_files/23630.got.cif
#   From: 2010.05.17/outbox.cif.g08.bks.cpg/sg40_12_cif.got.tgz:23630.got - 2010.06.03 18:35:42.
