data_PCOD9364640
_publ_section_title
;
Structure prediction by ZEFSAII (Michael W. Deem and Ramdas Pophale) SiO2 
 PCOD9364640
Probable space group: A M A 2
;
_chemical_formula_sum "Si O2"
_cell_formula_units_Z 64
_cell_length_a 8.335659
_cell_length_b 29.981691
_cell_length_c 13.082085
_cell_angle_alpha 90.000000
_cell_angle_beta 90.000000
_cell_angle_gamma 90.000000
_cell_volume 3269.437431
_symmetry_space_group_name_H-M "A M A 2"
_symmetry_group_IT_number 40
_symmetry_cell_setting 'orthorhombic'
loop_
_space_group_symop_operation_xyz
x,y,z
-x,-y,z
1/2-x,y,z
1/2+x,-y,z
x,1/2+y,1/2+z
-x,1/2-y,1/2+z
1/2-x,1/2+y,1/2+z
1/2+x,1/2-y,1/2+z
loop_
_atom_site_type_symbol
_atom_site_label
_atom_site_fract_x
_atom_site_fract_y
_atom_site_fract_z
Si Si1 0.933965 0.745503 0.551310
Si Si2 0.943446 0.949284 0.621301
Si Si3 0.057714 0.550675 0.891122
Si Si4 0.443041 0.376638 0.732771
Si Si5 0.942073 0.642724 0.504351
Si Si6 0.558851 0.875369 0.783677
Si Si7 0.570388 0.721502 0.251525
Si Si8 0.566406 0.204128 0.375834
O O1 0.750000 0.744088 0.588775
O O2 0.967687 0.696415 0.505681
O O3 0.055364 0.756074 0.641532
O O4 0.956663 0.786039 0.472704
O O5 0.750000 0.949527 0.621067
O O6 0.995221 0.934914 0.506204
O O7 0.995831 0.916092 0.711434
O O8 0.000000 0.000000 0.637159
O O9 0.250000 0.552196 0.888249
O O10 0.000000 0.500000 0.878454
O O11 0.991734 0.581346 0.800750
O O12 0.250000 0.374083 0.726986
O O13 0.499812 0.374879 0.615226
O O14 0.494940 0.333295 0.797892
O O15 0.750000 0.635907 0.497190
O O16 0.019900 0.620971 0.404332
O O17 0.750000 0.870545 0.771358
O O18 0.473396 0.830094 0.747817
O O19 0.750000 0.726983 0.294264
O O20 0.443610 0.748851 0.317764
O O21 0.750000 0.193994 0.404814
#
# Coordination Sequence:
#
# PCOD9364640 Si02
#       8
#     8   8   8   8   8   8   8   8
#     4  11  22  38  56  79 116 158 201 252 298 344
#     4   9  21  41  64  91 119 149 185 238 298 355
#     4  10  21  40  65  92 119 150 189 237 298 357
#     4  10  22  40  60  85 119 156 197 244 294 350
#     4  10  21  39  59  83 118 160 201 244 295 347
#     4  11  23  39  60  88 121 156 200 248 297 352
#     4  12  24  37  55  83 117 160 206 244 294 350
#     4  11  22  38  57  83 117 157 201 247 296 348
#
# _framework density 19.575233999999998
#
# number of rings (size 3 to 8) (size 9 to 14) (size 15 to 20)
#    0.000    1.500    2.500    2.625    1.750    3.500 
#    0.000    0.625    0.000    1.500    0.000    0.000 
#    0.000    0.000    0.000    0.000    0.000    0.000 
#
# Total GULP energy -178621.489372 kJ/mol
# GULP energy per Si atom -5581.921543 kJ/mol
# Density = 1.953068 g / cm^3
# Si number density = 19.575234 Si / 1000 Ang^3
#
#
#
# Elastic Constant Matrix: (Units=GPa)
#
#
# Indices 1 2 3 4 5 6 
#
# 1 29.7351 3.9112 12.8754 0.0000 0.0000 0.0000
# 2 3.9112 71.5326 46.4927 0.0000 0.0000 0.0000
# 3 12.8754 46.4927 104.5017 0.0000 0.0000 0.0000
# 4 0.0000 0.0000 0.0000 37.8407 0.0000 0.0000
# 5 0.0000 0.0000 0.0000 0.0000 9.2721 0.0000
# 6 0.0000 0.0000 0.0000 0.0000 0.0000 27.2575
#
#
#
# Elastic Compliance Matrix: (Units=1/GPa)
#
#
# Indices 1 2 3 4 5 6 
#
# 1 0.035608 0.001272 -0.004953 0.000000 0.000000 0.000000
# 2 0.001272 0.019712 -0.008927 0.000000 0.000000 0.000000
# 3 -0.004953 -0.008927 0.014151 0.000000 0.000000 0.000000
# 4 0.000000 0.000000 0.000000 0.026427 0.000000 0.000000
# 5 0.000000 0.000000 0.000000 0.000000 0.107850 0.000000
# 6 0.000000 0.000000 0.000000 0.000000 0.000000 0.036687
#
#
# Mechanical properties :
#
#
# Convention : Reuss Voigt Hill
#
# Bulk Modulus (GPa) = 22.59593 36.92534 29.76063
# Shear Modulus (GPa) = 17.83160 24.37340 21.10250
#
# Velocity S-wave (km/s) = 3.02143 3.53245 3.28688
# Velocity P-wave (km/s) = 4.87240 5.96169 5.44436
#
# Compressibility (1/GPa) = 0.04425575
#
# Stress axis : x y z
#
# Youngs Moduli (GPa) = 28.08381 50.73069 70.66670
#
# Poissons Ratio (x) = -0.06455 0.35003
# Poissons Ratio (y) = -0.03573 0.63081
# Poissons Ratio (z) = 0.13911 0.45285
#
# Static dielectric constant tensor:
#      x y z
#    x 1.683800 0.000000 0.000000 
#    y 0.000000 1.653660 0.000000 
#    z 0.000000 0.000000 1.743010 
# 
# From -- ./inp_files/10690.got.cif
#   From: 2010.05.17/outbox.cif.g08.bks.cpg/sg40_6_cif.got.tgz:10690.got - 2010.06.03 18:35:42.
