data_PCOD9364531
_publ_section_title
;
Structure prediction by ZEFSAII (Michael W. Deem and Ramdas Pophale) SiO2 
 PCOD9364531
Probable space group: A M A 2
;
_chemical_formula_sum "Si O2"
_cell_formula_units_Z 56
_cell_length_a 26.208261
_cell_length_b 10.979626
_cell_length_c 9.363949
_cell_angle_alpha 90.000000
_cell_angle_beta 90.000000
_cell_angle_gamma 90.000000
_cell_volume 2694.540972
_symmetry_space_group_name_H-M "A M A 2"
_symmetry_group_IT_number 40
_symmetry_cell_setting 'orthorhombic'
loop_
_space_group_symop_operation_xyz
x,y,z
-x,-y,z
1/2-x,y,z
1/2+x,-y,z
x,1/2+y,1/2+z
-x,1/2-y,1/2+z
1/2-x,1/2+y,1/2+z
1/2+x,1/2-y,1/2+z
loop_
_atom_site_type_symbol
_atom_site_label
_atom_site_fract_x
_atom_site_fract_y
_atom_site_fract_z
Si Si1 0.446862 0.359081 0.294960
Si Si2 0.636908 0.222566 0.146387
Si Si3 0.447589 0.955756 0.257071
Si Si4 0.106132 0.097277 0.894859
Si Si5 0.691848 0.983815 0.116416
Si Si6 0.478112 0.271290 0.001848
Si Si7 0.130838 0.667618 0.834029
O O1 0.359392 0.203994 0.498151
O O2 0.431187 0.496828 0.325042
O O3 0.482233 0.326650 0.159430
O O4 0.392993 0.290768 0.269751
O O5 0.587738 0.132610 0.163434
O O6 0.630529 0.317826 0.273931
O O7 0.682248 0.124338 0.161236
O O8 0.464969 0.880179 0.394522
O O9 0.500000 0.000000 0.184504
O O10 0.413586 0.067063 0.312969
O O11 0.151173 0.041045 0.990103
O O12 0.069541 0.179032 0.993732
O O13 0.750000 0.965462 0.072596
O O14 0.676858 0.891903 0.245270
O O15 0.525364 0.202738 0.929559
#
# Coordination Sequence:
#
# PCOD9364531 Si02
#       7
#     8   8   8   8   8   8   8
#     4  12  24  40  65  98 141 189 223 272 333 403
#     4  10  24  44  69  97 132 174 222 282 336 406
#     4  10  21  37  61  92 136 182 223 267 322 390
#     4  11  24  46  68  98 138 176 231 284 336 409
#     4  11  25  47  73  97 128 176 228 294 362 411
#     4  11  25  39  62  97 140 186 228 267 328 402
#     4  11  22  42  64  99 137 175 223 279 337 403
#
# _framework density 20.782761000000001
#
# number of rings (size 3 to 8) (size 9 to 14) (size 15 to 20)
#    0.000    1.143    4.286    1.286    4.000    2.286 
#    2.571    0.000    0.000    0.000    0.000    0.000 
#    0.000    0.000    0.000    0.000    0.000    0.000 
#
# Total GULP energy -156553.984428 kJ/mol
# GULP energy per Si atom -5591.213730 kJ/mol
# Density = 2.073546 g / cm^3
# Si number density = 20.782761 Si / 1000 Ang^3
#
#
#
# Elastic Constant Matrix: (Units=GPa)
#
#
# Indices 1 2 3 4 5 6 
#
# 1 90.9240 31.0694 36.0248 0.0000 0.0000 0.0000
# 2 31.0694 106.4938 47.3743 0.0000 0.0000 0.0000
# 3 36.0248 47.3743 126.8398 0.0000 0.0000 0.0000
# 4 0.0000 0.0000 0.0000 28.3773 0.0000 0.0000
# 5 0.0000 0.0000 0.0000 0.0000 18.5827 0.0000
# 6 0.0000 0.0000 0.0000 0.0000 0.0000 19.8981
#
#
#
# Elastic Compliance Matrix: (Units=1/GPa)
#
#
# Indices 1 2 3 4 5 6 
#
# 1 0.012954 -0.002569 -0.002719 0.000000 0.000000 0.000000
# 2 -0.002569 0.011771 -0.003667 0.000000 0.000000 0.000000
# 3 -0.002719 -0.003667 0.010026 0.000000 0.000000 0.000000
# 4 0.000000 0.000000 0.000000 0.035239 0.000000 0.000000
# 5 0.000000 0.000000 0.000000 0.000000 0.053813 0.000000
# 6 0.000000 0.000000 0.000000 0.000000 0.000000 0.050256
#
#
# Mechanical properties :
#
#
# Convention : Reuss Voigt Hill
#
# Bulk Modulus (GPa) = 59.38448 61.46607 60.42528
# Shear Modulus (GPa) = 25.30576 27.35757 26.33167
#
# Velocity S-wave (km/s) = 3.49324 3.63210 3.56335
# Velocity P-wave (km/s) = 6.70122 6.87236 6.78732
#
# Compressibility (1/GPa) = 0.01683942
#
# Stress axis : x y z
#
# Youngs Moduli (GPa) = 77.19832 84.95468 99.74266
#
# Poissons Ratio (x) = 0.21829 0.27124
# Poissons Ratio (y) = 0.19836 0.36572
# Poissons Ratio (z) = 0.20993 0.31150
#
# Static dielectric constant tensor:
#      x y z
#    x 1.736570 0.000000 0.000000 
#    y 0.000000 1.772090 0.000000 
#    z 0.000000 0.000000 1.766520 
# 
# From -- ./inp_files/14252.got.cif
#   From: 2010.05.17/outbox.cif.g08.bks.cpg/sg40_8_cif.got.tgz:14252.got - 2010.06.03 18:35:42.
