data_PCOD9364773
_publ_section_title
;
Structure prediction by ZEFSAII (Michael W. Deem and Ramdas Pophale) SiO2 
 PCOD9364773
Probable space group: A M A 2
;
_chemical_formula_sum "Si O2"
_cell_formula_units_Z 56
_cell_length_a 14.521265
_cell_length_b 9.092403
_cell_length_c 20.847927
_cell_angle_alpha 90.000000
_cell_angle_beta 90.000000
_cell_angle_gamma 90.000000
_cell_volume 2752.618379
_symmetry_space_group_name_H-M "A M A 2"
_symmetry_group_IT_number 40
_symmetry_cell_setting 'orthorhombic'
loop_
_space_group_symop_operation_xyz
x,y,z
-x,-y,z
1/2-x,y,z
1/2+x,-y,z
x,1/2+y,1/2+z
-x,1/2-y,1/2+z
1/2-x,1/2+y,1/2+z
1/2+x,1/2-y,1/2+z
loop_
_atom_site_type_symbol
_atom_site_label
_atom_site_fract_x
_atom_site_fract_y
_atom_site_fract_z
Si Si1 0.500000 0.500000 0.258140
Si Si2 0.355946 0.098114 0.661043
Si Si3 0.143971 0.481611 0.914656
Si Si4 0.907970 0.186979 0.953246
Si Si5 0.250000 0.022739 0.891550
Si Si6 0.568960 0.791430 0.862088
Si Si7 0.147522 0.851503 0.555916
Si Si8 0.971220 0.663285 0.595667
O O1 0.410249 0.502197 0.213381
O O2 0.511436 0.357462 0.302932
O O3 0.250000 0.123733 0.678671
O O4 0.412830 0.245775 0.647459
O O5 0.357926 0.003339 0.595524
O O6 0.250000 0.490663 0.893855
O O7 0.111827 0.643708 0.933840
O O8 0.085806 0.383400 0.865451
O O9 0.140309 0.388849 0.981076
O O10 0.830782 0.086241 0.921378
O O11 0.008785 0.161680 0.923628
O O12 0.913187 0.161630 0.029327
O O13 0.331810 0.132285 0.864331
O O14 0.250000 0.787303 0.567114
O O15 0.064601 0.751419 0.579230
O O16 0.000000 0.500000 0.614818
#
# Coordination Sequence:
#
# PCOD9364773 Si02
#       8
#     4   8   8   8   4   8   8   8
#     4  12  26  46  72  94 134 184 250 284 336 414
#     4  11  25  46  73  99 132 187 243 292 348 420
#     4  11  22  39  67  99 142 177 221 280 354 427
#     4  12  24  41  64 102 145 185 215 290 362 435
#     4  12  24  42  62  96 148 172 238 278 356 424
#     4  12  25  41  65  99 133 188 232 283 346 413
#     4  10  21  40  67  99 129 174 225 280 352 421
#     4  12  24  40  66 106 144 176 228 291 362 425
#
# _framework density 20.344265
#
# number of rings (size 3 to 8) (size 9 to 14) (size 15 to 20)
#    0.000    0.571    7.143    1.286    2.000    0.571 
#    0.000    1.429    0.000    0.000    0.000    0.000 
#    0.000    0.000    0.000    0.000    0.000    0.000 
#
# Total GULP energy -155952.051187 kJ/mol
# GULP energy per Si atom -5569.716114 kJ/mol
# Density = 2.029796 g / cm^3
# Si number density = 20.344265 Si / 1000 Ang^3
#
#
#
# Elastic Constant Matrix: (Units=GPa)
#
#
# Indices 1 2 3 4 5 6 
#
# 1 144.8393 63.4916 21.8691 0.0000 0.0000 0.0000
# 2 63.4916 105.1412 16.3881 0.0000 0.0000 0.0000
# 3 21.8691 16.3881 55.2010 0.0000 0.0000 0.0000
# 4 0.0000 0.0000 0.0000 27.0798 0.0000 0.0000
# 5 0.0000 0.0000 0.0000 0.0000 7.2828 0.0000
# 6 0.0000 0.0000 0.0000 0.0000 0.0000 40.9415
#
#
#
# Elastic Compliance Matrix: (Units=1/GPa)
#
#
# Indices 1 2 3 4 5 6 
#
# 1 0.009636 -0.005477 -0.002191 0.000000 0.000000 0.000000
# 2 -0.005477 0.013086 -0.001715 0.000000 0.000000 0.000000
# 3 -0.002191 -0.001715 0.019493 0.000000 0.000000 0.000000
# 4 0.000000 0.000000 0.000000 0.036928 0.000000 0.000000
# 5 0.000000 0.000000 0.000000 0.000000 0.137311 0.000000
# 6 0.000000 0.000000 0.000000 0.000000 0.000000 0.024425
#
#
# Mechanical properties :
#
#
# Convention : Reuss Voigt Hill
#
# Bulk Modulus (GPa) = 42.64858 56.51987 49.58423
# Shear Modulus (GPa) = 18.69424 28.62301 23.65862
#
# Velocity S-wave (km/s) = 3.03462 3.75498 3.41385
# Velocity P-wave (km/s) = 5.76953 6.82948 6.32176
#
# Compressibility (1/GPa) = 0.02344744
#
# Stress axis : x y z
#
# Youngs Moduli (GPa) = 103.77578 76.41770 51.30059
#
# Poissons Ratio (x) = 0.41857 0.11242
# Poissons Ratio (y) = 0.56842 0.08798
# Poissons Ratio (z) = 0.22742 0.13105
#
# Static dielectric constant tensor:
#      x y z
#    x 1.727260 0.000000 0.000000 
#    y 0.000000 1.746380 0.000000 
#    z 0.000000 0.000000 1.748830 
# 
# From -- ./inp_files/23144.got.cif
#   From: 2010.05.17/outbox.cif.g08.bks.cpg/sg40_12_cif.got.tgz:23144.got - 2010.06.03 18:35:42.
