data_PCOD9364460
_publ_section_title
;
Structure prediction by ZEFSAII (Michael W. Deem and Ramdas Pophale) SiO2 
 PCOD9364460
Probable space group: A M A 2
;
_chemical_formula_sum "Si O2"
_cell_formula_units_Z 64
_cell_length_a 8.797265
_cell_length_b 21.098288
_cell_length_c 19.936440
_cell_angle_alpha 90.000000
_cell_angle_beta 90.000000
_cell_angle_gamma 90.000000
_cell_volume 3700.347416
_symmetry_space_group_name_H-M "A M A 2"
_symmetry_group_IT_number 40
_symmetry_cell_setting 'orthorhombic'
loop_
_space_group_symop_operation_xyz
x,y,z
-x,-y,z
1/2-x,y,z
1/2+x,-y,z
x,1/2+y,1/2+z
-x,1/2-y,1/2+z
1/2-x,1/2+y,1/2+z
1/2+x,1/2-y,1/2+z
loop_
_atom_site_type_symbol
_atom_site_label
_atom_site_fract_x
_atom_site_fract_y
_atom_site_fract_z
Si Si1 0.930610 0.888814 0.096730
Si Si2 0.069529 0.933152 0.959636
Si Si3 0.565339 0.383364 0.745887
Si Si4 0.433080 0.065775 0.387358
Si Si5 0.567035 0.235038 0.748261
Si Si6 0.569375 0.814348 0.881254
Si Si7 0.429167 0.763926 0.595343
Si Si8 0.569273 0.804525 0.460405
O O1 0.750000 0.902599 0.090279
O O2 0.983912 0.905690 0.172077
O O3 0.947757 0.812443 0.090719
O O4 0.019506 0.921032 0.036595
O O5 0.250000 0.934360 0.954857
O O6 0.003905 0.875346 0.916265
O O7 0.000000 0.000000 0.937639
O O8 0.750000 0.384385 0.744252
O O9 0.514094 0.421948 0.810620
O O10 0.524134 0.309395 0.755731
O O11 0.250000 0.062239 0.387027
O O12 0.475863 0.127452 0.430418
O O13 0.500000 0.000000 0.412537
O O14 0.750000 0.231280 0.757067
O O15 0.485577 0.194694 0.805002
O O16 0.531930 0.217179 0.671481
O O17 0.750000 0.818781 0.885633
O O18 0.513059 0.751986 0.920859
O O19 0.250000 0.776556 0.584416
O O20 0.525914 0.796955 0.537983
O O21 0.750000 0.797113 0.450524
#
# Coordination Sequence:
#
# PCOD9364460 Si02
#       8
#     8   8   8   8   8   8   8   8
#     4   9  17  32  54  80 111 147 184 223 269 327
#     4  12  25  40  57  79 111 150 188 232 280 336
#     4   8  15  31  53  76 110 149 183 220 269 325
#     4  10  21  36  53  76 108 148 187 226 273 322
#     4   9  17  34  57  82 112 146 179 222 281 333
#     4  12  23  36  57  85 113 144 186 234 277 328
#     4   9  18  32  56  85 114 144 179 226 278 329
#     4  11  21  35  57  81 110 147 187 231 281 332
#
# _framework density 17.295674000000002
#
# number of rings (size 3 to 8) (size 9 to 14) (size 15 to 20)
#    0.000    2.000    2.500    4.125    0.000    2.000 
#    0.000    3.750    0.000    0.750    0.000    1.750 
#    0.000    0.000    0.000    0.000    0.000    0.000 
#
# Total GULP energy -178651.272247 kJ/mol
# GULP energy per Si atom -5582.852258 kJ/mol
# Density = 1.725631 g / cm^3
# Si number density = 17.295674 Si / 1000 Ang^3
#
#
#
# Elastic Constant Matrix: (Units=GPa)
#
#
# Indices 1 2 3 4 5 6 
#
# 1 77.0459 51.5458 47.0415 0.0000 0.0000 0.0000
# 2 51.5458 109.3163 54.5376 0.0000 0.0000 0.0000
# 3 47.0415 54.5376 91.5159 0.0000 0.0000 0.0000
# 4 0.0000 0.0000 0.0000 18.5047 0.0000 0.0000
# 5 0.0000 0.0000 0.0000 0.0000 -219.6182 0.0000
# 6 0.0000 0.0000 0.0000 0.0000 0.0000 23.0620
#
#
#
# Elastic Compliance Matrix: (Units=1/GPa)
#
#
# Indices 1 2 3 4 5 6 
#
# 1 0.021897 -0.006702 -0.007261 0.000000 0.000000 0.000000
# 2 -0.006702 0.015070 -0.005535 0.000000 0.000000 0.000000
# 3 -0.007261 -0.005535 0.017958 0.000000 0.000000 0.000000
# 4 0.000000 0.000000 0.000000 0.054040 0.000000 0.000000
# 5 0.000000 0.000000 0.000000 0.000000 -0.004553 0.000000
# 6 0.000000 0.000000 0.000000 0.000000 0.000000 0.043361
#
#
# Mechanical properties :
#
#
# Convention : Reuss Voigt Hill
#
# Bulk Modulus (GPa) = 62.78775 64.90310 63.84543
# Shear Modulus (GPa) = 26.03080 -27.29341 -0.63130
#
# Velocity S-wave (km/s) = 3.88370 -3.97678 -0.60481
# Velocity P-wave (km/s) = 7.51613 4.06458 6.04206
#
# Compressibility (1/GPa) = 0.01592667
#
# Stress axis : x y z
#
# Youngs Moduli (GPa) = 45.66873 66.35830 55.68438
#
# Poissons Ratio (x) = 0.44475 0.40435
# Poissons Ratio (y) = 0.30609 0.30824
# Poissons Ratio (z) = 0.33162 0.36732
#
# Static dielectric constant tensor:
#      x y z
#    x 1.585440 0.000000 0.000000 
#    y 0.000000 1.569840 0.000000 
#    z 0.000000 0.000000 1.602090 
# 
# From -- ./inp_files/19607.got.cif
#   From: 2010.05.17/outbox.cif.g08.bks.cpg/sg40_10_cif.got.tgz:19607.got - 2010.06.03 18:35:42.
