data_PCOD9364583
_publ_section_title
;
Structure prediction by ZEFSAII (Michael W. Deem and Ramdas Pophale) SiO2 
 PCOD9364583
Probable space group: A M A 2
;
_chemical_formula_sum "Si O2"
_cell_formula_units_Z 64
_cell_length_a 9.242958
_cell_length_b 24.217301
_cell_length_c 13.776299
_cell_angle_alpha 90.000000
_cell_angle_beta 90.000000
_cell_angle_gamma 90.000000
_cell_volume 3083.679825
_symmetry_space_group_name_H-M "A M A 2"
_symmetry_group_IT_number 40
_symmetry_cell_setting 'orthorhombic'
loop_
_space_group_symop_operation_xyz
x,y,z
-x,-y,z
1/2-x,y,z
1/2+x,-y,z
x,1/2+y,1/2+z
-x,1/2-y,1/2+z
1/2-x,1/2+y,1/2+z
1/2+x,1/2-y,1/2+z
loop_
_atom_site_type_symbol
_atom_site_label
_atom_site_fract_x
_atom_site_fract_y
_atom_site_fract_z
Si Si1 0.079413 0.056143 0.301440
Si Si2 0.420587 0.056143 0.695951
Si Si3 0.415419 0.770601 0.880304
Si Si4 0.915419 0.229399 0.117087
Si Si5 0.919846 0.882420 0.110434
Si Si6 0.419846 0.617580 0.386957
Si Si7 0.914829 0.661699 0.881792
Si Si8 0.085171 0.838301 0.615599
O O1 0.250000 0.052801 0.321790
O O2 0.059033 0.068711 0.186715
O O3 0.009743 0.109224 0.352469
O O4 0.000000 0.000000 0.329550
O O5 0.250000 0.052801 0.675601
O O6 0.440967 0.068711 0.810677
O O7 0.490257 0.109224 0.644922
O O8 0.500000 0.000000 0.667841
O O9 0.250000 0.765141 0.847290
O O10 0.484887 0.829749 0.857144
O O11 0.512149 0.718855 0.848373
O O12 0.413895 0.768836 0.998696
O O13 0.750000 0.234859 0.150101
O O14 0.984887 0.170251 0.140247
O O15 0.012149 0.281146 0.149018
O O16 0.750000 0.866260 0.115181
O O17 0.952498 0.896945 0.998695
O O18 0.250000 0.633740 0.382210
O O19 0.750000 0.656188 0.846443
O O20 0.910259 0.663882 0.998696
O O21 0.250000 0.843812 0.650948
#
# Coordination Sequence:
#
# PCOD9364583 Si02
#       8
#     8   8   8   8   8   8   8   8
#     4  11  24  40  58  81 110 146 189 234 276 324
#     4  11  24  40  58  81 110 146 189 234 276 324
#     4   9  17  31  55  87 117 144 179 224 274 329
#     4   9  17  31  55  87 117 144 179 224 274 329
#     4   9  19  37  59  83 113 148 184 224 273 328
#     4   9  19  37  59  83 113 148 184 224 273 328
#     4  10  21  38  60  84 112 147 184 226 277 330
#     4  10  21  38  60  84 112 147 184 226 277 330
#
# _framework density 20.754422999999999
#
# number of rings (size 3 to 8) (size 9 to 14) (size 15 to 20)
#    0.000    2.250    0.000    2.250    0.000    8.500 
#    0.000    0.000    0.000    0.000    0.000    0.000 
#    0.000    0.000    0.000    0.000    0.000    0.000 
#
# Total GULP energy -178902.261474 kJ/mol
# GULP energy per Si atom -5590.695671 kJ/mol
# Density = 2.070719 g / cm^3
# Si number density = 20.754423 Si / 1000 Ang^3
#
#
#
# Elastic Constant Matrix: (Units=GPa)
#
#
# Indices 1 2 3 4 5 6 
#
# 1 114.3338 54.8192 10.4524 0.0000 0.0000 0.0000
# 2 54.8192 95.7186 -5.8846 0.0000 0.0000 0.0000
# 3 10.4524 -5.8846 41.5952 0.0000 0.0000 0.0000
# 4 0.0000 0.0000 0.0000 20.0745 0.0000 0.0000
# 5 0.0000 0.0000 0.0000 0.0000 23.4484 0.0000
# 6 0.0000 0.0000 0.0000 0.0000 0.0000 34.0744
#
#
#
# Elastic Compliance Matrix: (Units=1/GPa)
#
#
# Indices 1 2 3 4 5 6 
#
# 1 0.012771 -0.007577 -0.004281 0.000000 0.000000 0.000000
# 2 -0.007577 0.015035 0.004031 0.000000 0.000000 0.000000
# 3 -0.004281 0.004031 0.025687 0.000000 0.000000 0.000000
# 4 0.000000 0.000000 0.000000 0.049815 0.000000 0.000000
# 5 0.000000 0.000000 0.000000 0.000000 0.042647 0.000000
# 6 0.000000 0.000000 0.000000 0.000000 0.000000 0.029348
#
#
# Mechanical properties :
#
#
# Convention : Reuss Voigt Hill
#
# Bulk Modulus (GPa) = 26.42830 41.15798 33.79314
# Shear Modulus (GPa) = 24.56176 28.33683 26.44930
#
# Velocity S-wave (km/s) = 3.44386 3.69906 3.57374
# Velocity P-wave (km/s) = 5.34556 6.17398 5.77465
#
# Compressibility (1/GPa) = 0.03783823
#
# Stress axis : x y z
#
# Youngs Moduli (GPa) = 78.30450 66.51321 38.92976
#
# Poissons Ratio (x) = 0.50398 0.16666
# Poissons Ratio (y) = 0.59332 -0.15693
# Poissons Ratio (z) = 0.33523 -0.26812
#
# Static dielectric constant tensor:
#      x y z
#    x 1.682790 0.000000 0.000000 
#    y 0.000000 1.665490 0.000000 
#    z 0.000000 0.000000 1.815090 
# 
# From -- ./inp_files/15633.got.cif
#   From: 2010.05.17/outbox.cif.g08.bks.cpg/sg40_8_cif.got.tgz:15633.got - 2010.06.03 18:35:42.
