data_PCOD9364322
_publ_section_title
;
Structure prediction by ZEFSAII (Michael W. Deem and Ramdas Pophale) SiO2 
 PCOD9364322
Probable space group: A M A 2
;
_chemical_formula_sum "Si O2"
_cell_formula_units_Z 48
_cell_length_a 10.174531
_cell_length_b 27.894464
_cell_length_c 9.156550
_cell_angle_alpha 90.000000
_cell_angle_beta 90.000000
_cell_angle_gamma 90.000000
_cell_volume 2598.748737
_symmetry_space_group_name_H-M "A M A 2"
_symmetry_group_IT_number 40
_symmetry_cell_setting 'orthorhombic'
loop_
_space_group_symop_operation_xyz
x,y,z
-x,-y,z
1/2-x,y,z
1/2+x,-y,z
x,1/2+y,1/2+z
-x,1/2-y,1/2+z
1/2-x,1/2+y,1/2+z
1/2+x,1/2-y,1/2+z
loop_
_atom_site_type_symbol
_atom_site_label
_atom_site_fract_x
_atom_site_fract_y
_atom_site_fract_z
Si Si1 0.001952 0.103056 0.445930
Si Si2 0.750000 0.460704 0.439865
Si Si3 0.597272 0.707506 0.885468
Si Si4 0.034681 0.100791 0.103230
Si Si5 0.250000 0.062684 0.598963
Si Si6 0.750000 0.559409 0.587332
Si Si7 0.250000 0.962866 0.425851
Si Si8 0.900177 0.791732 0.119378
O O1 0.948963 0.157198 0.455045
O O2 0.880527 0.066812 0.467507
O O3 0.052965 0.096558 0.278687
O O4 0.120102 0.091753 0.554077
O O5 0.876034 0.436922 0.518176
O O6 0.750000 0.449589 0.269123
O O7 0.750000 0.517101 0.470621
O O8 0.750000 0.702248 0.841760
O O9 0.504590 0.716126 0.747212
O O10 0.586201 0.751233 0.997359
O O11 0.074612 0.154615 0.060396
O O12 0.881450 0.090594 0.076407
O O13 0.250000 0.014070 0.502679
O O14 0.750000 0.535124 0.748961
O O15 0.750000 0.790165 0.175707
#
# Coordination Sequence:
#
# PCOD9364322 Si02
#       8
#     8   4   8   8   4   4   4   8
#     4  10  21  40  63  89 115 160 204 249 292 351
#     4  12  24  40  55  88 127 159 196 251 303 358
#     4  10  22  41  64  93 124 156 199 248 297 356
#     4  10  21  40  64  87 117 158 204 249 292 355
#     4  12  26  36  59  88 125 161 198 245 307 360
#     4  10  22  38  65  88 113 157 208 249 299 352
#     4  10  20  40  63  88 115 155 206 253 293 348
#     4  10  22  40  64  93 124 158 197 247 300 353
#
# _framework density 18.470427000000001
#
# number of rings (size 3 to 8) (size 9 to 14) (size 15 to 20)
#    0.000    1.667    1.667    2.500    7.000    7.333 
#    0.000    0.000    0.000    0.000    0.000    0.000 
#    0.000    0.000    0.000    0.000    0.000    0.000 
#
# Total GULP energy -134114.623492 kJ/mol
# GULP energy per Si atom -5588.109312 kJ/mol
# Density = 1.842839 g / cm^3
# Si number density = 18.470427 Si / 1000 Ang^3
#
#
#
# Elastic Constant Matrix: (Units=GPa)
#
#
# Indices 1 2 3 4 5 6 
#
# 1 120.7943 33.5025 49.6715 0.0000 0.0000 0.0000
# 2 33.5025 70.7163 29.2203 0.0000 0.0000 0.0000
# 3 49.6715 29.2203 48.0767 0.0000 0.0000 0.0000
# 4 0.0000 0.0000 0.0000 22.8914 0.0000 0.0000
# 5 0.0000 0.0000 0.0000 0.0000 8.9257 0.0000
# 6 0.0000 0.0000 0.0000 0.0000 0.0000 32.4676
#
#
#
# Elastic Compliance Matrix: (Units=1/GPa)
#
#
# Indices 1 2 3 4 5 6 
#
# 1 0.014437 -0.000903 -0.014367 0.000000 0.000000 0.000000
# 2 -0.000903 0.018940 -0.010578 0.000000 0.000000 0.000000
# 3 -0.014367 -0.010578 0.042073 0.000000 0.000000 0.000000
# 4 0.000000 0.000000 0.000000 0.043685 0.000000 0.000000
# 5 0.000000 0.000000 0.000000 0.000000 0.112036 0.000000
# 6 0.000000 0.000000 0.000000 0.000000 0.000000 0.030800
#
#
# Mechanical properties :
#
#
# Convention : Reuss Voigt Hill
#
# Bulk Modulus (GPa) = 42.09985 51.59733 46.84859
# Shear Modulus (GPa) = 15.54804 21.33645 18.44224
#
# Velocity S-wave (km/s) = 2.90449 3.40246 3.16329
# Velocity P-wave (km/s) = 5.83872 6.59025 6.22584
#
# Compressibility (1/GPa) = 0.02375306
#
# Stress axis : x y z
#
# Youngs Moduli (GPa) = 69.26778 52.79861 23.76837
#
# Poissons Ratio (x) = 0.04768 0.34147
# Poissons Ratio (y) = 0.06256 0.25143
# Poissons Ratio (z) = 0.99515 0.55852
#
# Static dielectric constant tensor:
#      x y z
#    x 1.628750 0.000000 0.000000 
#    y 0.000000 1.625230 0.000000 
#    z 0.000000 0.000000 1.608130 
# 
# From -- ./inp_files/4689.got.cif
#   From: 2010.05.17/outbox.cif.g08.bks.cpg/sg40_3_cif.got.tgz:4689.got - 2010.06.03 18:35:42.
