data_PCOD9364900
_publ_section_title
;
Structure prediction by ZEFSAII (Michael W. Deem and Ramdas Pophale) SiO2 
 PCOD9364900
Probable space group: A M A 2
;
_chemical_formula_sum "Si O2"
_cell_formula_units_Z 40
_cell_length_a 8.950886
_cell_length_b 29.098848
_cell_length_c 7.889585
_cell_angle_alpha 90.000000
_cell_angle_beta 90.000000
_cell_angle_gamma 90.000000
_cell_volume 2054.925027
_symmetry_space_group_name_H-M "A M A 2"
_symmetry_group_IT_number 40
_symmetry_cell_setting 'orthorhombic'
loop_
_space_group_symop_operation_xyz
x,y,z
-x,-y,z
1/2-x,y,z
1/2+x,-y,z
x,1/2+y,1/2+z
-x,1/2-y,1/2+z
1/2-x,1/2+y,1/2+z
1/2+x,1/2-y,1/2+z
loop_
_atom_site_type_symbol
_atom_site_label
_atom_site_fract_x
_atom_site_fract_y
_atom_site_fract_z
Si Si1 0.923783 0.206085 0.453340
Si Si2 0.427379 0.107992 0.978032
Si Si3 0.422763 0.300331 0.356809
Si Si4 0.428874 0.894268 0.329019
Si Si5 0.070797 0.050303 0.639938
O O1 0.750000 0.216496 0.413613
O O2 0.933961 0.196093 0.653536
O O3 0.967235 0.159635 0.356393
O O4 0.022325 0.249909 0.408318
O O5 0.250000 0.106261 0.005099
O O6 0.478871 0.159973 0.939944
O O7 0.464809 0.078126 0.812022
O O8 0.511355 0.091165 0.145862
O O9 0.250000 0.307031 0.406473
O O10 0.250000 0.898468 0.339619
O O11 0.503919 0.922780 0.479548
O O12 0.250000 0.047591 0.624681
O O13 0.000000 0.000000 0.647817
#
# Coordination Sequence:
#
# PCOD9364900 Si02
#       5
#     8   8   8   8   8
#     4  10  22  38  57  88 127 169 215 264 321 383
#     4  11  24  42  65  95 131 170 216 267 324 388
#     4  11  22  37  59  88 126 170 217 267 319 380
#     4  11  23  42  68  96 131 171 215 268 325 388
#     4  11  25  45  70  97 129 170 216 272 328 387
#
# _framework density 19.465430000000001
#
# number of rings (size 3 to 8) (size 9 to 14) (size 15 to 20)
#    0.000    1.200    2.000    3.600    0.000    9.600 
#    0.000    2.000    0.000    0.000    0.000    0.000 
#    0.000    0.000    0.000    0.000    0.000    0.000 
#
# Total GULP energy -111894.187127 kJ/mol
# GULP energy per Si atom -5594.709356 kJ/mol
# Density = 1.942113 g / cm^3
# Si number density = 19.465430 Si / 1000 Ang^3
#
#
#
# Elastic Constant Matrix: (Units=GPa)
#
#
# Indices 1 2 3 4 5 6 
#
# 1 64.2155 56.5804 62.0786 0.0000 0.0000 0.0000
# 2 56.5804 117.0228 64.2234 0.0000 0.0000 0.0000
# 3 62.0786 64.2234 137.5574 0.0000 0.0000 0.0000
# 4 0.0000 0.0000 0.0000 19.9896 0.0000 0.0000
# 5 0.0000 0.0000 0.0000 0.0000 30.5772 0.0000
# 6 0.0000 0.0000 0.0000 0.0000 0.0000 25.6320
#
#
#
# Elastic Compliance Matrix: (Units=1/GPa)
#
#
# Indices 1 2 3 4 5 6 
#
# 1 0.036430 -0.011551 -0.011048 0.000000 0.000000 0.000000
# 2 -0.011551 0.015152 -0.001861 0.000000 0.000000 0.000000
# 3 -0.011048 -0.001861 0.013124 0.000000 0.000000 0.000000
# 4 0.000000 0.000000 0.000000 0.050026 0.000000 0.000000
# 5 0.000000 0.000000 0.000000 0.000000 0.032704 0.000000
# 6 0.000000 0.000000 0.000000 0.000000 0.000000 0.039014
#
#
# Mechanical properties :
#
#
# Convention : Reuss Voigt Hill
#
# Bulk Modulus (GPa) = 63.34504 76.06228 69.70366
# Shear Modulus (GPa) = 20.77864 24.30064 22.53964
#
# Velocity S-wave (km/s) = 3.27075 3.53710 3.40653
# Velocity P-wave (km/s) = 6.84666 7.47274 7.16654
#
# Compressibility (1/GPa) = 0.01578656
#
# Stress axis : x y z
#
# Youngs Moduli (GPa) = 27.44990 65.99949 76.19378
#
# Poissons Ratio (x) = 0.76235 0.84177
# Poissons Ratio (y) = 0.31707 0.14182
# Poissons Ratio (z) = 0.30326 0.12284
#
# Static dielectric constant tensor:
#      x y z
#    x 1.659320 0.000000 0.000000 
#    y 0.000000 1.643820 0.000000 
#    z 0.000000 0.000000 1.682020 
# 
# From -- ./inp_files/4252.got.cif
#   From: 2010.05.17/outbox.cif.g08.bks.cpg/sg40_3_cif.got.tgz:4252.got - 2010.06.03 18:35:42.
