data_PCOD9364839
_publ_section_title
;
Structure prediction by ZEFSAII (Michael W. Deem and Ramdas Pophale) SiO2 
 PCOD9364839
Probable space group: A M A 2
;
_chemical_formula_sum "Si O2"
_cell_formula_units_Z 60
_cell_length_a 9.209693
_cell_length_b 19.551197
_cell_length_c 15.478485
_cell_angle_alpha 90.000000
_cell_angle_beta 90.000000
_cell_angle_gamma 90.000000
_cell_volume 2787.064091
_symmetry_space_group_name_H-M "A M A 2"
_symmetry_group_IT_number 40
_symmetry_cell_setting 'orthorhombic'
loop_
_space_group_symop_operation_xyz
x,y,z
-x,-y,z
1/2-x,y,z
1/2+x,-y,z
x,1/2+y,1/2+z
-x,1/2-y,1/2+z
1/2-x,1/2+y,1/2+z
1/2+x,1/2-y,1/2+z
loop_
_atom_site_type_symbol
_atom_site_label
_atom_site_fract_x
_atom_site_fract_y
_atom_site_fract_z
Si Si1 0.921841 0.204130 0.062590
Si Si2 0.078988 0.325424 0.140835
Si Si3 0.413256 0.741505 0.396547
Si Si4 0.079161 0.433405 0.993359
Si Si5 0.483660 0.099884 0.812997
Si Si6 0.074983 0.572074 0.630021
Si Si7 0.750000 0.018224 0.842570
Si Si8 0.077123 0.381445 0.804429
O O1 0.750000 0.194060 0.071432
O O2 0.982120 0.257625 0.133927
O O3 0.010327 0.133573 0.072797
O O4 0.968389 0.237160 0.971663
O O5 0.250000 0.307607 0.146431
O O6 0.040615 0.375711 0.219426
O O7 0.051995 0.369076 0.054261
O O8 0.250000 0.755721 0.432374
O O9 0.415035 0.667635 0.353353
O O10 0.442745 0.801633 0.328215
O O11 0.250000 0.446053 0.995018
O O12 0.038892 0.418556 0.894350
O O13 0.000000 0.500000 0.027212
O O14 0.622638 0.073895 0.865406
O O15 0.372371 0.038108 0.812515
O O16 0.250000 0.568101 0.624020
O O17 0.000000 0.500000 0.606333
O O18 0.020193 0.591365 0.726587
O O19 0.250000 0.392225 0.785276
#
# Coordination Sequence:
#
# PCOD9364839 Si02
#       8
#     8   8   8   8   8   8   4   8
#     4  12  27  45  69 102 136 172 225 279 335 409
#     4  11  23  42  67  96 136 178 222 272 331 397
#     4  11  23  45  69  95 134 179 226 278 336 398
#     4  10  22  37  59  93 133 176 217 269 330 391
#     4  11  23  41  67  95 132 181 222 275 334 396
#     4  12  26  47  73 100 135 176 227 282 342 402
#     4  10  24  42  60  98 136 170 228 276 328 398
#     4  10  21  42  69  96 134 175 226 279 334 399
#
# _framework density 21.528030000000001
#
# number of rings (size 3 to 8) (size 9 to 14) (size 15 to 20)
#    0.000    1.067    2.667    3.600    3.733    3.733 
#    2.400    0.000    0.000    0.000    0.000    0.000 
#    0.000    0.000    0.000    0.000    0.000    0.000 
#
# Total GULP energy -167206.568920 kJ/mol
# GULP energy per Si atom -5573.552297 kJ/mol
# Density = 2.147903 g / cm^3
# Si number density = 21.528030 Si / 1000 Ang^3
#
#
#
# Elastic Constant Matrix: (Units=GPa)
#
#
# Indices 1 2 3 4 5 6 
#
# 1 149.0697 46.2761 6.2009 0.0000 0.0000 0.0000
# 2 46.2761 107.1530 -16.5419 0.0000 0.0000 0.0000
# 3 6.2009 -16.5419 23.7628 0.0000 0.0000 0.0000
# 4 0.0000 0.0000 0.0000 29.3838 0.0000 0.0000
# 5 0.0000 0.0000 0.0000 0.0000 41.3494 0.0000
# 6 0.0000 0.0000 0.0000 0.0000 0.0000 31.5020
#
#
#
# Elastic Compliance Matrix: (Units=1/GPa)
#
#
# Indices 1 2 3 4 5 6 
#
# 1 0.008286 -0.004383 -0.005213 0.000000 0.000000 0.000000
# 2 -0.004383 0.012775 0.010037 0.000000 0.000000 0.000000
# 3 -0.005213 0.010037 0.050430 0.000000 0.000000 0.000000
# 4 0.000000 0.000000 0.000000 0.034032 0.000000 0.000000
# 5 0.000000 0.000000 0.000000 0.000000 0.024184 0.000000
# 6 0.000000 0.000000 0.000000 0.000000 0.000000 0.031744
#
#
# Mechanical properties :
#
#
# Convention : Reuss Voigt Hill
#
# Bulk Modulus (GPa) = 13.81777 39.09507 26.45642
# Shear Modulus (GPa) = 27.07174 36.71708 31.89441
#
# Velocity S-wave (km/s) = 3.54999 4.13431 3.85324
# Velocity P-wave (km/s) = 4.82034 6.40230 5.66680
#
# Compressibility (1/GPa) = 0.07237055
#
# Stress axis : x y z
#
# Youngs Moduli (GPa) = 120.68790 78.27870 19.82955
#
# Poissons Ratio (x) = 0.34311 0.10338
# Poissons Ratio (y) = 0.52900 -0.19902
# Poissons Ratio (z) = 0.62920 -0.78566
#
# Static dielectric constant tensor:
#      x y z
#    x 1.732660 0.000000 0.000000 
#    y 0.000000 1.760710 0.000000 
#    z 0.000000 0.000000 1.820730 
# 
# From -- ./inp_files/19408.got.cif
#   From: 2010.05.17/outbox.cif.g08.bks.cpg/sg40_10_cif.got.tgz:19408.got - 2010.06.03 18:35:42.
