data_PCOD9364680
_publ_section_title
;
Structure prediction by ZEFSAII (Michael W. Deem and Ramdas Pophale) SiO2 
 PCOD9364680
Probable space group: A M A 2
;
_chemical_formula_sum "Si O2"
_cell_formula_units_Z 56
_cell_length_a 22.457470
_cell_length_b 8.330531
_cell_length_c 13.539960
_cell_angle_alpha 90.000000
_cell_angle_beta 90.000000
_cell_angle_gamma 90.000000
_cell_volume 2533.091598
_symmetry_space_group_name_H-M "A M A 2"
_symmetry_group_IT_number 40
_symmetry_cell_setting 'orthorhombic'
loop_
_space_group_symop_operation_xyz
x,y,z
-x,-y,z
1/2-x,y,z
1/2+x,-y,z
x,1/2+y,1/2+z
-x,1/2-y,1/2+z
1/2-x,1/2+y,1/2+z
1/2+x,1/2-y,1/2+z
loop_
_atom_site_type_symbol
_atom_site_label
_atom_site_fract_x
_atom_site_fract_y
_atom_site_fract_z
Si Si1 0.914011 0.602349 0.643530
Si Si2 0.685830 0.194490 0.775892
Si Si3 0.633273 0.196107 0.443229
Si Si4 0.687239 0.897823 0.086375
Si Si5 0.000924 0.820560 0.518464
Si Si6 0.819277 0.834205 0.744523
Si Si7 0.586279 0.892917 0.341221
O O1 0.871661 0.500702 0.570643
O O2 0.967940 0.691423 0.588014
O O3 0.866682 0.735902 0.680815
O O4 0.929762 0.486755 0.738295
O O5 0.750000 0.191602 0.829524
O O6 0.688060 0.343319 0.699782
O O7 0.624901 0.232815 0.829871
O O8 0.680545 0.023067 0.723696
O O9 0.679930 0.232564 0.527909
O O10 0.567849 0.224284 0.489119
O O11 0.655562 0.309747 0.355127
O O12 0.628361 0.019189 0.398730
O O13 0.750000 0.976646 0.060712
O O14 0.967124 0.847300 0.414060
O O15 0.000000 0.000000 0.566295
O O16 0.750000 0.777882 0.737934
#
# Coordination Sequence:
#
# PCOD9364680 Si02
#       7
#     8   8   8   8   8   8   8
#     4  10  22  42  68  91 127 176 215 272 338 395
#     4   9  20  38  62  93 127 161 211 269 331 400
#     4  10  22  40  61  91 126 168 213 266 334 390
#     4  10  21  39  63  93 125 161 212 269 329 399
#     4  10  23  44  64  93 135 168 227 277 322 407
#     4  10  21  40  64  94 128 167 218 273 336 406
#     4   9  21  43  64  89 130 170 216 266 331 397
#
# _framework density 22.107371000000001
#
# number of rings (size 3 to 8) (size 9 to 14) (size 15 to 20)
#    0.000    2.286    0.000    0.857    6.000    4.571 
#   23.143    0.714    0.000    0.000    0.000    0.000 
#    0.000    0.000    0.000    0.000    0.000    0.000 
#
# Total GULP energy -156048.430787 kJ/mol
# GULP energy per Si atom -5573.158242 kJ/mol
# Density = 2.205705 g / cm^3
# Si number density = 22.107371 Si / 1000 Ang^3
#
#
#
# Elastic Constant Matrix: (Units=GPa)
#
#
# Indices 1 2 3 4 5 6 
#
# 1 63.0387 36.3894 21.2224 0.0000 0.0000 0.0000
# 2 36.3894 70.0160 17.8724 0.0000 0.0000 0.0000
# 3 21.2224 17.8724 51.9292 0.0000 0.0000 0.0000
# 4 0.0000 0.0000 0.0000 26.9193 0.0000 0.0000
# 5 0.0000 0.0000 0.0000 0.0000 -3.6179 0.0000
# 6 0.0000 0.0000 0.0000 0.0000 0.0000 34.5190
#
#
#
# Elastic Compliance Matrix: (Units=1/GPa)
#
#
# Indices 1 2 3 4 5 6 
#
# 1 0.024319 -0.011076 -0.006127 0.000000 0.000000 0.000000
# 2 -0.011076 0.020702 -0.002599 0.000000 0.000000 0.000000
# 3 -0.006127 -0.002599 0.022655 0.000000 0.000000 0.000000
# 4 0.000000 0.000000 0.000000 0.037148 0.000000 0.000000
# 5 0.000000 0.000000 0.000000 0.000000 -0.276403 0.000000
# 6 0.000000 0.000000 0.000000 0.000000 0.000000 0.028970
#
#
# Mechanical properties :
#
#
# Convention : Reuss Voigt Hill
#
# Bulk Modulus (GPa) = 35.61957 37.32803 36.47380
# Shear Modulus (GPa) = -53.39144 18.86405 -17.26369
#
# Velocity S-wave (km/s) = -4.91969 2.92429 -2.79749
# Velocity P-wave (km/s) = 4.01549 5.32198 2.46975
#
# Compressibility (1/GPa) = 0.02807446
#
# Stress axis : x y z
#
# Youngs Moduli (GPa) = 41.11944 48.30437 44.13965
#
# Poissons Ratio (x) = 0.53500 0.27044
# Poissons Ratio (y) = 0.45542 0.11470
# Poissons Ratio (z) = 0.25194 0.12553
#
# Static dielectric constant tensor:
#      x y z
#    x 1.847360 0.000000 0.000000 
#    y 0.000000 1.828250 0.000000 
#    z 0.000000 0.000000 1.860010 
# 
# From -- ./inp_files/18225.got.cif
#   From: 2010.05.17/outbox.cif.g08.bks.cpg/sg40_10_cif.got.tgz:18225.got - 2010.06.03 18:35:42.
