data_PCOD9365493
_publ_section_title
;
Structure prediction by ZEFSAII (Michael W. Deem and Ramdas Pophale) SiO2 
 PCOD9365493
Probable space group: A M A 2
;
_chemical_formula_sum "Si O2"
_cell_formula_units_Z 28
_cell_length_a 21.088709
_cell_length_b 7.311118
_cell_length_c 6.681567
_cell_angle_alpha 90.000000
_cell_angle_beta 90.000000
_cell_angle_gamma 90.000000
_cell_volume 1030.177630
_symmetry_space_group_name_H-M "A M A 2"
_symmetry_group_IT_number 40
_symmetry_cell_setting 'orthorhombic'
loop_
_space_group_symop_operation_xyz
x,y,z
-x,-y,z
1/2-x,y,z
1/2+x,-y,z
x,1/2+y,1/2+z
-x,1/2-y,1/2+z
1/2-x,1/2+y,1/2+z
1/2+x,1/2-y,1/2+z
loop_
_atom_site_type_symbol
_atom_site_label
_atom_site_fract_x
_atom_site_fract_y
_atom_site_fract_z
Si Si1 0.181666 0.097534 0.584210
Si Si2 0.631158 0.941977 0.175806
Si Si3 0.930905 0.070427 0.815726
Si Si4 0.250000 0.977295 0.970224
O O1 0.250000 0.031456 0.703104
O O2 0.165196 0.991597 0.381069
O O3 0.121876 0.063061 0.719331
O O4 0.197015 0.301464 0.511479
O O5 0.588554 0.767881 0.237198
O O6 0.692658 0.883670 0.048142
O O7 0.580830 0.060878 0.052950
O O8 0.000000 0.000000 0.762077
#
# Coordination Sequence:
#
# PCOD9365493 Si02
#       4
#     8   8   8   4
#     4   9  21  43  71 102 139 184 238 304 366 431
#     4  11  23  45  69 102 138 188 234 306 364 441
#     4  11  28  45  70 101 147 187 248 292 370 448
#     4   8  18  40  66 104 134 172 236 298 366 432
#
# _framework density 27.179777999999999
#
# number of rings (size 3 to 8) (size 9 to 14) (size 15 to 20)
#    0.857    1.143    1.429    0.000    6.000    5.714 
#    0.000    0.000    0.000    0.000    0.000    0.000 
#    0.000    0.000    0.000    0.000    0.000    0.000 
#
# Total GULP energy -77953.224030 kJ/mol
# GULP energy per Si atom -5568.087431 kJ/mol
# Density = 2.711792 g / cm^3
# Si number density = 27.179778 Si / 1000 Ang^3
#
#
#
# Elastic Constant Matrix: (Units=GPa)
#
#
# Indices 1 2 3 4 5 6 
#
# 1 194.9466 5.7167 64.1169 0.0000 0.0000 0.0000
# 2 5.7167 120.9166 40.9107 0.0000 0.0000 0.0000
# 3 64.1169 40.9107 155.9333 0.0000 0.0000 0.0000
# 4 0.0000 0.0000 0.0000 51.6305 0.0000 0.0000
# 5 0.0000 0.0000 0.0000 0.0000 41.0063 0.0000
# 6 0.0000 0.0000 0.0000 0.0000 0.0000 74.5485
#
#
#
# Elastic Compliance Matrix: (Units=1/GPa)
#
#
# Indices 1 2 3 4 5 6 
#
# 1 0.005971 0.000602 -0.002613 0.000000 0.000000 0.000000
# 2 0.000602 0.009136 -0.002645 0.000000 0.000000 0.000000
# 3 -0.002613 -0.002645 0.008181 0.000000 0.000000 0.000000
# 4 0.000000 0.000000 0.000000 0.019368 0.000000 0.000000
# 5 0.000000 0.000000 0.000000 0.000000 0.024386 0.000000
# 6 0.000000 0.000000 0.000000 0.000000 0.000000 0.013414
#
#
# Mechanical properties :
#
#
# Convention : Reuss Voigt Hill
#
# Bulk Modulus (GPa) = 71.54406 77.03168 74.28787
# Shear Modulus (GPa) = 52.94975 57.50720 55.22847
#
# Velocity S-wave (km/s) = 4.41855 4.60478 4.51263
# Velocity P-wave (km/s) = 7.23955 7.52829 7.38533
#
# Compressibility (1/GPa) = 0.01397740
#
# Stress axis : x y z
#
# Youngs Moduli (GPa) = 167.46365 109.45173 122.22945
#
# Poissons Ratio (x) = -0.06587 0.31942
# Poissons Ratio (y) = -0.10079 0.32324
# Poissons Ratio (z) = 0.43762 0.28945
#
# Static dielectric constant tensor:
#      x y z
#    x 2.104820 0.000000 0.000000 
#    y 0.000000 2.325280 0.000000 
#    z 0.000000 0.000000 2.437570 
# 
# From -- ./inp_files/7923.got.cif
#   From: 2010.05.17/outbox.cif.g08.bks.cpg/sg40_4_cif.got.tgz:7923.got - 2010.06.03 18:35:42.
