data_PCOD9365530
_publ_section_title
;
Structure prediction by ZEFSAII (Michael W. Deem and Ramdas Pophale) SiO2 
 PCOD9365530
Probable space group: A M A 2
;
_chemical_formula_sum "Si O2"
_cell_formula_units_Z 32
_cell_length_a 27.261620
_cell_length_b 5.449069
_cell_length_c 8.505918
_cell_angle_alpha 90.000000
_cell_angle_beta 90.000000
_cell_angle_gamma 90.000000
_cell_volume 1263.557933
_symmetry_space_group_name_H-M "A M A 2"
_symmetry_group_IT_number 40
_symmetry_cell_setting 'orthorhombic'
loop_
_space_group_symop_operation_xyz
x,y,z
-x,-y,z
1/2-x,y,z
1/2+x,-y,z
x,1/2+y,1/2+z
-x,1/2-y,1/2+z
1/2-x,1/2+y,1/2+z
1/2+x,1/2-y,1/2+z
loop_
_atom_site_type_symbol
_atom_site_label
_atom_site_fract_x
_atom_site_fract_y
_atom_site_fract_z
Si Si1 0.250000 0.513701 0.283430
Si Si2 0.902864 0.467475 0.838591
Si Si3 0.469131 0.248294 0.609693
Si Si4 0.663645 0.701137 0.095501
Si Si5 0.750000 0.583725 0.597584
O O1 0.299611 0.481307 0.183109
O O2 0.250000 0.309976 0.418888
O O3 0.250000 0.808713 0.272591
O O4 0.933559 0.681195 0.753577
O O5 0.880013 0.292885 0.706503
O O6 0.937456 0.315504 0.955812
O O7 0.859919 0.585812 0.942041
O O8 0.500000 0.500000 0.586245
O O9 0.500000 0.000000 0.641286
O O10 0.700732 0.925795 0.070941
#
# Coordination Sequence:
#
# PCOD9365530 Si02
#       5
#     4   8   8   8   4
#     4  11  24  45  74 103 165 200 256 317 388 461
#     4  12  29  49  86 114 156 204 272 325 393 494
#     4  12  31  58  83 119 162 211 265 344 423 480
#     4  11  27  46  71 120 148 210 259 322 387 465
#     4  11  24  45  74 103 165 200 256 317 388 461
#
# _framework density 25.325313999999999
#
# number of rings (size 3 to 8) (size 9 to 14) (size 15 to 20)
#    0.000    0.500    0.000    5.250   10.500   16.000 
#    0.000    0.000    0.000    0.000    0.000    0.000 
#    0.000    0.000    0.000    0.000    0.000    0.000 
#
# Total GULP energy -89502.130735 kJ/mol
# GULP energy per Si atom -5593.883171 kJ/mol
# Density = 2.526767 g / cm^3
# Si number density = 25.325314 Si / 1000 Ang^3
#
#
#
# Elastic Constant Matrix: (Units=GPa)
#
#
# Indices 1 2 3 4 5 6 
#
# 1 96.7316 34.2906 8.9275 0.0000 0.0000 0.0000
# 2 34.2906 115.2668 28.8310 0.0000 0.0000 0.0000
# 3 8.9275 28.8310 80.0552 0.0000 0.0000 0.0000
# 4 0.0000 0.0000 0.0000 98.6328 0.0000 0.0000
# 5 0.0000 0.0000 0.0000 0.0000 54.4134 0.0000
# 6 0.0000 0.0000 0.0000 0.0000 0.0000 4.1667
#
#
#
# Elastic Compliance Matrix: (Units=1/GPa)
#
#
# Indices 1 2 3 4 5 6 
#
# 1 0.011557 -0.003424 -0.000056 0.000000 0.000000 0.000000
# 2 -0.003424 0.010549 -0.003417 0.000000 0.000000 0.000000
# 3 -0.000056 -0.003417 0.013728 0.000000 0.000000 0.000000
# 4 0.000000 0.000000 0.000000 0.010139 0.000000 0.000000
# 5 0.000000 0.000000 0.000000 0.000000 0.018378 0.000000
# 6 0.000000 0.000000 0.000000 0.000000 0.000000 0.239999
#
#
# Mechanical properties :
#
#
# Convention : Reuss Voigt Hill
#
# Bulk Modulus (GPa) = 45.37192 48.46132 46.91662
# Shear Modulus (GPa) = 15.36144 46.10954 30.73549
#
# Velocity S-wave (km/s) = 2.46553 4.27158 3.48749
# Velocity P-wave (km/s) = 5.10486 6.59588 5.89768
#
# Compressibility (1/GPa) = 0.02204006
#
# Stress axis : x y z
#
# Youngs Moduli (GPa) = 86.52888 94.79668 72.84241
#
# Poissons Ratio (x) = 0.32459 0.00405
# Poissons Ratio (y) = 0.29628 0.24892
# Poissons Ratio (z) = 0.00481 0.32394
#
# Static dielectric constant tensor:
#      x y z
#    x 1.969580 0.000000 0.000000 
#    y 0.000000 1.416240 0.000000 
#    z 0.000000 0.000000 2.147560 
# 
# From -- ./inp_files/3268.got.cif
#   From: 2010.05.17/outbox.cif.g08.bks.cpg/sg40_2_cif.got.tgz:3268.got - 2010.06.03 18:35:42.
