data_PCOD9365779
_publ_section_title
;
Structure prediction by ZEFSAII (Michael W. Deem and Ramdas Pophale) SiO2 
 PCOD9365779
Probable space group: A B A 2
;
_chemical_formula_sum "Si O2"
_cell_formula_units_Z 64
_cell_length_a 10.334715
_cell_length_b 14.410624
_cell_length_c 16.658506
_cell_angle_alpha 90.000000
_cell_angle_beta 90.000000
_cell_angle_gamma 90.000000
_cell_volume 2480.946168
_symmetry_space_group_name_H-M "A B A 2"
_symmetry_group_IT_number 41
_symmetry_cell_setting 'orthorhombic'
loop_
_space_group_symop_operation_xyz
x,y,z
-x,-y,z
1/2-x,y,1/2+z
1/2+x,-y,1/2+z
x,1/2+y,1/2+z
-x,1/2-y,1/2+z
1/2-x,1/2+y,z
1/2+x,1/2-y,z
loop_
_atom_site_type_symbol
_atom_site_label
_atom_site_fract_x
_atom_site_fract_y
_atom_site_fract_z
Si Si1 0.779722 0.390574 0.978750
Si Si2 0.680423 0.174639 0.441502
Si Si3 0.204197 0.178320 0.199734
Si Si4 0.050249 0.640528 0.112254
Si Si5 0.178450 0.534613 0.819034
Si Si6 0.523084 0.334557 0.067148
Si Si7 0.547504 0.669691 0.778876
Si Si8 0.089821 0.851045 0.330653
O O1 0.825216 0.288073 0.947745
O O2 0.762215 0.461883 0.906732
O O3 0.887115 0.424031 0.044026
O O4 0.638651 0.375775 0.015245
O O5 0.612285 0.141307 0.524146
O O6 0.589708 0.138282 0.367479
O O7 0.827696 0.157951 0.412667
O O8 0.316805 0.195116 0.136919
O O9 0.253060 0.097281 0.256906
O O10 0.071427 0.140950 0.157235
O O11 0.167823 0.267603 0.249504
O O12 0.987433 0.613077 0.197722
O O13 0.965140 0.722019 0.073290
O O14 0.167081 0.432092 0.784374
O O15 0.045710 0.592667 0.835965
O O16 0.439769 0.750111 0.795997
#
# Coordination Sequence:
#
# PCOD9365779 Si02
#       8
#     8   8   8   8   8   8   8   8
#     4  10  19  35  58  85 117 151 199 245 300 357
#     4  11  19  31  58  93 113 147 196 256 296 348
#     4   9  17  34  54  80 112 157 196 239 296 360
#     4   9  19  32  56  86 118 149 191 251 302 352
#     4  10  21  38  63  83 115 170 201 243 297 383
#     4   9  20  32  53  87 119 146 189 249 309 349
#     4  10  18  32  57  91 113 149 194 254 296 349
#     4  10  21  36  59  90 121 155 207 241 303 369
#
# _framework density 25.796609
#
# number of rings (size 3 to 8) (size 9 to 14) (size 15 to 20)
#    0.000    2.250    2.500    1.500    3.500    0.000 
#    0.000    0.625   35.750    3.000    0.000    0.000 
#    0.000    0.000    0.000    0.000    0.000    0.000 
#
# Total GULP energy -178246.310836 kJ/mol
# GULP energy per Si atom -5570.197214 kJ/mol
# Density = 2.573790 g / cm^3
# Si number density = 25.796609 Si / 1000 Ang^3
#
#
#
# Elastic Constant Matrix: (Units=GPa)
#
#
# Indices 1 2 3 4 5 6 
#
# 1 66.3038 17.5501 20.0206 0.0000 0.0000 0.0000
# 2 17.5501 71.2139 14.8191 0.0000 0.0000 0.0000
# 3 20.0206 14.8191 114.9177 0.0000 0.0000 0.0000
# 4 0.0000 0.0000 0.0000 1.9369 0.0000 0.0000
# 5 0.0000 0.0000 0.0000 0.0000 48.2593 0.0000
# 6 0.0000 0.0000 0.0000 0.0000 0.0000 22.8432
#
#
#
# Elastic Compliance Matrix: (Units=1/GPa)
#
#
# Indices 1 2 3 4 5 6 
#
# 1 0.016783 -0.003625 -0.002456 0.000000 0.000000 0.000000
# 2 -0.003625 0.015212 -0.001330 0.000000 0.000000 0.000000
# 3 -0.002456 -0.001330 0.009301 0.000000 0.000000 0.000000
# 4 0.000000 0.000000 0.000000 0.516300 0.000000 0.000000
# 5 0.000000 0.000000 0.000000 0.000000 0.020721 0.000000
# 6 0.000000 0.000000 0.000000 0.000000 0.000000 0.043777
#
#
# Mechanical properties :
#
#
# Convention : Reuss Voigt Hill
#
# Bulk Modulus (GPa) = 37.77311 39.69054 38.73183
# Shear Modulus (GPa) = 7.74302 27.94426 17.84364
#
# Velocity S-wave (km/s) = 1.73438 3.29485 2.63288
# Velocity P-wave (km/s) = 4.32264 5.46755 4.92845
#
# Compressibility (1/GPa) = 0.02647386
#
# Stress axis : x y z
#
# Youngs Moduli (GPa) = 59.58301 65.73613 107.51106
#
# Poissons Ratio (x) = 0.23829 0.26410
# Poissons Ratio (y) = 0.21598 0.14301
# Poissons Ratio (z) = 0.14636 0.08744
#
# Static dielectric constant tensor:
#      x y z
#    x 2.133510 0.000000 0.000000 
#    y 0.000000 2.025170 0.000000 
#    z 0.000000 0.000000 2.113220 
# 
# From -- ./inp_files/10179.got.cif
#   From: 2010.05.17/outbox.cif.g08.bks.cpg/sg41_6_cif.got.tgz:10179.got - 2010.06.03 18:54:24.
