data_PCOD9365228
_publ_section_title
;
Structure prediction by ZEFSAII (Michael W. Deem and Ramdas Pophale) SiO2 
 PCOD9365228
Probable space group: A M A 2
;
_chemical_formula_sum "Si O2"
_cell_formula_units_Z 32
_cell_length_a 13.111089
_cell_length_b 13.621411
_cell_length_c 6.734816
_cell_angle_alpha 90.000000
_cell_angle_beta 90.000000
_cell_angle_gamma 90.000000
_cell_volume 1202.781107
_symmetry_space_group_name_H-M "A M A 2"
_symmetry_group_IT_number 40
_symmetry_cell_setting 'orthorhombic'
loop_
_space_group_symop_operation_xyz
x,y,z
-x,-y,z
1/2-x,y,z
1/2+x,-y,z
x,1/2+y,1/2+z
-x,1/2-y,1/2+z
1/2-x,1/2+y,1/2+z
1/2+x,1/2-y,1/2+z
loop_
_atom_site_type_symbol
_atom_site_label
_atom_site_fract_x
_atom_site_fract_y
_atom_site_fract_z
Si Si1 0.921016 0.806935 0.652450
Si Si2 0.750000 0.301601 0.492349
Si Si3 0.250000 0.616996 0.902908
Si Si4 0.633195 0.103468 0.106564
Si Si5 0.000000 0.500000 0.310871
Si Si6 0.750000 0.081994 0.485211
O O1 0.846344 0.804255 0.844378
O O2 0.852859 0.829009 0.460962
O O3 0.947585 0.693103 0.616117
O O4 0.992758 0.899523 0.686949
O O5 0.750000 0.382367 0.664305
O O6 0.750000 0.134875 0.049882
O O7 0.250000 0.526932 0.067249
O O8 0.750000 0.188758 0.579362
O O9 0.593618 0.021936 0.958549
O O10 0.653704 0.072734 0.333353
#
# Coordination Sequence:
#
# PCOD9365228 Si02
#       6
#     8   4   4   8   4   4
#     4  10  23  44  63 103 138 173 239 274 343 429
#     4   9  19  41  70  90 136 184 217 282 343 399
#     4  11  19  37  70  98 130 182 227 276 339 415
#     4   9  21  46  68  98 139 183 226 280 348 412
#     4  12  24  42  72 104 146 184 224 306 342 398
#     4   8  18  38  68 102 124 182 238 262 342 432
#
# _framework density 26.605004999999998
#
# number of rings (size 3 to 8) (size 9 to 14) (size 15 to 20)
#    0.750    1.500    2.500    1.500    3.500    2.000 
#   18.000    1.250    0.000    0.000    0.000    0.000 
#    0.000    0.000    0.000    0.000    0.000    0.000 
#
# Total GULP energy -89221.585829 kJ/mol
# GULP energy per Si atom -5576.349114 kJ/mol
# Density = 2.654445 g / cm^3
# Si number density = 26.605005 Si / 1000 Ang^3
#
#
#
# Elastic Constant Matrix: (Units=GPa)
#
#
# Indices 1 2 3 4 5 6 
#
# 1 47.8441 1.2617 36.5116 0.0000 0.0000 0.0000
# 2 1.2617 104.1349 10.5504 0.0000 0.0000 0.0000
# 3 36.5116 10.5504 92.3295 0.0000 0.0000 0.0000
# 4 0.0000 0.0000 0.0000 36.1574 0.0000 0.0000
# 5 0.0000 0.0000 0.0000 0.0000 32.6419 0.0000
# 6 0.0000 0.0000 0.0000 0.0000 0.0000 33.2287
#
#
#
# Elastic Compliance Matrix: (Units=1/GPa)
#
#
# Indices 1 2 3 4 5 6 
#
# 1 0.030009 0.000849 -0.011964 0.000000 0.000000 0.000000
# 2 0.000849 0.009739 -0.001448 0.000000 0.000000 0.000000
# 3 -0.011964 -0.001448 0.015727 0.000000 0.000000 0.000000
# 4 0.000000 0.000000 0.000000 0.027657 0.000000 0.000000
# 5 0.000000 0.000000 0.000000 0.000000 0.030635 0.000000
# 6 0.000000 0.000000 0.000000 0.000000 0.000000 0.030094
#
#
# Mechanical properties :
#
#
# Convention : Reuss Voigt Hill
#
# Bulk Modulus (GPa) = 32.95110 37.88397 35.41754
# Shear Modulus (GPa) = 27.91638 33.47127 30.69383
#
# Velocity S-wave (km/s) = 3.24279 3.55079 3.40028
# Velocity P-wave (km/s) = 5.14131 5.57505 5.36257
#
# Compressibility (1/GPa) = 0.03034800
#
# Stress axis : x y z
#
# Youngs Moduli (GPa) = 33.32337 102.67572 63.58319
#
# Poissons Ratio (x) = -0.08712 0.76071
# Poissons Ratio (y) = -0.02828 0.09210
# Poissons Ratio (z) = 0.39868 0.14872
#
# Static dielectric constant tensor:
#      x y z
#    x 2.136410 0.000000 0.000000 
#    y 0.000000 2.150270 0.000000 
#    z 0.000000 0.000000 2.032370 
# 
# From -- ./inp_files/1665.got.cif
#   From: 2010.05.17/outbox.cif.g08.bks.cpg/sg40_1_cif.got.tgz:1665.got - 2010.06.03 18:35:42.
