data_PCOD9365989
_publ_section_title
;
Structure prediction by ZEFSAII (Michael W. Deem and Ramdas Pophale) SiO2 
 PCOD9365989
Probable space group: A B A 2
;
_chemical_formula_sum "Si O2"
_cell_formula_units_Z 48
_cell_length_a 12.707799
_cell_length_b 4.836843
_cell_length_c 33.342298
_cell_angle_alpha 90.000000
_cell_angle_beta 90.000000
_cell_angle_gamma 90.000000
_cell_volume 2049.405307
_symmetry_space_group_name_H-M "A B A 2"
_symmetry_group_IT_number 41
_symmetry_cell_setting 'orthorhombic'
loop_
_space_group_symop_operation_xyz
x,y,z
-x,-y,z
1/2-x,y,1/2+z
1/2+x,-y,1/2+z
x,1/2+y,1/2+z
-x,1/2-y,1/2+z
1/2-x,1/2+y,z
1/2+x,1/2-y,z
loop_
_atom_site_type_symbol
_atom_site_label
_atom_site_fract_x
_atom_site_fract_y
_atom_site_fract_z
Si Si1 0.678019 0.085967 0.015050
Si Si2 0.825990 0.733491 0.835107
Si Si3 0.934762 0.261835 0.087188
Si Si4 0.825479 0.777558 0.746612
Si Si5 0.000000 0.000000 0.892538
Si Si6 0.680599 0.574058 0.165330
Si Si7 0.000000 0.000000 0.449451
O O1 0.783988 0.901616 0.014608
O O2 0.620892 0.948739 0.053460
O O3 0.598778 0.060812 0.978131
O O4 0.777721 0.428246 0.839320
O O5 0.875341 0.741553 0.790213
O O6 0.910818 0.852871 0.865747
O O7 0.865289 0.130244 0.121855
O O8 0.000000 0.500000 0.109535
O O9 0.000000 0.000000 0.069954
O O10 0.720285 0.585526 0.746924
O O11 0.879954 0.681647 0.705222
O O12 0.964228 0.245747 0.921789
O O13 0.712773 0.256654 0.167180
#
# Coordination Sequence:
#
# PCOD9365989 Si02
#       7
#     8   8   8   8   4   8   4
#     4  12  26  46  72  96 128 178 217 265 341 399
#     4  10  21  40  65  93 129 170 213 262 321 389
#     4  12  24  40  63  93 136 168 215 277 321 382
#     4   8  16  32  58  85 120 164 207 259 305 365
#     4  12  26  42  68  97 130 169 210 274 340 392
#     4  10  19  36  60  89 123 168 220 258 312 381
#     4  12  28  46  66  99 134 159 218 286 322 408
#
# _framework density 23.421429
#
# number of rings (size 3 to 8) (size 9 to 14) (size 15 to 20)
#    0.000    1.333    0.833    5.000    1.167    4.000 
#    1.500    0.000    1.833    0.000    0.000    0.000 
#    0.000    0.000    0.000    0.000    0.000    0.000 
#
# Total GULP energy -133960.663706 kJ/mol
# GULP energy per Si atom -5581.694321 kJ/mol
# Density = 2.336812 g / cm^3
# Si number density = 23.421429 Si / 1000 Ang^3
#
#
#
# Elastic Constant Matrix: (Units=GPa)
#
#
# Indices 1 2 3 4 5 6 
#
# 1 32.0659 -4.3586 20.4135 0.0000 0.0000 0.0000
# 2 -4.3586 68.0393 -14.3457 0.0000 0.0000 0.0000
# 3 20.4135 -14.3457 111.8949 0.0000 0.0000 0.0000
# 4 0.0000 0.0000 0.0000 43.3395 0.0000 0.0000
# 5 0.0000 0.0000 0.0000 0.0000 15.3381 0.0000
# 6 0.0000 0.0000 0.0000 0.0000 0.0000 30.8599
#
#
#
# Elastic Compliance Matrix: (Units=1/GPa)
#
#
# Indices 1 2 3 4 5 6 
#
# 1 0.035341 0.000930 -0.006328 0.000000 0.000000 0.000000
# 2 0.000930 0.015130 0.001770 0.000000 0.000000 0.000000
# 3 -0.006328 0.001770 0.010318 0.000000 0.000000 0.000000
# 4 0.000000 0.000000 0.000000 0.023074 0.000000 0.000000
# 5 0.000000 0.000000 0.000000 0.000000 0.065197 0.000000
# 6 0.000000 0.000000 0.000000 0.000000 0.000000 0.032405
#
#
# Mechanical properties :
#
#
# Convention : Reuss Voigt Hill
#
# Bulk Modulus (GPa) = 18.68019 23.93539 21.30779
# Shear Modulus (GPa) = 24.20540 31.92689 28.06615
#
# Velocity S-wave (km/s) = 3.21825 3.69609 3.46542
# Velocity P-wave (km/s) = 4.66932 5.33445 5.01293
#
# Compressibility (1/GPa) = 0.05353264
#
# Stress axis : x y z
#
# Youngs Moduli (GPa) = 28.29599 66.09308 96.91437
#
# Poissons Ratio (x) = -0.06145 0.61329
# Poissons Ratio (y) = -0.02631 -0.17156
# Poissons Ratio (z) = 0.17906 -0.11700
#
# Static dielectric constant tensor:
#      x y z
#    x 1.952250 0.000000 0.000000 
#    y 0.000000 1.844920 0.000000 
#    z 0.000000 0.000000 1.936010 
# 
# From -- ./inp_files/12728.got.cif
#   From: 2010.05.17/outbox.cif.g08.bks.cpg/sg41_7_cif.got.tgz:12728.got - 2010.06.03 18:54:24.
