data_PCOD9365995
_publ_section_title
;
Structure prediction by ZEFSAII (Michael W. Deem and Ramdas Pophale) SiO2 
 PCOD9365995
Probable space group: A B A 2
;
_chemical_formula_sum "Si O2"
_cell_formula_units_Z 48
_cell_length_a 11.486861
_cell_length_b 9.797089
_cell_length_c 19.192873
_cell_angle_alpha 90.000000
_cell_angle_beta 90.000000
_cell_angle_gamma 90.000000
_cell_volume 2159.923694
_symmetry_space_group_name_H-M "A B A 2"
_symmetry_group_IT_number 41
_symmetry_cell_setting 'orthorhombic'
loop_
_space_group_symop_operation_xyz
x,y,z
-x,-y,z
1/2-x,y,1/2+z
1/2+x,-y,1/2+z
x,1/2+y,1/2+z
-x,1/2-y,1/2+z
1/2-x,1/2+y,z
1/2+x,1/2-y,z
loop_
_atom_site_type_symbol
_atom_site_label
_atom_site_fract_x
_atom_site_fract_y
_atom_site_fract_z
Si Si1 0.114387 0.907037 0.338870
Si Si2 0.094569 0.301260 0.109260
Si Si3 0.693164 0.530695 0.943064
Si Si4 0.081354 0.370385 0.687540
Si Si5 0.513859 0.784431 0.457855
Si Si6 0.249041 0.030943 0.592977
O O1 0.227208 0.974831 0.374890
O O2 0.144249 0.850391 0.261689
O O3 0.068026 0.799965 0.395061
O O4 0.000000 0.000000 0.333923
O O5 0.137381 0.454511 0.125008
O O6 0.999890 0.252819 0.164900
O O7 0.199179 0.182269 0.108604
O O8 0.036323 0.283970 0.032880
O O9 0.594443 0.417903 0.953128
O O10 0.620973 0.672694 0.947786
O O11 0.768756 0.499777 0.011500
O O12 0.153512 0.426153 0.621943
O O13 0.000000 0.500000 0.699506
#
# Coordination Sequence:
#
# PCOD9365995 Si02
#       6
#     8   8   8   8   8   8
#     4  11  24  38  62  94 124 163 211 262 313 379
#     4  10  19  37  63  91 122 158 208 248 313 372
#     4  10  21  39  62  88 122 164 208 255 315 371
#     4   9  20  40  58  84 123 166 197 241 320 374
#     4  10  21  38  62  89 124 164 203 260 314 372
#     4  10  19  36  62  88 114 162 202 249 297 371
#
# _framework density 22.223008
#
# number of rings (size 3 to 8) (size 9 to 14) (size 15 to 20)
#    0.000    2.000    3.333    0.000    2.333    1.333 
#    6.000    0.833    0.000    0.000    0.000    0.000 
#    0.000    0.000    0.000    0.000    0.000    0.000 
#
# Total GULP energy -133661.209937 kJ/mol
# GULP energy per Si atom -5569.217081 kJ/mol
# Density = 2.217243 g / cm^3
# Si number density = 22.223008 Si / 1000 Ang^3
#
#
#
# Elastic Constant Matrix: (Units=GPa)
#
#
# Indices 1 2 3 4 5 6 
#
# 1 52.0798 8.4720 0.2047 0.0000 0.0000 0.0000
# 2 8.4720 36.0445 8.8657 0.0000 0.0000 0.0000
# 3 0.2047 8.8657 95.5718 0.0000 0.0000 0.0000
# 4 0.0000 0.0000 0.0000 6.2737 0.0000 0.0000
# 5 0.0000 0.0000 0.0000 0.0000 -1.7490 0.0000
# 6 0.0000 0.0000 0.0000 0.0000 0.0000 13.2530
#
#
#
# Elastic Compliance Matrix: (Units=1/GPa)
#
#
# Indices 1 2 3 4 5 6 
#
# 1 0.019980 -0.004795 0.000402 0.000000 0.000000 0.000000
# 2 -0.004795 0.029542 -0.002730 0.000000 0.000000 0.000000
# 3 0.000402 -0.002730 0.010716 0.000000 0.000000 0.000000
# 4 0.000000 0.000000 0.000000 0.159396 0.000000 0.000000
# 5 0.000000 0.000000 0.000000 0.000000 -0.571767 0.000000
# 6 0.000000 0.000000 0.000000 0.000000 0.000000 0.075455
#
#
# Mechanical properties :
#
#
# Convention : Reuss Voigt Hill
#
# Bulk Modulus (GPa) = 21.74329 24.30900 23.02615
# Shear Modulus (GPa) = -20.23457 14.63243 -2.80107
#
# Velocity S-wave (km/s) = -3.02076 2.56879 -1.12391
# Velocity P-wave (km/s) = 1.53665 4.44529 2.94952
#
# Compressibility (1/GPa) = 0.04599120
#
# Stress axis : x y z
#
# Youngs Moduli (GPa) = 50.05064 33.85000 93.32064
#
# Poissons Ratio (x) = 0.16231 -0.03752
# Poissons Ratio (y) = 0.23999 0.25478
# Poissons Ratio (z) = -0.02012 0.09242
#
# Static dielectric constant tensor:
#      x y z
#    x 1.984130 0.000000 0.000000 
#    y 0.000000 1.802480 0.000000 
#    z 0.000000 0.000000 1.901340 
# 
# From -- ./inp_files/9963.got.cif
#   From: 2010.05.17/outbox.cif.g08.bks.cpg/sg41_5_cif.got.tgz:9963.got - 2010.06.03 18:54:24.
