data_PCOD9365790
_publ_section_title
;
Structure prediction by ZEFSAII (Michael W. Deem and Ramdas Pophale) SiO2 
 PCOD9365790
Probable space group: A B A 2
;
_chemical_formula_sum "Si O2"
_cell_formula_units_Z 64
_cell_length_a 16.382739
_cell_length_b 22.096127
_cell_length_c 8.670838
_cell_angle_alpha 90.000000
_cell_angle_beta 90.000000
_cell_angle_gamma 90.000000
_cell_volume 3138.800709
_symmetry_space_group_name_H-M "A B A 2"
_symmetry_group_IT_number 41
_symmetry_cell_setting 'orthorhombic'
loop_
_space_group_symop_operation_xyz
x,y,z
-x,-y,z
1/2-x,y,1/2+z
1/2+x,-y,1/2+z
x,1/2+y,1/2+z
-x,1/2-y,1/2+z
1/2-x,1/2+y,z
1/2+x,1/2-y,z
loop_
_atom_site_type_symbol
_atom_site_label
_atom_site_fract_x
_atom_site_fract_y
_atom_site_fract_z
Si Si1 0.551508 0.092992 0.979690
Si Si2 0.417160 0.068476 0.556945
Si Si3 0.162762 0.682267 0.228665
Si Si4 0.484698 0.869214 0.320456
Si Si5 0.086125 0.266461 0.516901
Si Si6 0.608833 0.976648 0.860739
Si Si7 0.976804 0.319612 0.760648
Si Si8 0.244070 0.612302 0.956439
O O1 0.464377 0.059524 0.946313
O O2 0.549361 0.147807 0.857084
O O3 0.616818 0.041514 0.940193
O O4 0.551270 0.113792 0.155265
O O5 0.485158 0.074319 0.424741
O O6 0.415403 0.015288 0.681714
O O7 0.432586 0.128220 0.663939
O O8 0.327780 0.077039 0.488169
O O9 0.071371 0.665828 0.288470
O O10 0.226387 0.672748 0.366637
O O11 0.156606 0.744931 0.134091
O O12 0.194175 0.632353 0.106672
O O13 0.422212 0.828121 0.419436
O O14 0.075142 0.213397 0.391703
O O15 0.009123 0.273161 0.633202
O O16 0.686700 0.933840 0.866163
#
# Coordination Sequence:
#
# PCOD9365790 Si02
#       8
#     8   8   8   8   8   8   8   8
#     4  10  19  34  55  82 116 151 195 250 297 349
#     4   9  20  33  55  82 119 147 185 244 299 361
#     4  11  20  33  54  88 118 151 191 244 300 356
#     4  10  19  34  55  86 118 150 195 246 298 367
#     4  11  19  32  56  85 120 152 192 241 316 347
#     4  10  19  35  55  81 114 155 190 242 309 346
#     4  10  18  33  53  85 118 149 189 244 301 356
#     4  11  20  34  56  86 119 144 193 244 300 363
#
# _framework density 20.389952999999998
#
# number of rings (size 3 to 8) (size 9 to 14) (size 15 to 20)
#    0.000    1.750    5.000    0.750    0.000    0.000 
#    0.000    7.500    0.000    0.000    9.750    0.000 
#    0.000    0.000    0.000    0.000    0.000    0.000 
#
# Total GULP energy -178264.010240 kJ/mol
# GULP energy per Si atom -5570.750320 kJ/mol
# Density = 2.034354 g / cm^3
# Si number density = 20.389953 Si / 1000 Ang^3
#
#
#
# Elastic Constant Matrix: (Units=GPa)
#
#
# Indices 1 2 3 4 5 6 
#
# 1 45.0940 14.6277 15.6426 0.0000 0.0000 0.0000
# 2 14.6277 33.9860 16.6355 0.0000 0.0000 0.0000
# 3 15.6426 16.6355 101.9311 0.0000 0.0000 0.0000
# 4 0.0000 0.0000 0.0000 26.4725 0.0000 0.0000
# 5 0.0000 0.0000 0.0000 0.0000 18.2175 0.0000
# 6 0.0000 0.0000 0.0000 0.0000 0.0000 24.8833
#
#
#
# Elastic Compliance Matrix: (Units=1/GPa)
#
#
# Indices 1 2 3 4 5 6 
#
# 1 0.026294 -0.010153 -0.002378 0.000000 0.000000 0.000000
# 2 -0.010153 0.035899 -0.004301 0.000000 0.000000 0.000000
# 3 -0.002378 -0.004301 0.010877 0.000000 0.000000 0.000000
# 4 0.000000 0.000000 0.000000 0.037775 0.000000 0.000000
# 5 0.000000 0.000000 0.000000 0.000000 0.054892 0.000000
# 6 0.000000 0.000000 0.000000 0.000000 0.000000 0.040188
#
#
# Mechanical properties :
#
#
# Convention : Reuss Voigt Hill
#
# Bulk Modulus (GPa) = 25.37637 30.53583 27.95610
# Shear Modulus (GPa) = 19.78435 22.85503 21.31969
#
# Velocity S-wave (km/s) = 3.11834 3.35161 3.23708
# Velocity P-wave (km/s) = 5.04360 5.47596 5.26422
#
# Compressibility (1/GPa) = 0.03940674
#
# Stress axis : x y z
#
# Youngs Moduli (GPa) = 38.03102 27.85598 91.93370
#
# Poissons Ratio (x) = 0.28282 0.21863
# Poissons Ratio (y) = 0.38613 0.39538
# Poissons Ratio (z) = 0.09044 0.11980
#
# Static dielectric constant tensor:
#      x y z
#    x 1.720810 0.000000 0.000000 
#    y 0.000000 1.797940 0.000000 
#    z 0.000000 0.000000 1.783640 
# 
# From -- ./inp_files/3226.got.cif
#   From: 2010.05.17/outbox.cif.g08.bks.cpg/sg41_2_cif.got.tgz:3226.got - 2010.06.03 18:54:24.
