data_PCOD9365242
_publ_section_title
;
Structure prediction by ZEFSAII (Michael W. Deem and Ramdas Pophale) SiO2 
 PCOD9365242
Probable space group: A M A 2
;
_chemical_formula_sum "Si O2"
_cell_formula_units_Z 40
_cell_length_a 10.088339
_cell_length_b 7.601224
_cell_length_c 27.097406
_cell_angle_alpha 90.000000
_cell_angle_beta 90.000000
_cell_angle_gamma 90.000000
_cell_volume 2077.930017
_symmetry_space_group_name_H-M "A M A 2"
_symmetry_group_IT_number 40
_symmetry_cell_setting 'orthorhombic'
loop_
_space_group_symop_operation_xyz
x,y,z
-x,-y,z
1/2-x,y,z
1/2+x,-y,z
x,1/2+y,1/2+z
-x,1/2-y,1/2+z
1/2-x,1/2+y,1/2+z
1/2+x,1/2-y,1/2+z
loop_
_atom_site_type_symbol
_atom_site_label
_atom_site_fract_x
_atom_site_fract_y
_atom_site_fract_z
Si Si1 0.905796 0.829702 0.803830
Si Si2 0.409094 0.677293 0.416196
Si Si3 0.250000 0.323421 0.630949
Si Si4 0.000000 0.500000 0.983724
Si Si5 0.491208 0.212949 0.700117
Si Si6 0.250000 0.517711 0.055101
Si Si7 0.250000 0.214659 0.138840
O O1 0.750000 0.873085 0.794457
O O2 0.914111 0.755989 0.859141
O O3 0.959382 0.727377 0.755958
O O4 0.000000 0.000000 0.805963
O O5 0.500000 0.500000 0.420350
O O6 0.250000 0.646258 0.426720
O O7 0.471136 0.828407 0.450387
O O8 0.375244 0.277349 0.664726
O O9 0.250000 0.524117 0.614537
O O10 0.250000 0.197924 0.584636
O O11 0.124346 0.512662 0.019872
O O12 0.625412 0.273842 0.675109
O O13 0.500000 0.000000 0.700557
O O14 0.250000 0.365082 0.097051
#
# Coordination Sequence:
#
# PCOD9365242 Si02
#       7
#     8   8   4   4   8   4   4
#     4   9  19  36  64  98 134 176 215 259 330 399
#     4  10  23  45  70 101 137 172 223 282 334 402
#     4  12  24  44  67  93 129 171 224 276 326 395
#     4  12  26  46  72  96 130 180 230 280 344 392
#     4  11  20  40  66  95 135 179 210 265 331 392
#     4  12  26  46  68  94 130 178 228 284 340 386
#     4  12  26  42  65  95 133 173 222 278 328 395
#
# _framework density 19.249928000000001
#
# number of rings (size 3 to 8) (size 9 to 14) (size 15 to 20)
#    0.000    1.200    4.000    1.800    5.600    1.600 
#    3.600    0.000    0.000    0.000    0.000    0.000 
#    0.000    0.000    0.000    0.000    0.000    0.000 
#
# Total GULP energy -111592.445963 kJ/mol
# GULP energy per Si atom -5579.622298 kJ/mol
# Density = 1.920611 g / cm^3
# Si number density = 19.249928 Si / 1000 Ang^3
#
#
#
# Elastic Constant Matrix: (Units=GPa)
#
#
# Indices 1 2 3 4 5 6 
#
# 1 190.7384 44.8185 91.5965 0.0000 0.0000 0.0000
# 2 44.8185 114.5871 58.9688 0.0000 0.0000 0.0000
# 3 91.5965 58.9688 153.5236 0.0000 0.0000 0.0000
# 4 0.0000 0.0000 0.0000 -16.1437 0.0000 0.0000
# 5 0.0000 0.0000 0.0000 0.0000 50.6114 0.0000
# 6 0.0000 0.0000 0.0000 0.0000 0.0000 11.7216
#
#
#
# Elastic Compliance Matrix: (Units=1/GPa)
#
#
# Indices 1 2 3 4 5 6 
#
# 1 0.007403 -0.000776 -0.004119 0.000000 0.000000 0.000000
# 2 -0.000776 0.010958 -0.003746 0.000000 0.000000 0.000000
# 3 -0.004119 -0.003746 0.010410 0.000000 0.000000 0.000000
# 4 0.000000 0.000000 0.000000 -0.061944 0.000000 0.000000
# 5 0.000000 0.000000 0.000000 0.000000 0.019758 0.000000
# 6 0.000000 0.000000 0.000000 0.000000 0.000000 0.085313
#
#
# Mechanical properties :
#
#
# Convention : Reuss Voigt Hill
#
# Bulk Modulus (GPa) = 87.03608 94.40184 90.71896
# Shear Modulus (GPa) = 53.75732 26.80221 40.27977
#
# Velocity S-wave (km/s) = 5.29024 3.73544 4.57931
# Velocity P-wave (km/s) = 9.08996 8.23111 8.67118
#
# Compressibility (1/GPa) = 0.01148949
#
# Stress axis : x y z
#
# Youngs Moduli (GPa) = 135.07943 91.25472 96.06164
#
# Poissons Ratio (x) = 0.07081 0.39566
# Poissons Ratio (y) = 0.10481 0.35986
# Poissons Ratio (z) = 0.55637 0.34186
#
# Static dielectric constant tensor:
#      x y z
#    x 1.587180 0.000000 0.000000 
#    y 0.000000 1.675020 0.000000 
#    z 0.000000 0.000000 1.683800 
# 
# From -- ./inp_files/23879.got.cif
#   From: 2010.05.17/outbox.cif.g08.bks.cpg/sg40_12_cif.got.tgz:23879.got - 2010.06.03 18:35:42.
