data_PCOD9365893
_publ_section_title
;
Structure prediction by ZEFSAII (Michael W. Deem and Ramdas Pophale) SiO2 
 PCOD9365893
Probable space group: A B A 2
;
_chemical_formula_sum "Si O2"
_cell_formula_units_Z 40
_cell_length_a 18.748787
_cell_length_b 17.777854
_cell_length_c 5.299597
_cell_angle_alpha 90.000000
_cell_angle_beta 90.000000
_cell_angle_gamma 90.000000
_cell_volume 1766.425624
_symmetry_space_group_name_H-M "A B A 2"
_symmetry_group_IT_number 41
_symmetry_cell_setting 'orthorhombic'
loop_
_space_group_symop_operation_xyz
x,y,z
-x,-y,z
1/2-x,y,1/2+z
1/2+x,-y,1/2+z
x,1/2+y,1/2+z
-x,1/2-y,1/2+z
1/2-x,1/2+y,z
1/2+x,1/2-y,z
loop_
_atom_site_type_symbol
_atom_site_label
_atom_site_fract_x
_atom_site_fract_y
_atom_site_fract_z
Si Si1 0.432217 0.447295 0.442040
Si Si2 0.793202 0.213099 0.268254
Si Si3 0.455034 0.728672 0.780488
Si Si4 0.287991 0.470021 0.257669
Si Si5 0.979191 0.086436 0.935270
O O1 0.500000 0.500000 0.486578
O O2 0.365882 0.495085 0.346038
O O3 0.419399 0.409415 0.714440
O O4 0.452197 0.391913 0.212766
O O5 0.747885 0.236234 0.513854
O O6 0.873445 0.244613 0.279139
O O7 0.793983 0.121347 0.267673
O O8 0.496086 0.741816 0.514964
O O9 0.458267 0.638744 0.836341
O O10 0.233562 0.492894 0.477760
O O11 0.000000 0.000000 0.972854
#
# Coordination Sequence:
#
# PCOD9365893 Si02
#       5
#     8   8   8   8   8
#     4  10  20  36  58  82 113 154 200 248 294 349
#     4  10  21  36  55  84 121 156 191 242 308 367
#     4  12  23  37  63  96 122 154 208 261 302 353
#     4  10  19  32  53  80 112 149 191 242 300 356
#     4  10  21  37  59  84 115 153 193 239 296 355
#
# _framework density 22.644597000000001
#
# number of rings (size 3 to 8) (size 9 to 14) (size 15 to 20)
#    0.000    1.600    0.000    6.000    0.000    3.200 
#    0.000    0.000    0.000   28.800    0.000    0.000 
#    0.000    0.000    0.000    0.000    0.000    0.000 
#
# Total GULP energy -111651.084447 kJ/mol
# GULP energy per Si atom -5582.554222 kJ/mol
# Density = 2.259306 g / cm^3
# Si number density = 22.644597 Si / 1000 Ang^3
#
#
#
# Elastic Constant Matrix: (Units=GPa)
#
#
# Indices 1 2 3 4 5 6 
#
# 1 140.5270 20.5735 47.7487 0.0000 0.0000 0.0000
# 2 20.5735 52.7288 10.6468 0.0000 0.0000 0.0000
# 3 47.7487 10.6468 193.0011 0.0000 0.0000 0.0000
# 4 0.0000 0.0000 0.0000 21.2164 0.0000 0.0000
# 5 0.0000 0.0000 0.0000 0.0000 36.4502 0.0000
# 6 0.0000 0.0000 0.0000 0.0000 0.0000 31.3441
#
#
#
# Elastic Compliance Matrix: (Units=1/GPa)
#
#
# Indices 1 2 3 4 5 6 
#
# 1 0.008160 -0.002808 -0.001864 0.000000 0.000000 0.000000
# 2 -0.002808 0.020145 -0.000417 0.000000 0.000000 0.000000
# 3 -0.001864 -0.000417 0.005665 0.000000 0.000000 0.000000
# 4 0.000000 0.000000 0.000000 0.047133 0.000000 0.000000
# 5 0.000000 0.000000 0.000000 0.000000 0.027435 0.000000
# 6 0.000000 0.000000 0.000000 0.000000 0.000000 0.031904
#
#
# Mechanical properties :
#
#
# Convention : Reuss Voigt Hill
#
# Bulk Modulus (GPa) = 42.02765 60.46610 51.24687
# Shear Modulus (GPa) = 31.53571 38.28801 34.91186
#
# Velocity S-wave (km/s) = 3.73585 4.11642 3.93075
# Velocity P-wave (km/s) = 6.09990 7.02520 6.57884
#
# Compressibility (1/GPa) = 0.02379386
#
# Stress axis : x y z
#
# Youngs Moduli (GPa) = 122.54179 49.64117 176.50799
#
# Poissons Ratio (x) = 0.13938 0.32902
# Poissons Ratio (y) = 0.34405 0.07354
# Poissons Ratio (z) = 0.22842 0.02068
#
# Static dielectric constant tensor:
#      x y z
#    x 1.855590 0.000000 0.000000 
#    y 0.000000 2.010850 0.000000 
#    z 0.000000 0.000000 1.944800 
# 
# From -- ./inp_files/425.got.cif
#   From: 2010.05.17/outbox.cif.g08.bks.cpg/sg41_1_cif.got.tgz:425.got - 2010.06.03 18:54:24.
