data_PCOD9365326
_publ_section_title
;
Structure prediction by ZEFSAII (Michael W. Deem and Ramdas Pophale) SiO2 
 PCOD9365326
Probable space group: A M A 2
;
_chemical_formula_sum "Si O2"
_cell_formula_units_Z 56
_cell_length_a 22.841944
_cell_length_b 10.868102
_cell_length_c 10.124536
_cell_angle_alpha 90.000000
_cell_angle_beta 90.000000
_cell_angle_gamma 90.000000
_cell_volume 2513.401658
_symmetry_space_group_name_H-M "A M A 2"
_symmetry_group_IT_number 40
_symmetry_cell_setting 'orthorhombic'
loop_
_space_group_symop_operation_xyz
x,y,z
-x,-y,z
1/2-x,y,z
1/2+x,-y,z
x,1/2+y,1/2+z
-x,1/2-y,1/2+z
1/2-x,1/2+y,1/2+z
1/2+x,1/2-y,1/2+z
loop_
_atom_site_type_symbol
_atom_site_label
_atom_site_fract_x
_atom_site_fract_y
_atom_site_fract_z
Si Si1 0.316939 0.763688 0.710000
Si Si2 0.510451 0.255145 0.953238
Si Si3 0.587803 0.073916 0.580927
Si Si4 0.105224 0.833923 0.162397
Si Si5 0.587198 0.401721 0.332035
Si Si6 0.905496 0.925750 0.319450
Si Si7 0.684887 0.554697 0.463282
O O1 0.250000 0.746193 0.667154
O O2 0.358757 0.832514 0.605779
O O3 0.349547 0.640737 0.757100
O O4 0.315932 0.852466 0.838739
O O5 0.471215 0.143435 0.903066
O O6 0.542664 0.326073 0.833232
O O7 0.468410 0.351075 0.029369
O O8 0.560643 0.207144 0.049002
O O9 0.576542 0.001570 0.716996
O O10 0.604130 0.975441 0.468104
O O11 0.111383 0.721677 0.262769
O O12 0.080579 0.953871 0.235536
O O13 0.165387 0.870737 0.091953
O O14 0.634752 0.455746 0.432324
O O15 0.750000 0.503144 0.474573
#
# Coordination Sequence:
#
# PCOD9365326 Si02
#       7
#     8   8   8   8   8   8   8
#     4  10  24  48  75 100 138 188 240 291 347 414
#     4  12  27  43  66 104 144 181 229 287 350 425
#     4  11  25  45  69 100 139 180 234 288 347 415
#     4  12  27  43  70 104 138 184 228 285 353 414
#     4  11  26  44  71 102 134 184 231 283 353 412
#     4  12  26  44  67 103 141 183 231 284 353 417
#     4  10  24  49  72 100 138 181 234 291 350 416
#
# _framework density 22.280560000000001
#
# number of rings (size 3 to 8) (size 9 to 14) (size 15 to 20)
#    0.000    0.857    4.286    0.429    4.000    4.571 
#    0.000    2.857    0.000    0.000    0.000    0.000 
#    0.000    0.000    0.000    0.000    0.000    0.000 
#
# Total GULP energy -156930.321047 kJ/mol
# GULP energy per Si atom -5604.654323 kJ/mol
# Density = 2.222985 g / cm^3
# Si number density = 22.280560 Si / 1000 Ang^3
#
#
#
# Elastic Constant Matrix: (Units=GPa)
#
#
# Indices 1 2 3 4 5 6 
#
# 1 111.3081 44.7772 15.0667 0.0000 0.0000 0.0000
# 2 44.7772 106.5073 15.4602 0.0000 0.0000 0.0000
# 3 15.0667 15.4602 40.4812 0.0000 0.0000 0.0000
# 4 0.0000 0.0000 0.0000 42.7178 0.0000 0.0000
# 5 0.0000 0.0000 0.0000 0.0000 18.7428 0.0000
# 6 0.0000 0.0000 0.0000 0.0000 0.0000 7.7991
#
#
#
# Elastic Compliance Matrix: (Units=1/GPa)
#
#
# Indices 1 2 3 4 5 6 
#
# 1 0.011042 -0.004283 -0.002474 0.000000 0.000000 0.000000
# 2 -0.004283 0.011601 -0.002837 0.000000 0.000000 0.000000
# 3 -0.002474 -0.002837 0.026707 0.000000 0.000000 0.000000
# 4 0.000000 0.000000 0.000000 0.023409 0.000000 0.000000
# 5 0.000000 0.000000 0.000000 0.000000 0.053354 0.000000
# 6 0.000000 0.000000 0.000000 0.000000 0.000000 0.128220
#
#
# Mechanical properties :
#
#
# Convention : Reuss Voigt Hill
#
# Bulk Modulus (GPa) = 33.15310 45.43386 39.29348
# Shear Modulus (GPa) = 17.63203 26.05145 21.84174
#
# Velocity S-wave (km/s) = 2.81617 3.42313 3.13438
# Velocity P-wave (km/s) = 5.04842 6.00498 5.54736
#
# Compressibility (1/GPa) = 0.03016309
#
# Stress axis : x y z
#
# Youngs Moduli (GPa) = 90.56365 86.19612 37.44343
#
# Poissons Ratio (x) = 0.36919 0.09263
# Poissons Ratio (y) = 0.38789 0.10621
# Poissons Ratio (z) = 0.22405 0.24450
#
# Static dielectric constant tensor:
#      x y z
#    x 1.783800 0.000000 0.000000 
#    y 0.000000 1.832130 0.000000 
#    z 0.000000 0.000000 1.826120 
# 
# From -- ./inp_files/13544.got.cif
#   From: 2010.05.17/outbox.cif.g08.bks.cpg/sg40_7_cif.got.tgz:13544.got - 2010.06.03 18:35:42.
