data_PCOD9365831
_publ_section_title
;
Structure prediction by ZEFSAII (Michael W. Deem and Ramdas Pophale) SiO2 
 PCOD9365831
Probable space group: A B A 2
;
_chemical_formula_sum "Si O2"
_cell_formula_units_Z 64
_cell_length_a 13.682133
_cell_length_b 16.221296
_cell_length_c 13.923461
_cell_angle_alpha 90.000000
_cell_angle_beta 90.000000
_cell_angle_gamma 90.000000
_cell_volume 3090.199797
_symmetry_space_group_name_H-M "A B A 2"
_symmetry_group_IT_number 41
_symmetry_cell_setting 'orthorhombic'
loop_
_space_group_symop_operation_xyz
x,y,z
-x,-y,z
1/2-x,y,1/2+z
1/2+x,-y,1/2+z
x,1/2+y,1/2+z
-x,1/2-y,1/2+z
1/2-x,1/2+y,z
1/2+x,1/2-y,z
loop_
_atom_site_type_symbol
_atom_site_label
_atom_site_fract_x
_atom_site_fract_y
_atom_site_fract_z
Si Si1 0.665906 0.731377 0.117890
Si Si2 0.211435 0.924759 0.575860
Si Si3 0.663588 0.137105 0.882113
Si Si4 0.711395 0.924680 0.442977
Si Si5 0.163547 0.137191 0.136720
Si Si6 0.780091 0.999949 0.759414
Si Si7 0.999972 0.709483 0.759441
Si Si8 0.834123 0.268563 0.900974
O O1 0.702410 0.636330 0.112829
O O2 0.760472 0.786836 0.141644
O O3 0.582754 0.752337 0.194838
O O4 0.633130 0.749978 0.009438
O O5 0.149708 0.877327 0.495866
O O6 0.250029 0.000035 0.509418
O O7 0.162061 0.955061 0.673853
O O8 0.561766 0.156147 0.833864
O O9 0.739601 0.213059 0.877187
O O10 0.713650 0.063378 0.821164
O O11 0.649667 0.877246 0.522967
O O12 0.662040 0.954973 0.344971
O O13 0.797563 0.863596 0.406025
O O14 0.213651 0.063482 0.197669
O O15 0.061722 0.156191 0.184985
O O16 0.082679 0.752347 0.824056
#
# Coordination Sequence:
#
# PCOD9365831 Si02
#       8
#     8   8   8   8   8   8   8   8
#     4  10  22  41  61  91 129 168 217 263 328 389
#     4   9  19  37  59  90 120 168 208 259 317 390
#     4  10  22  38  62  92 125 166 215 267 324 384
#     4   9  19  37  59  90 120 168 208 259 317 390
#     4  10  22  38  62  92 125 166 215 267 324 384
#     4  10  18  37  64  87 124 170 204 253 330 387
#     4  12  22  37  64  99 122 166 214 284 308 387
#     4  10  22  41  61  91 129 168 217 263 328 389
#
# _framework density 20.710636000000001
#
# number of rings (size 3 to 8) (size 9 to 14) (size 15 to 20)
#    0.000    2.000    2.500    0.750    0.000    3.500 
#    0.000    0.000    0.000    3.750    0.000    0.000 
#    0.000    0.000    0.000    0.000    0.000    0.000 
#
# Total GULP energy -178194.347188 kJ/mol
# GULP energy per Si atom -5568.573350 kJ/mol
# Density = 2.066350 g / cm^3
# Si number density = 20.710636 Si / 1000 Ang^3
#
#
#
# Elastic Constant Matrix: (Units=GPa)
#
#
# Indices 1 2 3 4 5 6 
#
# 1 69.1987 13.8213 54.3192 0.0000 0.0000 0.0000
# 2 13.8213 71.8500 26.3228 0.0000 0.0000 0.0000
# 3 54.3192 26.3228 196.8434 0.0000 0.0000 0.0000
# 4 0.0000 0.0000 0.0000 10.9118 0.0000 0.0000
# 5 0.0000 0.0000 0.0000 0.0000 39.6714 0.0000
# 6 0.0000 0.0000 0.0000 0.0000 0.0000 -11.5610
#
#
#
# Elastic Compliance Matrix: (Units=1/GPa)
#
#
# Indices 1 2 3 4 5 6 
#
# 1 0.018664 -0.001791 -0.004911 0.000000 0.000000 0.000000
# 2 -0.001791 0.014807 -0.001486 0.000000 0.000000 0.000000
# 3 -0.004911 -0.001486 0.006634 0.000000 0.000000 0.000000
# 4 0.000000 0.000000 0.000000 0.091644 0.000000 0.000000
# 5 0.000000 0.000000 0.000000 0.000000 0.025207 0.000000
# 6 0.000000 0.000000 0.000000 0.000000 0.000000 -0.086498
#
#
# Mechanical properties :
#
#
# Convention : Reuss Voigt Hill
#
# Bulk Modulus (GPa) = 42.14222 58.53539 50.33880
# Shear Modulus (GPa) = 52.77442 24.03302 38.40372
#
# Velocity S-wave (km/s) = 5.05343 3.41019 4.31083
# Velocity P-wave (km/s) = 7.37847 6.62047 7.00972
#
# Compressibility (1/GPa) = 0.02372917
#
# Stress axis : x y z
#
# Youngs Moduli (GPa) = 53.57990 67.53673 150.73873
#
# Poissons Ratio (x) = 0.12097 0.74024
# Poissons Ratio (y) = 0.09597 0.22396
# Poissons Ratio (z) = 0.26312 0.10034
#
# Static dielectric constant tensor:
#      x y z
#    x 1.690500 0.000000 0.000000 
#    y 0.000000 1.861430 0.000000 
#    z 0.000000 0.000000 1.795960 
# 
# From -- ./inp_files/8098.got.cif
#   From: 2010.05.17/outbox.cif.g08.bks.cpg/sg41_5_cif.got.tgz:8098.got - 2010.06.03 18:54:24.
