data_PCOD9365280
_publ_section_title
;
Structure prediction by ZEFSAII (Michael W. Deem and Ramdas Pophale) SiO2 
 PCOD9365280
Probable space group: A M A 2
;
_chemical_formula_sum "Si O2"
_cell_formula_units_Z 64
_cell_length_a 30.433107
_cell_length_b 18.768787
_cell_length_c 5.056855
_cell_angle_alpha 90.000000
_cell_angle_beta 90.000000
_cell_angle_gamma 90.000000
_cell_volume 2888.437665
_symmetry_space_group_name_H-M "A M A 2"
_symmetry_group_IT_number 40
_symmetry_cell_setting 'orthorhombic'
loop_
_space_group_symop_operation_xyz
x,y,z
-x,-y,z
1/2-x,y,z
1/2+x,-y,z
x,1/2+y,1/2+z
-x,1/2-y,1/2+z
1/2-x,1/2+y,1/2+z
1/2+x,1/2-y,1/2+z
loop_
_atom_site_type_symbol
_atom_site_label
_atom_site_fract_x
_atom_site_fract_y
_atom_site_fract_z
Si Si1 0.077139 0.606513 0.650320
Si Si2 0.470658 0.748177 0.460535
Si Si3 0.838520 0.738579 0.518226
Si Si4 0.543920 0.027626 0.862245
Si Si5 0.417146 0.355687 0.654874
Si Si6 0.867400 0.544595 0.020320
Si Si7 0.133029 0.606478 0.147252
Si Si8 0.699051 0.167939 0.537486
O O1 0.053947 0.678688 0.563262
O O2 0.050667 0.535176 0.578302
O O3 0.119315 0.601340 0.453533
O O4 0.090152 0.611340 0.955821
O O5 0.493457 0.732984 0.179745
O O6 0.437257 0.813009 0.402080
O O7 0.887151 0.702207 0.505340
O O8 0.842075 0.820390 0.598848
O O9 0.814177 0.729073 0.242997
O O10 0.813486 0.694939 0.746209
O O11 0.543705 0.105061 0.000418
O O12 0.500000 0.000000 0.717902
O O13 0.587688 0.034710 0.686429
O O14 0.385427 0.420221 0.749580
O O15 0.846164 0.466583 0.037577
O O16 0.832231 0.602034 0.116188
O O17 0.750000 0.149986 0.554029
#
# Coordination Sequence:
#
# PCOD9365280 Si02
#       8
#     8   8   8   8   8   8   8   8
#     4  11  23  40  58  92 128 176 220 277 326 384
#     4  12  27  40  61  88 131 176 232 286 332 379
#     4  11  23  42  73  98 131 171 217 272 336 405
#     4  11  23  39  61  92 137 179 232 280 327 391
#     4  11  23  42  63  91 128 181 230 278 331 398
#     4  10  24  42  67  96 135 179 227 268 348 401
#     4  11  22  42  66  94 130 173 218 268 330 402
#     4  11  24  45  73 105 134 167 217 277 336 412
#
# _framework density 22.157306999999999
#
# number of rings (size 3 to 8) (size 9 to 14) (size 15 to 20)
#    0.000    1.000    3.750    2.625    5.250    0.500 
#    0.000    1.250    0.000    0.000    0.000    0.000 
#    0.000    0.000    0.000    0.000    0.000    0.000 
#
# Total GULP energy -178869.201912 kJ/mol
# GULP energy per Si atom -5589.662560 kJ/mol
# Density = 2.210688 g / cm^3
# Si number density = 22.157307 Si / 1000 Ang^3
#
#
#
# Elastic Constant Matrix: (Units=GPa)
#
#
# Indices 1 2 3 4 5 6 
#
# 1 79.7531 22.3057 9.2740 0.0000 0.0000 0.0000
# 2 22.3057 123.4064 -10.6083 0.0000 0.0000 0.0000
# 3 9.2740 -10.6083 57.3527 0.0000 0.0000 0.0000
# 4 0.0000 0.0000 0.0000 32.8208 0.0000 0.0000
# 5 0.0000 0.0000 0.0000 0.0000 21.6929 0.0000
# 6 0.0000 0.0000 0.0000 0.0000 0.0000 6.5783
#
#
#
# Elastic Compliance Matrix: (Units=1/GPa)
#
#
# Indices 1 2 3 4 5 6 
#
# 1 0.013605 -0.002691 -0.002698 0.000000 0.000000 0.000000
# 2 -0.002691 0.008766 0.002057 0.000000 0.000000 0.000000
# 3 -0.002698 0.002057 0.018253 0.000000 0.000000 0.000000
# 4 0.000000 0.000000 0.000000 0.030468 0.000000 0.000000
# 5 0.000000 0.000000 0.000000 0.000000 0.046098 0.000000
# 6 0.000000 0.000000 0.000000 0.000000 0.000000 0.152015
#
#
# Mechanical properties :
#
#
# Convention : Reuss Voigt Hill
#
# Bulk Modulus (GPa) = 29.44642 33.60614 31.52628
# Shear Modulus (GPa) = 17.41011 28.18779 22.79895
#
# Velocity S-wave (km/s) = 2.80616 3.57061 3.21122
# Velocity P-wave (km/s) = 4.88037 5.67442 5.29231
#
# Compressibility (1/GPa) = 0.03395998
#
# Stress axis : x y z
#
# Youngs Moduli (GPa) = 73.50226 114.07062 54.78673
#
# Poissons Ratio (x) = 0.30696 0.14780
# Poissons Ratio (y) = 0.19780 -0.11268
# Poissons Ratio (z) = 0.19829 -0.23460
#
# Static dielectric constant tensor:
#      x y z
#    x 1.850700 0.000000 0.000000 
#    y 0.000000 1.851710 0.000000 
#    z 0.000000 0.000000 1.835110 
# 
# From -- ./inp_files/3482.got.cif
#   From: 2010.05.17/outbox.cif.g08.bks.cpg/sg40_2_cif.got.tgz:3482.got - 2010.06.03 18:35:42.
