data_PCOD9365584
_publ_section_title
;
Structure prediction by ZEFSAII (Michael W. Deem and Ramdas Pophale) SiO2 
 PCOD9365584
Probable space group: A M A 2
;
_chemical_formula_sum "Si O2"
_cell_formula_units_Z 20
_cell_length_a 5.453037
_cell_length_b 6.733809
_cell_length_c 22.804695
_cell_angle_alpha 90.000000
_cell_angle_beta 90.000000
_cell_angle_gamma 90.000000
_cell_volume 837.381779
_symmetry_space_group_name_H-M "A M A 2"
_symmetry_group_IT_number 40
_symmetry_cell_setting 'orthorhombic'
loop_
_space_group_symop_operation_xyz
x,y,z
-x,-y,z
1/2-x,y,z
1/2+x,-y,z
x,1/2+y,1/2+z
-x,1/2-y,1/2+z
1/2-x,1/2+y,1/2+z
1/2+x,1/2-y,1/2+z
loop_
_atom_site_type_symbol
_atom_site_label
_atom_site_fract_x
_atom_site_fract_y
_atom_site_fract_z
Si Si1 0.750000 0.870090 0.021930
Si Si2 0.250000 0.499425 0.114946
Si Si3 0.750000 0.122709 0.162326
Si Si4 0.250000 0.372461 0.902849
Si Si5 0.250000 0.629409 0.282310
O O1 0.750000 0.670544 0.065741
O O2 0.500000 0.000000 0.027281
O O3 0.750000 0.778693 0.956986
O O4 0.500000 0.500000 0.150348
O O5 0.250000 0.734621 0.104636
O O6 0.750000 0.228966 0.225380
O O7 0.500000 0.000000 0.159464
O O8 0.500000 0.500000 0.907425
O O9 0.250000 0.261260 0.840903
O O10 0.500000 0.500000 0.282925
#
# Coordination Sequence:
#
# PCOD9365584 Si02
#       5
#     4   4   4   4   4
#     4  12  26  46  72 104 142 189 240 294 360 422
#     4  12  26  46  68 100 140 184 236 294 350 422
#     4  12  26  46  72 104 142 189 240 294 360 422
#     4  12  24  44  71 103 142 183 236 297 356 421
#     4  12  24  44  71 103 142 183 236 297 356 421
#
# _framework density 23.883967999999999
#
# number of rings (size 3 to 8) (size 9 to 14) (size 15 to 20)
#    0.000    0.000    0.000   10.800    0.000    4.800 
#    0.000    0.000    0.000    0.000    0.000    0.000 
#    0.000    0.000    0.000    0.000    0.000    0.000 
#
# Total GULP energy -55789.318871 kJ/mol
# GULP energy per Si atom -5578.931887 kJ/mol
# Density = 2.382961 g / cm^3
# Si number density = 23.883968 Si / 1000 Ang^3
#
#
#
# Elastic Constant Matrix: (Units=GPa)
#
#
# Indices 1 2 3 4 5 6 
#
# 1 296.7996 119.7226 62.5866 0.0000 0.0000 0.0000
# 2 119.7226 193.2133 115.0562 0.0000 0.0000 0.0000
# 3 62.5866 115.0562 188.7983 0.0000 0.0000 0.0000
# 4 0.0000 0.0000 0.0000 91.7471 0.0000 0.0000
# 5 0.0000 0.0000 0.0000 0.0000 -0.7528 0.0000
# 6 0.0000 0.0000 0.0000 0.0000 0.0000 70.1400
#
#
#
# Elastic Compliance Matrix: (Units=1/GPa)
#
#
# Indices 1 2 3 4 5 6 
#
# 1 0.004505 -0.002986 0.000326 0.000000 0.000000 0.000000
# 2 -0.002986 0.010102 -0.005167 0.000000 0.000000 0.000000
# 3 0.000326 -0.005167 0.008337 0.000000 0.000000 0.000000
# 4 0.000000 0.000000 0.000000 0.010900 0.000000 0.000000
# 5 0.000000 0.000000 0.000000 0.000000 -1.328434 0.000000
# 6 0.000000 0.000000 0.000000 0.000000 0.000000 0.014257
#
#
# Mechanical properties :
#
#
# Convention : Reuss Voigt Hill
#
# Bulk Modulus (GPa) = 137.13792 141.50466 139.32129
# Shear Modulus (GPa) = -3.96118 57.65659 26.84770
#
# Velocity S-wave (km/s) = -1.28923 4.91861 3.35638
# Velocity P-wave (km/s) = 7.43821 9.57247 8.57202
#
# Compressibility (1/GPa) = 0.00729193
#
# Stress axis : x y z
#
# Youngs Moduli (GPa) = 221.98452 98.98686 119.94323
#
# Poissons Ratio (x) = 0.29553 -0.03911
# Poissons Ratio (y) = 0.66274 0.61972
# Poissons Ratio (z) = -0.07238 0.51145
#
# Static dielectric constant tensor:
#      x y z
#    x 2.388690 0.000000 0.000000 
#    y 0.000000 2.175370 0.000000 
#    z 0.000000 0.000000 1.831100 
# 
# From -- ./inp_files/70.got.cif
#   From: 2010.05.17/outbox.cif.g08.bks.cpg/sg40_1_cif.got.tgz:70.got - 2010.06.03 18:35:42.
