data_PCOD9365775
_publ_section_title
;
Structure prediction by ZEFSAII (Michael W. Deem and Ramdas Pophale) SiO2 
 PCOD9365775
Probable space group: A B A 2
;
_chemical_formula_sum "Si O2"
_cell_formula_units_Z 64
_cell_length_a 18.885202
_cell_length_b 9.252767
_cell_length_c 14.311488
_cell_angle_alpha 90.000000
_cell_angle_beta 90.000000
_cell_angle_gamma 90.000000
_cell_volume 2500.794764
_symmetry_space_group_name_H-M "A B A 2"
_symmetry_group_IT_number 41
_symmetry_cell_setting 'orthorhombic'
loop_
_space_group_symop_operation_xyz
x,y,z
-x,-y,z
1/2-x,y,1/2+z
1/2+x,-y,1/2+z
x,1/2+y,1/2+z
-x,1/2-y,1/2+z
1/2-x,1/2+y,z
1/2+x,1/2-y,z
loop_
_atom_site_type_symbol
_atom_site_label
_atom_site_fract_x
_atom_site_fract_y
_atom_site_fract_z
Si Si1 0.783717 0.252066 0.892950
Si Si2 0.891836 0.517037 0.343842
Si Si3 0.389794 0.418352 0.225915
Si Si4 0.590849 0.435715 0.466984
Si Si5 0.038329 0.194357 0.278589
Si Si6 0.252791 0.781927 0.172674
Si Si7 0.658419 0.455797 0.642429
Si Si8 0.374278 0.271370 0.425071
O O1 0.832794 0.108806 0.900376
O O2 0.770116 0.253866 0.781288
O O3 0.708540 0.252887 0.943409
O O4 0.832286 0.382726 0.928452
O O5 0.943006 0.639061 0.298476
O O6 0.860203 0.441001 0.251614
O O7 0.913014 0.381361 0.408295
O O8 0.405036 0.590057 0.226656
O O9 0.466684 0.339709 0.222205
O O10 0.321910 0.370872 0.167821
O O11 0.370574 0.364562 0.329476
O O12 0.541366 0.371053 0.385452
O O13 0.597400 0.392176 0.575741
O O14 0.586003 0.607919 0.484042
O O15 0.229636 0.634724 0.125445
O O16 0.316292 0.878611 0.134826
#
# Coordination Sequence:
#
# PCOD9365775 Si02
#       8
#     8   8   8   8   8   8   8   8
#     4   9  18  33  55  80 112 160 197 240 290 378
#     4  10  19  33  59  85 115 150 208 252 296 363
#     4   9  18  37  63  85 108 155 214 251 283 359
#     4  10  22  35  57  85 123 156 197 247 315 368
#     4   9  20  37  63  85 108 159 217 246 292 363
#     4  10  22  36  59  89 123 157 201 249 310 383
#     4  11  23  37  54  96 129 155 190 259 334 371
#     4  10  18  32  54  82 111 150 198 244 294 358
#
# _framework density 25.591864999999999
#
# number of rings (size 3 to 8) (size 9 to 14) (size 15 to 20)
#    0.000    2.250    2.500    0.750   10.500    0.500 
#    0.000    0.000   11.000    0.000    3.250    0.000 
#    0.000    0.000    0.000    0.000    0.000    0.000 
#
# Total GULP energy -178267.951250 kJ/mol
# GULP energy per Si atom -5570.873477 kJ/mol
# Density = 2.553362 g / cm^3
# Si number density = 25.591865 Si / 1000 Ang^3
#
#
#
# Elastic Constant Matrix: (Units=GPa)
#
#
# Indices 1 2 3 4 5 6 
#
# 1 75.8947 16.2608 -2.0593 0.0000 0.0000 0.0000
# 2 16.2608 150.7790 25.2829 0.0000 0.0000 0.0000
# 3 -2.0593 25.2829 40.5085 0.0000 0.0000 0.0000
# 4 0.0000 0.0000 0.0000 13.0675 0.0000 0.0000
# 5 0.0000 0.0000 0.0000 0.0000 18.9888 0.0000
# 6 0.0000 0.0000 0.0000 0.0000 0.0000 37.4425
#
#
#
# Elastic Compliance Matrix: (Units=1/GPa)
#
#
# Indices 1 2 3 4 5 6 
#
# 1 0.013604 -0.001768 0.001795 0.000000 0.000000 0.000000
# 2 -0.001768 0.007637 -0.004857 0.000000 0.000000 0.000000
# 3 0.001795 -0.004857 0.027809 0.000000 0.000000 0.000000
# 4 0.000000 0.000000 0.000000 0.076526 0.000000 0.000000
# 5 0.000000 0.000000 0.000000 0.000000 0.052663 0.000000
# 6 0.000000 0.000000 0.000000 0.000000 0.000000 0.026708
#
#
# Mechanical properties :
#
#
# Convention : Reuss Voigt Hill
#
# Bulk Modulus (GPa) = 25.38688 38.46122 31.92405
# Shear Modulus (GPa) = 21.95532 29.07959 25.51745
#
# Velocity S-wave (km/s) = 2.93217 3.37454 3.16110
# Velocity P-wave (km/s) = 4.62655 5.49951 5.08181
#
# Compressibility (1/GPa) = 0.03939043
#
# Stress axis : x y z
#
# Youngs Moduli (GPa) = 73.50946 130.93682 35.96002
#
# Poissons Ratio (x) = 0.23151 -0.06455
# Poissons Ratio (y) = 0.12997 0.17464
# Poissons Ratio (z) = -0.13196 0.63591
#
# Static dielectric constant tensor:
#      x y z
#    x 2.149290 0.000000 0.000000 
#    y 0.000000 2.118470 0.000000 
#    z 0.000000 0.000000 2.075330 
# 
# From -- ./inp_files/10756.got.cif
#   From: 2010.05.17/outbox.cif.g08.bks.cpg/sg41_6_cif.got.tgz:10756.got - 2010.06.03 18:54:24.
