data_PCOD9365276
_publ_section_title
;
Structure prediction by ZEFSAII (Michael W. Deem and Ramdas Pophale) SiO2 
 PCOD9365276
Probable space group: A M A 2
;
_chemical_formula_sum "Si O2"
_cell_formula_units_Z 24
_cell_length_a 20.181934
_cell_length_b 7.056712
_cell_length_c 7.715947
_cell_angle_alpha 90.000000
_cell_angle_beta 90.000000
_cell_angle_gamma 90.000000
_cell_volume 1098.890479
_symmetry_space_group_name_H-M "A M A 2"
_symmetry_group_IT_number 40
_symmetry_cell_setting 'orthorhombic'
loop_
_space_group_symop_operation_xyz
x,y,z
-x,-y,z
1/2-x,y,z
1/2+x,-y,z
x,1/2+y,1/2+z
-x,1/2-y,1/2+z
1/2-x,1/2+y,1/2+z
1/2+x,1/2-y,1/2+z
loop_
_atom_site_type_symbol
_atom_site_label
_atom_site_fract_x
_atom_site_fract_y
_atom_site_fract_z
Si Si1 0.107268 0.991451 0.550660
Si Si2 0.673650 0.351493 0.731666
Si Si3 0.937458 0.625601 0.692776
O O1 0.163977 0.092665 0.432958
O O2 0.065093 0.160305 0.631581
O O3 0.138679 0.846564 0.685745
O O4 0.066941 0.880279 0.402155
O O5 0.750000 0.351017 0.681067
O O6 0.629234 0.512658 0.637993
O O7 0.000000 0.500000 0.638773
#
# Coordination Sequence:
#
# PCOD9365276 Si02
#       3
#     8   8   8
#     4  10  25  41  63  95 125 168 213 262 317 380
#     4  10  24  42  64  94 130 170 214 264 318 378
#     4  10  26  42  69  94 131 166 216 262 320 376
#
# _framework density 21.840211
#
# number of rings (size 3 to 8) (size 9 to 14) (size 15 to 20)
#    2.000    0.000    0.000    1.000    9.333    2.667 
#    0.000    0.000    0.000    0.000    0.000    0.000 
#    0.000    0.000    0.000    0.000    0.000    0.000 
#
# Total GULP energy -66897.748748 kJ/mol
# GULP energy per Si atom -5574.812396 kJ/mol
# Density = 2.179050 g / cm^3
# Si number density = 21.840211 Si / 1000 Ang^3
#
#
#
# Elastic Constant Matrix: (Units=GPa)
#
#
# Indices 1 2 3 4 5 6 
#
# 1 73.4237 12.3458 2.7835 0.0000 0.0000 0.0000
# 2 12.3458 111.1879 45.9551 0.0000 0.0000 0.0000
# 3 2.7835 45.9551 49.3707 0.0000 0.0000 0.0000
# 4 0.0000 0.0000 0.0000 44.1713 0.0000 0.0000
# 5 0.0000 0.0000 0.0000 0.0000 10.2366 0.0000
# 6 0.0000 0.0000 0.0000 0.0000 0.0000 18.9513
#
#
#
# Elastic Compliance Matrix: (Units=1/GPa)
#
#
# Indices 1 2 3 4 5 6 
#
# 1 0.013913 -0.001984 0.001062 0.000000 0.000000 0.000000
# 2 -0.001984 0.014900 -0.013758 0.000000 0.000000 0.000000
# 3 0.001062 -0.013758 0.033001 0.000000 0.000000 0.000000
# 4 0.000000 0.000000 0.000000 0.022639 0.000000 0.000000
# 5 0.000000 0.000000 0.000000 0.000000 0.097689 0.000000
# 6 0.000000 0.000000 0.000000 0.000000 0.000000 0.052767
#
#
# Mechanical properties :
#
#
# Convention : Reuss Voigt Hill
#
# Bulk Modulus (GPa) = 30.81138 39.57234 35.19186
# Shear Modulus (GPa) = 18.17615 26.19835 22.18725
#
# Velocity S-wave (km/s) = 2.88797 3.46720 3.19076
# Velocity P-wave (km/s) = 5.02581 5.84697 5.45187
#
# Compressibility (1/GPa) = 0.03245555
#
# Stress axis : x y z
#
# Youngs Moduli (GPa) = 71.87578 67.11329 30.30230
#
# Poissons Ratio (x) = 0.13314 -0.03219
# Poissons Ratio (y) = 0.14259 0.41688
# Poissons Ratio (z) = -0.07635 0.92331
#
# Static dielectric constant tensor:
#      x y z
#    x 1.803660 0.000000 0.000000 
#    y 0.000000 1.754290 0.000000 
#    z 0.000000 0.000000 1.817580 
# 
# From -- ./inp_files/7008.got.cif
#   From: 2010.05.17/outbox.cif.g08.bks.cpg/sg40_4_cif.got.tgz:7008.got - 2010.06.03 18:35:42.
