data_PCOD9365455
_publ_section_title
;
Structure prediction by ZEFSAII (Michael W. Deem and Ramdas Pophale) SiO2 
 PCOD9365455
Probable space group: A M A 2
;
_chemical_formula_sum "Si O2"
_cell_formula_units_Z 40
_cell_length_a 14.032808
_cell_length_b 17.088759
_cell_length_c 7.719040
_cell_angle_alpha 90.000000
_cell_angle_beta 90.000000
_cell_angle_gamma 90.000000
_cell_volume 1851.051064
_symmetry_space_group_name_H-M "A M A 2"
_symmetry_group_IT_number 40
_symmetry_cell_setting 'orthorhombic'
loop_
_space_group_symop_operation_xyz
x,y,z
-x,-y,z
1/2-x,y,z
1/2+x,-y,z
x,1/2+y,1/2+z
-x,1/2-y,1/2+z
1/2-x,1/2+y,1/2+z
1/2+x,1/2-y,1/2+z
loop_
_atom_site_type_symbol
_atom_site_label
_atom_site_fract_x
_atom_site_fract_y
_atom_site_fract_z
Si Si1 0.008315 0.817097 0.859620
Si Si2 0.390910 0.975038 0.399076
Si Si3 0.362393 0.299161 0.039662
Si Si4 0.855576 0.070465 0.019787
Si Si5 0.146434 0.564351 0.234579
O O1 0.940477 0.877389 0.758020
O O2 0.093501 0.791833 0.732348
O O3 0.935923 0.751730 0.926116
O O4 0.061448 0.865242 0.011688
O O5 0.371651 0.888567 0.474687
O O6 0.356932 0.974502 0.201537
O O7 0.500000 0.000000 0.393459
O O8 0.348985 0.033982 0.539457
O O9 0.250000 0.277734 0.031509
O O10 0.750000 0.106000 0.998443
O O11 0.869618 0.009611 0.862430
O O12 0.250000 0.598602 0.282962
#
# Coordination Sequence:
#
# PCOD9365455 Si02
#       5
#     8   8   8   8   8
#     4  12  24  45  68 101 145 188 235 295 351 419
#     4  12  22  42  71 100 134 181 234 286 344 420
#     4  12  26  45  70 100 142 191 236 291 361 424
#     4  11  23  40  69 103 140 185 234 287 349 417
#     4  11  22  42  69 101 137 180 234 289 347 413
#
# _framework density 21.609344
#
# number of rings (size 3 to 8) (size 9 to 14) (size 15 to 20)
#    0.000    0.400    4.000    6.000    0.000    0.000 
#    0.000    3.000    0.000    0.000    0.000    0.000 
#    0.000    0.000    0.000    0.000    0.000    0.000 
#
# Total GULP energy -111798.059066 kJ/mol
# GULP energy per Si atom -5589.902953 kJ/mol
# Density = 2.156016 g / cm^3
# Si number density = 21.609344 Si / 1000 Ang^3
#
#
#
# Elastic Constant Matrix: (Units=GPa)
#
#
# Indices 1 2 3 4 5 6 
#
# 1 156.1542 29.8737 17.1233 0.0000 0.0000 0.0000
# 2 29.8737 38.1192 2.9043 0.0000 0.0000 0.0000
# 3 17.1233 2.9043 93.3152 0.0000 0.0000 0.0000
# 4 0.0000 0.0000 0.0000 26.6833 0.0000 0.0000
# 5 0.0000 0.0000 0.0000 0.0000 16.3987 0.0000
# 6 0.0000 0.0000 0.0000 0.0000 0.0000 10.3639
#
#
#
# Elastic Compliance Matrix: (Units=1/GPa)
#
#
# Indices 1 2 3 4 5 6 
#
# 1 0.007670 -0.005918 -0.001223 0.000000 0.000000 0.000000
# 2 -0.005918 0.030862 0.000125 0.000000 0.000000 0.000000
# 3 -0.001223 0.000125 0.010937 0.000000 0.000000 0.000000
# 4 0.000000 0.000000 0.000000 0.037477 0.000000 0.000000
# 5 0.000000 0.000000 0.000000 0.000000 0.060981 0.000000
# 6 0.000000 0.000000 0.000000 0.000000 0.000000 0.096488
#
#
# Mechanical properties :
#
#
# Convention : Reuss Voigt Hill
#
# Bulk Modulus (GPa) = 28.21881 43.04348 35.63114
# Shear Modulus (GPa) = 18.50080 26.53500 22.51790
#
# Velocity S-wave (km/s) = 2.92918 3.50800 3.23157
# Velocity P-wave (km/s) = 4.95248 6.03078 5.51803
#
# Compressibility (1/GPa) = 0.03543735
#
# Stress axis : x y z
#
# Youngs Moduli (GPa) = 130.37450 32.40256 91.43326
#
# Poissons Ratio (x) = 0.19175 0.11185
# Poissons Ratio (y) = 0.77154 -0.01147
# Poissons Ratio (z) = 0.15949 -0.00406
#
# Static dielectric constant tensor:
#      x y z
#    x 1.769260 0.000000 0.000000 
#    y 0.000000 1.771960 0.000000 
#    z 0.000000 0.000000 1.804880 
# 
# From -- ./inp_files/6135.got.cif
#   From: 2010.05.17/outbox.cif.g08.bks.cpg/sg40_4_cif.got.tgz:6135.got - 2010.06.03 18:35:42.
