data_PCOD9365614
_publ_section_title
;
Structure prediction by ZEFSAII (Michael W. Deem and Ramdas Pophale) SiO2 
 PCOD9365614
Probable space group: A M A 2
;
_chemical_formula_sum "Si O2"
_cell_formula_units_Z 32
_cell_length_a 9.000000
_cell_length_b 30.000000
_cell_length_c 15.000000
_cell_angle_alpha 90.000000
_cell_angle_beta 90.000000
_cell_angle_gamma 90.000000
_cell_volume 4050.000000
_symmetry_space_group_name_H-M "A M A 2"
_symmetry_group_IT_number 40
_symmetry_cell_setting 'orthorhombic'
loop_
_space_group_symop_operation_xyz
x,y,z
-x,-y,z
1/2-x,y,z
1/2+x,-y,z
x,1/2+y,1/2+z
-x,1/2-y,1/2+z
1/2-x,1/2+y,1/2+z
1/2+x,1/2-y,1/2+z
loop_
_atom_site_type_symbol
_atom_site_label
_atom_site_fract_x
_atom_site_fract_y
_atom_site_fract_z
Si Si1 0.072029 0.545513 0.485990
Si Si2 0.424907 0.820399 0.924207
Si Si3 0.929125 0.545796 0.290436
Si Si4 0.925579 0.364942 0.590142
Si Si5 0.574429 0.229483 0.414690
Si Si6 0.070378 0.361723 0.238163
Si Si7 0.074240 0.305886 0.724435
Si Si8 0.071475 0.278752 0.123503
O O1 0.250000 0.541384 0.473491
O O2 0.042701 0.585889 0.553123
O O3 0.000000 0.500000 0.520353
O O4 0.994955 0.553309 0.389924
O O5 0.250000 0.826167 0.940825
O O6 0.465861 0.770600 0.897702
O O7 0.470648 0.849289 0.839205
O O8 0.516024 0.833020 0.011361
O O9 0.750000 0.543074 0.296921
O O10 0.972275 0.587075 0.227671
O O11 0.000000 0.500000 0.258495
O O12 0.750000 0.359474 0.600099
O O13 0.006014 0.349602 0.679401
O O14 0.750000 0.242674 0.410119
O O15 0.549593 0.197006 0.330898
O O16 0.545777 0.216567 0.517434
O O17 0.250000 0.360003 0.234212
O O18 0.016677 0.323701 0.171985
O O19 0.250000 0.304430 0.708536
O O20 0.002890 0.263533 0.672235
O O21 0.250000 0.274168 0.135479
#
# Coordination Sequence:
#
# PCOD9365614 Si02
#       8
#     8   8   8   8   8   8   8   8
#     4  10  20  32  48  70  96 125 159 195 240 290
#     4  11  19  29  48  72  98 130 166 201 237 282
#     4  10  18  30  46  69  98 127 160 196 238 289
#     4  11  22  34  48  70  98 134 167 197 240 290
#     4  10  21  34  48  69  99 128 164 208 245 282
#     4   9  18  30  47  70  95 129 166 195 235 289
#     4  11  22  33  47  72  98 127 165 205 241 285
#     4  10  19  34  51  68  93 130 165 201 245 289
#
# _framework density 7.9012349999999998
#
# number of rings (size 3 to 8) (size 9 to 14) (size 15 to 20)
#    0.000    1.750    3.750    2.625    0.000    2.000 
#    0.000    1.250    0.000    0.000    0.000    0.875 
#    0.000    4.000    0.000    0.000    0.000    0.000 
#
# Total GULP energy -178325.720544 kJ/mol
# GULP energy per Si atom -5572.678767 kJ/mol
# Density = 0.788325 g / cm^3
# Si number density = 7.901235 Si / 1000 Ang^3
#
#
#
# Elastic Constant Matrix: (Units=GPa)
#
#
# Indices 1 2 3 4 5 6 
#
# 1 29.3324 15.1241 6.8575 0.0000 0.0000 0.0000
# 2 15.1241 60.3378 2.1587 0.0000 0.0000 0.0000
# 3 6.8575 2.1587 35.5120 0.0000 0.0000 0.0000
# 4 0.0000 0.0000 0.0000 20.0111 0.0000 0.0000
# 5 0.0000 0.0000 0.0000 0.0000 12.8150 0.0000
# 6 0.0000 0.0000 0.0000 0.0000 0.0000 18.2711
#
#
#
# Elastic Compliance Matrix: (Units=1/GPa)
#
#
# Indices 1 2 3 4 5 6 
#
# 1 0.040958 -0.010005 -0.007301 0.000000 0.000000 0.000000
# 2 -0.010005 0.019054 0.000774 0.000000 0.000000 0.000000
# 3 -0.007301 0.000774 0.029522 0.000000 0.000000 0.000000
# 4 0.000000 0.000000 0.000000 0.049972 0.000000 0.000000
# 5 0.000000 0.000000 0.000000 0.000000 0.078033 0.000000
# 6 0.000000 0.000000 0.000000 0.000000 0.000000 0.054731
#
#
# Mechanical properties :
#
#
# Convention : Reuss Voigt Hill
#
# Bulk Modulus (GPa) = 17.70880 19.27363 18.49121
# Shear Modulus (GPa) = 15.42460 16.95558 16.19009
#
# Velocity S-wave (km/s) = 3.12763 3.27918 3.20430
# Velocity P-wave (km/s) = 4.92681 5.15368 5.04152
#
# Compressibility (1/GPa) = 0.05646911
#
# Stress axis : x y z
#
# Youngs Moduli (GPa) = 24.41548 52.48378 33.87271
#
# Poissons Ratio (x) = 0.52511 0.24730
# Poissons Ratio (y) = 0.24428 -0.02621
# Poissons Ratio (z) = 0.17825 -0.04061
#
# Static dielectric constant tensor:
#      x y z
#    x 1.527010 0.000000 0.000000 
#    y 0.000000 1.573760 0.000000 
#    z 0.000000 0.000000 1.523880 
# 
# From -- ./inp_files/15901.got.cif
#   From: 2010.05.17/outbox.ucp.g08.bks.cvg/sg40_8_cif.got.tgz:15901.got - 2010.06.11 16:26:39.
