data_PCOD9365195
_publ_section_title
;
Structure prediction by ZEFSAII (Michael W. Deem and Ramdas Pophale) SiO2 
 PCOD9365195
Probable space group: A M A 2
;
_chemical_formula_sum "Si O2"
_cell_formula_units_Z 48
_cell_length_a 15.544205
_cell_length_b 8.215024
_cell_length_c 18.199437
_cell_angle_alpha 90.000000
_cell_angle_beta 90.000000
_cell_angle_gamma 90.000000
_cell_volume 2323.995619
_symmetry_space_group_name_H-M "A M A 2"
_symmetry_group_IT_number 40
_symmetry_cell_setting 'orthorhombic'
loop_
_space_group_symop_operation_xyz
x,y,z
-x,-y,z
1/2-x,y,z
1/2+x,-y,z
x,1/2+y,1/2+z
-x,1/2-y,1/2+z
1/2-x,1/2+y,1/2+z
1/2+x,1/2-y,1/2+z
loop_
_atom_site_type_symbol
_atom_site_label
_atom_site_fract_x
_atom_site_fract_y
_atom_site_fract_z
Si Si1 0.849758 0.318472 0.795610
Si Si2 0.843254 0.154132 0.575280
Si Si3 0.099333 0.005646 0.716985
Si Si4 0.521645 0.670809 0.566170
Si Si5 0.091354 0.071692 0.450909
Si Si6 0.853317 0.641890 0.705895
O O1 0.750000 0.298796 0.777311
O O2 0.890578 0.147807 0.770997
O O3 0.861187 0.355634 0.881267
O O4 0.878320 0.480887 0.751884
O O5 0.750000 0.237768 0.576552
O O6 0.846683 0.028186 0.643027
O O7 0.927789 0.261572 0.588537
O O8 0.857324 0.063261 0.497769
O O9 0.125969 0.184436 0.745192
O O10 0.000000 0.000000 0.694080
O O11 0.500000 0.500000 0.529087
O O12 0.565833 0.793164 0.510331
O O13 0.585927 0.645677 0.634222
O O14 0.000000 0.000000 0.424642
O O15 0.750000 0.635861 0.691377
#
# Coordination Sequence:
#
# PCOD9365195 Si02
#       6
#     8   8   8   8   8   8
#     4  11  26  44  66  98 133 173 219 271 333 391
#     4  11  21  41  67  93 128 171 220 269 321 388
#     4  12  23  40  69  98 131 171 219 271 326 387
#     4  11  23  41  66  97 131 168 222 268 326 392
#     4  10  23  42  65  92 128 176 213 265 333 387
#     4  11  24  42  68 101 133 172 221 274 326 390
#
# _framework density 20.654083
#
# number of rings (size 3 to 8) (size 9 to 14) (size 15 to 20)
#    0.000    1.000    3.333    3.500    2.333    3.333 
#    3.000    0.000    0.000    0.000    0.000    0.000 
#    0.000    0.000    0.000    0.000    0.000    0.000 
#
# Total GULP energy -134053.226120 kJ/mol
# GULP energy per Si atom -5585.551088 kJ/mol
# Density = 2.060707 g / cm^3
# Si number density = 20.654083 Si / 1000 Ang^3
#
#
#
# Elastic Constant Matrix: (Units=GPa)
#
#
# Indices 1 2 3 4 5 6 
#
# 1 117.5061 23.3225 26.2480 0.0000 0.0000 0.0000
# 2 23.3225 104.0246 15.5719 0.0000 0.0000 0.0000
# 3 26.2480 15.5719 59.0540 0.0000 0.0000 0.0000
# 4 0.0000 0.0000 0.0000 12.9451 0.0000 0.0000
# 5 0.0000 0.0000 0.0000 0.0000 9.8725 0.0000
# 6 0.0000 0.0000 0.0000 0.0000 0.0000 82.7025
#
#
#
# Elastic Compliance Matrix: (Units=1/GPa)
#
#
# Indices 1 2 3 4 5 6 
#
# 1 0.009695 -0.001591 -0.003889 0.000000 0.000000 0.000000
# 2 -0.001591 0.010269 -0.002001 0.000000 0.000000 0.000000
# 3 -0.003889 -0.002001 0.019190 0.000000 0.000000 0.000000
# 4 0.000000 0.000000 0.000000 0.077249 0.000000 0.000000
# 5 0.000000 0.000000 0.000000 0.000000 0.101292 0.000000
# 6 0.000000 0.000000 0.000000 0.000000 0.000000 0.012092
#
#
# Mechanical properties :
#
#
# Convention : Reuss Voigt Hill
#
# Bulk Modulus (GPa) = 41.33719 45.65216 43.49468
# Shear Modulus (GPa) = 19.77743 35.46684 27.62214
#
# Velocity S-wave (km/s) = 3.09780 4.14839 3.66097
# Velocity P-wave (km/s) = 5.73172 6.71541 6.24297
#
# Compressibility (1/GPa) = 0.02419129
#
# Stress axis : x y z
#
# Youngs Moduli (GPa) = 103.14737 97.37689 52.11061
#
# Poissons Ratio (x) = 0.15496 0.20268
# Poissons Ratio (y) = 0.16415 0.10425
# Poissons Ratio (z) = 0.40119 0.19481
#
# Static dielectric constant tensor:
#      x y z
#    x 1.790650 0.000000 0.000000 
#    y 0.000000 1.796900 0.000000 
#    z 0.000000 0.000000 1.699930 
# 
# From -- ./inp_files/20549.got.cif
#   From: 2010.05.17/outbox.cif.g08.bks.cpg/sg40_11_cif.got.tgz:20549.got - 2010.06.03 18:35:42.
