data_PCOD9365884
_publ_section_title
;
Structure prediction by ZEFSAII (Michael W. Deem and Ramdas Pophale) SiO2 
 PCOD9365884
Probable space group: A B A 2
;
_chemical_formula_sum "Si O2"
_cell_formula_units_Z 48
_cell_length_a 22.412743
_cell_length_b 17.542397
_cell_length_c 5.369619
_cell_angle_alpha 90.000000
_cell_angle_beta 90.000000
_cell_angle_gamma 90.000000
_cell_volume 2111.190476
_symmetry_space_group_name_H-M "A B A 2"
_symmetry_group_IT_number 41
_symmetry_cell_setting 'orthorhombic'
loop_
_space_group_symop_operation_xyz
x,y,z
-x,-y,z
1/2-x,y,1/2+z
1/2+x,-y,1/2+z
x,1/2+y,1/2+z
-x,1/2-y,1/2+z
1/2-x,1/2+y,z
1/2+x,1/2-y,z
loop_
_atom_site_type_symbol
_atom_site_label
_atom_site_fract_x
_atom_site_fract_y
_atom_site_fract_z
Si Si1 0.008088 0.204867 0.305130
Si Si2 0.719995 0.773447 0.266671
Si Si3 0.571724 0.991193 0.226115
Si Si4 0.939760 0.051680 0.227539
Si Si5 0.380461 0.148166 0.508083
Si Si6 0.730523 0.443315 0.199992
O O1 0.009425 0.236403 0.584676
O O2 0.961938 0.135484 0.288096
O O3 0.071713 0.174795 0.209082
O O4 0.762736 0.743704 0.491768
O O5 0.653723 0.780053 0.382480
O O6 0.731159 0.864656 0.227567
O O7 0.590644 0.043420 0.459570
O O8 0.500000 0.000000 0.200567
O O9 0.588344 0.905652 0.302799
O O10 0.595668 0.018789 0.962178
O O11 0.000000 0.000000 0.200023
O O12 0.334024 0.092426 0.649081
O O13 0.743911 0.484692 0.457547
#
# Coordination Sequence:
#
# PCOD9365884 Si02
#       6
#     8   8   8   8   8   8
#     4  12  26  37  52  80 118 156 187 236 278 326
#     4   8  16  29  47  77 107 127 171 234 288 340
#     4  10  19  31  54  74  99 142 199 212 245 333
#     4  10  20  38  52  71 104 145 200 222 250 320
#     4  10  19  34  55  77 111 153 174 228 299 315
#     4   8  16  29  47  77 107 127 171 234 288 340
#
# _framework density 22.735987000000002
#
# number of rings (size 3 to 8) (size 9 to 14) (size 15 to 20)
#    0.000    2.667    3.333    1.000    2.333   10.667 
#    0.000    0.000    0.000    0.000    0.000    0.000 
#    0.000  240.000    0.000    0.000    0.000    0.000 
#
# Total GULP energy -133797.163807 kJ/mol
# GULP energy per Si atom -5574.881825 kJ/mol
# Density = 2.268424 g / cm^3
# Si number density = 22.735987 Si / 1000 Ang^3
#
#
#
# Elastic Constant Matrix: (Units=GPa)
#
#
# Indices 1 2 3 4 5 6 
#
# 1 76.0218 7.2452 7.8198 0.0000 0.0000 0.0000
# 2 7.2452 44.7436 9.5613 0.0000 0.0000 0.0000
# 3 7.8198 9.5613 167.3660 0.0000 0.0000 0.0000
# 4 0.0000 0.0000 0.0000 31.5350 0.0000 0.0000
# 5 0.0000 0.0000 0.0000 0.0000 16.7774 0.0000
# 6 0.0000 0.0000 0.0000 0.0000 0.0000 -0.1485
#
#
#
# Elastic Compliance Matrix: (Units=1/GPa)
#
#
# Indices 1 2 3 4 5 6 
#
# 1 0.013403 -0.002062 -0.000508 0.000000 0.000000 0.000000
# 2 -0.002062 0.022943 -0.001214 0.000000 0.000000 0.000000
# 3 -0.000508 -0.001214 0.006068 0.000000 0.000000 0.000000
# 4 0.000000 0.000000 0.000000 0.031711 0.000000 0.000000
# 5 0.000000 0.000000 0.000000 0.000000 0.059604 0.000000
# 6 0.000000 0.000000 0.000000 0.000000 0.000000 -6.735257
#
#
# Mechanical properties :
#
#
# Convention : Reuss Voigt Hill
#
# Bulk Modulus (GPa) = 28.69854 37.48712 33.09283
# Shear Modulus (GPa) = -0.75961 27.19978 13.22009
#
# Velocity S-wave (km/s) = -0.57864 3.46256 2.41397
# Velocity P-wave (km/s) = 3.49335 5.70171 4.72827
#
# Compressibility (1/GPa) = 0.03484498
#
# Stress axis : x y z
#
# Youngs Moduli (GPa) = 74.61071 43.58646 164.79732
#
# Poissons Ratio (x) = 0.08986 0.08379
# Poissons Ratio (y) = 0.15382 0.20012
# Poissons Ratio (z) = 0.03794 0.05293
#
# Static dielectric constant tensor:
#      x y z
#    x 2.029180 0.000000 0.000000 
#    y 0.000000 1.831480 0.000000 
#    z 0.000000 0.000000 2.008650 
# 
# From -- ./inp_files/949.got.cif
#   From: 2010.05.17/outbox.cif.g08.bks.cpg/sg41_1_cif.got.tgz:949.got - 2010.06.03 18:54:24.
