data_PCOD9365269
_publ_section_title
;
Structure prediction by ZEFSAII (Michael W. Deem and Ramdas Pophale) SiO2 
 PCOD9365269
Probable space group: A M A 2
;
_chemical_formula_sum "Si O2"
_cell_formula_units_Z 40
_cell_length_a 36.008072
_cell_length_b 5.332553
_cell_length_c 9.038415
_cell_angle_alpha 90.000000
_cell_angle_beta 90.000000
_cell_angle_gamma 90.000000
_cell_volume 1735.510826
_symmetry_space_group_name_H-M "A M A 2"
_symmetry_group_IT_number 40
_symmetry_cell_setting 'orthorhombic'
loop_
_space_group_symop_operation_xyz
x,y,z
-x,-y,z
1/2-x,y,z
1/2+x,-y,z
x,1/2+y,1/2+z
-x,1/2-y,1/2+z
1/2-x,1/2+y,1/2+z
1/2+x,1/2-y,1/2+z
loop_
_atom_site_type_symbol
_atom_site_label
_atom_site_fract_x
_atom_site_fract_y
_atom_site_fract_z
Si Si1 0.335859 0.914440 0.181710
Si Si2 0.428116 0.039505 0.907987
Si Si3 0.044197 0.039074 0.244485
Si Si4 0.206389 0.096598 0.902712
Si Si5 0.856761 0.085699 0.747161
O O1 0.355338 0.650263 0.136764
O O2 0.315609 0.836668 0.336235
O O3 0.365288 0.136420 0.197616
O O4 0.305892 0.007902 0.063693
O O5 0.446637 0.806904 0.819499
O O6 0.384281 0.998643 0.876142
O O7 0.441298 0.032550 0.076195
O O8 0.000000 0.000000 0.242795
O O9 0.061227 0.306904 0.836786
O O10 0.250000 0.120133 0.887003
O O11 0.186282 0.893977 0.797497
#
# Coordination Sequence:
#
# PCOD9365269 Si02
#       5
#     8   8   8   8   8
#     4  10  24  41  64  91 133 168 228 277 339 399
#     4  12  27  44  79 102 147 186 234 289 351 416
#     4  12  26  48  72 108 144 186 232 286 352 424
#     4  10  24  42  65  94 132 176 225 281 339 403
#     4  10  26  43  68  97 135 173 233 274 347 399
#
# _framework density 23.047971
#
# number of rings (size 3 to 8) (size 9 to 14) (size 15 to 20)
#    1.200    0.000    0.000    4.800    8.400    1.600 
#    0.000    0.000    0.000    0.000    0.000    0.000 
#    0.000    0.000    0.000    0.000    0.000    0.000 
#
# Total GULP energy -111600.901834 kJ/mol
# GULP energy per Si atom -5580.045092 kJ/mol
# Density = 2.299551 g / cm^3
# Si number density = 23.047971 Si / 1000 Ang^3
#
#
#
# Elastic Constant Matrix: (Units=GPa)
#
#
# Indices 1 2 3 4 5 6 
#
# 1 82.2926 28.6738 10.7868 0.0000 0.0000 0.0000
# 2 28.6738 172.1760 62.4356 0.0000 0.0000 0.0000
# 3 10.7868 62.4356 106.0134 0.0000 0.0000 0.0000
# 4 0.0000 0.0000 0.0000 42.9423 0.0000 0.0000
# 5 0.0000 0.0000 0.0000 0.0000 33.2167 0.0000
# 6 0.0000 0.0000 0.0000 0.0000 0.0000 21.6434
#
#
#
# Elastic Compliance Matrix: (Units=1/GPa)
#
#
# Indices 1 2 3 4 5 6 
#
# 1 0.012901 -0.002127 -0.000060 0.000000 0.000000 0.000000
# 2 -0.002127 0.007736 -0.004340 0.000000 0.000000 0.000000
# 3 -0.000060 -0.004340 0.011995 0.000000 0.000000 0.000000
# 4 0.000000 0.000000 0.000000 0.023287 0.000000 0.000000
# 5 0.000000 0.000000 0.000000 0.000000 0.030105 0.000000
# 6 0.000000 0.000000 0.000000 0.000000 0.000000 0.046203
#
#
# Mechanical properties :
#
#
# Convention : Reuss Voigt Hill
#
# Bulk Modulus (GPa) = 51.07673 62.69717 56.88695
# Shear Modulus (GPa) = 32.93683 36.79955 34.86819
#
# Velocity S-wave (km/s) = 3.78439 4.00015 3.89376
# Velocity P-wave (km/s) = 6.42687 6.97114 6.70453
#
# Compressibility (1/GPa) = 0.01957839
#
# Stress axis : x y z
#
# Youngs Moduli (GPa) = 77.51547 129.26894 83.37064
#
# Poissons Ratio (x) = 0.27491 0.00502
# Poissons Ratio (y) = 0.16485 0.36179
# Poissons Ratio (z) = 0.00466 0.56097
#
# Static dielectric constant tensor:
#      x y z
#    x 1.856480 0.000000 0.000000 
#    y 0.000000 1.945830 0.000000 
#    z 0.000000 0.000000 1.862650 
# 
# From -- ./inp_files/14300.got.cif
#   From: 2010.05.17/outbox.cif.g08.bks.cpg/sg40_8_cif.got.tgz:14300.got - 2010.06.03 18:35:42.
