data_PCOD9365299
_publ_section_title
;
Structure prediction by ZEFSAII (Michael W. Deem and Ramdas Pophale) SiO2 
 PCOD9365299
Probable space group: A M A 2
;
_chemical_formula_sum "Si O2"
_cell_formula_units_Z 60
_cell_length_a 31.331310
_cell_length_b 8.079204
_cell_length_c 11.829383
_cell_angle_alpha 90.000000
_cell_angle_beta 90.000000
_cell_angle_gamma 90.000000
_cell_volume 2994.395911
_symmetry_space_group_name_H-M "A M A 2"
_symmetry_group_IT_number 40
_symmetry_cell_setting 'orthorhombic'
loop_
_space_group_symop_operation_xyz
x,y,z
-x,-y,z
1/2-x,y,z
1/2+x,-y,z
x,1/2+y,1/2+z
-x,1/2-y,1/2+z
1/2-x,1/2+y,1/2+z
1/2+x,1/2-y,1/2+z
loop_
_atom_site_type_symbol
_atom_site_label
_atom_site_fract_x
_atom_site_fract_y
_atom_site_fract_z
Si Si1 0.500000 0.500000 0.312150
Si Si2 0.069182 0.287796 0.424244
Si Si3 0.845449 0.225991 0.278655
Si Si4 0.199735 0.623938 0.822648
Si Si5 0.701088 0.725417 0.565203
Si Si6 0.623150 0.720815 0.212301
Si Si7 0.363230 0.560858 0.496692
Si Si8 0.421624 0.127523 0.666001
O O1 0.476193 0.362086 0.387634
O O2 0.464857 0.588612 0.233263
O O3 0.092516 0.213632 0.313529
O O4 0.098587 0.446558 0.452558
O O5 0.070139 0.174555 0.535586
O O6 0.816696 0.304571 0.179385
O O7 0.846730 0.327039 0.394151
O O8 0.893163 0.230055 0.225998
O O9 0.824224 0.047683 0.297675
O O10 0.250000 0.622357 0.791629
O O11 0.171355 0.763254 0.759944
O O12 0.196847 0.658910 0.956239
O O13 0.750000 0.679570 0.579185
O O14 0.673236 0.563342 0.539368
O O15 0.621233 0.828937 0.100157
O O16 0.606619 0.538467 0.181262
#
# Coordination Sequence:
#
# PCOD9365299 Si02
#       8
#     4   8   8   8   8   8   8   8
#     4  10  24  44  68 108 134 166 228 288 336 416
#     4  11  23  47  70  97 140 174 220 281 340 406
#     4  12  23  41  68  98 133 184 224 276 341 410
#     4  11  23  42  67  98 137 179 232 284 333 395
#     4  11  24  43  64  96 137 179 231 285 328 394
#     4  11  23  41  69 101 134 180 225 272 334 409
#     4  12  24  39  72  95 132 187 223 271 346 402
#     4  11  23  46  72  99 137 178 224 275 349 410
#
# _framework density 20.037431000000002
#
# number of rings (size 3 to 8) (size 9 to 14) (size 15 to 20)
#    0.000    0.800    6.667    0.400    3.733    3.200 
#    0.000    1.333    0.000    0.000    0.000    0.000 
#    0.000    0.000    0.000    0.000    0.000    0.000 
#
# Total GULP energy -167631.328426 kJ/mol
# GULP energy per Si atom -5587.710948 kJ/mol
# Density = 1.999182 g / cm^3
# Si number density = 20.037431 Si / 1000 Ang^3
#
#
#
# Elastic Constant Matrix: (Units=GPa)
#
#
# Indices 1 2 3 4 5 6 
#
# 1 148.8870 67.1792 60.0425 0.0000 0.0000 0.0000
# 2 67.1792 69.5950 53.7307 0.0000 0.0000 0.0000
# 3 60.0425 53.7307 161.4441 0.0000 0.0000 0.0000
# 4 0.0000 0.0000 0.0000 33.5836 0.0000 0.0000
# 5 0.0000 0.0000 0.0000 0.0000 24.2024 0.0000
# 6 0.0000 0.0000 0.0000 0.0000 0.0000 22.9555
#
#
#
# Elastic Compliance Matrix: (Units=1/GPa)
#
#
# Indices 1 2 3 4 5 6 
#
# 1 0.011979 -0.010932 -0.000816 0.000000 0.000000 0.000000
# 2 -0.010932 0.029315 -0.005691 0.000000 0.000000 0.000000
# 3 -0.000816 -0.005691 0.008392 0.000000 0.000000 0.000000
# 4 0.000000 0.000000 0.000000 0.029776 0.000000 0.000000
# 5 0.000000 0.000000 0.000000 0.000000 0.041318 0.000000
# 6 0.000000 0.000000 0.000000 0.000000 0.000000 0.043562
#
#
# Mechanical properties :
#
#
# Convention : Reuss Voigt Hill
#
# Bulk Modulus (GPa) = 67.53832 82.42566 74.98199
# Shear Modulus (GPa) = 24.49096 29.41323 26.95209
#
# Velocity S-wave (km/s) = 3.49988 3.83549 3.67152
# Velocity P-wave (km/s) = 7.07894 7.79999 7.44820
#
# Compressibility (1/GPa) = 0.01480641
#
# Stress axis : x y z
#
# Youngs Moduli (GPa) = 83.48244 34.11203 119.16584
#
# Poissons Ratio (x) = 0.37293 0.09730
# Poissons Ratio (y) = 0.91266 0.67813
# Poissons Ratio (z) = 0.06816 0.19412
#
# Static dielectric constant tensor:
#      x y z
#    x 1.713810 0.000000 0.000000 
#    y 0.000000 1.721020 0.000000 
#    z 0.000000 0.000000 1.737250 
# 
# From -- ./inp_files/14371.got.cif
#   From: 2010.05.17/outbox.cif.g08.bks.cpg/sg40_8_cif.got.tgz:14371.got - 2010.06.03 18:35:42.
