data_PCOD9365673
_publ_section_title
;
Structure prediction by ZEFSAII (Michael W. Deem and Ramdas Pophale) SiO2 
 PCOD9365673
Probable space group: A M A 2
;
_chemical_formula_sum "Si O2"
_cell_formula_units_Z 20
_cell_length_a 18.000000
_cell_length_b 9.000000
_cell_length_c 12.000000
_cell_angle_alpha 90.000000
_cell_angle_beta 90.000000
_cell_angle_gamma 90.000000
_cell_volume 1944.000000
_symmetry_space_group_name_H-M "A M A 2"
_symmetry_group_IT_number 40
_symmetry_cell_setting 'orthorhombic'
loop_
_space_group_symop_operation_xyz
x,y,z
-x,-y,z
1/2-x,y,z
1/2+x,-y,z
x,1/2+y,1/2+z
-x,1/2-y,1/2+z
1/2-x,1/2+y,1/2+z
1/2+x,1/2-y,1/2+z
loop_
_atom_site_type_symbol
_atom_site_label
_atom_site_fract_x
_atom_site_fract_y
_atom_site_fract_z
Si Si1 0.438746 0.135286 0.539600
Si Si2 0.841446 0.437818 0.831717
Si Si3 0.337979 0.495179 0.219840
Si Si4 0.574650 0.788966 0.143405
Si Si5 0.165158 0.724454 0.418756
O O1 0.393435 0.151327 0.422731
O O2 0.370555 0.091170 0.619041
O O3 0.488596 0.258080 0.607462
O O4 0.500000 0.000000 0.525844
O O5 0.750000 0.399461 0.826171
O O6 0.889225 0.419661 0.717774
O O7 0.843813 0.610908 0.867539
O O8 0.250000 0.460358 0.206666
O O9 0.390411 0.351340 0.211333
O O10 0.347414 0.594591 0.329462
O O11 0.612791 0.792454 0.023360
O O12 0.250000 0.713371 0.457952
#
# Coordination Sequence:
#
# PCOD9365673 Si02
#       5
#     8   8   8   8   8
#     4  10  21  37  63  90 123 163 205 256 312 365
#     4  11  22  40  68  93 124 170 212 253 313 379
#     4  10  20  39  64  87 122 165 203 251 311 372
#     4  11  23  40  64  90 126 163 209 257 311 366
#     4  10  21  39  64  91 123 161 205 257 310 369
#
# _framework density 10.288066000000001
#
# number of rings (size 3 to 8) (size 9 to 14) (size 15 to 20)
#    0.000    1.600    4.000    2.400    2.800    0.000 
#    3.600    0.000    0.000    0.000    0.000    0.000 
#    0.000    0.000    0.000    0.000    0.000    0.000 
#
# Total GULP energy -111393.102927 kJ/mol
# GULP energy per Si atom -5569.655146 kJ/mol
# Density = 1.026465 g / cm^3
# Si number density = 10.288066 Si / 1000 Ang^3
#
#
#
# Elastic Constant Matrix: (Units=GPa)
#
#
# Indices 1 2 3 4 5 6 
#
# 1 77.5785 22.2236 27.0384 0.0000 0.0000 0.0000
# 2 22.2236 6.5826 30.9866 0.0000 0.0000 0.0000
# 3 27.0384 30.9866 74.4936 0.0000 0.0000 0.0000
# 4 0.0000 0.0000 0.0000 28.0308 0.0000 0.0000
# 5 0.0000 0.0000 0.0000 0.0000 34.9909 0.0000
# 6 0.0000 0.0000 0.0000 0.0000 0.0000 22.8190
#
#
#
# Elastic Compliance Matrix: (Units=1/GPa)
#
#
# Indices 1 2 3 4 5 6 
#
# 1 0.011512 0.020036 -0.012512 0.000000 0.000000 0.000000
# 2 0.020036 -0.123690 0.044178 0.000000 0.000000 0.000000
# 3 -0.012512 0.044178 -0.000411 0.000000 0.000000 0.000000
# 4 0.000000 0.000000 0.000000 0.035675 0.000000 0.000000
# 5 0.000000 0.000000 0.000000 0.000000 0.028579 0.000000
# 6 0.000000 0.000000 0.000000 0.000000 0.000000 0.043823
#
#
# Mechanical properties :
#
#
# Convention : Reuss Voigt Hill
#
# Bulk Modulus (GPa) = -108.85527 35.46132 -36.69698
# Shear Modulus (GPa) = -45.05371 22.39522 -11.32924
#
# Velocity S-wave (km/s) = -4.68440 3.30268 -2.34904
# Velocity P-wave (km/s) = 9.07065 5.64050 5.02302
#
# Compressibility (1/GPa) = -0.00918651
#
# Stress axis : x y z
#
# Youngs Moduli (GPa) = 86.86914 -8.08470 -2432.31948
#
# Poissons Ratio (x) = 0.16198 -30.43401
# Poissons Ratio (y) = -1.74048 107.45615
# Poissons Ratio (z) = 1.08694 0.35717
#
# Static dielectric constant tensor:
#      x y z
#    x 1.742870 0.000000 0.000000 
#    y 0.000000 1.833780 0.000000 
#    z 0.000000 0.000000 1.766640 
# 
# From -- ./inp_files/12704.got.cif
#   From: 2010.05.17/outbox.ucp.g08.bks.cvg/sg40_7_cif.got.tgz:12704.got - 2010.06.11 16:26:39.
