data_PCOD9365390
_publ_section_title
;
Structure prediction by ZEFSAII (Michael W. Deem and Ramdas Pophale) SiO2 
 PCOD9365390
Probable space group: A M A 2
;
_chemical_formula_sum "Si O2"
_cell_formula_units_Z 64
_cell_length_a 8.695776
_cell_length_b 30.667919
_cell_length_c 14.689142
_cell_angle_alpha 90.000000
_cell_angle_beta 90.000000
_cell_angle_gamma 90.000000
_cell_volume 3917.320278
_symmetry_space_group_name_H-M "A M A 2"
_symmetry_group_IT_number 40
_symmetry_cell_setting 'orthorhombic'
loop_
_space_group_symop_operation_xyz
x,y,z
-x,-y,z
1/2-x,y,z
1/2+x,-y,z
x,1/2+y,1/2+z
-x,1/2-y,1/2+z
1/2-x,1/2+y,1/2+z
1/2+x,1/2-y,1/2+z
loop_
_atom_site_type_symbol
_atom_site_label
_atom_site_fract_x
_atom_site_fract_y
_atom_site_fract_z
Si Si1 0.073908 0.184711 0.829470
Si Si2 0.934066 0.547039 0.417866
Si Si3 0.428986 0.629570 0.514374
Si Si4 0.432924 0.798627 0.142710
Si Si5 0.434475 0.047307 0.713804
Si Si6 0.932562 0.633748 0.164675
Si Si7 0.429744 0.223174 0.334545
Si Si8 0.432291 0.284915 0.033451
O O1 0.250000 0.199986 0.815796
O O2 0.064877 0.160721 0.925625
O O3 0.025244 0.151851 0.751054
O O4 0.959453 0.225109 0.825749
O O5 0.750000 0.545311 0.409639
O O6 0.000000 0.500000 0.446829
O O7 0.985238 0.585402 0.485508
O O8 0.005670 0.555419 0.317402
O O9 0.250000 0.620359 0.533513
O O10 0.503439 0.658124 0.593902
O O11 0.250000 0.797471 0.136841
O O12 0.487081 0.797173 0.247180
O O13 0.497007 0.755638 0.089989
O O14 0.250000 0.047420 0.713940
O O15 0.502395 0.085408 0.650666
O O16 0.500000 0.000000 0.688098
O O17 0.750000 0.631686 0.183833
O O18 0.956585 0.669752 0.086676
O O19 0.250000 0.213370 0.331028
O O20 0.498329 0.211683 0.432845
O O21 0.250000 0.276619 0.026858
#
# Coordination Sequence:
#
# PCOD9365390 Si02
#       8
#     8   8   8   8   8   8   8   8
#     4  11  21  32  52  76 107 144 183 224 266 314
#     4  11  21  34  53  77 108 142 180 220 270 322
#     4  11  22  36  54  78 109 144 184 224 268 319
#     4  12  24  37  56  79 107 143 184 225 271 322
#     4  11  21  34  52  76 108 142 180 221 269 321
#     4  11  22  35  54  78 108 143 182 222 270 322
#     4  12  24  38  55  76 107 144 184 228 272 316
#     4  11  23  38  55  78 108 142 183 226 269 320
#
# _framework density 16.337698
#
# number of rings (size 3 to 8) (size 9 to 14) (size 15 to 20)
#    0.000    0.750    3.750    6.750    0.000    2.500 
#    0.000    0.000    0.000    0.000    0.000    0.875 
#    0.000    4.000    0.000    0.000    0.000    0.000 
#
# Total GULP energy -178845.560267 kJ/mol
# GULP energy per Si atom -5588.923758 kJ/mol
# Density = 1.630051 g / cm^3
# Si number density = 16.337698 Si / 1000 Ang^3
#
#
#
# Elastic Constant Matrix: (Units=GPa)
#
#
# Indices 1 2 3 4 5 6 
#
# 1 110.7171 20.4713 16.5501 0.0000 0.0000 0.0000
# 2 20.4713 66.5086 -3.5981 0.0000 0.0000 0.0000
# 3 16.5501 -3.5981 41.1098 0.0000 0.0000 0.0000
# 4 0.0000 0.0000 0.0000 18.4222 0.0000 0.0000
# 5 0.0000 0.0000 0.0000 0.0000 42.9644 0.0000
# 6 0.0000 0.0000 0.0000 0.0000 0.0000 30.8558
#
#
#
# Elastic Compliance Matrix: (Units=1/GPa)
#
#
# Indices 1 2 3 4 5 6 
#
# 1 0.010331 -0.003421 -0.004459 0.000000 0.000000 0.000000
# 2 -0.003421 0.016240 0.002799 0.000000 0.000000 0.000000
# 3 -0.004459 0.002799 0.026365 0.000000 0.000000 0.000000
# 4 0.000000 0.000000 0.000000 0.054282 0.000000 0.000000
# 5 0.000000 0.000000 0.000000 0.000000 0.023275 0.000000
# 6 0.000000 0.000000 0.000000 0.000000 0.000000 0.032409
#
#
# Mechanical properties :
#
#
# Convention : Reuss Voigt Hill
#
# Bulk Modulus (GPa) = 23.37861 31.68693 27.53277
# Shear Modulus (GPa) = 26.69196 30.77595 28.73396
#
# Velocity S-wave (km/s) = 4.04637 4.34491 4.19830
# Velocity P-wave (km/s) = 6.01427 6.67893 6.35530
#
# Compressibility (1/GPa) = 0.04277415
#
# Stress axis : x y z
#
# Youngs Moduli (GPa) = 96.79562 61.57613 37.92913
#
# Poissons Ratio (x) = 0.21066 0.16911
# Poissons Ratio (y) = 0.33115 -0.10615
# Poissons Ratio (z) = 0.43157 -0.17233
#
# Static dielectric constant tensor:
#      x y z
#    x 1.535080 0.000000 0.000000 
#    y 0.000000 1.566460 0.000000 
#    z 0.000000 0.000000 1.535310 
# 
# From -- ./inp_files/15877.got.cif
#   From: 2010.05.17/outbox.cif.g08.bks.cpg/sg40_8_cif.got.tgz:15877.got - 2010.06.03 18:35:42.
