data_PCOD9365726
_publ_section_title
;
Structure prediction by ZEFSAII (Michael W. Deem and Ramdas Pophale) SiO2 
 PCOD9365726
Probable space group: A B A 2
;
_chemical_formula_sum "Si O2"
_cell_formula_units_Z 60
_cell_length_a 17.533312
_cell_length_b 12.777928
_cell_length_c 13.653857
_cell_angle_alpha 90.000000
_cell_angle_beta 90.000000
_cell_angle_gamma 90.000000
_cell_volume 3059.001907
_symmetry_space_group_name_H-M "A B A 2"
_symmetry_group_IT_number 41
_symmetry_cell_setting 'orthorhombic'
loop_
_space_group_symop_operation_xyz
x,y,z
-x,-y,z
1/2-x,y,1/2+z
1/2+x,-y,1/2+z
x,1/2+y,1/2+z
-x,1/2-y,1/2+z
1/2-x,1/2+y,z
1/2+x,1/2-y,z
loop_
_atom_site_type_symbol
_atom_site_label
_atom_site_fract_x
_atom_site_fract_y
_atom_site_fract_z
Si Si1 0.986365 0.764857 0.346740
Si Si2 0.903249 0.675913 0.174523
Si Si3 0.859148 0.218845 0.253254
Si Si4 0.710170 0.355508 0.216328
Si Si5 0.312417 0.013950 0.084460
Si Si6 0.500000 0.000000 0.853860
Si Si7 0.063807 0.701980 0.068586
Si Si8 0.665313 0.016060 0.875975
O O1 0.933926 0.687129 0.285027
O O2 0.985783 0.886376 0.304497
O O3 0.955233 0.767943 0.456927
O O4 0.074933 0.736684 0.326305
O O5 0.851095 0.779558 0.165732
O O6 0.852274 0.577443 0.146165
O O7 0.980807 0.673567 0.111895
O O8 0.785256 0.290326 0.244642
O O9 0.899375 0.215271 0.145967
O O10 0.831109 0.110508 0.299647
O O11 0.739846 0.442057 0.141064
O O12 0.681160 0.411656 0.314900
O O13 0.374396 0.108017 0.072588
O O14 0.289180 0.975711 0.976052
O O15 0.422860 0.980748 0.911689
#
# Coordination Sequence:
#
# PCOD9365726 Si02
#       8
#     8   8   8   8   8   4   8   8
#     4  10  19  36  62  91 117 156 203 254 299 361
#     4  11  21  36  61  91 119 159 205 254 304 361
#     4   9  22  36  60  90 123 152 201 257 302 357
#     4  11  23  41  55  89 126 159 196 253 314 359
#     4  11  23  37  63  89 121 158 207 250 303 374
#     4  10  16  32  62  88 104 156 204 240 280 358
#     4  10  20  38  61  94 117 153 207 258 299 369
#     4  11  21  39  64  86 118 162 204 245 299 371
#
# _framework density 19.614239999999999
#
# number of rings (size 3 to 8) (size 9 to 14) (size 15 to 20)
#    0.000    1.600    2.667    2.800    0.000    2.133 
#    0.000    5.333    0.000    4.800    0.000    0.000 
#    0.000    0.000    0.000    0.000    0.000    0.000 
#
# Total GULP energy -167086.061293 kJ/mol
# GULP energy per Si atom -5569.535376 kJ/mol
# Density = 1.956960 g / cm^3
# Si number density = 19.614240 Si / 1000 Ang^3
#
#
#
# Elastic Constant Matrix: (Units=GPa)
#
#
# Indices 1 2 3 4 5 6 
#
# 1 65.5743 0.1239 21.0689 0.0000 0.0000 0.0000
# 2 0.1239 32.1157 32.2732 0.0000 0.0000 0.0000
# 3 21.0689 32.2732 115.6540 0.0000 0.0000 0.0000
# 4 0.0000 0.0000 0.0000 25.8633 0.0000 0.0000
# 5 0.0000 0.0000 0.0000 0.0000 17.0059 0.0000
# 6 0.0000 0.0000 0.0000 0.0000 0.0000 14.2137
#
#
#
# Elastic Compliance Matrix: (Units=1/GPa)
#
#
# Indices 1 2 3 4 5 6 
#
# 1 0.016583 0.004130 -0.004173 0.000000 0.000000 0.000000
# 2 0.004130 0.044300 -0.013114 0.000000 0.000000 0.000000
# 3 -0.004173 -0.013114 0.013066 0.000000 0.000000 0.000000
# 4 0.000000 0.000000 0.000000 0.038665 0.000000 0.000000
# 5 0.000000 0.000000 0.000000 0.000000 0.058803 0.000000
# 6 0.000000 0.000000 0.000000 0.000000 0.000000 0.070355
#
#
# Mechanical properties :
#
#
# Convention : Reuss Voigt Hill
#
# Bulk Modulus (GPa) = 20.99350 35.58622 28.28986
# Shear Modulus (GPa) = 17.60777 22.07510 19.84144
#
# Velocity S-wave (km/s) = 2.99942 3.35843 3.18399
# Velocity P-wave (km/s) = 4.76674 5.76378 5.28881
#
# Compressibility (1/GPa) = 0.04763379
#
# Stress axis : x y z
#
# Youngs Moduli (GPa) = 60.30280 22.57334 76.53290
#
# Poissons Ratio (x) = -0.09323 0.31940
# Poissons Ratio (y) = -0.24904 1.00367
# Poissons Ratio (z) = 0.25167 0.29603
#
# Static dielectric constant tensor:
#      x y z
#    x 1.713060 0.000000 0.000000 
#    y 0.000000 1.739170 0.000000 
#    z 0.000000 0.000000 1.696220 
# 
# From -- ./inp_files/8801.got.cif
#   From: 2010.05.17/outbox.cif.g08.bks.cpg/sg41_5_cif.got.tgz:8801.got - 2010.06.03 18:54:24.
