data_PCOD9365135
_publ_section_title
;
Structure prediction by ZEFSAII (Michael W. Deem and Ramdas Pophale) SiO2 
 PCOD9365135
Probable space group: A M A 2
;
_chemical_formula_sum "Si O2"
_cell_formula_units_Z 40
_cell_length_a 18.615803
_cell_length_b 7.938179
_cell_length_c 12.259287
_cell_angle_alpha 90.000000
_cell_angle_beta 90.000000
_cell_angle_gamma 90.000000
_cell_volume 1811.623203
_symmetry_space_group_name_H-M "A M A 2"
_symmetry_group_IT_number 40
_symmetry_cell_setting 'orthorhombic'
loop_
_space_group_symop_operation_xyz
x,y,z
-x,-y,z
1/2-x,y,z
1/2+x,-y,z
x,1/2+y,1/2+z
-x,1/2-y,1/2+z
1/2-x,1/2+y,1/2+z
1/2+x,1/2-y,1/2+z
loop_
_atom_site_type_symbol
_atom_site_label
_atom_site_fract_x
_atom_site_fract_y
_atom_site_fract_z
Si Si1 0.617604 0.219026 0.684740
Si Si2 0.922814 0.403521 0.290268
Si Si3 0.669608 0.227861 0.463432
Si Si4 0.421753 0.089180 0.403597
Si Si5 0.027904 0.808797 0.097611
O O1 0.671017 0.273758 0.591235
O O2 0.601837 0.340539 0.785858
O O3 0.544180 0.199961 0.614761
O O4 0.630362 0.036798 0.734791
O O5 0.887719 0.343875 0.401385
O O6 0.930539 0.245000 0.208085
O O7 0.000000 0.500000 0.305303
O O8 0.750000 0.241715 0.418227
O O9 0.638011 0.040107 0.446745
O O10 0.432463 0.241036 0.490481
O O11 0.500000 0.000000 0.393733
O O12 0.000000 0.000000 0.093763
#
# Coordination Sequence:
#
# PCOD9365135 Si02
#       5
#     8   8   8   8   8
#     4  11  24  41  71 100 141 180 233 295 351 416
#     4  10  22  45  70 105 141 185 237 300 353 417
#     4  12  27  47  70 103 149 190 234 296 363 428
#     4  12  23  45  72 105 141 186 238 294 352 415
#     4  11  22  38  72 111 138 175 239 300 346 413
#
# _framework density 22.079647000000001
#
# number of rings (size 3 to 8) (size 9 to 14) (size 15 to 20)
#    0.000    0.800    4.000    4.800    2.800    2.400 
#    0.000    0.000    0.000    0.000    0.000    0.000 
#    0.000    0.000    0.000    0.000    0.000    0.000 
#
# Total GULP energy -111775.796238 kJ/mol
# GULP energy per Si atom -5588.789812 kJ/mol
# Density = 2.202939 g / cm^3
# Si number density = 22.079647 Si / 1000 Ang^3
#
#
#
# Elastic Constant Matrix: (Units=GPa)
#
#
# Indices 1 2 3 4 5 6 
#
# 1 81.2584 25.5700 51.1214 0.0000 0.0000 0.0000
# 2 25.5700 129.3721 75.2812 0.0000 0.0000 0.0000
# 3 51.1214 75.2812 186.3786 0.0000 0.0000 0.0000
# 4 0.0000 0.0000 0.0000 41.3066 0.0000 0.0000
# 5 0.0000 0.0000 0.0000 0.0000 -17.2093 0.0000
# 6 0.0000 0.0000 0.0000 0.0000 0.0000 8.3106
#
#
#
# Elastic Compliance Matrix: (Units=1/GPa)
#
#
# Indices 1 2 3 4 5 6 
#
# 1 0.014927 -0.000742 -0.003795 0.000000 0.000000 0.000000
# 2 -0.000742 0.010142 -0.003893 0.000000 0.000000 0.000000
# 3 -0.003795 -0.003893 0.007979 0.000000 0.000000 0.000000
# 4 0.000000 0.000000 0.000000 0.024209 0.000000 0.000000
# 5 0.000000 0.000000 0.000000 0.000000 -0.058108 0.000000
# 6 0.000000 0.000000 0.000000 0.000000 0.000000 0.120328
#
#
# Mechanical properties :
#
#
# Convention : Reuss Voigt Hill
#
# Bulk Modulus (GPa) = 61.77338 77.88380 69.82859
# Shear Modulus (GPa) = 35.27806 22.81735 29.04770
#
# Velocity S-wave (km/s) = 4.00154 3.21816 3.63104
# Velocity P-wave (km/s) = 7.02766 7.01137 7.01952
#
# Compressibility (1/GPa) = 0.01618820
#
# Stress axis : x y z
#
# Youngs Moduli (GPa) = 66.99166 98.60469 125.33622
#
# Poissons Ratio (x) = 0.07319 0.47559
# Poissons Ratio (y) = 0.04973 0.48790
# Poissons Ratio (z) = 0.25420 0.38384
#
# Static dielectric constant tensor:
#      x y z
#    x 1.810660 0.000000 0.000000 
#    y 0.000000 1.867410 0.000000 
#    z 0.000000 0.000000 1.883440 
# 
# From -- ./inp_files/13426.got.cif
#   From: 2010.05.17/outbox.cif.g08.bks.cpg/sg40_7_cif.got.tgz:13426.got - 2010.06.03 18:35:42.
