data_PCOD9365769
_publ_section_title
;
Structure prediction by ZEFSAII (Michael W. Deem and Ramdas Pophale) SiO2 
 PCOD9365769
Probable space group: A B A 2
;
_chemical_formula_sum "Si O2"
_cell_formula_units_Z 64
_cell_length_a 29.064995
_cell_length_b 16.816560
_cell_length_c 5.771971
_cell_angle_alpha 90.000000
_cell_angle_beta 90.000000
_cell_angle_gamma 90.000000
_cell_volume 2821.184923
_symmetry_space_group_name_H-M "A B A 2"
_symmetry_group_IT_number 41
_symmetry_cell_setting 'orthorhombic'
loop_
_space_group_symop_operation_xyz
x,y,z
-x,-y,z
1/2-x,y,1/2+z
1/2+x,-y,1/2+z
x,1/2+y,1/2+z
-x,1/2-y,1/2+z
1/2-x,1/2+y,z
1/2+x,1/2-y,z
loop_
_atom_site_type_symbol
_atom_site_label
_atom_site_fract_x
_atom_site_fract_y
_atom_site_fract_z
Si Si1 0.248131 0.081480 0.621510
Si Si2 0.851884 0.469976 0.177753
Si Si3 0.223937 0.410963 0.643761
Si Si4 0.093086 0.152035 0.904564
Si Si5 0.934306 0.221471 0.732546
Si Si6 0.121865 0.890446 0.035287
Si Si7 0.073124 0.520042 0.784257
Si Si8 0.983489 0.354527 0.015781
O O1 0.249631 0.124157 0.371762
O O2 0.201106 0.030910 0.621718
O O3 0.283638 0.007513 0.627747
O O4 0.861442 0.384094 0.293955
O O5 0.866819 0.545110 0.332071
O O6 0.883607 0.469214 0.953209
O O7 0.249098 0.391891 0.390262
O O8 0.171806 0.376286 0.650235
O O9 0.096562 0.231956 0.048200
O O10 0.077890 0.079941 0.070075
O O11 0.052974 0.161514 0.719172
O O12 0.965553 0.154191 0.614235
O O13 0.901425 0.186619 0.926818
O O14 0.971015 0.286180 0.829301
O O15 0.081623 0.932110 0.187805
O O16 0.030636 0.560056 0.916928
#
# Coordination Sequence:
#
# PCOD9365769 Si02
#       8
#     8   8   8   8   8   8   8   8
#     4  10  18  30  56  88 123 172 205 254 322 413
#     4  10  19  35  59  89 125 154 204 264 326 380
#     4  10  19  35  58  91 135 173 208 263 338 421
#     4   9  20  38  59  84 114 161 209 259 309 389
#     4  11  22  39  65  86 118 169 227 260 325 412
#     4  11  22  35  60 100 125 160 218 272 335 398
#     4   9  20  37  59  87 124 154 200 272 330 378
#     4  10  20  41  64  81 115 171 216 264 326 402
#
# _framework density 22.685502
#
# number of rings (size 3 to 8) (size 9 to 14) (size 15 to 20)
#    0.000    2.000    3.750    1.500    1.750    1.000 
#    0.000    6.875    0.000    1.500    0.000    0.000 
#    0.000    0.000    0.000    0.000    0.000    0.000 
#
# Total GULP energy -178395.214007 kJ/mol
# GULP energy per Si atom -5574.850438 kJ/mol
# Density = 2.263387 g / cm^3
# Si number density = 22.685502 Si / 1000 Ang^3
#
#
#
# Elastic Constant Matrix: (Units=GPa)
#
#
# Indices 1 2 3 4 5 6 
#
# 1 50.0679 34.6570 13.3921 0.0000 0.0000 0.0000
# 2 34.6570 41.1624 23.9223 0.0000 0.0000 0.0000
# 3 13.3921 23.9223 119.6359 0.0000 0.0000 0.0000
# 4 0.0000 0.0000 0.0000 -30.3573 0.0000 0.0000
# 5 0.0000 0.0000 0.0000 0.0000 16.8809 0.0000
# 6 0.0000 0.0000 0.0000 0.0000 0.0000 15.8705
#
#
#
# Elastic Compliance Matrix: (Units=1/GPa)
#
#
# Indices 1 2 3 4 5 6 
#
# 1 0.048882 -0.042970 0.003120 0.000000 0.000000 0.000000
# 2 -0.042970 0.065262 -0.008240 0.000000 0.000000 0.000000
# 3 0.003120 -0.008240 0.009657 0.000000 0.000000 0.000000
# 4 0.000000 0.000000 0.000000 -0.032941 0.000000 0.000000
# 5 0.000000 0.000000 0.000000 0.000000 0.059239 0.000000
# 6 0.000000 0.000000 0.000000 0.000000 0.000000 0.063010
#
#
# Mechanical properties :
#
#
# Convention : Reuss Voigt Hill
#
# Bulk Modulus (GPa) = 36.20293 39.42325 37.81309
# Shear Modulus (GPa) = 15.69884 9.73848 12.71866
#
# Velocity S-wave (km/s) = 2.63348 2.07416 2.37038
# Velocity P-wave (km/s) = 5.02397 4.81166 4.91896
#
# Compressibility (1/GPa) = 0.02762207
#
# Stress axis : x y z
#
# Youngs Moduli (GPa) = 20.45731 15.32288 103.55209
#
# Poissons Ratio (x) = 0.65843 -0.32312
# Poissons Ratio (y) = 0.87906 0.85323
# Poissons Ratio (z) = -0.06384 0.12625
#
# Static dielectric constant tensor:
#      x y z
#    x 1.894260 0.000000 0.000000 
#    y 0.000000 1.903630 0.000000 
#    z 0.000000 0.000000 1.937520 
# 
# From -- ./inp_files/1417.got.cif
#   From: 2010.05.17/outbox.cif.g08.bks.cpg/sg41_1_cif.got.tgz:1417.got - 2010.06.03 18:54:24.
