data_PCOD9365176
_publ_section_title
;
Structure prediction by ZEFSAII (Michael W. Deem and Ramdas Pophale) SiO2 
 PCOD9365176
Probable space group: A M A 2
;
_chemical_formula_sum "Si O2"
_cell_formula_units_Z 40
_cell_length_a 26.842962
_cell_length_b 5.163557
_cell_length_c 12.764806
_cell_angle_alpha 90.000000
_cell_angle_beta 90.000000
_cell_angle_gamma 90.000000
_cell_volume 1769.268033
_symmetry_space_group_name_H-M "A M A 2"
_symmetry_group_IT_number 40
_symmetry_cell_setting 'orthorhombic'
loop_
_space_group_symop_operation_xyz
x,y,z
-x,-y,z
1/2-x,y,z
1/2+x,-y,z
x,1/2+y,1/2+z
-x,1/2-y,1/2+z
1/2-x,1/2+y,1/2+z
1/2+x,1/2-y,1/2+z
loop_
_atom_site_type_symbol
_atom_site_label
_atom_site_fract_x
_atom_site_fract_y
_atom_site_fract_z
Si Si1 0.965500 0.244153 0.391010
Si Si2 0.357241 0.357390 0.267890
Si Si3 0.555843 0.907169 0.663765
Si Si4 0.808339 0.120959 0.175232
Si Si5 0.110926 0.456392 0.502795
O O1 0.944736 0.240147 0.272262
O O2 0.920801 0.287143 0.472923
O O3 0.000000 0.500000 0.396969
O O4 0.000000 0.000000 0.408065
O O5 0.406837 0.359671 0.195378
O O6 0.329694 0.618020 0.228129
O O7 0.375306 0.357950 0.387044
O O8 0.321528 0.116291 0.250823
O O9 0.575996 0.732082 0.570514
O O10 0.500000 0.000000 0.646044
O O11 0.750000 0.147186 0.155796
O O12 0.838671 0.042254 0.070373
#
# Coordination Sequence:
#
# PCOD9365176 Si02
#       5
#     8   8   8   8   8
#     4  10  23  41  63  96 137 177 216 262 320 387
#     4  10  24  45  68 100 137 172 220 280 335 397
#     4   9  21  42  68  98 137 179 221 271 326 395
#     4  11  25  46  71  99 132 173 224 283 343 398
#     4  10  24  44  70  99 134 179 227 274 331 397
#
# _framework density 22.608218999999998
#
# number of rings (size 3 to 8) (size 9 to 14) (size 15 to 20)
#    0.000    2.000    0.000    0.600    0.000   25.600 
#    0.000   11.000    0.000    0.000    0.000    0.000 
#    0.000    0.000    0.000    0.000    0.000    0.000 
#
# Total GULP energy -111971.155585 kJ/mol
# GULP energy per Si atom -5598.557779 kJ/mol
# Density = 2.255676 g / cm^3
# Si number density = 22.608219 Si / 1000 Ang^3
#
#
#
# Elastic Constant Matrix: (Units=GPa)
#
#
# Indices 1 2 3 4 5 6 
#
# 1 189.8768 50.7032 68.2212 0.0000 0.0000 0.0000
# 2 50.7032 114.1579 33.1778 0.0000 0.0000 0.0000
# 3 68.2212 33.1778 181.6170 0.0000 0.0000 0.0000
# 4 0.0000 0.0000 0.0000 18.8185 0.0000 0.0000
# 5 0.0000 0.0000 0.0000 0.0000 17.0680 0.0000
# 6 0.0000 0.0000 0.0000 0.0000 0.0000 31.5019
#
#
#
# Elastic Compliance Matrix: (Units=1/GPa)
#
#
# Indices 1 2 3 4 5 6 
#
# 1 0.006635 -0.002347 -0.002063 0.000000 0.000000 0.000000
# 2 -0.002347 0.010081 -0.000960 0.000000 0.000000 0.000000
# 3 -0.002063 -0.000960 0.006457 0.000000 0.000000 0.000000
# 4 0.000000 0.000000 0.000000 0.053139 0.000000 0.000000
# 5 0.000000 0.000000 0.000000 0.000000 0.058589 0.000000
# 6 0.000000 0.000000 0.000000 0.000000 0.000000 0.031744
#
#
# Mechanical properties :
#
#
# Convention : Reuss Voigt Hill
#
# Bulk Modulus (GPa) = 80.44116 87.76179 84.10147
# Shear Modulus (GPa) = 27.54369 35.71432 31.62901
#
# Velocity S-wave (km/s) = 3.49421 3.97886 3.74438
# Velocity P-wave (km/s) = 7.20674 7.74669 7.48159
#
# Compressibility (1/GPa) = 0.01243145
#
# Stress axis : x y z
#
# Youngs Moduli (GPa) = 150.72272 99.19391 154.88123
#
# Poissons Ratio (x) = 0.23282 0.31959
# Poissons Ratio (y) = 0.35376 0.14869
# Poissons Ratio (z) = 0.31101 0.09523
#
# Static dielectric constant tensor:
#      x y z
#    x 1.836450 0.000000 0.000000 
#    y 0.000000 1.875880 0.000000 
#    z 0.000000 0.000000 1.878090 
# 
# From -- ./inp_files/14104.got.cif
#   From: 2010.05.17/outbox.cif.g08.bks.cpg/sg40_8_cif.got.tgz:14104.got - 2010.06.03 18:35:42.
