data_PCOD9365913
_publ_section_title
;
Structure prediction by ZEFSAII (Michael W. Deem and Ramdas Pophale) SiO2 
 PCOD9365913
Probable space group: A B A 2
;
_chemical_formula_sum "Si O2"
_cell_formula_units_Z 64
_cell_length_a 14.463138
_cell_length_b 10.145700
_cell_length_c 17.044880
_cell_angle_alpha 90.000000
_cell_angle_beta 90.000000
_cell_angle_gamma 90.000000
_cell_volume 2501.142838
_symmetry_space_group_name_H-M "A B A 2"
_symmetry_group_IT_number 41
_symmetry_cell_setting 'orthorhombic'
loop_
_space_group_symop_operation_xyz
x,y,z
-x,-y,z
1/2-x,y,1/2+z
1/2+x,-y,1/2+z
x,1/2+y,1/2+z
-x,1/2-y,1/2+z
1/2-x,1/2+y,z
1/2+x,1/2-y,z
loop_
_atom_site_type_symbol
_atom_site_label
_atom_site_fract_x
_atom_site_fract_y
_atom_site_fract_z
Si Si1 0.791581 0.085906 0.361010
Si Si2 0.430358 0.173377 0.381016
Si Si3 0.243482 0.807032 0.016043
Si Si4 0.810117 0.926654 0.742074
Si Si5 0.885066 0.816153 0.201400
Si Si6 0.852204 0.443436 0.541498
Si Si7 0.094230 0.939131 0.608729
Si Si8 0.433980 0.617586 0.370688
O O1 0.727991 0.151014 0.426327
O O2 0.743453 0.051658 0.279808
O O3 0.832905 0.943707 0.387497
O O4 0.871885 0.193494 0.361470
O O5 0.393451 0.094431 0.304993
O O6 0.403272 0.094639 0.460027
O O7 0.530533 0.238698 0.395625
O O8 0.170239 0.903121 0.056215
O O9 0.342166 0.870798 0.043455
O O10 0.261719 0.654378 0.032614
O O11 0.724085 0.826234 0.726649
O O12 0.852750 0.950872 0.657849
O O13 0.898922 0.896905 0.121565
O O14 0.918668 0.672164 0.175966
O O15 0.937479 0.871415 0.276233
O O16 0.000000 0.000000 0.578193
O O17 0.500000 0.500000 0.398944
#
# Coordination Sequence:
#
# PCOD9365913 Si02
#       8
#     8   8   8   8   8   8   8   8
#     4   9  19  33  56  82 108 147 195 243 284 350
#     4  10  19  33  57  81 110 148 191 241 292 351
#     4  10  20  38  58  86 116 149 203 245 292 353
#     4  11  19  34  57  79 115 150 201 236 301 353
#     4  10  21  37  57  83 116 154 200 247 295 365
#     4  10  20  37  59  85 115 154 199 247 290 359
#     4  11  23  36  56  87 123 155 195 253 313 357
#     4   9  19  36  55  83 112 147 190 240 300 354
#
# _framework density 25.588301999999999
#
# number of rings (size 3 to 8) (size 9 to 14) (size 15 to 20)
#    0.000    2.000    2.500    1.500    0.000    3.500 
#    0.000    0.000    0.000    2.250    0.000    0.000 
#    0.000    0.000    0.000    0.000    0.000    0.000 
#
# Total GULP energy -178418.056968 kJ/mol
# GULP energy per Si atom -5575.564280 kJ/mol
# Density = 2.553006 g / cm^3
# Si number density = 25.588302 Si / 1000 Ang^3
#
#
#
# Elastic Constant Matrix: (Units=GPa)
#
#
# Indices 1 2 3 4 5 6 
#
# 1 67.5610 19.4425 22.0378 0.0000 0.0000 0.0000
# 2 19.4425 57.9902 19.1559 0.0000 0.0000 0.0000
# 3 22.0378 19.1559 112.0020 0.0000 0.0000 0.0000
# 4 0.0000 0.0000 0.0000 26.2945 0.0000 0.0000
# 5 0.0000 0.0000 0.0000 0.0000 26.0851 0.0000
# 6 0.0000 0.0000 0.0000 0.0000 0.0000 25.8180
#
#
#
# Elastic Compliance Matrix: (Units=1/GPa)
#
#
# Indices 1 2 3 4 5 6 
#
# 1 0.017026 -0.004877 -0.002516 0.000000 0.000000 0.000000
# 2 -0.004877 0.019674 -0.002405 0.000000 0.000000 0.000000
# 3 -0.002516 -0.002405 0.009835 0.000000 0.000000 0.000000
# 4 0.000000 0.000000 0.000000 0.038031 0.000000 0.000000
# 5 0.000000 0.000000 0.000000 0.000000 0.038336 0.000000
# 6 0.000000 0.000000 0.000000 0.000000 0.000000 0.038733
#
#
# Mechanical properties :
#
#
# Convention : Reuss Voigt Hill
#
# Bulk Modulus (GPa) = 37.12238 39.86951 38.49595
# Shear Modulus (GPa) = 26.28680 27.43401 26.86041
#
# Velocity S-wave (km/s) = 3.20863 3.27789 3.24344
# Velocity P-wave (km/s) = 5.31659 5.47185 5.39477
#
# Compressibility (1/GPa) = 0.02693793
#
# Stress axis : x y z
#
# Youngs Moduli (GPa) = 58.73504 50.82857 101.67968
#
# Poissons Ratio (x) = 0.24790 0.25581
# Poissons Ratio (y) = 0.28646 0.24456
# Poissons Ratio (z) = 0.14777 0.12226
#
# Static dielectric constant tensor:
#      x y z
#    x 2.152260 0.000000 0.000000 
#    y 0.000000 2.095950 0.000000 
#    z 0.000000 0.000000 1.955370 
# 
# From -- ./inp_files/10393.got.cif
#   From: 2010.05.17/outbox.cif.g08.bks.cpg/sg41_6_cif.got.tgz:10393.got - 2010.06.03 18:54:24.
