data_PCOD9365024
_publ_section_title
;
Structure prediction by ZEFSAII (Michael W. Deem and Ramdas Pophale) SiO2 
 PCOD9365024
Probable space group: A M A 2
;
_chemical_formula_sum "Si O2"
_cell_formula_units_Z 64
_cell_length_a 14.759122
_cell_length_b 10.473703
_cell_length_c 19.971916
_cell_angle_alpha 90.000000
_cell_angle_beta 90.000000
_cell_angle_gamma 90.000000
_cell_volume 3087.311908
_symmetry_space_group_name_H-M "A M A 2"
_symmetry_group_IT_number 40
_symmetry_cell_setting 'orthorhombic'
loop_
_space_group_symop_operation_xyz
x,y,z
-x,-y,z
1/2-x,y,z
1/2+x,-y,z
x,1/2+y,1/2+z
-x,1/2-y,1/2+z
1/2-x,1/2+y,1/2+z
1/2+x,1/2-y,1/2+z
loop_
_atom_site_type_symbol
_atom_site_label
_atom_site_fract_x
_atom_site_fract_y
_atom_site_fract_z
Si Si1 0.147277 0.294603 0.328650
Si Si2 0.971863 0.644363 0.452850
Si Si3 0.149555 0.309861 0.719921
Si Si4 0.644327 0.567249 0.574441
Si Si5 0.648385 0.181516 0.454679
Si Si6 0.608646 0.498938 0.838804
Si Si7 0.522790 0.640501 0.207879
Si Si8 0.853184 0.270138 0.598869
O O1 0.250000 0.338336 0.323292
O O2 0.105582 0.317827 0.401206
O O3 0.085018 0.362210 0.273645
O O4 0.141887 0.141528 0.320276
O O5 0.925277 0.641236 0.526333
O O6 0.000000 0.500000 0.439053
O O7 0.060159 0.731854 0.440024
O O8 0.250000 0.252526 0.717095
O O9 0.135046 0.387566 0.650923
O O10 0.143183 0.403912 0.782697
O O11 0.070807 0.208074 0.725954
O O12 0.750000 0.587559 0.554427
O O13 0.627821 0.414237 0.572751
O O14 0.750000 0.235504 0.439330
O O15 0.638653 0.053250 0.411164
O O16 0.645170 0.175389 0.535234
O O17 0.500000 0.500000 0.837256
O O18 0.500000 0.500000 0.182155
O O19 0.576681 0.724506 0.153830
O O20 0.750000 0.272733 0.626041
#
# Coordination Sequence:
#
# PCOD9365024 Si02
#       8
#     8   8   8   8   8   8   8   8
#     4  12  26  44  68  98 129 171 221 275 329 389
#     4  12  23  39  65  97 135 176 217 264 325 387
#     4  11  24  42  68  99 130 168 215 274 332 385
#     4  10  22  41  68 102 132 167 222 278 326 383
#     4  11  23  40  63  96 135 175 219 268 327 389
#     4  12  23  44  70  96 129 165 221 275 333 390
#     4  12  26  45  67  95 134 175 219 267 330 401
#     4  10  22  42  69  99 131 174 221 273 329 387
#
# _framework density 20.730008000000002
#
# number of rings (size 3 to 8) (size 9 to 14) (size 15 to 20)
#    0.000    0.750    3.750    3.750    0.000    3.000 
#    2.250    0.000    0.000    0.000    0.000    0.000 
#    0.000    0.000    0.000    0.000    0.000    0.000 
#
# Total GULP energy -178907.196644 kJ/mol
# GULP energy per Si atom -5590.849895 kJ/mol
# Density = 2.068283 g / cm^3
# Si number density = 20.730008 Si / 1000 Ang^3
#
#
#
# Elastic Constant Matrix: (Units=GPa)
#
#
# Indices 1 2 3 4 5 6 
#
# 1 156.2116 12.0285 36.9941 0.0000 0.0000 0.0000
# 2 12.0285 18.9886 -14.9063 0.0000 0.0000 0.0000
# 3 36.9941 -14.9063 61.1325 0.0000 0.0000 0.0000
# 4 0.0000 0.0000 0.0000 26.6910 0.0000 0.0000
# 5 0.0000 0.0000 0.0000 0.0000 59.3022 0.0000
# 6 0.0000 0.0000 0.0000 0.0000 0.0000 8.9864
#
#
#
# Elastic Compliance Matrix: (Units=1/GPa)
#
#
# Indices 1 2 3 4 5 6 
#
# 1 0.009527 -0.013060 -0.008950 0.000000 0.000000 0.000000
# 2 -0.013060 0.083035 0.028150 0.000000 0.000000 0.000000
# 3 -0.008950 0.028150 0.028638 0.000000 0.000000 0.000000
# 4 0.000000 0.000000 0.000000 0.037466 0.000000 0.000000
# 5 0.000000 0.000000 0.000000 0.000000 0.016863 0.000000
# 6 0.000000 0.000000 0.000000 0.000000 0.000000 0.111279
#
#
# Mechanical properties :
#
#
# Convention : Reuss Voigt Hill
#
# Bulk Modulus (GPa) = 7.49177 33.84059 20.66618
# Shear Modulus (GPa) = 15.67301 32.47701 24.07501
#
# Velocity S-wave (km/s) = 2.75263 3.96241 3.41157
# Velocity P-wave (km/s) = 3.70465 6.10689 5.05067
#
# Compressibility (1/GPa) = 0.13347981
#
# Stress axis : x y z
#
# Youngs Moduli (GPa) = 104.96830 12.04315 34.91890
#
# Poissons Ratio (x) = 0.15729 0.31251
# Poissons Ratio (y) = 1.37092 -0.98298
# Poissons Ratio (z) = 0.93943 -0.33902
#
# Static dielectric constant tensor:
#      x y z
#    x 1.761570 0.000000 0.000000 
#    y 0.000000 1.721420 0.000000 
#    z 0.000000 0.000000 1.731620 
# 
# From -- ./inp_files/20786.got.cif
#   From: 2010.05.17/outbox.cif.g08.bks.cpg/sg40_11_cif.got.tgz:20786.got - 2010.06.03 18:35:42.
