data_PCOD9365168
_publ_section_title
;
Structure prediction by ZEFSAII (Michael W. Deem and Ramdas Pophale) SiO2 
 PCOD9365168
Probable space group: A M A 2
;
_chemical_formula_sum "Si O2"
_cell_formula_units_Z 32
_cell_length_a 13.971907
_cell_length_b 17.907579
_cell_length_c 5.187606
_cell_angle_alpha 90.000000
_cell_angle_beta 90.000000
_cell_angle_gamma 90.000000
_cell_volume 1297.954731
_symmetry_space_group_name_H-M "A M A 2"
_symmetry_group_IT_number 40
_symmetry_cell_setting 'orthorhombic'
loop_
_space_group_symop_operation_xyz
x,y,z
-x,-y,z
1/2-x,y,z
1/2+x,-y,z
x,1/2+y,1/2+z
-x,1/2-y,1/2+z
1/2-x,1/2+y,1/2+z
1/2+x,1/2-y,1/2+z
loop_
_atom_site_type_symbol
_atom_site_label
_atom_site_fract_x
_atom_site_fract_y
_atom_site_fract_z
Si Si1 0.077073 0.933252 0.662570
Si Si2 0.043200 0.782675 0.375335
Si Si3 0.750000 0.372230 0.716079
Si Si4 0.750000 0.268902 0.228440
Si Si5 0.885909 0.008068 0.171385
O O1 0.031455 0.858905 0.541918
O O2 0.147421 0.958612 0.439619
O O3 0.129184 0.935360 0.935977
O O4 0.000000 0.000000 0.696555
O O5 0.149385 0.774804 0.252694
O O6 0.977878 0.774905 0.115849
O O7 0.750000 0.312605 0.494795
O O8 0.838755 0.427496 0.658971
O O9 0.750000 0.327846 0.988462
O O10 0.000000 0.000000 0.196799
#
# Coordination Sequence:
#
# PCOD9365168 Si02
#       5
#     8   8   4   4   8
#     4  10  23  43  74 106 148 191 264 313 397 468
#     4  12  28  48  78 113 165 213 262 338 408 481
#     4  12  26  46  74 114 156 209 257 346 393 489
#     4  12  30  46  76 114 162 207 281 308 421 499
#     4  10  23  40  71 106 146 189 261 319 393 457
#
# _framework density 24.654171999999999
#
# number of rings (size 3 to 8) (size 9 to 14) (size 15 to 20)
#    0.000    1.000    0.000    4.500   21.000    2.000 
#    0.000    0.000    0.000    0.000    0.000    0.000 
#    0.000    0.000    0.000    0.000    0.000    0.000 
#
# Total GULP energy -89214.189667 kJ/mol
# GULP energy per Si atom -5575.886854 kJ/mol
# Density = 2.459806 g / cm^3
# Si number density = 24.654172 Si / 1000 Ang^3
#
#
#
# Elastic Constant Matrix: (Units=GPa)
#
#
# Indices 1 2 3 4 5 6 
#
# 1 183.9297 2.8843 -5.6974 0.0000 0.0000 0.0000
# 2 2.8843 151.8526 57.9700 0.0000 0.0000 0.0000
# 3 -5.6974 57.9700 228.1513 0.0000 0.0000 0.0000
# 4 0.0000 0.0000 0.0000 51.5299 0.0000 0.0000
# 5 0.0000 0.0000 0.0000 0.0000 14.9872 0.0000
# 6 0.0000 0.0000 0.0000 0.0000 0.0000 -70.7397
#
#
#
# Elastic Compliance Matrix: (Units=1/GPa)
#
#
# Indices 1 2 3 4 5 6 
#
# 1 0.005445 -0.000172 0.000180 0.000000 0.000000 0.000000
# 2 -0.000172 0.007298 -0.001859 0.000000 0.000000 0.000000
# 3 0.000180 -0.001859 0.004860 0.000000 0.000000 0.000000
# 4 0.000000 0.000000 0.000000 0.019406 0.000000 0.000000
# 5 0.000000 0.000000 0.000000 0.000000 0.066723 0.000000
# 6 0.000000 0.000000 0.000000 0.000000 0.000000 -0.014136
#
#
# Mechanical properties :
#
#
# Convention : Reuss Voigt Hill
#
# Bulk Modulus (GPa) = 71.93677 74.91637 73.42657
# Shear Modulus (GPa) = 51.05579 33.07392 42.06485
#
# Velocity S-wave (km/s) = 4.55563 3.66664 4.13509
# Velocity P-wave (km/s) = 7.54409 6.95547 7.25575
#
# Compressibility (1/GPa) = 0.01390110
#
# Stress axis : x y z
#
# Youngs Moduli (GPa) = 183.65054 137.02112 205.76972
#
# Poissons Ratio (x) = 0.02357 -0.03697
# Poissons Ratio (y) = 0.03159 0.38245
# Poissons Ratio (z) = -0.03300 0.25467
#
# Static dielectric constant tensor:
#      x y z
#    x 1.917420 0.000000 0.000000 
#    y 0.000000 1.890780 0.000000 
#    z 0.000000 0.000000 2.032490 
# 
# From -- ./inp_files/1067.got.cif
#   From: 2010.05.17/outbox.cif.g08.bks.cpg/sg40_1_cif.got.tgz:1067.got - 2010.06.03 18:35:42.
