data_PCOD9365453
_publ_section_title
;
Structure prediction by ZEFSAII (Michael W. Deem and Ramdas Pophale) SiO2 
 PCOD9365453
Probable space group: A M A 2
;
_chemical_formula_sum "Si O2"
_cell_formula_units_Z 36
_cell_length_a 10.223904
_cell_length_b 23.935792
_cell_length_c 6.334328
_cell_angle_alpha 90.000000
_cell_angle_beta 90.000000
_cell_angle_gamma 90.000000
_cell_volume 1550.119263
_symmetry_space_group_name_H-M "A M A 2"
_symmetry_group_IT_number 40
_symmetry_cell_setting 'orthorhombic'
loop_
_space_group_symop_operation_xyz
x,y,z
-x,-y,z
1/2-x,y,z
1/2+x,-y,z
x,1/2+y,1/2+z
-x,1/2-y,1/2+z
1/2-x,1/2+y,1/2+z
1/2+x,1/2-y,1/2+z
loop_
_atom_site_type_symbol
_atom_site_label
_atom_site_fract_x
_atom_site_fract_y
_atom_site_fract_z
Si Si1 0.750000 0.892653 0.175681
Si Si2 0.042098 0.349355 0.147036
Si Si3 0.047652 0.053009 0.876974
Si Si4 0.750000 0.313848 0.036785
Si Si5 0.250000 0.510783 0.027869
Si Si6 0.250000 0.886127 0.327667
Si Si7 0.750000 0.191357 0.944374
O O1 0.750000 0.833382 0.291198
O O2 0.750000 0.939437 0.357828
O O3 0.872050 0.906066 0.027156
O O4 0.122572 0.307477 0.294006
O O5 0.057094 0.408519 0.265102
O O6 0.888248 0.337540 0.122306
O O7 0.120812 0.358026 0.931233
O O8 0.131164 0.024355 0.689078
O O9 0.000000 0.000000 0.009945
O O10 0.750000 0.248077 0.075425
O O11 0.250000 0.451653 0.900675
O O12 0.250000 0.864117 0.088781
#
# Coordination Sequence:
#
# PCOD9365453 Si02
#       7
#     4   8   8   4   4   4   4
#     4  11  26  38  68 110 137 200 250 295 387 458
#     4  11  26  50  70 107 150 189 252 322 369 454
#     4  11  23  41  69 104 153 192 241 317 378 451
#     4  12  27  52  76 104 151 199 265 321 375 450
#     4  11  22  42  66 107 151 193 242 311 376 457
#     4  11  26  47  75 105 153 193 246 298 399 451
#     4  11  31  47  77 108 144 207 255 323 381 448
#
# _framework density 23.224018999999998
#
# number of rings (size 3 to 8) (size 9 to 14) (size 15 to 20)
#    0.000    0.889    4.444    0.667    9.333    0.889 
#    4.000    0.000    0.000    0.000    0.000    0.000 
#    0.000    0.000    0.000    0.000    0.000    0.000 
#
# Total GULP energy -100494.662023 kJ/mol
# GULP energy per Si atom -5583.036779 kJ/mol
# Density = 2.317116 g / cm^3
# Si number density = 23.224019 Si / 1000 Ang^3
#
#
#
# Elastic Constant Matrix: (Units=GPa)
#
#
# Indices 1 2 3 4 5 6 
#
# 1 126.6034 18.7629 37.0970 0.0000 0.0000 0.0000
# 2 18.7629 89.1024 17.0437 0.0000 0.0000 0.0000
# 3 37.0970 17.0437 90.0555 0.0000 0.0000 0.0000
# 4 0.0000 0.0000 0.0000 30.9343 0.0000 0.0000
# 5 0.0000 0.0000 0.0000 0.0000 -2.8884 0.0000
# 6 0.0000 0.0000 0.0000 0.0000 0.0000 21.7170
#
#
#
# Elastic Compliance Matrix: (Units=1/GPa)
#
#
# Indices 1 2 3 4 5 6 
#
# 1 0.009114 -0.001246 -0.003519 0.000000 0.000000 0.000000
# 2 -0.001246 0.011815 -0.001723 0.000000 0.000000 0.000000
# 3 -0.003519 -0.001723 0.012880 0.000000 0.000000 0.000000
# 4 0.000000 0.000000 0.000000 0.032327 0.000000 0.000000
# 5 0.000000 0.000000 0.000000 0.000000 -0.346211 0.000000
# 6 0.000000 0.000000 0.000000 0.000000 0.000000 0.046047
#
#
# Mechanical properties :
#
#
# Convention : Reuss Voigt Hill
#
# Bulk Modulus (GPa) = 47.99864 50.17428 49.08646
# Shear Modulus (GPa) = -23.35271 25.47640 1.06185
#
# Velocity S-wave (km/s) = -3.17447 3.31567 0.67691
# Velocity P-wave (km/s) = 2.69745 6.02574 4.66829
#
# Compressibility (1/GPa) = 0.02083392
#
# Stress axis : x y z
#
# Youngs Moduli (GPa) = 109.71634 84.63816 77.64111
#
# Poissons Ratio (x) = 0.10548 0.27319
# Poissons Ratio (y) = 0.13673 0.13375
# Poissons Ratio (z) = 0.38606 0.14581
#
# Static dielectric constant tensor:
#      x y z
#    x 1.925470 0.000000 0.000000 
#    y 0.000000 1.856970 0.000000 
#    z 0.000000 0.000000 1.863930 
# 
# From -- ./inp_files/770.got.cif
#   From: 2010.05.17/outbox.cif.g08.bks.cpg/sg40_1_cif.got.tgz:770.got - 2010.06.03 18:35:42.
