data_PCOD9365537
_publ_section_title
;
Structure prediction by ZEFSAII (Michael W. Deem and Ramdas Pophale) SiO2 
 PCOD9365537
Probable space group: A M A 2
;
_chemical_formula_sum "Si O2"
_cell_formula_units_Z 40
_cell_length_a 14.091237
_cell_length_b 9.426068
_cell_length_c 11.049429
_cell_angle_alpha 90.000000
_cell_angle_beta 90.000000
_cell_angle_gamma 90.000000
_cell_volume 1467.639945
_symmetry_space_group_name_H-M "A M A 2"
_symmetry_group_IT_number 40
_symmetry_cell_setting 'orthorhombic'
loop_
_space_group_symop_operation_xyz
x,y,z
-x,-y,z
1/2-x,y,z
1/2+x,-y,z
x,1/2+y,1/2+z
-x,1/2-y,1/2+z
1/2-x,1/2+y,1/2+z
1/2+x,1/2-y,1/2+z
loop_
_atom_site_type_symbol
_atom_site_label
_atom_site_fract_x
_atom_site_fract_y
_atom_site_fract_z
Si Si1 0.750000 0.663714 0.897100
Si Si2 0.534981 0.833263 0.489789
Si Si3 0.750000 0.479879 0.508532
Si Si4 0.250000 0.962912 0.746062
Si Si5 0.250000 0.619205 0.044371
Si Si6 0.428995 0.283276 0.241032
Si Si7 0.387008 0.984810 0.216230
O O1 0.660723 0.619790 0.812218
O O2 0.750000 0.547607 0.005101
O O3 0.750000 0.815489 0.963751
O O4 0.648245 0.829592 0.503670
O O5 0.500000 0.000000 0.473540
O O6 0.516670 0.733356 0.370495
O O7 0.491466 0.781208 0.617875
O O8 0.750000 0.563539 0.386778
O O9 0.659707 0.526942 0.586071
O O10 0.250000 0.120176 0.690534
O O11 0.356950 0.910692 0.718514
O O12 0.500000 0.000000 0.215581
O O13 0.360145 0.146736 0.247213
#
# Coordination Sequence:
#
# PCOD9365537 Si02
#       7
#     4   8   4   4   4   8   8
#     4  11  24  53  82 109 164 212 270 327 416 483
#     4  12  28  53  81 123 164 221 278 338 417 500
#     4  11  29  51  77 120 167 211 272 346 404 491
#     4  12  27  51  75 116 166 210 275 344 413 493
#     4  12  24  51  78 109 161 211 271 325 413 487
#     4  12  27  51  83 116 164 216 273 348 412 492
#     4  11  26  50  81 119 154 215 276 333 408 491
#
# _framework density 27.254639000000001
#
# number of rings (size 3 to 8) (size 9 to 14) (size 15 to 20)
#    0.000    0.400    4.000    3.600    2.800    3.200 
#    3.600    1.000    0.000    0.000    0.000    0.000 
#    0.000    0.000    0.000    0.000    0.000    0.000 
#
# Total GULP energy -111781.322382 kJ/mol
# GULP energy per Si atom -5589.066119 kJ/mol
# Density = 2.719261 g / cm^3
# Si number density = 27.254639 Si / 1000 Ang^3
#
#
#
# Elastic Constant Matrix: (Units=GPa)
#
#
# Indices 1 2 3 4 5 6 
#
# 1 210.9450 17.8061 91.2487 0.0000 0.0000 0.0000
# 2 17.8061 100.2849 19.7141 0.0000 0.0000 0.0000
# 3 91.2487 19.7141 234.0528 0.0000 0.0000 0.0000
# 4 0.0000 0.0000 0.0000 45.0440 0.0000 0.0000
# 5 0.0000 0.0000 0.0000 0.0000 30.1912 0.0000
# 6 0.0000 0.0000 0.0000 0.0000 0.0000 22.7417
#
#
#
# Elastic Compliance Matrix: (Units=1/GPa)
#
#
# Indices 1 2 3 4 5 6 
#
# 1 0.005736 -0.000589 -0.002187 0.000000 0.000000 0.000000
# 2 -0.000589 0.010200 -0.000630 0.000000 0.000000 0.000000
# 3 -0.002187 -0.000630 0.005178 0.000000 0.000000 0.000000
# 4 0.000000 0.000000 0.000000 0.022200 0.000000 0.000000
# 5 0.000000 0.000000 0.000000 0.000000 0.033122 0.000000
# 6 0.000000 0.000000 0.000000 0.000000 0.000000 0.043972
#
#
# Mechanical properties :
#
#
# Convention : Reuss Voigt Hill
#
# Bulk Modulus (GPa) = 69.90982 89.20229 79.55605
# Shear Modulus (GPa) = 37.88248 47.36296 42.62272
#
# Velocity S-wave (km/s) = 3.73224 4.17321 3.95887
# Velocity P-wave (km/s) = 6.65426 7.48473 7.08168
#
# Compressibility (1/GPa) = 0.01430414
#
# Stress axis : x y z
#
# Youngs Moduli (GPa) = 174.33190 98.04036 193.12060
#
# Poissons Ratio (x) = 0.05771 0.42231
# Poissons Ratio (y) = 0.10261 0.12160
# Poissons Ratio (z) = 0.38122 0.06173
#
# Static dielectric constant tensor:
#      x y z
#    x 2.184810 0.000000 0.000000 
#    y 0.000000 2.243550 0.000000 
#    z 0.000000 0.000000 2.257040 
# 
# From -- ./inp_files/7189.got.cif
#   From: 2010.05.17/outbox.cif.g08.bks.cpg/sg40_4_cif.got.tgz:7189.got - 2010.06.03 18:35:42.
