data_PCOD9365425
_publ_section_title
;
Structure prediction by ZEFSAII (Michael W. Deem and Ramdas Pophale) SiO2 
 PCOD9365425
Probable space group: A M A 2
;
_chemical_formula_sum "Si O2"
_cell_formula_units_Z 64
_cell_length_a 14.085936
_cell_length_b 13.567687
_cell_length_c 13.202665
_cell_angle_alpha 90.000000
_cell_angle_beta 90.000000
_cell_angle_gamma 90.000000
_cell_volume 2523.208452
_symmetry_space_group_name_H-M "A M A 2"
_symmetry_group_IT_number 40
_symmetry_cell_setting 'orthorhombic'
loop_
_space_group_symop_operation_xyz
x,y,z
-x,-y,z
1/2-x,y,z
1/2+x,-y,z
x,1/2+y,1/2+z
-x,1/2-y,1/2+z
1/2-x,1/2+y,1/2+z
1/2+x,1/2-y,1/2+z
loop_
_atom_site_type_symbol
_atom_site_label
_atom_site_fract_x
_atom_site_fract_y
_atom_site_fract_z
Si Si1 0.634923 0.631302 0.650600
Si Si2 0.633637 0.348902 0.501611
Si Si3 0.601369 0.045049 0.709025
Si Si4 0.138741 0.864470 0.494942
Si Si5 0.642363 0.839432 0.645606
Si Si6 0.632966 0.921967 0.436474
Si Si7 0.864693 0.062010 0.929148
Si Si8 0.134107 0.581493 0.719821
O O1 0.750000 0.623306 0.659295
O O2 0.601808 0.738130 0.689569
O O3 0.609625 0.620598 0.531096
O O4 0.602546 0.532199 0.705622
O O5 0.750000 0.349466 0.497812
O O6 0.599467 0.242211 0.466569
O O7 0.602724 0.448338 0.445315
O O8 0.605237 0.361834 0.619030
O O9 0.652382 0.938271 0.711059
O O10 0.500000 0.000000 0.685145
O O11 0.633775 0.112482 0.616028
O O12 0.603924 0.095290 0.818057
O O13 0.250000 0.860060 0.467859
O O14 0.102499 0.963825 0.443759
O O15 0.750000 0.811343 0.619676
O O16 0.597711 0.868427 0.537493
O O17 0.750000 0.922690 0.441505
O O18 0.604728 0.878987 0.328818
O O19 0.750000 0.062594 0.926974
O O20 0.250000 0.582874 0.719194
#
# Coordination Sequence:
#
# PCOD9365425 Si02
#       8
#     8   8   8   8   8   8   8   8
#     4   8  15  27  47  73  98 121 151 192 242 290
#     4   8  15  27  47  73  98 121 151 192 242 290
#     4  11  22  34  47  68  98 135 171 203 239 283
#     4   9  17  31  49  70  94 124 160 200 241 284
#     4   9  17  31  49  70  94 124 160 200 241 284
#     4   8  14  23  38  61  90 117 145 182 228 275
#     4   9  17  32  52  76 102 127 157 199 244 291
#     4   8  13  23  40  69 100 117 137 184 241 291
#
# _framework density 25.364529999999998
#
# number of rings (size 3 to 8) (size 9 to 14) (size 15 to 20)
#    0.000    3.250    0.000    3.375    0.000    2.000 
#    0.000    8.750    0.000    0.000    0.000   14.000 
#    0.000    0.000    0.000    0.000    0.000    0.000 
#
# Total GULP energy -178644.481470 kJ/mol
# GULP energy per Si atom -5582.640046 kJ/mol
# Density = 2.530680 g / cm^3
# Si number density = 25.364530 Si / 1000 Ang^3
#
#
#
# Elastic Constant Matrix: (Units=GPa)
#
#
# Indices 1 2 3 4 5 6 
#
# 1 60.8724 16.2879 4.0850 0.0000 0.0000 0.0000
# 2 16.2879 77.7392 -23.6180 0.0000 0.0000 0.0000
# 3 4.0850 -23.6180 83.0656 0.0000 0.0000 0.0000
# 4 0.0000 0.0000 0.0000 -6.4019 0.0000 0.0000
# 5 0.0000 0.0000 0.0000 0.0000 40.0212 0.0000
# 6 0.0000 0.0000 0.0000 0.0000 0.0000 5.1690
#
#
#
# Elastic Compliance Matrix: (Units=1/GPa)
#
#
# Indices 1 2 3 4 5 6 
#
# 1 0.017735 -0.004357 -0.002111 0.000000 0.000000 0.000000
# 2 -0.004357 0.015150 0.004522 0.000000 0.000000 0.000000
# 3 -0.002111 0.004522 0.013428 0.000000 0.000000 0.000000
# 4 0.000000 0.000000 0.000000 -0.156204 0.000000 0.000000
# 5 0.000000 0.000000 0.000000 0.000000 0.024987 0.000000
# 6 0.000000 0.000000 0.000000 0.000000 0.000000 0.193460
#
#
# Mechanical properties :
#
#
# Convention : Reuss Voigt Hill
#
# Bulk Modulus (GPa) = 23.57320 23.90966 23.74143
# Shear Modulus (GPa) = 39.49774 22.75249 31.12512
#
# Velocity S-wave (km/s) = 3.95042 2.99828 3.50682
# Velocity P-wave (km/s) = 5.48833 4.62959 5.07715
#
# Compressibility (1/GPa) = 0.04242105
#
# Stress axis : x y z
#
# Youngs Moduli (GPa) = 56.38452 66.00540 74.46996
#
# Poissons Ratio (x) = 0.28760 0.15721
# Poissons Ratio (y) = 0.24568 -0.33675
# Poissons Ratio (z) = 0.11903 -0.29847
#
# Static dielectric constant tensor:
#      x y z
#    x 1.513200 0.000000 0.000000 
#    y 0.000000 1.996940 0.000000 
#    z 0.000000 0.000000 1.929150 
# 
# From -- ./inp_files/17945.got.cif
#   From: 2010.05.17/outbox.cif.g08.bks.cpg/sg40_9_cif.got.tgz:17945.got - 2010.06.03 18:35:42.
