data_PCOD9365265
_publ_section_title
;
Structure prediction by ZEFSAII (Michael W. Deem and Ramdas Pophale) SiO2 
 PCOD9365265
Probable space group: A M A 2
;
_chemical_formula_sum "Si O2"
_cell_formula_units_Z 28
_cell_length_a 27.010968
_cell_length_b 5.193880
_cell_length_c 9.076515
_cell_angle_alpha 90.000000
_cell_angle_beta 90.000000
_cell_angle_gamma 90.000000
_cell_volume 1273.359960
_symmetry_space_group_name_H-M "A M A 2"
_symmetry_group_IT_number 40
_symmetry_cell_setting 'orthorhombic'
loop_
_space_group_symop_operation_xyz
x,y,z
-x,-y,z
1/2-x,y,z
1/2+x,-y,z
x,1/2+y,1/2+z
-x,1/2-y,1/2+z
1/2-x,1/2+y,1/2+z
1/2+x,1/2-y,1/2+z
loop_
_atom_site_type_symbol
_atom_site_label
_atom_site_fract_x
_atom_site_fract_y
_atom_site_fract_z
Si Si1 0.308504 0.433742 0.260140
Si Si2 0.454874 0.164836 0.097435
Si Si3 0.000000 0.500000 0.314112
Si Si4 0.846450 0.066294 0.093810
O O1 0.250000 0.487681 0.263047
O O2 0.318332 0.168011 0.174391
O O3 0.328480 0.410743 0.425978
O O4 0.335408 0.668565 0.177321
O O5 0.456555 0.406820 0.205011
O O6 0.403868 0.015169 0.096199
O O7 0.500000 0.000000 0.163147
O O8 0.474458 0.197498 0.930489
#
# Coordination Sequence:
#
# PCOD9365265 Si02
#       4
#     8   8   4   8
#     4  12  26  48  71 103 137 179 233 293 344 406
#     4  10  26  41  68  98 139 176 224 273 334 409
#     4  10  24  40  66  90 142 172 220 270 330 390
#     4  12  27  44  76 101 139 182 232 278 355 407
#
# _framework density 21.989068
#
# number of rings (size 3 to 8) (size 9 to 14) (size 15 to 20)
#    0.857    0.000    0.000    6.000   10.000    0.000 
#    0.000    0.000    0.000    0.000    0.000    0.000 
#    0.000    0.000    0.000    0.000    0.000    0.000 
#
# Total GULP energy -78220.626017 kJ/mol
# GULP energy per Si atom -5587.187573 kJ/mol
# Density = 2.193902 g / cm^3
# Si number density = 21.989068 Si / 1000 Ang^3
#
#
#
# Elastic Constant Matrix: (Units=GPa)
#
#
# Indices 1 2 3 4 5 6 
#
# 1 106.2157 -21.3665 8.8365 0.0000 0.0000 0.0000
# 2 -21.3665 78.0274 48.3549 0.0000 0.0000 0.0000
# 3 8.8365 48.3549 180.8108 0.0000 0.0000 0.0000
# 4 0.0000 0.0000 0.0000 108.6444 0.0000 0.0000
# 5 0.0000 0.0000 0.0000 0.0000 -26.5941 0.0000
# 6 0.0000 0.0000 0.0000 0.0000 0.0000 20.2373
#
#
#
# Elastic Compliance Matrix: (Units=1/GPa)
#
#
# Indices 1 2 3 4 5 6 
#
# 1 0.010295 0.003753 -0.001507 0.000000 0.000000 0.000000
# 2 0.003753 0.016730 -0.004658 0.000000 0.000000 0.000000
# 3 -0.001507 -0.004658 0.006850 0.000000 0.000000 0.000000
# 4 0.000000 0.000000 0.000000 0.009204 0.000000 0.000000
# 5 0.000000 0.000000 0.000000 0.000000 -0.037602 0.000000
# 6 0.000000 0.000000 0.000000 0.000000 0.000000 0.049414
#
#
# Mechanical properties :
#
#
# Convention : Reuss Voigt Hill
#
# Bulk Modulus (GPa) = 34.42088 48.52265 41.47176
# Shear Modulus (GPa) = 72.04839 42.40612 57.22725
#
# Velocity S-wave (km/s) = 5.73033 4.39624 5.10704
# Velocity P-wave (km/s) = 7.71167 6.91982 7.32645
#
# Compressibility (1/GPa) = 0.02905213
#
# Stress axis : x y z
#
# Youngs Moduli (GPa) = 97.13356 59.77255 145.98783
#
# Poissons Ratio (x) = -0.22432 0.21997
# Poissons Ratio (y) = -0.36454 0.67995
# Poissons Ratio (z) = 0.14636 0.27840
#
# Static dielectric constant tensor:
#      x y z
#    x 2.018620 0.000000 0.000000 
#    y 0.000000 -2.257130 0.000000 
#    z 0.000000 0.000000 1.758920 
# 
# From -- ./inp_files/9002.got.cif
#   From: 2010.05.17/outbox.cif.g08.bks.cpg/sg40_5_cif.got.tgz:9002.got - 2010.06.03 18:35:42.
