data_PCOD9365340
_publ_section_title
;
Structure prediction by ZEFSAII (Michael W. Deem and Ramdas Pophale) SiO2 
 PCOD9365340
Probable space group: A M A 2
;
_chemical_formula_sum "Si O2"
_cell_formula_units_Z 32
_cell_length_a 8.686095
_cell_length_b 16.002786
_cell_length_c 9.221800
_cell_angle_alpha 90.000000
_cell_angle_beta 90.000000
_cell_angle_gamma 90.000000
_cell_volume 1281.846057
_symmetry_space_group_name_H-M "A M A 2"
_symmetry_group_IT_number 40
_symmetry_cell_setting 'orthorhombic'
loop_
_space_group_symop_operation_xyz
x,y,z
-x,-y,z
1/2-x,y,z
1/2+x,-y,z
x,1/2+y,1/2+z
-x,1/2-y,1/2+z
1/2-x,1/2+y,1/2+z
1/2+x,1/2-y,1/2+z
loop_
_atom_site_type_symbol
_atom_site_label
_atom_site_fract_x
_atom_site_fract_y
_atom_site_fract_z
Si Si1 0.750000 0.569782 0.809911
Si Si2 0.250000 0.848737 0.825083
Si Si3 0.750000 0.208299 0.536094
Si Si4 0.500000 0.000000 0.096955
Si Si5 0.250000 0.579537 0.047061
Si Si6 0.417992 0.242021 0.523221
Si Si7 0.250000 0.038516 0.891346
O O1 0.605598 0.553810 0.704347
O O2 0.750000 0.659643 0.885797
O O3 0.750000 0.497746 0.936408
O O4 0.250000 0.863379 0.656881
O O5 0.392740 0.791689 0.873809
O O6 0.250000 0.937602 0.896868
O O7 0.592472 0.257165 0.564679
O O8 0.398785 0.057332 0.988514
O O9 0.250000 0.563701 0.222069
O O10 0.394545 0.641488 0.012968
O O11 0.250000 0.265129 0.596445
#
# Coordination Sequence:
#
# PCOD9365340 Si02
#       7
#     4   4   4   4   4   8   4
#     4  11  21  42  66 101 135 186 245 294 385 434
#     4   9  23  46  64 109 138 184 263 293 349 461
#     4  12  20  44  82  93 136 204 236 308 361 444
#     4  10  26  38  56 104 146 182 224 310 372 430
#     4   9  20  41  74 100 140 181 255 308 351 461
#     4   8  23  44  61 112 139 171 242 308 365 423
#     4  11  22  43  70  99 147 197 235 313 376 432
#
# _framework density 24.963996000000002
#
# number of rings (size 3 to 8) (size 9 to 14) (size 15 to 20)
#    1.500    0.500    1.250    1.500    3.500    1.000 
#   20.250    1.250    0.000    0.000    0.000    0.000 
#    0.000    0.000    0.000    0.000    0.000    0.000 
#
# Total GULP energy -89110.010780 kJ/mol
# GULP energy per Si atom -5569.375674 kJ/mol
# Density = 2.490718 g / cm^3
# Si number density = 24.963996 Si / 1000 Ang^3
#
#
#
# Elastic Constant Matrix: (Units=GPa)
#
#
# Indices 1 2 3 4 5 6 
#
# 1 202.2460 22.9517 43.6093 0.0000 0.0000 0.0000
# 2 22.9517 99.8347 68.4695 0.0000 0.0000 0.0000
# 3 43.6093 68.4695 179.1938 0.0000 0.0000 0.0000
# 4 0.0000 0.0000 0.0000 33.0858 0.0000 0.0000
# 5 0.0000 0.0000 0.0000 0.0000 10.4115 0.0000
# 6 0.0000 0.0000 0.0000 0.0000 0.0000 -173.3708
#
#
#
# Elastic Compliance Matrix: (Units=1/GPa)
#
#
# Indices 1 2 3 4 5 6 
#
# 1 0.005233 -0.000447 -0.001103 0.000000 0.000000 0.000000
# 2 -0.000447 0.013612 -0.005092 0.000000 0.000000 0.000000
# 3 -0.001103 -0.005092 0.007795 0.000000 0.000000 0.000000
# 4 0.000000 0.000000 0.000000 0.030224 0.000000 0.000000
# 5 0.000000 0.000000 0.000000 0.000000 0.096047 0.000000
# 6 0.000000 0.000000 0.000000 0.000000 0.000000 -0.005768
#
#
# Mechanical properties :
#
#
# Convention : Reuss Voigt Hill
#
# Bulk Modulus (GPa) = 74.87424 83.48171 79.17797
# Shear Modulus (GPa) = 30.32530 -2.89178 13.71676
#
# Velocity S-wave (km/s) = 3.48912 -1.07745 2.34660
# Velocity P-wave (km/s) = 6.80367 5.65381 6.25522
#
# Compressibility (1/GPa) = 0.01335573
#
# Stress axis : x y z
#
# Youngs Moduli (GPa) = 191.09625 73.46624 128.29241
#
# Poissons Ratio (x) = 0.03282 0.14149
# Poissons Ratio (y) = 0.08536 0.65330
# Poissons Ratio (z) = 0.21075 0.37411
#
# Static dielectric constant tensor:
#      x y z
#    x 2.089600 0.000000 0.000000 
#    y 0.000000 1.944810 0.000000 
#    z 0.000000 0.000000 1.967910 
# 
# From -- ./inp_files/4099.got.cif
#   From: 2010.05.17/outbox.cif.g08.bks.cpg/sg40_3_cif.got.tgz:4099.got - 2010.06.03 18:35:42.
