data_PCOD9365303
_publ_section_title
;
Structure prediction by ZEFSAII (Michael W. Deem and Ramdas Pophale) SiO2 
 PCOD9365303
Probable space group: A M A 2
;
_chemical_formula_sum "Si O2"
_cell_formula_units_Z 56
_cell_length_a 15.091018
_cell_length_b 5.191857
_cell_length_c 28.225812
_cell_angle_alpha 90.000000
_cell_angle_beta 90.000000
_cell_angle_gamma 90.000000
_cell_volume 2211.503871
_symmetry_space_group_name_H-M "A M A 2"
_symmetry_group_IT_number 40
_symmetry_cell_setting 'orthorhombic'
loop_
_space_group_symop_operation_xyz
x,y,z
-x,-y,z
1/2-x,y,z
1/2+x,-y,z
x,1/2+y,1/2+z
-x,1/2-y,1/2+z
1/2-x,1/2+y,1/2+z
1/2+x,1/2-y,1/2+z
loop_
_atom_site_type_symbol
_atom_site_label
_atom_site_fract_x
_atom_site_fract_y
_atom_site_fract_z
Si Si1 0.099122 0.901850 0.497040
Si Si2 0.852675 0.595224 0.441539
Si Si3 0.250000 0.564434 0.719085
Si Si4 0.592608 0.099831 0.675669
Si Si5 0.356126 0.912206 0.832749
Si Si6 0.095218 0.900318 0.275358
Si Si7 0.846804 0.829208 0.584185
Si Si8 0.500000 0.000000 0.104546
O O1 0.142059 0.120612 0.463521
O O2 0.144835 0.931559 0.548396
O O3 0.102588 0.624867 0.472998
O O4 0.000000 0.000000 0.501975
O O5 0.750000 0.517958 0.440306
O O6 0.884824 0.597889 0.387421
O O7 0.329792 0.771084 0.705334
O O8 0.170600 0.365994 0.736173
O O9 0.553501 0.309361 0.638594
O O10 0.500000 0.000000 0.699160
O O11 0.636907 0.898942 0.638943
O O12 0.250000 0.965868 0.830260
O O13 0.406481 0.140267 0.805720
O O14 0.370047 0.634817 0.808605
O O15 0.000000 0.000000 0.257920
O O16 0.750000 0.710995 0.578722
O O17 0.928130 0.644609 0.573196
#
# Coordination Sequence:
#
# PCOD9365303 Si02
#       8
#     8   8   4   8   8   8   8   4
#     4  12  26  43  68 109 153 197 254 311 369 436
#     4  11  25  44  74 107 146 199 251 311 368 451
#     4  12  26  50  74 112 148 190 252 320 378 450
#     4  10  24  48  73 106 147 195 243 307 378 453
#     4  11  23  50  75 106 153 197 247 307 390 451
#     4  12  27  47  78 112 149 200 248 314 383 466
#     4  11  24  45  72 103 150 197 247 305 374 440
#     4  10  24  44  70 106 136 202 238 304 362 460
#
# _framework density 25.322132
#
# number of rings (size 3 to 8) (size 9 to 14) (size 15 to 20)
#    0.000    0.857    2.143    4.286    6.000    6.857 
#    7.714    0.000    0.000    0.000    0.000    0.000 
#    0.000    0.000    0.000    0.000    0.000    0.000 
#
# Total GULP energy -156418.934243 kJ/mol
# GULP energy per Si atom -5586.390509 kJ/mol
# Density = 2.526450 g / cm^3
# Si number density = 25.322132 Si / 1000 Ang^3
#
#
#
# Elastic Constant Matrix: (Units=GPa)
#
#
# Indices 1 2 3 4 5 6 
#
# 1 162.7139 -3.2864 19.7746 0.0000 0.0000 0.0000
# 2 -3.2864 104.4663 41.6730 0.0000 0.0000 0.0000
# 3 19.7746 41.6730 113.6587 0.0000 0.0000 0.0000
# 4 0.0000 0.0000 0.0000 34.4353 0.0000 0.0000
# 5 0.0000 0.0000 0.0000 0.0000 4.5676 0.0000
# 6 0.0000 0.0000 0.0000 0.0000 0.0000 26.5731
#
#
#
# Elastic Compliance Matrix: (Units=1/GPa)
#
#
# Indices 1 2 3 4 5 6 
#
# 1 0.006328 0.000748 -0.001375 0.000000 0.000000 0.000000
# 2 0.000748 0.011301 -0.004273 0.000000 0.000000 0.000000
# 3 -0.001375 -0.004273 0.010604 0.000000 0.000000 0.000000
# 4 0.000000 0.000000 0.000000 0.029040 0.000000 0.000000
# 5 0.000000 0.000000 0.000000 0.000000 0.218934 0.000000
# 6 0.000000 0.000000 0.000000 0.000000 0.000000 0.037632
#
#
# Mechanical properties :
#
#
# Convention : Reuss Voigt Hill
#
# Bulk Modulus (GPa) = 54.25586 55.24015 54.74800
# Shear Modulus (GPa) = 15.16139 34.62705 24.89422
#
# Velocity S-wave (km/s) = 2.44957 3.70193 3.13885
# Velocity P-wave (km/s) = 5.42893 6.33520 5.89949
#
# Compressibility (1/GPa) = 0.01843119
#
# Stress axis : x y z
#
# Youngs Moduli (GPa) = 158.02864 88.48982 94.30067
#
# Poissons Ratio (x) = -0.06616 0.12967
# Poissons Ratio (y) = -0.11814 0.40299
# Poissons Ratio (z) = 0.21730 0.37816
#
# Static dielectric constant tensor:
#      x y z
#    x 1.999510 0.000000 0.000000 
#    y 0.000000 2.012090 0.000000 
#    z 0.000000 0.000000 1.998930 
# 
# From -- ./inp_files/26625.got.cif
#   From: 2010.05.17/outbox.cif.g08.bks.cpg/sg40_14_cif.got.tgz:26625.got - 2010.06.03 18:35:42.
