data_PCOD9365020
_publ_section_title
;
Structure prediction by ZEFSAII (Michael W. Deem and Ramdas Pophale) SiO2 
 PCOD9365020
Probable space group: A M A 2
;
_chemical_formula_sum "Si O2"
_cell_formula_units_Z 56
_cell_length_a 18.419418
_cell_length_b 9.356434
_cell_length_c 15.639899
_cell_angle_alpha 90.000000
_cell_angle_beta 90.000000
_cell_angle_gamma 90.000000
_cell_volume 2695.381270
_symmetry_space_group_name_H-M "A M A 2"
_symmetry_group_IT_number 40
_symmetry_cell_setting 'orthorhombic'
loop_
_space_group_symop_operation_xyz
x,y,z
-x,-y,z
1/2-x,y,z
1/2+x,-y,z
x,1/2+y,1/2+z
-x,1/2-y,1/2+z
1/2-x,1/2+y,1/2+z
1/2+x,1/2-y,1/2+z
loop_
_atom_site_type_symbol
_atom_site_label
_atom_site_fract_x
_atom_site_fract_y
_atom_site_fract_z
Si Si1 0.334457 0.699926 0.277160
Si Si2 0.943019 0.720929 0.498671
Si Si3 0.469507 0.157993 0.168931
Si Si4 0.336333 0.578257 0.086481
Si Si5 0.167379 0.246072 0.087378
Si Si6 0.974174 0.663372 0.841005
Si Si7 0.333102 0.522827 0.440665
O O1 0.250000 0.744963 0.282152
O O2 0.349264 0.651502 0.179538
O O3 0.390462 0.817207 0.313350
O O4 0.342976 0.565772 0.341921
O O5 0.883980 0.844244 0.515115
O O6 0.895138 0.581289 0.476396
O O7 0.988393 0.713557 0.586161
O O8 0.999806 0.752789 0.424072
O O9 0.385263 0.159479 0.148644
O O10 0.485173 0.231619 0.258754
O O11 0.500000 0.000000 0.180144
O O12 0.250000 0.589536 0.069647
O O13 0.355713 0.410950 0.087193
O O14 0.250000 0.240847 0.117171
O O15 0.163976 0.169001 0.995719
O O16 0.000000 0.500000 0.854036
O O17 0.250000 0.466114 0.452405
#
# Coordination Sequence:
#
# PCOD9365020 Si02
#       7
#     8   8   8   8   8   8   8
#     4  10  22  45  70  96 132 174 227 276 332 403
#     4  12  24  42  67  95 136 174 221 281 330 398
#     4  11  23  44  64  94 131 170 223 271 334 396
#     4  10  23  43  69  99 132 176 225 275 334 402
#     4  10  22  41  67  97 131 172 219 272 332 394
#     4  11  27  44  63 101 137 175 226 278 338 400
#     4  10  22  41  69 100 132 176 224 270 334 404
#
# _framework density 20.776281999999998
#
# number of rings (size 3 to 8) (size 9 to 14) (size 15 to 20)
#    0.000    1.429    2.857    1.286    6.000    0.000 
#    0.000    4.286    0.000    0.000    0.000    0.000 
#    0.000    0.000    0.000    0.000    0.000    0.000 
#
# Total GULP energy -156359.694429 kJ/mol
# GULP energy per Si atom -5584.274801 kJ/mol
# Density = 2.072899 g / cm^3
# Si number density = 20.776282 Si / 1000 Ang^3
#
#
#
# Elastic Constant Matrix: (Units=GPa)
#
#
# Indices 1 2 3 4 5 6 
#
# 1 85.7483 42.3953 26.1948 0.0000 0.0000 0.0000
# 2 42.3953 72.7533 4.1545 0.0000 0.0000 0.0000
# 3 26.1948 4.1545 91.4335 0.0000 0.0000 0.0000
# 4 0.0000 0.0000 0.0000 17.1017 0.0000 0.0000
# 5 0.0000 0.0000 0.0000 0.0000 31.9738 0.0000
# 6 0.0000 0.0000 0.0000 0.0000 0.0000 29.2013
#
#
#
# Elastic Compliance Matrix: (Units=1/GPa)
#
#
# Indices 1 2 3 4 5 6 
#
# 1 0.018233 -0.010353 -0.004753 0.000000 0.000000 0.000000
# 2 -0.010353 0.019660 0.002073 0.000000 0.000000 0.000000
# 3 -0.004753 0.002073 0.012204 0.000000 0.000000 0.000000
# 4 0.000000 0.000000 0.000000 0.058474 0.000000 0.000000
# 5 0.000000 0.000000 0.000000 0.000000 0.031276 0.000000
# 6 0.000000 0.000000 0.000000 0.000000 0.000000 0.034245
#
#
# Mechanical properties :
#
#
# Convention : Reuss Voigt Hill
#
# Bulk Modulus (GPa) = 41.61474 43.93605 42.77540
# Shear Modulus (GPa) = 24.01895 27.46806 25.74350
#
# Velocity S-wave (km/s) = 3.40380 3.64000 3.52388
# Velocity P-wave (km/s) = 5.95997 6.23372 6.09838
#
# Compressibility (1/GPa) = 0.02402994
#
# Stress axis : x y z
#
# Youngs Moduli (GPa) = 54.84585 50.86495 81.93735
#
# Poissons Ratio (x) = 0.52662 0.38946
# Poissons Ratio (y) = 0.56784 -0.16984
# Poissons Ratio (z) = 0.26069 -0.10544
#
# Static dielectric constant tensor:
#      x y z
#    x 1.769150 0.000000 0.000000 
#    y 0.000000 1.748690 0.000000 
#    z 0.000000 0.000000 1.763930 
# 
# From -- ./inp_files/18211.got.cif
#   From: 2010.05.17/outbox.cif.g08.bks.cpg/sg40_10_cif.got.tgz:18211.got - 2010.06.03 18:35:42.
