data_PCOD9365555
_publ_section_title
;
Structure prediction by ZEFSAII (Michael W. Deem and Ramdas Pophale) SiO2 
 PCOD9365555
Probable space group: A M A 2
;
_chemical_formula_sum "Si O2"
_cell_formula_units_Z 40
_cell_length_a 17.995292
_cell_length_b 12.008419
_cell_length_c 8.273285
_cell_angle_alpha 90.000000
_cell_angle_beta 90.000000
_cell_angle_gamma 90.000000
_cell_volume 1787.815575
_symmetry_space_group_name_H-M "A M A 2"
_symmetry_group_IT_number 40
_symmetry_cell_setting 'orthorhombic'
loop_
_space_group_symop_operation_xyz
x,y,z
-x,-y,z
1/2-x,y,z
1/2+x,-y,z
x,1/2+y,1/2+z
-x,1/2-y,1/2+z
1/2-x,1/2+y,1/2+z
1/2+x,1/2-y,1/2+z
loop_
_atom_site_type_symbol
_atom_site_label
_atom_site_fract_x
_atom_site_fract_y
_atom_site_fract_z
Si Si1 0.411378 0.011292 0.677400
Si Si2 0.837813 0.265057 0.196392
Si Si3 0.837604 0.019124 0.328643
Si Si4 0.068090 0.314561 0.404057
Si Si5 0.040687 0.607857 0.682950
O O1 0.371342 0.003731 0.504927
O O2 0.394699 0.909364 0.795780
O O3 0.500000 0.000000 0.654949
O O4 0.383842 0.127569 0.752734
O O5 0.750000 0.288399 0.195905
O O6 0.850988 0.149624 0.290651
O O7 0.870292 0.238665 0.019603
O O8 0.750000 0.000131 0.330068
O O9 0.875598 0.939142 0.193766
O O10 0.036302 0.217674 0.290740
O O11 0.003622 0.365935 0.518642
O O12 0.000000 0.500000 0.757402
#
# Coordination Sequence:
#
# PCOD9365555 Si02
#       5
#     8   8   8   8   8
#     4  12  27  44  76 110 148 198 253 308 372 446
#     4  11  26  49  73 108 154 195 247 312 378 452
#     4  11  26  50  76 105 151 201 247 311 384 449
#     4  12  28  43  78 109 150 198 252 304 375 445
#     4  12  26  47  75 111 153 192 250 311 371 447
#
# _framework density 22.373674000000001
#
# number of rings (size 3 to 8) (size 9 to 14) (size 15 to 20)
#    0.000    0.400    4.000    3.000    2.800    3.200 
#    0.000    0.000    0.000    0.000    0.000    0.000 
#    0.000    0.000    0.000    0.000    0.000    0.000 
#
# Total GULP energy -111921.038630 kJ/mol
# GULP energy per Si atom -5596.051932 kJ/mol
# Density = 2.232275 g / cm^3
# Si number density = 22.373674 Si / 1000 Ang^3
#
#
#
# Elastic Constant Matrix: (Units=GPa)
#
#
# Indices 1 2 3 4 5 6 
#
# 1 134.5777 66.6471 22.7451 0.0000 0.0000 0.0000
# 2 66.6471 178.9727 44.7603 0.0000 0.0000 0.0000
# 3 22.7451 44.7603 54.5653 0.0000 0.0000 0.0000
# 4 0.0000 0.0000 0.0000 26.4395 0.0000 0.0000
# 5 0.0000 0.0000 0.0000 0.0000 21.5619 0.0000
# 6 0.0000 0.0000 0.0000 0.0000 0.0000 40.7566
#
#
#
# Elastic Compliance Matrix: (Units=1/GPa)
#
#
# Indices 1 2 3 4 5 6 
#
# 1 0.009182 -0.003098 -0.001287 0.000000 0.000000 0.000000
# 2 -0.003098 0.008075 -0.005332 0.000000 0.000000 0.000000
# 3 -0.001287 -0.005332 0.023237 0.000000 0.000000 0.000000
# 4 0.000000 0.000000 0.000000 0.037822 0.000000 0.000000
# 5 0.000000 0.000000 0.000000 0.000000 0.046378 0.000000
# 6 0.000000 0.000000 0.000000 0.000000 0.000000 0.024536
#
#
# Mechanical properties :
#
#
# Convention : Reuss Voigt Hill
#
# Bulk Modulus (GPa) = 47.48160 70.71341 59.09750
# Shear Modulus (GPa) = 28.46030 33.34915 30.90473
#
# Velocity S-wave (km/s) = 3.57044 3.86496 3.72061
# Velocity P-wave (km/s) = 6.18592 7.18272 6.70287
#
# Compressibility (1/GPa) = 0.02106079
#
# Stress axis : x y z
#
# Youngs Moduli (GPa) = 108.90768 123.84606 43.03450
#
# Poissons Ratio (x) = 0.38362 0.05537
# Poissons Ratio (y) = 0.33734 0.22948
# Poissons Ratio (z) = 0.14012 0.66040
#
# Static dielectric constant tensor:
#      x y z
#    x 1.855640 0.000000 0.000000 
#    y 0.000000 1.862140 0.000000 
#    z 0.000000 0.000000 1.825430 
# 
# From -- ./inp_files/7133.got.cif
#   From: 2010.05.17/outbox.cif.g08.bks.cpg/sg40_4_cif.got.tgz:7133.got - 2010.06.03 18:35:42.
