data_PCOD9365480
_publ_section_title
;
Structure prediction by ZEFSAII (Michael W. Deem and Ramdas Pophale) SiO2 
 PCOD9365480
Probable space group: A M A 2
;
_chemical_formula_sum "Si O2"
_cell_formula_units_Z 32
_cell_length_a 22.239001
_cell_length_b 7.573336
_cell_length_c 7.343219
_cell_angle_alpha 90.000000
_cell_angle_beta 90.000000
_cell_angle_gamma 90.000000
_cell_volume 1236.770108
_symmetry_space_group_name_H-M "A M A 2"
_symmetry_group_IT_number 40
_symmetry_cell_setting 'orthorhombic'
loop_
_space_group_symop_operation_xyz
x,y,z
-x,-y,z
1/2-x,y,z
1/2+x,-y,z
x,1/2+y,1/2+z
-x,1/2-y,1/2+z
1/2-x,1/2+y,1/2+z
1/2+x,1/2-y,1/2+z
loop_
_atom_site_type_symbol
_atom_site_label
_atom_site_fract_x
_atom_site_fract_y
_atom_site_fract_z
Si Si1 0.442777 0.255090 0.307520
Si Si2 0.250000 0.883245 0.094087
Si Si3 0.576629 0.328888 0.223252
Si Si4 0.250000 0.158876 0.316803
Si Si5 0.349426 0.149962 0.044709
O O1 0.514784 0.242669 0.295721
O O2 0.420305 0.208002 0.509142
O O3 0.368764 0.232838 0.852907
O O4 0.411460 0.131730 0.156213
O O5 0.308656 0.978304 0.010017
O O6 0.250000 0.689922 0.028093
O O7 0.250000 0.947454 0.296981
O O8 0.571999 0.541001 0.255605
O O9 0.306165 0.231824 0.200385
#
# Coordination Sequence:
#
# PCOD9365480 Si02
#       5
#     8   4   8   4   8
#     4  11  23  41  64  96 136 178 225 279 346 412
#     4   8  18  36  66  95 134 179 231 279 340 398
#     4  11  23  41  64  96 136 178 225 279 346 412
#     4   8  18  36  66  95 134 179 231 279 340 398
#     4   9  20  38  66  98 134 179 226 286 334 413
#
# _framework density 25.873849
#
# number of rings (size 3 to 8) (size 9 to 14) (size 15 to 20)
#    1.500    0.500    2.500    1.500    0.000    2.000 
#    0.000    5.000    0.000   15.000    0.000    0.000 
#    0.000    0.000    0.000    0.000    0.000    0.000 
#
# Total GULP energy -89254.631942 kJ/mol
# GULP energy per Si atom -5578.414496 kJ/mol
# Density = 2.581496 g / cm^3
# Si number density = 25.873849 Si / 1000 Ang^3
#
#
#
# Elastic Constant Matrix: (Units=GPa)
#
#
# Indices 1 2 3 4 5 6 
#
# 1 108.9295 24.3878 6.2324 0.0000 0.0000 0.0000
# 2 24.3878 71.1360 58.5170 0.0000 0.0000 0.0000
# 3 6.2324 58.5170 173.3187 0.0000 0.0000 0.0000
# 4 0.0000 0.0000 0.0000 62.4458 0.0000 0.0000
# 5 0.0000 0.0000 0.0000 0.0000 -40.7248 0.0000
# 6 0.0000 0.0000 0.0000 0.0000 0.000016844.8940
#
#
#
# Elastic Compliance Matrix: (Units=1/GPa)
#
#
# Indices 1 2 3 4 5 6 
#
# 1 0.010097 -0.004379 0.001115 0.000000 0.000000 0.000000
# 2 -0.004379 0.021362 -0.007055 0.000000 0.000000 0.000000
# 3 0.001115 -0.007055 0.008112 0.000000 0.000000 0.000000
# 4 0.000000 0.000000 0.000000 0.016014 0.000000 0.000000
# 5 0.000000 0.000000 0.000000 0.000000 -0.024555 0.000000
# 6 0.000000 0.000000 0.000000 0.000000 0.000000 0.000059
#
#
# Mechanical properties :
#
#
# Convention : Reuss Voigt Hill
#
# Bulk Modulus (GPa) = 52.81670 59.07318 55.94494
# Shear Modulus (GPa) = 86.15105 3390.93948 1738.54526
#
# Velocity S-wave (km/s) = 5.77658 36.24102 25.94976
# Velocity P-wave (km/s) = 8.05911 42.12002 30.32363
#
# Compressibility (1/GPa) = 0.01893340
#
# Stress axis : x y z
#
# Youngs Moduli (GPa) = 99.04075 46.81120 123.28059
#
# Poissons Ratio (x) = 0.20499 -0.13751
# Poissons Ratio (y) = 0.43371 0.86975
# Poissons Ratio (z) = -0.11047 0.33026
#
# Static dielectric constant tensor:
#      x y z
#    x 2.056060 0.000000 0.000000 
#    y 0.000000 2.113710 0.000000 
#    z 0.000000 0.000000 2.011940 
# 
# From -- ./inp_files/3290.got.cif
#   From: 2010.05.17/outbox.cif.g08.bks.cpg/sg40_2_cif.got.tgz:3290.got - 2010.06.03 18:35:42.
