data_PCOD9365650
_publ_section_title
;
Structure prediction by ZEFSAII (Michael W. Deem and Ramdas Pophale) SiO2 
 PCOD9365650
Probable space group: A M A 2
;
_chemical_formula_sum "Si O2"
_cell_formula_units_Z 28
_cell_length_a 9.000000
_cell_length_b 21.000000
_cell_length_c 15.000000
_cell_angle_alpha 90.000000
_cell_angle_beta 90.000000
_cell_angle_gamma 90.000000
_cell_volume 2835.000000
_symmetry_space_group_name_H-M "A M A 2"
_symmetry_group_IT_number 40
_symmetry_cell_setting 'orthorhombic'
loop_
_space_group_symop_operation_xyz
x,y,z
-x,-y,z
1/2-x,y,z
1/2+x,-y,z
x,1/2+y,1/2+z
-x,1/2-y,1/2+z
1/2-x,1/2+y,1/2+z
1/2+x,1/2-y,1/2+z
loop_
_atom_site_type_symbol
_atom_site_label
_atom_site_fract_x
_atom_site_fract_y
_atom_site_fract_z
Si Si1 0.570411 0.570171 0.598000
Si Si2 0.423571 0.611080 0.414535
Si Si3 0.920854 0.560163 0.246976
Si Si4 0.583912 0.230407 0.837170
Si Si5 0.575463 0.568811 0.056835
Si Si6 0.571231 0.795390 0.147538
Si Si7 0.582134 0.306196 0.014329
O O1 0.500000 0.500000 0.620523
O O2 0.750000 0.567885 0.606201
O O3 0.521500 0.586211 0.496290
O O4 0.502814 0.633771 0.645893
O O5 0.250000 0.605986 0.435861
O O6 0.472692 0.572182 0.328473
O O7 0.469275 0.680366 0.378600
O O8 0.750000 0.551440 0.273059
O O9 0.926940 0.601640 0.158033
O O10 0.000000 0.500000 0.203744
O O11 0.750000 0.199163 0.828809
O O12 0.546474 0.260869 0.742494
O O13 0.593961 0.282194 0.913545
O O14 0.500000 0.500000 0.037306
O O15 0.750000 0.560729 0.038716
O O16 0.496188 0.625832 0.006679
O O17 0.750000 0.801741 0.133644
O O18 0.501697 0.748614 0.072192
O O19 0.750000 0.312916 0.051662
#
# Coordination Sequence:
#
# PCOD9365650 Si02
#       7
#     8   8   8   8   8   8   8
#     4  12  25  43  65  91 127 170 217 271 332 392
#     4  12  23  36  58  89 122 159 206 256 312 379
#     4  10  20  34  52  78 115 154 193 240 299 362
#     4  10  23  41  62  89 125 163 205 258 317 377
#     4  10  21  37  58  85 119 160 204 255 311 374
#     4  11  23  42  66  95 128 168 215 266 322 385
#     4  11  22  39  63  91 124 164 205 256 314 375
#
# _framework density 9.8765429999999999
#
# number of rings (size 3 to 8) (size 9 to 14) (size 15 to 20)
#    0.000    1.143    1.429    5.571    0.000    6.857 
#    0.000    0.714    0.000    0.000    0.000    0.000 
#    0.000    0.000    0.000    0.000    0.000    0.000 
#
# Total GULP energy -155894.381200 kJ/mol
# GULP energy per Si atom -5567.656471 kJ/mol
# Density = 0.985406 g / cm^3
# Si number density = 9.876543 Si / 1000 Ang^3
#
#
#
# Elastic Constant Matrix: (Units=GPa)
#
#
# Indices 1 2 3 4 5 6 
#
# 1 123.4787 51.0557 16.7562 0.0000 0.0000 0.0000
# 2 51.0557 126.2948 20.4195 0.0000 0.0000 0.0000
# 3 16.7562 20.4195 60.3849 0.0000 0.0000 0.0000
# 4 0.0000 0.0000 0.0000 16.5362 0.0000 0.0000
# 5 0.0000 0.0000 0.0000 0.0000 16.9866 0.0000
# 6 0.0000 0.0000 0.0000 0.0000 0.0000 21.1123
#
#
#
# Elastic Compliance Matrix: (Units=1/GPa)
#
#
# Indices 1 2 3 4 5 6 
#
# 1 0.009845 -0.003743 -0.001466 0.000000 0.000000 0.000000
# 2 -0.003743 0.009799 -0.002275 0.000000 0.000000 0.000000
# 3 -0.001466 -0.002275 0.017737 0.000000 0.000000 0.000000
# 4 0.000000 0.000000 0.000000 0.060474 0.000000 0.000000
# 5 0.000000 0.000000 0.000000 0.000000 0.058870 0.000000
# 6 0.000000 0.000000 0.000000 0.000000 0.000000 0.047366
#
#
# Mechanical properties :
#
#
# Convention : Reuss Voigt Hill
#
# Bulk Modulus (GPa) = 44.61806 54.06903 49.34355
# Shear Modulus (GPa) = 22.07224 25.72213 23.89719
#
# Velocity S-wave (km/s) = 3.34639 3.61249 3.48198
# Velocity P-wave (km/s) = 6.12928 6.69567 6.41872
#
# Compressibility (1/GPa) = 0.02241245
#
# Stress axis : x y z
#
# Youngs Moduli (GPa) = 101.57285 102.05223 56.38061
#
# Poissons Ratio (x) = 0.38197 0.08267
# Poissons Ratio (y) = 0.38018 0.12826
# Poissons Ratio (z) = 0.14893 0.23216
#
# Static dielectric constant tensor:
#      x y z
#    x 1.703020 0.000000 0.000000 
#    y 0.000000 1.754090 0.000000 
#    z 0.000000 0.000000 1.735270 
# 
# From -- ./inp_files/15324.got.cif
#   From: 2010.05.17/outbox.ucp.g08.bks.cvg/sg40_8_cif.got.tgz:15324.got - 2010.06.11 16:26:39.
