data_PCOD9365654
_publ_section_title
;
Structure prediction by ZEFSAII (Michael W. Deem and Ramdas Pophale) SiO2 
 PCOD9365654
Probable space group: A M A 2
;
_chemical_formula_sum "Si O2"
_cell_formula_units_Z 32
_cell_length_a 9.000000
_cell_length_b 30.000000
_cell_length_c 12.000000
_cell_angle_alpha 90.000000
_cell_angle_beta 90.000000
_cell_angle_gamma 90.000000
_cell_volume 3240.000000
_symmetry_space_group_name_H-M "A M A 2"
_symmetry_group_IT_number 40
_symmetry_cell_setting 'orthorhombic'
loop_
_space_group_symop_operation_xyz
x,y,z
-x,-y,z
1/2-x,y,z
1/2+x,-y,z
x,1/2+y,1/2+z
-x,1/2-y,1/2+z
1/2-x,1/2+y,1/2+z
1/2+x,1/2-y,1/2+z
loop_
_atom_site_type_symbol
_atom_site_label
_atom_site_fract_x
_atom_site_fract_y
_atom_site_fract_z
Si Si1 0.921134 0.360066 0.965960
Si Si2 0.427876 0.870463 0.231713
Si Si3 0.574577 0.816590 0.029035
Si Si4 0.417560 0.809721 0.799571
Si Si5 0.071638 0.548922 0.616439
Si Si6 0.079993 0.231847 0.605463
Si Si7 0.426659 0.048350 0.865765
Si Si8 0.417123 0.400846 0.165160
O O1 0.750000 0.371656 0.941034
O O2 0.012807 0.356044 0.852428
O O3 0.919622 0.313633 0.034268
O O4 0.995815 0.395734 0.049521
O O5 0.250000 0.869065 0.226626
O O6 0.500077 0.840883 0.133909
O O7 0.491066 0.919510 0.204242
O O8 0.750000 0.825777 0.023578
O O9 0.537053 0.764851 0.049889
O O10 0.493239 0.826325 0.912644
O O11 0.250000 0.792035 0.820361
O O12 0.524229 0.776562 0.731634
O O13 0.404201 0.851492 0.717032
O O14 0.250000 0.547315 0.632226
O O15 0.044393 0.567493 0.490172
O O16 0.000000 0.500000 0.621180
O O17 0.250000 0.249179 0.605150
O O18 0.250000 0.045529 0.853648
O O19 0.495527 0.073133 0.760746
O O20 0.500000 0.000000 0.867643
O O21 0.250000 0.418594 0.149503
#
# Coordination Sequence:
#
# PCOD9365654 Si02
#       8
#     8   8   8   8   8   8   8   8
#     4  10  22  41  63  85 116 157 201 247 301 362
#     4  12  25  41  62  89 122 160 207 254 305 364
#     4  12  25  39  59  86 119 156 199 249 300 355
#     4  10  21  38  59  84 114 148 190 237 291 350
#     4  10  21  39  63  92 126 162 203 249 307 364
#     4  10  22  40  61  85 115 153 197 246 302 359
#     4  10  20  34  57  88 121 155 192 241 295 354
#     4  10  20  36  59  85 115 151 191 237 290 350
#
# _framework density 9.8765429999999999
#
# number of rings (size 3 to 8) (size 9 to 14) (size 15 to 20)
#    0.000    1.500    0.000    5.250    1.750    6.500 
#    0.000    0.625    0.000    0.000    0.000    0.000 
#    0.000    0.000    0.000    0.000    0.000    0.000 
#
# Total GULP energy -178708.561766 kJ/mol
# GULP energy per Si atom -5584.642555 kJ/mol
# Density = 0.985406 g / cm^3
# Si number density = 9.876543 Si / 1000 Ang^3
#
#
#
# Elastic Constant Matrix: (Units=GPa)
#
#
# Indices 1 2 3 4 5 6 
#
# 1 154.0345 14.7349 60.2370 0.0000 0.0000 0.0000
# 2 14.7349 26.4463 7.7342 0.0000 0.0000 0.0000
# 3 60.2370 7.7342 111.1224 0.0000 0.0000 0.0000
# 4 0.0000 0.0000 0.0000 21.3529 0.0000 0.0000
# 5 0.0000 0.0000 0.0000 0.0000 20.4732 0.0000
# 6 0.0000 0.0000 0.0000 0.0000 0.0000 29.5073
#
#
#
# Elastic Compliance Matrix: (Units=1/GPa)
#
#
# Indices 1 2 3 4 5 6 
#
# 1 0.008540 -0.003475 -0.004388 0.000000 0.000000 0.000000
# 2 -0.003475 0.040012 -0.000901 0.000000 0.000000 0.000000
# 3 -0.004388 -0.000901 0.011440 0.000000 0.000000 0.000000
# 4 0.000000 0.000000 0.000000 0.046832 0.000000 0.000000
# 5 0.000000 0.000000 0.000000 0.000000 0.048844 0.000000
# 6 0.000000 0.000000 0.000000 0.000000 0.000000 0.033890
#
#
# Mechanical properties :
#
#
# Convention : Reuss Voigt Hill
#
# Bulk Modulus (GPa) = 23.54878 50.77948 37.16413
# Shear Modulus (GPa) = 22.59968 28.19314 25.39641
#
# Velocity S-wave (km/s) = 3.38614 3.78203 3.58955
# Velocity P-wave (km/s) = 5.21875 6.69586 6.00291
#
# Compressibility (1/GPa) = 0.04246504
#
# Stress axis : x y z
#
# Youngs Moduli (GPa) = 117.09146 24.99235 87.41076
#
# Poissons Ratio (x) = 0.08685 0.38353
# Poissons Ratio (y) = 0.40692 0.07876
# Poissons Ratio (z) = 0.51376 0.02252
#
# Static dielectric constant tensor:
#      x y z
#    x 1.676540 0.000000 0.000000 
#    y 0.000000 1.735780 0.000000 
#    z 0.000000 0.000000 1.678610 
# 
# From -- ./inp_files/10581.got.cif
#   From: 2010.05.17/outbox.ucp.g08.bks.cvg/sg40_6_cif.got.tgz:10581.got - 2010.06.11 16:26:39.
