data_PCOD9365347
_publ_section_title
;
Structure prediction by ZEFSAII (Michael W. Deem and Ramdas Pophale) SiO2 
 PCOD9365347
Probable space group: A M A 2
;
_chemical_formula_sum "Si O2"
_cell_formula_units_Z 40
_cell_length_a 19.101147
_cell_length_b 10.282002
_cell_length_c 9.180549
_cell_angle_alpha 90.000000
_cell_angle_beta 90.000000
_cell_angle_gamma 90.000000
_cell_volume 1803.041753
_symmetry_space_group_name_H-M "A M A 2"
_symmetry_group_IT_number 40
_symmetry_cell_setting 'orthorhombic'
loop_
_space_group_symop_operation_xyz
x,y,z
-x,-y,z
1/2-x,y,z
1/2+x,-y,z
x,1/2+y,1/2+z
-x,1/2-y,1/2+z
1/2-x,1/2+y,1/2+z
1/2+x,1/2-y,1/2+z
loop_
_atom_site_type_symbol
_atom_site_label
_atom_site_fract_x
_atom_site_fract_y
_atom_site_fract_z
Si Si1 0.900647 0.170801 0.500000
Si Si2 0.143917 0.388879 0.704526
Si Si3 0.250000 0.607346 0.812723
Si Si4 0.250000 0.161131 0.658729
Si Si5 0.750000 0.120655 0.643016
Si Si6 0.500000 0.500000 0.186036
Si Si7 0.923366 0.966009 0.969793
O O1 0.912384 0.132993 0.331273
O O2 0.822969 0.123963 0.550980
O O3 0.899840 0.325007 0.517595
O O4 0.964572 0.110701 0.590181
O O5 0.186218 0.515716 0.760287
O O6 0.186318 0.254356 0.702287
O O7 0.123816 0.422800 0.539359
O O8 0.250000 0.748343 0.737716
O O9 0.250000 0.632271 0.985794
O O10 0.250000 0.017406 0.728095
O O11 0.562500 0.462635 0.297358
O O12 0.000000 0.000000 0.031749
#
# Coordination Sequence:
#
# PCOD9365347 Si02
#       7
#     8   8   4   4   4   4   8
#     4  12  26  48  75 105 149 190 254 300 373 437
#     4  11  25  45  73 103 143 196 239 303 367 439
#     4  11  23  45  70 109 143 187 238 303 371 433
#     4  11  26  41  69 110 146 184 242 306 379 429
#     4  12  25  46  77 109 143 189 246 309 362 440
#     4  10  30  46  68 110 142 198 236 308 370 440
#     4  10  27  44  69 104 140 192 244 296 364 442
#
# _framework density 22.184733000000001
#
# number of rings (size 3 to 8) (size 9 to 14) (size 15 to 20)
#    0.600    0.400    4.000    0.600    9.800    0.000 
#    0.000    0.000    0.000    0.000    0.000    0.000 
#    0.000    0.000    0.000    0.000    0.000    0.000 
#
# Total GULP energy -111558.316110 kJ/mol
# GULP energy per Si atom -5577.915806 kJ/mol
# Density = 2.213424 g / cm^3
# Si number density = 22.184733 Si / 1000 Ang^3
#
#
#
# Elastic Constant Matrix: (Units=GPa)
#
#
# Indices 1 2 3 4 5 6 
#
# 1 33.3208 27.3489 30.3664 0.0000 0.0000 0.0000
# 2 27.3489 168.5575 35.2855 0.0000 0.0000 0.0000
# 3 30.3664 35.2855 88.9863 0.0000 0.0000 0.0000
# 4 0.0000 0.0000 0.0000 24.2074 0.0000 0.0000
# 5 0.0000 0.0000 0.0000 0.0000 28.4401 0.0000
# 6 0.0000 0.0000 0.0000 0.0000 0.0000 29.7626
#
#
#
# Elastic Compliance Matrix: (Units=1/GPa)
#
#
# Indices 1 2 3 4 5 6 
#
# 1 0.046637 -0.004619 -0.014083 0.000000 0.000000 0.000000
# 2 -0.004619 0.006927 -0.001171 0.000000 0.000000 0.000000
# 3 -0.014083 -0.001171 0.016508 0.000000 0.000000 0.000000
# 4 0.000000 0.000000 0.000000 0.041310 0.000000 0.000000
# 5 0.000000 0.000000 0.000000 0.000000 0.035162 0.000000
# 6 0.000000 0.000000 0.000000 0.000000 0.000000 0.033599
#
#
# Mechanical properties :
#
#
# Convention : Reuss Voigt Hill
#
# Bulk Modulus (GPa) = 32.97457 52.98513 42.97985
# Shear Modulus (GPa) = 21.73943 29.67294 25.70619
#
# Velocity S-wave (km/s) = 3.13378 3.66121 3.40771
# Velocity P-wave (km/s) = 5.29055 6.46591 5.90754
#
# Compressibility (1/GPa) = 0.03032640
#
# Stress axis : x y z
#
# Youngs Moduli (GPa) = 21.44222 144.35924 60.57748
#
# Poissons Ratio (x) = 0.66676 0.85313
# Poissons Ratio (y) = 0.09904 0.07092
# Poissons Ratio (z) = 0.30198 0.16899
#
# Static dielectric constant tensor:
#      x y z
#    x 1.885780 0.000000 0.000000 
#    y 0.000000 1.776630 0.000000 
#    z 0.000000 0.000000 1.837970 
# 
# From -- ./inp_files/8630.got.cif
#   From: 2010.05.17/outbox.cif.g08.bks.cpg/sg40_5_cif.got.tgz:8630.got - 2010.06.03 18:35:42.
