data_PCOD9365222
_publ_section_title
;
Structure prediction by ZEFSAII (Michael W. Deem and Ramdas Pophale) SiO2 
 PCOD9365222
Probable space group: A M A 2
;
_chemical_formula_sum "Si O2"
_cell_formula_units_Z 64
_cell_length_a 16.720040
_cell_length_b 15.160759
_cell_length_c 12.030762
_cell_angle_alpha 90.000000
_cell_angle_beta 90.000000
_cell_angle_gamma 90.000000
_cell_volume 3049.659776
_symmetry_space_group_name_H-M "A M A 2"
_symmetry_group_IT_number 40
_symmetry_cell_setting 'orthorhombic'
loop_
_space_group_symop_operation_xyz
x,y,z
-x,-y,z
1/2-x,y,z
1/2+x,-y,z
x,1/2+y,1/2+z
-x,1/2-y,1/2+z
1/2-x,1/2+y,1/2+z
1/2+x,1/2-y,1/2+z
loop_
_atom_site_type_symbol
_atom_site_label
_atom_site_fract_x
_atom_site_fract_y
_atom_site_fract_z
Si Si1 0.588630 0.218171 0.955340
Si Si2 0.342647 0.123702 0.844665
Si Si3 0.653810 0.841274 0.264486
Si Si4 0.845780 0.210511 0.200601
Si Si5 0.657069 0.600613 0.059623
Si Si6 0.582764 0.053316 0.787918
Si Si7 0.653053 0.537759 0.829725
Si Si8 0.911949 0.279866 0.535645
O O1 0.630180 0.290476 0.876885
O O2 0.584953 0.128745 0.881631
O O3 0.634456 0.205533 0.070963
O O4 0.500056 0.245330 0.995611
O O5 0.250000 0.141668 0.862583
O O6 0.374575 0.198265 0.758453
O O7 0.353360 0.024417 0.805236
O O8 0.387152 0.137684 0.960577
O O9 0.750000 0.830373 0.244047
O O10 0.601926 0.802519 0.163735
O O11 0.634519 0.944562 0.275177
O O12 0.750000 0.210288 0.210947
O O13 0.877717 0.123520 0.264014
O O14 0.750000 0.583957 0.087138
O O15 0.602798 0.594192 0.168144
O O16 0.647645 0.699063 0.011321
O O17 0.629069 0.538735 0.959085
O O18 0.500000 0.000000 0.788627
O O19 0.750000 0.544558 0.831848
#
# Coordination Sequence:
#
# PCOD9365222 Si02
#       8
#     8   8   8   8   8   8   8   8
#     4  12  28  44  67 100 145 178 223 290 351 413
#     4  11  24  44  71  98 132 181 233 279 341 415
#     4  11  25  46  72 102 137 184 235 282 344 421
#     4  10  23  43  70 100 134 177 226 283 345 414
#     4  11  23  44  73 100 134 183 237 287 337 411
#     4  12  27  45  64 101 142 181 227 286 351 416
#     4   9  21  42  69 102 131 165 224 283 332 398
#     4  12  25  43  70  99 137 184 227 284 346 412
#
# _framework density 20.985946999999999
#
# number of rings (size 3 to 8) (size 9 to 14) (size 15 to 20)
#    0.000    1.000    3.750    1.875    7.000    1.500 
#    0.000    1.250    0.000    0.000    0.000    0.000 
#    0.000    0.000    0.000    0.000    0.000    0.000 
#
# Total GULP energy -178798.443030 kJ/mol
# GULP energy per Si atom -5587.451345 kJ/mol
# Density = 2.093818 g / cm^3
# Si number density = 20.985947 Si / 1000 Ang^3
#
#
#
# Elastic Constant Matrix: (Units=GPa)
#
#
# Indices 1 2 3 4 5 6 
#
# 1 41.7443 0.9628 8.5290 0.0000 0.0000 0.0000
# 2 0.9628 60.1358 24.1453 0.0000 0.0000 0.0000
# 3 8.5290 24.1453 113.4174 0.0000 0.0000 0.0000
# 4 0.0000 0.0000 0.0000 26.0141 0.0000 0.0000
# 5 0.0000 0.0000 0.0000 0.0000 24.0560 0.0000
# 6 0.0000 0.0000 0.0000 0.0000 0.0000 19.6460
#
#
#
# Elastic Compliance Matrix: (Units=1/GPa)
#
#
# Indices 1 2 3 4 5 6 
#
# 1 0.024337 0.000377 -0.001910 0.000000 0.000000 0.000000
# 2 0.000377 0.018189 -0.003901 0.000000 0.000000 0.000000
# 3 -0.001910 -0.003901 0.009791 0.000000 0.000000 0.000000
# 4 0.000000 0.000000 0.000000 0.038441 0.000000 0.000000
# 5 0.000000 0.000000 0.000000 0.000000 0.041570 0.000000
# 6 0.000000 0.000000 0.000000 0.000000 0.000000 0.050901
#
#
# Mechanical properties :
#
#
# Convention : Reuss Voigt Hill
#
# Bulk Modulus (GPa) = 24.12554 31.39683 27.76119
# Shear Modulus (GPa) = 24.04858 26.05392 25.05125
#
# Velocity S-wave (km/s) = 3.38884 3.52731 3.45877
# Velocity P-wave (km/s) = 5.18009 5.61984 5.40444
#
# Compressibility (1/GPa) = 0.04144984
#
# Stress axis : x y z
#
# Youngs Moduli (GPa) = 41.08971 54.97784 102.13401
#
# Poissons Ratio (x) = -0.02075 0.19513
# Poissons Ratio (y) = -0.01551 0.39839
# Poissons Ratio (z) = 0.07850 0.21445
#
# Static dielectric constant tensor:
#      x y z
#    x 1.822140 0.000000 0.000000 
#    y 0.000000 1.759810 0.000000 
#    z 0.000000 0.000000 1.733900 
# 
# From -- ./inp_files/13113.got.cif
#   From: 2010.05.17/outbox.cif.g08.bks.cpg/sg40_7_cif.got.tgz:13113.got - 2010.06.03 18:35:42.
