data_PCOD9365002
_publ_section_title
;
Structure prediction by ZEFSAII (Michael W. Deem and Ramdas Pophale) SiO2 
 PCOD9365002
Probable space group: A M A 2
;
_chemical_formula_sum "Si O2"
_cell_formula_units_Z 32
_cell_length_a 17.332204
_cell_length_b 12.276462
_cell_length_c 7.402642
_cell_angle_alpha 90.000000
_cell_angle_beta 90.000000
_cell_angle_gamma 90.000000
_cell_volume 1575.120424
_symmetry_space_group_name_H-M "A M A 2"
_symmetry_group_IT_number 40
_symmetry_cell_setting 'orthorhombic'
loop_
_space_group_symop_operation_xyz
x,y,z
-x,-y,z
1/2-x,y,z
1/2+x,-y,z
x,1/2+y,1/2+z
-x,1/2-y,1/2+z
1/2-x,1/2+y,1/2+z
1/2+x,1/2-y,1/2+z
loop_
_atom_site_type_symbol
_atom_site_label
_atom_site_fract_x
_atom_site_fract_y
_atom_site_fract_z
Si Si1 0.558838 0.799378 0.406100
Si Si2 0.411390 0.365695 0.691954
Si Si3 0.158652 0.098400 0.125811
Si Si4 0.664193 0.350009 0.211940
O O1 0.555148 0.680812 0.500576
O O2 0.477304 0.841985 0.338324
O O3 0.616931 0.805727 0.236888
O O4 0.598898 0.872481 0.562970
O O5 0.383161 0.487738 0.685993
O O6 0.341743 0.281566 0.726437
O O7 0.250000 0.097313 0.163245
O O8 0.148808 0.106526 0.910768
O O9 0.750000 0.382792 0.153092
#
# Coordination Sequence:
#
# PCOD9365002 Si02
#       4
#     8   8   8   8
#     4  10  22  41  62  91 128 158 207 262 304 369
#     4  10  22  41  63  89 126 163 203 258 311 367
#     4  11  22  41  65  89 123 166 207 257 315 370
#     4   9  21  41  63  91 127 161 208 259 307 374
#
# _framework density 20.315908
#
# number of rings (size 3 to 8) (size 9 to 14) (size 15 to 20)
#    1.500    0.500    0.000    3.750    0.000    0.000 
#   13.500    0.000    0.000    0.000    0.000    0.000 
#    0.000    0.000    0.000    0.000    0.000    0.000 
#
# Total GULP energy -89128.986801 kJ/mol
# GULP energy per Si atom -5570.561675 kJ/mol
# Density = 2.026967 g / cm^3
# Si number density = 20.315908 Si / 1000 Ang^3
#
#
#
# Elastic Constant Matrix: (Units=GPa)
#
#
# Indices 1 2 3 4 5 6 
#
# 1 88.8289 -0.2757 44.8818 0.0000 0.0000 0.0000
# 2 -0.2757 37.6071 7.8089 0.0000 0.0000 0.0000
# 3 44.8818 7.8089 87.0674 0.0000 0.0000 0.0000
# 4 0.0000 0.0000 0.0000 27.1243 0.0000 0.0000
# 5 0.0000 0.0000 0.0000 0.0000 36.1796 0.0000
# 6 0.0000 0.0000 0.0000 0.0000 0.0000 -40.5405
#
#
#
# Elastic Compliance Matrix: (Units=1/GPa)
#
#
# Indices 1 2 3 4 5 6 
#
# 1 0.015339 0.001788 -0.008068 0.000000 0.000000 0.000000
# 2 0.001788 0.027304 -0.003370 0.000000 0.000000 0.000000
# 3 -0.008068 -0.003370 0.015946 0.000000 0.000000 0.000000
# 4 0.000000 0.000000 0.000000 0.036867 0.000000 0.000000
# 5 0.000000 0.000000 0.000000 0.000000 0.027640 0.000000
# 6 0.000000 0.000000 0.000000 0.000000 0.000000 -0.024667
#
#
# Mechanical properties :
#
#
# Convention : Reuss Voigt Hill
#
# Bulk Modulus (GPa) = 25.45247 35.37037 30.41142
# Shear Modulus (GPa) = 38.21855 15.29190 26.75522
#
# Velocity S-wave (km/s) = 4.34200 2.74652 3.63293
# Velocity P-wave (km/s) = 6.13945 5.24460 5.70958
#
# Compressibility (1/GPa) = 0.03928892
#
# Stress axis : x y z
#
# Youngs Moduli (GPa) = 65.19184 36.62516 62.71045
#
# Poissons Ratio (x) = -0.06547 0.50592
# Poissons Ratio (y) = -0.11654 0.21135
# Poissons Ratio (z) = 0.52594 0.12344
#
# Static dielectric constant tensor:
#      x y z
#    x 1.743500 0.000000 0.000000 
#    y 0.000000 1.705790 0.000000 
#    z 0.000000 0.000000 1.739180 
# 
# From -- ./inp_files/5944.got.cif
#   From: 2010.05.17/outbox.cif.g08.bks.cpg/sg40_3_cif.got.tgz:5944.got - 2010.06.03 18:35:42.
