data_PCOD9365132
_publ_section_title
;
Structure prediction by ZEFSAII (Michael W. Deem and Ramdas Pophale) SiO2 
 PCOD9365132
Probable space group: A M A 2
;
_chemical_formula_sum "Si O2"
_cell_formula_units_Z 60
_cell_length_a 29.219694
_cell_length_b 5.090821
_cell_length_c 17.458488
_cell_angle_alpha 90.000000
_cell_angle_beta 90.000000
_cell_angle_gamma 90.000000
_cell_volume 2596.989054
_symmetry_space_group_name_H-M "A M A 2"
_symmetry_group_IT_number 40
_symmetry_cell_setting 'orthorhombic'
loop_
_space_group_symop_operation_xyz
x,y,z
-x,-y,z
1/2-x,y,z
1/2+x,-y,z
x,1/2+y,1/2+z
-x,1/2-y,1/2+z
1/2-x,1/2+y,1/2+z
1/2+x,1/2-y,1/2+z
loop_
_atom_site_type_symbol
_atom_site_label
_atom_site_fract_x
_atom_site_fract_y
_atom_site_fract_z
Si Si1 0.452997 0.351759 0.801190
Si Si2 0.970785 0.762293 0.633862
Si Si3 0.198246 0.840575 0.116937
Si Si4 0.366249 0.653827 0.730655
Si Si5 0.250000 0.931429 0.980902
Si Si6 0.663417 0.295334 0.892194
Si Si7 0.384207 0.501648 0.086365
Si Si8 0.110134 0.693337 0.434251
O O1 0.500000 0.500000 0.819840
O O2 0.463319 0.187923 0.724600
O O3 0.411205 0.530802 0.769631
O O4 0.432417 0.217007 0.876147
O O5 0.000000 0.500000 0.626368
O O6 0.921347 0.767244 0.594761
O O7 0.000000 0.000000 0.600780
O O8 0.250000 0.750227 0.139325
O O9 0.166932 0.613920 0.081117
O O10 0.168609 0.962644 0.184935
O O11 0.210406 0.026755 0.044675
O O12 0.338673 0.772385 0.801937
O O13 0.383951 0.851354 0.666851
O O14 0.289455 0.792724 0.928471
O O15 0.649473 0.601637 0.902540
O O16 0.625725 0.107111 0.931184
O O17 0.397752 0.309180 0.018152
#
# Coordination Sequence:
#
# PCOD9365132 Si02
#       8
#     8   8   8   8   4   8   8   8
#     4  10  22  45  69 100 139 185 237 292 357 431
#     4  11  24  41  70 103 138 183 239 298 359 427
#     4  10  23  43  67 100 141 188 240 296 364 434
#     4  11  24  43  73 103 143 186 245 299 368 426
#     4  10  22  46  68 100 144 186 240 286 372 418
#     4  11  25  45  67 102 133 188 227 297 342 436
#     4  12  23  43  72 101 145 189 239 308 363 440
#     4  11  25  44  69  96 143 179 232 286 371 412
#
# _framework density 23.103677999999999
#
# number of rings (size 3 to 8) (size 9 to 14) (size 15 to 20)
#    0.400    0.800    2.667    3.200    2.800    3.733 
#    3.600    0.000    0.000    0.800    0.000    0.000 
#    0.000    0.000    0.000    0.000    0.000    0.000 
#
# Total GULP energy -167022.737662 kJ/mol
# GULP energy per Si atom -5567.424589 kJ/mol
# Density = 2.305109 g / cm^3
# Si number density = 23.103678 Si / 1000 Ang^3
#
#
#
# Elastic Constant Matrix: (Units=GPa)
#
#
# Indices 1 2 3 4 5 6 
#
# 1 154.2070 31.5542 25.7646 0.0000 0.0000 0.0000
# 2 31.5542 66.6155 16.6055 0.0000 0.0000 0.0000
# 3 25.7646 16.6055 95.7861 0.0000 0.0000 0.0000
# 4 0.0000 0.0000 0.0000 34.2800 0.0000 0.0000
# 5 0.0000 0.0000 0.0000 0.0000 56.0244 0.0000
# 6 0.0000 0.0000 0.0000 0.0000 0.0000 36.1893
#
#
#
# Elastic Compliance Matrix: (Units=1/GPa)
#
#
# Indices 1 2 3 4 5 6 
#
# 1 0.007366 -0.003130 -0.001439 0.000000 0.000000 0.000000
# 2 -0.003130 0.017020 -0.002109 0.000000 0.000000 0.000000
# 3 -0.001439 -0.002109 0.011192 0.000000 0.000000 0.000000
# 4 0.000000 0.000000 0.000000 0.029172 0.000000 0.000000
# 5 0.000000 0.000000 0.000000 0.000000 0.017849 0.000000
# 6 0.000000 0.000000 0.000000 0.000000 0.000000 0.027632
#
#
# Mechanical properties :
#
#
# Convention : Reuss Voigt Hill
#
# Bulk Modulus (GPa) = 44.99831 51.60634 48.30233
# Shear Modulus (GPa) = 38.16969 41.47769 39.82369
#
# Velocity S-wave (km/s) = 4.06902 4.24168 4.15624
# Velocity P-wave (km/s) = 6.44941 6.80988 6.63209
#
# Compressibility (1/GPa) = 0.02222305
#
# Stress axis : x y z
#
# Youngs Moduli (GPa) = 135.76483 58.75475 89.34626
#
# Poissons Ratio (x) = 0.18392 0.12853
# Poissons Ratio (y) = 0.42499 0.18839
# Poissons Ratio (z) = 0.19530 0.12389
#
# Static dielectric constant tensor:
#      x y z
#    x 1.873920 0.000000 0.000000 
#    y 0.000000 1.892560 0.000000 
#    z 0.000000 0.000000 1.921510 
# 
# From -- ./inp_files/21664.got.cif
#   From: 2010.05.17/outbox.cif.g08.bks.cpg/sg40_11_cif.got.tgz:21664.got - 2010.06.03 18:35:42.
