data_PCOD9365801
_publ_section_title
;
Structure prediction by ZEFSAII (Michael W. Deem and Ramdas Pophale) SiO2 
 PCOD9365801
Probable space group: A B A 2
;
_chemical_formula_sum "Si O2"
_cell_formula_units_Z 48
_cell_length_a 5.755541
_cell_length_b 22.621735
_cell_length_c 13.282025
_cell_angle_alpha 90.000000
_cell_angle_beta 90.000000
_cell_angle_gamma 90.000000
_cell_volume 1729.323949
_symmetry_space_group_name_H-M "A B A 2"
_symmetry_group_IT_number 41
_symmetry_cell_setting 'orthorhombic'
loop_
_space_group_symop_operation_xyz
x,y,z
-x,-y,z
1/2-x,y,1/2+z
1/2+x,-y,1/2+z
x,1/2+y,1/2+z
-x,1/2-y,1/2+z
1/2-x,1/2+y,z
1/2+x,1/2-y,z
loop_
_atom_site_type_symbol
_atom_site_label
_atom_site_fract_x
_atom_site_fract_y
_atom_site_fract_z
Si Si1 0.548464 0.068351 0.589540
Si Si2 0.447014 0.092714 0.111470
Si Si3 0.153488 0.275008 0.891477
Si Si4 0.081509 0.899003 0.310625
Si Si5 0.085369 0.273723 0.132068
Si Si6 0.306342 0.528553 0.820603
O O1 0.296583 0.090084 0.551856
O O2 0.560855 0.108376 0.691149
O O3 0.817583 0.072023 0.553274
O O4 0.500000 0.000000 0.613579
O O5 0.406513 0.053263 0.212945
O O6 0.500375 0.159090 0.144985
O O7 0.391852 0.243058 0.855930
O O8 0.124590 0.265335 0.011533
O O9 0.192405 0.344193 0.865511
O O10 0.829011 0.913998 0.353711
O O11 0.180114 0.965542 0.311356
O O12 0.351748 0.261317 0.168215
O O13 0.500000 0.500000 0.893971
#
# Coordination Sequence:
#
# PCOD9365801 Si02
#       6
#     8   8   8   8   8   8
#     4  11  19  34  57  87 121 155 182 234 308 368
#     4  11  19  34  61  87 113 161 199 240 305 366
#     4  10  24  42  62  85 115 163 212 252 294 347
#     4  10  19  35  60  84 121 160 194 243 306 362
#     4  10  22  43  61  82 117 163 209 255 296 346
#     4  10  18  34  59  86 121 159 183 238 317 364
#
# _framework density 27.756513000000002
#
# number of rings (size 3 to 8) (size 9 to 14) (size 15 to 20)
#    0.000    1.667    5.000    1.500    2.333    0.000 
#    0.000   11.667   11.000    0.000    0.000    0.000 
#    0.000    0.000    0.000    0.000    0.000    0.000 
#
# Total GULP energy -133614.748159 kJ/mol
# GULP energy per Si atom -5567.281173 kJ/mol
# Density = 2.769334 g / cm^3
# Si number density = 27.756513 Si / 1000 Ang^3
#
#
#
# Elastic Constant Matrix: (Units=GPa)
#
#
# Indices 1 2 3 4 5 6 
#
# 1 236.2746 75.9388 52.5593 0.0000 0.0000 0.0000
# 2 75.9388 160.7145 -8.1574 0.0000 0.0000 0.0000
# 3 52.5593 -8.1574 96.4228 0.0000 0.0000 0.0000
# 4 0.0000 0.0000 0.0000 38.9512 0.0000 0.0000
# 5 0.0000 0.0000 0.0000 0.0000 10.6108 0.0000
# 6 0.0000 0.0000 0.0000 0.0000 0.0000 53.8048
#
#
#
# Elastic Compliance Matrix: (Units=1/GPa)
#
#
# Indices 1 2 3 4 5 6 
#
# 1 0.005979 -0.003004 -0.003513 0.000000 0.000000 0.000000
# 2 -0.003004 0.007758 0.002294 0.000000 0.000000 0.000000
# 3 -0.003513 0.002294 0.012480 0.000000 0.000000 0.000000
# 4 0.000000 0.000000 0.000000 0.025673 0.000000 0.000000
# 5 0.000000 0.000000 0.000000 0.000000 0.094244 0.000000
# 6 0.000000 0.000000 0.000000 0.000000 0.000000 0.018586
#
#
# Mechanical properties :
#
#
# Convention : Reuss Voigt Hill
#
# Bulk Modulus (GPa) = 56.27317 81.56591 68.91954
# Shear Modulus (GPa) = 27.91891 45.54478 36.73184
#
# Velocity S-wave (km/s) = 3.17496 4.05516 3.64175
# Velocity P-wave (km/s) = 5.81019 7.16769 6.52434
#
# Compressibility (1/GPa) = 0.01777046
#
# Stress axis : x y z
#
# Youngs Moduli (GPa) = 167.24480 128.90191 80.12738
#
# Poissons Ratio (x) = 0.38717 0.28152
# Poissons Ratio (y) = 0.50233 -0.18378
# Poissons Ratio (z) = 0.58759 -0.29564
#
# Static dielectric constant tensor:
#      x y z
#    x 1.602690 0.000000 0.000000 
#    y 0.000000 2.093770 0.000000 
#    z 0.000000 0.000000 2.224520 
# 
# From -- ./inp_files/9422.got.cif
#   From: 2010.05.17/outbox.cif.g08.bks.cpg/sg41_5_cif.got.tgz:9422.got - 2010.06.03 18:54:24.
