data_PCOD9365040
_publ_section_title
;
Structure prediction by ZEFSAII (Michael W. Deem and Ramdas Pophale) SiO2 
 PCOD9365040
Probable space group: A M A 2
;
_chemical_formula_sum "Si O2"
_cell_formula_units_Z 48
_cell_length_a 9.257407
_cell_length_b 27.506447
_cell_length_c 9.548665
_cell_angle_alpha 90.000000
_cell_angle_beta 90.000000
_cell_angle_gamma 90.000000
_cell_volume 2431.456539
_symmetry_space_group_name_H-M "A M A 2"
_symmetry_group_IT_number 40
_symmetry_cell_setting 'orthorhombic'
loop_
_space_group_symop_operation_xyz
x,y,z
-x,-y,z
1/2-x,y,z
1/2+x,-y,z
x,1/2+y,1/2+z
-x,1/2-y,1/2+z
1/2-x,1/2+y,1/2+z
1/2+x,1/2-y,1/2+z
loop_
_atom_site_type_symbol
_atom_site_label
_atom_site_fract_x
_atom_site_fract_y
_atom_site_fract_z
Si Si1 0.083708 0.085165 0.559580
Si Si2 0.418051 0.873456 0.073917
Si Si3 0.580719 0.949003 0.878842
Si Si4 0.586234 0.044228 0.304897
Si Si5 0.923176 0.281159 0.701317
Si Si6 0.077610 0.199145 0.529371
O O1 0.250000 0.081268 0.511136
O O2 0.074001 0.063727 0.714404
O O3 0.046881 0.142334 0.555211
O O4 0.983713 0.056767 0.452702
O O5 0.250000 0.864166 0.036104
O O6 0.419690 0.908141 0.209930
O O7 0.501107 0.824637 0.115321
O O8 0.500917 0.905116 0.958294
O O9 0.750000 0.952198 0.920044
O O10 0.500000 0.000000 0.903470
O O11 0.750000 0.028879 0.322311
O O12 0.500000 0.000000 0.236824
O O13 0.750000 0.283308 0.685256
O O14 0.955257 0.287476 0.867166
O O15 0.987701 0.232083 0.636054
O O16 0.250000 0.206863 0.550743
#
# Coordination Sequence:
#
# PCOD9365040 Si02
#       6
#     8   8   8   8   8   8
#     4  10  22  42  65  90 125 164 207 258 309 367
#     4  11  24  42  64  92 126 164 208 262 311 369
#     4  11  24  41  63  93 127 170 213 259 313 371
#     4  11  23  38  62  92 122 161 204 253 310 369
#     4  11  24  42  67  95 125 166 208 256 315 376
#     4  10  23  43  65  94 129 165 207 258 312 372
#
# _framework density 19.741254000000001
#
# number of rings (size 3 to 8) (size 9 to 14) (size 15 to 20)
#    0.000    1.333    1.667    3.000    2.333    8.000 
#    0.000    0.000    0.000    0.000    0.000    0.000 
#    0.000    0.000    0.000    0.000    0.000    0.000 
#
# Total GULP energy -134215.357119 kJ/mol
# GULP energy per Si atom -5592.306547 kJ/mol
# Density = 1.969632 g / cm^3
# Si number density = 19.741254 Si / 1000 Ang^3
#
#
#
# Elastic Constant Matrix: (Units=GPa)
#
#
# Indices 1 2 3 4 5 6 
#
# 1 107.6302 40.9741 34.9249 0.0000 0.0000 0.0000
# 2 40.9741 83.8505 10.4600 0.0000 0.0000 0.0000
# 3 34.9249 10.4600 53.0006 0.0000 0.0000 0.0000
# 4 0.0000 0.0000 0.0000 39.5784 0.0000 0.0000
# 5 0.0000 0.0000 0.0000 0.0000 32.1333 0.0000
# 6 0.0000 0.0000 0.0000 0.0000 0.0000 39.2394
#
#
#
# Elastic Compliance Matrix: (Units=1/GPa)
#
#
# Indices 1 2 3 4 5 6 
#
# 1 0.014202 -0.005918 -0.008190 0.000000 0.000000 0.000000
# 2 -0.005918 0.014693 0.001000 0.000000 0.000000 0.000000
# 3 -0.008190 0.001000 0.024067 0.000000 0.000000 0.000000
# 4 0.000000 0.000000 0.000000 0.025266 0.000000 0.000000
# 5 0.000000 0.000000 0.000000 0.000000 0.031120 0.000000
# 6 0.000000 0.000000 0.000000 0.000000 0.000000 0.025485
#
#
# Mechanical properties :
#
#
# Convention : Reuss Voigt Hill
#
# Bulk Modulus (GPa) = 37.38959 46.35546 41.87253
# Shear Modulus (GPa) = 29.41777 32.73171 31.07474
#
# Velocity S-wave (km/s) = 3.86446 4.07632 3.97180
# Velocity P-wave (km/s) = 6.23642 6.75926 6.50310
#
# Compressibility (1/GPa) = 0.02674541
#
# Stress axis : x y z
#
# Youngs Moduli (GPa) = 70.41421 68.05897 41.55007
#
# Poissons Ratio (x) = 0.40278 0.34031
# Poissons Ratio (y) = 0.41671 -0.04155
# Poissons Ratio (z) = 0.57671 -0.06805
#
# Static dielectric constant tensor:
#      x y z
#    x 1.672390 0.000000 0.000000 
#    y 0.000000 1.664000 0.000000 
#    z 0.000000 0.000000 1.674030 
# 
# From -- ./inp_files/4586.got.cif
#   From: 2010.05.17/outbox.cif.g08.bks.cpg/sg40_3_cif.got.tgz:4586.got - 2010.06.03 18:35:42.
