data_PCOD9365683
_publ_section_title
;
Structure prediction by ZEFSAII (Michael W. Deem and Ramdas Pophale) SiO2 
 PCOD9365683
Probable space group: A M A 2
;
_chemical_formula_sum "Si O2"
_cell_formula_units_Z 24
_cell_length_a 9.000000
_cell_length_b 15.000000
_cell_length_c 18.000000
_cell_angle_alpha 90.000000
_cell_angle_beta 90.000000
_cell_angle_gamma 90.000000
_cell_volume 2430.000000
_symmetry_space_group_name_H-M "A M A 2"
_symmetry_group_IT_number 40
_symmetry_cell_setting 'orthorhombic'
loop_
_space_group_symop_operation_xyz
x,y,z
-x,-y,z
1/2-x,y,z
1/2+x,-y,z
x,1/2+y,1/2+z
-x,1/2-y,1/2+z
1/2-x,1/2+y,1/2+z
1/2+x,1/2-y,1/2+z
loop_
_atom_site_type_symbol
_atom_site_label
_atom_site_fract_x
_atom_site_fract_y
_atom_site_fract_z
Si Si1 0.427490 0.229418 0.647600
Si Si2 0.925566 0.095216 0.761513
Si Si3 0.926579 0.092228 0.364311
Si Si4 0.425137 0.771243 0.499097
Si Si5 0.425199 0.905244 0.939348
Si Si6 0.928821 0.904694 0.204300
O O1 0.250000 0.235729 0.650412
O O2 0.489727 0.169737 0.714660
O O3 0.484901 0.191255 0.569308
O O4 0.503503 0.326096 0.655274
O O5 0.750000 0.095212 0.743518
O O6 0.939649 0.109091 0.850201
O O7 0.000000 0.000000 0.744629
O O8 0.750000 0.080508 0.348374
O O9 0.942897 0.166824 0.426801
O O10 0.013019 0.114217 0.288250
O O11 0.000000 0.000000 0.390980
O O12 0.250000 0.765909 0.516631
O O13 0.491247 0.674937 0.479342
O O14 0.250000 0.906018 0.957553
O O15 0.500000 0.000000 0.956928
O O16 0.750000 0.907029 0.201628
O O17 0.000000 0.000000 0.183798
#
# Coordination Sequence:
#
# PCOD9365683 Si02
#       6
#     8   8   8   8   8   8
#     4  12  25  40  59  85 119 157 197 240 291 348
#     4  10  21  39  63  90 119 153 195 241 289 342
#     4  10  21  38  62  89 117 151 193 239 287 341
#     4  11  24  40  58  84 119 156 195 239 289 345
#     4  10  21  38  62  89 116 150 192 238 288 343
#     4  11  22  39  63  89 118 151 193 241 290 345
#
# _framework density 9.8765429999999999
#
# number of rings (size 3 to 8) (size 9 to 14) (size 15 to 20)
#    0.000    1.333    0.000    7.000    0.000    8.667 
#    0.000    5.000    0.000    0.000    0.000    0.000 
#    0.000    0.000    0.000    0.000    0.000    0.000 
#
# Total GULP energy -134251.695099 kJ/mol
# GULP energy per Si atom -5593.820629 kJ/mol
# Density = 0.985406 g / cm^3
# Si number density = 9.876543 Si / 1000 Ang^3
#
#
#
# Elastic Constant Matrix: (Units=GPa)
#
#
# Indices 1 2 3 4 5 6 
#
# 1 173.9699 42.2238 32.2612 0.0000 0.0000 0.0000
# 2 42.2238 67.8972 27.3383 0.0000 0.0000 0.0000
# 3 32.2612 27.3383 24.1773 0.0000 0.0000 0.0000
# 4 0.0000 0.0000 0.0000 -17.3922 0.0000 0.0000
# 5 0.0000 0.0000 0.0000 0.0000 3.3035 0.0000
# 6 0.0000 0.0000 0.0000 0.0000 0.0000 30.8487
#
#
#
# Elastic Compliance Matrix: (Units=1/GPa)
#
#
# Indices 1 2 3 4 5 6 
#
# 1 0.007691 -0.001195 -0.008911 0.000000 0.000000 0.000000
# 2 -0.001195 0.027224 -0.029189 0.000000 0.000000 0.000000
# 3 -0.008911 -0.029189 0.086258 0.000000 0.000000 0.000000
# 4 0.000000 0.000000 0.000000 -0.057497 0.000000 0.000000
# 5 0.000000 0.000000 0.000000 0.000000 0.302709 0.000000
# 6 0.000000 0.000000 0.000000 0.000000 0.000000 0.032416
#
#
# Mechanical properties :
#
#
# Convention : Reuss Voigt Hill
#
# Bulk Modulus (GPa) = 23.48416 52.18790 37.83603
# Shear Modulus (GPa) = 10.17119 14.30006 12.23562
#
# Velocity S-wave (km/s) = 2.27164 2.69353 2.49153
# Velocity P-wave (km/s) = 4.33533 6.01257 5.24147
#
# Compressibility (1/GPa) = 0.04258190
#
# Stress axis : x y z
#
# Youngs Moduli (GPa) = 130.02945 36.73252 11.59316
#
# Poissons Ratio (x) = 0.04388 0.10331
# Poissons Ratio (y) = 0.15532 0.33840
# Poissons Ratio (z) = 1.15873 1.07220
#
# Static dielectric constant tensor:
#      x y z
#    x 1.650550 0.000000 0.000000 
#    y 0.000000 1.689300 0.000000 
#    z 0.000000 0.000000 1.706470 
# 
# From -- ./inp_files/19192.got.cif
#   From: 2010.05.17/outbox.ucp.g08.bks.cvg/sg40_10_cif.got.tgz:19192.got - 2010.06.11 16:26:39.
