data_PCOD9365061
_publ_section_title
;
Structure prediction by ZEFSAII (Michael W. Deem and Ramdas Pophale) SiO2 
 PCOD9365061
Probable space group: A M A 2
;
_chemical_formula_sum "Si O2"
_cell_formula_units_Z 48
_cell_length_a 12.430476
_cell_length_b 15.708559
_cell_length_c 11.147388
_cell_angle_alpha 90.000000
_cell_angle_beta 90.000000
_cell_angle_gamma 90.000000
_cell_volume 2176.693220
_symmetry_space_group_name_H-M "A M A 2"
_symmetry_group_IT_number 40
_symmetry_cell_setting 'orthorhombic'
loop_
_space_group_symop_operation_xyz
x,y,z
-x,-y,z
1/2-x,y,z
1/2+x,-y,z
x,1/2+y,1/2+z
-x,1/2-y,1/2+z
1/2-x,1/2+y,1/2+z
1/2+x,1/2-y,1/2+z
loop_
_atom_site_type_symbol
_atom_site_label
_atom_site_fract_x
_atom_site_fract_y
_atom_site_fract_z
Si Si1 0.122799 0.129215 0.272000
Si Si2 0.127788 0.305857 0.866430
Si Si3 0.011008 0.600187 0.026375
Si Si4 0.878258 0.551297 0.666851
Si Si5 0.970124 0.193189 0.751950
Si Si6 0.878823 0.543479 0.386803
O O1 0.250000 0.129177 0.272909
O O2 0.085197 0.118735 0.410981
O O3 0.087687 0.219195 0.216670
O O4 0.085429 0.045077 0.200401
O O5 0.250000 0.281156 0.856273
O O6 0.097053 0.371161 0.758047
O O7 0.051686 0.224365 0.855646
O O8 0.102760 0.359979 0.984551
O O9 0.000000 0.500000 0.045335
O O10 0.038915 0.650892 0.145811
O O11 0.750000 0.545493 0.685011
O O12 0.892712 0.567753 0.526457
O O13 0.886420 0.125396 0.801976
O O14 0.750000 0.509683 0.376354
O O15 0.000000 0.500000 0.359397
#
# Coordination Sequence:
#
# PCOD9365061 Si02
#       6
#     8   8   8   8   8   8
#     4  10  22  42  67  97 131 177 236 293 357 422
#     4  10  23  41  64  97 133 178 231 291 352 421
#     4  11  23  41  66  95 132 180 229 289 357 423
#     4   9  20  40  68  99 131 179 234 291 348 424
#     4  11  26  41  63 101 141 179 224 290 362 429
#     4  11  26  46  73 103 143 190 237 291 359 432
#
# _framework density 22.051798999999999
#
# number of rings (size 3 to 8) (size 9 to 14) (size 15 to 20)
#    0.000    1.667    1.667    1.000    9.333    2.667 
#    0.000    3.333    0.000    0.000    0.000    0.000 
#    0.000    0.000    0.000    0.000    0.000    0.000 
#
# Total GULP energy -133652.008038 kJ/mol
# GULP energy per Si atom -5568.833668 kJ/mol
# Density = 2.200161 g / cm^3
# Si number density = 22.051799 Si / 1000 Ang^3
#
#
#
# Elastic Constant Matrix: (Units=GPa)
#
#
# Indices 1 2 3 4 5 6 
#
# 1 89.5098 24.2329 -13.2534 0.0000 0.0000 0.0000
# 2 24.2329 93.2828 29.5383 0.0000 0.0000 0.0000
# 3 -13.2534 29.5383 51.3482 0.0000 0.0000 0.0000
# 4 0.0000 0.0000 0.0000 26.8653 0.0000 0.0000
# 5 0.0000 0.0000 0.0000 0.0000 23.9598 0.0000
# 6 0.0000 0.0000 0.0000 0.0000 0.0000 26.0301
#
#
#
# Elastic Compliance Matrix: (Units=1/GPa)
#
#
# Indices 1 2 3 4 5 6 
#
# 1 0.013739 -0.005737 0.006846 0.000000 0.000000 0.000000
# 2 -0.005737 0.015503 -0.010399 0.000000 0.000000 0.000000
# 3 0.006846 -0.010399 0.027224 0.000000 0.000000 0.000000
# 4 0.000000 0.000000 0.000000 0.037223 0.000000 0.000000
# 5 0.000000 0.000000 0.000000 0.000000 0.041737 0.000000
# 6 0.000000 0.000000 0.000000 0.000000 0.000000 0.038417
#
#
# Mechanical properties :
#
#
# Convention : Reuss Voigt Hill
#
# Bulk Modulus (GPa) = 26.39441 35.01958 30.70699
# Shear Modulus (GPa) = 24.38414 28.27923 26.33168
#
# Velocity S-wave (km/s) = 3.32891 3.58495 3.45930
# Velocity P-wave (km/s) = 5.17405 5.74899 5.46908
#
# Compressibility (1/GPa) = 0.03788681
#
# Stress axis : x y z
#
# Youngs Moduli (GPa) = 72.78629 64.50213 36.73207
#
# Poissons Ratio (x) = 0.37005 -0.25148
# Poissons Ratio (y) = 0.41757 0.38198
# Poissons Ratio (z) = -0.49832 0.67077
#
# Static dielectric constant tensor:
#      x y z
#    x 1.930360 0.000000 0.000000 
#    y 0.000000 1.800830 0.000000 
#    z 0.000000 0.000000 1.813840 
# 
# From -- ./inp_files/12164.got.cif
#   From: 2010.05.17/outbox.cif.g08.bks.cpg/sg40_7_cif.got.tgz:12164.got - 2010.06.03 18:35:42.
