data_PCOD9365818
_publ_section_title
;
Structure prediction by ZEFSAII (Michael W. Deem and Ramdas Pophale) SiO2 
 PCOD9365818
Probable space group: A B A 2
;
_chemical_formula_sum "Si O2"
_cell_formula_units_Z 52
_cell_length_a 19.197560
_cell_length_b 14.044812
_cell_length_c 9.979488
_cell_angle_alpha 90.000000
_cell_angle_beta 90.000000
_cell_angle_gamma 90.000000
_cell_volume 2690.730640
_symmetry_space_group_name_H-M "A B A 2"
_symmetry_group_IT_number 41
_symmetry_cell_setting 'orthorhombic'
loop_
_space_group_symop_operation_xyz
x,y,z
-x,-y,z
1/2-x,y,1/2+z
1/2+x,-y,1/2+z
x,1/2+y,1/2+z
-x,1/2-y,1/2+z
1/2-x,1/2+y,z
1/2+x,1/2-y,z
loop_
_atom_site_type_symbol
_atom_site_label
_atom_site_fract_x
_atom_site_fract_y
_atom_site_fract_z
Si Si1 0.500000 0.000000 0.512080
Si Si2 0.892087 0.940434 0.537295
Si Si3 0.592550 0.832718 0.503625
Si Si4 0.381663 0.898728 0.693646
Si Si5 0.321528 0.694123 0.744608
Si Si6 0.048378 0.375555 0.983059
Si Si7 0.824890 0.407190 0.751389
O O1 0.454672 0.082464 0.443107
O O2 0.558831 0.062485 0.592150
O O3 0.864456 0.883863 0.662677
O O4 0.846393 0.915083 0.406633
O O5 0.969613 0.907472 0.500289
O O6 0.900342 0.053324 0.563050
O O7 0.654593 0.810723 0.399693
O O8 0.552657 0.734161 0.519248
O O9 0.617588 0.864606 0.650383
O O10 0.343338 0.796684 0.682050
O O11 0.424891 0.890496 0.831872
O O12 0.323420 0.982009 0.704514
O O13 0.242340 0.658795 0.735350
#
# Coordination Sequence:
#
# PCOD9365818 Si02
#       7
#     4   8   8   8   8   8   8
#     4  10  18  36  58  82 106 144 188 224 278 328
#     4  10  20  35  58  79 108 143 180 224 268 327
#     4  10  21  36  57  80 110 140 179 232 272 317
#     4   9  19  36  59  78 108 149 183 220 269 340
#     4  11  22  36  54  85 113 139 181 231 275 316
#     4   9  18  35  56  82 106 139 182 224 278 321
#     4  10  21  39  55  74 108 153 183 205 263 345
#
# _framework density 19.325606000000001
#
# number of rings (size 3 to 8) (size 9 to 14) (size 15 to 20)
#    0.000    2.154    0.000    4.615    0.000    3.692 
#    0.000   13.846    0.000    0.000    0.000    0.000 
#    0.000    0.000    0.000    0.000    0.000    0.000 
#
# Total GULP energy -144793.341190 kJ/mol
# GULP energy per Si atom -5568.974661 kJ/mol
# Density = 1.928162 g / cm^3
# Si number density = 19.325606 Si / 1000 Ang^3
#
#
#
# Elastic Constant Matrix: (Units=GPa)
#
#
# Indices 1 2 3 4 5 6 
#
# 1 68.3574 20.9458 -2.7966 0.0000 0.0000 0.0000
# 2 20.9458 118.5908 10.3205 0.0000 0.0000 0.0000
# 3 -2.7966 10.3205 20.4898 0.0000 0.0000 0.0000
# 4 0.0000 0.0000 0.0000 22.9266 0.0000 0.0000
# 5 0.0000 0.0000 0.0000 0.0000 11.7715 0.0000
# 6 0.0000 0.0000 0.0000 0.0000 0.0000 33.5161
#
#
#
# Elastic Compliance Matrix: (Units=1/GPa)
#
#
# Indices 1 2 3 4 5 6 
#
# 1 0.015731 -0.003101 0.003709 0.000000 0.000000 0.000000
# 2 -0.003101 0.009430 -0.005173 0.000000 0.000000 0.000000
# 3 0.003709 -0.005173 0.051917 0.000000 0.000000 0.000000
# 4 0.000000 0.000000 0.000000 0.043617 0.000000 0.000000
# 5 0.000000 0.000000 0.000000 0.000000 0.084951 0.000000
# 6 0.000000 0.000000 0.000000 0.000000 0.000000 0.029836
#
#
# Mechanical properties :
#
#
# Convention : Reuss Voigt Hill
#
# Bulk Modulus (GPa) = 14.71728 29.37525 22.04627
# Shear Modulus (GPa) = 18.70818 25.57407 22.14112
#
# Velocity S-wave (km/s) = 3.11473 3.64170 3.38847
# Velocity P-wave (km/s) = 4.53512 5.73723 5.17123
#
# Compressibility (1/GPa) = 0.06794732
#
# Stress axis : x y z
#
# Youngs Moduli (GPa) = 63.56869 106.04107 19.26166
#
# Poissons Ratio (x) = 0.32886 -0.07144
# Poissons Ratio (y) = 0.19714 0.09964
# Poissons Ratio (z) = -0.23579 0.54857
#
# Static dielectric constant tensor:
#      x y z
#    x 1.671270 0.000000 0.000000 
#    y 0.000000 1.717520 0.000000 
#    z 0.000000 0.000000 1.656860 
# 
# From -- ./inp_files/3383.got.cif
#   From: 2010.05.17/outbox.cif.g08.bks.cpg/sg41_2_cif.got.tgz:3383.got - 2010.06.03 18:54:24.
