data_PCOD9365352
_publ_section_title
;
Structure prediction by ZEFSAII (Michael W. Deem and Ramdas Pophale) SiO2 
 PCOD9365352
Probable space group: A M A 2
;
_chemical_formula_sum "Si O2"
_cell_formula_units_Z 40
_cell_length_a 10.191453
_cell_length_b 10.852421
_cell_length_c 20.170532
_cell_angle_alpha 90.000000
_cell_angle_beta 90.000000
_cell_angle_gamma 90.000000
_cell_volume 2230.899941
_symmetry_space_group_name_H-M "A M A 2"
_symmetry_group_IT_number 40
_symmetry_cell_setting 'orthorhombic'
loop_
_space_group_symop_operation_xyz
x,y,z
-x,-y,z
1/2-x,y,z
1/2+x,-y,z
x,1/2+y,1/2+z
-x,1/2-y,1/2+z
1/2-x,1/2+y,1/2+z
1/2+x,1/2-y,1/2+z
loop_
_atom_site_type_symbol
_atom_site_label
_atom_site_fract_x
_atom_site_fract_y
_atom_site_fract_z
Si Si1 0.750000 0.800250 0.761781
Si Si2 0.000000 0.000000 0.352665
Si Si3 0.750000 0.536712 0.765760
Si Si4 0.000000 0.500000 0.067392
Si Si5 0.250000 0.469818 0.160255
Si Si6 0.904914 0.308863 0.959676
Si Si7 0.750000 0.744680 0.264983
Si Si8 0.003002 0.852959 0.850187
O O1 0.750000 0.666084 0.725252
O O2 0.873940 0.812626 0.810669
O O3 0.750000 0.913888 0.710569
O O4 0.116459 0.950193 0.307572
O O5 0.074945 0.092964 0.400747
O O6 0.750000 0.390656 0.746202
O O7 0.123773 0.476141 0.113700
O O8 0.031930 0.619866 0.021919
O O9 0.250000 0.343863 0.201688
O O10 0.750000 0.284864 0.970465
O O11 0.979568 0.193536 0.926167
O O12 0.624790 0.704490 0.309029
O O13 0.000000 0.000000 0.848588
#
# Coordination Sequence:
#
# PCOD9365352 Si02
#       8
#     4   4   4   4   4   8   4   8
#     4  12  24  35  64 100 132 165 214 267 326 402
#     4  11  18  30  56  88 128 144 189 250 320 381
#     4  12  20  35  56  98 123 168 194 256 334 380
#     4  11  26  42  68  86 122 184 231 264 302 385
#     4  12  24  45  62  90 131 178 230 256 310 400
#     4  11  21  38  62  91 122 163 214 271 318 368
#     4  12  22  39  64  90 136 171 204 269 330 392
#     4  12  21  37  62 100 130 167 201 271 355 385
#
# _framework density 17.929984000000001
#
# number of rings (size 3 to 8) (size 9 to 14) (size 15 to 20)
#    0.000    0.400    9.000    1.200    0.000    0.800 
#    0.000    0.000    4.400    0.000    0.000    0.000 
#    0.000    0.000    0.000    0.000    0.000    0.000 
#
# Total GULP energy -111441.405829 kJ/mol
# GULP energy per Si atom -5572.070291 kJ/mol
# Density = 1.788917 g / cm^3
# Si number density = 17.929984 Si / 1000 Ang^3
#
#
#
# Elastic Constant Matrix: (Units=GPa)
#
#
# Indices 1 2 3 4 5 6 
#
# 1 154.0998 34.7795 65.1185 0.0000 0.0000 0.0000
# 2 34.7795 179.0749 56.0724 0.0000 0.0000 0.0000
# 3 65.1185 56.0724 97.6438 0.0000 0.0000 0.0000
# 4 0.0000 0.0000 0.0000 -9.7125 0.0000 0.0000
# 5 0.0000 0.0000 0.0000 0.0000 22.6838 0.0000
# 6 0.0000 0.0000 0.0000 0.0000 0.0000 61.7374
#
#
#
# Elastic Compliance Matrix: (Units=1/GPa)
#
#
# Indices 1 2 3 4 5 6 
#
# 1 0.009039 0.000161 -0.006121 0.000000 0.000000 0.000000
# 2 0.000161 0.006811 -0.004019 0.000000 0.000000 0.000000
# 3 -0.006121 -0.004019 0.016631 0.000000 0.000000 0.000000
# 4 0.000000 0.000000 0.000000 -0.102960 0.000000 0.000000
# 5 0.000000 0.000000 0.000000 0.000000 0.044084 0.000000
# 6 0.000000 0.000000 0.000000 0.000000 0.000000 0.016198
#
#
# Mechanical properties :
#
#
# Convention : Reuss Voigt Hill
#
# Bulk Modulus (GPa) = 79.84304 82.52878 81.18591
# Shear Modulus (GPa) = 358.77158 33.26494 196.01826
#
# Velocity S-wave (km/s) = 14.16087 4.31196 10.46717
# Velocity P-wave (km/s) = 17.66354 8.42134 13.83690
#
# Compressibility (1/GPa) = 0.01252457
#
# Stress axis : x y z
#
# Youngs Moduli (GPa) = 110.62584 146.81323 60.12833
#
# Poissons Ratio (x) = -0.02363 0.36804
# Poissons Ratio (y) = -0.01781 0.24164
# Poissons Ratio (z) = 0.67712 0.59001
#
# Static dielectric constant tensor:
#      x y z
#    x 1.616910 0.000000 0.000000 
#    y 0.000000 1.691540 0.000000 
#    z 0.000000 0.000000 1.597040 
# 
# From -- ./inp_files/21965.got.cif
#   From: 2010.05.17/outbox.cif.g08.bks.cpg/sg40_11_cif.got.tgz:21965.got - 2010.06.03 18:35:42.
