data_PCOD9365713
_publ_section_title
;
Structure prediction by ZEFSAII (Michael W. Deem and Ramdas Pophale) SiO2 
 PCOD9365713
Probable space group: A B A 2
;
_chemical_formula_sum "Si O2"
_cell_formula_units_Z 44
_cell_length_a 25.951817
_cell_length_b 14.186373
_cell_length_c 5.312722
_cell_angle_alpha 90.000000
_cell_angle_beta 90.000000
_cell_angle_gamma 90.000000
_cell_volume 1955.943186
_symmetry_space_group_name_H-M "A B A 2"
_symmetry_group_IT_number 41
_symmetry_cell_setting 'orthorhombic'
loop_
_space_group_symop_operation_xyz
x,y,z
-x,-y,z
1/2-x,y,1/2+z
1/2+x,-y,1/2+z
x,1/2+y,1/2+z
-x,1/2-y,1/2+z
1/2-x,1/2+y,z
1/2+x,1/2-y,z
loop_
_atom_site_type_symbol
_atom_site_label
_atom_site_fract_x
_atom_site_fract_y
_atom_site_fract_z
Si Si1 0.764420 0.742247 0.530950
Si Si2 0.522194 0.205241 0.322854
Si Si3 0.606811 0.925147 0.532756
Si Si4 0.500000 0.500000 0.887622
Si Si5 0.721218 0.953398 0.514448
Si Si6 0.881965 0.803926 0.530971
O O1 0.753355 0.689394 0.276182
O O2 0.729041 0.837851 0.519420
O O3 0.823717 0.769444 0.546155
O O4 0.511423 0.266138 0.071269
O O5 0.578977 0.223833 0.434232
O O6 0.510815 0.097772 0.245497
O O7 0.553484 0.982308 0.534427
O O8 0.661239 0.977298 0.482529
O O9 0.603722 0.850544 0.299289
O O10 0.614133 0.879865 0.806957
O O11 0.755491 0.982874 0.279369
#
# Coordination Sequence:
#
# PCOD9365713 Si02
#       6
#     8   8   8   4   8   8
#     4  10  16  28  56  92 118 159 213 260 331 407
#     4  12  26  46  68  95 132 179 226 278 335 399
#     4  12  22  36  64  94 129 173 220 276 335 397
#     4  12  28  46  68  98 142 182 236 278 338 400
#     4  10  16  30  54  92 120 161 219 261 330 411
#     4  12  20  38  62  95 126 167 224 271 330 404
#
# _framework density 22.495542
#
# number of rings (size 3 to 8) (size 9 to 14) (size 15 to 20)
#    0.000    0.727   10.909    0.000    0.000    2.909 
#    0.000    0.000    0.000    2.182    0.000    0.000 
#    0.000    0.000    0.000    0.000    0.000    0.000 
#
# Total GULP energy -122801.689835 kJ/mol
# GULP energy per Si atom -5581.894992 kJ/mol
# Density = 2.244434 g / cm^3
# Si number density = 22.495542 Si / 1000 Ang^3
#
#
#
# Elastic Constant Matrix: (Units=GPa)
#
#
# Indices 1 2 3 4 5 6 
#
# 1 180.4938 10.9236 23.7364 0.0000 0.0000 0.0000
# 2 10.9236 80.3665 12.8857 0.0000 0.0000 0.0000
# 3 23.7364 12.8857 161.0703 0.0000 0.0000 0.0000
# 4 0.0000 0.0000 0.0000 -14.2623 0.0000 0.0000
# 5 0.0000 0.0000 0.0000 0.0000 34.4565 0.0000
# 6 0.0000 0.0000 0.0000 0.0000 0.0000 4.5806
#
#
#
# Elastic Compliance Matrix: (Units=1/GPa)
#
#
# Indices 1 2 3 4 5 6 
#
# 1 0.005683 -0.000646 -0.000786 0.000000 0.000000 0.000000
# 2 -0.000646 0.012678 -0.000919 0.000000 0.000000 0.000000
# 3 -0.000786 -0.000919 0.006398 0.000000 0.000000 0.000000
# 4 0.000000 0.000000 0.000000 -0.070115 0.000000 0.000000
# 5 0.000000 0.000000 0.000000 0.000000 0.029022 0.000000
# 6 0.000000 0.000000 0.000000 0.000000 0.000000 0.218310
#
#
# Mechanical properties :
#
#
# Convention : Reuss Voigt Hill
#
# Bulk Modulus (GPa) = 49.85931 57.44690 53.65310
# Shear Modulus (GPa) = 23.43418 29.91397 26.67407
#
# Velocity S-wave (km/s) = 3.23108 3.65056 3.44721
# Velocity P-wave (km/s) = 6.01099 6.58493 6.30449
#
# Compressibility (1/GPa) = 0.02005644
#
# Stress axis : x y z
#
# Youngs Moduli (GPa) = 175.96921 78.87553 156.30418
#
# Poissons Ratio (x) = 0.05099 0.12281
# Poissons Ratio (y) = 0.11375 0.14364
# Poissons Ratio (z) = 0.13827 0.07249
#
# Static dielectric constant tensor:
#      x y z
#    x 1.844540 0.000000 0.000000 
#    y 0.000000 1.860020 0.000000 
#    z 0.000000 0.000000 1.858190 
# 
# From -- ./inp_files/1108.got.cif
#   From: 2010.05.17/outbox.cif.g08.bks.cpg/sg41_1_cif.got.tgz:1108.got - 2010.06.03 18:54:24.
