data_PCOD9365175
_publ_section_title
;
Structure prediction by ZEFSAII (Michael W. Deem and Ramdas Pophale) SiO2 
 PCOD9365175
Probable space group: A M A 2
;
_chemical_formula_sum "Si O2"
_cell_formula_units_Z 40
_cell_length_a 23.899640
_cell_length_b 7.536222
_cell_length_c 10.213440
_cell_angle_alpha 90.000000
_cell_angle_beta 90.000000
_cell_angle_gamma 90.000000
_cell_volume 1839.573245
_symmetry_space_group_name_H-M "A M A 2"
_symmetry_group_IT_number 40
_symmetry_cell_setting 'orthorhombic'
loop_
_space_group_symop_operation_xyz
x,y,z
-x,-y,z
1/2-x,y,z
1/2+x,-y,z
x,1/2+y,1/2+z
-x,1/2-y,1/2+z
1/2-x,1/2+y,1/2+z
1/2+x,1/2-y,1/2+z
loop_
_atom_site_type_symbol
_atom_site_label
_atom_site_fract_x
_atom_site_fract_y
_atom_site_fract_z
Si Si1 0.106679 0.770942 0.546220
Si Si2 0.105409 0.801287 0.275858
Si Si3 0.106038 0.179581 0.481579
Si Si4 0.982373 0.708903 0.269650
Si Si5 0.315871 0.646109 0.763656
O O1 0.114643 0.677131 0.405064
O O2 0.055226 0.734541 0.644117
O O3 0.160627 0.750211 0.637651
O O4 0.097765 0.967764 0.490327
O O5 0.112226 0.721562 0.132269
O O6 0.038139 0.825611 0.277948
O O7 0.149591 0.961884 0.265907
O O8 0.054655 0.262262 0.400021
O O9 0.160819 0.230635 0.397869
O O10 0.000000 0.500000 0.256809
O O11 0.250000 0.625319 0.761817
#
# Coordination Sequence:
#
# PCOD9365175 Si02
#       5
#     8   8   8   8   8
#     4  10  23  41  63  96 134 169 214 264 329 390
#     4  11  23  39  68  97 131 167 216 267 327 395
#     4  10  23  43  65  97 129 171 214 263 325 396
#     4  11  22  39  65  98 143 170 210 264 330 402
#     4  10  25  45  64  89 127 171 222 277 325 378
#
# _framework density 21.744171999999999
#
# number of rings (size 3 to 8) (size 9 to 14) (size 15 to 20)
#    0.000    1.600    2.000    1.200    2.800   10.400 
#    3.600    0.000    0.000    0.000    0.000    0.000 
#    0.000    0.000    0.000    0.000    0.000    0.000 
#
# Total GULP energy -111459.959721 kJ/mol
# GULP energy per Si atom -5572.997986 kJ/mol
# Density = 2.169468 g / cm^3
# Si number density = 21.744172 Si / 1000 Ang^3
#
#
#
# Elastic Constant Matrix: (Units=GPa)
#
#
# Indices 1 2 3 4 5 6 
#
# 1 175.7037 51.2256 61.4504 0.0000 0.0000 0.0000
# 2 51.2256 45.3202 23.6330 0.0000 0.0000 0.0000
# 3 61.4504 23.6330 183.1221 0.0000 0.0000 0.0000
# 4 0.0000 0.0000 0.0000 7.0061 0.0000 0.0000
# 5 0.0000 0.0000 0.0000 0.0000 11.0809 0.0000
# 6 0.0000 0.0000 0.0000 0.0000 0.0000 22.5389
#
#
#
# Elastic Compliance Matrix: (Units=1/GPa)
#
#
# Indices 1 2 3 4 5 6 
#
# 1 0.009030 -0.009249 -0.001837 0.000000 0.000000 0.000000
# 2 -0.009249 0.033131 -0.001172 0.000000 0.000000 0.000000
# 3 -0.001837 -0.001172 0.006228 0.000000 0.000000 0.000000
# 4 0.000000 0.000000 0.000000 0.142734 0.000000 0.000000
# 5 0.000000 0.000000 0.000000 0.000000 0.090245 0.000000
# 6 0.000000 0.000000 0.000000 0.000000 0.000000 0.044368
#
#
# Mechanical properties :
#
#
# Convention : Reuss Voigt Hill
#
# Bulk Modulus (GPa) = 41.88681 75.19599 58.54140
# Shear Modulus (GPa) = 13.95830 25.98096 19.96963
#
# Velocity S-wave (km/s) = 2.53639 3.46041 3.03378
# Velocity P-wave (km/s) = 5.28043 7.11499 6.26522
#
# Compressibility (1/GPa) = 0.02387387
#
# Stress axis : x y z
#
# Youngs Moduli (GPa) = 110.73793 30.18333 160.55469
#
# Poissons Ratio (x) = 0.27917 0.29488
# Poissons Ratio (y) = 1.02425 0.18816
# Poissons Ratio (z) = 0.20339 0.03537
#
# Static dielectric constant tensor:
#      x y z
#    x 1.744840 0.000000 0.000000 
#    y 0.000000 1.997940 0.000000 
#    z 0.000000 0.000000 2.087400 
# 
# From -- ./inp_files/8597.got.cif
#   From: 2010.05.17/outbox.cif.g08.bks.cpg/sg40_5_cif.got.tgz:8597.got - 2010.06.03 18:35:42.
