data_PCOD9365163
_publ_section_title
;
Structure prediction by ZEFSAII (Michael W. Deem and Ramdas Pophale) SiO2 
 PCOD9365163
Probable space group: A M A 2
;
_chemical_formula_sum "Si O2"
_cell_formula_units_Z 32
_cell_length_a 13.748115
_cell_length_b 8.918961
_cell_length_c 11.521083
_cell_angle_alpha 90.000000
_cell_angle_beta 90.000000
_cell_angle_gamma 90.000000
_cell_volume 1412.702542
_symmetry_space_group_name_H-M "A M A 2"
_symmetry_group_IT_number 40
_symmetry_cell_setting 'orthorhombic'
loop_
_space_group_symop_operation_xyz
x,y,z
-x,-y,z
1/2-x,y,z
1/2+x,-y,z
x,1/2+y,1/2+z
-x,1/2-y,1/2+z
1/2-x,1/2+y,1/2+z
1/2+x,1/2-y,1/2+z
loop_
_atom_site_type_symbol
_atom_site_label
_atom_site_fract_x
_atom_site_fract_y
_atom_site_fract_z
Si Si1 0.750000 0.989609 0.381891
Si Si2 0.139467 0.987724 0.970460
Si Si3 0.000000 0.000000 0.177946
Si Si4 0.250000 0.192745 0.817183
Si Si5 0.750000 0.581934 0.148274
Si Si6 0.092071 0.745072 0.799382
O O1 0.750000 0.132712 0.297688
O O2 0.750000 0.057783 0.511367
O O3 0.842080 0.885134 0.356531
O O4 0.250000 0.923913 0.978110
O O5 0.159134 0.138249 0.897232
O O6 0.076748 0.870518 0.896607
O O7 0.092646 0.010691 0.094000
O O8 0.001478 0.154089 0.249296
O O9 0.250000 0.082052 0.707980
O O10 0.843024 0.671891 0.200198
#
# Coordination Sequence:
#
# PCOD9365163 Si02
#       6
#     4   8   4   4   4   8
#     4  11  19  35  66  92 120 161 213 253 314 376
#     4   9  21  44  65  90 132 168 210 266 319 379
#     4  12  24  36  72  92 126 178 210 262 332 372
#     4   8  18  36  66  92 116 166 216 248 310 390
#     4   9  19  39  60  82 128 169 197 265 316 360
#     4  10  23  40  59  98 129 156 217 270 303 388
#
# _framework density 22.651617999999999
#
# number of rings (size 3 to 8) (size 9 to 14) (size 15 to 20)
#    0.750    1.500    2.500    1.500    3.500    6.000 
#    0.000    2.500    0.000    6.000    0.000    0.000 
#    0.000    0.000    0.000    0.000    0.000    0.000 
#
# Total GULP energy -89377.477282 kJ/mol
# GULP energy per Si atom -5586.092330 kJ/mol
# Density = 2.260006 g / cm^3
# Si number density = 22.651618 Si / 1000 Ang^3
#
#
#
# Elastic Constant Matrix: (Units=GPa)
#
#
# Indices 1 2 3 4 5 6 
#
# 1 40.4643 10.7550 10.4333 0.0000 0.0000 0.0000
# 2 10.7550 147.7225 36.5861 0.0000 0.0000 0.0000
# 3 10.4333 36.5861 87.1353 0.0000 0.0000 0.0000
# 4 0.0000 0.0000 0.0000 4.1815 0.0000 0.0000
# 5 0.0000 0.0000 0.0000 0.0000 17.6673 0.0000
# 6 0.0000 0.0000 0.0000 0.0000 0.0000 22.5990
#
#
#
# Elastic Compliance Matrix: (Units=1/GPa)
#
#
# Indices 1 2 3 4 5 6 
#
# 1 0.025702 -0.001238 -0.002558 0.000000 0.000000 0.000000
# 2 -0.001238 0.007615 -0.003049 0.000000 0.000000 0.000000
# 3 -0.002558 -0.003049 0.013063 0.000000 0.000000 0.000000
# 4 0.000000 0.000000 0.000000 0.239146 0.000000 0.000000
# 5 0.000000 0.000000 0.000000 0.000000 0.056602 0.000000
# 6 0.000000 0.000000 0.000000 0.000000 0.000000 0.044250
#
#
# Mechanical properties :
#
#
# Convention : Reuss Voigt Hill
#
# Bulk Modulus (GPa) = 30.59024 43.43010 37.01017
# Shear Modulus (GPa) = 12.16656 23.39276 17.77966
#
# Velocity S-wave (km/s) = 2.32009 3.21708 2.80468
# Velocity P-wave (km/s) = 4.55094 5.74580 5.18292
#
# Compressibility (1/GPa) = 0.03269017
#
# Stress axis : x y z
#
# Youngs Moduli (GPa) = 38.90810 131.32477 76.55289
#
# Poissons Ratio (x) = 0.16255 0.19580
# Poissons Ratio (y) = 0.04816 0.23341
# Poissons Ratio (z) = 0.09952 0.40041
#
# Static dielectric constant tensor:
#      x y z
#    x 1.916390 0.000000 0.000000 
#    y 0.000000 1.831690 0.000000 
#    z 0.000000 0.000000 1.815140 
# 
# From -- ./inp_files/12693.got.cif
#   From: 2010.05.17/outbox.cif.g08.bks.cpg/sg40_7_cif.got.tgz:12693.got - 2010.06.03 18:35:42.
