data_PCOD9365051
_publ_section_title
;
Structure prediction by ZEFSAII (Michael W. Deem and Ramdas Pophale) SiO2 
 PCOD9365051
Probable space group: A M A 2
;
_chemical_formula_sum "Si O2"
_cell_formula_units_Z 20
_cell_length_a 12.784722
_cell_length_b 7.386891
_cell_length_c 6.722578
_cell_angle_alpha 90.000000
_cell_angle_beta 90.000000
_cell_angle_gamma 90.000000
_cell_volume 634.875882
_symmetry_space_group_name_H-M "A M A 2"
_symmetry_group_IT_number 40
_symmetry_cell_setting 'orthorhombic'
loop_
_space_group_symop_operation_xyz
x,y,z
-x,-y,z
1/2-x,y,z
1/2+x,-y,z
x,1/2+y,1/2+z
-x,1/2-y,1/2+z
1/2-x,1/2+y,1/2+z
1/2+x,1/2-y,1/2+z
loop_
_atom_site_type_symbol
_atom_site_label
_atom_site_fract_x
_atom_site_fract_y
_atom_site_fract_z
Si Si1 0.931667 0.818991 0.339840
Si Si2 0.750000 0.250369 0.049473
Si Si3 0.359631 0.123357 0.925433
O O1 0.848725 0.888562 0.504330
O O2 0.862500 0.789786 0.142500
O O3 0.029534 0.681214 0.344755
O O4 0.000000 0.000000 0.297589
O O5 0.660804 0.087219 0.974450
O O6 0.250000 0.201841 0.809338
#
# Coordination Sequence:
#
# PCOD9365051 Si02
#       3
#     8   4   8
#     4  12  24  42  68  96 127 168 216 261 315 380
#     4  10  22  42  66  94 128 170 210 258 326 370
#     4  10  22  43  64  92 132 165 208 264 313 377
#
# _framework density 31.502219
#
# number of rings (size 3 to 8) (size 9 to 14) (size 15 to 20)
#    1.200    0.000    6.000    0.000    2.800    1.600 
#    0.000    4.000    0.000    0.000    0.000    0.000 
#    0.000    0.000    0.000    0.000    0.000    0.000 
#
# Total GULP energy -55668.767226 kJ/mol
# GULP energy per Si atom -5566.876723 kJ/mol
# Density = 3.143052 g / cm^3
# Si number density = 31.502219 Si / 1000 Ang^3
#
#
#
# Elastic Constant Matrix: (Units=GPa)
#
#
# Indices 1 2 3 4 5 6 
#
# 1 390.3042 -0.8047 128.2515 0.0000 0.0000 0.0000
# 2 -0.8047 123.6715 6.3472 0.0000 0.0000 0.0000
# 3 128.2515 6.3472 162.8147 0.0000 0.0000 0.0000
# 4 0.0000 0.0000 0.0000 49.6905 0.0000 0.0000
# 5 0.0000 0.0000 0.0000 0.0000 121.9307 0.0000
# 6 0.0000 0.0000 0.0000 0.0000 0.0000 43.8198
#
#
#
# Elastic Compliance Matrix: (Units=1/GPa)
#
#
# Indices 1 2 3 4 5 6 
#
# 1 0.003460 0.000163 -0.002732 0.000000 0.000000 0.000000
# 2 0.000163 0.008110 -0.000444 0.000000 0.000000 0.000000
# 3 -0.002732 -0.000444 0.008311 0.000000 0.000000 0.000000
# 4 0.000000 0.000000 0.000000 0.020125 0.000000 0.000000
# 5 0.000000 0.000000 0.000000 0.000000 0.008201 0.000000
# 6 0.000000 0.000000 0.000000 0.000000 0.000000 0.022821
#
#
# Mechanical properties :
#
#
# Convention : Reuss Voigt Hill
#
# Bulk Modulus (GPa) = 72.18082 104.93094 88.55588
# Shear Modulus (GPa) = 61.21973 79.28797 70.25385
#
# Velocity S-wave (km/s) = 4.41312 5.02232 4.72754
# Velocity P-wave (km/s) = 6.99501 8.18614 7.61391
#
# Compressibility (1/GPa) = 0.01385410
#
# Stress axis : x y z
#
# Youngs Moduli (GPa) = 289.00562 123.30759 120.31854
#
# Poissons Ratio (x) = -0.02007 0.32870
# Poissons Ratio (y) = -0.04703 0.05346
# Poissons Ratio (z) = 0.78955 0.05479
#
# Static dielectric constant tensor:
#      x y z
#    x 0.287430 0.000000 0.000000 
#    y 0.000000 2.965140 0.000000 
#    z 0.000000 0.000000 2.849050 
# 
# From -- ./inp_files/4728.got.cif
#   From: 2010.05.17/outbox.cif.g08.bks.cpg/sg40_3_cif.got.tgz:4728.got - 2010.06.03 18:35:42.
