data_PCOD9365259
_publ_section_title
;
Structure prediction by ZEFSAII (Michael W. Deem and Ramdas Pophale) SiO2 
 PCOD9365259
Probable space group: A M A 2
;
_chemical_formula_sum "Si O2"
_cell_formula_units_Z 52
_cell_length_a 25.571150
_cell_length_b 5.401882
_cell_length_c 18.324096
_cell_angle_alpha 90.000000
_cell_angle_beta 90.000000
_cell_angle_gamma 90.000000
_cell_volume 2531.150165
_symmetry_space_group_name_H-M "A M A 2"
_symmetry_group_IT_number 40
_symmetry_cell_setting 'orthorhombic'
loop_
_space_group_symop_operation_xyz
x,y,z
-x,-y,z
1/2-x,y,z
1/2+x,-y,z
x,1/2+y,1/2+z
-x,1/2-y,1/2+z
1/2-x,1/2+y,1/2+z
1/2+x,1/2-y,1/2+z
loop_
_atom_site_type_symbol
_atom_site_label
_atom_site_fract_x
_atom_site_fract_y
_atom_site_fract_z
Si Si1 0.000000 0.000000 0.134990
Si Si2 0.806525 0.194527 0.665628
Si Si3 0.060590 0.712094 0.314999
Si Si4 0.419903 0.885013 0.681014
Si Si5 0.306693 0.808037 0.069038
Si Si6 0.579250 0.316622 0.038030
Si Si7 0.057667 0.208097 0.373797
O O1 0.041103 0.865938 0.081733
O O2 0.965125 0.817362 0.183949
O O3 0.750000 0.208579 0.704803
O O4 0.862412 0.201540 0.704639
O O5 0.807881 0.431628 0.611937
O O6 0.806731 0.929493 0.623641
O O7 0.066324 0.617809 0.232207
O O8 0.082375 0.479019 0.361237
O O9 0.000746 0.750855 0.341784
O O10 0.084461 0.979093 0.332296
O O11 0.418003 0.956392 0.595191
O O12 0.250000 0.797189 0.029922
O O13 0.361719 0.783120 0.028134
O O14 0.556556 0.362424 0.958498
#
# Coordination Sequence:
#
# PCOD9365259 Si02
#       7
#     4   8   8   8   8   8   8
#     4  12  24  34  60  96 128 158 204 270 308 374
#     4   9  18  36  58  87 120 155 201 262 325 368
#     4  10  24  41  56  81 121 171 205 243 307 380
#     4  11  25  37  62  92 124 161 216 267 308 377
#     4   9  18  35  59  89 121 154 201 263 323 367
#     4  11  24  38  62  92 125 162 213 264 310 381
#     4  10  24  40  58  79 122 172 203 242 313 379
#
# _framework density 20.544018999999999
#
# number of rings (size 3 to 8) (size 9 to 14) (size 15 to 20)
#    0.000    1.846    1.538    1.385   12.923    0.000 
#    0.000    0.000    0.000    1.846    0.000    0.000 
#    0.000    0.000    0.000    0.000    0.000    0.615 
#
# Total GULP energy -144908.452681 kJ/mol
# GULP energy per Si atom -5573.402026 kJ/mol
# Density = 2.049726 g / cm^3
# Si number density = 20.544019 Si / 1000 Ang^3
#
#
#
# Elastic Constant Matrix: (Units=GPa)
#
#
# Indices 1 2 3 4 5 6 
#
# 1 169.4244 28.4213 32.1468 0.0000 0.0000 0.0000
# 2 28.4213 141.4098 31.1077 0.0000 0.0000 0.0000
# 3 32.1468 31.1077 118.4946 0.0000 0.0000 0.0000
# 4 0.0000 0.0000 0.0000 21.7929 0.0000 0.0000
# 5 0.0000 0.0000 0.0000 0.0000 10.4770 0.0000
# 6 0.0000 0.0000 0.0000 0.0000 0.0000 22.8414
#
#
#
# Elastic Compliance Matrix: (Units=1/GPa)
#
#
# Indices 1 2 3 4 5 6 
#
# 1 0.006341 -0.000951 -0.001471 0.000000 0.000000 0.000000
# 2 -0.000951 0.007648 -0.001750 0.000000 0.000000 0.000000
# 3 -0.001471 -0.001750 0.009298 0.000000 0.000000 0.000000
# 4 0.000000 0.000000 0.000000 0.045887 0.000000 0.000000
# 5 0.000000 0.000000 0.000000 0.000000 0.095447 0.000000
# 6 0.000000 0.000000 0.000000 0.000000 0.000000 0.043780
#
#
# Mechanical properties :
#
#
# Convention : Reuss Voigt Hill
#
# Bulk Modulus (GPa) = 66.91833 68.07561 67.49697
# Shear Modulus (GPa) = 22.55062 33.53247 28.04154
#
# Velocity S-wave (km/s) = 3.31671 4.04446 3.69853
# Velocity P-wave (km/s) = 6.87832 7.41746 7.15297
#
# Compressibility (1/GPa) = 0.01494359
#
# Stress axis : x y z
#
# Youngs Moduli (GPa) = 157.70661 130.75873 107.55560
#
# Poissons Ratio (x) = 0.12434 0.15817
# Poissons Ratio (y) = 0.14997 0.18819
# Poissons Ratio (z) = 0.23192 0.22879
#
# Static dielectric constant tensor:
#      x y z
#    x 1.805010 0.000000 0.000000 
#    y 0.000000 1.866290 0.000000 
#    z 0.000000 0.000000 1.730510 
# 
# From -- ./inp_files/21587.got.cif
#   From: 2010.05.17/outbox.cif.g08.bks.cpg/sg40_11_cif.got.tgz:21587.got - 2010.06.03 18:35:42.
