data_PCOD9365696
_publ_section_title
;
Structure prediction by ZEFSAII (Michael W. Deem and Ramdas Pophale) SiO2 
 PCOD9365696
Probable space group: A M A 2
;
_chemical_formula_sum "Si O2"
_cell_formula_units_Z 32
_cell_length_a 18.000000
_cell_length_b 15.000000
_cell_length_c 12.000000
_cell_angle_alpha 90.000000
_cell_angle_beta 90.000000
_cell_angle_gamma 90.000000
_cell_volume 3240.000000
_symmetry_space_group_name_H-M "A M A 2"
_symmetry_group_IT_number 40
_symmetry_cell_setting 'orthorhombic'
loop_
_space_group_symop_operation_xyz
x,y,z
-x,-y,z
1/2-x,y,z
1/2+x,-y,z
x,1/2+y,1/2+z
-x,1/2-y,1/2+z
1/2-x,1/2+y,1/2+z
1/2+x,1/2-y,1/2+z
loop_
_atom_site_type_symbol
_atom_site_label
_atom_site_fract_x
_atom_site_fract_y
_atom_site_fract_z
Si Si1 0.106491 0.573909 0.480830
Si Si2 0.441393 0.368472 0.480838
Si Si3 0.160550 0.401636 0.851671
Si Si4 0.414643 0.260927 0.699273
Si Si5 0.660549 0.598360 0.110011
Si Si6 0.663053 0.918185 0.228271
Si Si7 0.914637 0.239077 0.762413
Si Si8 0.163054 0.081824 0.733394
O O1 0.081981 0.470955 0.480824
O O2 0.149867 0.587786 0.595636
O O3 0.149873 0.587795 0.366030
O O4 0.031300 0.632382 0.480829
O O5 0.410562 0.320389 0.589354
O O6 0.410549 0.320371 0.372343
O O7 0.250000 0.396221 0.846021
O O8 0.126887 0.313419 0.797505
O O9 0.136726 0.487741 0.779298
O O10 0.139182 0.411788 0.980841
O O11 0.500002 0.249997 0.730846
O O12 0.379814 0.164414 0.680800
O O13 0.750000 0.603774 0.115661
O O14 0.626889 0.686577 0.164184
O O15 0.636724 0.512252 0.182375
O O16 0.750000 0.910532 0.252378
O O17 0.620187 0.835594 0.280867
O O18 0.250000 0.089477 0.709278
#
# Coordination Sequence:
#
# PCOD9365696 Si02
#       8
#     8   8   8   8   8   8   8   8
#     4  11  21  44  68  93 130 170 216 268 319 386
#     4  11  24  42  66  94 136 170 212 271 325 383
#     4  10  24  46  66  92 130 169 213 264 319 382
#     4  12  25  42  65  96 130 169 216 263 324 385
#     4  10  24  46  66  92 130 169 213 264 319 382
#     4  11  24  43  67  95 127 170 217 265 322 384
#     4  12  25  42  65  96 130 169 216 263 324 385
#     4  11  24  43  67  95 127 170 217 265 322 384
#
# _framework density 9.8765429999999999
#
# number of rings (size 3 to 8) (size 9 to 14) (size 15 to 20)
#    0.000    1.000    5.000    1.125    5.250    1.000 
#    0.000    3.125    0.000    0.000    0.000    0.000 
#    0.000    0.000    0.000    0.000    0.000    0.000 
#
# Total GULP energy -178873.139786 kJ/mol
# GULP energy per Si atom -5589.785618 kJ/mol
# Density = 0.985406 g / cm^3
# Si number density = 9.876543 Si / 1000 Ang^3
#
#
#
# Elastic Constant Matrix: (Units=GPa)
#
#
# Indices 1 2 3 4 5 6 
#
# 1 40.7376 19.3588 3.3452 0.0000 0.0000 0.0000
# 2 19.3588 83.9345 12.9739 0.0000 0.0000 0.0000
# 3 3.3452 12.9739 96.0926 0.0000 0.0000 0.0000
# 4 0.0000 0.0000 0.0000 12.5385 0.0000 0.0000
# 5 0.0000 0.0000 0.0000 0.0000 23.2545 0.0000
# 6 0.0000 0.0000 0.0000 0.0000 0.0000 35.3176
#
#
#
# Elastic Compliance Matrix: (Units=1/GPa)
#
#
# Indices 1 2 3 4 5 6 
#
# 1 0.027570 -0.006343 -0.000103 0.000000 0.000000 0.000000
# 2 -0.006343 0.013627 -0.001619 0.000000 0.000000 0.000000
# 3 -0.000103 -0.001619 0.010629 0.000000 0.000000 0.000000
# 4 0.000000 0.000000 0.000000 0.079754 0.000000 0.000000
# 5 0.000000 0.000000 0.000000 0.000000 0.043003 0.000000
# 6 0.000000 0.000000 0.000000 0.000000 0.000000 0.028314
#
#
# Mechanical properties :
#
#
# Convention : Reuss Voigt Hill
#
# Bulk Modulus (GPa) = 28.01475 32.45783 30.23629
# Shear Modulus (GPa) = 21.65192 26.56123 24.10658
#
# Velocity S-wave (km/s) = 3.31438 3.67094 3.49721
# Velocity P-wave (km/s) = 5.37215 5.86815 5.62562
#
# Compressibility (1/GPa) = 0.03569548
#
# Stress axis : x y z
#
# Youngs Moduli (GPa) = 36.27137 73.38247 94.08374
#
# Poissons Ratio (x) = 0.46545 0.00973
# Poissons Ratio (y) = 0.23006 0.15233
# Poissons Ratio (z) = 0.00375 0.11881
#
# Static dielectric constant tensor:
#      x y z
#    x 1.669510 0.000000 0.000000 
#    y 0.000000 1.667130 0.000000 
#    z 0.000000 0.000000 1.677190 
# 
# From -- ./inp_files/13152.got.cif
#   From: 2010.05.17/outbox.ucp.g08.bks.cvg/sg40_7_cif.got.tgz:13152.got - 2010.06.11 16:26:39.
