data_PCOD9365991
_publ_section_title
;
Structure prediction by ZEFSAII (Michael W. Deem and Ramdas Pophale) SiO2 
 PCOD9365991
Probable space group: A B A 2
;
_chemical_formula_sum "Si O2"
_cell_formula_units_Z 64
_cell_length_a 5.403279
_cell_length_b 30.163369
_cell_length_c 15.041908
_cell_angle_alpha 90.000000
_cell_angle_beta 90.000000
_cell_angle_gamma 90.000000
_cell_volume 2451.546686
_symmetry_space_group_name_H-M "A B A 2"
_symmetry_group_IT_number 41
_symmetry_cell_setting 'orthorhombic'
loop_
_space_group_symop_operation_xyz
x,y,z
-x,-y,z
1/2-x,y,1/2+z
1/2+x,-y,1/2+z
x,1/2+y,1/2+z
-x,1/2-y,1/2+z
1/2-x,1/2+y,z
1/2+x,1/2-y,z
loop_
_atom_site_type_symbol
_atom_site_label
_atom_site_fract_x
_atom_site_fract_y
_atom_site_fract_z
Si Si1 0.058884 0.732499 0.894170
Si Si2 0.232631 0.643304 0.315910
Si Si3 0.944680 0.732271 0.103976
Si Si4 0.748899 0.135718 0.568660
Si Si5 0.767574 0.611899 0.751227
Si Si6 0.254040 0.104624 0.989500
Si Si7 0.250309 0.974429 0.371390
Si Si8 0.251078 0.007304 0.570471
O O1 0.275948 0.765335 0.859192
O O2 0.190695 0.686091 0.872832
O O3 0.009914 0.740840 0.999242
O O4 0.462755 0.634510 0.252121
O O5 0.223106 0.602357 0.384507
O O6 0.962607 0.643907 0.274425
O O7 0.224963 0.736162 0.142522
O O8 0.813793 0.684459 0.104916
O O9 0.768618 0.100287 0.648251
O O10 0.478794 0.132858 0.525593
O O11 0.976735 0.125297 0.504679
O O12 0.761756 0.572233 0.821350
O O13 0.245219 0.057151 0.034361
O O14 0.500000 0.000000 0.346346
O O15 0.252397 0.975868 0.481150
O O16 0.000000 0.000000 0.348365
O O17 0.500000 0.000000 0.623278
O O18 0.000000 0.000000 0.621537
#
# Coordination Sequence:
#
# PCOD9365991 Si02
#       8
#     8   8   8   8   8   8   8   8
#     4  10  21  37  62  98 132 166 223 287 333 388
#     4  12  23  42  68  99 126 181 226 279 338 409
#     4  10  21  40  67  94 131 182 227 270 332 409
#     4  12  26  45  64 105 140 177 224 288 343 405
#     4  12  26  44  68  98 143 178 220 279 354 415
#     4  12  24  41  71  97 131 171 234 288 332 393
#     4  10  20  39  64  90 122 172 223 263 321 413
#     4  10  19  36  60  93 123 159 217 278 323 390
#
# _framework density 26.105967
#
# number of rings (size 3 to 8) (size 9 to 14) (size 15 to 20)
#    0.000    1.000    1.250    7.500    3.500    0.000 
#    0.000    7.500    0.000    0.000    0.000    0.000 
#    0.000    0.000    0.000    0.000    0.000    0.000 
#
# Total GULP energy -179031.418078 kJ/mol
# GULP energy per Si atom -5594.731815 kJ/mol
# Density = 2.604655 g / cm^3
# Si number density = 26.105967 Si / 1000 Ang^3
#
#
#
# Elastic Constant Matrix: (Units=GPa)
#
#
# Indices 1 2 3 4 5 6 
#
# 1 241.0663 60.6098 29.5014 0.0000 0.0000 0.0000
# 2 60.6098 69.6545 -0.8025 0.0000 0.0000 0.0000
# 3 29.5014 -0.8025 68.0027 0.0000 0.0000 0.0000
# 4 0.0000 0.0000 0.0000 5.8402 0.0000 0.0000
# 5 0.0000 0.0000 0.0000 0.0000 13.7287 0.0000
# 6 0.0000 0.0000 0.0000 0.0000 0.0000 44.2170
#
#
#
# Elastic Compliance Matrix: (Units=1/GPa)
#
#
# Indices 1 2 3 4 5 6 
#
# 1 0.005717 -0.005004 -0.002539 0.000000 0.000000 0.000000
# 2 -0.005004 0.018738 0.002392 0.000000 0.000000 0.000000
# 3 -0.002539 0.002392 0.015835 0.000000 0.000000 0.000000
# 4 0.000000 0.000000 0.000000 0.171226 0.000000 0.000000
# 5 0.000000 0.000000 0.000000 0.000000 0.072840 0.000000
# 6 0.000000 0.000000 0.000000 0.000000 0.000000 0.022616
#
#
# Mechanical properties :
#
#
# Convention : Reuss Voigt Hill
#
# Bulk Modulus (GPa) = 33.34667 61.92677 47.63672
# Shear Modulus (GPa) = 15.27786 32.05151 23.66468
#
# Velocity S-wave (km/s) = 2.42177 3.50772 3.01406
# Velocity P-wave (km/s) = 4.54106 6.33864 5.51360
#
# Compressibility (1/GPa) = 0.02998801
#
# Stress axis : x y z
#
# Youngs Moduli (GPa) = 174.91344 53.36651 63.15072
#
# Poissons Ratio (x) = 0.26705 0.16036
# Poissons Ratio (y) = 0.87527 -0.15106
# Poissons Ratio (z) = 0.44416 -0.12765
#
# Static dielectric constant tensor:
#      x y z
#    x 2.110530 0.000000 0.000000 
#    y 0.000000 2.099440 0.000000 
#    z 0.000000 0.000000 2.011190 
# 
# From -- ./inp_files/9523.got.cif
#   From: 2010.05.17/outbox.cif.g08.bks.cpg/sg41_5_cif.got.tgz:9523.got - 2010.06.03 18:54:24.
