data_PCOD9365882
_publ_section_title
;
Structure prediction by ZEFSAII (Michael W. Deem and Ramdas Pophale) SiO2 
 PCOD9365882
Probable space group: A B A 2
;
_chemical_formula_sum "Si O2"
_cell_formula_units_Z 48
_cell_length_a 5.291500
_cell_length_b 25.931880
_cell_length_c 13.745872
_cell_angle_alpha 90.000000
_cell_angle_beta 90.000000
_cell_angle_gamma 90.000000
_cell_volume 1886.188528
_symmetry_space_group_name_H-M "A B A 2"
_symmetry_group_IT_number 41
_symmetry_cell_setting 'orthorhombic'
loop_
_space_group_symop_operation_xyz
x,y,z
-x,-y,z
1/2-x,y,1/2+z
1/2+x,-y,1/2+z
x,1/2+y,1/2+z
-x,1/2-y,1/2+z
1/2-x,1/2+y,z
1/2+x,1/2-y,z
loop_
_atom_site_type_symbol
_atom_site_label
_atom_site_fract_x
_atom_site_fract_y
_atom_site_fract_z
Si Si1 0.407344 0.056088 0.033510
Si Si2 0.259938 0.267933 0.790371
Si Si3 0.589863 0.943056 0.271400
Si Si4 0.904965 0.616838 0.767228
Si Si5 0.908770 0.112456 0.032397
Si Si6 0.409808 0.769736 0.507831
O O1 0.400347 0.054736 0.152329
O O2 0.625637 0.096301 0.004491
O O3 0.128080 0.072888 0.001924
O O4 0.500000 0.000000 0.000504
O O5 0.545877 0.270286 0.748932
O O6 0.117412 0.322795 0.789865
O O7 0.330694 0.251194 0.900335
O O8 0.360576 0.906383 0.300546
O O9 0.857022 0.917631 0.301292
O O10 0.500000 0.000000 0.302675
O O11 0.911590 0.613015 0.649944
O O12 0.973026 0.170251 0.001669
O O13 0.637838 0.739103 0.556538
#
# Coordination Sequence:
#
# PCOD9365882 Si02
#       6
#     8   8   8   8   8   8
#     4   9  17  30  49  75 105 132 161 200 247 300
#     4  10  21  36  52  71  98 134 171 207 254 306
#     4   9  17  30  49  75 105 132 161 200 247 300
#     4  10  19  31  51  77 101 130 168 208 249 293
#     4  10  19  31  51  77 101 130 168 208 249 293
#     4  10  21  36  52  71  98 134 171 207 254 306
#
# _framework density 25.448145
#
# number of rings (size 3 to 8) (size 9 to 14) (size 15 to 20)
#    0.000    2.333    0.000    3.000    0.000    5.333 
#    0.000    0.000    0.000    4.000    0.000    0.000 
#    0.000    0.000    0.000    0.000    0.000    0.000 
#
# Total GULP energy -134190.431774 kJ/mol
# GULP energy per Si atom -5591.267991 kJ/mol
# Density = 2.539022 g / cm^3
# Si number density = 25.448145 Si / 1000 Ang^3
#
#
#
# Elastic Constant Matrix: (Units=GPa)
#
#
# Indices 1 2 3 4 5 6 
#
# 1 215.8054 58.5319 10.6142 0.0000 0.0000 0.0000
# 2 58.5319 125.1715 -26.0307 0.0000 0.0000 0.0000
# 3 10.6142 -26.0307 59.1627 0.0000 0.0000 0.0000
# 4 0.0000 0.0000 0.0000 29.0575 0.0000 0.0000
# 5 0.0000 0.0000 0.0000 0.0000 23.1421 0.0000
# 6 0.0000 0.0000 0.0000 0.0000 0.0000 51.6347
#
#
#
# Elastic Compliance Matrix: (Units=1/GPa)
#
#
# Indices 1 2 3 4 5 6 
#
# 1 0.005594 -0.003109 -0.002371 0.000000 0.000000 0.000000
# 2 -0.003109 0.010521 0.005187 0.000000 0.000000 0.000000
# 3 -0.002371 0.005187 0.019610 0.000000 0.000000 0.000000
# 4 0.000000 0.000000 0.000000 0.034414 0.000000 0.000000
# 5 0.000000 0.000000 0.000000 0.000000 0.043211 0.000000
# 6 0.000000 0.000000 0.000000 0.000000 0.000000 0.019367
#
#
# Mechanical properties :
#
#
# Convention : Reuss Voigt Hill
#
# Bulk Modulus (GPa) = 28.45842 54.04115 41.24978
# Shear Modulus (GPa) = 34.47869 44.56848 39.52358
#
# Velocity S-wave (km/s) = 3.68484 4.18945 3.94522
# Velocity P-wave (km/s) = 5.41398 6.68460 6.08256
#
# Compressibility (1/GPa) = 0.03513899
#
# Stress axis : x y z
#
# Youngs Moduli (GPa) = 178.77503 95.04390 50.99389
#
# Poissons Ratio (x) = 0.29547 0.12092
# Poissons Ratio (y) = 0.55578 -0.26451
# Poissons Ratio (z) = 0.42394 -0.49299
#
# Static dielectric constant tensor:
#      x y z
#    x 2.067590 0.000000 0.000000 
#    y 0.000000 1.934550 0.000000 
#    z 0.000000 0.000000 2.121420 
# 
# From -- ./inp_files/9431.got.cif
#   From: 2010.05.17/outbox.cif.g08.bks.cpg/sg41_5_cif.got.tgz:9431.got - 2010.06.03 18:54:24.
