data_PCOD9365058
_publ_section_title
;
Structure prediction by ZEFSAII (Michael W. Deem and Ramdas Pophale) SiO2 
 PCOD9365058
Probable space group: A M A 2
;
_chemical_formula_sum "Si O2"
_cell_formula_units_Z 64
_cell_length_a 15.096488
_cell_length_b 8.970697
_cell_length_c 22.541386
_cell_angle_alpha 90.000000
_cell_angle_beta 90.000000
_cell_angle_gamma 90.000000
_cell_volume 3052.690183
_symmetry_space_group_name_H-M "A M A 2"
_symmetry_group_IT_number 40
_symmetry_cell_setting 'orthorhombic'
loop_
_space_group_symop_operation_xyz
x,y,z
-x,-y,z
1/2-x,y,z
1/2+x,-y,z
x,1/2+y,1/2+z
-x,1/2-y,1/2+z
1/2-x,1/2+y,1/2+z
1/2+x,1/2-y,1/2+z
loop_
_atom_site_type_symbol
_atom_site_label
_atom_site_fract_x
_atom_site_fract_y
_atom_site_fract_z
Si Si1 0.569601 0.872320 0.445080
Si Si2 0.903418 0.419254 0.070950
Si Si3 0.025463 0.827274 0.155912
Si Si4 0.347019 0.782103 0.614598
Si Si5 0.475736 0.826899 0.287175
Si Si6 0.934814 0.364362 0.499248
Si Si7 0.649457 0.863624 0.872351
Si Si8 0.649495 0.704778 0.332589
O O1 0.627922 0.915420 0.502504
O O2 0.504359 0.755552 0.475849
O O3 0.623949 0.797688 0.392272
O O4 0.500000 0.000000 0.425886
O O5 0.918293 0.263800 0.106271
O O6 0.846042 0.540541 0.105028
O O7 0.000000 0.500000 0.068451
O O8 0.066175 0.813783 0.221583
O O9 0.929027 0.750948 0.156776
O O10 0.000000 0.000000 0.144670
O O11 0.250000 0.728809 0.632788
O O12 0.377251 0.699750 0.553272
O O13 0.415626 0.749155 0.337661
O O14 0.570405 0.745510 0.289051
O O15 0.500000 0.000000 0.296362
O O16 0.875711 0.390600 0.441074
O O17 0.000000 0.500000 0.515136
O O18 0.750000 0.807673 0.868312
O O19 0.644077 0.028270 0.844446
O O20 0.750000 0.741478 0.314625
#
# Coordination Sequence:
#
# PCOD9365058 Si02
#       8
#     8   8   8   8   8   8   8   8
#     4  11  19  37  60  88 123 163 204 247 306 371
#     4   9  19  37  59  85 117 157 199 243 305 374
#     4  10  22  42  67  85 113 162 211 255 318 384
#     4  11  23  38  60  95 127 159 207 261 313 375
#     4  11  24  43  64  89 120 163 211 264 325 377
#     4  12  20  37  65  89 128 171 207 248 309 374
#     4  11  24  41  63  93 127 165 210 259 315 380
#     4  11  24  39  60  92 125 164 210 254 306 372
#
# _framework density 20.965114
#
# number of rings (size 3 to 8) (size 9 to 14) (size 15 to 20)
#    0.000    1.250    6.250    1.500    0.000    4.500 
#    0.000    4.375    0.000    0.000    0.000    0.000 
#    0.000    0.000    0.000    0.000    0.000    0.000 
#
# Total GULP energy -178451.448044 kJ/mol
# GULP energy per Si atom -5576.607751 kJ/mol
# Density = 2.091740 g / cm^3
# Si number density = 20.965114 Si / 1000 Ang^3
#
#
#
# Elastic Constant Matrix: (Units=GPa)
#
#
# Indices 1 2 3 4 5 6 
#
# 1 89.4456 18.7261 6.9675 0.0000 0.0000 0.0000
# 2 18.7261 95.9888 21.2673 0.0000 0.0000 0.0000
# 3 6.9675 21.2673 113.5637 0.0000 0.0000 0.0000
# 4 0.0000 0.0000 0.0000 8.6031 0.0000 0.0000
# 5 0.0000 0.0000 0.0000 0.0000 6.5633 0.0000
# 6 0.0000 0.0000 0.0000 0.0000 0.0000 15.3725
#
#
#
# Elastic Compliance Matrix: (Units=1/GPa)
#
#
# Indices 1 2 3 4 5 6 
#
# 1 0.011666 -0.002209 -0.000302 0.000000 0.000000 0.000000
# 2 -0.002209 0.011287 -0.001978 0.000000 0.000000 0.000000
# 3 -0.000302 -0.001978 0.009195 0.000000 0.000000 0.000000
# 4 0.000000 0.000000 0.000000 0.116237 0.000000 0.000000
# 5 0.000000 0.000000 0.000000 0.000000 0.152363 0.000000
# 6 0.000000 0.000000 0.000000 0.000000 0.000000 0.065051
#
#
# Mechanical properties :
#
#
# Convention : Reuss Voigt Hill
#
# Bulk Modulus (GPa) = 43.16072 43.65777 43.40924
# Shear Modulus (GPa) = 13.07190 22.91026 17.99108
#
# Velocity S-wave (km/s) = 2.49972 3.30931 2.93259
# Velocity P-wave (km/s) = 5.38174 5.95577 5.67602
#
# Compressibility (1/GPa) = 0.02316921
#
# Stress axis : x y z
#
# Youngs Moduli (GPa) = 85.71942 88.59656 108.75909
#
# Poissons Ratio (x) = 0.19570 0.03285
# Poissons Ratio (y) = 0.18935 0.21515
# Poissons Ratio (z) = 0.02589 0.17527
#
# Static dielectric constant tensor:
#      x y z
#    x 1.726670 0.000000 0.000000 
#    y 0.000000 1.819150 0.000000 
#    z 0.000000 0.000000 1.866640 
# 
# From -- ./inp_files/24845.got.cif
#   From: 2010.05.17/outbox.cif.g08.bks.cpg/sg40_13_cif.got.tgz:24845.got - 2010.06.03 18:35:42.
