data_PCOD9365808
_publ_section_title
;
Structure prediction by ZEFSAII (Michael W. Deem and Ramdas Pophale) SiO2 
 PCOD9365808
Probable space group: A B A 2
;
_chemical_formula_sum "Si O2"
_cell_formula_units_Z 40
_cell_length_a 5.328221
_cell_length_b 13.630298
_cell_length_c 21.658825
_cell_angle_alpha 90.000000
_cell_angle_beta 90.000000
_cell_angle_gamma 90.000000
_cell_volume 1572.977365
_symmetry_space_group_name_H-M "A B A 2"
_symmetry_group_IT_number 41
_symmetry_cell_setting 'orthorhombic'
loop_
_space_group_symop_operation_xyz
x,y,z
-x,-y,z
1/2-x,y,1/2+z
1/2+x,-y,1/2+z
x,1/2+y,1/2+z
-x,1/2-y,1/2+z
1/2-x,1/2+y,z
1/2+x,1/2-y,z
loop_
_atom_site_type_symbol
_atom_site_label
_atom_site_fract_x
_atom_site_fract_y
_atom_site_fract_z
Si Si1 0.446827 0.111623 0.274190
Si Si2 0.363860 0.357847 0.083814
Si Si3 0.444761 0.883304 0.721596
Si Si4 0.359347 0.132875 0.034417
Si Si5 0.240412 0.183980 0.900133
O O1 0.734948 0.149385 0.271936
O O2 0.316955 0.116938 0.341127
O O3 0.229358 0.155890 0.230373
O O4 0.500000 0.000000 0.255520
O O5 0.318168 0.357015 0.156544
O O6 0.390650 0.248143 0.055139
O O7 0.637187 0.404968 0.077150
O O8 0.136872 0.405971 0.046342
O O9 0.500000 0.000000 0.725367
O O10 0.258873 0.127478 0.964953
O O11 0.504296 0.241691 0.899209
#
# Coordination Sequence:
#
# PCOD9365808 Si02
#       5
#     8   8   8   8   8
#     4  10  23  42  61  87 125 166 206 255 314 371
#     4  10  18  35  57  82 115 158 189 241 307 359
#     4  10  21  40  61  84 121 163 204 250 302 371
#     4  10  19  35  57  83 121 152 188 250 309 354
#     4  12  21  40  63  90 123 160 205 262 310 367
#
# _framework density 25.429480000000002
#
# number of rings (size 3 to 8) (size 9 to 14) (size 15 to 20)
#    0.000    1.600    4.000    2.400    0.000    0.000 
#   21.600    1.000    0.000    2.400    0.000    0.000 
#    0.000    0.000    0.000    0.000    0.000    0.000 
#
# Total GULP energy -111701.573651 kJ/mol
# GULP energy per Si atom -5585.078683 kJ/mol
# Density = 2.537160 g / cm^3
# Si number density = 25.429480 Si / 1000 Ang^3
#
#
#
# Elastic Constant Matrix: (Units=GPa)
#
#
# Indices 1 2 3 4 5 6 
#
# 1 213.7194 5.6762 40.7618 0.0000 0.0000 0.0000
# 2 5.6762 73.2429 -20.5539 0.0000 0.0000 0.0000
# 3 40.7618 -20.5539 125.1507 0.0000 0.0000 0.0000
# 4 0.0000 0.0000 0.0000 41.3897 0.0000 0.0000
# 5 0.0000 0.0000 0.0000 0.0000 48.0357 0.0000
# 6 0.0000 0.0000 0.0000 0.0000 0.0000 4.4534
#
#
#
# Elastic Compliance Matrix: (Units=1/GPa)
#
#
# Indices 1 2 3 4 5 6 
#
# 1 0.005044 -0.000893 -0.001790 0.000000 0.000000 0.000000
# 2 -0.000893 0.014471 0.002668 0.000000 0.000000 0.000000
# 3 -0.001790 0.002668 0.009011 0.000000 0.000000 0.000000
# 4 0.000000 0.000000 0.000000 0.024161 0.000000 0.000000
# 5 0.000000 0.000000 0.000000 0.000000 0.020818 0.000000
# 6 0.000000 0.000000 0.000000 0.000000 0.000000 0.224546
#
#
# Mechanical properties :
#
#
# Convention : Reuss Voigt Hill
#
# Bulk Modulus (GPa) = 35.09252 51.54235 43.31743
# Shear Modulus (GPa) = 16.25596 44.52436 30.39016
#
# Velocity S-wave (km/s) = 2.53110 4.18891 3.46074
# Velocity P-wave (km/s) = 4.72989 6.61125 5.74807
#
# Compressibility (1/GPa) = 0.02849610
#
# Stress axis : x y z
#
# Youngs Moduli (GPa) = 198.25282 69.10379 110.97156
#
# Poissons Ratio (x) = 0.06172 0.19859
# Poissons Ratio (y) = 0.17706 -0.29602
# Poissons Ratio (z) = 0.35478 -0.18433
#
# Static dielectric constant tensor:
#      x y z
#    x 2.061230 0.000000 0.000000 
#    y 0.000000 3.087870 0.000000 
#    z 0.000000 0.000000 1.992290 
# 
# From -- ./inp_files/9363.got.cif
#   From: 2010.05.17/outbox.cif.g08.bks.cpg/sg41_5_cif.got.tgz:9363.got - 2010.06.03 18:54:24.
