data_PCOD9365490
_publ_section_title
;
Structure prediction by ZEFSAII (Michael W. Deem and Ramdas Pophale) SiO2 
 PCOD9365490
Probable space group: A M A 2
;
_chemical_formula_sum "Si O2"
_cell_formula_units_Z 36
_cell_length_a 8.401204
_cell_length_b 8.076704
_cell_length_c 20.944728
_cell_angle_alpha 90.000000
_cell_angle_beta 90.000000
_cell_angle_gamma 90.000000
_cell_volume 1421.184369
_symmetry_space_group_name_H-M "A M A 2"
_symmetry_group_IT_number 40
_symmetry_cell_setting 'orthorhombic'
loop_
_space_group_symop_operation_xyz
x,y,z
-x,-y,z
1/2-x,y,z
1/2+x,-y,z
x,1/2+y,1/2+z
-x,1/2-y,1/2+z
1/2-x,1/2+y,1/2+z
1/2+x,1/2-y,1/2+z
loop_
_atom_site_type_symbol
_atom_site_label
_atom_site_fract_x
_atom_site_fract_y
_atom_site_fract_z
Si Si1 0.000000 0.500000 0.931911
Si Si2 0.250000 0.844648 0.137669
Si Si3 0.500000 0.500000 0.455121
Si Si4 0.250000 0.662653 0.546374
Si Si5 0.576104 0.243368 0.850021
Si Si6 0.444579 0.816656 0.702614
Si Si7 0.750000 0.943069 0.533257
O O1 0.054148 0.360772 0.882422
O O2 0.888524 0.416447 0.982959
O O3 0.419350 0.808862 0.174529
O O4 0.250000 0.697826 0.085445
O O5 0.250000 0.025339 0.103615
O O6 0.398621 0.614198 0.502240
O O7 0.594622 0.604583 0.403075
O O8 0.250000 0.863070 0.556679
O O9 0.750000 0.328636 0.845048
O O10 0.534901 0.188748 0.779182
O O11 0.250000 0.795490 0.692499
O O12 0.500000 0.000000 0.679631
#
# Coordination Sequence:
#
# PCOD9365490 Si02
#       7
#     4   4   4   4   8   8   4
#     4  12  24  46  76 114 154 196 250 342 418 484
#     4  12  30  54  77 114 167 214 282 330 378 485
#     4  12  22  44  76 110 146 190 252 326 408 478
#     4  12  28  47  76 115 154 210 264 327 408 485
#     4  11  23  43  76 115 152 190 256 330 409 487
#     4  11  25  48  82 115 153 220 270 330 405 478
#     4  12  28  47  79 111 155 214 264 325 420 478
#
# _framework density 25.330983
#
# number of rings (size 3 to 8) (size 9 to 14) (size 15 to 20)
#    0.000    0.444    6.667    1.333    1.556    1.778 
#    2.000    3.333    0.000    0.000    0.000    0.000 
#    0.000    0.000    0.000    0.000    0.000    0.000 
#
# Total GULP energy -100317.891862 kJ/mol
# GULP energy per Si atom -5573.216215 kJ/mol
# Density = 2.527333 g / cm^3
# Si number density = 25.330983 Si / 1000 Ang^3
#
#
#
# Elastic Constant Matrix: (Units=GPa)
#
#
# Indices 1 2 3 4 5 6 
#
# 1 151.5700 47.6333 62.1212 0.0000 0.0000 0.0000
# 2 47.6333 158.5706 78.4003 0.0000 0.0000 0.0000
# 3 62.1212 78.4003 162.2987 0.0000 0.0000 0.0000
# 4 0.0000 0.0000 0.0000 42.6328 0.0000 0.0000
# 5 0.0000 0.0000 0.0000 0.0000 23.1962 0.0000
# 6 0.0000 0.0000 0.0000 0.0000 0.0000 31.1589
#
#
#
# Elastic Compliance Matrix: (Units=1/GPa)
#
#
# Indices 1 2 3 4 5 6 
#
# 1 0.007986 -0.001166 -0.002493 0.000000 0.000000 0.000000
# 2 -0.001166 0.008455 -0.003638 0.000000 0.000000 0.000000
# 3 -0.002493 -0.003638 0.008873 0.000000 0.000000 0.000000
# 4 0.000000 0.000000 0.000000 0.023456 0.000000 0.000000
# 5 0.000000 0.000000 0.000000 0.000000 0.043110 0.000000
# 6 0.000000 0.000000 0.000000 0.000000 0.000000 0.032094
#
#
# Mechanical properties :
#
#
# Convention : Reuss Voigt Hill
#
# Bulk Modulus (GPa) = 93.28917 94.30545 93.79731
# Shear Modulus (GPa) = 35.17577 38.34989 36.76283
#
# Velocity S-wave (km/s) = 3.73050 3.89517 3.81372
# Velocity P-wave (km/s) = 7.44738 7.58551 7.51676
#
# Compressibility (1/GPa) = 0.01071936
#
# Stress axis : x y z
#
# Youngs Moduli (GPa) = 125.21896 118.26757 112.69781
#
# Poissons Ratio (x) = 0.13792 0.28100
# Poissons Ratio (y) = 0.14602 0.41001
# Poissons Ratio (z) = 0.31222 0.43027
#
# Static dielectric constant tensor:
#      x y z
#    x 2.188590 0.000000 0.000000 
#    y 0.000000 2.100710 0.000000 
#    z 0.000000 0.000000 1.922390 
# 
# From -- ./inp_files/21867.got.cif
#   From: 2010.05.17/outbox.cif.g08.bks.cpg/sg40_11_cif.got.tgz:21867.got - 2010.06.03 18:35:42.
