data_PCOD9365642
_publ_section_title
;
Structure prediction by ZEFSAII (Michael W. Deem and Ramdas Pophale) SiO2 
 PCOD9365642
Probable space group: A M A 2
;
_chemical_formula_sum "Si O2"
_cell_formula_units_Z 32
_cell_length_a 9.000000
_cell_length_b 30.000000
_cell_length_c 12.000000
_cell_angle_alpha 90.000000
_cell_angle_beta 90.000000
_cell_angle_gamma 90.000000
_cell_volume 3240.000000
_symmetry_space_group_name_H-M "A M A 2"
_symmetry_group_IT_number 40
_symmetry_cell_setting 'orthorhombic'
loop_
_space_group_symop_operation_xyz
x,y,z
-x,-y,z
1/2-x,y,z
1/2+x,-y,z
x,1/2+y,1/2+z
-x,1/2-y,1/2+z
1/2-x,1/2+y,1/2+z
1/2+x,1/2-y,1/2+z
loop_
_atom_site_type_symbol
_atom_site_label
_atom_site_fract_x
_atom_site_fract_y
_atom_site_fract_z
Si Si1 0.580248 0.177605 0.518240
Si Si2 0.571262 0.952115 0.015250
Si Si3 0.072627 0.118159 0.821857
Si Si4 0.076930 0.455566 0.180978
Si Si5 0.426048 0.599522 0.729033
Si Si6 0.074099 0.209624 0.734266
Si Si7 0.570978 0.301014 0.790853
Si Si8 0.585801 0.575416 0.941219
O O1 0.750000 0.192504 0.541931
O O2 0.469016 0.186702 0.618320
O O3 0.511201 0.200010 0.409428
O O4 0.587517 0.125490 0.489772
O O5 0.750000 0.958098 0.017168
O O6 0.514486 0.931604 0.131376
O O7 0.500000 0.000000 0.991155
O O8 0.539710 0.912281 0.928534
O O9 0.250000 0.117709 0.803789
O O10 0.030143 0.170446 0.822439
O O11 0.994897 0.089608 0.725808
O O12 0.250000 0.456083 0.209506
O O13 0.000000 0.500000 0.226387
O O14 0.061292 0.454908 0.047754
O O15 0.250000 0.601720 0.713880
O O16 0.475418 0.651608 0.734281
O O17 0.465970 0.576262 0.845049
O O18 0.250000 0.218432 0.744615
O O19 0.983986 0.255587 0.735266
O O20 0.750000 0.301559 0.801857
O O21 0.750000 0.566297 0.893588
#
# Coordination Sequence:
#
# PCOD9365642 Si02
#       8
#     8   8   8   8   8   8   8   8
#     4  10  19  36  58  80 112 151 189 242 299 351
#     4  10  22  41  61  85 116 156 202 248 302 358
#     4  10  22  39  59  83 116 156 198 244 296 360
#     4  11  22  36  55  83 115 147 187 236 293 351
#     4   9  20  38  60  83 115 155 196 241 295 357
#     4  11  22  36  58  88 119 156 200 248 304 367
#     4  10  21  37  58  87 118 157 202 247 300 362
#     4   9  19  35  56  81 110 145 186 235 291 347
#
# _framework density 9.8765429999999999
#
# number of rings (size 3 to 8) (size 9 to 14) (size 15 to 20)
#    0.000    2.000    1.250    1.875    0.000    6.000 
#    0.000    5.000    0.000    0.000    0.000    0.000 
#    0.000    0.000    0.000    0.000    0.000    0.000 
#
# Total GULP energy -178346.108982 kJ/mol
# GULP energy per Si atom -5573.315906 kJ/mol
# Density = 0.985406 g / cm^3
# Si number density = 9.876543 Si / 1000 Ang^3
#
#
#
# Elastic Constant Matrix: (Units=GPa)
#
#
# Indices 1 2 3 4 5 6 
#
# 1 13.4777 18.5536 12.2015 0.0000 0.0000 0.0000
# 2 18.5536 30.8865 2.2362 0.0000 0.0000 0.0000
# 3 12.2015 2.2362 40.0098 0.0000 0.0000 0.0000
# 4 0.0000 0.0000 0.0000 -30.1981 0.0000 0.0000
# 5 0.0000 0.0000 0.0000 0.0000 14.3927 0.0000
# 6 0.0000 0.0000 0.0000 0.0000 0.0000 6.9809
#
#
#
# Elastic Compliance Matrix: (Units=1/GPa)
#
#
# Indices 1 2 3 4 5 6 
#
# 1 -1.596923 0.927768 0.435145 0.000000 0.000000 0.000000
# 2 0.927768 -0.506500 -0.254624 0.000000 0.000000 0.000000
# 3 0.435145 -0.254624 -0.093477 0.000000 0.000000 0.000000
# 4 0.000000 0.000000 0.000000 -0.033115 0.000000 0.000000
# 5 0.000000 0.000000 0.000000 0.000000 0.069480 0.000000
# 6 0.000000 0.000000 0.000000 0.000000 0.000000 0.143248
#
#
# Mechanical properties :
#
#
# Convention : Reuss Voigt Hill
#
# Bulk Modulus (GPa) = 50.81703 16.70628 33.76165
# Shear Modulus (GPa) = -1.18279 1.66062 0.23892
#
# Velocity S-wave (km/s) = -0.77465 0.91789 0.34816
# Velocity P-wave (km/s) = 4.99819 3.09827 4.15819
#
# Compressibility (1/GPa) = 0.01967844
#
# Stress axis : x y z
#
# Youngs Moduli (GPa) = -0.62620 -1.97434 -10.69778
#
# Poissons Ratio (x) = 1.83173 4.65509
# Poissons Ratio (y) = 0.58097 -2.72392
# Poissons Ratio (z) = 0.27249 -0.50271
#
# Static dielectric constant tensor:
#      x y z
#    x 1.671030 0.000000 0.000000 
#    y 0.000000 1.742830 0.000000 
#    z 0.000000 0.000000 1.761430 
# 
# From -- ./inp_files/10642.got.cif
#   From: 2010.05.17/outbox.ucp.g08.bks.cvg/sg40_6_cif.got.tgz:10642.got - 2010.06.11 16:26:39.
