data_PCOD9365900
_publ_section_title
;
Structure prediction by ZEFSAII (Michael W. Deem and Ramdas Pophale) SiO2 
 PCOD9365900
Probable space group: A B A 2
;
_chemical_formula_sum "Si O2"
_cell_formula_units_Z 64
_cell_length_a 8.295895
_cell_length_b 22.993757
_cell_length_c 16.750442
_cell_angle_alpha 90.000000
_cell_angle_beta 90.000000
_cell_angle_gamma 90.000000
_cell_volume 3195.210358
_symmetry_space_group_name_H-M "A B A 2"
_symmetry_group_IT_number 41
_symmetry_cell_setting 'orthorhombic'
loop_
_space_group_symop_operation_xyz
x,y,z
-x,-y,z
1/2-x,y,1/2+z
1/2+x,-y,1/2+z
x,1/2+y,1/2+z
-x,1/2-y,1/2+z
1/2-x,1/2+y,z
1/2+x,1/2-y,z
loop_
_atom_site_type_symbol
_atom_site_label
_atom_site_fract_x
_atom_site_fract_y
_atom_site_fract_z
Si Si1 0.483777 0.682983 0.642340
Si Si2 0.441075 0.440553 0.435069
Si Si3 0.408551 0.259838 0.988404
Si Si4 0.848013 0.926393 0.593638
Si Si5 0.481891 0.144700 0.601520
Si Si6 0.873353 0.688212 0.890761
Si Si7 0.168660 0.966152 0.057412
Si Si8 0.682097 0.719138 0.215453
O O1 0.419090 0.710770 0.558333
O O2 0.472534 0.613355 0.642347
O O3 0.664040 0.703563 0.661593
O O4 0.367911 0.713840 0.706317
O O5 0.500000 0.500000 0.392390
O O6 0.571383 0.430426 0.506158
O O7 0.420995 0.379390 0.391719
O O8 0.270414 0.453553 0.477868
O O9 0.243870 0.291851 0.963248
O O10 0.473490 0.228561 0.909427
O O11 0.512774 0.312166 0.025829
O O12 0.687436 0.887634 0.601042
O O13 0.785353 0.991750 0.609647
O O14 0.617034 0.094768 0.594403
O O15 0.532302 0.183316 0.677246
O O16 0.795226 0.702105 0.806241
O O17 0.000000 0.000000 0.042127
#
# Coordination Sequence:
#
# PCOD9365900 Si02
#       8
#     8   8   8   8   8   8   8   8
#     4  11  20  38  56  88 116 165 200 258 301 376
#     4  10  20  37  59  90 122 157 206 265 311 369
#     4  11  21  34  62  85 119 152 213 246 308 365
#     4  10  19  32  63  88 112 147 206 260 302 351
#     4  10  19  37  57  91 114 158 195 258 298 373
#     4  12  23  39  58  93 121 170 203 263 313 387
#     4   9  18  34  60  91 116 148 206 266 305 353
#     4  11  24  37  58  80 133 158 200 250 328 365
#
# _framework density 20.029979000000001
#
# number of rings (size 3 to 8) (size 9 to 14) (size 15 to 20)
#    0.000    1.500    2.500    5.250    0.000    0.000 
#    0.000    1.875    0.000    1.500    0.000    0.000 
#    0.000    0.000    0.000    0.000    0.000    0.000 
#
# Total GULP energy -178349.571190 kJ/mol
# GULP energy per Si atom -5573.424100 kJ/mol
# Density = 1.998439 g / cm^3
# Si number density = 20.029979 Si / 1000 Ang^3
#
#
#
# Elastic Constant Matrix: (Units=GPa)
#
#
# Indices 1 2 3 4 5 6 
#
# 1 65.2821 11.6185 10.9848 0.0000 0.0000 0.0000
# 2 11.6185 123.6576 23.4058 0.0000 0.0000 0.0000
# 3 10.9848 23.4058 59.4932 0.0000 0.0000 0.0000
# 4 0.0000 0.0000 0.0000 17.0786 0.0000 0.0000
# 5 0.0000 0.0000 0.0000 0.0000 8.5592 0.0000
# 6 0.0000 0.0000 0.0000 0.0000 0.0000 38.5642
#
#
#
# Elastic Compliance Matrix: (Units=1/GPa)
#
#
# Indices 1 2 3 4 5 6 
#
# 1 0.015926 -0.001015 -0.002541 0.000000 0.000000 0.000000
# 2 -0.001015 0.008802 -0.003275 0.000000 0.000000 0.000000
# 3 -0.002541 -0.003275 0.018566 0.000000 0.000000 0.000000
# 4 0.000000 0.000000 0.000000 0.058553 0.000000 0.000000
# 5 0.000000 0.000000 0.000000 0.000000 0.116834 0.000000
# 6 0.000000 0.000000 0.000000 0.000000 0.000000 0.025931
#
#
# Mechanical properties :
#
#
# Convention : Reuss Voigt Hill
#
# Bulk Modulus (GPa) = 33.74843 37.82791 35.78817
# Shear Modulus (GPa) = 18.64605 26.33533 22.49069
#
# Velocity S-wave (km/s) = 3.05439 3.62995 3.35453
# Velocity P-wave (km/s) = 5.41522 6.04113 5.73672
#
# Compressibility (1/GPa) = 0.02963101
#
# Stress axis : x y z
#
# Youngs Moduli (GPa) = 62.78866 113.60756 53.86048
#
# Poissons Ratio (x) = 0.11536 0.13687
# Poissons Ratio (y) = 0.06376 0.17642
# Poissons Ratio (z) = 0.15956 0.37212
#
# Static dielectric constant tensor:
#      x y z
#    x 1.786000 0.000000 0.000000 
#    y 0.000000 1.760100 0.000000 
#    z 0.000000 0.000000 1.688480 
# 
# From -- ./inp_files/7595.got.cif
#   From: 2010.05.17/outbox.cif.g08.bks.cpg/sg41_4_cif.got.tgz:7595.got - 2010.06.03 18:54:24.
