data_PCOD9365679
_publ_section_title
;
Structure prediction by ZEFSAII (Michael W. Deem and Ramdas Pophale) SiO2 
 PCOD9365679
Probable space group: A M A 2
;
_chemical_formula_sum "Si O2"
_cell_formula_units_Z 32
_cell_length_a 9.000000
_cell_length_b 21.000000
_cell_length_c 18.000000
_cell_angle_alpha 90.000000
_cell_angle_beta 90.000000
_cell_angle_gamma 90.000000
_cell_volume 3402.000000
_symmetry_space_group_name_H-M "A M A 2"
_symmetry_group_IT_number 40
_symmetry_cell_setting 'orthorhombic'
loop_
_space_group_symop_operation_xyz
x,y,z
-x,-y,z
1/2-x,y,z
1/2+x,-y,z
x,1/2+y,1/2+z
-x,1/2-y,1/2+z
1/2-x,1/2+y,1/2+z
1/2+x,1/2-y,1/2+z
loop_
_atom_site_type_symbol
_atom_site_label
_atom_site_fract_x
_atom_site_fract_y
_atom_site_fract_z
Si Si1 0.574399 0.563939 0.304560
Si Si2 0.573714 0.312881 0.043453
Si Si3 0.428610 0.564590 0.789634
Si Si4 0.925510 0.437251 0.143327
Si Si5 0.572116 0.563916 0.626087
Si Si6 0.918156 0.320335 0.376915
Si Si7 0.071780 0.323063 0.882089
Si Si8 0.921097 0.815820 0.055687
O O1 0.500000 0.500000 0.337144
O O2 0.750000 0.555888 0.300767
O O3 0.505246 0.571321 0.222419
O O4 0.529450 0.626369 0.349519
O O5 0.750000 0.301228 0.032411
O O6 0.555728 0.374705 0.094233
O O7 0.496067 0.250751 0.078192
O O8 0.493270 0.324678 0.965106
O O9 0.500000 0.500000 0.822539
O O10 0.250000 0.560516 0.786736
O O11 0.498815 0.569588 0.707551
O O12 0.485590 0.624818 0.835030
O O13 0.750000 0.448172 0.154471
O O14 0.000000 0.500000 0.108177
O O15 0.500000 0.500000 0.592172
O O16 0.750000 0.558467 0.630853
O O17 0.519811 0.625804 0.582544
O O18 0.750000 0.336830 0.352218
O O19 0.952853 0.248536 0.351446
O O20 0.918104 0.317122 0.466164
O O21 0.250000 0.333758 0.882678
O O22 0.750000 0.820860 0.081856
#
# Coordination Sequence:
#
# PCOD9365679 Si02
#       8
#     8   8   8   8   8   8   8   8
#     4  11  22  36  57  81 109 143 181 225 272 324
#     4  10  21  37  57  83 113 147 185 229 278 329
#     4  11  22  38  59  83 113 147 186 231 276 330
#     4  10  21  37  57  80 110 144 181 225 272 323
#     4  11  22  38  59  83 113 147 184 229 278 332
#     4   9  20  38  58  80 110 144 181 225 272 322
#     4  10  21  38  59  83 113 148 184 228 277 328
#     4  10  21  38  59  83 111 146 186 230 277 328
#
# _framework density 9.4062319999999993
#
# number of rings (size 3 to 8) (size 9 to 14) (size 15 to 20)
#    0.000    1.750    0.000    7.125    0.000    7.000 
#    0.000    2.500    0.000    0.000    0.000    0.000 
#    0.000    0.000    0.000    0.000    0.000    0.000 
#
# Total GULP energy -178685.611709 kJ/mol
# GULP energy per Si atom -5583.925366 kJ/mol
# Density = 0.938482 g / cm^3
# Si number density = 9.406232 Si / 1000 Ang^3
#
#
#
# Elastic Constant Matrix: (Units=GPa)
#
#
# Indices 1 2 3 4 5 6 
#
# 1 184.7344 92.8723 28.7340 0.0000 0.0000 0.0000
# 2 92.8723 148.7908 37.6035 0.0000 0.0000 0.0000
# 3 28.7340 37.6035 17.3923 0.0000 0.0000 0.0000
# 4 0.0000 0.0000 0.0000 32.9010 0.0000 0.0000
# 5 0.0000 0.0000 0.0000 0.0000 41.3314 0.0000
# 6 0.0000 0.0000 0.0000 0.0000 0.0000 38.4274
#
#
#
# Elastic Compliance Matrix: (Units=1/GPa)
#
#
# Indices 1 2 3 4 5 6 
#
# 1 0.008113 -0.003696 -0.005412 0.000000 0.000000 0.000000
# 2 -0.003696 0.016501 -0.029570 0.000000 0.000000 0.000000
# 3 -0.005412 -0.029570 0.130371 0.000000 0.000000 0.000000
# 4 0.000000 0.000000 0.000000 0.030394 0.000000 0.000000
# 5 0.000000 0.000000 0.000000 0.000000 0.024195 0.000000
# 6 0.000000 0.000000 0.000000 0.000000 0.000000 0.026023
#
#
# Mechanical properties :
#
#
# Convention : Reuss Voigt Hill
#
# Bulk Modulus (GPa) = 12.88192 74.37078 43.62635
# Shear Modulus (GPa) = 14.75662 35.31247 25.03454
#
# Velocity S-wave (km/s) = 2.80376 4.33723 3.65189
# Velocity P-wave (km/s) = 4.16460 8.04367 6.40486
#
# Compressibility (1/GPa) = 0.07762819
#
# Stress axis : x y z
#
# Youngs Moduli (GPa) = 123.25460 60.60171 7.67041
#
# Poissons Ratio (x) = 0.22400 0.04151
# Poissons Ratio (y) = 0.45559 0.22681
# Poissons Ratio (z) = 0.66709 1.79200
#
# Static dielectric constant tensor:
#      x y z
#    x 1.627850 0.000000 0.000000 
#    y 0.000000 1.680050 0.000000 
#    z 0.000000 0.000000 1.649010 
# 
# From -- ./inp_files/19642.got.cif
#   From: 2010.05.17/outbox.ucp.g08.bks.cvg/sg40_10_cif.got.tgz:19642.got - 2010.06.11 16:26:39.
