data_PCOD9365408
_publ_section_title
;
Structure prediction by ZEFSAII (Michael W. Deem and Ramdas Pophale) SiO2 
 PCOD9365408
Probable space group: A M A 2
;
_chemical_formula_sum "Si O2"
_cell_formula_units_Z 48
_cell_length_a 22.532650
_cell_length_b 8.651651
_cell_length_c 11.339969
_cell_angle_alpha 90.000000
_cell_angle_beta 90.000000
_cell_angle_gamma 90.000000
_cell_volume 2210.665992
_symmetry_space_group_name_H-M "A M A 2"
_symmetry_group_IT_number 40
_symmetry_cell_setting 'orthorhombic'
loop_
_space_group_symop_operation_xyz
x,y,z
-x,-y,z
1/2-x,y,z
1/2+x,-y,z
x,1/2+y,1/2+z
-x,1/2-y,1/2+z
1/2-x,1/2+y,1/2+z
1/2+x,1/2-y,1/2+z
loop_
_atom_site_type_symbol
_atom_site_label
_atom_site_fract_x
_atom_site_fract_y
_atom_site_fract_z
Si Si1 0.250000 0.501215 0.546690
Si Si2 0.527134 0.330574 0.744241
Si Si3 0.853930 0.414625 0.385883
Si Si4 0.750000 0.913542 0.435081
Si Si5 0.147400 0.774560 0.811062
Si Si6 0.525446 0.825023 0.980245
Si Si7 0.250000 0.852476 0.636265
Si Si8 0.750000 0.715988 0.770471
O O1 0.191067 0.493582 0.470656
O O2 0.250000 0.684198 0.576287
O O3 0.250000 0.368320 0.644156
O O4 0.500000 0.500000 0.741170
O O5 0.598280 0.339388 0.759870
O O6 0.502161 0.254506 0.864299
O O7 0.514159 0.259330 0.613331
O O8 0.887580 0.565102 0.336052
O O9 0.903458 0.320345 0.455584
O O10 0.809611 0.314103 0.303226
O O11 0.809304 0.818085 0.401089
O O12 0.750000 0.990283 0.563182
O O13 0.750000 0.067012 0.355145
O O14 0.192759 0.840781 0.715996
O O15 0.500000 0.000000 0.984816
#
# Coordination Sequence:
#
# PCOD9365408 Si02
#       8
#     4   8   8   4   8   8   4   4
#     4  11  21  39  66 101 136 177 223 284 352 424
#     4  11  27  46  73 102 137 187 246 296 357 423
#     4  11  24  42  68  96 139 183 232 290 358 428
#     4  11  23  39  66 103 138 175 228 277 360 421
#     4  11  24  43  65  98 141 179 230 297 352 426
#     4  11  25  49  71  99 138 187 241 298 357 415
#     4  11  21  39  64  99 136 177 219 290 348 420
#     4  11  23  37  66 105 132 181 228 275 360 427
#
# _framework density 21.712914999999999
#
# number of rings (size 3 to 8) (size 9 to 14) (size 15 to 20)
#    0.000    1.000    5.000    3.000    2.333    4.667 
#    3.000    0.000    0.000    0.000    0.000    0.000 
#    0.000    0.000    0.000    0.000    0.000    0.000 
#
# Total GULP energy -133652.968810 kJ/mol
# GULP energy per Si atom -5568.873700 kJ/mol
# Density = 2.166350 g / cm^3
# Si number density = 21.712915 Si / 1000 Ang^3
#
#
#
# Elastic Constant Matrix: (Units=GPa)
#
#
# Indices 1 2 3 4 5 6 
#
# 1 107.5365 13.6391 54.9403 0.0000 0.0000 0.0000
# 2 13.6391 101.7892 45.9146 0.0000 0.0000 0.0000
# 3 54.9403 45.9146 144.0838 0.0000 0.0000 0.0000
# 4 0.0000 0.0000 0.0000 48.0128 0.0000 0.0000
# 5 0.0000 0.0000 0.0000 0.0000 4.5379 0.0000
# 6 0.0000 0.0000 0.0000 0.0000 0.0000 4.3257
#
#
#
# Elastic Compliance Matrix: (Units=1/GPa)
#
#
# Indices 1 2 3 4 5 6 
#
# 1 0.011572 0.000514 -0.004576 0.000000 0.000000 0.000000
# 2 0.000514 0.011496 -0.003859 0.000000 0.000000 0.000000
# 3 -0.004576 -0.003859 0.009915 0.000000 0.000000 0.000000
# 4 0.000000 0.000000 0.000000 0.020828 0.000000 0.000000
# 5 0.000000 0.000000 0.000000 0.000000 0.220368 0.000000
# 6 0.000000 0.000000 0.000000 0.000000 0.000000 0.231178
#
#
# Mechanical properties :
#
#
# Convention : Reuss Voigt Hill
#
# Bulk Modulus (GPa) = 58.34413 64.71085 61.52749
# Shear Modulus (GPa) = 9.48921 27.30296 18.39609
#
# Velocity S-wave (km/s) = 2.09280 3.54990 2.91390
# Velocity P-wave (km/s) = 5.72440 6.83155 6.30233
#
# Compressibility (1/GPa) = 0.01713968
#
# Stress axis : x y z
#
# Youngs Moduli (GPa) = 86.41555 86.98497 100.85560
#
# Poissons Ratio (x) = -0.04468 0.46153
# Poissons Ratio (y) = -0.04438 0.38923
# Poissons Ratio (z) = 0.39545 0.33570
#
# Static dielectric constant tensor:
#      x y z
#    x 1.755450 0.000000 0.000000 
#    y 0.000000 2.088530 0.000000 
#    z 0.000000 0.000000 2.083460 
# 
# From -- ./inp_files/13968.got.cif
#   From: 2010.05.17/outbox.cif.g08.bks.cpg/sg40_7_cif.got.tgz:13968.got - 2010.06.03 18:35:42.
