data_PCOD9365355
_publ_section_title
;
Structure prediction by ZEFSAII (Michael W. Deem and Ramdas Pophale) SiO2 
 PCOD9365355
Probable space group: A M A 2
;
_chemical_formula_sum "Si O2"
_cell_formula_units_Z 64
_cell_length_a 17.260209
_cell_length_b 13.864881
_cell_length_c 12.759462
_cell_angle_alpha 90.000000
_cell_angle_beta 90.000000
_cell_angle_gamma 90.000000
_cell_volume 3053.476342
_symmetry_space_group_name_H-M "A M A 2"
_symmetry_group_IT_number 40
_symmetry_cell_setting 'orthorhombic'
loop_
_space_group_symop_operation_xyz
x,y,z
-x,-y,z
1/2-x,y,z
1/2+x,-y,z
x,1/2+y,1/2+z
-x,1/2-y,1/2+z
1/2-x,1/2+y,1/2+z
1/2+x,1/2-y,1/2+z
loop_
_atom_site_type_symbol
_atom_site_label
_atom_site_fract_x
_atom_site_fract_y
_atom_site_fract_z
Si Si1 0.502621 0.602929 0.317040
Si Si2 0.381166 0.739953 0.059251
Si Si3 0.838464 0.181284 0.497863
Si Si4 0.336890 0.793107 0.831636
Si Si5 0.589273 0.477574 0.992940
Si Si6 0.546016 0.350552 0.546154
Si Si7 0.594091 0.711122 0.772649
Si Si8 0.570607 0.894067 0.267758
O O1 0.500000 0.500000 0.264512
O O2 0.592316 0.633626 0.315100
O O3 0.466515 0.597513 0.435099
O O4 0.449414 0.685372 0.268337
O O5 0.336995 0.775230 0.956592
O O6 0.386359 0.623974 0.045595
O O7 0.467076 0.788000 0.055599
O O8 0.354124 0.784935 0.168727
O O9 0.750000 0.195871 0.524480
O O10 0.890018 0.266637 0.544843
O O11 0.854812 0.194044 0.374036
O O12 0.863882 0.072538 0.525328
O O13 0.250000 0.817648 0.796488
O O14 0.370070 0.694941 0.780796
O O15 0.500000 0.500000 0.015025
O O16 0.593325 0.461075 0.865639
O O17 0.566757 0.419465 0.644336
O O18 0.518320 0.642216 0.784549
#
# Coordination Sequence:
#
# PCOD9365355 Si02
#       8
#     8   8   8   8   8   8   8   8
#     4   9  18  34  54  79 106 139 186 221 256 319
#     4   9  18  33  58  79 102 141 182 224 269 324
#     4  11  22  36  54  79 117 151 178 226 288 334
#     4   9  18  33  53  76 106 136 172 228 278 312
#     4  11  18  33  55  87 115 137 181 236 274 321
#     4   9  18  36  55  78 105 144 185 218 270 331
#     4   9  18  36  55  78 105 144 185 218 270 331
#     4   9  18  33  58  79 102 141 182 224 269 324
#
# _framework density 20.959717999999999
#
# number of rings (size 3 to 8) (size 9 to 14) (size 15 to 20)
#    0.000    2.500    2.500    1.500    0.000    4.000 
#    4.500    2.500    0.000    0.000    0.000    0.000 
#    0.000    0.000    0.000    0.000    0.000    0.000 
#
# Total GULP energy -178334.919013 kJ/mol
# GULP energy per Si atom -5572.966219 kJ/mol
# Density = 2.091201 g / cm^3
# Si number density = 20.959718 Si / 1000 Ang^3
#
#
#
# Elastic Constant Matrix: (Units=GPa)
#
#
# Indices 1 2 3 4 5 6 
#
# 1 92.3940 7.2852 -2.3177 0.0000 0.0000 0.0000
# 2 7.2852 45.0256 -22.9854 0.0000 0.0000 0.0000
# 3 -2.3177 -22.9854 82.5048 0.0000 0.0000 0.0000
# 4 0.0000 0.0000 0.0000 -8.4592 0.0000 0.0000
# 5 0.0000 0.0000 0.0000 0.0000 0.4888 0.0000
# 6 0.0000 0.0000 0.0000 0.0000 0.0000 12.4980
#
#
#
# Elastic Compliance Matrix: (Units=1/GPa)
#
#
# Indices 1 2 3 4 5 6 
#
# 1 0.010966 -0.001885 -0.000217 0.000000 0.000000 0.000000
# 2 -0.001885 0.026216 0.007251 0.000000 0.000000 0.000000
# 3 -0.000217 0.007251 0.014134 0.000000 0.000000 0.000000
# 4 0.000000 0.000000 0.000000 -0.118214 0.000000 0.000000
# 5 0.000000 0.000000 0.000000 0.000000 2.045933 0.000000
# 6 0.000000 0.000000 0.000000 0.000000 0.000000 0.080013
#
#
# Mechanical properties :
#
#
# Convention : Reuss Voigt Hill
#
# Bulk Modulus (GPa) = 16.23019 20.43206 18.33112
# Shear Modulus (GPa) = 2.41629 16.76833 9.59231
#
# Velocity S-wave (km/s) = 1.07486 2.83154 2.14161
# Velocity P-wave (km/s) = 3.04972 4.52323 3.85748
#
# Compressibility (1/GPa) = 0.06161357
#
# Stress axis : x y z
#
# Youngs Moduli (GPa) = 91.18754 38.14453 70.74933
#
# Poissons Ratio (x) = 0.07191 0.01536
# Poissons Ratio (y) = 0.17191 -0.51298
# Poissons Ratio (z) = 0.01980 -0.27657
#
# Static dielectric constant tensor:
#      x y z
#    x 1.715160 0.000000 0.000000 
#    y 0.000000 1.758820 0.000000 
#    z 0.000000 0.000000 1.846560 
# 
# From -- ./inp_files/17961.got.cif
#   From: 2010.05.17/outbox.cif.g08.bks.cpg/sg40_9_cif.got.tgz:17961.got - 2010.06.03 18:35:42.
