data_PCOD9365465
_publ_section_title
;
Structure prediction by ZEFSAII (Michael W. Deem and Ramdas Pophale) SiO2 
 PCOD9365465
Probable space group: A M A 2
;
_chemical_formula_sum "Si O2"
_cell_formula_units_Z 40
_cell_length_a 20.824267
_cell_length_b 8.098922
_cell_length_c 10.106331
_cell_angle_alpha 90.000000
_cell_angle_beta 90.000000
_cell_angle_gamma 90.000000
_cell_volume 1704.474302
_symmetry_space_group_name_H-M "A M A 2"
_symmetry_group_IT_number 40
_symmetry_cell_setting 'orthorhombic'
loop_
_space_group_symop_operation_xyz
x,y,z
-x,-y,z
1/2-x,y,z
1/2+x,-y,z
x,1/2+y,1/2+z
-x,1/2-y,1/2+z
1/2-x,1/2+y,1/2+z
1/2+x,1/2-y,1/2+z
loop_
_atom_site_type_symbol
_atom_site_label
_atom_site_fract_x
_atom_site_fract_y
_atom_site_fract_z
Si Si1 0.250000 0.906026 0.592590
Si Si2 0.750000 0.983031 0.021518
Si Si3 0.500000 0.000000 0.427306
Si Si4 0.642258 0.500864 0.300433
Si Si5 0.608925 0.850188 0.255580
Si Si6 0.750000 0.975895 0.295968
Si Si7 0.549683 0.348423 0.475336
O O1 0.250000 0.704992 0.580268
O O2 0.311919 0.981697 0.670740
O O3 0.250000 0.943093 0.438513
O O4 0.750000 0.084045 0.159836
O O5 0.690696 0.014273 0.924490
O O6 0.561499 0.963058 0.337519
O O7 0.484392 0.827812 0.498573
O O8 0.597157 0.660329 0.291197
O O9 0.594279 0.353467 0.342572
O O10 0.682252 0.882467 0.293535
O O11 0.595446 0.874775 0.101658
O O12 0.500000 0.500000 0.473538
#
# Coordination Sequence:
#
# PCOD9365465 Si02
#       7
#     4   4   4   8   8   4   8
#     4  11  25  47  72 123 159 208 268 333 408 490
#     4  11  22  47  71 108 158 203 260 329 398 486
#     4  12  30  48  76 118 154 214 272 326 410 492
#     4  11  23  48  76 107 161 210 254 334 408 468
#     4  12  26  51  75 115 156 207 277 330 402 492
#     4  12  25  46  77 109 159 201 268 338 390 488
#     4  12  26  51  79 112 160 211 266 339 400 483
#
# _framework density 23.467645999999998
#
# number of rings (size 3 to 8) (size 9 to 14) (size 15 to 20)
#    0.000    0.400    7.000    0.600    5.600    1.600 
#   10.800    0.000    0.000    0.000    0.000    0.000 
#    0.000    0.000    0.000    0.000    0.000    0.000 
#
# Total GULP energy -111648.249548 kJ/mol
# GULP energy per Si atom -5582.412477 kJ/mol
# Density = 2.341423 g / cm^3
# Si number density = 23.467646 Si / 1000 Ang^3
#
#
#
# Elastic Constant Matrix: (Units=GPa)
#
#
# Indices 1 2 3 4 5 6 
#
# 1 101.1847 52.2548 35.3562 0.0000 0.0000 0.0000
# 2 52.2548 85.9291 19.4229 0.0000 0.0000 0.0000
# 3 35.3562 19.4229 113.7798 0.0000 0.0000 0.0000
# 4 0.0000 0.0000 0.0000 23.8116 0.0000 0.0000
# 5 0.0000 0.0000 0.0000 0.0000 2.4281 0.0000
# 6 0.0000 0.0000 0.0000 0.0000 0.0000 18.0448
#
#
#
# Elastic Compliance Matrix: (Units=1/GPa)
#
#
# Indices 1 2 3 4 5 6 
#
# 1 0.015542 -0.008695 -0.003345 0.000000 0.000000 0.000000
# 2 -0.008695 0.016969 -0.000195 0.000000 0.000000 0.000000
# 3 -0.003345 -0.000195 0.009862 0.000000 0.000000 0.000000
# 4 0.000000 0.000000 0.000000 0.041996 0.000000 0.000000
# 5 0.000000 0.000000 0.000000 0.000000 0.411852 0.000000
# 6 0.000000 0.000000 0.000000 0.000000 0.000000 0.055418
#
#
# Mechanical properties :
#
#
# Convention : Reuss Voigt Hill
#
# Bulk Modulus (GPa) = 55.85821 57.21795 56.53808
# Shear Modulus (GPa) = 8.58991 21.78086 15.18539
#
# Velocity S-wave (km/s) = 1.91527 3.04982 2.54653
# Velocity P-wave (km/s) = 5.36143 6.06930 5.72631
#
# Compressibility (1/GPa) = 0.01790247
#
# Stress axis : x y z
#
# Youngs Moduli (GPa) = 64.33992 58.92977 101.40253
#
# Poissons Ratio (x) = 0.51242 0.33923
# Poissons Ratio (y) = 0.55946 0.01975
# Poissons Ratio (z) = 0.21524 0.01148
#
# Static dielectric constant tensor:
#      x y z
#    x 2.020310 0.000000 0.000000 
#    y 0.000000 2.102450 0.000000 
#    z 0.000000 0.000000 1.921800 
# 
# From -- ./inp_files/8635.got.cif
#   From: 2010.05.17/outbox.cif.g08.bks.cpg/sg40_5_cif.got.tgz:8635.got - 2010.06.03 18:35:42.
