data_PCOD9365359
_publ_section_title
;
Structure prediction by ZEFSAII (Michael W. Deem and Ramdas Pophale) SiO2 
 PCOD9365359
Probable space group: A M A 2
;
_chemical_formula_sum "Si O2"
_cell_formula_units_Z 48
_cell_length_a 10.076196
_cell_length_b 12.592667
_cell_length_c 19.015874
_cell_angle_alpha 90.000000
_cell_angle_beta 90.000000
_cell_angle_gamma 90.000000
_cell_volume 2412.851627
_symmetry_space_group_name_H-M "A M A 2"
_symmetry_group_IT_number 40
_symmetry_cell_setting 'orthorhombic'
loop_
_space_group_symop_operation_xyz
x,y,z
-x,-y,z
1/2-x,y,z
1/2+x,-y,z
x,1/2+y,1/2+z
-x,1/2-y,1/2+z
1/2-x,1/2+y,1/2+z
1/2+x,1/2-y,1/2+z
loop_
_atom_site_type_symbol
_atom_site_label
_atom_site_fract_x
_atom_site_fract_y
_atom_site_fract_z
Si Si1 0.405560 0.899519 0.181090
Si Si2 0.750000 0.409907 0.145638
Si Si3 0.750000 0.632605 0.292854
Si Si4 0.530010 0.770387 0.575419
Si Si5 0.589919 0.399459 0.941810
Si Si6 0.250000 0.608149 0.314593
Si Si7 0.012912 0.764571 0.316734
Si Si8 0.750000 0.146006 0.622642
O O1 0.250000 0.925572 0.188100
O O2 0.431837 0.844094 0.105791
O O3 0.443947 0.816235 0.242553
O O4 0.500000 0.000000 0.189117
O O5 0.619372 0.349973 0.121267
O O6 0.750000 0.403792 0.229535
O O7 0.750000 0.521502 0.105100
O O8 0.750000 0.517455 0.330770
O O9 0.620224 0.697192 0.312216
O O10 0.750000 0.635534 0.207398
O O11 0.568439 0.802838 0.496726
O O12 0.378524 0.795869 0.593096
O O13 0.500000 0.500000 0.966154
O O14 0.750000 0.420362 0.935186
O O15 0.520917 0.359542 0.870097
O O16 0.125419 0.679433 0.337443
#
# Coordination Sequence:
#
# PCOD9365359 Si02
#       8
#     8   4   4   8   8   4   8   4
#     4  12  26  45  70  97 133 180 226 275 331 396
#     4  11  18  39  64  96 134 171 205 274 332 389
#     4  11  22  39  68 106 136 171 225 268 336 389
#     4  12  23  43  65  97 135 169 218 275 330 391
#     4  12  28  45  69  98 134 177 220 277 341 401
#     4  11  22  39  68 104 132 173 223 274 334 387
#     4  12  23  44  67  98 140 177 220 276 327 396
#     4  11  22  33  68 104 132 165 213 268 330 395
#
# _framework density 19.893473
#
# number of rings (size 3 to 8) (size 9 to 14) (size 15 to 20)
#    0.000    0.333    6.667    2.500    4.667    4.000 
#    0.000    1.667    0.000    0.000    0.000    0.000 
#    0.000    0.000    0.000    0.000    0.000    0.000 
#
# Total GULP energy -134009.231514 kJ/mol
# GULP energy per Si atom -5583.717980 kJ/mol
# Density = 1.984820 g / cm^3
# Si number density = 19.893473 Si / 1000 Ang^3
#
#
#
# Elastic Constant Matrix: (Units=GPa)
#
#
# Indices 1 2 3 4 5 6 
#
# 1 193.4088 50.4456 6.2691 0.0000 0.0000 0.0000
# 2 50.4456 97.0768 2.5115 0.0000 0.0000 0.0000
# 3 6.2691 2.5115 51.2957 0.0000 0.0000 0.0000
# 4 0.0000 0.0000 0.0000 28.8081 0.0000 0.0000
# 5 0.0000 0.0000 0.0000 0.0000 5.6261 0.0000
# 6 0.0000 0.0000 0.0000 0.0000 0.0000 43.1236
#
#
#
# Elastic Compliance Matrix: (Units=1/GPa)
#
#
# Indices 1 2 3 4 5 6 
#
# 1 0.005998 -0.003102 -0.000581 0.000000 0.000000 0.000000
# 2 -0.003102 0.011918 -0.000204 0.000000 0.000000 0.000000
# 3 -0.000581 -0.000204 0.019576 0.000000 0.000000 0.000000
# 4 0.000000 0.000000 0.000000 0.034712 0.000000 0.000000
# 5 0.000000 0.000000 0.000000 0.000000 0.177744 0.000000
# 6 0.000000 0.000000 0.000000 0.000000 0.000000 0.023189
#
#
# Mechanical properties :
#
#
# Convention : Reuss Voigt Hill
#
# Bulk Modulus (GPa) = 33.65045 51.13710 42.39378
# Shear Modulus (GPa) = 17.19281 34.34856 25.77069
#
# Velocity S-wave (km/s) = 2.94299 4.15978 3.60312
# Velocity P-wave (km/s) = 5.33857 6.98805 6.21825
#
# Compressibility (1/GPa) = 0.02971728
#
# Stress axis : x y z
#
# Youngs Moduli (GPa) = 166.71391 83.90430 51.08333
#
# Poissons Ratio (x) = 0.26027 0.02969
# Poissons Ratio (y) = 0.51714 0.01044
# Poissons Ratio (z) = 0.09690 0.01715
#
# Static dielectric constant tensor:
#      x y z
#    x 1.668610 0.000000 0.000000 
#    y 0.000000 1.747720 0.000000 
#    z 0.000000 0.000000 1.733450 
# 
# From -- ./inp_files/19264.got.cif
#   From: 2010.05.17/outbox.cif.g08.bks.cpg/sg40_10_cif.got.tgz:19264.got - 2010.06.03 18:35:42.
