data_PCOD9365505
_publ_section_title
;
Structure prediction by ZEFSAII (Michael W. Deem and Ramdas Pophale) SiO2 
 PCOD9365505
Probable space group: A M A 2
;
_chemical_formula_sum "Si O2"
_cell_formula_units_Z 64
_cell_length_a 20.016848
_cell_length_b 20.393386
_cell_length_c 8.958031
_cell_angle_alpha 90.000000
_cell_angle_beta 90.000000
_cell_angle_gamma 90.000000
_cell_volume 3656.769550
_symmetry_space_group_name_H-M "A M A 2"
_symmetry_group_IT_number 40
_symmetry_cell_setting 'orthorhombic'
loop_
_space_group_symop_operation_xyz
x,y,z
-x,-y,z
1/2-x,y,z
1/2+x,-y,z
x,1/2+y,1/2+z
-x,1/2-y,1/2+z
1/2-x,1/2+y,1/2+z
1/2+x,1/2-y,1/2+z
loop_
_atom_site_type_symbol
_atom_site_label
_atom_site_fract_x
_atom_site_fract_y
_atom_site_fract_z
Si Si1 0.070330 0.271620 0.951680
Si Si2 0.671661 0.830147 0.096935
Si Si3 0.929670 0.728380 0.596492
Si Si4 0.440567 0.408250 0.451680
Si Si5 0.095522 0.054285 0.596590
Si Si6 0.940567 0.091750 0.596492
Si Si7 0.671661 0.330147 0.951237
Si Si8 0.404478 0.054285 0.951582
O O1 0.065304 0.266896 0.774086
O O2 0.127372 0.223500 0.011971
O O3 0.082985 0.345954 0.004231
O O4 1.000000 0.250000 0.024086
O O5 0.750000 0.822480 0.065337
O O6 0.660935 0.823392 0.274086
O O7 0.645752 0.900936 0.042866
O O8 0.917015 0.654046 0.543941
O O9 0.872628 0.776500 0.536201
O O10 0.432141 0.396359 0.274086
O O11 0.405260 0.477157 0.488869
O O12 0.519874 0.419683 0.477038
O O13 0.145752 0.099064 0.505306
O O14 0.108312 0.060626 0.774086
O O15 0.019874 0.080317 0.571134
O O16 0.094740 0.977157 0.559303
O O17 0.750000 0.322480 0.982835
#
# Coordination Sequence:
#
# PCOD9365505 Si02
#       8
#     8   8   8   8   8   8   8   8
#     4  12  23  36  58  87 117 152 194 241 290 343
#     4  11  24  40  58  83 117 155 195 240 290 345
#     4  12  23  36  58  87 117 152 194 241 290 343
#     4   9  18  34  57  87 117 145 185 235 284 335
#     4   9  18  34  58  85 114 148 186 231 282 341
#     4   9  18  34  57  87 117 145 185 235 284 335
#     4  11  24  40  58  83 117 155 195 240 290 345
#     4   9  18  34  58  85 114 148 186 231 282 341
#
# _framework density 17.501788000000001
#
# number of rings (size 3 to 8) (size 9 to 14) (size 15 to 20)
#    0.000    1.750    2.500    4.500    0.000    3.000 
#    0.000    3.750    0.000    1.500    0.000    0.000 
#    0.000    0.000    0.000    0.000    0.000    0.000 
#
# Total GULP energy -178737.977396 kJ/mol
# GULP energy per Si atom -5585.561794 kJ/mol
# Density = 1.746195 g / cm^3
# Si number density = 17.501788 Si / 1000 Ang^3
#
#
#
# Elastic Constant Matrix: (Units=GPa)
#
#
# Indices 1 2 3 4 5 6 
#
# 1 92.0308 71.0603 80.1145 0.0000 0.0000 0.0000
# 2 71.0603 140.8358 86.2123 0.0000 0.0000 0.0000
# 3 80.1145 86.2123 108.9664 0.0000 0.0000 0.0000
# 4 0.0000 0.0000 0.0000 36.5760 0.0000 0.0000
# 5 0.0000 0.0000 0.0000 0.0000 25.5003 0.0000
# 6 0.0000 0.0000 0.0000 0.0000 0.0000 23.8860
#
#
#
# Elastic Compliance Matrix: (Units=1/GPa)
#
#
# Indices 1 2 3 4 5 6 
#
# 1 0.030943 -0.003270 -0.020163 0.000000 0.000000 0.000000
# 2 -0.003270 0.014115 -0.008763 0.000000 0.000000 0.000000
# 3 -0.020163 -0.008763 0.030934 0.000000 0.000000 0.000000
# 4 0.000000 0.000000 0.000000 0.027340 0.000000 0.000000
# 5 0.000000 0.000000 0.000000 0.000000 0.039215 0.000000
# 6 0.000000 0.000000 0.000000 0.000000 0.000000 0.041865
#
#
# Mechanical properties :
#
#
# Convention : Reuss Voigt Hill
#
# Bulk Modulus (GPa) = 86.20450 90.73413 88.46931
# Shear Modulus (GPa) = 19.78858 24.15553 21.97205
#
# Velocity S-wave (km/s) = 3.36618 3.71910 3.54703
# Velocity P-wave (km/s) = 8.02931 8.39033 8.21180
#
# Compressibility (1/GPa) = 0.01160032
#
# Stress axis : x y z
#
# Youngs Moduli (GPa) = 32.31784 70.84795 32.32652
#
# Poissons Ratio (x) = 0.23167 0.65179
# Poissons Ratio (y) = 0.10568 0.28328
# Poissons Ratio (z) = 0.65161 0.62085
#
# Static dielectric constant tensor:
#      x y z
#    x 1.568550 0.000000 0.000000 
#    y 0.000000 1.603810 0.000000 
#    z 0.000000 0.000000 1.580870 
# 
# From -- ./inp_files/7825.got.cif
#   From: 2010.05.17/outbox.cif.g08.bks.cpg/sg40_4_cif.got.tgz:7825.got - 2010.06.03 18:35:42.
