data_PCOD9365604
_publ_section_title
;
Structure prediction by ZEFSAII (Michael W. Deem and Ramdas Pophale) SiO2 
 PCOD9365604
Probable space group: A M A 2
;
_chemical_formula_sum "Si O2"
_cell_formula_units_Z 36
_cell_length_a 15.158933
_cell_length_b 16.903961
_cell_length_c 4.726293
_cell_angle_alpha 90.000000
_cell_angle_beta 90.000000
_cell_angle_gamma 90.000000
_cell_volume 1211.093734
_symmetry_space_group_name_H-M "A M A 2"
_symmetry_group_IT_number 40
_symmetry_cell_setting 'orthorhombic'
loop_
_space_group_symop_operation_xyz
x,y,z
-x,-y,z
1/2-x,y,z
1/2+x,-y,z
x,1/2+y,1/2+z
-x,1/2-y,1/2+z
1/2-x,1/2+y,1/2+z
1/2+x,1/2-y,1/2+z
loop_
_atom_site_type_symbol
_atom_site_label
_atom_site_fract_x
_atom_site_fract_y
_atom_site_fract_z
Si Si1 0.601551 0.175527 0.388080
Si Si2 0.750000 0.297969 0.685311
Si Si3 0.598896 0.503825 0.995515
Si Si4 0.250000 0.868278 0.911378
Si Si5 0.250000 0.037590 0.056467
Si Si6 0.903509 0.336465 0.124402
O O1 0.663232 0.151348 0.113505
O O2 0.612815 0.270865 0.367050
O O3 0.495644 0.177896 0.457011
O O4 0.616557 0.095141 0.572443
O O5 0.750000 0.371179 0.463959
O O6 0.750000 0.200834 0.664358
O O7 0.830483 0.317200 0.894854
O O8 0.500000 0.500000 0.870794
O O9 0.597347 0.429296 0.210160
O O10 0.668010 0.479104 0.761419
O O11 0.250000 0.962811 0.848542
#
# Coordination Sequence:
#
# PCOD9365604 Si02
#       6
#     8   4   8   4   4   8
#     4   9  16  27  44  65  90 119 151 187 227 271
#     4   8  14  24  39  61  87 116 148 181 223 272
#     4   8  14  24  40  60  84 110 142 178 216 260
#     4   8  14  24  39  61  87 116 148 181 223 272
#     4   8  12  20  36  58  78 106 142 174 208 256
#     4   9  16  27  44  65  90 119 151 187 227 271
#
# _framework density 29.725194999999999
#
# number of rings (size 3 to 8) (size 9 to 14) (size 15 to 20)
#    0.000    3.556    0.000    0.000    0.000    0.000 
#    0.000    1.111    0.000   12.000    0.000    0.000 
#    0.000  152.889    0.000    0.000    0.000    0.000 
#
# Total GULP energy -100360.068527 kJ/mol
# GULP energy per Si atom -5575.559363 kJ/mol
# Density = 2.965754 g / cm^3
# Si number density = 29.725195 Si / 1000 Ang^3
#
#
#
# Elastic Constant Matrix: (Units=GPa)
#
#
# Indices 1 2 3 4 5 6 
#
# 1 138.5310 105.1590 54.8575 0.0000 0.0000 0.0000
# 2 105.1590 400.2275 56.3956 0.0000 0.0000 0.0000
# 3 54.8575 56.3956 123.4626 0.0000 0.0000 0.0000
# 4 0.0000 0.0000 0.0000 55.4421 0.0000 0.0000
# 5 0.0000 0.0000 0.0000 0.0000 3978.3368 0.0000
# 6 0.0000 0.0000 0.0000 0.0000 0.0000 52.7814
#
#
#
# Elastic Compliance Matrix: (Units=1/GPa)
#
#
# Indices 1 2 3 4 5 6 
#
# 1 0.010307 -0.002205 -0.003573 0.000000 0.000000 0.000000
# 2 -0.002205 0.003142 -0.000456 0.000000 0.000000 0.000000
# 3 -0.003573 -0.000456 0.009895 0.000000 0.000000 0.000000
# 4 0.000000 0.000000 0.000000 0.018037 0.000000 0.000000
# 5 0.000000 0.000000 0.000000 0.000000 0.000251 0.000000
# 6 0.000000 0.000000 0.000000 0.000000 0.000000 0.018946
#
#
# Mechanical properties :
#
#
# Convention : Reuss Voigt Hill
#
# Bulk Modulus (GPa) = 91.92605 121.67172 106.79889
# Shear Modulus (GPa) = 65.21437 847.03267 456.12352
#
# Velocity S-wave (km/s) = 4.68900 16.89891 12.40080
# Velocity P-wave (km/s) = 7.76583 20.53741 15.52568
#
# Compressibility (1/GPa) = 0.01087831
#
# Stress axis : x y z
#
# Youngs Moduli (GPa) = 97.02230 318.26178 101.05998
#
# Poissons Ratio (x) = 0.70168 0.36104
# Poissons Ratio (y) = 0.21391 0.04605
# Poissons Ratio (z) = 0.34662 0.14501
#
# Static dielectric constant tensor:
#      x y z
#    x -15.758360 0.000000 0.000000 
#    y 0.000000 2.332310 0.000000 
#    z 0.000000 0.000000 2.183160 
# 
# From -- ./inp_files/6092.got.cif
#   From: 2010.05.17/outbox.cif.g08.bks.cpg/sg40_4_cif.got.tgz:6092.got - 2010.06.03 18:35:42.
