data_PCOD9365149
_publ_section_title
;
Structure prediction by ZEFSAII (Michael W. Deem and Ramdas Pophale) SiO2 
 PCOD9365149
Probable space group: A M A 2
;
_chemical_formula_sum "Si O2"
_cell_formula_units_Z 36
_cell_length_a 20.926340
_cell_length_b 13.133381
_cell_length_c 4.845560
_cell_angle_alpha 90.000000
_cell_angle_beta 90.000000
_cell_angle_gamma 90.000000
_cell_volume 1331.722680
_symmetry_space_group_name_H-M "A M A 2"
_symmetry_group_IT_number 40
_symmetry_cell_setting 'orthorhombic'
loop_
_space_group_symop_operation_xyz
x,y,z
-x,-y,z
1/2-x,y,z
1/2+x,-y,z
x,1/2+y,1/2+z
-x,1/2-y,1/2+z
1/2-x,1/2+y,1/2+z
1/2+x,1/2-y,1/2+z
loop_
_atom_site_type_symbol
_atom_site_label
_atom_site_fract_x
_atom_site_fract_y
_atom_site_fract_z
Si Si1 0.957468 0.771471 0.406350
Si Si2 0.750000 0.785475 0.077962
Si Si3 0.569301 0.478911 0.126341
Si Si4 0.320157 0.558934 0.527471
Si Si5 0.142659 0.353730 0.773833
O O1 0.942738 0.891008 0.405286
O O2 0.903169 0.704028 0.556464
O O3 0.019237 0.757993 0.604990
O O4 0.692203 0.854037 0.250661
O O5 0.807657 0.717011 0.933676
O O6 0.500000 0.500000 0.256183
O O7 0.601284 0.575477 0.981697
O O8 0.619245 0.432550 0.339687
O O9 0.250000 0.592072 0.387170
O O10 0.318830 0.443140 0.615094
#
# Coordination Sequence:
#
# PCOD9365149 Si02
#       5
#     8   4   8   8   8
#     4  12  27  50  79 115 161 211 259 328 410 477
#     4  10  22  48  70 108 148 208 264 320 406 470
#     4  12  26  46  75 114 151 210 263 332 398 482
#     4  10  24  46  73 106 153 198 267 324 390 480
#     4  12  25  47  76 106 156 205 259 330 401 470
#
# _framework density 27.032654999999998
#
# number of rings (size 3 to 8) (size 9 to 14) (size 15 to 20)
#    0.667    0.000    5.556    1.333    4.667    0.889 
#    0.000    2.222    0.000    0.000    0.000    0.000 
#    0.000    0.000    0.000    0.000    0.000    0.000 
#
# Total GULP energy -100309.834988 kJ/mol
# GULP energy per Si atom -5572.768610 kJ/mol
# Density = 2.697113 g / cm^3
# Si number density = 27.032655 Si / 1000 Ang^3
#
#
#
# Elastic Constant Matrix: (Units=GPa)
#
#
# Indices 1 2 3 4 5 6 
#
# 1 197.9386 60.9837 31.9491 0.0000 0.0000 0.0000
# 2 60.9837 186.7294 17.8697 0.0000 0.0000 0.0000
# 3 31.9491 17.8697 62.9754 0.0000 0.0000 0.0000
# 4 0.0000 0.0000 0.0000 22.0733 0.0000 0.0000
# 5 0.0000 0.0000 0.0000 0.0000 23.1273 0.0000
# 6 0.0000 0.0000 0.0000 0.0000 0.0000 67.6790
#
#
#
# Elastic Compliance Matrix: (Units=1/GPa)
#
#
# Indices 1 2 3 4 5 6 
#
# 1 0.005992 -0.001712 -0.002554 0.000000 0.000000 0.000000
# 2 -0.001712 0.005994 -0.000832 0.000000 0.000000 0.000000
# 3 -0.002554 -0.000832 0.017411 0.000000 0.000000 0.000000
# 4 0.000000 0.000000 0.000000 0.045304 0.000000 0.000000
# 5 0.000000 0.000000 0.000000 0.000000 0.043239 0.000000
# 6 0.000000 0.000000 0.000000 0.000000 0.000000 0.014776
#
#
# Mechanical properties :
#
#
# Convention : Reuss Voigt Hill
#
# Bulk Modulus (GPa) = 52.08306 74.36096 63.22201
# Shear Modulus (GPa) = 33.48682 45.03198 39.25940
#
# Velocity S-wave (km/s) = 3.52341 4.08589 3.81503
# Velocity P-wave (km/s) = 5.98842 7.05882 6.54553
#
# Compressibility (1/GPa) = 0.01920010
#
# Stress axis : x y z
#
# Youngs Moduli (GPa) = 166.89186 166.82646 57.43492
#
# Poissons Ratio (x) = 0.28569 0.14668
# Poissons Ratio (y) = 0.28580 0.04779
# Poissons Ratio (z) = 0.42623 0.13882
#
# Static dielectric constant tensor:
#      x y z
#    x 2.278800 0.000000 0.000000 
#    y 0.000000 2.096120 0.000000 
#    z 0.000000 0.000000 2.081310 
# 
# From -- ./inp_files/2199.got.cif
#   From: 2010.05.17/outbox.cif.g08.bks.cpg/sg40_2_cif.got.tgz:2199.got - 2010.06.03 18:35:42.
