data_PCOD9365499
_publ_section_title
;
Structure prediction by ZEFSAII (Michael W. Deem and Ramdas Pophale) SiO2 
 PCOD9365499
Probable space group: A M A 2
;
_chemical_formula_sum "Si O2"
_cell_formula_units_Z 48
_cell_length_a 24.509948
_cell_length_b 5.264852
_cell_length_c 17.546766
_cell_angle_alpha 90.000000
_cell_angle_beta 90.000000
_cell_angle_gamma 90.000000
_cell_volume 2264.256596
_symmetry_space_group_name_H-M "A M A 2"
_symmetry_group_IT_number 40
_symmetry_cell_setting 'orthorhombic'
loop_
_space_group_symop_operation_xyz
x,y,z
-x,-y,z
1/2-x,y,z
1/2+x,-y,z
x,1/2+y,1/2+z
-x,1/2-y,1/2+z
1/2-x,1/2+y,1/2+z
1/2+x,1/2-y,1/2+z
loop_
_atom_site_type_symbol
_atom_site_label
_atom_site_fract_x
_atom_site_fract_y
_atom_site_fract_z
Si Si1 0.855103 0.216123 0.739210
Si Si2 0.441365 0.387315 0.710935
Si Si3 0.623631 0.411520 0.106055
Si Si4 0.750000 0.420762 0.821303
Si Si5 0.864676 0.907207 0.004916
Si Si6 0.935708 0.933408 0.854508
Si Si7 0.250000 0.580998 0.420178
O O1 0.893612 0.414008 0.695655
O O2 0.803574 0.359350 0.772739
O O3 0.838925 0.995673 0.678817
O O4 0.894240 0.112553 0.806464
O O5 0.500000 0.500000 0.697941
O O6 0.431243 0.154336 0.653634
O O7 0.435237 0.311645 0.799452
O O8 0.622445 0.653384 0.051807
O O9 0.636249 0.165664 0.054743
O O10 0.750000 0.704988 0.854054
O O11 0.750000 0.204962 0.887277
O O12 0.909349 0.919020 0.937403
O O13 0.804893 0.879594 0.967918
O O14 0.000000 0.000000 0.857706
#
# Coordination Sequence:
#
# PCOD9365499 Si02
#       7
#     8   8   8   4   8   8   4
#     4  11  24  48  72 107 138 186 245 292 353 419
#     4  11  23  46  75 102 145 189 244 295 356 416
#     4  11  27  47  69 105 146 188 230 289 359 426
#     4  12  26  44  79 107 138 183 244 302 341 426
#     4  12  26  48  70 106 148 185 236 288 364 429
#     4  11  24  42  72 105 140 188 242 297 349 421
#     4  12  26  46  75 105 142 187 228 302 363 412
#
# _framework density 21.199010999999999
#
# number of rings (size 3 to 8) (size 9 to 14) (size 15 to 20)
#    0.000    0.667    5.000    2.000    4.667    2.000 
#    3.000    0.833    0.000    0.000    0.000    0.000 
#    0.000    0.000    0.000    0.000    0.000    0.000 
#
# Total GULP energy -133988.118999 kJ/mol
# GULP energy per Si atom -5582.838292 kJ/mol
# Density = 2.115076 g / cm^3
# Si number density = 21.199011 Si / 1000 Ang^3
#
#
#
# Elastic Constant Matrix: (Units=GPa)
#
#
# Indices 1 2 3 4 5 6 
#
# 1 113.8728 19.5404 40.5330 0.0000 0.0000 0.0000
# 2 19.5404 84.9276 23.3708 0.0000 0.0000 0.0000
# 3 40.5330 23.3708 83.5494 0.0000 0.0000 0.0000
# 4 0.0000 0.0000 0.0000 59.8530 0.0000 0.0000
# 5 0.0000 0.0000 0.0000 0.0000 -53.9791 0.0000
# 6 0.0000 0.0000 0.0000 0.0000 0.0000 25.6236
#
#
#
# Elastic Compliance Matrix: (Units=1/GPa)
#
#
# Indices 1 2 3 4 5 6 
#
# 1 0.010712 -0.001121 -0.004883 0.000000 0.000000 0.000000
# 2 -0.001121 0.012874 -0.003057 0.000000 0.000000 0.000000
# 3 -0.004883 -0.003057 0.015193 0.000000 0.000000 0.000000
# 4 0.000000 0.000000 0.000000 0.016708 0.000000 0.000000
# 5 0.000000 0.000000 0.000000 0.000000 -0.018526 0.000000
# 6 0.000000 0.000000 0.000000 0.000000 0.000000 0.039026
#
#
# Mechanical properties :
#
#
# Convention : Reuss Voigt Hill
#
# Bulk Modulus (GPa) = 48.41149 49.91537 49.16343
# Shear Modulus (GPa) = 49.50654 19.55989 34.53321
#
# Velocity S-wave (km/s) = 4.83776 3.04086 4.04047
# Velocity P-wave (km/s) = 7.35469 5.99386 6.70887
#
# Compressibility (1/GPa) = 0.02065625
#
# Stress axis : x y z
#
# Youngs Moduli (GPa) = 93.35050 77.67605 65.81841
#
# Poissons Ratio (x) = 0.08707 0.32142
# Poissons Ratio (y) = 0.10463 0.20123
# Poissons Ratio (z) = 0.45587 0.23749
#
# Static dielectric constant tensor:
#      x y z
#    x 1.730360 0.000000 0.000000 
#    y 0.000000 1.695530 0.000000 
#    z 0.000000 0.000000 1.793810 
# 
# From -- ./inp_files/21513.got.cif
#   From: 2010.05.17/outbox.cif.g08.bks.cpg/sg40_11_cif.got.tgz:21513.got - 2010.06.03 18:35:42.
