data_PCOD9365507
_publ_section_title
;
Structure prediction by ZEFSAII (Michael W. Deem and Ramdas Pophale) SiO2 
 PCOD9365507
Probable space group: A M A 2
;
_chemical_formula_sum "Si O2"
_cell_formula_units_Z 28
_cell_length_a 14.773368
_cell_length_b 5.186630
_cell_length_c 14.281951
_cell_angle_alpha 90.000000
_cell_angle_beta 90.000000
_cell_angle_gamma 90.000000
_cell_volume 1094.340123
_symmetry_space_group_name_H-M "A M A 2"
_symmetry_group_IT_number 40
_symmetry_cell_setting 'orthorhombic'
loop_
_space_group_symop_operation_xyz
x,y,z
-x,-y,z
1/2-x,y,z
1/2+x,-y,z
x,1/2+y,1/2+z
-x,1/2-y,1/2+z
1/2-x,1/2+y,1/2+z
1/2+x,1/2-y,1/2+z
loop_
_atom_site_type_symbol
_atom_site_label
_atom_site_fract_x
_atom_site_fract_y
_atom_site_fract_z
Si Si1 0.750000 0.649009 0.328300
Si Si2 0.250000 0.753178 0.182787
Si Si3 0.750000 0.907670 0.006417
Si Si4 0.447073 0.746298 0.503867
Si Si5 0.090565 0.386454 0.206222
O O1 0.750000 0.342054 0.293090
O O2 0.750000 0.656835 0.438586
O O3 0.841014 0.751695 0.278435
O O4 0.250000 0.001661 0.115269
O O5 0.156358 0.603810 0.159096
O O6 0.658320 0.763584 0.980896
O O7 0.500000 0.500000 0.467742
O O8 0.445320 0.733329 0.617393
O O9 0.500000 0.000000 0.475028
O O10 0.000000 0.500000 0.252007
#
# Coordination Sequence:
#
# PCOD9365507 Si02
#       5
#     4   4   4   8   8
#     4   8  21  34  66  98 131 179 235 269 376 394
#     4   8  19  36  66  96 124 184 228 268 362 410
#     4  12  20  40  72  94 147 179 231 307 340 432
#     4  11  24  40  74 103 130 188 234 281 359 417
#     4   8  16  38  61  87 135 165 221 281 334 411
#
# _framework density 25.586195
#
# number of rings (size 3 to 8) (size 9 to 14) (size 15 to 20)
#    1.714    0.571    0.000    5.143    0.000    2.286 
#    0.000    0.000   37.714    1.714    0.000    0.000 
#    0.000    0.000    0.000    0.000    0.000    0.000 
#
# Total GULP energy -78010.888812 kJ/mol
# GULP energy per Si atom -5572.206344 kJ/mol
# Density = 2.552796 g / cm^3
# Si number density = 25.586195 Si / 1000 Ang^3
#
#
#
# Elastic Constant Matrix: (Units=GPa)
#
#
# Indices 1 2 3 4 5 6 
#
# 1 241.3208 77.3571 12.1741 0.0000 0.0000 0.0000
# 2 77.3571 108.9337 8.5191 0.0000 0.0000 0.0000
# 3 12.1741 8.5191 98.3368 0.0000 0.0000 0.0000
# 4 0.0000 0.0000 0.0000 10.6153 0.0000 0.0000
# 5 0.0000 0.0000 0.0000 0.0000 -40.9294 0.0000
# 6 0.0000 0.0000 0.0000 0.0000 0.0000 34.8289
#
#
#
# Elastic Compliance Matrix: (Units=1/GPa)
#
#
# Indices 1 2 3 4 5 6 
#
# 1 0.005376 -0.003791 -0.000337 0.000000 0.000000 0.000000
# 2 -0.003791 0.011916 -0.000563 0.000000 0.000000 0.000000
# 3 -0.000337 -0.000563 0.010260 0.000000 0.000000 0.000000
# 4 0.000000 0.000000 0.000000 0.094204 0.000000 0.000000
# 5 0.000000 0.000000 0.000000 0.000000 -0.024432 0.000000
# 6 0.000000 0.000000 0.000000 0.000000 0.000000 0.028712
#
#
# Mechanical properties :
#
#
# Convention : Reuss Voigt Hill
#
# Bulk Modulus (GPa) = 55.03832 71.63244 63.33538
# Shear Modulus (GPa) = 35.34190 24.27236 29.80713
#
# Velocity S-wave (km/s) = 3.72060 3.08336 3.41687
# Velocity P-wave (km/s) = 6.32572 6.38227 6.35406
#
# Compressibility (1/GPa) = 0.01816916
#
# Stress axis : x y z
#
# Youngs Moduli (GPa) = 186.00313 83.91824 97.46937
#
# Poissons Ratio (x) = 0.31817 0.03286
# Poissons Ratio (y) = 0.70523 0.05487
# Poissons Ratio (z) = 0.06271 0.04724
#
# Static dielectric constant tensor:
#      x y z
#    x 2.064630 0.000000 0.000000 
#    y 0.000000 2.153000 0.000000 
#    z 0.000000 0.000000 1.981310 
# 
# From -- ./inp_files/20257.got.cif
#   From: 2010.05.17/outbox.cif.g08.bks.cpg/sg40_11_cif.got.tgz:20257.got - 2010.06.03 18:35:42.
