data_PCOD9365124
_publ_section_title
;
Structure prediction by ZEFSAII (Michael W. Deem and Ramdas Pophale) SiO2 
 PCOD9365124
Probable space group: A M A 2
;
_chemical_formula_sum "Si O2"
_cell_formula_units_Z 40
_cell_length_a 15.127283
_cell_length_b 12.109045
_cell_length_c 8.404678
_cell_angle_alpha 90.000000
_cell_angle_beta 90.000000
_cell_angle_gamma 90.000000
_cell_volume 1539.543287
_symmetry_space_group_name_H-M "A M A 2"
_symmetry_group_IT_number 40
_symmetry_cell_setting 'orthorhombic'
loop_
_space_group_symop_operation_xyz
x,y,z
-x,-y,z
1/2-x,y,z
1/2+x,-y,z
x,1/2+y,1/2+z
-x,1/2-y,1/2+z
1/2-x,1/2+y,1/2+z
1/2+x,1/2-y,1/2+z
loop_
_atom_site_type_symbol
_atom_site_label
_atom_site_fract_x
_atom_site_fract_y
_atom_site_fract_z
Si Si1 0.250000 0.881917 0.790091
Si Si2 0.924774 0.767382 0.577865
Si Si3 0.553084 0.106883 0.785258
Si Si4 0.250000 0.014433 0.052525
Si Si5 0.097216 0.954404 0.279102
Si Si6 0.750000 0.838018 0.728288
Si Si7 0.250000 0.362707 0.963065
O O1 0.347057 0.929694 0.760169
O O2 0.250000 0.801759 0.634700
O O3 0.250000 0.886365 0.982184
O O4 0.938577 0.710149 0.407537
O O5 0.921670 0.662159 0.694392
O O6 0.835980 0.836016 0.615680
O O7 0.004317 0.845910 0.631543
O O8 0.500000 0.000000 0.848649
O O9 0.160560 0.023953 0.155873
O O10 0.250000 0.084024 0.888203
O O11 0.162991 0.934338 0.426031
O O12 0.000000 0.000000 0.313241
O O13 0.750000 0.723048 0.821360
#
# Coordination Sequence:
#
# PCOD9365124 Si02
#       7
#     4   8   8   4   8   4   4
#     4  12  25  46  71 108 155 190 250 327 376 449
#     4  11  25  45  74 112 145 201 257 311 384 470
#     4  12  28  50  79 113 154 208 259 324 391 462
#     4  11  22  41  78 102 141 205 248 303 395 459
#     4  10  22  44  73 103 147 197 252 313 382 465
#     4  10  23  44  75 103 150 196 251 309 395 462
#     4   9  24  43  66 103 148 189 247 321 376 462
#
# _framework density 25.981732000000001
#
# number of rings (size 3 to 8) (size 9 to 14) (size 15 to 20)
#    0.000    1.200    2.000    3.000    8.400    0.800 
#    3.600    2.000    0.000    0.000    0.000    0.000 
#    0.000    0.000    0.000    0.000    0.000    0.000 
#
# Total GULP energy -111551.908558 kJ/mol
# GULP energy per Si atom -5577.595428 kJ/mol
# Density = 2.592260 g / cm^3
# Si number density = 25.981732 Si / 1000 Ang^3
#
#
#
# Elastic Constant Matrix: (Units=GPa)
#
#
# Indices 1 2 3 4 5 6 
#
# 1 252.0389 64.5096 46.4077 0.0000 0.0000 0.0000
# 2 64.5096 92.4494 41.8007 0.0000 0.0000 0.0000
# 3 46.4077 41.8007 135.3286 0.0000 0.0000 0.0000
# 4 0.0000 0.0000 0.0000 59.7088 0.0000 0.0000
# 5 0.0000 0.0000 0.0000 0.0000 -8.0451 0.0000
# 6 0.0000 0.0000 0.0000 0.0000 0.0000 20.1019
#
#
#
# Elastic Compliance Matrix: (Units=1/GPa)
#
#
# Indices 1 2 3 4 5 6 
#
# 1 0.004891 -0.003085 -0.000724 0.000000 0.000000 0.000000
# 2 -0.003085 0.014519 -0.003427 0.000000 0.000000 0.000000
# 3 -0.000724 -0.003427 0.008696 0.000000 0.000000 0.000000
# 4 0.000000 0.000000 0.000000 0.016748 0.000000 0.000000
# 5 0.000000 0.000000 0.000000 0.000000 -0.124300 0.000000
# 6 0.000000 0.000000 0.000000 0.000000 0.000000 0.049747
#
#
# Mechanical properties :
#
#
# Convention : Reuss Voigt Hill
#
# Bulk Modulus (GPa) = 73.34759 87.25033 80.29896
# Shear Modulus (GPa) = -468.03804 36.15972 -215.93916
#
# Velocity S-wave (km/s) = -13.43623 3.73465 -9.12646
# Velocity P-wave (km/s) = 14.57457 7.22849 8.94894
#
# Compressibility (1/GPa) = 0.01363371
#
# Stress axis : x y z
#
# Youngs Moduli (GPa) = 204.47246 68.87595 114.99292
#
# Poissons Ratio (x) = 0.21249 0.08327
# Poissons Ratio (y) = 0.63083 0.39404
# Poissons Ratio (z) = 0.14807 0.23601
#
# Static dielectric constant tensor:
#      x y z
#    x 2.009060 0.000000 0.000000 
#    y 0.000000 2.230270 0.000000 
#    z 0.000000 0.000000 2.048050 
# 
# From -- ./inp_files/6188.got.cif
#   From: 2010.05.17/outbox.cif.g08.bks.cpg/sg40_4_cif.got.tgz:6188.got - 2010.06.03 18:35:42.
