data_PCOD9365478
_publ_section_title
;
Structure prediction by ZEFSAII (Michael W. Deem and Ramdas Pophale) SiO2 
 PCOD9365478
Probable space group: A M A 2
;
_chemical_formula_sum "Si O2"
_cell_formula_units_Z 52
_cell_length_a 14.620009
_cell_length_b 8.816201
_cell_length_c 17.858384
_cell_angle_alpha 90.000000
_cell_angle_beta 90.000000
_cell_angle_gamma 90.000000
_cell_volume 2301.819581
_symmetry_space_group_name_H-M "A M A 2"
_symmetry_group_IT_number 40
_symmetry_cell_setting 'orthorhombic'
loop_
_space_group_symop_operation_xyz
x,y,z
-x,-y,z
1/2-x,y,z
1/2+x,-y,z
x,1/2+y,1/2+z
-x,1/2-y,1/2+z
1/2-x,1/2+y,1/2+z
1/2+x,1/2-y,1/2+z
loop_
_atom_site_type_symbol
_atom_site_label
_atom_site_fract_x
_atom_site_fract_y
_atom_site_fract_z
Si Si1 0.513587 0.819698 0.450390
Si Si2 0.406325 0.589539 0.804901
Si Si3 0.116796 0.165790 0.718962
Si Si4 0.250000 0.846752 0.320777
Si Si5 0.142688 0.184559 0.032249
Si Si6 0.400533 0.825523 0.689104
Si Si7 0.147516 0.333742 0.565435
O O1 0.561789 0.797503 0.370822
O O2 0.418637 0.732719 0.462357
O O3 0.577618 0.761668 0.516718
O O4 0.500000 0.000000 0.456866
O O5 0.500000 0.500000 0.782040
O O6 0.331123 0.474332 0.835763
O O7 0.363871 0.683621 0.736531
O O8 0.169512 0.228651 0.790201
O O9 0.145692 0.276055 0.650472
O O10 0.006775 0.171550 0.714288
O O11 0.140255 0.990102 0.704985
O O12 0.250000 0.204186 0.016017
O O13 0.113112 0.288838 0.101988
O O14 0.125551 0.011456 0.057002
O O15 0.250000 0.311716 0.536105
#
# Coordination Sequence:
#
# PCOD9365478 Si02
#       7
#     8   8   8   4   8   8   8
#     4  11  25  46  68  97 140 194 243 305 368 441
#     4  11  26  47  70 101 145 201 246 311 378 452
#     4  11  23  40  70 105 139 184 238 312 366 441
#     4  12  24  44  72 104 140 192 254 302 382 450
#     4  11  25  43  73 106 141 191 246 306 374 454
#     4  11  24  43  68 105 147 187 241 309 378 428
#     4  11  23  41  68 103 140 185 237 299 370 437
#
# _framework density 22.590824000000001
#
# number of rings (size 3 to 8) (size 9 to 14) (size 15 to 20)
#    0.000    0.923    3.846    2.308    5.385    1.846 
#    9.692    0.000    6.769    0.000    0.000    0.000 
#    0.000    0.000    0.000    0.000    0.000    0.000 
#
# Total GULP energy -144945.210028 kJ/mol
# GULP energy per Si atom -5574.815770 kJ/mol
# Density = 2.253941 g / cm^3
# Si number density = 22.590824 Si / 1000 Ang^3
#
#
#
# Elastic Constant Matrix: (Units=GPa)
#
#
# Indices 1 2 3 4 5 6 
#
# 1 123.0591 35.5038 13.0095 0.0000 0.0000 0.0000
# 2 35.5038 77.0625 22.9255 0.0000 0.0000 0.0000
# 3 13.0095 22.9255 48.5442 0.0000 0.0000 0.0000
# 4 0.0000 0.0000 0.0000 29.9504 0.0000 0.0000
# 5 0.0000 0.0000 0.0000 0.0000 12.6932 0.0000
# 6 0.0000 0.0000 0.0000 0.0000 0.0000 1.2872
#
#
#
# Elastic Compliance Matrix: (Units=1/GPa)
#
#
# Indices 1 2 3 4 5 6 
#
# 1 0.009385 -0.004160 -0.000550 0.000000 0.000000 0.000000
# 2 -0.004160 0.016941 -0.006886 0.000000 0.000000 0.000000
# 3 -0.000550 -0.006886 0.023999 0.000000 0.000000 0.000000
# 4 0.000000 0.000000 0.000000 0.033389 0.000000 0.000000
# 5 0.000000 0.000000 0.000000 0.000000 0.078782 0.000000
# 6 0.000000 0.000000 0.000000 0.000000 0.000000 0.776868
#
#
# Mechanical properties :
#
#
# Convention : Reuss Voigt Hill
#
# Bulk Modulus (GPa) = 36.85586 43.50483 40.18034
# Shear Modulus (GPa) = 5.14614 20.60129 12.87372
#
# Velocity S-wave (km/s) = 1.51094 3.02310 2.38977
# Velocity P-wave (km/s) = 4.40384 5.61115 5.04375
#
# Compressibility (1/GPa) = 0.02713273
#
# Stress axis : x y z
#
# Youngs Moduli (GPa) = 106.55851 59.02666 41.66793
#
# Poissons Ratio (x) = 0.24554 0.02294
# Poissons Ratio (y) = 0.44326 0.28693
# Poissons Ratio (z) = 0.05866 0.40646
#
# Static dielectric constant tensor:
#      x y z
#    x 1.867750 0.000000 0.000000 
#    y 0.000000 1.825530 0.000000 
#    z 0.000000 0.000000 1.851050 
# 
# From -- ./inp_files/23069.got.cif
#   From: 2010.05.17/outbox.cif.g08.bks.cpg/sg40_12_cif.got.tgz:23069.got - 2010.06.03 18:35:42.
