data_PCOD9365205
_publ_section_title
;
Structure prediction by ZEFSAII (Michael W. Deem and Ramdas Pophale) SiO2 
 PCOD9365205
Probable space group: A M A 2
;
_chemical_formula_sum "Si O2"
_cell_formula_units_Z 24
_cell_length_a 16.880906
_cell_length_b 12.797956
_cell_length_c 5.107108
_cell_angle_alpha 90.000000
_cell_angle_beta 90.000000
_cell_angle_gamma 90.000000
_cell_volume 1103.345190
_symmetry_space_group_name_H-M "A M A 2"
_symmetry_group_IT_number 40
_symmetry_cell_setting 'orthorhombic'
loop_
_space_group_symop_operation_xyz
x,y,z
-x,-y,z
1/2-x,y,z
1/2+x,-y,z
x,1/2+y,1/2+z
-x,1/2-y,1/2+z
1/2-x,1/2+y,1/2+z
1/2+x,1/2-y,1/2+z
loop_
_atom_site_type_symbol
_atom_site_label
_atom_site_fract_x
_atom_site_fract_y
_atom_site_fract_z
Si Si1 0.842816 0.083808 0.647660
Si Si2 0.942719 0.407255 0.006974
Si Si3 0.065517 0.830546 0.154101
O O1 0.750000 0.101774 0.678023
O O2 0.880893 0.148340 0.408855
O O3 0.859728 0.963528 0.558445
O O4 0.888066 0.120498 0.909977
O O5 0.000000 0.500000 0.110139
O O6 0.980470 0.384427 0.719521
O O7 0.946383 0.293103 0.128438
#
# Coordination Sequence:
#
# PCOD9365205 Si02
#       3
#     8   8   8
#     4  11  26  45  67 100 138 176 219 272 337 398
#     4  10  23  42  68  98 129 172 222 272 323 388
#     4  11  24  43  68  98 133 174 224 276 327 390
#
# _framework density 21.752030999999999
#
# number of rings (size 3 to 8) (size 9 to 14) (size 15 to 20)
#    0.000    1.333    0.000    5.000    0.000   28.000 
#    0.000    0.000    0.000    0.000    0.000    0.000 
#    0.000    0.000    0.000    0.000    0.000    0.000 
#
# Total GULP energy -66919.640032 kJ/mol
# GULP energy per Si atom -5576.636669 kJ/mol
# Density = 2.170252 g / cm^3
# Si number density = 21.752031 Si / 1000 Ang^3
#
#
#
# Elastic Constant Matrix: (Units=GPa)
#
#
# Indices 1 2 3 4 5 6 
#
# 1 92.2838 37.2551 69.4099 0.0000 0.0000 0.0000
# 2 37.2551 182.5846 58.5755 0.0000 0.0000 0.0000
# 3 69.4099 58.5755 179.8214 0.0000 0.0000 0.0000
# 4 0.0000 0.0000 0.0000 41.9412 0.0000 0.0000
# 5 0.0000 0.0000 0.0000 0.0000 29.8107 0.0000
# 6 0.0000 0.0000 0.0000 0.0000 0.0000 18.6750
#
#
#
# Elastic Compliance Matrix: (Units=1/GPa)
#
#
# Indices 1 2 3 4 5 6 
#
# 1 0.015581 -0.001396 -0.005560 0.000000 0.000000 0.000000
# 2 -0.001396 0.006241 -0.001494 0.000000 0.000000 0.000000
# 3 -0.005560 -0.001494 0.008194 0.000000 0.000000 0.000000
# 4 0.000000 0.000000 0.000000 0.023843 0.000000 0.000000
# 5 0.000000 0.000000 0.000000 0.000000 0.033545 0.000000
# 6 0.000000 0.000000 0.000000 0.000000 0.000000 0.053547
#
#
# Mechanical properties :
#
#
# Convention : Reuss Voigt Hill
#
# Bulk Modulus (GPa) = 76.23711 87.24119 81.73915
# Shear Modulus (GPa) = 30.82185 37.38202 34.10194
#
# Velocity S-wave (km/s) = 3.76834 4.15004 3.96379
# Velocity P-wave (km/s) = 7.35243 7.94720 7.65559
#
# Compressibility (1/GPa) = 0.01311697
#
# Stress axis : x y z
#
# Youngs Moduli (GPa) = 64.18027 160.22906 122.04368
#
# Poissons Ratio (x) = 0.22362 0.67851
# Poissons Ratio (y) = 0.08957 0.18237
# Poissons Ratio (z) = 0.35682 0.23943
#
# Static dielectric constant tensor:
#      x y z
#    x 1.894310 0.000000 0.000000 
#    y 0.000000 1.817840 0.000000 
#    z 0.000000 0.000000 1.845810 
# 
# From -- ./inp_files/1543.got.cif
#   From: 2010.05.17/outbox.cif.g08.bks.cpg/sg40_1_cif.got.tgz:1543.got - 2010.06.03 18:35:42.
