data_PCOD9365044
_publ_section_title
;
Structure prediction by ZEFSAII (Michael W. Deem and Ramdas Pophale) SiO2 
 PCOD9365044
Probable space group: A M A 2
;
_chemical_formula_sum "Si O2"
_cell_formula_units_Z 48
_cell_length_a 18.773077
_cell_length_b 13.705642
_cell_length_c 9.182748
_cell_angle_alpha 90.000000
_cell_angle_beta 90.000000
_cell_angle_gamma 90.000000
_cell_volume 2362.694179
_symmetry_space_group_name_H-M "A M A 2"
_symmetry_group_IT_number 40
_symmetry_cell_setting 'orthorhombic'
loop_
_space_group_symop_operation_xyz
x,y,z
-x,-y,z
1/2-x,y,z
1/2+x,-y,z
x,1/2+y,1/2+z
-x,1/2-y,1/2+z
1/2-x,1/2+y,1/2+z
1/2+x,1/2-y,1/2+z
loop_
_atom_site_type_symbol
_atom_site_label
_atom_site_fract_x
_atom_site_fract_y
_atom_site_fract_z
Si Si1 0.473049 0.392823 0.926100
Si Si2 0.750000 0.588376 0.582135
Si Si3 0.250000 0.997975 0.758192
Si Si4 0.118126 0.681813 0.868047
Si Si5 0.000000 0.500000 0.394237
Si Si6 0.390115 0.380000 0.202622
Si Si7 0.250000 0.679440 0.076727
Si Si8 0.899665 0.004679 0.165147
O O1 0.500000 0.500000 0.977798
O O2 0.538670 0.318467 0.934284
O O3 0.445449 0.418460 0.763274
O O4 0.413418 0.358753 0.037781
O O5 0.750000 0.539652 0.422791
O O6 0.750000 0.704646 0.593239
O O7 0.822920 0.551637 0.649593
O O8 0.323503 0.953328 0.696435
O O9 0.250000 0.112435 0.719983
O O10 0.133443 0.783648 0.789548
O O11 0.111217 0.593959 0.754518
O O12 0.179256 0.657289 0.982915
O O13 0.959027 0.576502 0.289152
O O14 0.936749 0.478600 0.511560
#
# Coordination Sequence:
#
# PCOD9365044 Si02
#       8
#     8   4   4   8   4   8   4   8
#     4  10  22  42  65  98 133 178 228 281 348 413
#     4  12  25  48  68 100 137 183 232 293 344 429
#     4  12  24  45  68  97 140 181 234 294 346 412
#     4  11  23  42  69  97 138 182 227 284 349 415
#     4  12  22  40  66  96 140 178 214 294 338 396
#     4  12  25  42  70 101 140 180 239 284 344 425
#     4  12  25  45  70  97 137 190 228 287 358 415
#     4  11  23  44  68  97 139 177 225 291 351 406
#
# _framework density 20.315791999999998
#
# number of rings (size 3 to 8) (size 9 to 14) (size 15 to 20)
#    0.000    0.667    6.667    2.500    2.333    2.000 
#    3.000    0.000    0.000    0.000    0.000    0.000 
#    0.000    0.000    0.000    0.000    0.000    0.000 
#
# Total GULP energy -133897.259432 kJ/mol
# GULP energy per Si atom -5579.052476 kJ/mol
# Density = 2.026955 g / cm^3
# Si number density = 20.315792 Si / 1000 Ang^3
#
#
#
# Elastic Constant Matrix: (Units=GPa)
#
#
# Indices 1 2 3 4 5 6 
#
# 1 123.4495 23.2985 27.8274 0.0000 0.0000 0.0000
# 2 23.2985 76.0303 21.5480 0.0000 0.0000 0.0000
# 3 27.8274 21.5480 62.1939 0.0000 0.0000 0.0000
# 4 0.0000 0.0000 0.0000 19.5897 0.0000 0.0000
# 5 0.0000 0.0000 0.0000 0.0000 42.5011 0.0000
# 6 0.0000 0.0000 0.0000 0.0000 0.0000 28.1516
#
#
#
# Elastic Compliance Matrix: (Units=1/GPa)
#
#
# Indices 1 2 3 4 5 6 
#
# 1 0.009235 -0.001840 -0.003495 0.000000 0.000000 0.000000
# 2 -0.001840 0.014951 -0.004357 0.000000 0.000000 0.000000
# 3 -0.003495 -0.004357 0.019152 0.000000 0.000000 0.000000
# 4 0.000000 0.000000 0.000000 0.051047 0.000000 0.000000
# 5 0.000000 0.000000 0.000000 0.000000 0.023529 0.000000
# 6 0.000000 0.000000 0.000000 0.000000 0.000000 0.035522
#
#
# Mechanical properties :
#
#
# Convention : Reuss Voigt Hill
#
# Bulk Modulus (GPa) = 41.74357 45.22461 43.48409
# Shear Modulus (GPa) = 27.65413 30.64846 29.15130
#
# Velocity S-wave (km/s) = 3.69347 3.88829 3.79213
# Velocity P-wave (km/s) = 6.22743 6.51671 6.37371
#
# Compressibility (1/GPa) = 0.02395578
#
# Stress axis : x y z
#
# Youngs Moduli (GPa) = 108.27831 66.88424 52.21386
#
# Poissons Ratio (x) = 0.12304 0.18248
# Poissons Ratio (y) = 0.19919 0.22749
# Poissons Ratio (z) = 0.37842 0.29141
#
# Static dielectric constant tensor:
#      x y z
#    x 1.457550 0.000000 0.000000 
#    y 0.000000 1.699960 0.000000 
#    z 0.000000 0.000000 1.737410 
# 
# From -- ./inp_files/7505.got.cif
#   From: 2010.05.17/outbox.cif.g08.bks.cpg/sg40_4_cif.got.tgz:7505.got - 2010.06.03 18:35:42.
