data_PCOD9365829
_publ_section_title
;
Structure prediction by ZEFSAII (Michael W. Deem and Ramdas Pophale) SiO2 
 PCOD9365829
Probable space group: A B A 2
;
_chemical_formula_sum "Si O2"
_cell_formula_units_Z 52
_cell_length_a 9.137264
_cell_length_b 16.594352
_cell_length_c 17.632405
_cell_angle_alpha 90.000000
_cell_angle_beta 90.000000
_cell_angle_gamma 90.000000
_cell_volume 2673.548234
_symmetry_space_group_name_H-M "A B A 2"
_symmetry_group_IT_number 41
_symmetry_cell_setting 'orthorhombic'
loop_
_space_group_symop_operation_xyz
x,y,z
-x,-y,z
1/2-x,y,1/2+z
1/2+x,-y,1/2+z
x,1/2+y,1/2+z
-x,1/2-y,1/2+z
1/2-x,1/2+y,z
1/2+x,1/2-y,z
loop_
_atom_site_type_symbol
_atom_site_label
_atom_site_fract_x
_atom_site_fract_y
_atom_site_fract_z
Si Si1 0.928106 0.847212 0.416050
Si Si2 0.528583 0.190499 0.607999
Si Si3 0.783355 0.601057 0.726865
Si Si4 0.000000 0.000000 0.314247
Si Si5 0.336116 0.749449 0.842351
Si Si6 0.211434 0.164715 0.567995
Si Si7 0.478286 0.158706 0.207525
O O1 0.801087 0.795189 0.377171
O O2 0.874004 0.874597 0.498416
O O3 0.068814 0.789339 0.409319
O O4 0.960996 0.924065 0.365156
O O5 0.617077 0.124648 0.655023
O O6 0.386004 0.160074 0.564394
O O7 0.649452 0.243041 0.563474
O O8 0.465544 0.257450 0.667923
O O9 0.795598 0.677595 0.784855
O O10 0.612250 0.597245 0.708443
O O11 0.859610 0.524887 0.764772
O O12 0.422867 0.685243 0.789932
O O13 0.152615 0.135313 0.650065
#
# Coordination Sequence:
#
# PCOD9365829 Si02
#       7
#     8   8   8   4   8   8   8
#     4  11  22  39  56  90 120 161 195 242 306 358
#     4   9  16  30  57  89 110 140 196 250 283 324
#     4  10  18  37  57  87 117 148 199 243 290 348
#     4  10  26  36  60  80 134 160 184 240 322 358
#     4  10  19  33  63  83 110 154 207 245 276 340
#     4  10  19  30  56  89 117 146 191 254 294 342
#     4   9  17  32  56  90 106 144 196 256 278 330
#
# _framework density 19.449807
#
# number of rings (size 3 to 8) (size 9 to 14) (size 15 to 20)
#    0.923    1.231    3.077    0.923    4.308    0.000 
#    0.000    2.308    0.000    0.000    0.000    0.000 
#    0.000    0.000    0.000    0.000    0.000    0.000 
#
# Total GULP energy -144868.853964 kJ/mol
# GULP energy per Si atom -5571.878999 kJ/mol
# Density = 1.940554 g / cm^3
# Si number density = 19.449807 Si / 1000 Ang^3
#
#
#
# Elastic Constant Matrix: (Units=GPa)
#
#
# Indices 1 2 3 4 5 6 
#
# 1 79.3933 19.2900 -0.2198 0.0000 0.0000 0.0000
# 2 19.2900 41.4527 2.5795 0.0000 0.0000 0.0000
# 3 -0.2198 2.5795 23.5685 0.0000 0.0000 0.0000
# 4 0.0000 0.0000 0.0000 17.6363 0.0000 0.0000
# 5 0.0000 0.0000 0.0000 0.0000 30.7299 0.0000
# 6 0.0000 0.0000 0.0000 0.0000 0.0000 16.7347
#
#
#
# Elastic Compliance Matrix: (Units=1/GPa)
#
#
# Indices 1 2 3 4 5 6 
#
# 1 0.014219 -0.006670 0.000863 0.000000 0.000000 0.000000
# 2 -0.006670 0.027419 -0.003063 0.000000 0.000000 0.000000
# 3 0.000863 -0.003063 0.042773 0.000000 0.000000 0.000000
# 4 0.000000 0.000000 0.000000 0.056701 0.000000 0.000000
# 5 0.000000 0.000000 0.000000 0.000000 0.032542 0.000000
# 6 0.000000 0.000000 0.000000 0.000000 0.000000 0.059756
#
#
# Mechanical properties :
#
#
# Convention : Reuss Voigt Hill
#
# Bulk Modulus (GPa) = 14.99963 20.85710 17.92836
# Shear Modulus (GPa) = 18.29003 21.20450 19.74726
#
# Velocity S-wave (km/s) = 3.06987 3.30542 3.18982
# Velocity P-wave (km/s) = 4.50491 5.03136 4.77540
#
# Compressibility (1/GPa) = 0.06666833
#
# Stress axis : x y z
#
# Youngs Moduli (GPa) = 70.33062 36.47171 23.37938
#
# Poissons Ratio (x) = 0.24328 -0.02017
# Poissons Ratio (y) = 0.46912 0.07161
# Poissons Ratio (z) = -0.06067 0.11172
#
# Static dielectric constant tensor:
#      x y z
#    x 1.695120 0.000000 0.000000 
#    y 0.000000 1.664970 0.000000 
#    z 0.000000 0.000000 1.717810 
# 
# From -- ./inp_files/9731.got.cif
#   From: 2010.05.17/outbox.cif.g08.bks.cpg/sg41_5_cif.got.tgz:9731.got - 2010.06.03 18:54:24.
