data_PCOD9365571
_publ_section_title
;
Structure prediction by ZEFSAII (Michael W. Deem and Ramdas Pophale) SiO2 
 PCOD9365571
Probable space group: A M A 2
;
_chemical_formula_sum "Si O2"
_cell_formula_units_Z 64
_cell_length_a 15.704275
_cell_length_b 10.468150
_cell_length_c 21.881585
_cell_angle_alpha 90.000000
_cell_angle_beta 90.000000
_cell_angle_gamma 90.000000
_cell_volume 3597.216740
_symmetry_space_group_name_H-M "A M A 2"
_symmetry_group_IT_number 40
_symmetry_cell_setting 'orthorhombic'
loop_
_space_group_symop_operation_xyz
x,y,z
-x,-y,z
1/2-x,y,z
1/2+x,-y,z
x,1/2+y,1/2+z
-x,1/2-y,1/2+z
1/2-x,1/2+y,1/2+z
1/2+x,1/2-y,1/2+z
loop_
_atom_site_type_symbol
_atom_site_label
_atom_site_fract_x
_atom_site_fract_y
_atom_site_fract_z
Si Si1 0.646737 0.030009 0.021620
Si Si2 0.150755 0.964321 0.887976
Si Si3 0.150694 0.774785 0.387976
Si Si4 0.557505 0.624660 0.134939
Si Si5 0.853263 0.030009 0.754332
Si Si6 0.147475 0.269302 0.020408
Si Si7 0.057505 0.375341 0.641013
Si Si8 0.147475 0.769301 0.255543
O O1 0.750000 0.036754 0.021483
O O2 0.623162 0.880070 0.029490
O O3 0.609130 0.106908 0.078082
O O4 0.614790 0.073751 0.954202
O O5 0.250000 0.924744 0.887976
O O6 0.150426 0.119389 0.887976
O O7 0.114790 0.926249 0.821750
O O8 0.250000 0.814643 0.387976
O O9 0.113987 0.812952 0.453695
O O10 0.113987 0.812952 0.322256
O O11 0.500000 0.500000 0.126942
O O12 0.609132 0.606909 0.197870
O O13 0.617076 0.645973 0.076359
O O14 0.500000 0.750000 0.137976
O O15 0.750000 0.036752 0.754470
O O16 0.876839 0.880071 0.746461
O O17 0.250000 0.270075 0.017611
O O18 0.117078 0.354027 0.699592
O O19 0.000000 0.500000 0.649011
O O20 0.250000 0.770072 0.258341
#
# Coordination Sequence:
#
# PCOD9365571 Si02
#       8
#     8   8   8   8   8   8   8   8
#     4   9  17  33  56  80 102 133 175 219 262 306
#     4   7  12  26  52  80 101 121 166 227 265 294
#     4   7  12  26  52  79  99 124 170 221 259 302
#     4  12  23  36  49  75 113 145 173 207 257 310
#     4   9  17  33  56  80 102 133 175 219 262 306
#     4   9  17  33  56  79 101 134 177 218 259 309
#     4  12  23  36  49  75 113 145 173 207 257 310
#     4   9  17  33  56  79 101 134 177 218 259 309
#
# _framework density 17.791532
#
# number of rings (size 3 to 8) (size 9 to 14) (size 15 to 20)
#    0.000    2.750    2.500    3.750    0.000    0.000 
#    0.000    2.500    0.000    0.000    0.000    5.250 
#    0.000    0.000    0.000    0.000    0.000    0.000 
#
# Total GULP energy -178188.472046 kJ/mol
# GULP energy per Si atom -5568.389751 kJ/mol
# Density = 1.775104 g / cm^3
# Si number density = 17.791532 Si / 1000 Ang^3
#
#
#
# Elastic Constant Matrix: (Units=GPa)
#
#
# Indices 1 2 3 4 5 6 
#
# 1 21.6677 19.9863 39.6299 0.0000 0.0000 0.0000
# 2 19.9863 58.7260 47.9893 0.0000 0.0000 0.0000
# 3 39.6299 47.9893 226.4459 0.0000 0.0000 0.0000
# 4 0.0000 0.0000 0.0000 31.5153 0.0000 0.0000
# 5 0.0000 0.0000 0.0000 0.0000 -23.3623 0.0000
# 6 0.0000 0.0000 0.0000 0.0000 0.0000 21.4025
#
#
#
# Elastic Compliance Matrix: (Units=1/GPa)
#
#
# Indices 1 2 3 4 5 6 
#
# 1 0.083565 -0.019942 -0.010398 0.000000 0.000000 0.000000
# 2 -0.019942 0.025354 -0.001883 0.000000 0.000000 0.000000
# 3 -0.010398 -0.001883 0.006635 0.000000 0.000000 0.000000
# 4 0.000000 0.000000 0.000000 0.031731 0.000000 0.000000
# 5 0.000000 0.000000 0.000000 0.000000 -0.042804 0.000000
# 6 0.000000 0.000000 0.000000 0.000000 0.000000 0.046724
#
#
# Mechanical properties :
#
#
# Convention : Reuss Voigt Hill
#
# Bulk Modulus (GPa) = 19.56710 58.00561 38.78635
# Shear Modulus (GPa) = 21.48811 19.19336 20.34073
#
# Velocity S-wave (km/s) = 3.47907 3.28806 3.38491
# Velocity P-wave (km/s) = 5.21157 6.86213 6.09300
#
# Compressibility (1/GPa) = 0.05110621
#
# Stress axis : x y z
#
# Youngs Moduli (GPa) = 11.96676 39.44148 150.71816
#
# Poissons Ratio (x) = 0.78656 1.56720
# Poissons Ratio (y) = 0.23865 0.28381
# Poissons Ratio (z) = 0.12443 0.07427
#
# Static dielectric constant tensor:
#      x y z
#    x 1.623400 0.000000 0.000000 
#    y 0.000000 1.564230 0.000000 
#    z 0.000000 0.000000 1.674830 
# 
# From -- ./inp_files/23428.got.cif
#   From: 2010.05.17/outbox.cif.g08.bks.cpg/sg40_12_cif.got.tgz:23428.got - 2010.06.03 18:35:42.
