data_PCOD9365746
_publ_section_title
;
Structure prediction by ZEFSAII (Michael W. Deem and Ramdas Pophale) SiO2 
 PCOD9365746
Probable space group: A B A 2
;
_chemical_formula_sum "Si O2"
_cell_formula_units_Z 60
_cell_length_a 11.984520
_cell_length_b 18.480141
_cell_length_c 14.802875
_cell_angle_alpha 90.000000
_cell_angle_beta 90.000000
_cell_angle_gamma 90.000000
_cell_volume 3278.475910
_symmetry_space_group_name_H-M "A B A 2"
_symmetry_group_IT_number 41
_symmetry_cell_setting 'orthorhombic'
loop_
_space_group_symop_operation_xyz
x,y,z
-x,-y,z
1/2-x,y,1/2+z
1/2+x,-y,1/2+z
x,1/2+y,1/2+z
-x,1/2-y,1/2+z
1/2-x,1/2+y,z
1/2+x,1/2-y,z
loop_
_atom_site_type_symbol
_atom_site_label
_atom_site_fract_x
_atom_site_fract_y
_atom_site_fract_z
Si Si1 0.585075 0.431443 0.897700
Si Si2 0.271961 0.016380 0.022229
Si Si3 0.428420 0.292633 0.882842
Si Si4 0.866969 0.991216 0.710207
Si Si5 0.773444 0.653513 0.225578
Si Si6 0.249547 0.347580 0.518351
Si Si7 0.927823 0.152413 0.358505
Si Si8 0.000000 0.500000 0.908618
O O1 0.500000 0.500000 0.908558
O O2 0.518520 0.356836 0.893976
O O3 0.641734 0.444687 0.800400
O O4 0.679976 0.435473 0.973221
O O5 0.304172 0.039110 0.123177
O O6 0.224032 0.933931 0.023217
O O7 0.388875 0.012832 0.968238
O O8 0.358759 0.306670 0.791711
O O9 0.483604 0.215233 0.871565
O O10 0.347067 0.302977 0.968620
O O11 0.813778 0.069841 0.728909
O O12 0.000000 0.000000 0.690785
O O13 0.773394 0.675874 0.120813
O O14 0.653610 0.662510 0.273064
O O15 0.353270 0.344183 0.449794
O O16 0.979511 0.072691 0.352858
#
# Coordination Sequence:
#
# PCOD9365746 Si02
#       8
#     8   8   8   8   8   8   8   4
#     4  11  19  35  60  88 118 158 197 251 296 356
#     4  10  19  33  59  91 118 152 205 247 297 354
#     4  11  21  38  61  87 119 158 204 242 308 369
#     4  10  17  33  62  91 109 160 208 238 295 364
#     4  10  20  39  60  86 124 158 197 252 310 349
#     4   9  20  38  59  82 122 159 193 245 304 357
#     4  10  23  38  60  86 117 161 196 249 311 363
#     4  10  20  38  58  82 120 156 196 252 302 360
#
# _framework density 18.301186999999999
#
# number of rings (size 3 to 8) (size 9 to 14) (size 15 to 20)
#    0.000    1.867    4.667    1.600    0.000    3.200 
#    0.000    5.333    1.467    3.200    0.000    0.000 
#    0.000    0.000    0.000    0.000    0.000    0.000 
#
# Total GULP energy -167357.969373 kJ/mol
# GULP energy per Si atom -5578.598979 kJ/mol
# Density = 1.825953 g / cm^3
# Si number density = 18.301187 Si / 1000 Ang^3
#
#
#
# Elastic Constant Matrix: (Units=GPa)
#
#
# Indices 1 2 3 4 5 6 
#
# 1 78.2218 41.0191 44.2068 0.0000 0.0000 0.0000
# 2 41.0191 75.4770 21.3407 0.0000 0.0000 0.0000
# 3 44.2068 21.3407 124.1347 0.0000 0.0000 0.0000
# 4 0.0000 0.0000 0.0000 -4.2033 0.0000 0.0000
# 5 0.0000 0.0000 0.0000 0.0000 20.0557 0.0000
# 6 0.0000 0.0000 0.0000 0.0000 0.0000 31.5918
#
#
#
# Elastic Compliance Matrix: (Units=1/GPa)
#
#
# Indices 1 2 3 4 5 6 
#
# 1 0.021310 -0.009918 -0.005884 0.000000 0.000000 0.000000
# 2 -0.009918 0.018542 0.000344 0.000000 0.000000 0.000000
# 3 -0.005884 0.000344 0.010092 0.000000 0.000000 0.000000
# 4 0.000000 0.000000 0.000000 -0.237909 0.000000 0.000000
# 5 0.000000 0.000000 0.000000 0.000000 0.049861 0.000000
# 6 0.000000 0.000000 0.000000 0.000000 0.000000 0.031654
#
#
# Mechanical properties :
#
#
# Convention : Reuss Voigt Hill
#
# Bulk Modulus (GPa) = 52.55119 54.55186 53.55152
# Shear Modulus (GPa) = -72.26215 20.90664 -25.67776
#
# Velocity S-wave (km/s) = -6.29052 3.38356 -3.74981
# Velocity P-wave (km/s) = 4.89734 6.71842 3.25217
#
# Compressibility (1/GPa) = 0.01902906
#
# Stress axis : x y z
#
# Youngs Moduli (GPa) = 46.92574 53.93265 99.08856
#
# Poissons Ratio (x) = 0.53489 0.58304
# Poissons Ratio (y) = 0.46540 -0.03412
# Poissons Ratio (z) = 0.27611 -0.01857
#
# Static dielectric constant tensor:
#      x y z
#    x 1.637260 0.000000 0.000000 
#    y 0.000000 1.616920 0.000000 
#    z 0.000000 0.000000 1.625300 
# 
# From -- ./inp_files/8070.got.cif
#   From: 2010.05.17/outbox.cif.g08.bks.cpg/sg41_5_cif.got.tgz:8070.got - 2010.06.03 18:54:24.
