data_PCOD9365247
_publ_section_title
;
Structure prediction by ZEFSAII (Michael W. Deem and Ramdas Pophale) SiO2 
 PCOD9365247
Probable space group: A M A 2
;
_chemical_formula_sum "Si O2"
_cell_formula_units_Z 40
_cell_length_a 19.903118
_cell_length_b 5.247550
_cell_length_c 17.004629
_cell_angle_alpha 90.000000
_cell_angle_beta 90.000000
_cell_angle_gamma 90.000000
_cell_volume 1776.007781
_symmetry_space_group_name_H-M "A M A 2"
_symmetry_group_IT_number 40
_symmetry_cell_setting 'orthorhombic'
loop_
_space_group_symop_operation_xyz
x,y,z
-x,-y,z
1/2-x,y,z
1/2+x,-y,z
x,1/2+y,1/2+z
-x,1/2-y,1/2+z
1/2-x,1/2+y,1/2+z
1/2+x,1/2-y,1/2+z
loop_
_atom_site_type_symbol
_atom_site_label
_atom_site_fract_x
_atom_site_fract_y
_atom_site_fract_z
Si Si1 0.178283 0.230856 0.140460
Si Si2 0.070547 0.618064 0.103564
Si Si3 0.425437 0.452458 0.348446
Si Si4 0.672532 0.631509 0.490695
Si Si5 0.095003 0.951583 0.244826
O O1 0.250000 0.364298 0.147342
O O2 0.114928 0.411704 0.149563
O O3 0.175391 0.094632 0.055634
O O4 0.168082 0.026987 0.210155
O O5 0.119966 0.678394 0.031897
O O6 0.061023 0.855027 0.162762
O O7 0.000000 0.500000 0.079802
O O8 0.500000 0.500000 0.384578
O O9 0.364973 0.432713 0.410358
O O10 0.409522 0.703848 0.298371
O O11 0.430093 0.193939 0.295689
O O12 0.750000 0.718599 0.480358
#
# Coordination Sequence:
#
# PCOD9365247 Si02
#       5
#     8   8   8   8   8
#     4  10  23  45  73 103 142 190 242 297 359 431
#     4  11  24  43  79 108 145 187 248 300 365 425
#     4  12  27  44  73 104 151 190 244 296 365 426
#     4  10  26  47  69 105 150 195 244 301 365 437
#     4  11  25  46  70 106 142 188 239 304 356 430
#
# _framework density 22.522424999999998
#
# number of rings (size 3 to 8) (size 9 to 14) (size 15 to 20)
#    0.000    1.200    2.000    1.800    8.400    4.000 
#    0.000    0.000    0.000    0.000    0.000    0.000 
#    0.000    0.000    0.000    0.000    0.000    0.000 
#
# Total GULP energy -111569.138794 kJ/mol
# GULP energy per Si atom -5578.456940 kJ/mol
# Density = 2.247116 g / cm^3
# Si number density = 22.522425 Si / 1000 Ang^3
#
#
#
# Elastic Constant Matrix: (Units=GPa)
#
#
# Indices 1 2 3 4 5 6 
#
# 1 222.8867 57.0818 66.6472 0.0000 0.0000 0.0000
# 2 57.0818 108.6178 24.5168 0.0000 0.0000 0.0000
# 3 66.6472 24.5168 75.4971 0.0000 0.0000 0.0000
# 4 0.0000 0.0000 0.0000 19.4347 0.0000 0.0000
# 5 0.0000 0.0000 0.0000 0.0000 -4.6565 0.0000
# 6 0.0000 0.0000 0.0000 0.0000 0.0000 10.8426
#
#
#
# Elastic Compliance Matrix: (Units=1/GPa)
#
#
# Indices 1 2 3 4 5 6 
#
# 1 0.006597 -0.002323 -0.005070 0.000000 0.000000 0.000000
# 2 -0.002323 0.010753 -0.001441 0.000000 0.000000 0.000000
# 3 -0.005070 -0.001441 0.018189 0.000000 0.000000 0.000000
# 4 0.000000 0.000000 0.000000 0.051454 0.000000 0.000000
# 5 0.000000 0.000000 0.000000 0.000000 -0.214752 0.000000
# 6 0.000000 0.000000 0.000000 0.000000 0.000000 0.092229
#
#
# Mechanical properties :
#
#
# Convention : Reuss Voigt Hill
#
# Bulk Modulus (GPa) = 55.95524 78.16591 67.06057
# Shear Modulus (GPa) = -419.99894 22.37453 -198.81221
#
# Velocity S-wave (km/s) = -13.67060 3.15530 -9.40556
# Velocity P-wave (km/s) = 14.97605 6.93222 9.38686
#
# Compressibility (1/GPa) = 0.01787143
#
# Stress axis : x y z
#
# Youngs Moduli (GPa) = 151.57470 93.00073 54.97817
#
# Poissons Ratio (x) = 0.21602 0.27873
# Poissons Ratio (y) = 0.35208 0.07924
# Poissons Ratio (z) = 0.76845 0.13404
#
# Static dielectric constant tensor:
#      x y z
#    x 1.847510 0.000000 0.000000 
#    y 0.000000 2.029390 0.000000 
#    z 0.000000 0.000000 1.860690 
# 
# From -- ./inp_files/21275.got.cif
#   From: 2010.05.17/outbox.cif.g08.bks.cpg/sg40_11_cif.got.tgz:21275.got - 2010.06.03 18:35:42.
