data_PCOD9365591
_publ_section_title
;
Structure prediction by ZEFSAII (Michael W. Deem and Ramdas Pophale) SiO2 
 PCOD9365591
Probable space group: A M A 2
;
_chemical_formula_sum "Si O2"
_cell_formula_units_Z 24
_cell_length_a 17.644796
_cell_length_b 7.383900
_cell_length_c 7.363620
_cell_angle_alpha 90.000000
_cell_angle_beta 90.000000
_cell_angle_gamma 90.000000
_cell_volume 959.386972
_symmetry_space_group_name_H-M "A M A 2"
_symmetry_group_IT_number 40
_symmetry_cell_setting 'orthorhombic'
loop_
_space_group_symop_operation_xyz
x,y,z
-x,-y,z
1/2-x,y,z
1/2+x,-y,z
x,1/2+y,1/2+z
-x,1/2-y,1/2+z
1/2-x,1/2+y,1/2+z
1/2+x,1/2-y,1/2+z
loop_
_atom_site_type_symbol
_atom_site_label
_atom_site_fract_x
_atom_site_fract_y
_atom_site_fract_z
Si Si1 0.390231 0.324170 0.794430
Si Si2 0.956747 0.687755 0.428892
Si Si3 0.665152 0.782590 0.169802
O O1 0.405876 0.242360 0.595072
O O2 0.475275 0.318480 0.874436
O O3 0.354207 0.518015 0.746650
O O4 0.342757 0.227304 0.951907
O O5 0.899751 0.661076 0.261871
O O6 0.000000 0.500000 0.476935
O O7 0.750000 0.729869 0.222195
#
# Coordination Sequence:
#
# PCOD9365591 Si02
#       3
#     8   8   8
#     4  12  25  50  77 113 155 214 270 329 399 483
#     4  12  25  47  82 115 152 217 277 332 397 487
#     4  12  29  49  76 118 167 211 267 341 413 478
#
# _framework density 25.015972999999999
#
# number of rings (size 3 to 8) (size 9 to 14) (size 15 to 20)
#    0.000    0.000    6.667    2.000    4.667    4.000 
#    0.000    0.000    0.000    0.000    0.000    0.000 
#    0.000    0.000    0.000    0.000    0.000    0.000 
#
# Total GULP energy -67129.145408 kJ/mol
# GULP energy per Si atom -5594.095451 kJ/mol
# Density = 2.495904 g / cm^3
# Si number density = 25.015973 Si / 1000 Ang^3
#
#
#
# Elastic Constant Matrix: (Units=GPa)
#
#
# Indices 1 2 3 4 5 6 
#
# 1 150.4525 6.7789 34.8326 0.0000 0.0000 0.0000
# 2 6.7789 84.8997 29.1555 0.0000 0.0000 0.0000
# 3 34.8326 29.1555 159.6382 0.0000 0.0000 0.0000
# 4 0.0000 0.0000 0.0000 30.2186 0.0000 0.0000
# 5 0.0000 0.0000 0.0000 0.0000 25.1610 0.0000
# 6 0.0000 0.0000 0.0000 0.0000 0.0000 18.6376
#
#
#
# Elastic Compliance Matrix: (Units=1/GPa)
#
#
# Indices 1 2 3 4 5 6 
#
# 1 0.007000 -0.000037 -0.001521 0.000000 0.000000 0.000000
# 2 -0.000037 0.012567 -0.002287 0.000000 0.000000 0.000000
# 3 -0.001521 -0.002287 0.007014 0.000000 0.000000 0.000000
# 4 0.000000 0.000000 0.000000 0.033092 0.000000 0.000000
# 5 0.000000 0.000000 0.000000 0.000000 0.039744 0.000000
# 6 0.000000 0.000000 0.000000 0.000000 0.000000 0.053655
#
#
# Mechanical properties :
#
#
# Convention : Reuss Voigt Hill
#
# Bulk Modulus (GPa) = 52.93301 59.61379 56.27340
# Shear Modulus (GPa) = 29.92962 36.41834 33.17398
#
# Velocity S-wave (km/s) = 3.46268 3.81964 3.64553
# Velocity P-wave (km/s) = 6.09857 6.58292 6.34537
#
# Compressibility (1/GPa) = 0.01889180
#
# Stress axis : x y z
#
# Youngs Moduli (GPa) = 142.84991 79.57364 142.57804
#
# Poissons Ratio (x) = 0.00292 0.21683
# Poissons Ratio (y) = 0.00524 0.32610
# Poissons Ratio (z) = 0.21724 0.18200
#
# Static dielectric constant tensor:
#      x y z
#    x 2.006720 0.000000 0.000000 
#    y 0.000000 2.064650 0.000000 
#    z 0.000000 0.000000 2.000550 
# 
# From -- ./inp_files/5787.got.cif
#   From: 2010.05.17/outbox.cif.g08.bks.cpg/sg40_3_cif.got.tgz:5787.got - 2010.06.03 18:35:42.
