data_PCOD9365947
_publ_section_title
;
Structure prediction by ZEFSAII (Michael W. Deem and Ramdas Pophale) SiO2 
 PCOD9365947
Probable space group: A B A 2
;
_chemical_formula_sum "Si O2"
_cell_formula_units_Z 64
_cell_length_a 22.177959
_cell_length_b 8.560154
_cell_length_c 17.933190
_cell_angle_alpha 90.000000
_cell_angle_beta 90.000000
_cell_angle_gamma 90.000000
_cell_volume 3404.557739
_symmetry_space_group_name_H-M "A B A 2"
_symmetry_group_IT_number 41
_symmetry_cell_setting 'orthorhombic'
loop_
_space_group_symop_operation_xyz
x,y,z
-x,-y,z
1/2-x,y,1/2+z
1/2+x,-y,1/2+z
x,1/2+y,1/2+z
-x,1/2-y,1/2+z
1/2-x,1/2+y,z
1/2+x,1/2-y,z
loop_
_atom_site_type_symbol
_atom_site_label
_atom_site_fract_x
_atom_site_fract_y
_atom_site_fract_z
Si Si1 0.566055 0.072081 0.623040
Si Si2 0.327659 0.642479 0.150979
Si Si3 0.680508 0.366951 0.480729
Si Si4 0.560349 0.107919 0.789281
Si Si5 0.985139 0.175822 0.878065
Si Si6 0.863879 0.324320 0.823417
Si Si7 0.546559 0.370100 0.520316
Si Si8 0.247609 0.392111 0.571135
O O1 0.581774 0.132072 0.705583
O O2 0.561420 0.221573 0.571275
O O3 0.500000 0.000000 0.623371
O O4 0.612525 0.929435 0.612031
O O5 0.339695 0.682720 0.238233
O O6 0.280116 0.502745 0.135293
O O7 0.300530 0.789632 0.107547
O O8 0.680181 0.311578 0.394476
O O9 0.613121 0.428734 0.498450
O O10 0.727099 0.500149 0.504732
O O11 0.698078 0.222663 0.534905
O O12 0.539208 0.266605 0.825829
O O13 0.500000 0.000000 0.787354
O O14 0.608771 0.999844 0.829409
O O15 0.920379 0.205593 0.837453
O O16 0.983461 0.295398 0.946807
O O17 0.000000 0.000000 0.901455
O O18 0.500000 0.500000 0.550103
#
# Coordination Sequence:
#
# PCOD9365947 Si02
#       8
#     8   8   8   8   8   8   8   8
#     4  10  20  35  57  87 115 149 190 242 294 359
#     4  10  21  41  61  86 119 158 198 242 306 346
#     4  10  21  40  58  87 113 155 202 243 301 347
#     4   8  16  34  53  75 115 152 179 227 297 345
#     4  10  19  35  53  82 121 155 191 238 299 354
#     4   9  19  37  61  82 115 156 197 242 289 363
#     4  11  22  36  57  86 119 152 196 244 299 365
#     4  10  22  40  62  80 121 158 196 257 291 354
#
# _framework density 18.798331000000001
#
# number of rings (size 3 to 8) (size 9 to 14) (size 15 to 20)
#    0.000    2.250    1.250    3.000    1.750    1.500 
#    4.500    0.000    0.000    0.000    0.000    0.000 
#    0.000    0.000    0.000    0.000    0.000    0.000 
#
# Total GULP energy -178165.113315 kJ/mol
# GULP energy per Si atom -5567.659791 kJ/mol
# Density = 1.875554 g / cm^3
# Si number density = 18.798331 Si / 1000 Ang^3
#
#
#
# Elastic Constant Matrix: (Units=GPa)
#
#
# Indices 1 2 3 4 5 6 
#
# 1 65.0778 27.6480 16.2503 0.0000 0.0000 0.0000
# 2 27.6480 53.8520 15.2582 0.0000 0.0000 0.0000
# 3 16.2503 15.2582 83.0181 0.0000 0.0000 0.0000
# 4 0.0000 0.0000 0.0000 22.0403 0.0000 0.0000
# 5 0.0000 0.0000 0.0000 0.0000 26.0780 0.0000
# 6 0.0000 0.0000 0.0000 0.0000 0.0000 26.6983
#
#
#
# Elastic Compliance Matrix: (Units=1/GPa)
#
#
# Indices 1 2 3 4 5 6 
#
# 1 0.020007 -0.009665 -0.002140 0.000000 0.000000 0.000000
# 2 -0.009665 0.024259 -0.002567 0.000000 0.000000 0.000000
# 3 -0.002140 -0.002567 0.012936 0.000000 0.000000 0.000000
# 4 0.000000 0.000000 0.000000 0.045371 0.000000 0.000000
# 5 0.000000 0.000000 0.000000 0.000000 0.038347 0.000000
# 6 0.000000 0.000000 0.000000 0.000000 0.000000 0.037456
#
#
# Mechanical properties :
#
#
# Convention : Reuss Voigt Hill
#
# Bulk Modulus (GPa) = 35.13925 35.58455 35.36190
# Shear Modulus (GPa) = 23.08346 24.48273 23.78309
#
# Velocity S-wave (km/s) = 3.50802 3.61278 3.56078
# Velocity P-wave (km/s) = 5.92803 6.03105 5.97977
#
# Compressibility (1/GPa) = 0.02845820
#
# Stress axis : x y z
#
# Youngs Moduli (GPa) = 49.98295 41.22192 77.30265
#
# Poissons Ratio (x) = 0.39843 0.16541
# Poissons Ratio (y) = 0.48310 0.19841
# Poissons Ratio (z) = 0.10695 0.10580
#
# Static dielectric constant tensor:
#      x y z
#    x 1.688670 0.000000 0.000000 
#    y 0.000000 1.643670 0.000000 
#    z 0.000000 0.000000 1.695220 
# 
# From -- ./inp_files/10693.got.cif
#   From: 2010.05.17/outbox.cif.g08.bks.cpg/sg41_6_cif.got.tgz:10693.got - 2010.06.03 18:54:24.
