data_PCOD9365034
_publ_section_title
;
Structure prediction by ZEFSAII (Michael W. Deem and Ramdas Pophale) SiO2 
 PCOD9365034
Probable space group: A M A 2
;
_chemical_formula_sum "Si O2"
_cell_formula_units_Z 48
_cell_length_a 16.890921
_cell_length_b 24.276780
_cell_length_c 4.831796
_cell_angle_alpha 90.000000
_cell_angle_beta 90.000000
_cell_angle_gamma 90.000000
_cell_volume 1981.312609
_symmetry_space_group_name_H-M "A M A 2"
_symmetry_group_IT_number 40
_symmetry_cell_setting 'orthorhombic'
loop_
_space_group_symop_operation_xyz
x,y,z
-x,-y,z
1/2-x,y,z
1/2+x,-y,z
x,1/2+y,1/2+z
-x,1/2-y,1/2+z
1/2-x,1/2+y,1/2+z
1/2+x,1/2-y,1/2+z
loop_
_atom_site_type_symbol
_atom_site_label
_atom_site_fract_x
_atom_site_fract_y
_atom_site_fract_z
Si Si1 0.750000 0.600948 0.243500
Si Si2 0.750000 0.027844 0.264768
Si Si3 0.947869 0.740707 0.515685
Si Si4 0.417042 0.874057 0.779857
Si Si5 0.158235 0.165366 0.237647
Si Si6 0.415353 0.995022 0.045803
Si Si7 0.412578 0.104612 0.707537
O O1 0.750000 0.583428 0.567551
O O2 0.669603 0.630207 0.148103
O O3 0.750000 0.543187 0.084407
O O4 0.667486 0.998713 0.200302
O O5 0.922716 0.677843 0.480086
O O6 0.883620 0.782281 0.385413
O O7 0.973416 0.751127 0.828556
O O8 0.499137 0.876494 0.611193
O O9 0.415345 0.933199 0.928487
O O10 0.250000 0.176130 0.174821
O O11 0.147936 0.117489 0.465766
O O12 0.113083 0.141990 0.969408
O O13 0.500000 0.000000 0.201716
O O14 0.416156 0.042139 0.812254
#
# Coordination Sequence:
#
# PCOD9365034 Si02
#       7
#     4   4   8   8   8   8   8
#     4  10  24  40  68  96 132 178 216 294 325 412
#     4  10  22  42  62  96 140 170 234 270 345 398
#     4  12  24  45  71  95 134 182 230 287 342 405
#     4  10  22  45  69  99 139 174 236 278 352 402
#     4  12  26  44  69 103 138 181 237 282 346 410
#     4   9  22  42  70 100 136 185 227 282 348 415
#     4  11  24  45  70 100 139 183 227 286 343 424
#
# _framework density 24.226364
#
# number of rings (size 3 to 8) (size 9 to 14) (size 15 to 20)
#    0.000    1.333    3.333    0.500    3.500    9.333 
#    0.000    7.500    0.000    0.000    0.000    0.000 
#    0.000    0.000    0.000    0.000    0.000    0.000 
#
# Total GULP energy -134209.494539 kJ/mol
# GULP energy per Si atom -5592.062272 kJ/mol
# Density = 2.417122 g / cm^3
# Si number density = 24.226364 Si / 1000 Ang^3
#
#
#
# Elastic Constant Matrix: (Units=GPa)
#
#
# Indices 1 2 3 4 5 6 
#
# 1 179.6101 18.8065 3.7600 0.0000 0.0000 0.0000
# 2 18.8065 130.4322 6.1112 0.0000 0.0000 0.0000
# 3 3.7600 6.1112 61.4398 0.0000 0.0000 0.0000
# 4 0.0000 0.0000 0.0000 25.0886 0.0000 0.0000
# 5 0.0000 0.0000 0.0000 0.0000 7.3595 0.0000
# 6 0.0000 0.0000 0.0000 0.0000 0.0000 34.4680
#
#
#
# Elastic Compliance Matrix: (Units=1/GPa)
#
#
# Indices 1 2 3 4 5 6 
#
# 1 0.005657 -0.000803 -0.000266 0.000000 0.000000 0.000000
# 2 -0.000803 0.007817 -0.000728 0.000000 0.000000 0.000000
# 3 -0.000266 -0.000728 0.016365 0.000000 0.000000 0.000000
# 4 0.000000 0.000000 0.000000 0.039859 0.000000 0.000000
# 5 0.000000 0.000000 0.000000 0.000000 0.135879 0.000000
# 6 0.000000 0.000000 0.000000 0.000000 0.000000 0.029012
#
#
# Mechanical properties :
#
#
# Convention : Reuss Voigt Hill
#
# Bulk Modulus (GPa) = 38.10524 47.64859 42.87692
# Shear Modulus (GPa) = 20.24847 36.23685 28.24266
#
# Velocity S-wave (km/s) = 2.89416 3.87170 3.41806
# Velocity P-wave (km/s) = 5.18953 6.30060 5.77186
#
# Compressibility (1/GPa) = 0.02624311
#
# Stress axis : x y z
#
# Youngs Moduli (GPa) = 176.76292 127.93034 61.10659
#
# Poissons Ratio (x) = 0.10276 0.01627
# Poissons Ratio (y) = 0.14198 0.04451
# Poissons Ratio (z) = 0.04708 0.09318
#
# Static dielectric constant tensor:
#      x y z
#    x 1.977130 0.000000 0.000000 
#    y 0.000000 1.928070 0.000000 
#    z 0.000000 0.000000 1.882700 
# 
# From -- ./inp_files/1895.got.cif
#   From: 2010.05.17/outbox.cif.g08.bks.cpg/sg40_1_cif.got.tgz:1895.got - 2010.06.03 18:35:42.
