data_PCOD9365508
_publ_section_title
;
Structure prediction by ZEFSAII (Michael W. Deem and Ramdas Pophale) SiO2 
 PCOD9365508
Probable space group: A M A 2
;
_chemical_formula_sum "Si O2"
_cell_formula_units_Z 64
_cell_length_a 18.761491
_cell_length_b 9.327984
_cell_length_c 20.535844
_cell_angle_alpha 90.000000
_cell_angle_beta 90.000000
_cell_angle_gamma 90.000000
_cell_volume 3593.914148
_symmetry_space_group_name_H-M "A M A 2"
_symmetry_group_IT_number 40
_symmetry_cell_setting 'orthorhombic'
loop_
_space_group_symop_operation_xyz
x,y,z
-x,-y,z
1/2-x,y,z
1/2+x,-y,z
x,1/2+y,1/2+z
-x,1/2-y,1/2+z
1/2-x,1/2+y,1/2+z
1/2+x,1/2-y,1/2+z
loop_
_atom_site_type_symbol
_atom_site_label
_atom_site_fract_x
_atom_site_fract_y
_atom_site_fract_z
Si Si1 0.022653 0.164372 0.517280
Si Si2 0.022653 0.835628 0.370889
Si Si3 0.667373 0.515815 0.670427
Si Si4 0.166238 0.810206 0.299439
Si Si5 0.537027 0.153937 0.754097
Si Si6 0.332627 0.515815 0.217741
Si Si7 0.537027 0.346063 0.634071
Si Si8 0.333762 0.189794 0.588729
O O1 0.106963 0.178410 0.532922
O O2 1.000000 0.202587 0.444084
O O3 0.981545 0.263778 0.568550
O O4 0.000000 0.000000 0.528184
O O5 0.106963 0.821590 0.355247
O O6 0.981545 0.736222 0.319618
O O7 0.000000 0.000000 0.359984
O O8 0.750000 0.477117 0.670126
O O9 0.649476 0.572366 0.743166
O O10 0.618874 0.386899 0.646228
O O11 0.658838 0.655155 0.623777
O O12 0.250000 0.825916 0.317901
O O13 0.158838 0.655155 0.264392
O O14 0.618874 0.113101 0.741941
O O15 0.510701 0.250000 0.694084
O O16 0.500000 0.000000 0.753043
O O17 0.250000 0.477118 0.218043
O O18 0.350524 0.572366 0.145002
O O19 0.500000 0.500000 0.635126
O O20 0.250000 0.174084 0.570268
#
# Coordination Sequence:
#
# PCOD9365508 Si02
#       8
#     8   8   8   8   8   8   8   8
#     4  11  24  41  58  85 120 156 201 248 294 354
#     4  11  24  41  58  85 120 156 201 248 294 354
#     4   9  18  33  57  89 119 149 193 243 291 352
#     4   9  17  36  61  84 117 158 195 236 297 357
#     4  12  22  35  59  87 118 151 195 246 300 347
#     4   9  18  33  57  89 119 149 193 243 291 352
#     4  12  22  35  59  87 118 151 195 246 300 347
#     4   9  17  36  61  84 117 158 195 236 297 357
#
# _framework density 17.807881999999999
#
# number of rings (size 3 to 8) (size 9 to 14) (size 15 to 20)
#    0.000    1.750    2.500    5.250    0.000    1.000 
#    0.000    5.000    0.000    3.000    0.000    0.000 
#    0.000    0.000    0.000    0.000    0.000    0.000 
#
# Total GULP energy -178641.897223 kJ/mol
# GULP energy per Si atom -5582.559288 kJ/mol
# Density = 1.776735 g / cm^3
# Si number density = 17.807882 Si / 1000 Ang^3
#
#
#
# Elastic Constant Matrix: (Units=GPa)
#
#
# Indices 1 2 3 4 5 6 
#
# 1 128.5310 31.5933 83.8842 0.0000 0.0000 0.0000
# 2 31.5933 87.5950 74.1219 0.0000 0.0000 0.0000
# 3 83.8842 74.1219 143.3794 0.0000 0.0000 0.0000
# 4 0.0000 0.0000 0.0000 27.8505 0.0000 0.0000
# 5 0.0000 0.0000 0.0000 0.0000 29.3628 0.0000
# 6 0.0000 0.0000 0.0000 0.0000 0.0000 29.6548
#
#
#
# Elastic Compliance Matrix: (Units=1/GPa)
#
#
# Indices 1 2 3 4 5 6 
#
# 1 0.013048 0.003117 -0.009245 0.000000 0.000000 0.000000
# 2 0.003117 0.021038 -0.012700 0.000000 0.000000 0.000000
# 3 -0.009245 -0.012700 0.018948 0.000000 0.000000 0.000000
# 4 0.000000 0.000000 0.000000 0.035906 0.000000 0.000000
# 5 0.000000 0.000000 0.000000 0.000000 0.034057 0.000000
# 6 0.000000 0.000000 0.000000 0.000000 0.000000 0.033721
#
#
# Mechanical properties :
#
#
# Convention : Reuss Voigt Hill
#
# Bulk Modulus (GPa) = 65.02243 82.07824 73.55033
# Shear Modulus (GPa) = 25.06270 28.70068 26.88169
#
# Velocity S-wave (km/s) = 3.75559 4.01893 3.88949
# Velocity P-wave (km/s) = 7.44302 8.22963 7.84619
#
# Compressibility (1/GPa) = 0.01537931
#
# Stress axis : x y z
#
# Youngs Moduli (GPa) = 76.64232 47.53263 52.77486
#
# Poissons Ratio (x) = -0.14816 0.48790
# Poissons Ratio (y) = -0.23889 0.67022
# Poissons Ratio (z) = 0.70855 0.60364
#
# Static dielectric constant tensor:
#      x y z
#    x 1.666640 0.000000 0.000000 
#    y 0.000000 1.599180 0.000000 
#    z 0.000000 0.000000 1.579900 
# 
# From -- ./inp_files/23362.got.cif
#   From: 2010.05.17/outbox.cif.g08.bks.cpg/sg40_12_cif.got.tgz:23362.got - 2010.06.03 18:35:42.
