data_PCOD9365638
_publ_section_title
;
Structure prediction by ZEFSAII (Michael W. Deem and Ramdas Pophale) SiO2 
 PCOD9365638
Probable space group: A M A 2
;
_chemical_formula_sum "Si O2"
_cell_formula_units_Z 32
_cell_length_a 9.000000
_cell_length_b 24.000000
_cell_length_c 15.000000
_cell_angle_alpha 90.000000
_cell_angle_beta 90.000000
_cell_angle_gamma 90.000000
_cell_volume 3240.000000
_symmetry_space_group_name_H-M "A M A 2"
_symmetry_group_IT_number 40
_symmetry_cell_setting 'orthorhombic'
loop_
_space_group_symop_operation_xyz
x,y,z
-x,-y,z
1/2-x,y,z
1/2+x,-y,z
x,1/2+y,1/2+z
-x,1/2-y,1/2+z
1/2-x,1/2+y,1/2+z
1/2+x,1/2-y,1/2+z
loop_
_atom_site_type_symbol
_atom_site_label
_atom_site_fract_x
_atom_site_fract_y
_atom_site_fract_z
Si Si1 0.579792 0.853304 0.382630
Si Si2 0.922856 0.943002 0.538086
Si Si3 0.924397 0.644679 0.506253
Si Si4 0.079549 0.259782 0.982647
Si Si5 0.927779 0.845613 0.189638
Si Si6 0.070609 0.899956 0.717258
Si Si7 0.077359 0.280300 0.188739
Si Si8 0.425330 0.053893 0.888329
O O1 0.750000 0.831134 0.382219
O O2 0.570737 0.900170 0.457021
O O3 0.469386 0.804603 0.410882
O O4 0.552292 0.875583 0.283462
O O5 0.750000 0.951409 0.562770
O O6 0.012312 0.919578 0.622153
O O7 0.000000 0.000000 0.511006
O O8 0.750000 0.634915 0.493045
O O9 0.968226 0.708125 0.484402
O O10 0.976910 0.633679 0.607348
O O11 0.024605 0.606685 0.444335
O O12 0.250000 0.241257 0.971026
O O13 0.069842 0.286735 0.081533
O O14 0.750000 0.844591 0.166367
O O15 0.978637 0.781508 0.207089
O O16 0.250000 0.901344 0.720482
O O17 0.015031 0.836132 0.731531
O O18 0.000190 0.937840 0.792438
O O19 0.250000 0.278820 0.214957
O O20 0.250000 0.048089 0.881642
O O21 0.500000 0.000000 0.931681
#
# Coordination Sequence:
#
# PCOD9365638 Si02
#       8
#     8   8   8   8   8   8   8   8
#     4  10  21  36  59  89 122 159 203 252 304 358
#     4  11  23  39  58  85 119 162 208 252 301 357
#     4  11  23  41  63  90 121 158 202 251 303 358
#     4  10  19  35  58  88 122 159 197 241 298 360
#     4   9  19  38  60  87 123 162 199 246 302 358
#     4  11  21  37  60  90 123 161 200 246 302 362
#     4   8  16  31  54  83 118 157 194 231 290 354
#     4  12  26  45  65  90 119 156 203 255 306 364
#
# _framework density 9.8765429999999999
#
# number of rings (size 3 to 8) (size 9 to 14) (size 15 to 20)
#    0.000    1.750    1.250    4.500    1.750    1.000 
#    0.000    1.250    0.000    1.500    0.000    0.000 
#    0.000    0.000    0.000    0.000    0.000    0.000 
#
# Total GULP energy -178571.759765 kJ/mol
# GULP energy per Si atom -5580.367493 kJ/mol
# Density = 0.985406 g / cm^3
# Si number density = 9.876543 Si / 1000 Ang^3
#
#
#
# Elastic Constant Matrix: (Units=GPa)
#
#
# Indices 1 2 3 4 5 6 
#
# 1 96.3866 19.2405 27.7226 0.0000 0.0000 0.0000
# 2 19.2405 27.8549 23.6457 0.0000 0.0000 0.0000
# 3 27.7226 23.6457 69.2645 0.0000 0.0000 0.0000
# 4 0.0000 0.0000 0.0000 14.8144 0.0000 0.0000
# 5 0.0000 0.0000 0.0000 0.0000 18.8734 0.0000
# 6 0.0000 0.0000 0.0000 0.0000 0.0000 20.2037
#
#
#
# Elastic Compliance Matrix: (Units=1/GPa)
#
#
# Indices 1 2 3 4 5 6 
#
# 1 0.012429 -0.006142 -0.002878 0.000000 0.000000 0.000000
# 2 -0.006142 0.053585 -0.015835 0.000000 0.000000 0.000000
# 3 -0.002878 -0.015835 0.020995 0.000000 0.000000 0.000000
# 4 0.000000 0.000000 0.000000 0.067502 0.000000 0.000000
# 5 0.000000 0.000000 0.000000 0.000000 0.052985 0.000000
# 6 0.000000 0.000000 0.000000 0.000000 0.000000 0.049496
#
#
# Mechanical properties :
#
#
# Convention : Reuss Voigt Hill
#
# Bulk Modulus (GPa) = 26.81003 37.19151 32.00077
# Shear Modulus (GPa) = 15.66748 18.97147 17.31948
#
# Velocity S-wave (km/s) = 2.81938 3.10244 2.96429
# Velocity P-wave (km/s) = 4.91941 5.63051 5.28693
#
# Compressibility (1/GPa) = 0.03729948
#
# Stress axis : x y z
#
# Youngs Moduli (GPa) = 80.45936 18.66200 47.63078
#
# Poissons Ratio (x) = 0.11463 0.13706
# Poissons Ratio (y) = 0.49420 0.75421
# Poissons Ratio (z) = 0.23153 0.29551
#
# Static dielectric constant tensor:
#      x y z
#    x 1.664500 0.000000 0.000000 
#    y 0.000000 1.702180 0.000000 
#    z 0.000000 0.000000 1.724390 
# 
# From -- ./inp_files/15650.got.cif
#   From: 2010.05.17/outbox.ucp.g08.bks.cvg/sg40_8_cif.got.tgz:15650.got - 2010.06.11 16:26:39.
