data_PCOD9365980
_publ_section_title
;
Structure prediction by ZEFSAII (Michael W. Deem and Ramdas Pophale) SiO2 
 PCOD9365980
Probable space group: A B A 2
;
_chemical_formula_sum "Si O2"
_cell_formula_units_Z 64
_cell_length_a 32.082334
_cell_length_b 8.203084
_cell_length_c 11.876848
_cell_angle_alpha 90.000000
_cell_angle_beta 90.000000
_cell_angle_gamma 90.000000
_cell_volume 3125.678554
_symmetry_space_group_name_H-M "A B A 2"
_symmetry_group_IT_number 41
_symmetry_cell_setting 'orthorhombic'
loop_
_space_group_symop_operation_xyz
x,y,z
-x,-y,z
1/2-x,y,1/2+z
1/2+x,-y,1/2+z
x,1/2+y,1/2+z
-x,1/2-y,1/2+z
1/2-x,1/2+y,z
1/2+x,1/2-y,z
loop_
_atom_site_type_symbol
_atom_site_label
_atom_site_fract_x
_atom_site_fract_y
_atom_site_fract_z
Si Si1 0.539943 0.415500 0.937010
Si Si2 0.394660 0.320380 0.355695
Si Si3 0.400492 0.492049 0.598977
Si Si4 0.059061 0.342987 0.643010
Si Si5 0.700017 0.152196 0.869129
Si Si6 0.020547 0.824604 0.625547
Si Si7 0.763217 0.350257 0.746658
Si Si8 0.194903 0.451613 0.126348
O O1 0.500000 0.500000 0.878406
O O2 0.578251 0.346048 0.866646
O O3 0.554952 0.534614 0.038071
O O4 0.522702 0.257760 0.002665
O O5 0.399001 0.426154 0.469814
O O6 0.413812 0.408518 0.246603
O O7 0.346019 0.282422 0.343343
O O8 0.419223 0.673912 0.604267
O O9 0.432180 0.365185 0.660905
O O10 0.353657 0.490166 0.644880
O O11 0.012392 0.294192 0.686255
O O12 0.736563 0.282093 0.851334
O O13 0.710101 0.004682 0.784295
O O14 0.700074 0.087608 0.995374
O O15 0.000000 0.000000 0.616335
O O16 0.727107 0.407653 0.661098
O O17 0.791260 0.207494 0.696346
#
# Coordination Sequence:
#
# PCOD9365980 Si02
#       8
#     8   8   8   8   8   8   8   8
#     4   9  19  36  55  81 112 144 188 227 265 325
#     4  10  21  36  56  82 110 144 181 224 275 321
#     4   9  19  36  55  80 111 140 181 226 267 324
#     4  10  19  36  56  78 111 146 180 224 270 319
#     4  10  21  37  56  83 110 137 184 226 265 335
#     4   8  16  33  54  76 110 144 175 224 267 311
#     4  10  21  37  58  80 107 144 180 221 279 331
#     4  10  20  37  58  80 110 145 177 226 279 320
#
# _framework density 20.475555
#
# number of rings (size 3 to 8) (size 9 to 14) (size 15 to 20)
#    0.000    2.500    0.000    1.500    0.000    4.500 
#    0.000   31.250    0.000    0.000    0.000    0.000 
#    0.000    0.000    0.000    0.000    0.000    0.000 
#
# Total GULP energy -178469.617034 kJ/mol
# GULP energy per Si atom -5577.175532 kJ/mol
# Density = 2.042895 g / cm^3
# Si number density = 20.475555 Si / 1000 Ang^3
#
#
#
# Elastic Constant Matrix: (Units=GPa)
#
#
# Indices 1 2 3 4 5 6 
#
# 1 123.3576 25.7266 41.5122 0.0000 0.0000 0.0000
# 2 25.7266 57.8071 18.6780 0.0000 0.0000 0.0000
# 3 41.5122 18.6780 48.2273 0.0000 0.0000 0.0000
# 4 0.0000 0.0000 0.0000 18.2788 0.0000 0.0000
# 5 0.0000 0.0000 0.0000 0.0000 58.6471 0.0000
# 6 0.0000 0.0000 0.0000 0.0000 0.0000 24.7389
#
#
#
# Elastic Compliance Matrix: (Units=1/GPa)
#
#
# Indices 1 2 3 4 5 6 
#
# 1 0.011657 -0.002224 -0.009173 0.000000 0.000000 0.000000
# 2 -0.002224 0.020198 -0.005908 0.000000 0.000000 0.000000
# 3 -0.009173 -0.005908 0.030919 0.000000 0.000000 0.000000
# 4 0.000000 0.000000 0.000000 0.054708 0.000000 0.000000
# 5 0.000000 0.000000 0.000000 0.000000 0.017051 0.000000
# 6 0.000000 0.000000 0.000000 0.000000 0.000000 0.040422
#
#
# Mechanical properties :
#
#
# Convention : Reuss Voigt Hill
#
# Bulk Modulus (GPa) = 35.50620 44.58062 40.04341
# Shear Modulus (GPa) = 22.83603 29.89798 26.36701
#
# Velocity S-wave (km/s) = 3.34321 3.82537 3.59239
# Velocity P-wave (km/s) = 5.68165 6.42893 6.06681
#
# Compressibility (1/GPa) = 0.02816410
#
# Stress axis : x y z
#
# Youngs Moduli (GPa) = 85.78451 49.51066 32.34295
#
# Poissons Ratio (x) = 0.11012 0.29667
# Poissons Ratio (y) = 0.19080 0.19108
# Poissons Ratio (z) = 0.78687 0.29250
#
# Static dielectric constant tensor:
#      x y z
#    x 1.755430 0.000000 0.000000 
#    y 0.000000 1.728800 0.000000 
#    z 0.000000 0.000000 1.747170 
# 
# From -- ./inp_files/6688.got.cif
#   From: 2010.05.17/outbox.cif.g08.bks.cpg/sg41_4_cif.got.tgz:6688.got - 2010.06.03 18:54:24.
