data_PCOD9365128
_publ_section_title
;
Structure prediction by ZEFSAII (Michael W. Deem and Ramdas Pophale) SiO2 
 PCOD9365128
Probable space group: A M A 2
;
_chemical_formula_sum "Si O2"
_cell_formula_units_Z 56
_cell_length_a 23.338537
_cell_length_b 12.897267
_cell_length_c 7.732950
_cell_angle_alpha 90.000000
_cell_angle_beta 90.000000
_cell_angle_gamma 90.000000
_cell_volume 2327.643802
_symmetry_space_group_name_H-M "A M A 2"
_symmetry_group_IT_number 40
_symmetry_cell_setting 'orthorhombic'
loop_
_space_group_symop_operation_xyz
x,y,z
-x,-y,z
1/2-x,y,z
1/2+x,-y,z
x,1/2+y,1/2+z
-x,1/2-y,1/2+z
1/2-x,1/2+y,1/2+z
1/2+x,1/2-y,1/2+z
loop_
_atom_site_type_symbol
_atom_site_label
_atom_site_fract_x
_atom_site_fract_y
_atom_site_fract_z
Si Si1 0.100220 0.121639 0.297170
Si Si2 0.477631 0.685578 0.499916
Si Si3 0.317446 0.520965 0.349558
Si Si4 0.115053 0.824030 0.978298
Si Si5 0.019544 0.614120 0.127931
Si Si6 0.816504 0.528736 0.949415
Si Si7 0.818289 0.748352 0.818475
O O1 0.057304 0.119584 0.137268
O O2 0.123755 0.237738 0.328105
O O3 0.063472 0.103776 0.471914
O O4 0.147655 0.033947 0.308077
O O5 0.459121 0.665704 0.304596
O O6 0.546395 0.664943 0.505325
O O7 0.472258 0.806201 0.554251
O O8 0.250000 0.500160 0.385733
O O9 0.356726 0.432615 0.429581
O O10 0.331099 0.639462 0.399269
O O11 0.325560 0.514938 0.141575
O O12 0.146467 0.777044 0.145756
O O13 0.000000 0.500000 0.175131
O O14 0.750000 0.515129 0.907436
O O15 0.828987 0.650780 0.942131
O O16 0.750000 0.751154 0.776222
#
# Coordination Sequence:
#
# PCOD9365128 Si02
#       7
#     8   8   8   8   8   8   8
#     4  11  25  49  75 110 154 200 247 321 378 446
#     4  11  25  49  70 111 150 199 259 305 376 450
#     4  10  22  44  75 109 147 193 245 309 380 450
#     4  11  23  42  74 108 143 198 250 306 378 444
#     4  11  25  45  76 102 146 197 254 305 371 446
#     4  10  23  46  74 108 148 196 249 310 389 457
#     4  10  22  45  75 108 147 189 243 309 378 453
#
# _framework density 24.058662999999999
#
# number of rings (size 3 to 8) (size 9 to 14) (size 15 to 20)
#    0.000    1.429    4.286    0.429    2.000    3.429 
#    7.714    0.000    0.000    0.000    0.000    0.000 
#    0.000    0.000    0.000    0.000    0.000    0.000 
#
# Total GULP energy -156879.222913 kJ/mol
# GULP energy per Si atom -5602.829390 kJ/mol
# Density = 2.400390 g / cm^3
# Si number density = 24.058663 Si / 1000 Ang^3
#
#
#
# Elastic Constant Matrix: (Units=GPa)
#
#
# Indices 1 2 3 4 5 6 
#
# 1 93.3552 50.3731 27.4642 0.0000 0.0000 0.0000
# 2 50.3731 181.7927 37.9116 0.0000 0.0000 0.0000
# 3 27.4642 37.9116 92.0601 0.0000 0.0000 0.0000
# 4 0.0000 0.0000 0.0000 29.6555 0.0000 0.0000
# 5 0.0000 0.0000 0.0000 0.0000 27.3132 0.0000
# 6 0.0000 0.0000 0.0000 0.0000 0.0000 1.6973
#
#
#
# Elastic Compliance Matrix: (Units=1/GPa)
#
#
# Indices 1 2 3 4 5 6 
#
# 1 0.013161 -0.003094 -0.002652 0.000000 0.000000 0.000000
# 2 -0.003094 0.006745 -0.001855 0.000000 0.000000 0.000000
# 3 -0.002652 -0.001855 0.012418 0.000000 0.000000 0.000000
# 4 0.000000 0.000000 0.000000 0.033721 0.000000 0.000000
# 5 0.000000 0.000000 0.000000 0.000000 0.036612 0.000000
# 6 0.000000 0.000000 0.000000 0.000000 0.000000 0.589186
#
#
# Mechanical properties :
#
#
# Convention : Reuss Voigt Hill
#
# Bulk Modulus (GPa) = 58.40384 66.52287 62.46335
# Shear Modulus (GPa) = 7.01507 28.49713 17.75610
#
# Velocity S-wave (km/s) = 1.70943 3.44537 2.71962
# Velocity P-wave (km/s) = 5.31267 6.59831 5.99008
#
# Compressibility (1/GPa) = 0.01712216
#
# Stress axis : x y z
#
# Youngs Moduli (GPa) = 75.97958 148.26236 80.53139
#
# Poissons Ratio (x) = 0.45869 0.21360
# Poissons Ratio (y) = 0.23506 0.14936
# Poissons Ratio (z) = 0.20153 0.27497
#
# Static dielectric constant tensor:
#      x y z
#    x 1.940730 0.000000 0.000000 
#    y 0.000000 1.935460 0.000000 
#    z 0.000000 0.000000 1.889340 
# 
# From -- ./inp_files/14005.got.cif
#   From: 2010.05.17/outbox.cif.g08.bks.cpg/sg40_8_cif.got.tgz:14005.got - 2010.06.03 18:35:42.
