data_PCOD9365816
_publ_section_title
;
Structure prediction by ZEFSAII (Michael W. Deem and Ramdas Pophale) SiO2 
 PCOD9365816
Probable space group: A B A 2
;
_chemical_formula_sum "Si O2"
_cell_formula_units_Z 64
_cell_length_a 14.812348
_cell_length_b 23.359319
_cell_length_c 8.256374
_cell_angle_alpha 90.000000
_cell_angle_beta 90.000000
_cell_angle_gamma 90.000000
_cell_volume 2856.757932
_symmetry_space_group_name_H-M "A B A 2"
_symmetry_group_IT_number 41
_symmetry_cell_setting 'orthorhombic'
loop_
_space_group_symop_operation_xyz
x,y,z
-x,-y,z
1/2-x,y,1/2+z
1/2+x,-y,1/2+z
x,1/2+y,1/2+z
-x,1/2-y,1/2+z
1/2-x,1/2+y,z
1/2+x,1/2-y,z
loop_
_atom_site_type_symbol
_atom_site_label
_atom_site_fract_x
_atom_site_fract_y
_atom_site_fract_z
Si Si1 0.517060 0.066236 0.806870
Si Si2 0.729835 0.495441 0.485979
Si Si3 0.947643 0.947434 0.662332
Si Si4 0.330568 0.074575 0.698454
Si Si5 0.192956 0.311248 0.324387
Si Si6 0.788298 0.771013 0.067911
Si Si7 0.165884 0.655740 0.278152
Si Si8 0.818759 0.111225 0.100219
O O1 0.428693 0.096761 0.736691
O O2 0.604434 0.091110 0.723506
O O3 0.500000 0.000000 0.759294
O O4 0.508066 0.067051 0.002172
O O5 0.646360 0.475807 0.599284
O O6 0.691620 0.481097 0.310272
O O7 0.810271 0.450475 0.522820
O O8 0.766790 0.558081 0.516876
O O9 0.916092 0.887253 0.738527
O O10 0.000000 0.000000 0.750711
O O11 0.258735 0.120389 0.756928
O O12 0.155442 0.260513 0.209584
O O13 0.262726 0.277167 0.437871
O O14 0.140504 0.350026 0.454229
O O15 0.246423 0.353569 0.205287
O O16 0.693518 0.795139 0.145371
O O17 0.836822 0.818558 0.958253
#
# Coordination Sequence:
#
# PCOD9365816 Si02
#       8
#     8   8   8   8   8   8   8   8
#     4  10  19  33  53  86 129 175 209 256 320 409
#     4  10  19  32  56  83 124 164 207 247 311 403
#     4   9  20  33  54  93 130 162 214 260 318 407
#     4  10  19  33  55  89 119 156 215 252 306 400
#     4   9  21  35  59  95 118 163 234 279 311 387
#     4   9  18  37  62  93 116 158 241 273 311 377
#     4  10  18  35  67  88 120 171 207 276 329 370
#     4  11  20  35  61  86 128 176 209 267 342 377
#
# _framework density 22.403017999999999
#
# number of rings (size 3 to 8) (size 9 to 14) (size 15 to 20)
#    0.000    2.250    1.250    3.000    3.500    0.000 
#    0.000    0.000   24.750    9.000    6.500    0.000 
#    0.000    0.000    0.000    0.000    1.000    0.000 
#
# Total GULP energy -178388.921755 kJ/mol
# GULP energy per Si atom -5574.653805 kJ/mol
# Density = 2.235203 g / cm^3
# Si number density = 22.403018 Si / 1000 Ang^3
#
#
#
# Elastic Constant Matrix: (Units=GPa)
#
#
# Indices 1 2 3 4 5 6 
#
# 1 47.9171 18.3611 18.7628 0.0000 0.0000 0.0000
# 2 18.3611 97.5895 41.9311 0.0000 0.0000 0.0000
# 3 18.7628 41.9311 88.7277 0.0000 0.0000 0.0000
# 4 0.0000 0.0000 0.0000 43.9114 0.0000 0.0000
# 5 0.0000 0.0000 0.0000 0.0000 28.5033 0.0000
# 6 0.0000 0.0000 0.0000 0.0000 0.0000 7.0314
#
#
#
# Elastic Compliance Matrix: (Units=1/GPa)
#
#
# Indices 1 2 3 4 5 6 
#
# 1 0.023370 -0.002853 -0.003594 0.000000 0.000000 0.000000
# 2 -0.002853 0.013206 -0.005638 0.000000 0.000000 0.000000
# 3 -0.003594 -0.005638 0.014695 0.000000 0.000000 0.000000
# 4 0.000000 0.000000 0.000000 0.022773 0.000000 0.000000
# 5 0.000000 0.000000 0.000000 0.000000 0.035084 0.000000
# 6 0.000000 0.000000 0.000000 0.000000 0.000000 0.142219
#
#
# Mechanical properties :
#
#
# Convention : Reuss Voigt Hill
#
# Bulk Modulus (GPa) = 36.89756 43.59379 40.24567
# Shear Modulus (GPa) = 17.57169 26.23451 21.90310
#
# Velocity S-wave (km/s) = 2.80365 3.42574 3.13019
# Velocity P-wave (km/s) = 5.19483 5.92863 5.57382
#
# Compressibility (1/GPa) = 0.02710206
#
# Stress axis : x y z
#
# Youngs Moduli (GPa) = 42.79041 75.72266 68.05200
#
# Poissons Ratio (x) = 0.21602 0.24456
# Poissons Ratio (y) = 0.12207 0.38366
# Poissons Ratio (z) = 0.15378 0.42690
#
# Static dielectric constant tensor:
#      x y z
#    x 1.824080 0.000000 0.000000 
#    y 0.000000 1.935080 0.000000 
#    z 0.000000 0.000000 1.927060 
# 
# From -- ./inp_files/2825.got.cif
#   From: 2010.05.17/outbox.cif.g08.bks.cpg/sg41_2_cif.got.tgz:2825.got - 2010.06.03 18:54:24.
