data_PCOD9365464
_publ_section_title
;
Structure prediction by ZEFSAII (Michael W. Deem and Ramdas Pophale) SiO2 
 PCOD9365464
Probable space group: A M A 2
;
_chemical_formula_sum "Si O2"
_cell_formula_units_Z 64
_cell_length_a 29.838942
_cell_length_b 9.083350
_cell_length_c 11.481157
_cell_angle_alpha 90.000000
_cell_angle_beta 90.000000
_cell_angle_gamma 90.000000
_cell_volume 3111.824708
_symmetry_space_group_name_H-M "A M A 2"
_symmetry_group_IT_number 40
_symmetry_cell_setting 'orthorhombic'
loop_
_space_group_symop_operation_xyz
x,y,z
-x,-y,z
1/2-x,y,z
1/2+x,-y,z
x,1/2+y,1/2+z
-x,1/2-y,1/2+z
1/2-x,1/2+y,1/2+z
1/2+x,1/2-y,1/2+z
loop_
_atom_site_type_symbol
_atom_site_label
_atom_site_fract_x
_atom_site_fract_y
_atom_site_fract_z
Si Si1 0.888638 0.296813 0.891430
Si Si2 0.125754 0.364413 0.636097
Si Si3 0.586578 0.346305 0.538860
Si Si4 0.521780 0.337021 0.749639
Si Si5 0.845274 0.088477 0.481606
Si Si6 0.357494 0.961248 0.731862
Si Si7 0.801644 0.768962 0.789348
Si Si8 0.934923 0.844247 0.777321
O O1 0.938909 0.318762 0.844550
O O2 0.863912 0.451331 0.909004
O O3 0.863666 0.190117 0.799648
O O4 0.886937 0.220106 0.017565
O O5 0.117024 0.533089 0.604798
O O6 0.174381 0.318721 0.683229
O O7 0.092951 0.301632 0.737142
O O8 0.544856 0.325140 0.623646
O O9 0.614695 0.200717 0.513194
O O10 0.570707 0.393450 0.410894
O O11 0.500000 0.500000 0.761579
O O12 0.485428 0.206684 0.758620
O O13 0.830906 0.041923 0.610774
O O14 0.809132 0.171831 0.404338
O O15 0.331063 0.083144 0.806562
O O16 0.407587 0.028227 0.709664
O O17 0.750000 0.799176 0.768045
#
# Coordination Sequence:
#
# PCOD9365464 Si02
#       8
#     8   8   8   8   8   8   8   8
#     4  12  24  44  72  99 144 194 236 289 354 422
#     4  11  22  46  70  98 144 188 227 285 372 420
#     4  12  23  43  72  95 142 197 235 284 357 418
#     4  12  26  39  64 108 144 186 251 300 329 401
#     4  12  23  44  74  99 139 187 227 283 360 430
#     4  11  24  46  73 100 139 193 228 286 363 433
#     4  11  25  49  78 108 140 174 232 300 360 441
#     4  11  23  42  64 101 138 191 239 290 338 405
#
# _framework density 20.566711999999999
#
# number of rings (size 3 to 8) (size 9 to 14) (size 15 to 20)
#    0.000    0.500    8.750    1.500    1.750    1.000 
#    0.000    3.125    0.000    0.000    0.000    0.000 
#    0.000    0.000    0.000    0.000    0.000    0.000 
#
# Total GULP energy -178761.294906 kJ/mol
# GULP energy per Si atom -5586.290466 kJ/mol
# Density = 2.051990 g / cm^3
# Si number density = 20.566712 Si / 1000 Ang^3
#
#
#
# Elastic Constant Matrix: (Units=GPa)
#
#
# Indices 1 2 3 4 5 6 
#
# 1 101.4607 32.4380 30.6499 0.0000 0.0000 0.0000
# 2 32.4380 123.8848 30.9461 0.0000 0.0000 0.0000
# 3 30.6499 30.9461 107.9122 0.0000 0.0000 0.0000
# 4 0.0000 0.0000 0.0000 47.4962 0.0000 0.0000
# 5 0.0000 0.0000 0.0000 0.0000 22.6018 0.0000
# 6 0.0000 0.0000 0.0000 0.0000 0.0000 13.2084
#
#
#
# Elastic Compliance Matrix: (Units=1/GPa)
#
#
# Indices 1 2 3 4 5 6 
#
# 1 0.011378 -0.002339 -0.002561 0.000000 0.000000 0.000000
# 2 -0.002339 0.009176 -0.001967 0.000000 0.000000 0.000000
# 3 -0.002561 -0.001967 0.010558 0.000000 0.000000 0.000000
# 4 0.000000 0.000000 0.000000 0.021054 0.000000 0.000000
# 5 0.000000 0.000000 0.000000 0.000000 0.044244 0.000000
# 6 0.000000 0.000000 0.000000 0.000000 0.000000 0.075709
#
#
# Mechanical properties :
#
#
# Convention : Reuss Voigt Hill
#
# Bulk Modulus (GPa) = 57.54547 57.92508 57.73528
# Shear Modulus (GPa) = 26.08977 32.60953 29.34965
#
# Velocity S-wave (km/s) = 3.56553 3.98621 3.78172
# Velocity P-wave (km/s) = 6.70755 7.02938 6.87035
#
# Compressibility (1/GPa) = 0.01737756
#
# Stress axis : x y z
#
# Youngs Moduli (GPa) = 87.89275 108.98101 94.71372
#
# Poissons Ratio (x) = 0.25496 0.24253
# Poissons Ratio (y) = 0.20562 0.18629
# Poissons Ratio (z) = 0.22506 0.21436
#
# Static dielectric constant tensor:
#      x y z
#    x 1.725350 0.000000 0.000000 
#    y 0.000000 1.795880 0.000000 
#    z 0.000000 0.000000 1.783640 
# 
# From -- ./inp_files/14407.got.cif
#   From: 2010.05.17/outbox.cif.g08.bks.cpg/sg40_8_cif.got.tgz:14407.got - 2010.06.03 18:35:42.
