data_PCOD9365577
_publ_section_title
;
Structure prediction by ZEFSAII (Michael W. Deem and Ramdas Pophale) SiO2 
 PCOD9365577
Probable space group: A M A 2
;
_chemical_formula_sum "Si O2"
_cell_formula_units_Z 44
_cell_length_a 14.627991
_cell_length_b 27.537599
_cell_length_c 4.937452
_cell_angle_alpha 90.000000
_cell_angle_beta 90.000000
_cell_angle_gamma 90.000000
_cell_volume 1988.903182
_symmetry_space_group_name_H-M "A M A 2"
_symmetry_group_IT_number 40
_symmetry_cell_setting 'orthorhombic'
loop_
_space_group_symop_operation_xyz
x,y,z
-x,-y,z
1/2-x,y,z
1/2+x,-y,z
x,1/2+y,1/2+z
-x,1/2-y,1/2+z
1/2-x,1/2+y,1/2+z
1/2+x,1/2-y,1/2+z
loop_
_atom_site_type_symbol
_atom_site_label
_atom_site_fract_x
_atom_site_fract_y
_atom_site_fract_z
Si Si1 0.482719 0.869286 0.282660
Si Si2 0.562917 0.735163 0.599921
Si Si3 0.750000 0.296387 0.125645
Si Si4 0.399685 0.121702 0.785247
Si Si5 0.892707 0.487929 0.126833
Si Si6 0.347772 0.954190 0.133719
O O1 0.431534 0.820414 0.198894
O O2 0.511205 0.870533 0.595090
O O3 0.426570 0.916724 0.203755
O O4 0.574158 0.871260 0.098453
O O5 0.501322 0.739423 0.329062
O O6 0.664586 0.757562 0.568542
O O7 0.671971 0.338011 0.198867
O O8 0.371745 0.066368 0.722494
O O9 0.850626 0.527140 0.329277
O O10 0.000000 0.500000 0.141168
O O11 0.861030 0.498926 0.824274
O O12 0.250000 0.931419 0.194433
#
# Coordination Sequence:
#
# PCOD9365577 Si02
#       6
#     8   8   4   8   8   8
#     4  12  23  48  69  99 135 185 231 288 359 411
#     4  12  26  49  72 102 141 185 235 304 362 421
#     4  12  28  48  74 108 142 190 244 304 362 426
#     4  12  26  43  74 102 138 183 237 284 353 431
#     4  12  23  46  68 102 143 195 227 286 364 424
#     4  12  26  42  68 103 143 184 241 286 343 432
#
# _framework density 22.122748000000001
#
# number of rings (size 3 to 8) (size 9 to 14) (size 15 to 20)
#    0.000    0.000    7.273    2.182    3.818    2.909 
#    0.000    0.000    0.000    0.000    0.000    0.000 
#    0.000    0.000    0.000    0.000    0.000    0.000 
#
# Total GULP energy -122543.580242 kJ/mol
# GULP energy per Si atom -5570.162738 kJ/mol
# Density = 2.207240 g / cm^3
# Si number density = 22.122748 Si / 1000 Ang^3
#
#
#
# Elastic Constant Matrix: (Units=GPa)
#
#
# Indices 1 2 3 4 5 6 
#
# 1 135.7475 14.0806 4.1988 0.0000 0.0000 0.0000
# 2 14.0806 97.5540 -15.9583 0.0000 0.0000 0.0000
# 3 4.1988 -15.9583 67.6178 0.0000 0.0000 0.0000
# 4 0.0000 0.0000 0.0000 26.2924 0.0000 0.0000
# 5 0.0000 0.0000 0.0000 0.0000 -5.2571 0.0000
# 6 0.0000 0.0000 0.0000 0.0000 0.0000 7.7306
#
#
#
# Elastic Compliance Matrix: (Units=1/GPa)
#
#
# Indices 1 2 3 4 5 6 
#
# 1 0.007515 -0.001208 -0.000752 0.000000 0.000000 0.000000
# 2 -0.001208 0.010856 0.002637 0.000000 0.000000 0.000000
# 3 -0.000752 0.002637 0.015458 0.000000 0.000000 0.000000
# 4 0.000000 0.000000 0.000000 0.038034 0.000000 0.000000
# 5 0.000000 0.000000 0.000000 0.000000 -0.190219 0.000000
# 6 0.000000 0.000000 0.000000 0.000000 0.000000 0.129356
#
#
# Mechanical properties :
#
#
# Convention : Reuss Voigt Hill
#
# Bulk Modulus (GPa) = 28.42090 33.95127 31.18608
# Shear Modulus (GPa) = 233.92883 25.65972 129.79428
#
# Velocity S-wave (km/s) = 10.29422 3.40939 7.66795
# Velocity P-wave (km/s) = 12.41649 5.55686 9.61894
#
# Compressibility (1/GPa) = 0.03518537
#
# Stress axis : x y z
#
# Youngs Moduli (GPa) = 133.06485 92.11112 64.69105
#
# Poissons Ratio (x) = 0.11124 0.04863
# Poissons Ratio (y) = 0.16070 -0.17060
# Poissons Ratio (z) = 0.10002 -0.24292
#
# Static dielectric constant tensor:
#      x y z
#    x 1.895360 0.000000 0.000000 
#    y 0.000000 1.804640 0.000000 
#    z 0.000000 0.000000 1.797040 
# 
# From -- ./inp_files/1397.got.cif
#   From: 2010.05.17/outbox.cif.g08.bks.cpg/sg40_1_cif.got.tgz:1397.got - 2010.06.03 18:35:42.
