data_PCOD9365741
_publ_section_title
;
Structure prediction by ZEFSAII (Michael W. Deem and Ramdas Pophale) SiO2 
 PCOD9365741
Probable space group: A B A 2
;
_chemical_formula_sum "Si O2"
_cell_formula_units_Z 40
_cell_length_a 16.552707
_cell_length_b 22.950122
_cell_length_c 5.358971
_cell_angle_alpha 90.000000
_cell_angle_beta 90.000000
_cell_angle_gamma 90.000000
_cell_volume 2035.801514
_symmetry_space_group_name_H-M "A B A 2"
_symmetry_group_IT_number 41
_symmetry_cell_setting 'orthorhombic'
loop_
_space_group_symop_operation_xyz
x,y,z
-x,-y,z
1/2-x,y,1/2+z
1/2+x,-y,1/2+z
x,1/2+y,1/2+z
-x,1/2-y,1/2+z
1/2-x,1/2+y,z
1/2+x,1/2-y,z
loop_
_atom_site_type_symbol
_atom_site_label
_atom_site_fract_x
_atom_site_fract_y
_atom_site_fract_z
Si Si1 0.922345 0.456587 0.738180
Si Si2 0.415417 0.794701 0.302652
Si Si3 0.513317 0.327025 0.302606
Si Si4 0.797404 0.109794 0.851357
Si Si5 0.597276 0.502178 0.737032
O O1 0.951908 0.391818 0.797011
O O2 0.880184 0.461764 0.470635
O O3 0.000000 0.500000 0.714259
O O4 0.871361 0.480494 0.970574
O O5 0.420748 0.724828 0.305302
O O6 0.462675 0.816848 0.549150
O O7 0.328752 0.824529 0.318853
O O8 0.458947 0.816679 0.049034
O O9 0.733662 0.099023 0.630345
O O10 0.871609 0.066355 0.797323
O O11 0.500000 0.500000 0.712748
#
# Coordination Sequence:
#
# PCOD9365741 Si02
#       5
#     8   8   8   8   8
#     4  10  17  29  52  82 112 140 180 234 285 325
#     4  10  20  35  54  83 116 147 189 239 288 347
#     4  10  19  33  58  87 112 142 190 246 293 333
#     4  12  24  39  59  85 120 156 194 242 304 361
#     4  10  20  34  56  81 110 147 192 239 283 340
#
# _framework density 19.648281000000001
#
# number of rings (size 3 to 8) (size 9 to 14) (size 15 to 20)
#    0.000    1.600    0.000    8.400    0.000    0.000 
#    0.000    0.000    0.000    7.200    0.000    0.000 
#    0.000    0.000    0.000    0.000    0.000    0.000 
#
# Total GULP energy -111601.968280 kJ/mol
# GULP energy per Si atom -5580.098414 kJ/mol
# Density = 1.960356 g / cm^3
# Si number density = 19.648281 Si / 1000 Ang^3
#
#
#
# Elastic Constant Matrix: (Units=GPa)
#
#
# Indices 1 2 3 4 5 6 
#
# 1 22.2095 9.8456 -9.4148 0.0000 0.0000 0.0000
# 2 9.8456 103.4662 -5.0390 0.0000 0.0000 0.0000
# 3 -9.4148 -5.0390 135.0585 0.0000 0.0000 0.0000
# 4 0.0000 0.0000 0.0000 17.6506 0.0000 0.0000
# 5 0.0000 0.0000 0.0000 0.0000 11.7122 0.0000
# 6 0.0000 0.0000 0.0000 0.0000 0.0000 29.3115
#
#
#
# Elastic Compliance Matrix: (Units=1/GPa)
#
#
# Indices 1 2 3 4 5 6 
#
# 1 0.048355 -0.004445 0.003205 0.000000 0.000000 0.000000
# 2 -0.004445 0.010091 0.000067 0.000000 0.000000 0.000000
# 3 0.003205 0.000067 0.007630 0.000000 0.000000 0.000000
# 4 0.000000 0.000000 0.000000 0.056655 0.000000 0.000000
# 5 0.000000 0.000000 0.000000 0.000000 0.085381 0.000000
# 6 0.000000 0.000000 0.000000 0.000000 0.000000 0.034116
#
#
# Mechanical properties :
#
#
# Convention : Reuss Voigt Hill
#
# Bulk Modulus (GPa) = 15.69146 27.94642 21.81894
# Shear Modulus (GPa) = 18.80975 29.42435 24.11705
#
# Velocity S-wave (km/s) = 3.09742 3.87402 3.50728
# Velocity P-wave (km/s) = 4.56021 5.85363 5.24693
#
# Compressibility (1/GPa) = 0.06372894
#
# Stress axis : x y z
#
# Youngs Moduli (GPa) = 20.68039 99.09593 131.05987
#
# Poissons Ratio (x) = 0.44051 -0.42004
# Poissons Ratio (y) = 0.09193 -0.00873
# Poissons Ratio (z) = -0.06628 -0.00660
#
# Static dielectric constant tensor:
#      x y z
#    x 1.648210 0.000000 0.000000 
#    y 0.000000 1.678090 0.000000 
#    z 0.000000 0.000000 1.766890 
# 
# From -- ./inp_files/247.got.cif
#   From: 2010.05.17/outbox.cif.g08.bks.cpg/sg41_1_cif.got.tgz:247.got - 2010.06.03 18:54:24.
