data_PCOD9365443
_publ_section_title
;
Structure prediction by ZEFSAII (Michael W. Deem and Ramdas Pophale) SiO2 
 PCOD9365443
Probable space group: A M A 2
;
_chemical_formula_sum "Si O2"
_cell_formula_units_Z 40
_cell_length_a 9.789450
_cell_length_b 8.855213
_cell_length_c 22.778002
_cell_angle_alpha 90.000000
_cell_angle_beta 90.000000
_cell_angle_gamma 90.000000
_cell_volume 1974.571805
_symmetry_space_group_name_H-M "A M A 2"
_symmetry_group_IT_number 40
_symmetry_cell_setting 'orthorhombic'
loop_
_space_group_symop_operation_xyz
x,y,z
-x,-y,z
1/2-x,y,z
1/2+x,-y,z
x,1/2+y,1/2+z
-x,1/2-y,1/2+z
1/2-x,1/2+y,1/2+z
1/2+x,1/2-y,1/2+z
loop_
_atom_site_type_symbol
_atom_site_label
_atom_site_fract_x
_atom_site_fract_y
_atom_site_fract_z
Si Si1 0.250000 0.231813 0.945281
Si Si2 0.028054 0.176887 0.045298
Si Si3 0.029028 0.161709 0.295311
Si Si4 0.750000 0.144134 0.606872
Si Si5 0.250000 0.162470 0.822541
Si Si6 0.250000 0.571033 0.892678
Si Si7 0.250000 0.150762 0.526212
Si Si8 0.750000 0.626049 0.239552
O O1 0.250000 0.116621 0.891035
O O2 0.250000 0.394950 0.912816
O O3 0.118083 0.208852 0.986480
O O4 0.120035 0.249262 0.096163
O O5 0.886184 0.263720 0.044333
O O6 0.000000 0.000000 0.050947
O O7 0.119787 0.118831 0.353138
O O8 0.119634 0.271549 0.255801
O O9 0.886997 0.241930 0.310483
O O10 0.000000 0.000000 0.266019
O O11 0.750000 0.079517 0.671887
O O12 0.750000 0.013609 0.557113
O O13 0.250000 0.017826 0.781391
O O14 0.250000 0.648505 0.955725
#
# Coordination Sequence:
#
# PCOD9365443 Si02
#       8
#     4   8   8   4   4   4   4   4
#     4  11  22  42  66 102 148 175 214 272 342 417
#     4  11  25  43  67 103 137 173 224 281 347 400
#     4  11  23  43  67  96 133 179 229 270 330 411
#     4  11  26  48  69  92 132 183 235 279 340 407
#     4  12  23  40  67  99 139 179 219 283 337 394
#     4  11  22  40  68 102 138 175 224 260 330 420
#     4  12  23  39  73 100 133 179 222 277 334 406
#     4  11  28  47  65  97 134 179 232 289 341 392
#
# _framework density 20.257556999999998
#
# number of rings (size 3 to 8) (size 9 to 14) (size 15 to 20)
#    0.000    0.800    4.000    4.200    0.000    8.800 
#    0.000    2.000    0.000    0.000    0.000    0.000 
#    0.000    0.000    0.000    0.000    0.000    0.000 
#
# Total GULP energy -111819.320683 kJ/mol
# GULP energy per Si atom -5590.966034 kJ/mol
# Density = 2.021145 g / cm^3
# Si number density = 20.257557 Si / 1000 Ang^3
#
#
#
# Elastic Constant Matrix: (Units=GPa)
#
#
# Indices 1 2 3 4 5 6 
#
# 1 165.9151 54.4131 20.7099 0.0000 0.0000 0.0000
# 2 54.4131 128.4615 22.5897 0.0000 0.0000 0.0000
# 3 20.7099 22.5897 83.3755 0.0000 0.0000 0.0000
# 4 0.0000 0.0000 0.0000 20.8396 0.0000 0.0000
# 5 0.0000 0.0000 0.0000 0.0000 4.9620 0.0000
# 6 0.0000 0.0000 0.0000 0.0000 0.0000 69.2948
#
#
#
# Elastic Compliance Matrix: (Units=1/GPa)
#
#
# Indices 1 2 3 4 5 6 
#
# 1 0.007077 -0.002823 -0.000993 0.000000 0.000000 0.000000
# 2 -0.002823 0.009300 -0.001819 0.000000 0.000000 0.000000
# 3 -0.000993 -0.001819 0.012733 0.000000 0.000000 0.000000
# 4 0.000000 0.000000 0.000000 0.047986 0.000000 0.000000
# 5 0.000000 0.000000 0.000000 0.000000 0.201534 0.000000
# 6 0.000000 0.000000 0.000000 0.000000 0.000000 0.014431
#
#
# Mechanical properties :
#
#
# Convention : Reuss Voigt Hill
#
# Bulk Modulus (GPa) = 56.05011 63.68639 59.86825
# Shear Modulus (GPa) = 16.11466 37.68857 26.90162
#
# Velocity S-wave (km/s) = 2.82350 4.31800 3.64810
# Velocity P-wave (km/s) = 6.19341 7.50778 6.88204
#
# Compressibility (1/GPa) = 0.01784118
#
# Stress axis : x y z
#
# Youngs Moduli (GPa) = 141.30370 107.52729 78.53427
#
# Poissons Ratio (x) = 0.30355 0.07799
# Poissons Ratio (y) = 0.39890 0.14282
# Poissons Ratio (z) = 0.14032 0.19554
#
# Static dielectric constant tensor:
#      x y z
#    x 1.713300 0.000000 0.000000 
#    y 0.000000 1.729620 0.000000 
#    z 0.000000 0.000000 1.717420 
# 
# From -- ./inp_files/23894.got.cif
#   From: 2010.05.17/outbox.cif.g08.bks.cpg/sg40_12_cif.got.tgz:23894.got - 2010.06.03 18:35:42.
