data_PCOD9365054
_publ_section_title
;
Structure prediction by ZEFSAII (Michael W. Deem and Ramdas Pophale) SiO2 
 PCOD9365054
Probable space group: A M A 2
;
_chemical_formula_sum "Si O2"
_cell_formula_units_Z 48
_cell_length_a 17.964670
_cell_length_b 10.437935
_cell_length_c 11.833011
_cell_angle_alpha 90.000000
_cell_angle_beta 90.000000
_cell_angle_gamma 90.000000
_cell_volume 2218.855908
_symmetry_space_group_name_H-M "A M A 2"
_symmetry_group_IT_number 40
_symmetry_cell_setting 'orthorhombic'
loop_
_space_group_symop_operation_xyz
x,y,z
-x,-y,z
1/2-x,y,z
1/2+x,-y,z
x,1/2+y,1/2+z
-x,1/2-y,1/2+z
1/2-x,1/2+y,1/2+z
1/2+x,1/2-y,1/2+z
loop_
_atom_site_type_symbol
_atom_site_label
_atom_site_fract_x
_atom_site_fract_y
_atom_site_fract_z
Si Si1 0.838256 0.044927 0.737570
Si Si2 0.835678 0.162642 0.294193
Si Si3 0.163728 0.090307 0.959430
Si Si4 0.082872 0.187859 0.609668
Si Si5 0.074271 0.570230 0.886147
Si Si6 0.422395 0.712966 0.656850
O O1 0.750000 0.017867 0.721616
O O2 0.854082 0.023315 0.871077
O O3 0.887931 0.940761 0.671410
O O4 0.859746 0.183368 0.690581
O O5 0.750000 0.146038 0.265527
O O6 0.842214 0.282139 0.380749
O O7 0.879320 0.198570 0.180396
O O8 0.866964 0.038661 0.355764
O O9 0.250000 0.078107 0.995854
O O10 0.109777 0.115385 0.064088
O O11 0.103471 0.168099 0.479607
O O12 0.994919 0.212194 0.614680
O O13 0.054622 0.641214 0.770782
O O14 0.000000 0.500000 0.929861
#
# Coordination Sequence:
#
# PCOD9365054 Si02
#       6
#     8   8   8   8   8   8
#     4  10  22  42  66  96 127 168 227 273 330 401
#     4  10  22  43  68  97 130 170 225 275 331 402
#     4   9  20  40  65  92 129 172 216 275 333 392
#     4  11  23  42  68  94 129 176 222 275 334 398
#     4  12  25  43  62  96 137 175 220 278 333 395
#     4  12  24  39  65  95 132 173 223 275 330 395
#
# _framework density 21.632770000000001
#
# number of rings (size 3 to 8) (size 9 to 14) (size 15 to 20)
#    0.000    1.333    1.667    5.500    2.333    5.333 
#    0.000    1.667    0.000    0.000    0.000    0.000 
#    0.000    0.000    0.000    0.000    0.000    0.000 
#
# Total GULP energy -134220.232471 kJ/mol
# GULP energy per Si atom -5592.509686 kJ/mol
# Density = 2.158353 g / cm^3
# Si number density = 21.632770 Si / 1000 Ang^3
#
#
#
# Elastic Constant Matrix: (Units=GPa)
#
#
# Indices 1 2 3 4 5 6 
#
# 1 76.0913 6.7197 42.3135 0.0000 0.0000 0.0000
# 2 6.7197 22.7792 11.6446 0.0000 0.0000 0.0000
# 3 42.3135 11.6446 121.3441 0.0000 0.0000 0.0000
# 4 0.0000 0.0000 0.0000 28.1417 0.0000 0.0000
# 5 0.0000 0.0000 0.0000 0.0000 17.6409 0.0000
# 6 0.0000 0.0000 0.0000 0.0000 0.0000 2.7886
#
#
#
# Elastic Compliance Matrix: (Units=1/GPa)
#
#
# Indices 1 2 3 4 5 6 
#
# 1 0.016391 -0.002012 -0.005522 0.000000 0.000000 0.000000
# 2 -0.002012 0.046411 -0.003752 0.000000 0.000000 0.000000
# 3 -0.005522 -0.003752 0.010527 0.000000 0.000000 0.000000
# 4 0.000000 0.000000 0.000000 0.035534 0.000000 0.000000
# 5 0.000000 0.000000 0.000000 0.000000 0.056686 0.000000
# 6 0.000000 0.000000 0.000000 0.000000 0.000000 0.358600
#
#
# Mechanical properties :
#
#
# Convention : Reuss Voigt Hill
#
# Bulk Modulus (GPa) = 19.70231 37.95225 28.82728
# Shear Modulus (GPa) = 8.87088 20.35003 14.61046
#
# Velocity S-wave (km/s) = 2.02721 3.07042 2.60164
# Velocity P-wave (km/s) = 3.82189 5.49107 4.73068
#
# Compressibility (1/GPa) = 0.05075547
#
# Stress axis : x y z
#
# Youngs Moduli (GPa) = 61.00985 21.54644 94.99535
#
# Poissons Ratio (x) = 0.04335 0.52461
# Poissons Ratio (y) = 0.12276 0.35644
# Poissons Ratio (z) = 0.33693 0.08085
#
# Static dielectric constant tensor:
#      x y z
#    x 1.757210 0.000000 0.000000 
#    y 0.000000 1.780000 0.000000 
#    z 0.000000 0.000000 1.793390 
# 
# From -- ./inp_files/12925.got.cif
#   From: 2010.05.17/outbox.cif.g08.bks.cpg/sg40_7_cif.got.tgz:12925.got - 2010.06.03 18:35:42.
