data_PCOD9365962
_publ_section_title
;
Structure prediction by ZEFSAII (Michael W. Deem and Ramdas Pophale) SiO2 
 PCOD9365962
Probable space group: A B A 2
;
_chemical_formula_sum "Si O2"
_cell_formula_units_Z 64
_cell_length_a 10.286046
_cell_length_b 18.138713
_cell_length_c 17.129424
_cell_angle_alpha 90.000000
_cell_angle_beta 90.000000
_cell_angle_gamma 90.000000
_cell_volume 3195.933182
_symmetry_space_group_name_H-M "A B A 2"
_symmetry_group_IT_number 41
_symmetry_cell_setting 'orthorhombic'
loop_
_space_group_symop_operation_xyz
x,y,z
-x,-y,z
1/2-x,y,1/2+z
1/2+x,-y,1/2+z
x,1/2+y,1/2+z
-x,1/2-y,1/2+z
1/2-x,1/2+y,z
1/2+x,1/2-y,z
loop_
_atom_site_type_symbol
_atom_site_label
_atom_site_fract_x
_atom_site_fract_y
_atom_site_fract_z
Si Si1 0.787163 0.422047 0.278940
Si Si2 0.504536 0.080818 0.769187
Si Si3 0.557333 0.183059 0.914891
Si Si4 0.730900 0.802471 0.885276
Si Si5 0.435808 0.923950 0.048811
Si Si6 0.765952 0.569496 0.197060
Si Si7 0.911560 0.816161 0.661543
Si Si8 0.831662 0.238484 0.713658
O O1 0.642881 0.407207 0.242242
O O2 0.770814 0.387157 0.364974
O O3 0.810841 0.507275 0.259321
O O4 0.890583 0.372018 0.234234
O O5 0.550668 0.142083 0.830717
O O6 0.610159 0.072219 0.701874
O O7 0.500000 0.000000 0.810069
O O8 0.404819 0.200249 0.931519
O O9 0.649078 0.254307 0.915081
O O10 0.611401 0.124306 0.976552
O O11 0.695462 0.767836 0.800299
O O12 0.327748 0.945593 0.112956
O O13 0.536861 0.869218 0.093570
O O14 0.500000 0.000000 0.022588
O O15 0.811056 0.651033 0.217681
O O16 0.774160 0.774473 0.655696
O O17 0.021132 0.755940 0.683266
#
# Coordination Sequence:
#
# PCOD9365962 Si02
#       8
#     8   8   8   8   8   8   8   8
#     4   9  18  33  60  89 124 151 204 264 314 354
#     4   9  18  34  59  93 116 157 204 266 312 366
#     4  11  22  37  61  86 127 163 210 252 318 387
#     4  10  20  37  60  90 121 161 203 265 308 372
#     4  11  23  40  60  86 124 172 211 255 320 393
#     4  10  19  35  59  92 121 157 208 257 312 370
#     4  10  21  35  56  87 122 159 200 260 314 369
#     4  10  20  33  60  89 121 149 204 262 311 360
#
# _framework density 20.025448999999998
#
# number of rings (size 3 to 8) (size 9 to 14) (size 15 to 20)
#    0.000    2.000    2.500    1.875    3.500    2.000 
#    0.000    0.000    2.750    0.000    0.000    2.625 
#    0.000    0.000    0.000    0.000    0.000    0.000 
#
# Total GULP energy -178279.107434 kJ/mol
# GULP energy per Si atom -5571.222107 kJ/mol
# Density = 1.997987 g / cm^3
# Si number density = 20.025449 Si / 1000 Ang^3
#
#
#
# Elastic Constant Matrix: (Units=GPa)
#
#
# Indices 1 2 3 4 5 6 
#
# 1 94.3144 25.3663 21.0587 0.0000 0.0000 0.0000
# 2 25.3663 92.4504 16.8778 0.0000 0.0000 0.0000
# 3 21.0587 16.8778 33.4646 0.0000 0.0000 0.0000
# 4 0.0000 0.0000 0.0000 27.5909 0.0000 0.0000
# 5 0.0000 0.0000 0.0000 0.0000 6.3503 0.0000
# 6 0.0000 0.0000 0.0000 0.0000 0.0000 30.1908
#
#
#
# Elastic Compliance Matrix: (Units=1/GPa)
#
#
# Indices 1 2 3 4 5 6 
#
# 1 0.012743 -0.002239 -0.006890 0.000000 0.000000 0.000000
# 2 -0.002239 0.012307 -0.004798 0.000000 0.000000 0.000000
# 3 -0.006890 -0.004798 0.036638 0.000000 0.000000 0.000000
# 4 0.000000 0.000000 0.000000 0.036244 0.000000 0.000000
# 5 0.000000 0.000000 0.000000 0.000000 0.157472 0.000000
# 6 0.000000 0.000000 0.000000 0.000000 0.000000 0.033123
#
#
# Mechanical properties :
#
#
# Convention : Reuss Voigt Hill
#
# Bulk Modulus (GPa) = 29.55574 38.53722 34.04648
# Shear Modulus (GPa) = 15.25977 23.28818 19.27397
#
# Velocity S-wave (km/s) = 2.76346 3.41387 3.10574
# Velocity P-wave (km/s) = 4.99734 5.90130 5.46803
#
# Compressibility (1/GPa) = 0.03383438
#
# Stress axis : x y z
#
# Youngs Moduli (GPa) = 78.47216 81.25597 27.29403
#
# Poissons Ratio (x) = 0.18190 0.18806
# Poissons Ratio (y) = 0.17567 0.13096
# Poissons Ratio (z) = 0.54068 0.38988
#
# Static dielectric constant tensor:
#      x y z
#    x 1.772630 0.000000 0.000000 
#    y 0.000000 1.788620 0.000000 
#    z 0.000000 0.000000 1.704830 
# 
# From -- ./inp_files/9828.got.cif
#   From: 2010.05.17/outbox.cif.g08.bks.cpg/sg41_5_cif.got.tgz:9828.got - 2010.06.03 18:54:24.
