data_PCOD9365548
_publ_section_title
;
Structure prediction by ZEFSAII (Michael W. Deem and Ramdas Pophale) SiO2 
 PCOD9365548
Probable space group: A M A 2
;
_chemical_formula_sum "Si O2"
_cell_formula_units_Z 40
_cell_length_a 17.436815
_cell_length_b 11.342925
_cell_length_c 8.737792
_cell_angle_alpha 90.000000
_cell_angle_beta 90.000000
_cell_angle_gamma 90.000000
_cell_volume 1728.199689
_symmetry_space_group_name_H-M "A M A 2"
_symmetry_group_IT_number 40
_symmetry_cell_setting 'orthorhombic'
loop_
_space_group_symop_operation_xyz
x,y,z
-x,-y,z
1/2-x,y,z
1/2+x,-y,z
x,1/2+y,1/2+z
-x,1/2-y,1/2+z
1/2-x,1/2+y,1/2+z
1/2+x,1/2-y,1/2+z
loop_
_atom_site_type_symbol
_atom_site_label
_atom_site_fract_x
_atom_site_fract_y
_atom_site_fract_z
Si Si1 0.920311 0.297905 0.344980
Si Si2 0.750000 0.892958 0.795362
Si Si3 0.500000 0.000000 0.053063
Si Si4 0.878169 0.943948 0.294281
Si Si5 0.750000 0.561441 0.000460
Si Si6 0.505924 0.364189 0.044489
Si Si7 0.250000 0.170416 0.106429
O O1 0.832693 0.325850 0.294503
O O2 0.966905 0.287950 0.187034
O O3 0.963646 0.401632 0.440832
O O4 0.932459 0.190363 0.461710
O O5 0.750000 0.987677 0.659982
O O6 0.750000 0.930187 0.973832
O O7 0.570570 0.017216 0.173405
O O8 0.821009 0.020506 0.396593
O O9 0.931823 0.872479 0.409990
O O10 0.825418 0.852372 0.203489
O O11 0.750000 0.698945 0.039168
O O12 0.500000 0.500000 0.096417
#
# Coordination Sequence:
#
# PCOD9365548 Si02
#       7
#     8   4   4   8   4   8   4
#     4  12  28  48  80 116 160 205 266 328 397 470
#     4  12  26  48  78 118 152 208 264 316 402 475
#     4  12  24  48  78 116 158 202 268 324 388 472
#     4  11  25  48  74 113 153 198 261 316 391 473
#     4  11  27  51  80 106 162 206 247 330 402 468
#     4  12  27  48  79 113 154 205 263 327 390 466
#     4  11  27  47  74 112 156 200 257 324 394 479
#
# _framework density 23.145472000000002
#
# number of rings (size 3 to 8) (size 9 to 14) (size 15 to 20)
#    0.000    0.400    6.000    1.200    2.800    1.600 
#    0.000    2.000    0.000    0.000    0.000    0.000 
#    0.000    0.000    0.000    0.000    0.000    0.000 
#
# Total GULP energy -111726.111237 kJ/mol
# GULP energy per Si atom -5586.305562 kJ/mol
# Density = 2.309279 g / cm^3
# Si number density = 23.145472 Si / 1000 Ang^3
#
#
#
# Elastic Constant Matrix: (Units=GPa)
#
#
# Indices 1 2 3 4 5 6 
#
# 1 151.7053 53.0677 67.2559 0.0000 0.0000 0.0000
# 2 53.0677 116.9150 52.0089 0.0000 0.0000 0.0000
# 3 67.2559 52.0089 166.4580 0.0000 0.0000 0.0000
# 4 0.0000 0.0000 0.0000 36.9929 0.0000 0.0000
# 5 0.0000 0.0000 0.0000 0.0000 14.9771 0.0000
# 6 0.0000 0.0000 0.0000 0.0000 0.0000 35.7665
#
#
#
# Elastic Compliance Matrix: (Units=1/GPa)
#
#
# Indices 1 2 3 4 5 6 
#
# 1 0.008747 -0.002785 -0.002664 0.000000 0.000000 0.000000
# 2 -0.002785 0.010821 -0.002256 0.000000 0.000000 0.000000
# 3 -0.002664 -0.002256 0.007789 0.000000 0.000000 0.000000
# 4 0.000000 0.000000 0.000000 0.027032 0.000000 0.000000
# 5 0.000000 0.000000 0.000000 0.000000 0.066769 0.000000
# 6 0.000000 0.000000 0.000000 0.000000 0.000000 0.027959
#
#
# Mechanical properties :
#
#
# Convention : Reuss Voigt Hill
#
# Bulk Modulus (GPa) = 83.70307 86.63814 85.17060
# Shear Modulus (GPa) = 29.67216 35.06369 32.36793
#
# Velocity S-wave (km/s) = 3.58437 3.89643 3.74365
# Velocity P-wave (km/s) = 7.30566 7.59975 7.45415
#
# Compressibility (1/GPa) = 0.01194699
#
# Stress axis : x y z
#
# Youngs Moduli (GPa) = 114.32449 92.41447 128.39296
#
# Poissons Ratio (x) = 0.25740 0.34203
# Poissons Ratio (y) = 0.31842 0.28960
# Poissons Ratio (z) = 0.30455 0.20845
#
# Static dielectric constant tensor:
#      x y z
#    x 1.976810 0.000000 0.000000 
#    y 0.000000 1.946140 0.000000 
#    z 0.000000 0.000000 1.850250 
# 
# From -- ./inp_files/7188.got.cif
#   From: 2010.05.17/outbox.cif.g08.bks.cpg/sg40_4_cif.got.tgz:7188.got - 2010.06.03 18:35:42.
