data_PCOD9365486
_publ_section_title
;
Structure prediction by ZEFSAII (Michael W. Deem and Ramdas Pophale) SiO2 
 PCOD9365486
Probable space group: A M A 2
;
_chemical_formula_sum "Si O2"
_cell_formula_units_Z 40
_cell_length_a 23.229294
_cell_length_b 8.974780
_cell_length_c 9.177552
_cell_angle_alpha 90.000000
_cell_angle_beta 90.000000
_cell_angle_gamma 90.000000
_cell_volume 1913.315880
_symmetry_space_group_name_H-M "A M A 2"
_symmetry_group_IT_number 40
_symmetry_cell_setting 'orthorhombic'
loop_
_space_group_symop_operation_xyz
x,y,z
-x,-y,z
1/2-x,y,z
1/2+x,-y,z
x,1/2+y,1/2+z
-x,1/2-y,1/2+z
1/2-x,1/2+y,1/2+z
1/2+x,1/2-y,1/2+z
loop_
_atom_site_type_symbol
_atom_site_label
_atom_site_fract_x
_atom_site_fract_y
_atom_site_fract_z
Si Si1 0.867109 0.918570 0.780200
Si Si2 0.557306 0.578315 0.053742
Si Si3 0.943571 0.918490 0.056489
Si Si4 0.750000 0.423706 0.682224
Si Si5 0.750000 0.079733 0.834117
Si Si6 0.866305 0.579518 0.778535
O O1 0.856755 0.749666 0.731485
O O2 0.918894 0.989149 0.690083
O O3 0.808815 0.011089 0.773372
O O4 0.891123 0.916889 0.943588
O O5 0.500000 0.500000 0.994597
O O6 0.542611 0.748023 0.092310
O O7 0.610831 0.578112 0.942822
O O8 0.919247 0.008787 0.191634
O O9 0.000000 0.000000 0.997669
O O10 0.750000 0.250518 0.756027
O O11 0.750000 0.500434 0.508911
O O12 0.808339 0.490342 0.749029
#
# Coordination Sequence:
#
# PCOD9365486 Si02
#       6
#     8   8   8   4   4   8
#     4  11  25  44  70  99 141 183 238 298 365 439
#     4  11  25  42  67 104 139 184 238 299 362 442
#     4  11  23  42  67  97 139 182 235 293 362 436
#     4  12  27  47  76 107 144 196 242 308 379 454
#     4  12  27  47  76 105 148 190 248 304 381 452
#     4  11  25  44  70 101 139 184 240 292 370 436
#
# _framework density 20.906113999999999
#
# number of rings (size 3 to 8) (size 9 to 14) (size 15 to 20)
#    0.000    0.800    2.000    4.200    5.600    8.800 
#    0.000    0.000    0.000    0.000    0.000    0.000 
#    0.000    0.000    0.000    0.000    0.000    0.000 
#
# Total GULP energy -111377.263451 kJ/mol
# GULP energy per Si atom -5568.863173 kJ/mol
# Density = 2.085853 g / cm^3
# Si number density = 20.906114 Si / 1000 Ang^3
#
#
#
# Elastic Constant Matrix: (Units=GPa)
#
#
# Indices 1 2 3 4 5 6 
#
# 1 127.7844 59.9009 0.0136 0.0000 0.0000 0.0000
# 2 59.9009 186.4949 27.8896 0.0000 0.0000 0.0000
# 3 0.0136 27.8896 52.6964 0.0000 0.0000 0.0000
# 4 0.0000 0.0000 0.0000 17.0683 0.0000 0.0000
# 5 0.0000 0.0000 0.0000 0.0000 22.3256 0.0000
# 6 0.0000 0.0000 0.0000 0.0000 0.000012273.4418
#
#
#
# Elastic Compliance Matrix: (Units=1/GPa)
#
#
# Indices 1 2 3 4 5 6 
#
# 1 0.009355 -0.003263 0.001724 0.000000 0.000000 0.000000
# 2 -0.003263 0.006961 -0.003683 0.000000 0.000000 0.000000
# 3 0.001724 -0.003683 0.020926 0.000000 0.000000 0.000000
# 4 0.000000 0.000000 0.000000 0.058588 0.000000 0.000000
# 5 0.000000 0.000000 0.000000 0.000000 0.044792 0.000000
# 6 0.000000 0.000000 0.000000 0.000000 0.000000 0.000081
#
#
# Mechanical properties :
#
#
# Convention : Reuss Voigt Hill
#
# Bulk Modulus (GPa) = 37.31579 60.28709 48.80144
# Shear Modulus (GPa) = 31.23475 2481.17857 1256.20666
#
# Velocity S-wave (km/s) = 3.86949 34.48762 24.53945
# Velocity P-wave (km/s) = 6.15239 40.18409 28.74555
#
# Compressibility (1/GPa) = 0.02679830
#
# Stress axis : x y z
#
# Youngs Moduli (GPa) = 106.89598 143.66156 47.78856
#
# Poissons Ratio (x) = 0.46871 -0.08240
# Poissons Ratio (y) = 0.34876 0.17601
# Poissons Ratio (z) = -0.18432 0.52913
#
# Static dielectric constant tensor:
#      x y z
#    x 1.688990 0.000000 0.000000 
#    y 0.000000 1.778300 0.000000 
#    z 0.000000 0.000000 1.821130 
# 
# From -- ./inp_files/8610.got.cif
#   From: 2010.05.17/outbox.cif.g08.bks.cpg/sg40_5_cif.got.tgz:8610.got - 2010.06.03 18:35:42.
