data_PCOD9365244
_publ_section_title
;
Structure prediction by ZEFSAII (Michael W. Deem and Ramdas Pophale) SiO2 
 PCOD9365244
Probable space group: A M A 2
;
_chemical_formula_sum "Si O2"
_cell_formula_units_Z 56
_cell_length_a 18.721409
_cell_length_b 9.317273
_cell_length_c 12.816738
_cell_angle_alpha 90.000000
_cell_angle_beta 90.000000
_cell_angle_gamma 90.000000
_cell_volume 2235.655377
_symmetry_space_group_name_H-M "A M A 2"
_symmetry_group_IT_number 40
_symmetry_cell_setting 'orthorhombic'
loop_
_space_group_symop_operation_xyz
x,y,z
-x,-y,z
1/2-x,y,z
1/2+x,-y,z
x,1/2+y,1/2+z
-x,1/2-y,1/2+z
1/2-x,1/2+y,1/2+z
1/2+x,1/2-y,1/2+z
loop_
_atom_site_type_symbol
_atom_site_label
_atom_site_fract_x
_atom_site_fract_y
_atom_site_fract_z
Si Si1 0.172734 0.107398 0.750000
Si Si2 0.976524 0.162380 0.562865
Si Si3 0.166970 0.184812 0.382366
Si Si4 0.069935 0.935912 0.352410
Si Si5 0.086335 0.982024 0.937018
Si Si6 0.890648 0.158333 0.136124
Si Si7 0.674291 0.713701 0.157488
O O1 0.250000 0.150304 0.793200
O O2 0.114271 0.373895 0.758512
O O3 0.118793 0.088761 0.849232
O O4 0.176904 0.944960 0.708203
O O5 0.033221 0.272593 0.607501
O O6 0.898818 0.209070 0.597427
O O7 0.969197 0.159784 0.438371
O O8 0.000000 0.000000 0.595639
O O9 0.250000 0.195215 0.417066
O O10 0.121455 0.045558 0.413925
O O11 0.118717 0.324006 0.407799
O O12 0.169754 0.181259 0.256421
O O13 0.159300 0.201052 0.644159
O O14 0.000000 0.000000 0.295790
O O15 0.116306 0.975015 0.057158
O O16 0.000000 0.000000 0.935768
O O17 0.750000 0.738649 0.101182
#
# Coordination Sequence:
#
# PCOD9365244 Si02
#       7
#     8   8   8   8   8   8   8
#     4  10  24  43  69 107 143 190 248 308 377 456
#     4  11  22  39  66 101 132 183 245 308 372 442
#     4  10  23  45  71 102 145 196 247 310 380 457
#     4  11  25  43  66 100 143 187 247 303 377 455
#     4  11  25  44  76 110 142 198 254 312 386 456
#     4  12  26  44  71 106 148 194 245 317 381 452
#     4   9  19  38  65  95 133 183 239 296 363 446
#
# _framework density 25.048586
#
# number of rings (size 3 to 8) (size 9 to 14) (size 15 to 20)
#    0.000    1.429    1.429    4.286    8.000    2.286 
#    0.000    0.000    0.000    0.000    0.000    0.000 
#    0.000    0.000    0.000    0.000    0.000    0.000 
#
# Total GULP energy -156162.932115 kJ/mol
# GULP energy per Si atom -5577.247576 kJ/mol
# Density = 2.499157 g / cm^3
# Si number density = 25.048586 Si / 1000 Ang^3
#
#
#
# Elastic Constant Matrix: (Units=GPa)
#
#
# Indices 1 2 3 4 5 6 
#
# 1 144.7599 41.1548 36.2898 0.0000 0.0000 0.0000
# 2 41.1548 77.8889 27.2161 0.0000 0.0000 0.0000
# 3 36.2898 27.2161 85.3111 0.0000 0.0000 0.0000
# 4 0.0000 0.0000 0.0000 39.5175 0.0000 0.0000
# 5 0.0000 0.0000 0.0000 0.0000 42.4170 0.0000
# 6 0.0000 0.0000 0.0000 0.0000 0.0000 0.2459
#
#
#
# Elastic Compliance Matrix: (Units=1/GPa)
#
#
# Indices 1 2 3 4 5 6 
#
# 1 0.008570 -0.003663 -0.002477 0.000000 0.000000 0.000000
# 2 -0.003663 0.016015 -0.003551 0.000000 0.000000 0.000000
# 3 -0.002477 -0.003551 0.013908 0.000000 0.000000 0.000000
# 4 0.000000 0.000000 0.000000 0.025305 0.000000 0.000000
# 5 0.000000 0.000000 0.000000 0.000000 0.023575 0.000000
# 6 0.000000 0.000000 0.000000 0.000000 0.000000 4.067398
#
#
# Mechanical properties :
#
#
# Convention : Reuss Voigt Hill
#
# Bulk Modulus (GPa) = 52.32395 57.47569 54.89982
# Shear Modulus (GPa) = 1.19602 29.98935 15.59268
#
# Velocity S-wave (km/s) = 0.69175 3.46388 2.49770
# Velocity P-wave (km/s) = 4.64460 6.24447 5.50299
#
# Compressibility (1/GPa) = 0.01911171
#
# Stress axis : x y z
#
# Youngs Moduli (GPa) = 116.68206 62.44167 71.89906
#
# Poissons Ratio (x) = 0.22871 0.17810
# Poissons Ratio (y) = 0.42738 0.25532
# Poissons Ratio (z) = 0.28904 0.22173
#
# Static dielectric constant tensor:
#      x y z
#    x 1.920880 0.000000 0.000000 
#    y 0.000000 2.221080 0.000000 
#    z 0.000000 0.000000 2.079540 
# 
# From -- ./inp_files/21167.got.cif
#   From: 2010.05.17/outbox.cif.g08.bks.cpg/sg40_11_cif.got.tgz:21167.got - 2010.06.03 18:35:42.
