data_PCOD9365784
_publ_section_title
;
Structure prediction by ZEFSAII (Michael W. Deem and Ramdas Pophale) SiO2 
 PCOD9365784
Probable space group: A B A 2
;
_chemical_formula_sum "Si O2"
_cell_formula_units_Z 52
_cell_length_a 19.553199
_cell_length_b 8.390132
_cell_length_c 15.217204
_cell_angle_alpha 90.000000
_cell_angle_beta 90.000000
_cell_angle_gamma 90.000000
_cell_volume 2496.441977
_symmetry_space_group_name_H-M "A B A 2"
_symmetry_group_IT_number 41
_symmetry_cell_setting 'orthorhombic'
loop_
_space_group_symop_operation_xyz
x,y,z
-x,-y,z
1/2-x,y,1/2+z
1/2+x,-y,1/2+z
x,1/2+y,1/2+z
-x,1/2-y,1/2+z
1/2-x,1/2+y,z
1/2+x,1/2-y,z
loop_
_atom_site_type_symbol
_atom_site_label
_atom_site_fract_x
_atom_site_fract_y
_atom_site_fract_z
Si Si1 0.369268 0.956632 0.401240
Si Si2 0.603082 0.682650 0.391636
Si Si3 0.000000 0.500000 0.016769
Si Si4 0.656712 0.572801 0.212598
Si Si5 0.612699 0.768170 0.048423
Si Si6 0.294614 0.746041 0.271841
Si Si7 0.778579 0.965012 0.449417
O O1 0.408014 0.825935 0.459196
O O2 0.345596 0.880530 0.308877
O O3 0.299618 0.986736 0.458061
O O4 0.402005 0.127863 0.388220
O O5 0.546159 0.607619 0.453009
O O6 0.606436 0.607003 0.294593
O O7 0.675326 0.621746 0.433031
O O8 0.947289 0.391651 0.070265
O O9 0.625805 0.645942 0.125532
O O10 0.673863 0.385321 0.207174
O O11 0.726844 0.669521 0.235569
O O12 0.681751 0.866140 0.023591
O O13 0.280496 0.639210 0.359431
#
# Coordination Sequence:
#
# PCOD9365784 Si02
#       7
#     8   8   4   8   8   8   8
#     4  11  18  37  61  94 115 162 192 250 305 398
#     4  10  19  38  68  79 120 160 211 240 306 359
#     4  10  24  48  56  82 112 182 218 262 278 382
#     4  11  20  37  57  95 120 158 182 267 308 369
#     4  10  24  36  60  86 129 153 212 250 315 343
#     4  10  18  32  59  90 131 144 194 229 321 391
#     4   9  17  35  59  92 121 156 185 246 301 395
#
# _framework density 20.829643999999998
#
# number of rings (size 3 to 8) (size 9 to 14) (size 15 to 20)
#    0.000    1.846    4.615    1.846    2.154    0.615 
#    0.000    4.615    0.000    0.000    0.000    0.000 
#    0.000    0.000    0.000    0.000    0.000    0.000 
#
# Total GULP energy -145185.621677 kJ/mol
# GULP energy per Si atom -5584.062372 kJ/mol
# Density = 2.078223 g / cm^3
# Si number density = 20.829644 Si / 1000 Ang^3
#
#
#
# Elastic Constant Matrix: (Units=GPa)
#
#
# Indices 1 2 3 4 5 6 
#
# 1 47.3955 25.6683 9.4229 0.0000 0.0000 0.0000
# 2 25.6683 121.7319 8.4510 0.0000 0.0000 0.0000
# 3 9.4229 8.4510 43.3710 0.0000 0.0000 0.0000
# 4 0.0000 0.0000 0.0000 25.1362 0.0000 0.0000
# 5 0.0000 0.0000 0.0000 0.0000 10.5244 0.0000
# 6 0.0000 0.0000 0.0000 0.0000 0.0000 26.7743
#
#
#
# Elastic Compliance Matrix: (Units=1/GPa)
#
#
# Indices 1 2 3 4 5 6 
#
# 1 0.024619 -0.004886 -0.004397 0.000000 0.000000 0.000000
# 2 -0.004886 0.009297 -0.000750 0.000000 0.000000 0.000000
# 3 -0.004397 -0.000750 0.024158 0.000000 0.000000 0.000000
# 4 0.000000 0.000000 0.000000 0.039783 0.000000 0.000000
# 5 0.000000 0.000000 0.000000 0.000000 0.095018 0.000000
# 6 0.000000 0.000000 0.000000 0.000000 0.000000 0.037349
#
#
# Mechanical properties :
#
#
# Convention : Reuss Voigt Hill
#
# Bulk Modulus (GPa) = 26.30953 33.28699 29.79826
# Shear Modulus (GPa) = 19.01428 23.75072 21.38250
#
# Velocity S-wave (km/s) = 3.02461 3.38040 3.20744
# Velocity P-wave (km/s) = 4.98557 5.59030 5.29657
#
# Compressibility (1/GPa) = 0.03800904
#
# Stress axis : x y z
#
# Youngs Moduli (GPa) = 40.61848 107.56051 41.39366
#
# Poissons Ratio (x) = 0.52554 0.18200
# Poissons Ratio (y) = 0.19846 0.03105
# Poissons Ratio (z) = 0.17859 0.08067
#
# Static dielectric constant tensor:
#      x y z
#    x 1.774500 0.000000 0.000000 
#    y 0.000000 1.785510 0.000000 
#    z 0.000000 0.000000 1.743860 
# 
# From -- ./inp_files/8972.got.cif
#   From: 2010.05.17/outbox.cif.g08.bks.cpg/sg41_5_cif.got.tgz:8972.got - 2010.06.03 18:54:24.
