data_PCOD9365305
_publ_section_title
;
Structure prediction by ZEFSAII (Michael W. Deem and Ramdas Pophale) SiO2 
 PCOD9365305
Probable space group: A M A 2
;
_chemical_formula_sum "Si O2"
_cell_formula_units_Z 48
_cell_length_a 24.588049
_cell_length_b 11.383577
_cell_length_c 7.282067
_cell_angle_alpha 90.000000
_cell_angle_beta 90.000000
_cell_angle_gamma 90.000000
_cell_volume 2038.250182
_symmetry_space_group_name_H-M "A M A 2"
_symmetry_group_IT_number 40
_symmetry_cell_setting 'orthorhombic'
loop_
_space_group_symop_operation_xyz
x,y,z
-x,-y,z
1/2-x,y,z
1/2+x,-y,z
x,1/2+y,1/2+z
-x,1/2-y,1/2+z
1/2-x,1/2+y,1/2+z
1/2+x,1/2-y,1/2+z
loop_
_atom_site_type_symbol
_atom_site_label
_atom_site_fract_x
_atom_site_fract_y
_atom_site_fract_z
Si Si1 0.631672 0.623711 0.609180
Si Si2 0.031583 0.879458 0.389588
Si Si3 0.115085 0.541382 0.282707
Si Si4 0.311670 0.606895 0.597213
Si Si5 0.185558 0.638634 0.006740
Si Si6 0.000997 0.373973 0.287055
O O1 0.584148 0.619920 0.759724
O O2 0.608541 0.575603 0.411110
O O3 0.679719 0.530612 0.645031
O O4 0.659621 0.747708 0.597439
O O5 0.997913 0.756989 0.365814
O O6 0.039644 0.882814 0.609624
O O7 0.000000 0.000000 0.345657
O O8 0.145688 0.623626 0.435111
O O9 0.061647 0.610645 0.219694
O O10 0.154789 0.531498 0.108288
O O11 0.250000 0.632356 0.541401
O O12 0.324961 0.661999 0.791879
O O13 0.250000 0.626592 0.030666
O O14 0.000000 0.500000 0.397526
#
# Coordination Sequence:
#
# PCOD9365305 Si02
#       6
#     8   8   8   8   8   8
#     4  10  24  44  70  98 142 183 236 293 355 428
#     4  11  27  45  70 101 140 190 247 298 359 427
#     4  10  24  45  69  99 140 185 233 292 356 427
#     4   9  22  43  69 102 141 176 227 290 354 428
#     4  11  22  43  74 106 140 182 233 292 360 433
#     4  11  27  46  69 102 140 190 246 297 362 427
#
# _framework density 23.549610999999999
#
# number of rings (size 3 to 8) (size 9 to 14) (size 15 to 20)
#    1.000    0.667    1.667    1.000    9.333    0.000 
#    9.000    0.000    0.000    0.000    0.000    0.000 
#    0.000    0.000    0.000    0.000    0.000    0.000 
#
# Total GULP energy -133664.470142 kJ/mol
# GULP energy per Si atom -5569.352923 kJ/mol
# Density = 2.349601 g / cm^3
# Si number density = 23.549611 Si / 1000 Ang^3
#
#
#
# Elastic Constant Matrix: (Units=GPa)
#
#
# Indices 1 2 3 4 5 6 
#
# 1 30.9582 -8.2695 28.6229 0.0000 0.0000 0.0000
# 2 -8.2695 120.2448 13.6318 0.0000 0.0000 0.0000
# 3 28.6229 13.6318 105.7205 0.0000 0.0000 0.0000
# 4 0.0000 0.0000 0.0000 34.0189 0.0000 0.0000
# 5 0.0000 0.0000 0.0000 0.0000 45.5883 0.0000
# 6 0.0000 0.0000 0.0000 0.0000 0.0000 5.5049
#
#
#
# Elastic Compliance Matrix: (Units=1/GPa)
#
#
# Indices 1 2 3 4 5 6 
#
# 1 0.045452 0.004588 -0.012897 0.000000 0.000000 0.000000
# 2 0.004588 0.008903 -0.002390 0.000000 0.000000 0.000000
# 3 -0.012897 -0.002390 0.013259 0.000000 0.000000 0.000000
# 4 0.000000 0.000000 0.000000 0.029395 0.000000 0.000000
# 5 0.000000 0.000000 0.000000 0.000000 0.021935 0.000000
# 6 0.000000 0.000000 0.000000 0.000000 0.000000 0.181657
#
#
# Mechanical properties :
#
#
# Convention : Reuss Voigt Hill
#
# Bulk Modulus (GPa) = 21.63821 36.09933 28.86877
# Shear Modulus (GPa) = 14.81902 31.88497 23.35199
#
# Velocity S-wave (km/s) = 2.51124 3.68360 3.15240
# Velocity P-wave (km/s) = 4.19723 5.78396 5.05326
#
# Compressibility (1/GPa) = 0.04621454
#
# Stress axis : x y z
#
# Youngs Moduli (GPa) = 22.00147 112.32361 75.42105
#
# Poissons Ratio (x) = -0.51533 0.97272
# Poissons Ratio (y) = -0.10094 0.18026
# Poissons Ratio (z) = 0.28376 0.26846
#
# Static dielectric constant tensor:
#      x y z
#    x 1.939030 0.000000 0.000000 
#    y 0.000000 2.053140 0.000000 
#    z 0.000000 0.000000 1.920000 
# 
# From -- ./inp_files/8763.got.cif
#   From: 2010.05.17/outbox.cif.g08.bks.cpg/sg40_5_cif.got.tgz:8763.got - 2010.06.03 18:35:42.
