data_PCOD9365728
_publ_section_title
;
Structure prediction by ZEFSAII (Michael W. Deem and Ramdas Pophale) SiO2 
 PCOD9365728
Probable space group: A B A 2
;
_chemical_formula_sum "Si O2"
_cell_formula_units_Z 52
_cell_length_a 7.146751
_cell_length_b 20.629147
_cell_length_c 15.017144
_cell_angle_alpha 90.000000
_cell_angle_beta 90.000000
_cell_angle_gamma 90.000000
_cell_volume 2213.998218
_symmetry_space_group_name_H-M "A B A 2"
_symmetry_group_IT_number 41
_symmetry_cell_setting 'orthorhombic'
loop_
_space_group_symop_operation_xyz
x,y,z
-x,-y,z
1/2-x,y,1/2+z
1/2+x,-y,1/2+z
x,1/2+y,1/2+z
-x,1/2-y,1/2+z
1/2-x,1/2+y,z
1/2+x,1/2-y,z
loop_
_atom_site_type_symbol
_atom_site_label
_atom_site_fract_x
_atom_site_fract_y
_atom_site_fract_z
Si Si1 0.374729 0.799810 0.167060
Si Si2 0.886648 0.604857 0.307295
Si Si3 0.502521 0.103053 0.031215
Si Si4 0.947616 0.073185 0.002402
Si Si5 0.500000 0.500000 0.670760
Si Si6 0.445906 0.152687 0.664661
Si Si7 0.527811 0.922203 0.837026
O O1 0.462765 0.832749 0.255243
O O2 0.480742 0.827564 0.079999
O O3 0.168005 0.830605 0.169156
O O4 0.356502 0.723338 0.169854
O O5 0.987412 0.586727 0.398482
O O6 0.673122 0.613211 0.336019
O O7 0.882817 0.544874 0.237879
O O8 0.722663 0.081581 0.018866
O O9 0.418738 0.053052 0.103074
O O10 0.403953 0.095631 0.936081
O O11 0.061116 0.119524 0.068535
O O12 0.000000 0.000000 0.023419
O O13 0.383449 0.106020 0.746288
O O14 0.500000 0.000000 0.832936
#
# Coordination Sequence:
#
# PCOD9365728 Si02
#       7
#     8   8   8   8   4   8   8
#     4   9  20  39  53  79 106 157 186 226 280 327
#     4   9  19  34  58  78 117 141 176 232 286 322
#     4   9  19  34  58  78 117 141 176 232 286 322
#     4  10  19  36  56  85 110 147 179 231 283 335
#     4  10  16  34  54  80 104 144 176 218 274 340
#     4  10  21  37  55  76 116 149 191 228 276 332
#     4  10  19  36  56  85 110 147 179 231 283 335
#
# _framework density 23.486920000000001
#
# number of rings (size 3 to 8) (size 9 to 14) (size 15 to 20)
#    0.000    2.462    1.538    1.385    0.000    1.231 
#   11.077    0.000    0.000    0.000    0.000    0.000 
#    0.000    0.000    0.000    0.000    0.000    0.000 
#
# Total GULP energy -145152.354772 kJ/mol
# GULP energy per Si atom -5582.782876 kJ/mol
# Density = 2.343346 g / cm^3
# Si number density = 23.486920 Si / 1000 Ang^3
#
#
#
# Elastic Constant Matrix: (Units=GPa)
#
#
# Indices 1 2 3 4 5 6 
#
# 1 60.5525 2.7986 18.8028 0.0000 0.0000 0.0000
# 2 2.7986 143.6452 87.7740 0.0000 0.0000 0.0000
# 3 18.8028 87.7740 208.6535 0.0000 0.0000 0.0000
# 4 0.0000 0.0000 0.0000 24.9673 0.0000 0.0000
# 5 0.0000 0.0000 0.0000 0.0000 18.5642 0.0000
# 6 0.0000 0.0000 0.0000 0.0000 0.0000 25.5081
#
#
#
# Elastic Compliance Matrix: (Units=1/GPa)
#
#
# Indices 1 2 3 4 5 6 
#
# 1 0.017061 0.000817 -0.001881 0.000000 0.000000 0.000000
# 2 0.000817 0.009409 -0.004032 0.000000 0.000000 0.000000
# 3 -0.001881 -0.004032 0.006658 0.000000 0.000000 0.000000
# 4 0.000000 0.000000 0.000000 0.040052 0.000000 0.000000
# 5 0.000000 0.000000 0.000000 0.000000 0.053867 0.000000
# 6 0.000000 0.000000 0.000000 0.000000 0.000000 0.039203
#
#
# Mechanical properties :
#
#
# Convention : Reuss Voigt Hill
#
# Bulk Modulus (GPa) = 43.59828 70.17798 56.88813
# Shear Modulus (GPa) = 27.16082 34.03964 30.60023
#
# Velocity S-wave (km/s) = 3.40431 3.81110 3.61343
# Velocity P-wave (km/s) = 5.83571 7.02214 6.45624
#
# Compressibility (1/GPa) = 0.02293668
#
# Stress axis : x y z
#
# Youngs Moduli (GPa) = 58.61331 106.27752 150.19012
#
# Poissons Ratio (x) = -0.08684 0.28253
# Poissons Ratio (y) = -0.04789 0.60554
# Poissons Ratio (z) = 0.11026 0.42849
#
# Static dielectric constant tensor:
#      x y z
#    x 2.038930 0.000000 0.000000 
#    y 0.000000 1.850840 0.000000 
#    z 0.000000 0.000000 1.921440 
# 
# From -- ./inp_files/7424.got.cif
#   From: 2010.05.17/outbox.cif.g08.bks.cpg/sg41_4_cif.got.tgz:7424.got - 2010.06.03 18:54:24.
