data_PCOD9365842
_publ_section_title
;
Structure prediction by ZEFSAII (Michael W. Deem and Ramdas Pophale) SiO2 
 PCOD9365842
Probable space group: A B A 2
;
_chemical_formula_sum "Si O2"
_cell_formula_units_Z 52
_cell_length_a 7.994775
_cell_length_b 20.421587
_cell_length_c 14.682310
_cell_angle_alpha 90.000000
_cell_angle_beta 90.000000
_cell_angle_gamma 90.000000
_cell_volume 2397.121925
_symmetry_space_group_name_H-M "A B A 2"
_symmetry_group_IT_number 41
_symmetry_cell_setting 'orthorhombic'
loop_
_space_group_symop_operation_xyz
x,y,z
-x,-y,z
1/2-x,y,1/2+z
1/2+x,-y,1/2+z
x,1/2+y,1/2+z
-x,1/2-y,1/2+z
1/2-x,1/2+y,z
1/2+x,1/2-y,z
loop_
_atom_site_type_symbol
_atom_site_label
_atom_site_fract_x
_atom_site_fract_y
_atom_site_fract_z
Si Si1 0.528632 0.794825 0.170160
Si Si2 0.963577 0.603511 0.303463
Si Si3 0.634194 0.104878 0.031869
Si Si4 0.012447 0.078623 0.001308
Si Si5 0.500000 0.500000 0.661986
Si Si6 0.399402 0.154688 0.671200
Si Si7 0.426224 0.927814 0.829369
O O1 0.442795 0.824469 0.261278
O O2 0.447660 0.835996 0.087469
O O3 0.719296 0.814220 0.186478
O O4 0.512500 0.718438 0.152884
O O5 0.059034 0.598913 0.398811
O O6 0.058261 0.557331 0.230261
O O7 0.775280 0.574524 0.313294
O O8 0.830604 0.111294 0.015475
O O9 0.619733 0.039726 0.094444
O O10 0.549550 0.094585 0.933929
O O11 0.117480 0.106778 0.084459
O O12 0.000000 0.000000 0.004081
O O13 0.481329 0.117007 0.755575
O O14 0.500000 0.000000 0.819335
#
# Coordination Sequence:
#
# PCOD9365842 Si02
#       7
#     8   8   8   8   4   8   8
#     4  11  26  45  67  94 123 183 216 274 327 388
#     4  10  23  40  67  93 137 166 220 262 325 380
#     4  10  23  40  67  93 137 166 220 262 325 380
#     4  11  24  41  65 102 133 173 212 273 321 392
#     4  10  18  38  60  92 126 168 200 258 310 382
#     4  12  26  43  68  91 135 168 228 265 330 389
#     4  11  24  41  65 102 133 173 212 273 321 392
#
# _framework density 21.692682000000001
#
# number of rings (size 3 to 8) (size 9 to 14) (size 15 to 20)
#    0.000    1.231    1.538    4.154    8.615    2.462 
#    0.000    0.000    0.000    0.000    0.000    0.000 
#    0.000    0.000    0.000    0.000    0.000    0.000 
#
# Total GULP energy -145302.894164 kJ/mol
# GULP energy per Si atom -5588.572852 kJ/mol
# Density = 2.164331 g / cm^3
# Si number density = 21.692682 Si / 1000 Ang^3
#
#
#
# Elastic Constant Matrix: (Units=GPa)
#
#
# Indices 1 2 3 4 5 6 
#
# 1 51.4061 4.5322 18.4009 0.0000 0.0000 0.0000
# 2 4.5322 121.1175 64.4526 0.0000 0.0000 0.0000
# 3 18.4009 64.4526 158.2460 0.0000 0.0000 0.0000
# 4 0.0000 0.0000 0.0000 12.4718 0.0000 0.0000
# 5 0.0000 0.0000 0.0000 0.0000 11.6883 0.0000
# 6 0.0000 0.0000 0.0000 0.0000 0.0000 32.4773
#
#
#
# Elastic Compliance Matrix: (Units=1/GPa)
#
#
# Indices 1 2 3 4 5 6 
#
# 1 0.020336 0.000635 -0.002623 0.000000 0.000000 0.000000
# 2 0.000635 0.010561 -0.004375 0.000000 0.000000 0.000000
# 3 -0.002623 -0.004375 0.008406 0.000000 0.000000 0.000000
# 4 0.000000 0.000000 0.000000 0.080181 0.000000 0.000000
# 5 0.000000 0.000000 0.000000 0.000000 0.085556 0.000000
# 6 0.000000 0.000000 0.000000 0.000000 0.000000 0.030791
#
#
# Mechanical properties :
#
#
# Convention : Reuss Voigt Hill
#
# Bulk Modulus (GPa) = 37.62768 56.17123 46.89946
# Shear Modulus (GPa) = 19.42377 27.55307 23.48842
#
# Velocity S-wave (km/s) = 2.99558 3.56779 3.29413
# Velocity P-wave (km/s) = 5.41739 6.55152 6.01126
#
# Compressibility (1/GPa) = 0.02657618
#
# Stress axis : x y z
#
# Youngs Moduli (GPa) = 49.17394 94.68824 118.95794
#
# Poissons Ratio (x) = -0.06013 0.31207
# Poissons Ratio (y) = -0.03123 0.52047
# Poissons Ratio (z) = 0.12900 0.41429
#
# Static dielectric constant tensor:
#      x y z
#    x 1.849200 0.000000 0.000000 
#    y 0.000000 1.797940 0.000000 
#    z 0.000000 0.000000 1.819120 
# 
# From -- ./inp_files/7423.got.cif
#   From: 2010.05.17/outbox.cif.g08.bks.cpg/sg41_4_cif.got.tgz:7423.got - 2010.06.03 18:54:24.
