data_PCOD9365544
_publ_section_title
;
Structure prediction by ZEFSAII (Michael W. Deem and Ramdas Pophale) SiO2 
 PCOD9365544
Probable space group: A M A 2
;
_chemical_formula_sum "Si O2"
_cell_formula_units_Z 56
_cell_length_a 23.327346
_cell_length_b 13.755093
_cell_length_c 6.938632
_cell_angle_alpha 90.000000
_cell_angle_beta 90.000000
_cell_angle_gamma 90.000000
_cell_volume 2226.397557
_symmetry_space_group_name_H-M "A M A 2"
_symmetry_group_IT_number 40
_symmetry_cell_setting 'orthorhombic'
loop_
_space_group_symop_operation_xyz
x,y,z
-x,-y,z
1/2-x,y,z
1/2+x,-y,z
x,1/2+y,1/2+z
-x,1/2-y,1/2+z
1/2-x,1/2+y,1/2+z
1/2+x,1/2-y,1/2+z
loop_
_atom_site_type_symbol
_atom_site_label
_atom_site_fract_x
_atom_site_fract_y
_atom_site_fract_z
Si Si1 0.447726 0.298886 0.783230
Si Si2 0.934458 0.196509 0.793951
Si Si3 0.361285 0.130116 0.893262
Si Si4 0.562145 0.046152 0.038508
Si Si5 0.437704 0.445645 0.030737
Si Si6 0.688268 0.778759 0.253783
Si Si7 0.688276 0.961755 0.533858
O O1 0.515950 0.277532 0.789652
O O2 0.440900 0.327462 0.540186
O O3 0.410242 0.197823 0.792443
O O4 0.439258 0.322699 0.035978
O O5 0.867353 0.220246 0.811206
O O6 0.390912 0.041163 0.011042
O O7 0.317200 0.090394 0.738233
O O8 0.324301 0.196303 0.034197
O O9 0.559887 0.074192 0.785549
O O10 0.500000 0.000000 0.048980
O O11 0.567292 0.077857 0.282154
O O12 0.500000 0.500000 0.022754
O O13 0.372458 0.485274 0.031657
O O14 0.750000 0.731070 0.284964
O O15 0.687825 0.878927 0.371817
O O16 0.750000 0.014727 0.517501
#
# Coordination Sequence:
#
# PCOD9365544 Si02
#       7
#     8   8   8   8   8   8   8
#     4  12  24  40  69 102 138 182 234 297 364 431
#     4  12  22  42  64  97 137 179 231 296 360 427
#     4  12  23  46  69 103 141 184 238 297 363 435
#     4  12  23  41  66 102 144 184 236 300 367 439
#     4  12  23  42  66  98 134 176 231 290 352 425
#     4  11  25  46  70  98 137 187 240 295 361 438
#     4  11  25  46  71 100 139 187 236 294 365 439
#
# _framework density 25.152739
#
# number of rings (size 3 to 8) (size 9 to 14) (size 15 to 20)
#    0.000    0.286    4.286    6.429    0.000    0.571 
#    0.000    0.000    0.000    6.000    0.000    0.000 
#    0.000    0.000    0.000    0.000    0.000    0.000 
#
# Total GULP energy -156208.554145 kJ/mol
# GULP energy per Si atom -5578.876934 kJ/mol
# Density = 2.509549 g / cm^3
# Si number density = 25.152739 Si / 1000 Ang^3
#
#
#
# Elastic Constant Matrix: (Units=GPa)
#
#
# Indices 1 2 3 4 5 6 
#
# 1 232.4849 82.5915 54.9808 0.0000 0.0000 0.0000
# 2 82.5915 94.3259 51.2212 0.0000 0.0000 0.0000
# 3 54.9808 51.2212 184.0368 0.0000 0.0000 0.0000
# 4 0.0000 0.0000 0.0000 81.0929 0.0000 0.0000
# 5 0.0000 0.0000 0.0000 0.0000 110.5141 0.0000
# 6 0.0000 0.0000 0.0000 0.0000 0.0000 38.2748
#
#
#
# Elastic Compliance Matrix: (Units=1/GPa)
#
#
# Indices 1 2 3 4 5 6 
#
# 1 0.006269 -0.005268 -0.000407 0.000000 0.000000 0.000000
# 2 -0.005268 0.016917 -0.003134 0.000000 0.000000 0.000000
# 3 -0.000407 -0.003134 0.006427 0.000000 0.000000 0.000000
# 4 0.000000 0.000000 0.000000 0.012332 0.000000 0.000000
# 5 0.000000 0.000000 0.000000 0.000000 0.009049 0.000000
# 6 0.000000 0.000000 0.000000 0.000000 0.000000 0.026127
#
#
# Mechanical properties :
#
#
# Convention : Reuss Voigt Hill
#
# Bulk Modulus (GPa) = 83.37104 98.71497 91.04300
# Shear Modulus (GPa) = 50.63950 67.44663 59.04307
#
# Velocity S-wave (km/s) = 4.49183 5.18392 4.85023
# Velocity P-wave (km/s) = 7.75370 8.66961 8.22441
#
# Compressibility (1/GPa) = 0.01199457
#
# Stress axis : x y z
#
# Youngs Moduli (GPa) = 159.51087 59.11350 155.58149
#
# Poissons Ratio (x) = 0.31144 0.06326
# Poissons Ratio (y) = 0.84038 0.48764
# Poissons Ratio (z) = 0.06485 0.18528
#
# Static dielectric constant tensor:
#      x y z
#    x 1.803600 0.000000 0.000000 
#    y 0.000000 2.028670 0.000000 
#    z 0.000000 0.000000 2.457640 
# 
# From -- ./inp_files/2453.got.cif
#   From: 2010.05.17/outbox.cif.g08.bks.cpg/sg40_2_cif.got.tgz:2453.got - 2010.06.03 18:35:42.
