data_PCOD9365589
_publ_section_title
;
Structure prediction by ZEFSAII (Michael W. Deem and Ramdas Pophale) SiO2 
 PCOD9365589
Probable space group: A M A 2
;
_chemical_formula_sum "Si O2"
_cell_formula_units_Z 28
_cell_length_a 23.241008
_cell_length_b 5.756913
_cell_length_c 7.891488
_cell_angle_alpha 90.000000
_cell_angle_beta 90.000000
_cell_angle_gamma 90.000000
_cell_volume 1055.853167
_symmetry_space_group_name_H-M "A M A 2"
_symmetry_group_IT_number 40
_symmetry_cell_setting 'orthorhombic'
loop_
_space_group_symop_operation_xyz
x,y,z
-x,-y,z
1/2-x,y,z
1/2+x,-y,z
x,1/2+y,1/2+z
-x,1/2-y,1/2+z
1/2-x,1/2+y,1/2+z
1/2+x,1/2-y,1/2+z
loop_
_atom_site_type_symbol
_atom_site_label
_atom_site_fract_x
_atom_site_fract_y
_atom_site_fract_z
Si Si1 0.425690 0.792262 0.041820
Si Si2 0.500000 0.500000 0.262292
Si Si3 0.850151 0.521879 0.837120
Si Si4 0.750000 0.261970 0.962524
Si Si5 0.750000 0.257460 0.505594
O O1 0.518588 0.283211 0.148749
O O2 0.381435 0.922712 0.163380
O O3 0.397443 0.553345 0.974431
O O4 0.446251 0.936722 0.880757
O O5 0.805952 0.302698 0.844837
O O6 0.808961 0.729626 0.897026
O O7 0.750000 0.023718 0.061469
O O8 0.750000 0.492958 0.081317
#
# Coordination Sequence:
#
# PCOD9365589 Si02
#       5
#     8   4   8   4   4
#     4  12  24  49  68 112 136 211 232 338 350 470
#     4  12  28  44  76  98 154 178 282 288 394 412
#     4   9  24  41  78 102 156 183 256 285 406 418
#     4   8  20  42  70 116 146 196 240 310 360 488
#     4   8  20  42  70 116 146 196 240 310 360 488
#
# _framework density 26.518839
#
# number of rings (size 3 to 8) (size 9 to 14) (size 15 to 20)
#    1.714    0.000    0.000    3.429    4.000    4.571 
#    0.000    2.857    0.000    0.000    0.000    0.000 
#    0.000    0.000    0.000    0.000    0.000    0.000 
#
# Total GULP energy -78313.678623 kJ/mol
# GULP energy per Si atom -5593.834187 kJ/mol
# Density = 2.645848 g / cm^3
# Si number density = 26.518839 Si / 1000 Ang^3
#
#
#
# Elastic Constant Matrix: (Units=GPa)
#
#
# Indices 1 2 3 4 5 6 
#
# 1 89.0935 10.3756 25.8034 0.0000 0.0000 0.0000
# 2 10.3756 159.0830 44.0848 0.0000 0.0000 0.0000
# 3 25.8034 44.0848 99.4000 0.0000 0.0000 0.0000
# 4 0.0000 0.0000 0.0000 36.8939 0.0000 0.0000
# 5 0.0000 0.0000 0.0000 0.0000 52.1177 0.0000
# 6 0.0000 0.0000 0.0000 0.0000 0.0000 28.4627
#
#
#
# Elastic Compliance Matrix: (Units=1/GPa)
#
#
# Indices 1 2 3 4 5 6 
#
# 1 0.012138 0.000093 -0.003192 0.000000 0.000000 0.000000
# 2 0.000093 0.007168 -0.003203 0.000000 0.000000 0.000000
# 3 -0.003192 -0.003203 0.012310 0.000000 0.000000 0.000000
# 4 0.000000 0.000000 0.000000 0.027105 0.000000 0.000000
# 5 0.000000 0.000000 0.000000 0.000000 0.019187 0.000000
# 6 0.000000 0.000000 0.000000 0.000000 0.000000 0.035134
#
#
# Mechanical properties :
#
#
# Convention : Reuss Voigt Hill
#
# Bulk Modulus (GPa) = 52.60210 56.45601 54.52906
# Shear Modulus (GPa) = 37.88395 41.31571 39.59983
#
# Velocity S-wave (km/s) = 3.78374 3.95140 3.86848
# Velocity P-wave (km/s) = 6.24241 6.49256 6.36872
#
# Compressibility (1/GPa) = 0.01901065
#
# Stress axis : x y z
#
# Youngs Moduli (GPa) = 82.38698 139.51710 81.23758
#
# Poissons Ratio (x) = -0.01297 0.25932
# Poissons Ratio (y) = -0.00766 0.26021
# Poissons Ratio (z) = 0.26299 0.44688
#
# Static dielectric constant tensor:
#      x y z
#    x 2.087320 0.000000 0.000000 
#    y 0.000000 2.021130 0.000000 
#    z 0.000000 0.000000 2.126610 
# 
# From -- ./inp_files/9016.got.cif
#   From: 2010.05.17/outbox.cif.g08.bks.cpg/sg40_5_cif.got.tgz:9016.got - 2010.06.03 18:35:42.
