data_PCOD9365719
_publ_section_title
;
Structure prediction by ZEFSAII (Michael W. Deem and Ramdas Pophale) SiO2 
 PCOD9365719
Probable space group: A B A 2
;
_chemical_formula_sum "Si O2"
_cell_formula_units_Z 48
_cell_length_a 5.167460
_cell_length_b 27.430504
_cell_length_c 14.257821
_cell_angle_alpha 90.000000
_cell_angle_beta 90.000000
_cell_angle_gamma 90.000000
_cell_volume 2020.989555
_symmetry_space_group_name_H-M "A B A 2"
_symmetry_group_IT_number 41
_symmetry_cell_setting 'orthorhombic'
loop_
_space_group_symop_operation_xyz
x,y,z
-x,-y,z
1/2-x,y,1/2+z
1/2+x,-y,1/2+z
x,1/2+y,1/2+z
-x,1/2-y,1/2+z
1/2-x,1/2+y,z
1/2+x,1/2-y,z
loop_
_atom_site_type_symbol
_atom_site_label
_atom_site_fract_x
_atom_site_fract_y
_atom_site_fract_z
Si Si1 0.366856 0.274077 0.416770
Si Si2 0.240893 0.532369 0.155351
Si Si3 0.759760 0.968693 0.868633
Si Si4 0.490573 0.870314 0.577465
Si Si5 0.533198 0.873466 0.966276
Si Si6 0.937602 0.267057 0.632650
O O1 0.099696 0.256583 0.377701
O O2 0.408685 0.331334 0.403627
O O3 0.374019 0.259829 0.529966
O O4 0.500000 0.500000 0.154661
O O5 0.157446 0.543453 0.262376
O O6 0.345880 0.583406 0.114367
O O7 0.000000 0.500000 0.113849
O O8 0.500000 0.000000 0.863710
O O9 0.660193 0.920634 0.919750
O O10 0.000000 0.000000 0.911228
O O11 0.708240 0.848226 0.507317
O O12 0.453323 0.822263 0.639139
O O13 0.211713 0.885586 0.534851
O O14 0.655370 0.266704 0.676409
#
# Coordination Sequence:
#
# PCOD9365719 Si02
#       6
#     8   8   8   8   8   8
#     4  10  16  30  49  80 116 152 177 224 292 369
#     4  10  23  43  60  78 115 163 200 242 306 368
#     4  10  23  43  60  78 115 163 200 242 306 368
#     4  12  21  33  60  92 113 147 198 249 294 351
#     4  12  21  33  60  92 113 147 198 249 294 351
#     4  10  16  30  49  80 116 152 177 224 292 369
#
# _framework density 23.750743
#
# number of rings (size 3 to 8) (size 9 to 14) (size 15 to 20)
#    0.000    1.333    6.667    2.000    0.000    2.667 
#    0.000    0.000    0.000    2.000    0.000    0.000 
#    0.000    0.000    0.000    0.000    0.000    0.000 
#
# Total GULP energy -133671.765387 kJ/mol
# GULP energy per Si atom -5569.656891 kJ/mol
# Density = 2.369669 g / cm^3
# Si number density = 23.750743 Si / 1000 Ang^3
#
#
#
# Elastic Constant Matrix: (Units=GPa)
#
#
# Indices 1 2 3 4 5 6 
#
# 1 173.2105 34.5533 6.7764 0.0000 0.0000 0.0000
# 2 34.5533 154.9684 14.9038 0.0000 0.0000 0.0000
# 3 6.7764 14.9038 43.8757 0.0000 0.0000 0.0000
# 4 0.0000 0.0000 0.0000 53.3558 0.0000 0.0000
# 5 0.0000 0.0000 0.0000 0.0000 12.1790 0.0000
# 6 0.0000 0.0000 0.0000 0.0000 0.0000 53.6564
#
#
#
# Elastic Compliance Matrix: (Units=1/GPa)
#
#
# Indices 1 2 3 4 5 6 
#
# 1 0.006052 -0.001302 -0.000492 0.000000 0.000000 0.000000
# 2 -0.001302 0.006951 -0.002160 0.000000 0.000000 0.000000
# 3 -0.000492 -0.002160 0.023601 0.000000 0.000000 0.000000
# 4 0.000000 0.000000 0.000000 0.018742 0.000000 0.000000
# 5 0.000000 0.000000 0.000000 0.000000 0.082108 0.000000
# 6 0.000000 0.000000 0.000000 0.000000 0.000000 0.018637
#
#
# Mechanical properties :
#
#
# Convention : Reuss Voigt Hill
#
# Bulk Modulus (GPa) = 34.84857 53.83575 44.34216
# Shear Modulus (GPa) = 28.80738 44.89299 36.85019
#
# Velocity S-wave (km/s) = 3.48646 4.35233 3.94323
# Velocity P-wave (km/s) = 5.55982 6.92627 6.28032
#
# Compressibility (1/GPa) = 0.02869558
#
# Stress axis : x y z
#
# Youngs Moduli (GPa) = 165.22521 143.86419 42.37027
#
# Poissons Ratio (x) = 0.18733 0.02087
# Poissons Ratio (y) = 0.21514 0.09152
# Poissons Ratio (z) = 0.08136 0.31075
#
# Static dielectric constant tensor:
#      x y z
#    x 1.932770 0.000000 0.000000 
#    y 0.000000 1.959760 0.000000 
#    z 0.000000 0.000000 2.111040 
# 
# From -- ./inp_files/6892.got.cif
#   From: 2010.05.17/outbox.cif.g08.bks.cpg/sg41_4_cif.got.tgz:6892.got - 2010.06.03 18:54:24.
