data_PCOD9365750
_publ_section_title
;
Structure prediction by ZEFSAII (Michael W. Deem and Ramdas Pophale) SiO2 
 PCOD9365750
Probable space group: A B A 2
;
_chemical_formula_sum "Si O2"
_cell_formula_units_Z 64
_cell_length_a 14.080817
_cell_length_b 13.900181
_cell_length_c 15.693305
_cell_angle_alpha 90.000000
_cell_angle_beta 90.000000
_cell_angle_gamma 90.000000
_cell_volume 3071.586322
_symmetry_space_group_name_H-M "A B A 2"
_symmetry_group_IT_number 41
_symmetry_cell_setting 'orthorhombic'
loop_
_space_group_symop_operation_xyz
x,y,z
-x,-y,z
1/2-x,y,1/2+z
1/2+x,-y,1/2+z
x,1/2+y,1/2+z
-x,1/2-y,1/2+z
1/2-x,1/2+y,z
1/2+x,1/2-y,z
loop_
_atom_site_type_symbol
_atom_site_label
_atom_site_fract_x
_atom_site_fract_y
_atom_site_fract_z
Si Si1 0.321288 0.953767 0.928830
Si Si2 0.763274 0.215257 0.641652
Si Si3 0.150389 0.743853 0.460227
Si Si4 0.962905 0.642573 0.418516
Si Si5 0.725737 0.910634 0.700896
Si Si6 0.335946 0.924404 0.280406
Si Si7 0.657670 0.548793 0.065686
Si Si8 0.653136 0.838362 0.881551
O O1 0.375810 0.852139 0.929326
O O2 0.246118 0.935186 0.852303
O O3 0.371815 0.056775 0.920942
O O4 0.254748 0.963519 0.011789
O O5 0.828219 0.236928 0.559522
O O6 0.723566 0.318102 0.664103
O O7 0.819630 0.166614 0.719322
O O8 0.678388 0.143382 0.620809
O O9 0.245972 0.701711 0.417395
O O10 0.070818 0.666316 0.438697
O O11 0.932469 0.587305 0.332643
O O12 0.919972 0.580184 0.496552
O O13 0.914064 0.748332 0.404579
O O14 0.669148 0.870399 0.783161
O O15 0.809320 0.984420 0.723866
O O16 0.655186 0.961019 0.632260
#
# Coordination Sequence:
#
# PCOD9365750 Si02
#       8
#     8   8   8   8   8   8   8   8
#     4   9  18  36  61  89 114 163 212 242 310 379
#     4  10  17  35  58  87 117 161 209 250 320 375
#     4  11  22  37  65  91 125 164 208 264 317 381
#     4  11  21  40  62  90 129 166 209 265 319 379
#     4  10  19  33  65  85 114 168 202 256 315 373
#     4   9  18  36  60  87 121 160 207 261 308 378
#     4   9  19  34  58  87 121 154 200 259 307 372
#     4  11  20  39  64  87 119 170 215 249 316 384
#
# _framework density 20.836138999999999
#
# number of rings (size 3 to 8) (size 9 to 14) (size 15 to 20)
#    0.000    2.000    5.000    0.750    0.000    0.500 
#    0.000   15.000    5.500    1.500    0.000    0.000 
#    0.000    0.000    0.000    0.000    0.000    0.000 
#
# Total GULP energy -178253.728953 kJ/mol
# GULP energy per Si atom -5570.429030 kJ/mol
# Density = 2.078872 g / cm^3
# Si number density = 20.836139 Si / 1000 Ang^3
#
#
#
# Elastic Constant Matrix: (Units=GPa)
#
#
# Indices 1 2 3 4 5 6 
#
# 1 41.0386 4.7971 13.5549 0.0000 0.0000 0.0000
# 2 4.7971 152.8565 43.8576 0.0000 0.0000 0.0000
# 3 13.5549 43.8576 97.0320 0.0000 0.0000 0.0000
# 4 0.0000 0.0000 0.0000 -9.9563 0.0000 0.0000
# 5 0.0000 0.0000 0.0000 0.0000 4.6183 0.0000
# 6 0.0000 0.0000 0.0000 0.0000 0.0000 18.2055
#
#
#
# Elastic Compliance Matrix: (Units=1/GPa)
#
#
# Indices 1 2 3 4 5 6 
#
# 1 0.025555 0.000255 -0.003685 0.000000 0.000000 0.000000
# 2 0.000255 0.007519 -0.003434 0.000000 0.000000 0.000000
# 3 -0.003685 -0.003434 0.012373 0.000000 0.000000 0.000000
# 4 0.000000 0.000000 0.000000 -0.100439 0.000000 0.000000
# 5 0.000000 0.000000 0.000000 0.000000 0.216532 0.000000
# 6 0.000000 0.000000 0.000000 0.000000 0.000000 0.054929
#
#
# Mechanical properties :
#
#
# Convention : Reuss Voigt Hill
#
# Bulk Modulus (GPa) = 31.52731 46.14959 38.83845
# Shear Modulus (GPa) = 20.76670 17.82134 19.29402
#
# Velocity S-wave (km/s) = 3.16043 2.92774 3.04631
# Velocity P-wave (km/s) = 5.33682 5.79877 5.57259
#
# Compressibility (1/GPa) = 0.03171853
#
# Stress axis : x y z
#
# Youngs Moduli (GPa) = 39.13180 132.98818 80.82104
#
# Poissons Ratio (x) = -0.03397 0.29785
# Poissons Ratio (y) = -0.00999 0.27757
# Poissons Ratio (z) = 0.14421 0.45674
#
# Static dielectric constant tensor:
#      x y z
#    x 1.717040 0.000000 0.000000 
#    y 0.000000 1.903140 0.000000 
#    z 0.000000 0.000000 1.830810 
# 
# From -- ./inp_files/10462.got.cif
#   From: 2010.05.17/outbox.cif.g08.bks.cpg/sg41_6_cif.got.tgz:10462.got - 2010.06.03 18:54:24.
