data_PCOD9365461
_publ_section_title
;
Structure prediction by ZEFSAII (Michael W. Deem and Ramdas Pophale) SiO2 
 PCOD9365461
Probable space group: A M A 2
;
_chemical_formula_sum "Si O2"
_cell_formula_units_Z 44
_cell_length_a 13.365087
_cell_length_b 23.900617
_cell_length_c 6.986424
_cell_angle_alpha 90.000000
_cell_angle_beta 90.000000
_cell_angle_gamma 90.000000
_cell_volume 2231.700145
_symmetry_space_group_name_H-M "A M A 2"
_symmetry_group_IT_number 40
_symmetry_cell_setting 'orthorhombic'
loop_
_space_group_symop_operation_xyz
x,y,z
-x,-y,z
1/2-x,y,z
1/2+x,-y,z
x,1/2+y,1/2+z
-x,1/2-y,1/2+z
1/2-x,1/2+y,1/2+z
1/2+x,1/2-y,1/2+z
loop_
_atom_site_type_symbol
_atom_site_label
_atom_site_fract_x
_atom_site_fract_y
_atom_site_fract_z
Si Si1 0.750000 0.298799 0.058420
Si Si2 0.417139 0.546991 0.668853
Si Si3 0.962272 0.159412 0.088082
Si Si4 0.250000 0.005221 0.877862
Si Si5 0.250000 0.769182 0.663555
Si Si6 0.250000 0.569640 0.981171
Si Si7 0.083300 0.243742 0.850868
Si Si8 0.750000 0.126888 0.922753
O O1 0.846086 0.278949 0.180540
O O2 0.750000 0.269289 0.852310
O O3 0.750000 0.365188 0.035719
O O4 0.500000 0.500000 0.706690
O O5 0.470016 0.605081 0.614652
O O6 0.346286 0.526235 0.496558
O O7 0.346219 0.556408 0.850909
O O8 0.964593 0.199203 0.273792
O O9 0.848933 0.141548 0.043747
O O10 0.003928 0.197555 0.915506
O O11 0.250000 0.938177 0.871191
O O12 0.250000 0.032363 0.670045
O O13 0.154542 0.756001 0.531537
O O14 0.250000 0.832615 0.738861
#
# Coordination Sequence:
#
# PCOD9365461 Si02
#       8
#     4   8   8   4   4   4   8   4
#     4  11  22  46  69  98 142 179 223 283 341 404
#     4  11  25  47  71  98 141 182 227 283 345 394
#     4  12  24  44  70 102 139 182 222 284 344 407
#     4  11  25  50  69  97 136 180 234 285 333 400
#     4  11  22  45  67 105 139 180 218 278 345 409
#     4  11  26  43  71 103 128 182 236 281 329 404
#     4  11  25  41  69 104 142 177 226 276 345 415
#     4  12  23  44  72  95 139 181 225 283 344 397
#
# _framework density 19.715910999999998
#
# number of rings (size 3 to 8) (size 9 to 14) (size 15 to 20)
#    0.000    0.727    3.636    3.818    2.545    5.091 
#    6.545    0.000    0.000    0.000    0.000    0.000 
#    0.000    0.000    0.000    0.000    0.000    0.000 
#
# Total GULP energy -123177.949373 kJ/mol
# GULP energy per Si atom -5598.997699 kJ/mol
# Density = 1.967104 g / cm^3
# Si number density = 19.715911 Si / 1000 Ang^3
#
#
#
# Elastic Constant Matrix: (Units=GPa)
#
#
# Indices 1 2 3 4 5 6 
#
# 1 117.3528 79.1383 40.3243 0.0000 0.0000 0.0000
# 2 79.1383 208.0690 76.5438 0.0000 0.0000 0.0000
# 3 40.3243 76.5438 118.2811 0.0000 0.0000 0.0000
# 4 0.0000 0.0000 0.0000 23.9483 0.0000 0.0000
# 5 0.0000 0.0000 0.0000 0.0000 14.9023 0.0000
# 6 0.0000 0.0000 0.0000 0.0000 0.0000 37.1759
#
#
#
# Elastic Compliance Matrix: (Units=1/GPa)
#
#
# Indices 1 2 3 4 5 6 
#
# 1 0.011647 -0.003897 -0.001449 0.000000 0.000000 0.000000
# 2 -0.003897 0.007612 -0.003597 0.000000 0.000000 0.000000
# 3 -0.001449 -0.003597 0.011276 0.000000 0.000000 0.000000
# 4 0.000000 0.000000 0.000000 0.041757 0.000000 0.000000
# 5 0.000000 0.000000 0.000000 0.000000 0.067104 0.000000
# 6 0.000000 0.000000 0.000000 0.000000 0.000000 0.026899
#
#
# Mechanical properties :
#
#
# Convention : Reuss Voigt Hill
#
# Bulk Modulus (GPa) = 79.05789 92.85731 85.95760
# Shear Modulus (GPa) = 26.53972 31.71840 29.12906
#
# Velocity S-wave (km/s) = 3.67291 4.01530 3.84792
# Velocity P-wave (km/s) = 7.62710 8.28835 7.96459
#
# Compressibility (1/GPa) = 0.01264896
#
# Stress axis : x y z
#
# Youngs Moduli (GPa) = 85.85815 131.37825 88.68190
#
# Poissons Ratio (x) = 0.51197 0.12849
# Poissons Ratio (y) = 0.33458 0.31901
# Poissons Ratio (z) = 0.12440 0.47259
#
# Static dielectric constant tensor:
#      x y z
#    x 1.702570 0.000000 0.000000 
#    y 0.000000 1.653300 0.000000 
#    z 0.000000 0.000000 1.663290 
# 
# From -- ./inp_files/1317.got.cif
#   From: 2010.05.17/outbox.cif.g08.bks.cpg/sg40_1_cif.got.tgz:1317.got - 2010.06.03 18:35:42.
