data_PCOD9365021
_publ_section_title
;
Structure prediction by ZEFSAII (Michael W. Deem and Ramdas Pophale) SiO2 
 PCOD9365021
Probable space group: A M A 2
;
_chemical_formula_sum "Si O2"
_cell_formula_units_Z 40
_cell_length_a 10.832916
_cell_length_b 8.922561
_cell_length_c 18.064300
_cell_angle_alpha 90.000000
_cell_angle_beta 90.000000
_cell_angle_gamma 90.000000
_cell_volume 1746.047437
_symmetry_space_group_name_H-M "A M A 2"
_symmetry_group_IT_number 40
_symmetry_cell_setting 'orthorhombic'
loop_
_space_group_symop_operation_xyz
x,y,z
-x,-y,z
1/2-x,y,z
1/2+x,-y,z
x,1/2+y,1/2+z
-x,1/2-y,1/2+z
1/2-x,1/2+y,1/2+z
1/2+x,1/2-y,1/2+z
loop_
_atom_site_type_symbol
_atom_site_label
_atom_site_fract_x
_atom_site_fract_y
_atom_site_fract_z
Si Si1 0.469582 0.665570 0.494820
Si Si2 0.882996 0.394629 0.072564
Si Si3 0.382996 0.105371 0.157613
Si Si4 0.969582 0.334430 0.235357
Si Si5 0.111562 0.879590 0.365088
O O1 0.500000 0.500000 0.466278
O O2 0.593884 0.748341 0.523102
O O3 0.393502 0.647260 0.571156
O O4 0.405756 0.771283 0.435565
O O5 0.750000 0.463365 0.057202
O O6 0.893503 0.352741 0.159021
O O7 0.000000 0.500000 0.057446
O O8 0.250000 0.036636 0.172974
O O9 0.406116 0.251658 0.207075
O O10 0.500000 0.000000 0.172730
O O11 0.905755 0.228717 0.294612
O O12 0.000000 0.500000 0.263899
O O13 0.250000 0.946072 0.365089
O O14 0.000000 0.000000 0.365088
#
# Coordination Sequence:
#
# PCOD9365021 Si02
#       5
#     8   8   8   8   8
#     4  10  23  41  66  96 128 165 212 262 313 372
#     4  10  22  41  67  98 131 167 208 256 312 376
#     4  10  22  41  67  98 131 167 208 256 312 376
#     4  10  23  41  66  96 128 165 212 262 313 372
#     4  12  27  46  66  90 126 170 215 264 320 378
#
# _framework density 22.908887
#
# number of rings (size 3 to 8) (size 9 to 14) (size 15 to 20)
#    0.000    1.600    0.000    3.000    0.000   24.000 
#    0.000    2.000    0.000    0.000    0.000    0.000 
#    0.000    0.000    0.000    0.000    0.000    0.000 
#
# Total GULP energy -111879.264880 kJ/mol
# GULP energy per Si atom -5593.963244 kJ/mol
# Density = 2.285675 g / cm^3
# Si number density = 22.908887 Si / 1000 Ang^3
#
#
#
# Elastic Constant Matrix: (Units=GPa)
#
#
# Indices 1 2 3 4 5 6 
#
# 1 207.8889 72.9827 25.3944 0.0000 0.0000 0.0000
# 2 72.9827 137.9729 39.2222 0.0000 0.0000 0.0000
# 3 25.3944 39.2222 86.9363 0.0000 0.0000 0.0000
# 4 0.0000 0.0000 0.0000 37.5839 0.0000 0.0000
# 5 0.0000 0.0000 0.0000 0.0000 -14.1093 0.0000
# 6 0.0000 0.0000 0.0000 0.0000 0.0000 26.7966
#
#
#
# Elastic Compliance Matrix: (Units=1/GPa)
#
#
# Indices 1 2 3 4 5 6 
#
# 1 0.005917 -0.003027 -0.000363 0.000000 0.000000 0.000000
# 2 -0.003027 0.009862 -0.003565 0.000000 0.000000 0.000000
# 3 -0.000363 -0.003565 0.013217 0.000000 0.000000 0.000000
# 4 0.000000 0.000000 0.000000 0.026607 0.000000 0.000000
# 5 0.000000 0.000000 0.000000 0.000000 -0.070875 0.000000
# 6 0.000000 0.000000 0.000000 0.000000 0.000000 0.037318
#
#
# Mechanical properties :
#
#
# Convention : Reuss Voigt Hill
#
# Bulk Modulus (GPa) = 66.28346 78.66629 72.47487
# Shear Modulus (GPa) = 121.99221 29.73414 75.86318
#
# Velocity S-wave (km/s) = 7.30525 3.60659 5.76082
# Velocity P-wave (km/s) = 10.00759 7.19421 8.71517
#
# Compressibility (1/GPa) = 0.01508672
#
# Stress axis : x y z
#
# Youngs Moduli (GPa) = 168.99869 101.39481 75.65881
#
# Poissons Ratio (x) = 0.30691 0.02745
# Poissons Ratio (y) = 0.51153 0.26975
# Poissons Ratio (z) = 0.06132 0.36151
#
# Static dielectric constant tensor:
#      x y z
#    x 1.863540 0.000000 0.000000 
#    y 0.000000 1.900500 0.000000 
#    z 0.000000 0.000000 1.848900 
# 
# From -- ./inp_files/19877.got.cif
#   From: 2010.05.17/outbox.cif.g08.bks.cpg/sg40_10_cif.got.tgz:19877.got - 2010.06.03 18:35:42.
