data_PCOD9365599
_publ_section_title
;
Structure prediction by ZEFSAII (Michael W. Deem and Ramdas Pophale) SiO2 
 PCOD9365599
Probable space group: A M A 2
;
_chemical_formula_sum "Si O2"
_cell_formula_units_Z 36
_cell_length_a 18.199534
_cell_length_b 14.151464
_cell_length_c 4.681310
_cell_angle_alpha 90.000000
_cell_angle_beta 90.000000
_cell_angle_gamma 90.000000
_cell_volume 1205.671626
_symmetry_space_group_name_H-M "A M A 2"
_symmetry_group_IT_number 40
_symmetry_cell_setting 'orthorhombic'
loop_
_space_group_symop_operation_xyz
x,y,z
-x,-y,z
1/2-x,y,z
1/2+x,-y,z
x,1/2+y,1/2+z
-x,1/2-y,1/2+z
1/2-x,1/2+y,1/2+z
1/2+x,1/2-y,1/2+z
loop_
_atom_site_type_symbol
_atom_site_label
_atom_site_fract_x
_atom_site_fract_y
_atom_site_fract_z
Si Si1 0.750000 0.162177 0.608021
Si Si2 0.052029 0.259890 0.350955
Si Si3 0.500000 0.000000 0.590803
Si Si4 0.874049 0.587654 0.713448
Si Si5 0.250000 0.170015 0.556350
Si Si6 0.376001 0.101431 0.963038
O O1 0.750000 0.076014 0.808623
O O2 0.819149 0.154135 0.390960
O O3 0.750000 0.261446 0.796674
O O4 0.097742 0.181603 0.182195
O O5 0.018310 0.225834 0.649595
O O6 0.941529 0.449898 0.297099
O O7 0.450427 0.933755 0.386254
O O8 0.845272 0.480887 0.669236
O O9 0.900385 0.649876 0.442462
O O10 0.318946 0.142377 0.731100
#
# Coordination Sequence:
#
# PCOD9365599 Si02
#       6
#     4   8   4   8   4   8
#     4  12  35  59  94 139 193 263 328 399 494 584
#     4  12  32  53  96 143 196 250 330 414 488 581
#     4  12  30  58  98 148 186 252 330 416 490 582
#     4  12  32  59  97 137 193 256 330 401 498 586
#     4  12  35  59  94 139 193 263 328 399 494 584
#     4  12  32  59  97 137 193 256 330 401 498 586
#
# _framework density 29.858875999999999
#
# number of rings (size 3 to 8) (size 9 to 14) (size 15 to 20)
#    0.000    0.000    0.000    4.000   24.889    4.444 
#    0.000    0.000    0.000    0.000    0.000    0.000 
#    0.000    0.000    0.000    0.000    0.000    0.000 
#
# Total GULP energy -100619.823745 kJ/mol
# GULP energy per Si atom -5589.990208 kJ/mol
# Density = 2.979092 g / cm^3
# Si number density = 29.858876 Si / 1000 Ang^3
#
#
#
# Elastic Constant Matrix: (Units=GPa)
#
#
# Indices 1 2 3 4 5 6 
#
# 1 209.6553 79.6036 86.9040 0.0000 0.0000 0.0000
# 2 79.6036 189.1916 95.5924 0.0000 0.0000 0.0000
# 3 86.9040 95.5924 208.5713 0.0000 0.0000 0.0000
# 4 0.0000 0.0000 0.0000 85.9367 0.0000 0.0000
# 5 0.0000 0.0000 0.0000 0.0000 32.0215 0.0000
# 6 0.0000 0.0000 0.0000 0.0000 0.0000 15.1910
#
#
#
# Elastic Compliance Matrix: (Units=1/GPa)
#
#
# Indices 1 2 3 4 5 6 
#
# 1 0.006151 -0.001683 -0.001792 0.000000 0.000000 0.000000
# 2 -0.001683 0.007339 -0.002662 0.000000 0.000000 0.000000
# 3 -0.001792 -0.002662 0.006761 0.000000 0.000000 0.000000
# 4 0.000000 0.000000 0.000000 0.011636 0.000000 0.000000
# 5 0.000000 0.000000 0.000000 0.000000 0.031229 0.000000
# 6 0.000000 0.000000 0.000000 0.000000 0.000000 0.065828
#
#
# Mechanical properties :
#
#
# Convention : Reuss Voigt Hill
#
# Bulk Modulus (GPa) = 125.35156 125.73535 125.54345
# Shear Modulus (GPa) = 34.75147 49.65105 42.20126
#
# Velocity S-wave (km/s) = 3.41524 4.08224 3.76354
# Velocity P-wave (km/s) = 7.59106 8.02626 7.81169
#
# Compressibility (1/GPa) = 0.00797756
#
# Stress axis : x y z
#
# Youngs Moduli (GPa) = 162.56400 136.25892 147.90055
#
# Poissons Ratio (x) = 0.22932 0.26500
# Poissons Ratio (y) = 0.27359 0.39377
# Poissons Ratio (z) = 0.29127 0.36277
#
# Static dielectric constant tensor:
#      x y z
#    x 3.473510 0.000000 0.000000 
#    y 0.000000 3.077550 0.000000 
#    z 0.000000 0.000000 4.243480 
# 
# From -- ./inp_files/2613.got.cif
#   From: 2010.05.17/outbox.cif.g08.bks.cpg/sg40_2_cif.got.tgz:2613.got - 2010.06.03 18:35:42.
