data_PCOD9365089
_publ_section_title
;
Structure prediction by ZEFSAII (Michael W. Deem and Ramdas Pophale) SiO2 
 PCOD9365089
Probable space group: A M A 2
;
_chemical_formula_sum "Si O2"
_cell_formula_units_Z 48
_cell_length_a 8.505657
_cell_length_b 27.854188
_cell_length_c 9.736270
_cell_angle_alpha 90.000000
_cell_angle_beta 90.000000
_cell_angle_gamma 90.000000
_cell_volume 2306.699263
_symmetry_space_group_name_H-M "A M A 2"
_symmetry_group_IT_number 40
_symmetry_cell_setting 'orthorhombic'
loop_
_space_group_symop_operation_xyz
x,y,z
-x,-y,z
1/2-x,y,z
1/2+x,-y,z
x,1/2+y,1/2+z
-x,1/2-y,1/2+z
1/2-x,1/2+y,1/2+z
1/2+x,1/2-y,1/2+z
loop_
_atom_site_type_symbol
_atom_site_label
_atom_site_fract_x
_atom_site_fract_y
_atom_site_fract_z
Si Si1 0.558930 0.274687 0.590610
Si Si2 0.935621 0.947274 0.737836
Si Si3 0.565867 0.952243 0.180339
Si Si4 0.936446 0.871540 0.953385
Si Si5 0.561627 0.307580 0.898382
Si Si6 0.566849 0.586297 0.954045
O O1 0.750000 0.272497 0.585900
O O2 0.501949 0.319578 0.496741
O O3 0.515834 0.285255 0.749486
O O4 0.489276 0.227266 0.521932
O O5 0.750000 0.948938 0.764310
O O6 0.969850 0.934680 0.580658
O O7 0.002812 0.903059 0.828451
O O8 0.000000 0.000000 0.770168
O O9 0.750000 0.957605 0.210565
O O10 0.548278 0.906060 0.084664
O O11 0.469884 0.944020 0.318535
O O12 0.500000 0.000000 0.109719
O O13 0.750000 0.864375 0.926660
O O14 0.750000 0.313624 0.897110
O O15 0.484473 0.359373 0.920699
O O16 0.750000 0.584128 0.988476
#
# Coordination Sequence:
#
# PCOD9365089 Si02
#       6
#     8   8   8   8   8   8
#     4  10  22  43  66  94 128 164 208 257 310 374
#     4  11  23  41  64  93 127 169 211 258 314 372
#     4  11  21  39  64  93 124 160 204 255 312 373
#     4   9  20  40  65  90 124 164 206 256 310 367
#     4  11  24  43  67  95 127 165 206 257 315 375
#     4  12  25  42  63  91 125 165 211 262 308 368
#
# _framework density 20.808955000000001
#
# number of rings (size 3 to 8) (size 9 to 14) (size 15 to 20)
#    0.000    1.333    1.667    4.000    2.333    1.333 
#    0.000    3.333    0.000    0.000    0.000    0.000 
#    0.000    0.000    0.000    0.000    0.000    0.000 
#
# Total GULP energy -134158.167230 kJ/mol
# GULP energy per Si atom -5589.923635 kJ/mol
# Density = 2.076159 g / cm^3
# Si number density = 20.808955 Si / 1000 Ang^3
#
#
#
# Elastic Constant Matrix: (Units=GPa)
#
#
# Indices 1 2 3 4 5 6 
#
# 1 31.1167 6.9956 -9.4496 0.0000 0.0000 0.0000
# 2 6.9956 81.3187 -14.7772 0.0000 0.0000 0.0000
# 3 -9.4496 -14.7772 38.0902 0.0000 0.0000 0.0000
# 4 0.0000 0.0000 0.0000 60.8536 0.0000 0.0000
# 5 0.0000 0.0000 0.0000 0.0000 36.6401 0.0000
# 6 0.0000 0.0000 0.0000 0.0000 0.0000 31.3336
#
#
#
# Elastic Compliance Matrix: (Units=1/GPa)
#
#
# Indices 1 2 3 4 5 6 
#
# 1 0.034934 -0.001539 0.008070 0.000000 0.000000 0.000000
# 2 -0.001539 0.013298 0.004777 0.000000 0.000000 0.000000
# 3 0.008070 0.004777 0.030109 0.000000 0.000000 0.000000
# 4 0.000000 0.000000 0.000000 0.016433 0.000000 0.000000
# 5 0.000000 0.000000 0.000000 0.000000 0.027293 0.000000
# 6 0.000000 0.000000 0.000000 0.000000 0.000000 0.031915
#
#
# Mechanical properties :
#
#
# Convention : Reuss Voigt Hill
#
# Bulk Modulus (GPa) = 9.90532 12.89590 11.40061
# Shear Modulus (GPa) = 30.30003 36.94925 33.62464
#
# Velocity S-wave (km/s) = 3.82003 4.21841 4.02415
# Velocity P-wave (km/s) = 4.92213 5.47150 5.20407
#
# Compressibility (1/GPa) = 0.10095582
#
# Stress axis : x y z
#
# Youngs Moduli (GPa) = 28.62575 75.20053 33.21294
#
# Poissons Ratio (x) = 0.11572 -0.26801
# Poissons Ratio (y) = 0.04405 -0.15866
# Poissons Ratio (z) = -0.23100 -0.35924
#
# Static dielectric constant tensor:
#      x y z
#    x 1.681050 0.000000 0.000000 
#    y 0.000000 1.354030 0.000000 
#    z 0.000000 0.000000 1.732470 
# 
# From -- ./inp_files/4612.got.cif
#   From: 2010.05.17/outbox.cif.g08.bks.cpg/sg40_3_cif.got.tgz:4612.got - 2010.06.03 18:35:42.
