data_PCOD9365676
_publ_section_title
;
Structure prediction by ZEFSAII (Michael W. Deem and Ramdas Pophale) SiO2 
 PCOD9365676
Probable space group: A M A 2
;
_chemical_formula_sum "Si O2"
_cell_formula_units_Z 32
_cell_length_a 15.000000
_cell_length_b 9.000000
_cell_length_c 24.000000
_cell_angle_alpha 90.000000
_cell_angle_beta 90.000000
_cell_angle_gamma 90.000000
_cell_volume 3240.000000
_symmetry_space_group_name_H-M "A M A 2"
_symmetry_group_IT_number 40
_symmetry_cell_setting 'orthorhombic'
loop_
_space_group_symop_operation_xyz
x,y,z
-x,-y,z
1/2-x,y,z
1/2+x,-y,z
x,1/2+y,1/2+z
-x,1/2-y,1/2+z
1/2-x,1/2+y,1/2+z
1/2+x,1/2-y,1/2+z
loop_
_atom_site_type_symbol
_atom_site_label
_atom_site_fract_x
_atom_site_fract_y
_atom_site_fract_z
Si Si1 0.109911 0.849538 0.637560
Si Si2 0.588705 0.748993 0.653976
Si Si3 0.849881 0.914364 0.546985
Si Si4 0.093258 0.086261 0.973325
Si Si5 0.151591 0.531282 0.601257
Si Si6 0.528447 0.337556 0.939544
Si Si7 0.147005 0.543293 0.248142
Si Si8 0.645811 0.602691 0.368455
O O1 0.151406 0.689151 0.631089
O O2 0.005405 0.824246 0.642363
O O3 0.128039 0.932641 0.579020
O O4 0.138410 0.931460 0.694777
O O5 0.646718 0.811310 0.602119
O O6 0.589348 0.576876 0.637624
O O7 0.612328 0.805659 0.716518
O O8 0.750000 0.918376 0.524156
O O9 0.914101 0.862415 0.496859
O O10 0.061671 0.252062 0.958484
O O11 0.143076 0.016699 0.919671
O O12 0.131487 0.058318 0.035332
O O13 0.000000 0.000000 0.975305
O O14 0.250000 0.467152 0.604593
O O15 0.500000 0.500000 0.918160
O O16 0.583516 0.236320 0.894322
O O17 0.250000 0.571476 0.259577
O O18 0.114591 0.470663 0.308030
O O19 0.750000 0.649270 0.361285
#
# Coordination Sequence:
#
# PCOD9365676 Si02
#       8
#     8   8   8   8   8   8   8   8
#     4  11  22  36  56  84 119 152 186 231 289 350
#     4  11  21  34  56  85 114 148 193 239 284 339
#     4  11  20  34  56  83 117 155 193 230 284 350
#     4  10  21  36  58  85 117 155 197 242 294 353
#     4  12  22  35  55  84 121 152 186 233 291 346
#     4  11  22  37  59  89 122 156 199 249 298 353
#     4  10  21  40  62  82 107 146 195 238 283 345
#     4  10  22  42  64  84 113 156 202 246 297 356
#
# _framework density 9.8765429999999999
#
# number of rings (size 3 to 8) (size 9 to 14) (size 15 to 20)
#    0.000    1.250    0.000   10.125    0.000    3.000 
#    0.000    4.375    0.000    3.000    0.000    0.000 
#    0.000    0.000    0.000    0.000    0.000    0.000 
#
# Total GULP energy -178180.484505 kJ/mol
# GULP energy per Si atom -5568.140141 kJ/mol
# Density = 0.985406 g / cm^3
# Si number density = 9.876543 Si / 1000 Ang^3
#
#
#
# Elastic Constant Matrix: (Units=GPa)
#
#
# Indices 1 2 3 4 5 6 
#
# 1 83.0564 23.2920 14.4106 0.0000 0.0000 0.0000
# 2 23.2920 124.7808 41.3903 0.0000 0.0000 0.0000
# 3 14.4106 41.3903 143.2673 0.0000 0.0000 0.0000
# 4 0.0000 0.0000 0.0000 21.6261 0.0000 0.0000
# 5 0.0000 0.0000 0.0000 0.0000 24.6712 0.0000
# 6 0.0000 0.0000 0.0000 0.0000 0.0000 18.6425
#
#
#
# Elastic Compliance Matrix: (Units=1/GPa)
#
#
# Indices 1 2 3 4 5 6 
#
# 1 0.012761 -0.002164 -0.000659 0.000000 0.000000 0.000000
# 2 -0.002164 0.009230 -0.002449 0.000000 0.000000 0.000000
# 3 -0.000659 -0.002449 0.007754 0.000000 0.000000 0.000000
# 4 0.000000 0.000000 0.000000 0.046240 0.000000 0.000000
# 5 0.000000 0.000000 0.000000 0.000000 0.040533 0.000000
# 6 0.000000 0.000000 0.000000 0.000000 0.000000 0.053641
#
#
# Mechanical properties :
#
#
# Convention : Reuss Voigt Hill
#
# Bulk Modulus (GPa) = 52.07581 56.58781 54.33181
# Shear Modulus (GPa) = 26.72332 31.12208 28.92270
#
# Velocity S-wave (km/s) = 3.68213 3.97363 3.83065
# Velocity P-wave (km/s) = 6.67068 7.05427 6.86516
#
# Compressibility (1/GPa) = 0.01920278
#
# Stress axis : x y z
#
# Youngs Moduli (GPa) = 78.36373 108.33925 128.97025
#
# Poissons Ratio (x) = 0.23440 0.08493
# Poissons Ratio (y) = 0.16955 0.31585
# Poissons Ratio (z) = 0.05160 0.26533
#
# Static dielectric constant tensor:
#      x y z
#    x 1.785230 0.000000 0.000000 
#    y 0.000000 1.862520 0.000000 
#    z 0.000000 0.000000 1.675870 
# 
# From -- ./inp_files/24800.got.cif
#   From: 2010.05.17/outbox.ucp.g08.bks.cvg/sg40_13_cif.got.tgz:24800.got - 2010.06.11 16:26:39.
