data_PCOD9365753
_publ_section_title
;
Structure prediction by ZEFSAII (Michael W. Deem and Ramdas Pophale) SiO2 
 PCOD9365753
Probable space group: A B A 2
;
_chemical_formula_sum "Si O2"
_cell_formula_units_Z 64
_cell_length_a 15.895513
_cell_length_b 16.302127
_cell_length_c 12.026021
_cell_angle_alpha 90.000000
_cell_angle_beta 90.000000
_cell_angle_gamma 90.000000
_cell_volume 3116.310899
_symmetry_space_group_name_H-M "A B A 2"
_symmetry_group_IT_number 41
_symmetry_cell_setting 'orthorhombic'
loop_
_space_group_symop_operation_xyz
x,y,z
-x,-y,z
1/2-x,y,1/2+z
1/2+x,-y,1/2+z
x,1/2+y,1/2+z
-x,1/2-y,1/2+z
1/2-x,1/2+y,z
1/2+x,1/2-y,z
loop_
_atom_site_type_symbol
_atom_site_label
_atom_site_fract_x
_atom_site_fract_y
_atom_site_fract_z
Si Si1 0.567535 0.286126 0.954510
Si Si2 0.603287 0.871863 0.794489
Si Si3 0.593917 0.459026 0.064966
Si Si4 0.402936 0.835366 0.777066
Si Si5 0.904348 0.515945 0.925547
Si Si6 0.382470 0.863038 0.115062
Si Si7 0.615621 0.697351 0.850012
Si Si8 0.689639 0.623563 0.056883
O O1 0.613230 0.247091 0.846599
O O2 0.469322 0.291483 0.921917
O O3 0.594544 0.376774 0.991099
O O4 0.581224 0.217417 0.050922
O O5 0.617399 0.927825 0.687863
O O6 0.503903 0.848340 0.783878
O O7 0.645514 0.783649 0.799252
O O8 0.631124 0.926045 0.901029
O O9 0.500000 0.500000 0.064319
O O10 0.659424 0.530385 0.036787
O O11 0.366978 0.913292 0.846101
O O12 0.371846 0.839399 0.651616
O O13 0.000000 0.500000 0.887914
O O14 0.909260 0.556268 0.046331
O O15 0.404588 0.859511 0.244489
O O16 0.282134 0.864931 0.104122
O O17 0.682252 0.665462 0.937710
#
# Coordination Sequence:
#
# PCOD9365753 Si02
#       8
#     8   8   8   8   8   8   8   8
#     4  10  22  42  70  93 132 179 239 283 321 415
#     4  10  17  36  67  94 122 170 241 263 316 409
#     4  12  19  39  69 102 127 178 236 277 326 421
#     4   9  18  35  66  94 121 174 224 274 328 387
#     4   9  18  39  65  90 121 172 225 276 313 399
#     4  11  26  44  65 102 143 172 224 287 360 400
#     4  11  24  41  68 100 133 181 228 283 340 408
#     4  12  25  41  68  98 144 176 220 286 355 409
#
# _framework density 20.537102999999998
#
# number of rings (size 3 to 8) (size 9 to 14) (size 15 to 20)
#    0.000    1.500    5.000    1.125    5.250    0.000 
#    4.500    0.000    0.000    0.000    0.000    0.000 
#    0.000    0.000    0.000    0.000    0.000    0.000 
#
# Total GULP energy -178442.076401 kJ/mol
# GULP energy per Si atom -5576.314888 kJ/mol
# Density = 2.049036 g / cm^3
# Si number density = 20.537103 Si / 1000 Ang^3
#
#
#
# Elastic Constant Matrix: (Units=GPa)
#
#
# Indices 1 2 3 4 5 6 
#
# 1 54.4110 18.8756 15.3742 0.0000 0.0000 0.0000
# 2 18.8756 97.1543 41.0181 0.0000 0.0000 0.0000
# 3 15.3742 41.0181 93.6429 0.0000 0.0000 0.0000
# 4 0.0000 0.0000 0.0000 28.4672 0.0000 0.0000
# 5 0.0000 0.0000 0.0000 0.0000 10.7656 0.0000
# 6 0.0000 0.0000 0.0000 0.0000 0.0000 6.2757
#
#
#
# Elastic Compliance Matrix: (Units=1/GPa)
#
#
# Indices 1 2 3 4 5 6 
#
# 1 0.019990 -0.003065 -0.001939 0.000000 0.000000 0.000000
# 2 -0.003065 0.013098 -0.005234 0.000000 0.000000 0.000000
# 3 -0.001939 -0.005234 0.013290 0.000000 0.000000 0.000000
# 4 0.000000 0.000000 0.000000 0.035128 0.000000 0.000000
# 5 0.000000 0.000000 0.000000 0.000000 0.092888 0.000000
# 6 0.000000 0.000000 0.000000 0.000000 0.000000 0.159345
#
#
# Mechanical properties :
#
#
# Convention : Reuss Voigt Hill
#
# Bulk Modulus (GPa) = 38.60844 43.97157 41.29001
# Shear Modulus (GPa) = 13.77979 20.43106 17.10542
#
# Velocity S-wave (km/s) = 2.59312 3.15752 2.88914
# Velocity P-wave (km/s) = 5.27313 5.89496 5.59269
#
# Compressibility (1/GPa) = 0.02590107
#
# Stress axis : x y z
#
# Youngs Moduli (GPa) = 50.02530 76.34621 75.24461
#
# Poissons Ratio (x) = 0.23400 0.14593
# Poissons Ratio (y) = 0.15332 0.39384
# Poissons Ratio (z) = 0.09702 0.39961
#
# Static dielectric constant tensor:
#      x y z
#    x 1.756510 0.000000 0.000000 
#    y 0.000000 1.793470 0.000000 
#    z 0.000000 0.000000 1.768070 
# 
# From -- ./inp_files/6052.got.cif
#   From: 2010.05.17/outbox.cif.g08.bks.cpg/sg41_4_cif.got.tgz:6052.got - 2010.06.03 18:54:24.
