data_PCOD9365912
_publ_section_title
;
Structure prediction by ZEFSAII (Michael W. Deem and Ramdas Pophale) SiO2 
 PCOD9365912
Probable space group: A B A 2
;
_chemical_formula_sum "Si O2"
_cell_formula_units_Z 56
_cell_length_a 9.153306
_cell_length_b 18.281196
_cell_length_c 15.656428
_cell_angle_alpha 90.000000
_cell_angle_beta 90.000000
_cell_angle_gamma 90.000000
_cell_volume 2619.843032
_symmetry_space_group_name_H-M "A B A 2"
_symmetry_group_IT_number 41
_symmetry_cell_setting 'orthorhombic'
loop_
_space_group_symop_operation_xyz
x,y,z
-x,-y,z
1/2-x,y,1/2+z
1/2+x,-y,1/2+z
x,1/2+y,1/2+z
-x,1/2-y,1/2+z
1/2-x,1/2+y,z
1/2+x,1/2-y,z
loop_
_atom_site_type_symbol
_atom_site_label
_atom_site_fract_x
_atom_site_fract_y
_atom_site_fract_z
Si Si1 0.113248 0.438324 0.021230
Si Si2 0.574365 0.194893 0.147662
Si Si3 0.794758 0.347790 0.400425
Si Si4 0.689602 0.767637 0.060049
Si Si5 0.716726 0.194031 0.808424
Si Si6 0.390297 0.379286 0.963364
Si Si7 0.480046 0.582704 0.331877
O O1 0.103415 0.378839 0.095514
O O2 0.000000 0.500000 0.049879
O O3 0.288041 0.444679 0.001103
O O4 0.045735 0.417633 0.928532
O O5 0.402539 0.207000 0.141759
O O6 0.644945 0.256026 0.086886
O O7 0.665999 0.199890 0.233001
O O8 0.694921 0.322970 0.481215
O O9 0.828882 0.271525 0.350779
O O10 0.689708 0.396432 0.341250
O O11 0.941238 0.386198 0.435478
O O12 0.630347 0.689767 0.026900
O O13 0.805798 0.149066 0.879645
O O14 0.574302 0.145508 0.784989
O O15 0.500000 0.500000 0.298382
#
# Coordination Sequence:
#
# PCOD9365912 Si02
#       7
#     8   8   8   8   8   8   8
#     4   9  19  39  61  83 116 170 213 256 317 390
#     4  11  21  34  58  89 126 157 200 267 327 385
#     4  11  19  36  61  92 123 160 215 274 316 384
#     4  10  19  33  56  89 119 152 205 263 318 373
#     4  10  22  35  59  92 127 166 210 256 329 396
#     4   9  19  35  57  89 119 156 212 266 310 385
#     4  10  21  40  62  84 122 171 208 255 328 390
#
# _framework density 21.375325
#
# number of rings (size 3 to 8) (size 9 to 14) (size 15 to 20)
#    0.000    2.000    2.857    2.571    4.000    0.000 
#    0.000    7.857    0.000    6.857    0.000    0.000 
#    0.000    0.000    0.000    0.000    0.000    0.000 
#
# Total GULP energy -155951.432123 kJ/mol
# GULP energy per Si atom -5569.694004 kJ/mol
# Density = 2.132667 g / cm^3
# Si number density = 21.375325 Si / 1000 Ang^3
#
#
#
# Elastic Constant Matrix: (Units=GPa)
#
#
# Indices 1 2 3 4 5 6 
#
# 1 161.1151 65.8554 5.6602 0.0000 0.0000 0.0000
# 2 65.8554 64.5770 10.0173 0.0000 0.0000 0.0000
# 3 5.6602 10.0173 42.5685 0.0000 0.0000 0.0000
# 4 0.0000 0.0000 0.0000 7.2208 0.0000 0.0000
# 5 0.0000 0.0000 0.0000 0.0000 24.8611 0.0000
# 6 0.0000 0.0000 0.0000 0.0000 0.0000 22.9015
#
#
#
# Elastic Compliance Matrix: (Units=1/GPa)
#
#
# Indices 1 2 3 4 5 6 
#
# 1 0.010701 -0.011097 0.001189 0.000000 0.000000 0.000000
# 2 -0.011097 0.027580 -0.005015 0.000000 0.000000 0.000000
# 3 0.001189 -0.005015 0.024514 0.000000 0.000000 0.000000
# 4 0.000000 0.000000 0.000000 0.138489 0.000000 0.000000
# 5 0.000000 0.000000 0.000000 0.000000 0.040224 0.000000
# 6 0.000000 0.000000 0.000000 0.000000 0.000000 0.043665
#
#
# Mechanical properties :
#
#
# Convention : Reuss Voigt Hill
#
# Bulk Modulus (GPa) = 30.35076 47.92514 39.13795
# Shear Modulus (GPa) = 15.33737 23.44519 19.39128
#
# Velocity S-wave (km/s) = 2.68157 3.31544 3.01521
# Velocity P-wave (km/s) = 4.88033 6.09308 5.52011
#
# Compressibility (1/GPa) = 0.03294811
#
# Stress axis : x y z
#
# Youngs Moduli (GPa) = 93.44998 36.25807 40.79373
#
# Poissons Ratio (x) = 0.40236 -0.04848
# Poissons Ratio (y) = 1.03703 0.20457
# Poissons Ratio (z) = -0.11107 0.18182
#
# Static dielectric constant tensor:
#      x y z
#    x 1.809610 0.000000 0.000000 
#    y 0.000000 1.832870 0.000000 
#    z 0.000000 0.000000 1.777660 
# 
# From -- ./inp_files/9801.got.cif
#   From: 2010.05.17/outbox.cif.g08.bks.cpg/sg41_5_cif.got.tgz:9801.got - 2010.06.03 18:54:24.
