data_PCOD9365656
_publ_section_title
;
Structure prediction by ZEFSAII (Michael W. Deem and Ramdas Pophale) SiO2 
 PCOD9365656
Probable space group: A M A 2
;
_chemical_formula_sum "Si O2"
_cell_formula_units_Z 32
_cell_length_a 9.000000
_cell_length_b 21.000000
_cell_length_c 18.000000
_cell_angle_alpha 90.000000
_cell_angle_beta 90.000000
_cell_angle_gamma 90.000000
_cell_volume 3402.000000
_symmetry_space_group_name_H-M "A M A 2"
_symmetry_group_IT_number 40
_symmetry_cell_setting 'orthorhombic'
loop_
_space_group_symop_operation_xyz
x,y,z
-x,-y,z
1/2-x,y,z
1/2+x,-y,z
x,1/2+y,1/2+z
-x,1/2-y,1/2+z
1/2-x,1/2+y,1/2+z
1/2+x,1/2-y,1/2+z
loop_
_atom_site_type_symbol
_atom_site_label
_atom_site_fract_x
_atom_site_fract_y
_atom_site_fract_z
Si Si1 0.421900 0.563294 0.331050
Si Si2 0.930037 0.311011 0.070294
Si Si3 0.070550 0.569479 0.799174
Si Si4 0.420257 0.563253 0.152645
Si Si5 0.571838 0.568738 0.642769
Si Si6 0.920053 0.306680 0.385673
Si Si7 0.068448 0.330027 0.908172
Si Si8 0.920833 0.819353 0.063673
O O1 0.500000 0.500000 0.359421
O O2 0.250000 0.561452 0.355620
O O3 0.425659 0.562679 0.241812
O O4 0.494026 0.629514 0.356176
O O5 0.750000 0.305451 0.067158
O O6 0.975176 0.369294 0.123126
O O7 0.001782 0.244257 0.094508
O O8 0.999100 0.327452 0.990113
O O9 0.250000 0.567733 0.797556
O O10 0.000000 0.500000 0.810323
O O11 0.002610 0.590902 0.720196
O O12 0.005024 0.613704 0.862855
O O13 0.500000 0.500000 0.124556
O O14 0.250000 0.558612 0.128974
O O15 0.500000 0.500000 0.626509
O O16 0.750000 0.564027 0.649139
O O17 0.519125 0.619946 0.583219
O O18 0.750000 0.307698 0.356865
O O19 0.977596 0.236615 0.368892
O O20 0.916196 0.311330 0.474705
O O21 0.250000 0.332955 0.911245
O O22 0.750000 0.826379 0.089225
#
# Coordination Sequence:
#
# PCOD9365656 Si02
#       8
#     8   8   8   8   8   8   8   8
#     4   9  17  33  52  74 101 133 170 211 255 306
#     4  10  20  35  53  78 108 143 184 227 271 321
#     4  11  22  38  58  82 110 141 177 222 270 326
#     4   9  19  33  52  75 103 136 174 217 265 316
#     4  11  22  38  58  81 109 143 180 223 271 326
#     4   8  17  33  54  76 105 141 177 214 260 315
#     4  10  20  36  56  79 106 142 180 221 271 322
#     4  10  20  36  55  79 109 143 180 223 272 324
#
# _framework density 9.4062319999999993
#
# number of rings (size 3 to 8) (size 9 to 14) (size 15 to 20)
#    0.000    2.250    0.000    4.875    0.000    3.000 
#    0.000    8.750    0.000    0.000    0.000    0.000 
#    0.000    0.000    0.000    0.000    0.000    0.000 
#
# Total GULP energy -178329.071836 kJ/mol
# GULP energy per Si atom -5572.783495 kJ/mol
# Density = 0.938482 g / cm^3
# Si number density = 9.406232 Si / 1000 Ang^3
#
#
#
# Elastic Constant Matrix: (Units=GPa)
#
#
# Indices 1 2 3 4 5 6 
#
# 1 99.4901 14.4638 8.3781 0.0000 0.0000 0.0000
# 2 14.4638 -20.6145 -2.0304 0.0000 0.0000 0.0000
# 3 8.3781 -2.0304 -8.5342 0.0000 0.0000 0.0000
# 4 0.0000 0.0000 0.0000 35.9286 0.0000 0.0000
# 5 0.0000 0.0000 0.0000 0.0000 20.4927 0.0000
# 6 0.0000 0.0000 0.0000 0.0000 0.0000 30.1968
#
#
#
# Elastic Compliance Matrix: (Units=1/GPa)
#
#
# Indices 1 2 3 4 5 6 
#
# 1 0.008663 0.005366 0.007227 0.000000 0.000000 0.000000
# 2 0.005366 -0.046350 0.016295 0.000000 0.000000 0.000000
# 3 0.007227 0.016295 -0.113957 0.000000 0.000000 0.000000
# 4 0.000000 0.000000 0.000000 0.027833 0.000000 0.000000
# 5 0.000000 0.000000 0.000000 0.000000 0.048798 0.000000
# 6 0.000000 0.000000 0.000000 0.000000 0.000000 0.033116
#
#
# Mechanical properties :
#
#
# Convention : Reuss Voigt Hill
#
# Bulk Modulus (GPa) = -10.65340 12.44050 0.89355
# Shear Modulus (GPa) = -38.17871 20.62560 -8.77655
#
# Velocity S-wave (km/s) = -4.50981 3.31475 -2.16227
# Velocity P-wave (km/s) = 5.72653 4.61274 2.39956
#
# Compressibility (1/GPa) = -0.09386678
#
# Stress axis : x y z
#
# Youngs Moduli (GPa) = 115.43995 -21.57520 -8.77524
#
# Poissons Ratio (x) = 0.11577 0.06342
# Poissons Ratio (y) = -0.61946 0.14299
# Poissons Ratio (z) = -0.83433 0.35157
#
# Static dielectric constant tensor:
#      x y z
#    x 1.639900 0.000000 0.000000 
#    y 0.000000 1.703700 0.000000 
#    z 0.000000 0.000000 1.653030 
# 
# From -- ./inp_files/19644.got.cif
#   From: 2010.05.17/outbox.ucp.g08.bks.cvg/sg40_10_cif.got.tgz:19644.got - 2010.06.11 16:26:39.
