data_PCOD9365757
_publ_section_title
;
Structure prediction by ZEFSAII (Michael W. Deem and Ramdas Pophale) SiO2 
 PCOD9365757
Probable space group: A B A 2
;
_chemical_formula_sum "Si O2"
_cell_formula_units_Z 64
_cell_length_a 9.189856
_cell_length_b 16.516057
_cell_length_c 19.660433
_cell_angle_alpha 90.000000
_cell_angle_beta 90.000000
_cell_angle_gamma 90.000000
_cell_volume 2984.064168
_symmetry_space_group_name_H-M "A B A 2"
_symmetry_group_IT_number 41
_symmetry_cell_setting 'orthorhombic'
loop_
_space_group_symop_operation_xyz
x,y,z
-x,-y,z
1/2-x,y,1/2+z
1/2+x,-y,1/2+z
x,1/2+y,1/2+z
-x,1/2-y,1/2+z
1/2-x,1/2+y,z
1/2+x,1/2-y,z
loop_
_atom_site_type_symbol
_atom_site_label
_atom_site_fract_x
_atom_site_fract_y
_atom_site_fract_z
Si Si1 0.845612 0.085388 0.098210
Si Si2 0.283363 0.766302 0.048433
Si Si3 0.955049 0.317193 0.955703
Si Si4 0.398459 0.895046 0.437891
Si Si5 0.780274 0.929386 0.904879
Si Si6 0.332520 0.598777 0.128318
Si Si7 0.591377 0.222576 0.324999
Si Si8 0.194033 0.152781 0.765581
O O1 0.751551 0.167339 0.107232
O O2 0.993833 0.092331 0.141270
O O3 0.790642 0.992504 0.103558
O O4 0.883949 0.097467 0.018749
O O5 0.320984 0.678452 0.080158
O O6 0.151703 0.743229 0.997443
O O7 0.402201 0.811589 0.001348
O O8 0.860372 0.398758 0.946019
O O9 0.980218 0.285754 0.879034
O O10 0.573021 0.881576 0.427526
O O11 0.334531 0.837350 0.379299
O O12 0.330286 0.980281 0.415833
O O13 0.762863 0.909255 0.825679
O O14 0.233744 0.617621 0.193024
O O15 0.472047 0.177768 0.279468
O O16 0.706935 0.269060 0.279818
#
# Coordination Sequence:
#
# PCOD9365757 Si02
#       8
#     8   8   8   8   8   8   8   8
#     4  11  23  41  72  97 130 186 221 289 343 426
#     4  12  22  39  69 101 132 180 223 293 353 411
#     4  11  20  37  67 101 134 162 229 291 354 421
#     4  10  17  38  66  98 123 170 225 271 355 405
#     4   9  19  35  64  94 130 171 213 284 341 403
#     4  11  24  44  64  97 136 186 239 266 344 427
#     4  10  20  37  65  94 126 172 219 273 344 406
#     4  10  23  39  61  91 131 176 220 273 320 415
#
# _framework density 21.44726
#
# number of rings (size 3 to 8) (size 9 to 14) (size 15 to 20)
#    0.000    1.500    2.500    5.250    1.750    0.000 
#    2.250    2.500    5.500    0.000    0.000    0.000 
#    0.000    0.000    0.000    0.000    0.000    0.000 
#
# Total GULP energy -178232.671784 kJ/mol
# GULP energy per Si atom -5569.770993 kJ/mol
# Density = 2.139844 g / cm^3
# Si number density = 21.447260 Si / 1000 Ang^3
#
#
#
# Elastic Constant Matrix: (Units=GPa)
#
#
# Indices 1 2 3 4 5 6 
#
# 1 55.3234 15.2564 14.3031 0.0000 0.0000 0.0000
# 2 15.2564 90.0867 24.6444 0.0000 0.0000 0.0000
# 3 14.3031 24.6444 75.2573 0.0000 0.0000 0.0000
# 4 0.0000 0.0000 0.0000 30.7773 0.0000 0.0000
# 5 0.0000 0.0000 0.0000 0.0000 25.1260 0.0000
# 6 0.0000 0.0000 0.0000 0.0000 0.0000 25.6765
#
#
#
# Elastic Compliance Matrix: (Units=1/GPa)
#
#
# Indices 1 2 3 4 5 6 
#
# 1 0.019515 -0.002516 -0.002885 0.000000 0.000000 0.000000
# 2 -0.002516 0.012517 -0.003621 0.000000 0.000000 0.000000
# 3 -0.002885 -0.003621 0.015022 0.000000 0.000000 0.000000
# 4 0.000000 0.000000 0.000000 0.032491 0.000000 0.000000
# 5 0.000000 0.000000 0.000000 0.000000 0.039799 0.000000
# 6 0.000000 0.000000 0.000000 0.000000 0.000000 0.038946
#
#
# Mechanical properties :
#
#
# Convention : Reuss Voigt Hill
#
# Bulk Modulus (GPa) = 34.47009 36.56393 35.51701
# Shear Modulus (GPa) = 26.88107 27.41352 27.14729
#
# Velocity S-wave (km/s) = 3.54412 3.57905 3.56163
# Velocity P-wave (km/s) = 5.73190 5.84506 5.78875
#
# Compressibility (1/GPa) = 0.02901065
#
# Stress axis : x y z
#
# Youngs Moduli (GPa) = 51.24215 79.89148 66.56992
#
# Poissons Ratio (x) = 0.20098 0.19207
# Poissons Ratio (y) = 0.12891 0.24104
# Poissons Ratio (z) = 0.14784 0.28927
#
# Static dielectric constant tensor:
#      x y z
#    x 1.856530 0.000000 0.000000 
#    y 0.000000 1.947390 0.000000 
#    z 0.000000 0.000000 1.765750 
# 
# From -- ./inp_files/11294.got.cif
#   From: 2010.05.17/outbox.cif.g08.bks.cpg/sg41_6_cif.got.tgz:11294.got - 2010.06.03 18:54:24.
