data_PCOD9365615
_publ_section_title
;
Structure prediction by ZEFSAII (Michael W. Deem and Ramdas Pophale) SiO2 
 PCOD9365615
Probable space group: A M A 2
;
_chemical_formula_sum "Si O2"
_cell_formula_units_Z 24
_cell_length_a 9.000000
_cell_length_b 18.000000
_cell_length_c 18.000000
_cell_angle_alpha 90.000000
_cell_angle_beta 90.000000
_cell_angle_gamma 90.000000
_cell_volume 2916.000000
_symmetry_space_group_name_H-M "A M A 2"
_symmetry_group_IT_number 40
_symmetry_cell_setting 'orthorhombic'
loop_
_space_group_symop_operation_xyz
x,y,z
-x,-y,z
1/2-x,y,z
1/2+x,-y,z
x,1/2+y,1/2+z
-x,1/2-y,1/2+z
1/2-x,1/2+y,1/2+z
1/2+x,1/2-y,1/2+z
loop_
_atom_site_type_symbol
_atom_site_label
_atom_site_fract_x
_atom_site_fract_y
_atom_site_fract_z
Si Si1 0.925658 0.704024 0.732020
Si Si2 0.571868 0.195362 0.837160
Si Si3 0.572062 0.183950 0.448917
Si Si4 0.073364 0.921232 0.952677
Si Si5 0.929135 0.919861 0.337040
Si Si6 0.574331 0.714664 0.557298
O O1 0.750000 0.700872 0.751005
O O2 0.941229 0.699761 0.644031
O O3 0.998216 0.780922 0.760381
O O4 0.011124 0.637859 0.774657
O O5 0.750000 0.207832 0.836938
O O6 0.492707 0.252321 0.894049
O O7 0.543205 0.114744 0.871756
O O8 0.750000 0.178807 0.445144
O O9 0.494453 0.110974 0.415264
O O10 0.516226 0.214271 0.528017
O O11 0.250000 0.928999 0.960139
O O12 0.025682 0.858997 0.012390
O O13 0.000000 0.000000 0.963467
O O14 0.750000 0.921248 0.337749
O O15 0.000000 0.000000 0.322349
O O16 0.750000 0.726522 0.540148
#
# Coordination Sequence:
#
# PCOD9365615 Si02
#       6
#     8   8   8   8   8   8
#     4  10  19  32  51  74  99 128 163 200 241 290
#     4   9  17  31  48  67  94 126 160 200 243 283
#     4  10  18  30  50  73  94 123 166 204 237 285
#     4   9  18  31  47  68  95 126 157 192 235 280
#     4  11  21  34  51  72 101 132 164 202 246 293
#     4   9  19  34  49  70 101 131 158 196 244 289
#
# _framework density 8.2304530000000007
#
# number of rings (size 3 to 8) (size 9 to 14) (size 15 to 20)
#    0.000    2.333    0.000    7.000    0.000    5.333 
#    0.000    1.667    0.000    1.000    0.000    2.333 
#    0.000    0.000    0.000    0.000    0.000    0.000 
#
# Total GULP energy -133666.313140 kJ/mol
# GULP energy per Si atom -5569.429714 kJ/mol
# Density = 0.821172 g / cm^3
# Si number density = 8.230453 Si / 1000 Ang^3
#
#
#
# Elastic Constant Matrix: (Units=GPa)
#
#
# Indices 1 2 3 4 5 6 
#
# 1 118.7360 31.4763 50.6001 0.0000 0.0000 0.0000
# 2 31.4763 6.7743 62.6262 0.0000 0.0000 0.0000
# 3 50.6001 62.6262 75.4506 0.0000 0.0000 0.0000
# 4 0.0000 0.0000 0.0000 15.7120 0.0000 0.0000
# 5 0.0000 0.0000 0.0000 0.0000 26.8533 0.0000
# 6 0.0000 0.0000 0.0000 0.0000 0.0000 28.5695
#
#
#
# Elastic Compliance Matrix: (Units=1/GPa)
#
#
# Indices 1 2 3 4 5 6 
#
# 1 0.011461 -0.002668 -0.005472 0.000000 0.000000 0.000000
# 2 -0.002668 -0.021499 0.019634 0.000000 0.000000 0.000000
# 3 -0.005472 0.019634 0.000626 0.000000 0.000000 0.000000
# 4 0.000000 0.000000 0.000000 0.063646 0.000000 0.000000
# 5 0.000000 0.000000 0.000000 0.000000 0.037239 0.000000
# 6 0.000000 0.000000 0.000000 0.000000 0.000000 0.035002
#
#
# Mechanical properties :
#
#
# Convention : Reuss Voigt Hill
#
# Bulk Modulus (GPa) = 73.65309 54.48511 64.06910
# Shear Modulus (GPa) = 46.29112 17.97753 32.13432
#
# Velocity S-wave (km/s) = 5.30876 3.30833 4.42312
# Velocity P-wave (km/s) = 9.07847 6.91122 8.06795
#
# Compressibility (1/GPa) = 0.01357716
#
# Stress axis : x y z
#
# Youngs Moduli (GPa) = 87.25119 -46.51302 1596.57537
#
# Poissons Ratio (x) = -0.12409 8.73624
# Poissons Ratio (y) = 0.23278 -31.34759
# Poissons Ratio (z) = 0.47743 0.91325
#
# Static dielectric constant tensor:
#      x y z
#    x 1.543230 0.000000 0.000000 
#    y 0.000000 1.558240 0.000000 
#    z 0.000000 0.000000 1.605370 
# 
# From -- ./inp_files/19307.got.cif
#   From: 2010.05.17/outbox.ucp.g08.bks.cvg/sg40_10_cif.got.tgz:19307.got - 2010.06.11 16:26:39.
