data_PCOD9365173
_publ_section_title
;
Structure prediction by ZEFSAII (Michael W. Deem and Ramdas Pophale) SiO2 
 PCOD9365173
Probable space group: A M A 2
;
_chemical_formula_sum "Si O2"
_cell_formula_units_Z 48
_cell_length_a 16.570741
_cell_length_b 8.806482
_cell_length_c 15.931993
_cell_angle_alpha 90.000000
_cell_angle_beta 90.000000
_cell_angle_gamma 90.000000
_cell_volume 2324.954661
_symmetry_space_group_name_H-M "A M A 2"
_symmetry_group_IT_number 40
_symmetry_cell_setting 'orthorhombic'
loop_
_space_group_symop_operation_xyz
x,y,z
-x,-y,z
1/2-x,y,z
1/2+x,-y,z
x,1/2+y,1/2+z
-x,1/2-y,1/2+z
1/2-x,1/2+y,1/2+z
1/2+x,1/2-y,1/2+z
loop_
_atom_site_type_symbol
_atom_site_label
_atom_site_fract_x
_atom_site_fract_y
_atom_site_fract_z
Si Si1 0.845288 0.105828 0.115220
Si Si2 0.592207 0.940059 0.619007
Si Si3 0.911713 0.435377 0.459106
Si Si4 0.089147 0.426287 0.947617
Si Si5 0.154002 0.919027 0.790103
Si Si6 0.346447 0.573656 0.780391
O O1 0.750000 0.144887 0.125069
O O2 0.897046 0.259658 0.111510
O O3 0.873641 0.009934 0.195940
O O4 0.855972 0.005057 0.031994
O O5 0.500000 0.000000 0.624086
O O6 0.627808 0.008487 0.532909
O O7 0.634987 0.999089 0.702683
O O8 0.913509 0.254067 0.456617
O O9 0.884874 0.495516 0.368378
O O10 0.000000 0.500000 0.477404
O O11 0.132448 0.479234 0.863089
O O12 0.000000 0.500000 0.942969
O O13 0.250000 0.916149 0.802908
O O14 0.122090 0.745763 0.787097
O O15 0.250000 0.584859 0.773785
#
# Coordination Sequence:
#
# PCOD9365173 Si02
#       6
#     8   8   8   8   8   8
#     4  11  24  43  66  96 131 171 218 273 332 393
#     4  11  23  41  63  93 129 168 215 266 323 385
#     4  12  24  41  65  93 126 165 213 268 323 387
#     4  11  24  41  62  90 124 163 209 259 319 382
#     4  11  23  41  64  93 127 166 211 263 322 388
#     4  10  23  41  62  89 124 163 207 257 316 383
#
# _framework density 20.645564
#
# number of rings (size 3 to 8) (size 9 to 14) (size 15 to 20)
#    0.000    1.000    0.000    7.500    0.000    7.333 
#    0.000    0.000    0.000    0.000    0.000    0.000 
#    0.000    0.000    0.000    0.000    0.000    0.000 
#
# Total GULP energy -134262.988640 kJ/mol
# GULP energy per Si atom -5594.291193 kJ/mol
# Density = 2.059857 g / cm^3
# Si number density = 20.645564 Si / 1000 Ang^3
#
#
#
# Elastic Constant Matrix: (Units=GPa)
#
#
# Indices 1 2 3 4 5 6 
#
# 1 32.8718 15.4847 -3.0670 0.0000 0.0000 0.0000
# 2 15.4847 207.7062 73.5292 0.0000 0.0000 0.0000
# 3 -3.0670 73.5292 155.9726 0.0000 0.0000 0.0000
# 4 0.0000 0.0000 0.0000 46.3959 0.0000 0.0000
# 5 0.0000 0.0000 0.0000 0.0000 19.3397 0.0000
# 6 0.0000 0.0000 0.0000 0.0000 0.0000 25.1934
#
#
#
# Elastic Compliance Matrix: (Units=1/GPa)
#
#
# Indices 1 2 3 4 5 6 
#
# 1 0.032098 -0.003140 0.002112 0.000000 0.000000 0.000000
# 2 -0.003140 0.006086 -0.002931 0.000000 0.000000 0.000000
# 3 0.002112 -0.002931 0.007835 0.000000 0.000000 0.000000
# 4 0.000000 0.000000 0.000000 0.021554 0.000000 0.000000
# 5 0.000000 0.000000 0.000000 0.000000 0.051707 0.000000
# 6 0.000000 0.000000 0.000000 0.000000 0.000000 0.039693
#
#
# Mechanical properties :
#
#
# Convention : Reuss Voigt Hill
#
# Bulk Modulus (GPa) = 26.24748 63.16050 44.70399
# Shear Modulus (GPa) = 27.84103 38.89272 33.36687
#
# Velocity S-wave (km/s) = 3.67621 4.34502 4.02453
# Velocity P-wave (km/s) = 5.54620 7.47204 6.57996
#
# Compressibility (1/GPa) = 0.03809890
#
# Stress axis : x y z
#
# Youngs Moduli (GPa) = 31.15502 164.30659 127.63866
#
# Poissons Ratio (x) = 0.51600 -0.26953
# Poissons Ratio (y) = 0.09784 0.37410
# Poissons Ratio (z) = -0.06579 0.48157
#
# Static dielectric constant tensor:
#      x y z
#    x 1.742000 0.000000 0.000000 
#    y 0.000000 1.721630 0.000000 
#    z 0.000000 0.000000 1.711020 
# 
# From -- ./inp_files/17653.got.cif
#   From: 2010.05.17/outbox.cif.g08.bks.cpg/sg40_9_cif.got.tgz:17653.got - 2010.06.03 18:35:42.
