data_PCOD9365547
_publ_section_title
;
Structure prediction by ZEFSAII (Michael W. Deem and Ramdas Pophale) SiO2 
 PCOD9365547
Probable space group: A M A 2
;
_chemical_formula_sum "Si O2"
_cell_formula_units_Z 40
_cell_length_a 18.541157
_cell_length_b 7.815915
_cell_length_c 12.462766
_cell_angle_alpha 90.000000
_cell_angle_beta 90.000000
_cell_angle_gamma 90.000000
_cell_volume 1806.055533
_symmetry_space_group_name_H-M "A M A 2"
_symmetry_group_IT_number 40
_symmetry_cell_setting 'orthorhombic'
loop_
_space_group_symop_operation_xyz
x,y,z
-x,-y,z
1/2-x,y,z
1/2+x,-y,z
x,1/2+y,1/2+z
-x,1/2-y,1/2+z
1/2-x,1/2+y,1/2+z
1/2+x,1/2-y,1/2+z
loop_
_atom_site_type_symbol
_atom_site_label
_atom_site_fract_x
_atom_site_fract_y
_atom_site_fract_z
Si Si1 0.165550 0.794244 0.037870
Si Si2 0.335081 0.166628 0.773938
Si Si3 0.461634 0.316304 0.904345
Si Si4 0.571524 0.894723 0.109859
Si Si5 0.605340 0.207751 0.820844
O O1 0.250000 0.827312 0.031712
O O2 0.151072 0.691367 0.146931
O O3 0.122540 0.971048 0.049957
O O4 0.139722 0.709532 0.927592
O O5 0.250000 0.196281 0.794030
O O6 0.387322 0.293419 0.839709
O O7 0.356855 0.974145 0.804531
O O8 0.500000 0.500000 0.901306
O O9 0.520550 0.193680 0.847444
O O10 0.450374 0.251233 0.025413
O O11 0.610154 0.817620 0.213290
O O12 0.500000 0.000000 0.142421
#
# Coordination Sequence:
#
# PCOD9365547 Si02
#       5
#     8   8   8   8   8
#     4  11  25  47  71 103 147 190 238 295 359 429
#     4  11  25  49  76 107 148 191 238 299 366 433
#     4  12  26  45  77 110 144 192 245 302 358 431
#     4  12  25  47  73 105 143 190 241 301 361 422
#     4  12  25  44  75 107 145 185 242 294 362 430
#
# _framework density 22.147711999999999
#
# number of rings (size 3 to 8) (size 9 to 14) (size 15 to 20)
#    0.000    0.400    4.000    4.200    2.800    1.600 
#    0.000    2.000    0.000    0.000    0.000    0.000 
#    0.000    0.000    0.000    0.000    0.000    0.000 
#
# Total GULP energy -111995.609060 kJ/mol
# GULP energy per Si atom -5599.780453 kJ/mol
# Density = 2.209730 g / cm^3
# Si number density = 22.147712 Si / 1000 Ang^3
#
#
#
# Elastic Constant Matrix: (Units=GPa)
#
#
# Indices 1 2 3 4 5 6 
#
# 1 115.7148 45.1696 50.1139 0.0000 0.0000 0.0000
# 2 45.1696 80.1370 50.7996 0.0000 0.0000 0.0000
# 3 50.1139 50.7996 148.9742 0.0000 0.0000 0.0000
# 4 0.0000 0.0000 0.0000 18.9950 0.0000 0.0000
# 5 0.0000 0.0000 0.0000 0.0000 43.0141 0.0000
# 6 0.0000 0.0000 0.0000 0.0000 0.0000 12.6322
#
#
#
# Elastic Compliance Matrix: (Units=1/GPa)
#
#
# Indices 1 2 3 4 5 6 
#
# 1 0.011587 -0.005180 -0.002131 0.000000 0.000000 0.000000
# 2 -0.005180 0.018236 -0.004476 0.000000 0.000000 0.000000
# 3 -0.002131 -0.004476 0.008956 0.000000 0.000000 0.000000
# 4 0.000000 0.000000 0.000000 0.052645 0.000000 0.000000
# 5 0.000000 0.000000 0.000000 0.000000 0.023248 0.000000
# 6 0.000000 0.000000 0.000000 0.000000 0.000000 0.079163
#
#
# Mechanical properties :
#
#
# Convention : Reuss Voigt Hill
#
# Bulk Modulus (GPa) = 65.77183 70.77691 68.27437
# Shear Modulus (GPa) = 22.47422 28.17778 25.32600
#
# Velocity S-wave (km/s) = 3.18896 3.57075 3.38524
# Velocity P-wave (km/s) = 6.58184 7.00189 6.79511
#
# Compressibility (1/GPa) = 0.01520408
#
# Stress axis : x y z
#
# Youngs Moduli (GPa) = 86.30336 54.83790 111.65950
#
# Poissons Ratio (x) = 0.28406 0.23800
# Poissons Ratio (y) = 0.44705 0.49976
# Poissons Ratio (z) = 0.18395 0.24544
#
# Static dielectric constant tensor:
#      x y z
#    x 1.796260 0.000000 0.000000 
#    y 0.000000 1.852570 0.000000 
#    z 0.000000 0.000000 1.831140 
# 
# From -- ./inp_files/12696.got.cif
#   From: 2010.05.17/outbox.cif.g08.bks.cpg/sg40_7_cif.got.tgz:12696.got - 2010.06.03 18:35:42.
