data_PCOD9365895
_publ_section_title
;
Structure prediction by ZEFSAII (Michael W. Deem and Ramdas Pophale) SiO2 
 PCOD9365895
Probable space group: A B A 2
;
_chemical_formula_sum "Si O2"
_cell_formula_units_Z 64
_cell_length_a 22.174847
_cell_length_b 12.783872
_cell_length_c 12.835971
_cell_angle_alpha 90.000000
_cell_angle_beta 90.000000
_cell_angle_gamma 90.000000
_cell_volume 3638.746266
_symmetry_space_group_name_H-M "A B A 2"
_symmetry_group_IT_number 41
_symmetry_cell_setting 'orthorhombic'
loop_
_space_group_symop_operation_xyz
x,y,z
-x,-y,z
1/2-x,y,1/2+z
1/2+x,-y,1/2+z
x,1/2+y,1/2+z
-x,1/2-y,1/2+z
1/2-x,1/2+y,z
1/2+x,1/2-y,z
loop_
_atom_site_type_symbol
_atom_site_label
_atom_site_fract_x
_atom_site_fract_y
_atom_site_fract_z
Si Si1 0.060373 0.765267 0.004850
Si Si2 0.944078 0.920703 0.672355
Si Si3 0.318840 0.504929 0.596348
Si Si4 0.821927 0.823586 0.414799
Si Si5 0.753643 0.617438 0.937115
Si Si6 0.792348 0.986659 0.245063
Si Si7 0.042916 0.102877 0.911507
Si Si8 0.864530 0.024674 0.038150
O O1 0.051475 0.678561 0.094621
O O2 0.093801 0.871542 0.042200
O O3 0.109721 0.718617 0.924299
O O4 0.997790 0.802279 0.953878
O O5 0.885425 0.987474 0.640842
O O6 0.938146 0.882243 0.791644
O O7 0.000000 0.000000 0.663767
O O8 0.313365 0.596217 0.510223
O O9 0.299290 0.401236 0.533160
O O10 0.271551 0.523574 0.687868
O O11 0.773570 0.731907 0.427001
O O12 0.810472 0.884755 0.309096
O O13 0.784429 0.577573 0.831315
O O14 0.694420 0.547968 0.966863
O O15 0.840030 0.006090 0.153774
O O16 0.000000 0.000000 0.910320
O O17 0.097710 0.069315 0.986606
#
# Coordination Sequence:
#
# PCOD9365895 Si02
#       8
#     8   8   8   8   8   8   8   8
#     4   9  19  36  54  74 105 140 176 219 264 313
#     4  10  20  36  55  75 102 139 179 220 264 316
#     4   9  19  35  51  74 105 135 170 215 262 315
#     4   9  19  34  52  77 109 137 170 217 266 317
#     4   9  18  33  52  74 103 137 166 205 264 318
#     4  10  19  32  54  80 103 133 173 217 264 315
#     4   9  18  34  54  74 100 136 176 214 257 311
#     4   9  18  34  53  76 104 135 171 213 260 317
#
# _framework density 17.588474999999999
#
# number of rings (size 3 to 8) (size 9 to 14) (size 15 to 20)
#    0.000    2.750    0.000    0.750    0.000    6.000 
#    0.000    8.750    0.000    3.000    0.000    0.000 
#    0.000    0.000    0.000    0.000    0.000    0.000 
#
# Total GULP energy -178335.649494 kJ/mol
# GULP energy per Si atom -5572.989047 kJ/mol
# Density = 1.754844 g / cm^3
# Si number density = 17.588475 Si / 1000 Ang^3
#
#
#
# Elastic Constant Matrix: (Units=GPa)
#
#
# Indices 1 2 3 4 5 6 
#
# 1 97.5343 33.5709 63.9979 0.0000 0.0000 0.0000
# 2 33.5709 53.1044 35.9452 0.0000 0.0000 0.0000
# 3 63.9979 35.9452 126.1109 0.0000 0.0000 0.0000
# 4 0.0000 0.0000 0.0000 5.5546 0.0000 0.0000
# 5 0.0000 0.0000 0.0000 0.0000 24.6494 0.0000
# 6 0.0000 0.0000 0.0000 0.0000 0.0000 18.3822
#
#
#
# Elastic Compliance Matrix: (Units=1/GPa)
#
#
# Indices 1 2 3 4 5 6 
#
# 1 0.016786 -0.006004 -0.006807 0.000000 0.000000 0.000000
# 2 -0.006004 0.025480 -0.004216 0.000000 0.000000 0.000000
# 3 -0.006807 -0.004216 0.012586 0.000000 0.000000 0.000000
# 4 0.000000 0.000000 0.000000 0.180030 0.000000 0.000000
# 5 0.000000 0.000000 0.000000 0.000000 0.040569 0.000000
# 6 0.000000 0.000000 0.000000 0.000000 0.000000 0.054401
#
#
# Mechanical properties :
#
#
# Convention : Reuss Voigt Hill
#
# Bulk Modulus (GPa) = 48.08183 60.41973 54.25078
# Shear Modulus (GPa) = 13.48302 19.26627 16.37465
#
# Velocity S-wave (km/s) = 2.77173 3.31326 3.05452
# Velocity P-wave (km/s) = 6.13513 7.00453 6.58419
#
# Compressibility (1/GPa) = 0.02079788
#
# Stress axis : x y z
#
# Youngs Moduli (GPa) = 59.57403 39.24683 79.45644
#
# Poissons Ratio (x) = 0.23563 0.54087
# Poissons Ratio (y) = 0.35768 0.33496
# Poissons Ratio (z) = 0.40552 0.16545
#
# Static dielectric constant tensor:
#      x y z
#    x 1.605390 0.000000 0.000000 
#    y 0.000000 1.608810 0.000000 
#    z 0.000000 0.000000 1.584940 
# 
# From -- ./inp_files/6448.got.cif
#   From: 2010.05.17/outbox.cif.g08.bks.cpg/sg41_4_cif.got.tgz:6448.got - 2010.06.03 18:54:24.
