data_PCOD9365848
_publ_section_title
;
Structure prediction by ZEFSAII (Michael W. Deem and Ramdas Pophale) SiO2 
 PCOD9365848
Probable space group: A B A 2
;
_chemical_formula_sum "Si O2"
_cell_formula_units_Z 64
_cell_length_a 15.075765
_cell_length_b 11.532010
_cell_length_c 15.439214
_cell_angle_alpha 90.000000
_cell_angle_beta 90.000000
_cell_angle_gamma 90.000000
_cell_volume 2684.167146
_symmetry_space_group_name_H-M "A B A 2"
_symmetry_group_IT_number 41
_symmetry_cell_setting 'orthorhombic'
loop_
_space_group_symop_operation_xyz
x,y,z
-x,-y,z
1/2-x,y,1/2+z
1/2+x,-y,1/2+z
x,1/2+y,1/2+z
-x,1/2-y,1/2+z
1/2-x,1/2+y,z
1/2+x,1/2-y,z
loop_
_atom_site_type_symbol
_atom_site_label
_atom_site_fract_x
_atom_site_fract_y
_atom_site_fract_z
Si Si1 0.160375 0.237965 0.917970
Si Si2 0.604601 0.750899 0.135627
Si Si3 0.843459 0.708866 0.372475
Si Si4 0.949865 0.622996 0.210356
Si Si5 0.805097 0.267800 0.622022
Si Si6 0.402474 0.506150 0.947881
Si Si7 0.905721 0.483819 0.648129
Si Si8 0.023502 0.636509 0.958936
O O1 0.238754 0.284907 0.858149
O O2 0.149159 0.103012 0.896153
O O3 0.065352 0.300552 0.922882
O O4 0.196001 0.236508 0.017193
O O5 0.531224 0.785900 0.205916
O O6 0.703234 0.797320 0.143779
O O7 0.626864 0.614286 0.143045
O O8 0.554612 0.803887 0.050073
O O9 0.896943 0.642784 0.298592
O O10 0.856506 0.617188 0.450777
O O11 0.893592 0.827616 0.397296
O O12 0.869388 0.657819 0.144279
O O13 0.000000 0.500000 0.197413
O O14 0.852511 0.372211 0.676038
O O15 0.500000 0.500000 0.910714
O O16 0.417071 0.550445 0.046142
O O17 0.000000 0.500000 0.692736
O O18 0.000000 0.500000 0.967417
#
# Coordination Sequence:
#
# PCOD9365848 Si02
#       8
#     8   8   8   8   8   8   8   8
#     4  11  23  41  77 106 138 191 255 314 365 452
#     4  12  23  45  74 105 150 193 245 316 378 449
#     4  12  26  47  69 106 147 201 251 306 391 458
#     4  12  29  50  70 106 162 203 248 318 395 455
#     4  11  24  42  73 113 139 197 261 302 374 455
#     4  10  18  39  69  97 136 181 246 299 370 444
#     4  10  18  38  70 101 134 184 245 312 356 435
#     4  12  25  44  74 112 148 188 251 327 371 442
#
# _framework density 23.843523999999999
#
# number of rings (size 3 to 8) (size 9 to 14) (size 15 to 20)
#    0.000    0.750    6.250    1.500    3.500    1.000 
#    2.250    0.000    0.000    0.000    0.000    0.000 
#    0.000    0.000    0.000    0.000    0.000    0.000 
#
# Total GULP energy -178314.157326 kJ/mol
# GULP energy per Si atom -5572.317416 kJ/mol
# Density = 2.378926 g / cm^3
# Si number density = 23.843524 Si / 1000 Ang^3
#
#
#
# Elastic Constant Matrix: (Units=GPa)
#
#
# Indices 1 2 3 4 5 6 
#
# 1 166.5846 32.7024 14.3205 0.0000 0.0000 0.0000
# 2 32.7024 127.4077 0.2971 0.0000 0.0000 0.0000
# 3 14.3205 0.2971 35.2299 0.0000 0.0000 0.0000
# 4 0.0000 0.0000 0.0000 14.7380 0.0000 0.0000
# 5 0.0000 0.0000 0.0000 0.0000 10.4417 0.0000
# 6 0.0000 0.0000 0.0000 0.0000 0.0000 20.6537
#
#
#
# Elastic Compliance Matrix: (Units=1/GPa)
#
#
# Indices 1 2 3 4 5 6 
#
# 1 0.006560 -0.001678 -0.002653 0.000000 0.000000 0.000000
# 2 -0.001678 0.008278 0.000612 0.000000 0.000000 0.000000
# 3 -0.002653 0.000612 0.029458 0.000000 0.000000 0.000000
# 4 0.000000 0.000000 0.000000 0.067852 0.000000 0.000000
# 5 0.000000 0.000000 0.000000 0.000000 0.095770 0.000000
# 6 0.000000 0.000000 0.000000 0.000000 0.000000 0.048417
#
#
# Mechanical properties :
#
#
# Convention : Reuss Voigt Hill
#
# Bulk Modulus (GPa) = 27.12953 47.09580 37.11266
# Shear Modulus (GPa) = 18.11214 27.96018 23.03616
#
# Velocity S-wave (km/s) = 2.75912 3.42812 3.11165
# Velocity P-wave (km/s) = 4.64254 5.95518 5.33935
#
# Compressibility (1/GPa) = 0.03686020
#
# Stress axis : x y z
#
# Youngs Moduli (GPa) = 152.43128 120.80192 33.94661
#
# Poissons Ratio (x) = 0.20267 0.09004
# Poissons Ratio (y) = 0.25573 -0.02078
# Poissons Ratio (z) = 0.40433 -0.07395
#
# Static dielectric constant tensor:
#      x y z
#    x 2.036000 0.000000 0.000000 
#    y 0.000000 1.868180 0.000000 
#    z 0.000000 0.000000 2.048350 
# 
# From -- ./inp_files/10406.got.cif
#   From: 2010.05.17/outbox.cif.g08.bks.cpg/sg41_6_cif.got.tgz:10406.got - 2010.06.03 18:54:24.
