data_PCOD9365996
_publ_section_title
;
Structure prediction by ZEFSAII (Michael W. Deem and Ramdas Pophale) SiO2 
 PCOD9365996
Probable space group: A B A 2
;
_chemical_formula_sum "Si O2"
_cell_formula_units_Z 44
_cell_length_a 24.178324
_cell_length_b 13.417774
_cell_length_c 5.306777
_cell_angle_alpha 90.000000
_cell_angle_beta 90.000000
_cell_angle_gamma 90.000000
_cell_volume 1721.620811
_symmetry_space_group_name_H-M "A B A 2"
_symmetry_group_IT_number 41
_symmetry_cell_setting 'orthorhombic'
loop_
_space_group_symop_operation_xyz
x,y,z
-x,-y,z
1/2-x,y,1/2+z
1/2+x,-y,1/2+z
x,1/2+y,1/2+z
-x,1/2-y,1/2+z
1/2-x,1/2+y,z
1/2+x,1/2-y,z
loop_
_atom_site_type_symbol
_atom_site_label
_atom_site_fract_x
_atom_site_fract_y
_atom_site_fract_z
Si Si1 0.000000 0.000000 0.400741
Si Si2 0.765685 0.872021 0.119263
Si Si3 0.614188 0.885990 0.389683
Si Si4 0.406018 0.903878 0.554357
Si Si5 0.933805 0.813132 0.404926
Si Si6 0.280690 0.349863 0.177323
O O1 0.947273 0.042146 0.247695
O O2 0.021352 0.106181 0.511056
O O3 0.767275 0.920562 0.391698
O O4 0.827799 0.866893 0.024208
O O5 0.735105 0.767509 0.170551
O O6 0.612992 0.839465 0.112649
O O7 0.605057 0.004814 0.363243
O O8 0.574174 0.837613 0.607155
O O9 0.435999 0.806075 0.441660
O O10 0.346007 0.873918 0.669047
O O11 0.247554 0.385221 0.420768
#
# Coordination Sequence:
#
# PCOD9365996 Si02
#       6
#     4   8   8   8   8   8
#     4  10  28  48  74 112 144 194 256 304 364 440
#     4  10  19  36  62  97 140 180 228 290 352 427
#     4  11  25  44  71 106 141 187 242 295 361 439
#     4  11  26  48  76 107 149 196 244 306 373 437
#     4  11  25  48  73 101 143 188 240 302 361 427
#     4  10  21  39  67 101 137 185 236 290 365 437
#
# _framework density 25.557313000000001
#
# number of rings (size 3 to 8) (size 9 to 14) (size 15 to 20)
#    0.000    1.455    0.000    5.455    0.000   14.545 
#    0.000    0.000    0.000    0.000    0.000    0.000 
#    0.000    0.000    0.000    0.000    0.000    0.000 
#
# Total GULP energy -122642.626743 kJ/mol
# GULP energy per Si atom -5574.664852 kJ/mol
# Density = 2.549914 g / cm^3
# Si number density = 25.557313 Si / 1000 Ang^3
#
#
#
# Elastic Constant Matrix: (Units=GPa)
#
#
# Indices 1 2 3 4 5 6 
#
# 1 121.6164 42.3830 24.6122 0.0000 0.0000 0.0000
# 2 42.3830 199.3254 21.7798 0.0000 0.0000 0.0000
# 3 24.6122 21.7798 118.4581 0.0000 0.0000 0.0000
# 4 0.0000 0.0000 0.0000 -38.7690 0.0000 0.0000
# 5 0.0000 0.0000 0.0000 0.0000 37.8237 0.0000
# 6 0.0000 0.0000 0.0000 0.0000 0.0000 192.8325
#
#
#
# Elastic Compliance Matrix: (Units=1/GPa)
#
#
# Indices 1 2 3 4 5 6 
#
# 1 0.009160 -0.001776 -0.001577 0.000000 0.000000 0.000000
# 2 -0.001776 0.005464 -0.000636 0.000000 0.000000 0.000000
# 3 -0.001577 -0.000636 0.008886 0.000000 0.000000 0.000000
# 4 0.000000 0.000000 0.000000 -0.025794 0.000000 0.000000
# 5 0.000000 0.000000 0.000000 0.000000 0.026438 0.000000
# 6 0.000000 0.000000 0.000000 0.000000 0.000000 0.005186
#
#
# Mechanical properties :
#
#
# Convention : Reuss Voigt Hill
#
# Bulk Modulus (GPa) = 64.37248 68.54997 66.46122
# Shear Modulus (GPa) = 117.65957 61.75241 89.70599
#
# Velocity S-wave (km/s) = 6.79246 4.92085 5.93095
# Velocity P-wave (km/s) = 9.31444 7.69199 8.54182
#
# Compressibility (1/GPa) = 0.01553459
#
# Stress axis : x y z
#
# Youngs Moduli (GPa) = 109.16495 183.01895 112.53268
#
# Poissons Ratio (x) = 0.32495 0.17744
# Poissons Ratio (y) = 0.19382 0.07154
# Poissons Ratio (z) = 0.17213 0.11635
#
# Static dielectric constant tensor:
#      x y z
#    x 2.032230 0.000000 0.000000 
#    y 0.000000 2.167910 0.000000 
#    z 0.000000 0.000000 2.279390 
# 
# From -- ./inp_files/1103.got.cif
#   From: 2010.05.17/outbox.cif.g08.bks.cpg/sg41_1_cif.got.tgz:1103.got - 2010.06.03 18:54:24.
