data_PCOD9365762
_publ_section_title
;
Structure prediction by ZEFSAII (Michael W. Deem and Ramdas Pophale) SiO2 
 PCOD9365762
Probable space group: A B A 2
;
_chemical_formula_sum "Si O2"
_cell_formula_units_Z 60
_cell_length_a 19.312674
_cell_length_b 21.535329
_cell_length_c 5.769009
_cell_angle_alpha 90.000000
_cell_angle_beta 90.000000
_cell_angle_gamma 90.000000
_cell_volume 2399.358468
_symmetry_space_group_name_H-M "A B A 2"
_symmetry_group_IT_number 41
_symmetry_cell_setting 'orthorhombic'
loop_
_space_group_symop_operation_xyz
x,y,z
-x,-y,z
1/2-x,y,1/2+z
1/2+x,-y,1/2+z
x,1/2+y,1/2+z
-x,1/2-y,1/2+z
1/2-x,1/2+y,z
1/2+x,1/2-y,z
loop_
_atom_site_type_symbol
_atom_site_label
_atom_site_fract_x
_atom_site_fract_y
_atom_site_fract_z
Si Si1 0.748447 0.004208 0.950620
Si Si2 0.593334 0.727903 0.168963
Si Si3 0.213053 0.124945 0.003621
Si Si4 0.500000 0.000000 0.292043
Si Si5 0.383424 0.229618 0.661814
Si Si6 0.749086 0.679860 0.185562
Si Si7 0.469891 0.408792 0.171200
Si Si8 0.902459 0.473419 0.899957
O O1 0.756759 0.035355 0.701368
O O2 0.803188 0.948398 0.980304
O O3 0.677857 0.963704 0.929227
O O4 0.584182 0.764544 0.922011
O O5 0.676700 0.717453 0.183850
O O6 0.574044 0.752294 0.428275
O O7 0.557363 0.660327 0.159618
O O8 0.238362 0.139552 0.735874
O O9 0.146970 0.163963 0.081272
O O10 0.479434 0.937832 0.421838
O O11 0.566563 0.982206 0.150598
O O12 0.316530 0.275741 0.679254
O O13 0.749460 0.647232 0.935543
O O14 0.543830 0.424407 0.290099
O O15 0.416068 0.458439 0.284786
#
# Coordination Sequence:
#
# PCOD9365762 Si02
#       8
#     8   8   8   4   8   8   8   8
#     4  10  23  38  61  92 119 151 204 256 314 365
#     4  10  19  29  49  80 114 147 193 237 284 367
#     4  10  18  33  55  82 112 146 199 239 299 365
#     4   8  18  36  64  78 114 162 212 250 296 360
#     4  10  18  29  50  76 119 148 187 239 293 355
#     4   8  14  25  38  61  98 139 168 212 266 327
#     4   9  20  35  59  88 114 166 210 244 308 370
#     4   9  20  39  60  83 121 158 206 263 303 362
#
# _framework density 25.006682999999999
#
# number of rings (size 3 to 8) (size 9 to 14) (size 15 to 20)
#    0.000    2.933    0.000    3.200    7.467    0.000 
#    0.000    4.000    0.000    0.000    0.000   18.667 
#    0.000    0.000    0.000    0.000    0.000    0.000 
#
# Total GULP energy -167028.335739 kJ/mol
# GULP energy per Si atom -5567.611191 kJ/mol
# Density = 2.494977 g / cm^3
# Si number density = 25.006683 Si / 1000 Ang^3
#
#
#
# Elastic Constant Matrix: (Units=GPa)
#
#
# Indices 1 2 3 4 5 6 
#
# 1 57.0684 -0.9988 24.5450 0.0000 0.0000 0.0000
# 2 -0.9988 74.5865 44.6932 0.0000 0.0000 0.0000
# 3 24.5450 44.6932 251.3848 0.0000 0.0000 0.0000
# 4 0.0000 0.0000 0.0000 84.2583 0.0000 0.0000
# 5 0.0000 0.0000 0.0000 0.0000 14.4669 0.0000
# 6 0.0000 0.0000 0.0000 0.0000 0.0000 151.9532
#
#
#
# Elastic Compliance Matrix: (Units=1/GPa)
#
#
# Indices 1 2 3 4 5 6 
#
# 1 0.018436 0.001484 -0.002064 0.000000 0.000000 0.000000
# 2 0.001484 0.015125 -0.002834 0.000000 0.000000 0.000000
# 3 -0.002064 -0.002834 0.004683 0.000000 0.000000 0.000000
# 4 0.000000 0.000000 0.000000 0.011868 0.000000 0.000000
# 5 0.000000 0.000000 0.000000 0.000000 0.069123 0.000000
# 6 0.000000 0.000000 0.000000 0.000000 0.000000 0.006581
#
#
# Mechanical properties :
#
#
# Convention : Reuss Voigt Hill
#
# Bulk Modulus (GPa) = 31.83033 57.72429 44.77731
# Shear Modulus (GPa) = 34.93616 71.12237 53.02927
#
# Velocity S-wave (km/s) = 3.74180 5.33883 4.61000
# Velocity P-wave (km/s) = 5.60575 7.81906 6.80302
#
# Compressibility (1/GPa) = 0.03141657
#
# Stress axis : x y z
#
# Youngs Moduli (GPa) = 54.24030 66.11458 213.52361
#
# Poissons Ratio (x) = -0.09809 0.44069
# Poissons Ratio (y) = -0.08047 0.60511
# Poissons Ratio (z) = 0.11195 0.18737
#
# Static dielectric constant tensor:
#      x y z
#    x 1.980660 0.000000 0.000000 
#    y 0.000000 1.771410 0.000000 
#    z 0.000000 0.000000 2.079310 
# 
# From -- ./inp_files/800.got.cif
#   From: 2010.05.17/outbox.cif.g08.bks.cpg/sg41_1_cif.got.tgz:800.got - 2010.06.03 18:54:24.
