data_PCOD9365401
_publ_section_title
;
Structure prediction by ZEFSAII (Michael W. Deem and Ramdas Pophale) SiO2 
 PCOD9365401
Probable space group: A M A 2
;
_chemical_formula_sum "Si O2"
_cell_formula_units_Z 40
_cell_length_a 15.375033
_cell_length_b 4.916733
_cell_length_c 22.414510
_cell_angle_alpha 90.000000
_cell_angle_beta 90.000000
_cell_angle_gamma 90.000000
_cell_volume 1694.423362
_symmetry_space_group_name_H-M "A M A 2"
_symmetry_group_IT_number 40
_symmetry_cell_setting 'orthorhombic'
loop_
_space_group_symop_operation_xyz
x,y,z
-x,-y,z
1/2-x,y,z
1/2+x,-y,z
x,1/2+y,1/2+z
-x,1/2-y,1/2+z
1/2-x,1/2+y,1/2+z
1/2+x,1/2-y,1/2+z
loop_
_atom_site_type_symbol
_atom_site_label
_atom_site_fract_x
_atom_site_fract_y
_atom_site_fract_z
Si Si1 0.057949 0.238819 0.062580
Si Si2 0.606150 0.490401 0.173217
Si Si3 0.398727 0.927299 0.381000
Si Si4 0.149471 0.935453 0.953465
Si Si5 0.106421 0.514075 0.747419
O O1 0.125234 0.381006 0.108462
O O2 0.000000 0.500000 0.041689
O O3 0.098534 0.060804 0.009638
O O4 0.000000 0.000000 0.094337
O O5 0.500000 0.500000 0.171900
O O6 0.634008 0.694113 0.224644
O O7 0.634536 0.198956 0.196472
O O8 0.361073 0.124646 0.432430
O O9 0.362583 0.967159 0.314577
O O10 0.500000 0.000000 0.379703
O O11 0.384418 0.616947 0.398783
O O12 0.250000 0.987534 0.964012
O O13 0.000000 0.500000 0.749526
#
# Coordination Sequence:
#
# PCOD9365401 Si02
#       5
#     8   8   8   8   8
#     4  11  21  36  60  88 118 155 202 248 295 362
#     4   9  16  29  51  84 116 141 179 240 300 345
#     4  11  22  39  63  89 116 154 204 250 295 358
#     4  12  25  40  58  84 123 163 201 249 304 356
#     4   9  17  30  53  85 114 139 181 243 299 343
#
# _framework density 23.606849
#
# number of rings (size 3 to 8) (size 9 to 14) (size 15 to 20)
#    0.000    1.600    0.000    8.400    0.000    3.200 
#    0.000    0.000    0.000    7.200    0.000    0.000 
#    0.000    0.000    0.000    0.000    0.000    0.000 
#
# Total GULP energy -111700.124475 kJ/mol
# GULP energy per Si atom -5585.006224 kJ/mol
# Density = 2.355312 g / cm^3
# Si number density = 23.606849 Si / 1000 Ang^3
#
#
#
# Elastic Constant Matrix: (Units=GPa)
#
#
# Indices 1 2 3 4 5 6 
#
# 1 57.2578 0.2318 -0.2138 0.0000 0.0000 0.0000
# 2 0.2318 86.2711 -7.5694 0.0000 0.0000 0.0000
# 3 -0.2138 -7.5694 115.8548 0.0000 0.0000 0.0000
# 4 0.0000 0.0000 0.0000 45.7816 0.0000 0.0000
# 5 0.0000 0.0000 0.0000 0.0000 -25.4554 0.0000
# 6 0.0000 0.0000 0.0000 0.0000 0.0000 -20.7641
#
#
#
# Elastic Compliance Matrix: (Units=1/GPa)
#
#
# Indices 1 2 3 4 5 6 
#
# 1 0.017465 -0.000044 0.000029 0.000000 0.000000 0.000000
# 2 -0.000044 0.011658 0.000762 0.000000 0.000000 0.000000
# 3 0.000029 0.000762 0.008681 0.000000 0.000000 0.000000
# 4 0.000000 0.000000 0.000000 0.021843 0.000000 0.000000
# 5 0.000000 0.000000 0.000000 0.000000 -0.039284 0.000000
# 6 0.000000 0.000000 0.000000 0.000000 0.000000 -0.048160
#
#
# Mechanical properties :
#
#
# Convention : Reuss Voigt Hill
#
# Bulk Modulus (GPa) = 25.44660 27.14231 26.29445
# Shear Modulus (GPa) = -308.81823 17.70809 -145.55507
#
# Velocity S-wave (km/s) = -11.44994 2.74181 -7.86078
# Velocity P-wave (km/s) = 12.80620 4.64177 8.43958
#
# Compressibility (1/GPa) = 0.03929799
#
# Stress axis : x y z
#
# Youngs Moduli (GPa) = 57.25683 85.77570 115.18997
#
# Poissons Ratio (x) = 0.00380 -0.00338
# Poissons Ratio (y) = 0.00254 -0.08773
# Poissons Ratio (z) = -0.00168 -0.06533
#
# Static dielectric constant tensor:
#      x y z
#    x 1.938260 0.000000 0.000000 
#    y 0.000000 1.847090 0.000000 
#    z 0.000000 0.000000 1.950450 
# 
# From -- ./inp_files/23246.got.cif
#   From: 2010.05.17/outbox.cif.g08.bks.cpg/sg40_12_cif.got.tgz:23246.got - 2010.06.03 18:35:42.
