data_PCOD9365523
_publ_section_title
;
Structure prediction by ZEFSAII (Michael W. Deem and Ramdas Pophale) SiO2 
 PCOD9365523
Probable space group: A M A 2
;
_chemical_formula_sum "Si O2"
_cell_formula_units_Z 40
_cell_length_a 14.183195
_cell_length_b 22.270018
_cell_length_c 5.262437
_cell_angle_alpha 90.000000
_cell_angle_beta 90.000000
_cell_angle_gamma 90.000000
_cell_volume 1662.193393
_symmetry_space_group_name_H-M "A M A 2"
_symmetry_group_IT_number 40
_symmetry_cell_setting 'orthorhombic'
loop_
_space_group_symop_operation_xyz
x,y,z
-x,-y,z
1/2-x,y,z
1/2+x,-y,z
x,1/2+y,1/2+z
-x,1/2-y,1/2+z
1/2-x,1/2+y,1/2+z
1/2+x,1/2-y,1/2+z
loop_
_atom_site_type_symbol
_atom_site_label
_atom_site_fract_x
_atom_site_fract_y
_atom_site_fract_z
Si Si1 0.018469 0.174438 0.766550
Si Si2 0.852606 0.128084 0.104978
Si Si3 0.146330 0.582363 0.026431
Si Si4 0.145268 0.265242 0.010265
Si Si5 0.611353 0.492404 0.530288
O O1 0.944532 0.226122 0.689971
O O2 0.058257 0.126768 0.566414
O O3 0.113059 0.207273 0.855299
O O4 0.950247 0.139857 0.959697
O O5 0.750000 0.142944 0.976822
O O6 0.854354 0.172970 0.345531
O O7 0.850595 0.056525 0.127007
O O8 0.250000 0.611113 0.048066
O O9 0.141070 0.532309 0.252656
O O10 0.138162 0.554368 0.748258
O O11 0.250000 0.255997 0.114201
O O12 0.500000 0.500000 0.519568
#
# Coordination Sequence:
#
# PCOD9365523 Si02
#       5
#     8   8   8   8   8
#     4  12  24  46  70 103 143 189 239 303 366 427
#     4  11  24  44  70 100 137 185 241 296 359 434
#     4  12  27  46  74 110 150 193 244 300 371 440
#     4  11  25  45  71 102 138 186 243 299 367 435
#     4  12  25  48  72 107 147 194 240 305 366 436
#
# _framework density 24.064589999999999
#
# number of rings (size 3 to 8) (size 9 to 14) (size 15 to 20)
#    0.000    0.400    4.000    4.800    2.800    0.000 
#    0.000    0.000    0.000    0.000    0.000    0.000 
#    0.000    0.000    0.000    0.000    0.000    0.000 
#
# Total GULP energy -111683.262192 kJ/mol
# GULP energy per Si atom -5584.163110 kJ/mol
# Density = 2.400982 g / cm^3
# Si number density = 24.064590 Si / 1000 Ang^3
#
#
#
# Elastic Constant Matrix: (Units=GPa)
#
#
# Indices 1 2 3 4 5 6 
#
# 1 187.6733 2.4145 6.5379 0.0000 0.0000 0.0000
# 2 2.4145 53.2385 -13.1675 0.0000 0.0000 0.0000
# 3 6.5379 -13.1675 39.9476 0.0000 0.0000 0.0000
# 4 0.0000 0.0000 0.0000 31.4300 0.0000 0.0000
# 5 0.0000 0.0000 0.0000 0.0000 15.4362 0.0000
# 6 0.0000 0.0000 0.0000 0.0000 0.0000 19.6597
#
#
#
# Elastic Compliance Matrix: (Units=1/GPa)
#
#
# Indices 1 2 3 4 5 6 
#
# 1 0.005371 -0.000502 -0.001045 0.000000 0.000000 0.000000
# 2 -0.000502 0.020498 0.006839 0.000000 0.000000 0.000000
# 3 -0.001045 0.006839 0.027458 0.000000 0.000000 0.000000
# 4 0.000000 0.000000 0.000000 0.031817 0.000000 0.000000
# 5 0.000000 0.000000 0.000000 0.000000 0.064783 0.000000
# 6 0.000000 0.000000 0.000000 0.000000 0.000000 0.050865
#
#
# Mechanical properties :
#
#
# Convention : Reuss Voigt Hill
#
# Bulk Modulus (GPa) = 15.64679 30.26992 22.95836
# Shear Modulus (GPa) = 23.63942 32.31015 27.97479
#
# Velocity S-wave (km/s) = 3.13762 3.66818 3.41323
# Velocity P-wave (km/s) = 4.43196 5.52691 5.00944
#
# Compressibility (1/GPa) = 0.06391086
#
# Stress axis : x y z
#
# Youngs Moduli (GPa) = 186.17631 48.78630 36.41941
#
# Poissons Ratio (x) = 0.02449 0.03804
# Poissons Ratio (y) = 0.09345 -0.24906
# Poissons Ratio (z) = 0.19447 -0.33363
#
# Static dielectric constant tensor:
#      x y z
#    x 1.907080 0.000000 0.000000 
#    y 0.000000 1.941810 0.000000 
#    z 0.000000 0.000000 2.014140 
# 
# From -- ./inp_files/1231.got.cif
#   From: 2010.05.17/outbox.cif.g08.bks.cpg/sg40_1_cif.got.tgz:1231.got - 2010.06.03 18:35:42.
