data_PCOD9365706
_publ_section_title
;
Structure prediction by ZEFSAII (Michael W. Deem and Ramdas Pophale) SiO2 
 PCOD9365706
Probable space group: A B A 2
;
_chemical_formula_sum "Si O2"
_cell_formula_units_Z 64
_cell_length_a 21.038276
_cell_length_b 29.718156
_cell_length_c 5.297668
_cell_angle_alpha 90.000000
_cell_angle_beta 90.000000
_cell_angle_gamma 90.000000
_cell_volume 3312.201461
_symmetry_space_group_name_H-M "A B A 2"
_symmetry_group_IT_number 41
_symmetry_cell_setting 'orthorhombic'
loop_
_space_group_symop_operation_xyz
x,y,z
-x,-y,z
1/2-x,y,1/2+z
1/2+x,-y,1/2+z
x,1/2+y,1/2+z
-x,1/2-y,1/2+z
1/2-x,1/2+y,z
1/2+x,1/2-y,z
loop_
_atom_site_type_symbol
_atom_site_label
_atom_site_fract_x
_atom_site_fract_y
_atom_site_fract_z
Si Si1 0.425748 0.279991 0.393980
Si Si2 0.839158 0.903760 0.298140
Si Si3 0.210990 0.498900 0.947665
Si Si4 0.708631 0.693174 0.422717
Si Si5 0.767521 0.321775 0.302382
Si Si6 0.791257 0.094502 0.328792
Si Si7 0.895772 0.872566 0.802521
Si Si8 0.490144 0.310483 0.894111
O O1 0.350443 0.274023 0.385609
O O2 0.445189 0.304453 0.653016
O O3 0.462333 0.232481 0.392006
O O4 0.451157 0.307130 0.151937
O O5 0.817487 0.952615 0.387073
O O6 0.779822 0.867080 0.293717
O O7 0.888001 0.887884 0.514136
O O8 0.870906 0.905661 0.022775
O O9 0.267919 0.497002 0.739264
O O10 0.173565 0.452711 0.883820
O O11 0.739963 0.695968 0.698341
O O12 0.678456 0.642713 0.384782
O O13 0.744986 0.296383 0.546559
O O14 0.840236 0.335062 0.321312
O O15 0.734706 0.093766 0.541680
O O16 0.964185 0.853250 0.867051
#
# Coordination Sequence:
#
# PCOD9365706 Si02
#       8
#     8   8   8   8   8   8   8   8
#     4  10  21  38  58  77 101 132 167 212 252 299
#     4  10  17  26  42  66  98 134 165 202 249 295
#     4  10  16  25  41  65  99 136 169 200 247 304
#     4  10  19  35  57  83 108 128 158 205 267 315
#     4   8  14  23  35  55  85 120 151 187 232 272
#     4   8  16  27  44  71 101 128 159 203 249 307
#     4  10  18  29  44  65  93 127 169 208 239 283
#     4  10  21  37  55  76 100 133 178 211 239 287
#
# _framework density 19.322496999999998
#
# number of rings (size 3 to 8) (size 9 to 14) (size 15 to 20)
#    0.000    2.500    0.000    4.500    0.000    0.000 
#    0.000    3.750    0.000    0.000    0.000    5.250 
#    0.000    0.000    0.000    0.000    0.000    0.000 
#
# Total GULP energy -178265.229880 kJ/mol
# GULP energy per Si atom -5570.788434 kJ/mol
# Density = 1.927852 g / cm^3
# Si number density = 19.322497 Si / 1000 Ang^3
#
#
#
# Elastic Constant Matrix: (Units=GPa)
#
#
# Indices 1 2 3 4 5 6 
#
# 1 56.7324 -0.9394 12.9928 0.0000 0.0000 0.0000
# 2 -0.9394 49.5695 -10.7912 0.0000 0.0000 0.0000
# 3 12.9928 -10.7912 92.6356 0.0000 0.0000 0.0000
# 4 0.0000 0.0000 0.0000 8.6253 0.0000 0.0000
# 5 0.0000 0.0000 0.0000 0.0000 18.0783 0.0000
# 6 0.0000 0.0000 0.0000 0.0000 0.0000 9.5195
#
#
#
# Elastic Compliance Matrix: (Units=1/GPa)
#
#
# Indices 1 2 3 4 5 6 
#
# 1 0.018214 -0.000216 -0.002580 0.000000 0.000000 0.000000
# 2 -0.000216 0.020701 0.002442 0.000000 0.000000 0.000000
# 3 -0.002580 0.002442 0.011441 0.000000 0.000000 0.000000
# 4 0.000000 0.000000 0.000000 0.115939 0.000000 0.000000
# 5 0.000000 0.000000 0.000000 0.000000 0.055315 0.000000
# 6 0.000000 0.000000 0.000000 0.000000 0.000000 0.105048
#
#
# Mechanical properties :
#
#
# Convention : Reuss Voigt Hill
#
# Bulk Modulus (GPa) = 20.14203 22.38467 21.26335
# Shear Modulus (GPa) = 14.53844 20.42296 17.48070
#
# Velocity S-wave (km/s) = 2.74599 3.25461 3.01105
# Velocity P-wave (km/s) = 4.52777 5.07279 4.80801
#
# Compressibility (1/GPa) = 0.04964742
#
# Stress axis : x y z
#
# Youngs Moduli (GPa) = 54.90324 48.30641 87.40284
#
# Poissons Ratio (x) = 0.01046 0.22549
# Poissons Ratio (y) = 0.01188 -0.21342
# Poissons Ratio (z) = 0.14164 -0.11796
#
# Static dielectric constant tensor:
#      x y z
#    x 1.638550 0.000000 0.000000 
#    y 0.000000 1.765550 0.000000 
#    z 0.000000 0.000000 1.712670 
# 
# From -- ./inp_files/577.got.cif
#   From: 2010.05.17/outbox.cif.g08.bks.cpg/sg41_1_cif.got.tgz:577.got - 2010.06.03 18:54:24.
