data_PCOD9365293
_publ_section_title
;
Structure prediction by ZEFSAII (Michael W. Deem and Ramdas Pophale) SiO2 
 PCOD9365293
Probable space group: A M A 2
;
_chemical_formula_sum "Si O2"
_cell_formula_units_Z 48
_cell_length_a 23.361392
_cell_length_b 8.024673
_cell_length_c 11.986127
_cell_angle_alpha 90.000000
_cell_angle_beta 90.000000
_cell_angle_gamma 90.000000
_cell_volume 2247.009642
_symmetry_space_group_name_H-M "A M A 2"
_symmetry_group_IT_number 40
_symmetry_cell_setting 'orthorhombic'
loop_
_space_group_symop_operation_xyz
x,y,z
-x,-y,z
1/2-x,y,z
1/2+x,-y,z
x,1/2+y,1/2+z
-x,1/2-y,1/2+z
1/2-x,1/2+y,1/2+z
1/2+x,1/2-y,1/2+z
loop_
_atom_site_type_symbol
_atom_site_label
_atom_site_fract_x
_atom_site_fract_y
_atom_site_fract_z
Si Si1 0.841446 0.390046 0.784320
Si Si2 0.862202 0.989451 0.509316
Si Si3 0.750000 0.901040 0.649334
Si Si4 0.500000 0.000000 0.841845
Si Si5 0.750000 0.520695 0.619982
Si Si6 0.250000 0.374617 0.365752
Si Si7 0.065152 0.310248 0.177107
Si Si8 0.977275 0.812320 0.497881
O O1 0.804962 0.433912 0.675287
O O2 0.805403 0.243445 0.846129
O O3 0.903743 0.331479 0.746218
O O4 0.847200 0.527552 0.880894
O O5 0.805600 0.946117 0.576978
O O6 0.909018 0.838763 0.505677
O O7 0.893449 0.134598 0.577192
O O8 0.750000 0.705926 0.667789
O O9 0.750000 0.996576 0.765107
O O10 0.553437 0.034102 0.759290
O O11 0.501372 0.167240 0.915787
O O12 0.750000 0.540434 0.486869
O O13 0.005536 0.268919 0.117416
O O14 0.000000 0.000000 0.468576
#
# Coordination Sequence:
#
# PCOD9365293 Si02
#       8
#     8   8   4   4   4   4   8   8
#     4  11  23  43  69  94 137 180 216 294 339 402
#     4  11  21  43  69  91 138 177 219 286 348 397
#     4  12  23  40  69  97 128 188 223 277 346 411
#     4  12  22  46  74  94 140 190 224 290 356 408
#     4  11  26  43  63 105 136 171 240 274 344 421
#     4  11  23  43  66  96 136 173 233 277 340 414
#     4  11  23  43  69 102 135 180 235 282 355 415
#     4  10  24  44  65 106 138 176 235 288 343 426
#
# _framework density 21.361725
#
# number of rings (size 3 to 8) (size 9 to 14) (size 15 to 20)
#    0.000    1.000    7.500    0.500    0.000    4.000 
#    7.500    0.000    0.000    0.000    0.000    0.000 
#    0.000    0.000    0.000    0.000    0.000    0.000 
#
# Total GULP energy -133942.141095 kJ/mol
# GULP energy per Si atom -5580.922546 kJ/mol
# Density = 2.131310 g / cm^3
# Si number density = 21.361725 Si / 1000 Ang^3
#
#
#
# Elastic Constant Matrix: (Units=GPa)
#
#
# Indices 1 2 3 4 5 6 
#
# 1 93.7097 4.6028 30.0449 0.0000 0.0000 0.0000
# 2 4.6028 34.7681 39.7914 0.0000 0.0000 0.0000
# 3 30.0449 39.7914 156.3063 0.0000 0.0000 0.0000
# 4 0.0000 0.0000 0.0000 43.8398 0.0000 0.0000
# 5 0.0000 0.0000 0.0000 0.0000 -14.9956 0.0000
# 6 0.0000 0.0000 0.0000 0.0000 0.0000 -29.1563
#
#
#
# Elastic Compliance Matrix: (Units=1/GPa)
#
#
# Indices 1 2 3 4 5 6 
#
# 1 0.011421 0.001412 -0.002555 0.000000 0.000000 0.000000
# 2 0.001412 0.040762 -0.010648 0.000000 0.000000 0.000000
# 3 -0.002555 -0.010648 0.009600 0.000000 0.000000 0.000000
# 4 0.000000 0.000000 0.000000 0.022810 0.000000 0.000000
# 5 0.000000 0.000000 0.000000 0.000000 -0.066686 0.000000
# 6 0.000000 0.000000 0.000000 0.000000 0.000000 -0.034298
#
#
# Mechanical properties :
#
#
# Convention : Reuss Voigt Hill
#
# Bulk Modulus (GPa) = 26.17799 48.18469 37.18134
# Shear Modulus (GPa) = 250.95183 13.96057 132.45620
#
# Velocity S-wave (km/s) = 10.85045 2.55920 7.88295
# Velocity P-wave (km/s) = 13.00991 5.59805 10.01489
#
# Compressibility (1/GPa) = 0.03820003
#
# Stress axis : x y z
#
# Youngs Moduli (GPa) = 87.55798 24.53283 104.17202
#
# Poissons Ratio (x) = -0.03464 0.26613
# Poissons Ratio (y) = -0.12362 1.10925
# Poissons Ratio (z) = 0.22369 0.26123
#
# Static dielectric constant tensor:
#      x y z
#    x 1.900830 0.000000 0.000000 
#    y 0.000000 1.767120 0.000000 
#    z 0.000000 0.000000 1.820850 
# 
# From -- ./inp_files/13957.got.cif
#   From: 2010.05.17/outbox.cif.g08.bks.cpg/sg40_7_cif.got.tgz:13957.got - 2010.06.03 18:35:42.
