data_PCOD9365441
_publ_section_title
;
Structure prediction by ZEFSAII (Michael W. Deem and Ramdas Pophale) SiO2 
 PCOD9365441
Probable space group: A M A 2
;
_chemical_formula_sum "Si O2"
_cell_formula_units_Z 48
_cell_length_a 17.576898
_cell_length_b 10.549123
_cell_length_c 11.760688
_cell_angle_alpha 90.000000
_cell_angle_beta 90.000000
_cell_angle_gamma 90.000000
_cell_volume 2180.676871
_symmetry_space_group_name_H-M "A M A 2"
_symmetry_group_IT_number 40
_symmetry_cell_setting 'orthorhombic'
loop_
_space_group_symop_operation_xyz
x,y,z
-x,-y,z
1/2-x,y,z
1/2+x,-y,z
x,1/2+y,1/2+z
-x,1/2-y,1/2+z
1/2-x,1/2+y,1/2+z
1/2+x,1/2-y,1/2+z
loop_
_atom_site_type_symbol
_atom_site_label
_atom_site_fract_x
_atom_site_fract_y
_atom_site_fract_z
Si Si1 0.588814 0.979218 0.462470
Si Si2 0.547289 0.781361 0.279765
Si Si3 0.437840 0.083984 0.901139
Si Si4 0.110803 0.379953 0.737508
Si Si5 0.660429 0.361305 0.611955
Si Si6 0.338085 0.090369 0.698684
O O1 0.586491 0.854007 0.384185
O O2 0.635459 0.958107 0.575916
O O3 0.500000 0.000000 0.492724
O O4 0.617504 0.084739 0.372303
O O5 0.495355 0.674582 0.333698
O O6 0.480349 0.865337 0.221306
O O7 0.612789 0.762256 0.188165
O O8 0.387173 0.027339 0.799431
O O9 0.500000 0.000000 0.965765
O O10 0.378644 0.139946 0.989408
O O11 0.144886 0.498433 0.667556
O O12 0.146950 0.243585 0.707815
O O13 0.750000 0.337567 0.609316
O O14 0.250000 0.065964 0.716120
#
# Coordination Sequence:
#
# PCOD9365441 Si02
#       6
#     8   8   8   8   8   8
#     4   9  19  38  64  92 122 165 220 267 320 393
#     4   9  21  39  66  89 121 169 220 254 322 402
#     4  11  24  40  64  87 127 167 213 258 317 402
#     4   9  20  41  65  91 123 168 219 266 324 402
#     4  11  22  40  66  96 126 158 210 278 331 374
#     4  11  23  38  60  93 128 165 210 267 333 385
#
# _framework density 22.011513999999998
#
# number of rings (size 3 to 8) (size 9 to 14) (size 15 to 20)
#    0.000    2.000    0.000    4.000    7.000    3.333 
#    3.000    1.667    0.000    0.000    0.000    0.000 
#    0.000    0.000    0.000    0.000    0.000    0.000 
#
# Total GULP energy -133943.852840 kJ/mol
# GULP energy per Si atom -5580.993868 kJ/mol
# Density = 2.196141 g / cm^3
# Si number density = 22.011514 Si / 1000 Ang^3
#
#
#
# Elastic Constant Matrix: (Units=GPa)
#
#
# Indices 1 2 3 4 5 6 
#
# 1 156.3027 39.1113 90.3934 0.0000 0.0000 0.0000
# 2 39.1113 34.6658 29.4450 0.0000 0.0000 0.0000
# 3 90.3934 29.4450 140.6561 0.0000 0.0000 0.0000
# 4 0.0000 0.0000 0.0000 -15.6482 0.0000 0.0000
# 5 0.0000 0.0000 0.0000 0.0000 -54.9050 0.0000
# 6 0.0000 0.0000 0.0000 0.0000 0.0000 8.9885
#
#
#
# Elastic Compliance Matrix: (Units=1/GPa)
#
#
# Indices 1 2 3 4 5 6 
#
# 1 0.011917 -0.008441 -0.005892 0.000000 0.000000 0.000000
# 2 -0.008441 0.041065 -0.003172 0.000000 0.000000 0.000000
# 3 -0.005892 -0.003172 0.011560 0.000000 0.000000 0.000000
# 4 0.000000 0.000000 0.000000 -0.063905 0.000000 0.000000
# 5 0.000000 0.000000 0.000000 0.000000 -0.018213 0.000000
# 6 0.000000 0.000000 0.000000 0.000000 0.000000 0.111253
#
#
# Mechanical properties :
#
#
# Convention : Reuss Voigt Hill
#
# Bulk Modulus (GPa) = 33.86085 72.16935 53.01510
# Shear Modulus (GPa) = 36.09334 -0.80129 17.64603
#
# Velocity S-wave (km/s) = 4.05377 -0.60400 2.83445
# Velocity P-wave (km/s) = 6.10962 5.68963 5.90336
#
# Compressibility (1/GPa) = 0.02953263
#
# Stress axis : x y z
#
# Youngs Moduli (GPa) = 83.91102 24.35183 86.50668
#
# Poissons Ratio (x) = 0.20556 0.50967
# Poissons Ratio (y) = 0.70832 0.27437
# Poissons Ratio (z) = 0.49438 0.07724
#
# Static dielectric constant tensor:
#      x y z
#    x 1.807070 0.000000 0.000000 
#    y 0.000000 1.961490 0.000000 
#    z 0.000000 0.000000 1.831670 
# 
# From -- ./inp_files/12889.got.cif
#   From: 2010.05.17/outbox.cif.g08.bks.cpg/sg40_7_cif.got.tgz:12889.got - 2010.06.03 18:35:42.
