data_PCOD9365066
_publ_section_title
;
Structure prediction by ZEFSAII (Michael W. Deem and Ramdas Pophale) SiO2 
 PCOD9365066
Probable space group: A M A 2
;
_chemical_formula_sum "Si O2"
_cell_formula_units_Z 40
_cell_length_a 16.630637
_cell_length_b 7.594368
_cell_length_c 12.771045
_cell_angle_alpha 90.000000
_cell_angle_beta 90.000000
_cell_angle_gamma 90.000000
_cell_volume 1612.972479
_symmetry_space_group_name_H-M "A M A 2"
_symmetry_group_IT_number 40
_symmetry_cell_setting 'orthorhombic'
loop_
_space_group_symop_operation_xyz
x,y,z
-x,-y,z
1/2-x,y,z
1/2+x,-y,z
x,1/2+y,1/2+z
-x,1/2-y,1/2+z
1/2-x,1/2+y,1/2+z
1/2+x,1/2-y,1/2+z
loop_
_atom_site_type_symbol
_atom_site_label
_atom_site_fract_x
_atom_site_fract_y
_atom_site_fract_z
Si Si1 0.340480 0.146480 0.070420
Si Si2 0.653847 0.460079 0.995079
Si Si3 0.557745 0.327983 0.173615
Si Si4 0.904015 0.000030 0.861067
Si Si5 0.413586 0.123089 0.283388
O O1 0.250000 0.102901 0.046471
O O2 0.349919 0.358198 0.062252
O O3 0.362903 0.071280 0.182827
O O4 0.387930 0.067278 0.974910
O O5 0.750000 0.426562 0.976503
O O6 0.607280 0.314155 0.065821
O O7 0.601823 0.490237 0.888128
O O8 0.500000 0.500000 0.152940
O O9 0.620700 0.374316 0.265570
O O10 0.498902 0.181608 0.227420
O O11 0.877233 0.193798 0.829694
O O12 0.000000 0.000000 0.855234
#
# Coordination Sequence:
#
# PCOD9365066 Si02
#       5
#     8   8   8   8   8
#     4  11  23  41  66  97 136 173 214 279 343 397
#     4  11  23  41  69 100 135 178 225 281 344 401
#     4   9  19  39  66  92 124 171 221 263 326 395
#     4   9  21  42  64  93 129 173 222 266 327 393
#     4  10  22  42  68  93 132 173 227 271 329 406
#
# _framework density 24.798936000000001
#
# number of rings (size 3 to 8) (size 9 to 14) (size 15 to 20)
#    0.000    2.400    4.000    0.600    5.600    2.400 
#    3.600    1.000    0.000    0.000    0.000    0.000 
#    0.000    0.000    0.000    0.000    0.000    0.000 
#
# Total GULP energy -111547.977436 kJ/mol
# GULP energy per Si atom -5577.398872 kJ/mol
# Density = 2.474249 g / cm^3
# Si number density = 24.798936 Si / 1000 Ang^3
#
#
#
# Elastic Constant Matrix: (Units=GPa)
#
#
# Indices 1 2 3 4 5 6 
#
# 1 78.9605 3.5182 26.4352 0.0000 0.0000 0.0000
# 2 3.5182 50.9907 13.6203 0.0000 0.0000 0.0000
# 3 26.4352 13.6203 150.5203 0.0000 0.0000 0.0000
# 4 0.0000 0.0000 0.0000 62.8368 0.0000 0.0000
# 5 0.0000 0.0000 0.0000 0.0000 64.6955 0.0000
# 6 0.0000 0.0000 0.0000 0.0000 0.0000 -13.8049
#
#
#
# Elastic Compliance Matrix: (Units=1/GPa)
#
#
# Indices 1 2 3 4 5 6 
#
# 1 0.013460 -0.000305 -0.002336 0.000000 0.000000 0.000000
# 2 -0.000305 0.020104 -0.001766 0.000000 0.000000 0.000000
# 3 -0.002336 -0.001766 0.007214 0.000000 0.000000 0.000000
# 4 0.000000 0.000000 0.000000 0.015914 0.000000 0.000000
# 5 0.000000 0.000000 0.000000 0.000000 0.015457 0.000000
# 6 0.000000 0.000000 0.000000 0.000000 0.000000 -0.072438
#
#
# Mechanical properties :
#
#
# Convention : Reuss Voigt Hill
#
# Bulk Modulus (GPa) = 31.28453 40.84655 36.06554
# Shear Modulus (GPa) = 260.69393 38.53867 149.61630
#
# Velocity S-wave (km/s) = 10.26408 3.94642 7.77578
# Velocity P-wave (km/s) = 12.37380 6.10512 9.75662
#
# Compressibility (1/GPa) = 0.03196469
#
# Stress axis : x y z
#
# Youngs Moduli (GPa) = 74.29237 49.74117 138.62453
#
# Poissons Ratio (x) = 0.01515 0.32388
# Poissons Ratio (y) = 0.02263 0.24477
# Poissons Ratio (z) = 0.17358 0.08783
#
# Static dielectric constant tensor:
#      x y z
#    x 1.969210 0.000000 0.000000 
#    y 0.000000 1.984760 0.000000 
#    z 0.000000 0.000000 2.010550 
# 
# From -- ./inp_files/12708.got.cif
#   From: 2010.05.17/outbox.cif.g08.bks.cpg/sg40_7_cif.got.tgz:12708.got - 2010.06.03 18:35:42.
