data_PCOD9365334
_publ_section_title
;
Structure prediction by ZEFSAII (Michael W. Deem and Ramdas Pophale) SiO2 
 PCOD9365334
Probable space group: A M A 2
;
_chemical_formula_sum "Si O2"
_cell_formula_units_Z 64
_cell_length_a 25.262932
_cell_length_b 9.098972
_cell_length_c 10.565937
_cell_angle_alpha 90.000000
_cell_angle_beta 90.000000
_cell_angle_gamma 90.000000
_cell_volume 2428.757186
_symmetry_space_group_name_H-M "A M A 2"
_symmetry_group_IT_number 40
_symmetry_cell_setting 'orthorhombic'
loop_
_space_group_symop_operation_xyz
x,y,z
-x,-y,z
1/2-x,y,z
1/2+x,-y,z
x,1/2+y,1/2+z
-x,1/2-y,1/2+z
1/2-x,1/2+y,1/2+z
1/2+x,1/2-y,1/2+z
loop_
_atom_site_type_symbol
_atom_site_label
_atom_site_fract_x
_atom_site_fract_y
_atom_site_fract_z
Si Si1 0.812991 0.173769 0.393600
Si Si2 0.690822 0.959796 0.035367
Si Si3 0.190595 0.336688 0.284919
Si Si4 0.947190 0.912491 0.048500
Si Si5 0.691168 0.373912 0.141081
Si Si6 0.888671 0.660529 0.575951
Si Si7 0.981824 0.844658 0.545855
Si Si8 0.395621 0.084486 0.327035
O O1 0.750000 0.126833 0.407640
O O2 0.826314 0.294721 0.503018
O O3 0.812615 0.284208 0.272481
O O4 0.859149 0.051470 0.380560
O O5 0.750000 0.952198 0.083190
O O6 0.657079 0.053986 0.133743
O O7 0.692839 0.062372 0.910900
O O8 0.250000 0.274026 0.272587
O O9 0.182764 0.456939 0.174176
O O10 0.144565 0.218409 0.294968
O O11 0.929156 0.930852 0.194570
O O12 0.964644 0.747862 0.017175
O O13 0.907731 0.029499 0.980302
O O14 0.000000 0.000000 0.025059
O O15 0.750000 0.352250 0.089436
O O16 0.647254 0.303195 0.053112
O O17 0.942039 0.739105 0.627702
O O18 0.943783 0.875599 0.425163
O O19 0.000000 0.000000 0.601951
#
# Coordination Sequence:
#
# PCOD9365334 Si02
#       8
#     8   8   8   8   8   8   8   8
#     4   9  19  35  61  99 131 162 209 253 316 413
#     4   9  18  35  59  94 131 165 207 252 311 404
#     4   9  19  35  59  97 132 161 207 249 311 409
#     4  10  25  45  62  87 120 158 224 278 316 385
#     4   9  18  35  60  95 132 166 206 251 313 402
#     4  11  20  41  64  88 125 172 212 267 328 380
#     4  11  27  44  61  91 124 162 228 286 318 381
#     4  12  21  42  68  89 127 175 204 270 350 374
#
# _framework density 26.350925
#
# number of rings (size 3 to 8) (size 9 to 14) (size 15 to 20)
#    0.000    2.000    2.500    2.625    3.500    0.000 
#    0.000    1.875    0.000    3.000    0.000    0.000 
#    0.000    0.000    0.000    0.000    0.000    0.000 
#
# Total GULP energy -178153.468125 kJ/mol
# GULP energy per Si atom -5567.295879 kJ/mol
# Density = 2.629095 g / cm^3
# Si number density = 26.350925 Si / 1000 Ang^3
#
#
#
# Elastic Constant Matrix: (Units=GPa)
#
#
# Indices 1 2 3 4 5 6 
#
# 1 120.1145 77.9912 19.5480 0.0000 0.0000 0.0000
# 2 77.9912 197.3998 26.2942 0.0000 0.0000 0.0000
# 3 19.5480 26.2942 53.4960 0.0000 0.0000 0.0000
# 4 0.0000 0.0000 0.0000 43.0729 0.0000 0.0000
# 5 0.0000 0.0000 0.0000 0.0000 8.5271 0.0000
# 6 0.0000 0.0000 0.0000 0.0000 0.0000 39.5097
#
#
#
# Elastic Compliance Matrix: (Units=1/GPa)
#
#
# Indices 1 2 3 4 5 6 
#
# 1 0.011413 -0.004231 -0.002091 0.000000 0.000000 0.000000
# 2 -0.004231 0.006989 -0.001889 0.000000 0.000000 0.000000
# 3 -0.002091 -0.001889 0.020386 0.000000 0.000000 0.000000
# 4 0.000000 0.000000 0.000000 0.023216 0.000000 0.000000
# 5 0.000000 0.000000 0.000000 0.000000 0.117273 0.000000
# 6 0.000000 0.000000 0.000000 0.000000 0.000000 0.025310
#
#
# Mechanical properties :
#
#
# Convention : Reuss Voigt Hill
#
# Bulk Modulus (GPa) = 44.71126 68.74190 56.72658
# Shear Modulus (GPa) = 21.88529 34.70039 28.29284
#
# Velocity S-wave (km/s) = 2.88502 3.63279 3.28028
# Velocity P-wave (km/s) = 5.30116 6.61362 5.99342
#
# Compressibility (1/GPa) = 0.02236573
#
# Stress axis : x y z
#
# Youngs Moduli (GPa) = 87.62262 143.08263 49.05405
#
# Poissons Ratio (x) = 0.60531 0.10257
# Poissons Ratio (y) = 0.37069 0.09268
# Poissons Ratio (z) = 0.18321 0.27033
#
# Static dielectric constant tensor:
#      x y z
#    x 2.259820 0.000000 0.000000 
#    y 0.000000 2.233720 0.000000 
#    z 0.000000 0.000000 2.378350 
# 
# From -- ./inp_files/18532.got.cif
#   From: 2010.05.17/outbox.cif.g08.bks.cpg/sg40_10_cif.got.tgz:18532.got - 2010.06.03 18:35:42.
