data_PCOD9365854
_publ_section_title
;
Structure prediction by ZEFSAII (Michael W. Deem and Ramdas Pophale) SiO2 
 PCOD9365854
Probable space group: A B A 2
;
_chemical_formula_sum "Si O2"
_cell_formula_units_Z 56
_cell_length_a 22.852741
_cell_length_b 11.516298
_cell_length_c 8.711198
_cell_angle_alpha 90.000000
_cell_angle_beta 90.000000
_cell_angle_gamma 90.000000
_cell_volume 2292.604165
_symmetry_space_group_name_H-M "A B A 2"
_symmetry_group_IT_number 41
_symmetry_cell_setting 'orthorhombic'
loop_
_space_group_symop_operation_xyz
x,y,z
-x,-y,z
1/2-x,y,1/2+z
1/2+x,-y,1/2+z
x,1/2+y,1/2+z
-x,1/2-y,1/2+z
1/2-x,1/2+y,z
1/2+x,1/2-y,z
loop_
_atom_site_type_symbol
_atom_site_label
_atom_site_fract_x
_atom_site_fract_y
_atom_site_fract_z
Si Si1 0.337974 0.810780 0.845610
Si Si2 0.247722 0.338667 0.107692
Si Si3 0.600132 0.474864 0.727728
Si Si4 0.076652 0.749770 0.739550
Si Si5 0.660890 0.920089 0.906862
Si Si6 0.539310 0.792654 0.396783
Si Si7 0.213958 0.511641 0.370139
O O1 0.291659 0.768197 0.716425
O O2 0.405152 0.778430 0.832640
O O3 0.340036 0.951305 0.833549
O O4 0.306781 0.788922 0.011170
O O5 0.224198 0.446531 0.208502
O O6 0.287838 0.402162 0.983152
O O7 0.407865 0.386457 0.722914
O O8 0.623800 0.430150 0.563785
O O9 0.544372 0.408899 0.795012
O O10 0.649979 0.437735 0.852642
O O11 0.131579 0.676851 0.801782
O O12 0.052200 0.701133 0.577923
O O13 0.023661 0.739079 0.861549
O O14 0.731545 0.907811 0.918962
#
# Coordination Sequence:
#
# PCOD9365854 Si02
#       7
#     8   8   8   8   8   8   8
#     4  10  20  45  71 112 144 199 240 303 379 446
#     4   8  17  34  69  99 146 181 229 291 368 439
#     4  12  25  50  72 108 151 193 247 308 371 445
#     4  12  28  53  72 106 150 197 254 315 363 438
#     4  10  23  47  75 102 149 195 232 311 375 430
#     4  12  28  48  78 107 144 202 258 301 374 439
#     4  10  18  39  68 107 144 185 240 293 372 444
#
# _framework density 24.426369999999999
#
# number of rings (size 3 to 8) (size 9 to 14) (size 15 to 20)
#    0.000    1.714    4.286    1.286    4.000    2.857 
#   15.429    1.429    0.000    0.000    0.000    0.000 
#    0.000    0.000    0.000    0.000    0.000    0.000 
#
# Total GULP energy -156480.838319 kJ/mol
# GULP energy per Si atom -5588.601369 kJ/mol
# Density = 2.437077 g / cm^3
# Si number density = 24.426370 Si / 1000 Ang^3
#
#
#
# Elastic Constant Matrix: (Units=GPa)
#
#
# Indices 1 2 3 4 5 6 
#
# 1 121.0350 28.6470 27.2318 0.0000 0.0000 0.0000
# 2 28.6470 92.8502 30.2107 0.0000 0.0000 0.0000
# 3 27.2318 30.2107 129.7048 0.0000 0.0000 0.0000
# 4 0.0000 0.0000 0.0000 32.3828 0.0000 0.0000
# 5 0.0000 0.0000 0.0000 0.0000 34.5642 0.0000
# 6 0.0000 0.0000 0.0000 0.0000 0.0000 46.4492
#
#
#
# Elastic Compliance Matrix: (Units=1/GPa)
#
#
# Indices 1 2 3 4 5 6 
#
# 1 0.009131 -0.002373 -0.001364 0.000000 0.000000 0.000000
# 2 -0.002373 0.012270 -0.002360 0.000000 0.000000 0.000000
# 3 -0.001364 -0.002360 0.008546 0.000000 0.000000 0.000000
# 4 0.000000 0.000000 0.000000 0.030881 0.000000 0.000000
# 5 0.000000 0.000000 0.000000 0.000000 0.028932 0.000000
# 6 0.000000 0.000000 0.000000 0.000000 0.000000 0.021529
#
#
# Mechanical properties :
#
#
# Convention : Reuss Voigt Hill
#
# Bulk Modulus (GPa) = 56.33058 57.30767 56.81913
# Shear Modulus (GPa) = 38.64007 39.84595 39.24301
#
# Velocity S-wave (km/s) = 3.98163 4.04328 4.01257
# Velocity P-wave (km/s) = 6.65201 6.73125 6.69175
#
# Compressibility (1/GPa) = 0.01775235
#
# Stress axis : x y z
#
# Youngs Moduli (GPa) = 109.52048 81.49957 117.01581
#
# Poissons Ratio (x) = 0.19342 0.15964
# Poissons Ratio (y) = 0.25991 0.27612
# Poissons Ratio (z) = 0.14941 0.19231
#
# Static dielectric constant tensor:
#      x y z
#    x 1.948620 0.000000 0.000000 
#    y 0.000000 2.019570 0.000000 
#    z 0.000000 0.000000 1.973080 
# 
# From -- ./inp_files/3474.got.cif
#   From: 2010.05.17/outbox.cif.g08.bks.cpg/sg41_2_cif.got.tgz:3474.got - 2010.06.03 18:54:24.
