data_PCOD9365961
_publ_section_title
;
Structure prediction by ZEFSAII (Michael W. Deem and Ramdas Pophale) SiO2 
 PCOD9365961
Probable space group: A B A 2
;
_chemical_formula_sum "Si O2"
_cell_formula_units_Z 60
_cell_length_a 22.564646
_cell_length_b 13.712804
_cell_length_c 9.642803
_cell_angle_alpha 90.000000
_cell_angle_beta 90.000000
_cell_angle_gamma 90.000000
_cell_volume 2983.720152
_symmetry_space_group_name_H-M "A B A 2"
_symmetry_group_IT_number 41
_symmetry_cell_setting 'orthorhombic'
loop_
_space_group_symop_operation_xyz
x,y,z
-x,-y,z
1/2-x,y,1/2+z
1/2+x,-y,1/2+z
x,1/2+y,1/2+z
-x,1/2-y,1/2+z
1/2-x,1/2+y,z
1/2+x,1/2-y,z
loop_
_atom_site_type_symbol
_atom_site_label
_atom_site_fract_x
_atom_site_fract_y
_atom_site_fract_z
Si Si1 0.302141 0.440583 0.761740
Si Si2 0.068222 0.232918 0.460577
Si Si3 0.143820 0.745252 0.684109
Si Si4 0.176379 0.038148 0.228618
Si Si5 0.500000 0.500000 0.806747
Si Si6 0.895438 0.046688 0.996751
Si Si7 0.123814 0.546667 0.026599
Si Si8 0.454600 0.371639 0.554978
O O1 0.309223 0.325986 0.732345
O O2 0.237158 0.478814 0.728966
O O3 0.333290 0.454995 0.911108
O O4 0.344459 0.497949 0.655649
O O5 0.097496 0.223725 0.308903
O O6 0.077507 0.344574 0.500951
O O7 0.002488 0.190006 0.470830
O O8 0.103828 0.156373 0.556118
O O9 0.177040 0.644524 0.655845
O O10 0.102110 0.800799 0.574627
O O11 0.163620 0.049819 0.390994
O O12 0.122124 0.986891 0.149258
O O13 0.556435 0.485229 0.907976
O O14 0.481690 0.410078 0.704075
O O15 0.069022 0.473878 0.993575
#
# Coordination Sequence:
#
# PCOD9365961 Si02
#       8
#     8   8   8   8   4   8   8   8
#     4  10  20  45  64  80 121 170 207 244 304 383
#     4  10  19  35  59  87 121 156 197 246 299 368
#     4   9  22  38  58  88 122 156 206 256 304 358
#     4  11  24  39  60  93 123 153 202 273 310 336
#     4  12  20  42  62  86 128 172 198 248 310 392
#     4  11  24  39  61  96 122 160 203 259 313 359
#     4  10  20  39  60  88 117 159 211 237 303 377
#     4  11  19  38  63  85 118 172 205 235 304 389
#
# _framework density 20.109124999999999
#
# number of rings (size 3 to 8) (size 9 to 14) (size 15 to 20)
#    0.000    1.600    5.333    0.800    1.867    2.133 
#    2.400   10.667    0.000    0.000    0.000    0.000 
#    0.000    0.000    0.000    0.000    0.000    0.000 
#
# Total GULP energy -167155.220263 kJ/mol
# GULP energy per Si atom -5571.840675 kJ/mol
# Density = 2.006336 g / cm^3
# Si number density = 20.109125 Si / 1000 Ang^3
#
#
#
# Elastic Constant Matrix: (Units=GPa)
#
#
# Indices 1 2 3 4 5 6 
#
# 1 91.5735 27.3773 0.0859 0.0000 0.0000 0.0000
# 2 27.3773 85.9521 3.1021 0.0000 0.0000 0.0000
# 3 0.0859 3.1021 20.8356 0.0000 0.0000 0.0000
# 4 0.0000 0.0000 0.0000 20.1836 0.0000 0.0000
# 5 0.0000 0.0000 0.0000 0.0000 12.9537 0.0000
# 6 0.0000 0.0000 0.0000 0.0000 0.0000 30.6476
#
#
#
# Elastic Compliance Matrix: (Units=1/GPa)
#
#
# Indices 1 2 3 4 5 6 
#
# 1 0.012075 -0.003865 0.000526 0.000000 0.000000 0.000000
# 2 -0.003865 0.012934 -0.001910 0.000000 0.000000 0.000000
# 3 0.000526 -0.001910 0.048277 0.000000 0.000000 0.000000
# 4 0.000000 0.000000 0.000000 0.049545 0.000000 0.000000
# 5 0.000000 0.000000 0.000000 0.000000 0.077198 0.000000
# 6 0.000000 0.000000 0.000000 0.000000 0.000000 0.032629
#
#
# Mechanical properties :
#
#
# Convention : Reuss Voigt Hill
#
# Bulk Modulus (GPa) = 15.92659 28.83243 22.37951
# Shear Modulus (GPa) = 18.93317 23.94337 21.43827
#
# Velocity S-wave (km/s) = 3.07175 3.45436 3.26866
# Velocity P-wave (km/s) = 4.52970 5.50265 5.03971
#
# Compressibility (1/GPa) = 0.06278809
#
# Stress axis : x y z
#
# Youngs Moduli (GPa) = 82.81409 77.31298 20.71381
#
# Poissons Ratio (x) = 0.29883 -0.01089
# Poissons Ratio (y) = 0.32009 0.03956
# Poissons Ratio (z) = -0.04353 0.14765
#
# Static dielectric constant tensor:
#      x y z
#    x 1.745090 0.000000 0.000000 
#    y 0.000000 1.736600 0.000000 
#    z 0.000000 0.000000 1.723360 
# 
# From -- ./inp_files/6294.got.cif
#   From: 2010.05.17/outbox.cif.g08.bks.cpg/sg41_4_cif.got.tgz:6294.got - 2010.06.03 18:54:24.
