data_PCOD9365017
_publ_section_title
;
Structure prediction by ZEFSAII (Michael W. Deem and Ramdas Pophale) SiO2 
 PCOD9365017
Probable space group: A M A 2
;
_chemical_formula_sum "Si O2"
_cell_formula_units_Z 56
_cell_length_a 18.829014
_cell_length_b 14.371225
_cell_length_c 10.188082
_cell_angle_alpha 90.000000
_cell_angle_beta 90.000000
_cell_angle_gamma 90.000000
_cell_volume 2756.854203
_symmetry_space_group_name_H-M "A M A 2"
_symmetry_group_IT_number 40
_symmetry_cell_setting 'orthorhombic'
loop_
_space_group_symop_operation_xyz
x,y,z
-x,-y,z
1/2-x,y,z
1/2+x,-y,z
x,1/2+y,1/2+z
-x,1/2-y,1/2+z
1/2-x,1/2+y,1/2+z
1/2+x,1/2-y,1/2+z
loop_
_atom_site_type_symbol
_atom_site_label
_atom_site_fract_x
_atom_site_fract_y
_atom_site_fract_z
Si Si1 0.332016 0.921829 0.968980
Si Si2 0.166077 0.129698 0.081472
Si Si3 0.427789 0.725203 0.360516
Si Si4 0.834931 0.767939 0.608522
Si Si5 0.835096 0.408489 0.877751
Si Si6 0.065074 0.930043 0.452940
Si Si7 0.547378 0.592037 0.261215
O O1 0.250000 0.906742 0.932300
O O2 0.380877 0.917983 0.842272
O O3 0.351763 0.837520 0.065899
O O4 0.338210 0.021966 0.036752
O O5 0.250000 0.158199 0.067632
O O6 0.145217 0.130624 0.234532
O O7 0.112344 0.187033 0.990066
O O8 0.374959 0.705397 0.239968
O O9 0.439617 0.834781 0.374377
O O10 0.500765 0.674404 0.323465
O O11 0.750000 0.775448 0.626049
O O12 0.857111 0.836956 0.491564
O O13 0.750000 0.414965 0.877750
O O14 0.867402 0.508808 0.910710
O O15 0.063240 0.902468 0.606655
O O16 0.000000 0.000000 0.428754
O O17 0.500000 0.500000 0.280404
#
# Coordination Sequence:
#
# PCOD9365017 Si02
#       7
#     8   8   8   8   8   8   8
#     4  10  22  41  66  95 134 175 223 276 331 403
#     4  10  22  42  68 104 136 169 222 276 334 401
#     4  12  25  42  69  97 134 178 220 291 328 400
#     4  10  22  42  69  99 134 179 222 269 335 402
#     4  10  23  45  70  98 137 176 220 272 330 403
#     4  11  27  45  64  95 134 178 224 274 332 399
#     4  11  24  44  64  98 135 168 228 277 339 399
#
# _framework density 20.313006999999999
#
# number of rings (size 3 to 8) (size 9 to 14) (size 15 to 20)
#    0.000    1.429    1.429    3.000    6.000    2.857 
#    2.571    0.000    0.000    0.000    0.000    0.000 
#    0.000    0.000    0.000    0.000    0.000    0.000 
#
# Total GULP energy -156605.966711 kJ/mol
# GULP energy per Si atom -5593.070240 kJ/mol
# Density = 2.026677 g / cm^3
# Si number density = 20.313007 Si / 1000 Ang^3
#
#
#
# Elastic Constant Matrix: (Units=GPa)
#
#
# Indices 1 2 3 4 5 6 
#
# 1 35.5387 18.9051 59.9455 0.0000 0.0000 0.0000
# 2 18.9051 77.4575 53.9859 0.0000 0.0000 0.0000
# 3 59.9455 53.9859 140.1420 0.0000 0.0000 0.0000
# 4 0.0000 0.0000 0.0000 23.8215 0.0000 0.0000
# 5 0.0000 0.0000 0.0000 0.0000 11.7478 0.0000
# 6 0.0000 0.0000 0.0000 0.0000 0.0000 26.4634
#
#
#
# Elastic Compliance Matrix: (Units=1/GPa)
#
#
# Indices 1 2 3 4 5 6 
#
# 1 0.104300 0.007708 -0.047583 0.000000 0.000000 0.000000
# 2 0.007708 0.018218 -0.010315 0.000000 0.000000 0.000000
# 3 -0.047583 -0.010315 0.031463 0.000000 0.000000 0.000000
# 4 0.000000 0.000000 0.000000 0.041979 0.000000 0.000000
# 5 0.000000 0.000000 0.000000 0.000000 0.085122 0.000000
# 6 0.000000 0.000000 0.000000 0.000000 0.000000 0.037788
#
#
# Mechanical properties :
#
#
# Convention : Reuss Voigt Hill
#
# Bulk Modulus (GPa) = 18.65669 57.64570 38.15119
# Shear Modulus (GPa) = 11.43853 20.42665 15.93259
#
# Velocity S-wave (km/s) = 2.37558 3.17455 2.80367
# Velocity P-wave (km/s) = 4.09011 6.47127 5.41324
#
# Compressibility (1/GPa) = 0.05360009
#
# Stress axis : x y z
#
# Youngs Moduli (GPa) = 9.58772 54.88929 31.78336
#
# Poissons Ratio (x) = -0.42308 1.51236
# Poissons Ratio (y) = -0.07390 0.32785
# Poissons Ratio (z) = 0.45622 0.56620
#
# Static dielectric constant tensor:
#      x y z
#    x 1.741780 0.000000 0.000000 
#    y 0.000000 1.702610 0.000000 
#    z 0.000000 0.000000 1.705250 
# 
# From -- ./inp_files/8283.got.cif
#   From: 2010.05.17/outbox.cif.g08.bks.cpg/sg40_5_cif.got.tgz:8283.got - 2010.06.03 18:35:42.
