data_PCOD9365992
_publ_section_title
;
Structure prediction by ZEFSAII (Michael W. Deem and Ramdas Pophale) SiO2 
 PCOD9365992
Probable space group: A B A 2
;
_chemical_formula_sum "Si O2"
_cell_formula_units_Z 52
_cell_length_a 7.416055
_cell_length_b 17.907649
_cell_length_c 18.498740
_cell_angle_alpha 90.000000
_cell_angle_beta 90.000000
_cell_angle_gamma 90.000000
_cell_volume 2456.708700
_symmetry_space_group_name_H-M "A B A 2"
_symmetry_group_IT_number 41
_symmetry_cell_setting 'orthorhombic'
loop_
_space_group_symop_operation_xyz
x,y,z
-x,-y,z
1/2-x,y,1/2+z
1/2+x,-y,1/2+z
x,1/2+y,1/2+z
-x,1/2-y,1/2+z
1/2-x,1/2+y,z
1/2+x,1/2-y,z
loop_
_atom_site_type_symbol
_atom_site_label
_atom_site_fract_x
_atom_site_fract_y
_atom_site_fract_z
Si Si1 0.486792 0.874312 0.614300
Si Si2 0.793034 0.489039 0.129896
Si Si3 0.715218 0.512950 0.290987
Si Si4 0.286641 0.714793 0.366813
Si Si5 0.601244 0.172503 0.773651
Si Si6 0.026702 0.840183 0.961025
Si Si7 0.000000 0.000000 0.909346
O O1 0.328724 0.937249 0.616120
O O2 0.473646 0.834645 0.692383
O O3 0.461920 0.821332 0.545410
O O4 0.675341 0.918849 0.602530
O O5 0.788218 0.478835 0.216743
O O6 0.000000 0.500000 0.105650
O O7 0.500000 0.500000 0.293985
O O8 0.735740 0.602910 0.284722
O O9 0.831804 0.483412 0.356744
O O10 0.187525 0.748667 0.296066
O O11 0.446254 0.665958 0.334263
O O12 0.350425 0.787447 0.411754
O O13 0.165309 0.672040 0.423572
O O14 0.060305 0.928410 0.954526
#
# Coordination Sequence:
#
# PCOD9365992 Si02
#       7
#     8   8   8   8   8   8   4
#     4  10  22  41  62  92 131 163 213 268 317 379
#     4  10  19  36  60  94 131 161 207 270 326 366
#     4  11  19  34  62  96 125 159 210 268 311 370
#     4  10  23  42  65  88 132 171 214 261 324 389
#     4  10  20  41  62  90 119 173 216 259 307 388
#     4  11  24  43  64  95 134 166 209 269 329 378
#     4  12  22  36  68  98 124 168 222 258 326 374
#
# _framework density 21.166530999999999
#
# number of rings (size 3 to 8) (size 9 to 14) (size 15 to 20)
#    0.000    1.538    5.385    1.846    0.000    1.231 
#    8.308    1.538    0.000    0.000    0.000    0.000 
#    0.000    0.000    0.000    0.000    0.000    0.000 
#
# Total GULP energy -145047.614721 kJ/mol
# GULP energy per Si atom -5578.754412 kJ/mol
# Density = 2.111835 g / cm^3
# Si number density = 21.166531 Si / 1000 Ang^3
#
#
#
# Elastic Constant Matrix: (Units=GPa)
#
#
# Indices 1 2 3 4 5 6 
#
# 1 89.3449 -5.1933 16.3238 0.0000 0.0000 0.0000
# 2 -5.1933 47.0550 27.6888 0.0000 0.0000 0.0000
# 3 16.3238 27.6888 123.8757 0.0000 0.0000 0.0000
# 4 0.0000 0.0000 0.0000 17.9942 0.0000 0.0000
# 5 0.0000 0.0000 0.0000 0.0000 10.8567 0.0000
# 6 0.0000 0.0000 0.0000 0.0000 0.0000 5.5677
#
#
#
# Elastic Compliance Matrix: (Units=1/GPa)
#
#
# Indices 1 2 3 4 5 6 
#
# 1 0.011726 0.002537 -0.002112 0.000000 0.000000 0.000000
# 2 0.002537 0.025019 -0.005927 0.000000 0.000000 0.000000
# 3 -0.002112 -0.005927 0.009676 0.000000 0.000000 0.000000
# 4 0.000000 0.000000 0.000000 0.055573 0.000000 0.000000
# 5 0.000000 0.000000 0.000000 0.000000 0.092109 0.000000
# 6 0.000000 0.000000 0.000000 0.000000 0.000000 0.179607
#
#
# Mechanical properties :
#
#
# Convention : Reuss Voigt Hill
#
# Bulk Modulus (GPa) = 28.23490 37.54601 32.89046
# Shear Modulus (GPa) = 12.60973 21.64749 17.12861
#
# Velocity S-wave (km/s) = 2.44342 3.20147 2.84778
# Velocity P-wave (km/s) = 4.61831 5.60739 5.13671
#
# Compressibility (1/GPa) = 0.03541716
#
# Stress axis : x y z
#
# Youngs Moduli (GPa) = 85.28075 39.96941 103.35191
#
# Poissons Ratio (x) = -0.10141 0.21831
# Poissons Ratio (y) = -0.21636 0.61253
# Poissons Ratio (z) = 0.18014 0.23688
#
# Static dielectric constant tensor:
#      x y z
#    x 1.809380 0.000000 0.000000 
#    y 0.000000 1.799060 0.000000 
#    z 0.000000 0.000000 1.740170 
# 
# From -- ./inp_files/9728.got.cif
#   From: 2010.05.17/outbox.cif.g08.bks.cpg/sg41_5_cif.got.tgz:9728.got - 2010.06.03 18:54:24.
