data_PCOD9365574
_publ_section_title
;
Structure prediction by ZEFSAII (Michael W. Deem and Ramdas Pophale) SiO2 
 PCOD9365574
Probable space group: A M A 2
;
_chemical_formula_sum "Si O2"
_cell_formula_units_Z 40
_cell_length_a 23.000158
_cell_length_b 12.797855
_cell_length_c 4.921002
_cell_angle_alpha 90.000000
_cell_angle_beta 90.000000
_cell_angle_gamma 90.000000
_cell_volume 1448.510162
_symmetry_space_group_name_H-M "A M A 2"
_symmetry_group_IT_number 40
_symmetry_cell_setting 'orthorhombic'
loop_
_space_group_symop_operation_xyz
x,y,z
-x,-y,z
1/2-x,y,z
1/2+x,-y,z
x,1/2+y,1/2+z
-x,1/2-y,1/2+z
1/2-x,1/2+y,1/2+z
1/2+x,1/2-y,1/2+z
loop_
_atom_site_type_symbol
_atom_site_label
_atom_site_fract_x
_atom_site_fract_y
_atom_site_fract_z
Si Si1 0.680368 0.192956 0.670460
Si Si2 0.125137 0.387948 0.729334
Si Si3 0.000630 0.819505 0.086006
Si Si4 0.874579 0.865774 0.977756
Si Si5 0.181023 0.557601 0.919470
O O1 0.750000 0.197375 0.626544
O O2 0.660069 0.152795 0.966217
O O3 0.670515 0.325729 0.734165
O O4 0.668660 0.076171 0.493973
O O5 0.055226 0.384770 0.686342
O O6 0.128548 0.271806 0.926941
O O7 0.133393 0.521203 0.672166
O O8 0.023048 0.741656 0.850698
O O9 0.944886 0.873951 0.956352
O O10 0.840579 0.899515 0.708302
O O11 0.250000 0.550307 0.882578
#
# Coordination Sequence:
#
# PCOD9365574 Si02
#       5
#     8   8   8   8   8
#     4  12  23  41  70 104 136 187 248 293 353 435
#     4  12  25  45  71 101 141 193 237 297 366 426
#     4  12  23  47  72 101 138 181 249 308 351 430
#     4  12  25  44  72 103 140 190 237 300 366 424
#     4  12  26  45  67 105 151 185 231 298 370 442
#
# _framework density 27.614581000000001
#
# number of rings (size 3 to 8) (size 9 to 14) (size 15 to 20)
#    0.000    0.000    4.000    7.200    0.000    0.800 
#    0.000    2.000    0.000    0.000    0.000    0.000 
#    0.000    0.000    0.000    0.000    0.000    0.000 
#
# Total GULP energy -112001.109238 kJ/mol
# GULP energy per Si atom -5600.055462 kJ/mol
# Density = 2.755173 g / cm^3
# Si number density = 27.614581 Si / 1000 Ang^3
#
#
#
# Elastic Constant Matrix: (Units=GPa)
#
#
# Indices 1 2 3 4 5 6 
#
# 1 111.8855 7.0900 31.4173 0.0000 0.0000 0.0000
# 2 7.0900 172.9045 -23.1284 0.0000 0.0000 0.0000
# 3 31.4173 -23.1284 145.2428 0.0000 0.0000 0.0000
# 4 0.0000 0.0000 0.0000 84.3366 0.0000 0.0000
# 5 0.0000 0.0000 0.0000 0.0000 40.9625 0.0000
# 6 0.0000 0.0000 0.0000 0.0000 0.0000 54.9896
#
#
#
# Elastic Compliance Matrix: (Units=1/GPa)
#
#
# Indices 1 2 3 4 5 6 
#
# 1 0.009595 -0.000686 -0.002185 0.000000 0.000000 0.000000
# 2 -0.000686 0.005958 0.001097 0.000000 0.000000 0.000000
# 3 -0.002185 0.001097 0.007532 0.000000 0.000000 0.000000
# 4 0.000000 0.000000 0.000000 0.011857 0.000000 0.000000
# 5 0.000000 0.000000 0.000000 0.000000 0.024413 0.000000
# 6 0.000000 0.000000 0.000000 0.000000 0.000000 0.018185
#
#
# Mechanical properties :
#
#
# Convention : Reuss Voigt Hill
#
# Bulk Modulus (GPa) = 51.17947 51.19893 51.18920
# Shear Modulus (GPa) = 57.07791 63.70132 60.38962
#
# Velocity S-wave (km/s) = 4.55130 4.80813 4.68148
# Velocity P-wave (km/s) = 6.79653 7.02886 6.91367
#
# Compressibility (1/GPa) = 0.01953908
#
# Stress axis : x y z
#
# Youngs Moduli (GPa) = 104.22545 167.83001 132.76204
#
# Poissons Ratio (x) = 0.11507 0.29003
# Poissons Ratio (y) = 0.07146 -0.14566
# Poissons Ratio (z) = 0.22769 -0.18413
#
# Static dielectric constant tensor:
#      x y z
#    x 1.050250 0.000000 0.000000 
#    y 0.000000 2.591490 0.000000 
#    z 0.000000 0.000000 2.069820 
# 
# From -- ./inp_files/2965.got.cif
#   From: 2010.05.17/outbox.cif.g08.bks.cpg/sg40_2_cif.got.tgz:2965.got - 2010.06.03 18:35:42.
