data_PCOD9365559
_publ_section_title
;
Structure prediction by ZEFSAII (Michael W. Deem and Ramdas Pophale) SiO2 
 PCOD9365559
Probable space group: A M A 2
;
_chemical_formula_sum "Si O2"
_cell_formula_units_Z 44
_cell_length_a 18.915828
_cell_length_b 17.768982
_cell_length_c 6.395055
_cell_angle_alpha 90.000000
_cell_angle_beta 90.000000
_cell_angle_gamma 90.000000
_cell_volume 2149.473958
_symmetry_space_group_name_H-M "A M A 2"
_symmetry_group_IT_number 40
_symmetry_cell_setting 'orthorhombic'
loop_
_space_group_symop_operation_xyz
x,y,z
-x,-y,z
1/2-x,y,z
1/2+x,-y,z
x,1/2+y,1/2+z
-x,1/2-y,1/2+z
1/2-x,1/2+y,1/2+z
1/2+x,1/2-y,1/2+z
loop_
_atom_site_type_symbol
_atom_site_label
_atom_site_fract_x
_atom_site_fract_y
_atom_site_fract_z
Si Si1 0.250000 0.567750 0.361560
Si Si2 0.750000 0.844079 0.250850
Si Si3 0.250000 0.777659 0.385247
Si Si4 0.985145 0.393608 0.117841
Si Si5 0.000000 0.500000 0.495978
Si Si6 0.750000 0.553033 0.022239
Si Si7 0.148879 0.682651 0.130645
Si Si8 0.095892 0.473769 0.877314
O O1 0.250000 0.580677 0.609463
O O2 0.250000 0.486187 0.252350
O O3 0.182361 0.614313 0.270314
O O4 0.816652 0.832303 0.403810
O O5 0.750000 0.780465 0.075682
O O6 0.250000 0.857807 0.492770
O O7 0.183119 0.756569 0.236747
O O8 0.935603 0.320851 0.124107
O O9 0.935588 0.455509 0.003748
O O10 0.995569 0.427415 0.347759
O O11 0.057384 0.401235 0.985859
O O12 0.067208 0.486812 0.645106
O O13 0.821732 0.528055 0.911064
#
# Coordination Sequence:
#
# PCOD9365559 Si02
#       8
#     4   4   4   8   4   4   8   8
#     4   9  18  30  55  88 113 150 184 247 292 354
#     4   8  18  36  55  88 105 153 212 233 300 344
#     4   9  22  34  57  77 126 156 190 248 294 369
#     4   9  17  36  56  83 116 141 199 242 290 342
#     4   8  18  36  54  90 114 146 188 226 310 348
#     4  12  20  40  53  89 134 149 192 246 324 345
#     4   9  17  37  57  82 112 150 203 248 280 357
#     4   9  20  32  55  83 121 150 174 254 288 363
#
# _framework density 20.470123000000001
#
# number of rings (size 3 to 8) (size 9 to 14) (size 15 to 20)
#    0.000    3.636    1.818    0.000    0.000    5.818 
#    0.000   15.455    8.000    0.000    0.000    0.000 
#    0.000    0.000    0.000    0.000    0.000    0.000 
#
# Total GULP energy -122537.462924 kJ/mol
# GULP energy per Si atom -5569.884678 kJ/mol
# Density = 2.042353 g / cm^3
# Si number density = 20.470123 Si / 1000 Ang^3
#
#
#
# Elastic Constant Matrix: (Units=GPa)
#
#
# Indices 1 2 3 4 5 6 
#
# 1 110.5178 3.7867 33.1324 0.0000 0.0000 0.0000
# 2 3.7867 71.0886 29.6931 0.0000 0.0000 0.0000
# 3 33.1324 29.6931 145.7796 0.0000 0.0000 0.0000
# 4 0.0000 0.0000 0.0000 18.4427 0.0000 0.0000
# 5 0.0000 0.0000 0.0000 0.0000 2.2425 0.0000
# 6 0.0000 0.0000 0.0000 0.0000 0.0000 6.6948
#
#
#
# Elastic Compliance Matrix: (Units=1/GPa)
#
#
# Indices 1 2 3 4 5 6 
#
# 1 0.009723 0.000443 -0.002300 0.000000 0.000000 0.000000
# 2 0.000443 0.015395 -0.003236 0.000000 0.000000 0.000000
# 3 -0.002300 -0.003236 0.008042 0.000000 0.000000 0.000000
# 4 0.000000 0.000000 0.000000 0.054222 0.000000 0.000000
# 5 0.000000 0.000000 0.000000 0.000000 0.445933 0.000000
# 6 0.000000 0.000000 0.000000 0.000000 0.000000 0.149369
#
#
# Mechanical properties :
#
#
# Convention : Reuss Voigt Hill
#
# Bulk Modulus (GPa) = 43.53068 51.17894 47.35481
# Shear Modulus (GPa) = 7.13747 22.86092 14.99920
#
# Velocity S-wave (km/s) = 1.86932 3.34547 2.70985
# Velocity P-wave (km/s) = 5.09615 6.32289 5.74237
#
# Compressibility (1/GPa) = 0.02297230
#
# Stress axis : x y z
#
# Youngs Moduli (GPa) = 102.85265 64.95542 124.35350
#
# Poissons Ratio (x) = -0.02876 0.28600
# Poissons Ratio (y) = -0.04554 0.40246
# Poissons Ratio (z) = 0.23655 0.21022
#
# Static dielectric constant tensor:
#      x y z
#    x 1.795300 0.000000 0.000000 
#    y 0.000000 1.800400 0.000000 
#    z 0.000000 0.000000 1.748940 
# 
# From -- ./inp_files/2303.got.cif
#   From: 2010.05.17/outbox.cif.g08.bks.cpg/sg40_2_cif.got.tgz:2303.got - 2010.06.03 18:35:42.
