data_PCOD9365643
_publ_section_title
;
Structure prediction by ZEFSAII (Michael W. Deem and Ramdas Pophale) SiO2 
 PCOD9365643
Probable space group: A M A 2
;
_chemical_formula_sum "Si O2"
_cell_formula_units_Z 24
_cell_length_a 18.000000
_cell_length_b 9.000000
_cell_length_c 15.000000
_cell_angle_alpha 90.000000
_cell_angle_beta 90.000000
_cell_angle_gamma 90.000000
_cell_volume 2430.000000
_symmetry_space_group_name_H-M "A M A 2"
_symmetry_group_IT_number 40
_symmetry_cell_setting 'orthorhombic'
loop_
_space_group_symop_operation_xyz
x,y,z
-x,-y,z
1/2-x,y,z
1/2+x,-y,z
x,1/2+y,1/2+z
-x,1/2-y,1/2+z
1/2-x,1/2+y,1/2+z
1/2+x,1/2-y,1/2+z
loop_
_atom_site_type_symbol
_atom_site_label
_atom_site_fract_x
_atom_site_fract_y
_atom_site_fract_z
Si Si1 0.666489 0.741994 0.817250
Si Si2 0.601271 0.877401 0.647551
Si Si3 0.164260 0.048313 0.215016
Si Si4 0.578773 0.488651 0.397085
Si Si5 0.665611 0.651435 0.538687
Si Si6 0.937687 0.169883 0.713153
O O1 0.750000 0.759540 0.852662
O O2 0.661206 0.826762 0.721420
O O3 0.652684 0.571462 0.793303
O O4 0.605142 0.822728 0.876256
O O5 0.616685 0.795586 0.556338
O O6 0.523225 0.817224 0.686189
O O7 0.597453 0.053744 0.643236
O O8 0.250000 0.100127 0.219455
O O9 0.106393 0.179722 0.218510
O O10 0.155077 0.958838 0.122537
O O11 0.500000 0.500000 0.446220
O O12 0.642758 0.565943 0.451633
O O13 0.568112 0.581712 0.306323
O O14 0.750000 0.698672 0.536402
#
# Coordination Sequence:
#
# PCOD9365643 Si02
#       6
#     8   8   8   8   8   8
#     4   9  17  34  56  78 112 149 187 235 282 339
#     4   9  18  35  55  83 114 149 194 235 282 342
#     4   9  20  35  57  87 111 150 198 235 289 349
#     4  11  21  37  55  87 115 149 196 238 294 352
#     4  10  22  37  57  85 115 153 194 234 296 351
#     4  10  19  36  58  86 114 148 198 240 285 347
#
# _framework density 9.8765429999999999
#
# number of rings (size 3 to 8) (size 9 to 14) (size 15 to 20)
#    0.000    2.333    3.333    2.000    2.333    6.000 
#    0.000    1.667    0.000    0.000    0.000    0.000 
#    0.000    0.000    0.000    0.000    0.000    0.000 
#
# Total GULP energy -133685.375648 kJ/mol
# GULP energy per Si atom -5570.223985 kJ/mol
# Density = 0.985406 g / cm^3
# Si number density = 9.876543 Si / 1000 Ang^3
#
#
#
# Elastic Constant Matrix: (Units=GPa)
#
#
# Indices 1 2 3 4 5 6 
#
# 1 94.6812 86.5575 19.7156 0.0000 0.0000 0.0000
# 2 86.5575 67.6519 16.2871 0.0000 0.0000 0.0000
# 3 19.7156 16.2871 26.1625 0.0000 0.0000 0.0000
# 4 0.0000 0.0000 0.0000 16.6530 0.0000 0.0000
# 5 0.0000 0.0000 0.0000 0.0000 18.8048 0.0000
# 6 0.0000 0.0000 0.0000 0.0000 0.0000 37.2017
#
#
#
# Elastic Compliance Matrix: (Units=1/GPa)
#
#
# Indices 1 2 3 4 5 6 
#
# 1 -0.062028 0.080115 -0.003132 0.000000 0.000000 0.000000
# 2 0.080115 -0.086090 -0.006779 0.000000 0.000000 0.000000
# 3 -0.003132 -0.006779 0.044803 0.000000 0.000000 0.000000
# 4 0.000000 0.000000 0.000000 0.060049 0.000000 0.000000
# 5 0.000000 0.000000 0.000000 0.000000 0.053178 0.000000
# 6 0.000000 0.000000 0.000000 0.000000 0.000000 0.026880
#
#
# Mechanical properties :
#
#
# Convention : Reuss Voigt Hill
#
# Bulk Modulus (GPa) = 26.95864 48.17954 37.56909
# Shear Modulus (GPa) = -54.79371 18.92760 -17.93306
#
# Velocity S-wave (km/s) = -5.27253 3.09885 -3.01634
# Velocity P-wave (km/s) = 4.83618 6.10309 2.63240
#
# Compressibility (1/GPa) = 0.03709386
#
# Stress axis : x y z
#
# Youngs Moduli (GPa) = -16.12188 -11.61570 22.31988
#
# Poissons Ratio (x) = 0.93060 0.06990
# Poissons Ratio (y) = 1.29161 0.15131
# Poissons Ratio (z) = -0.05049 -0.07874
#
# Static dielectric constant tensor:
#      x y z
#    x 1.697300 0.000000 0.000000 
#    y 0.000000 1.688920 0.000000 
#    z 0.000000 0.000000 1.708000 
# 
# From -- ./inp_files/17609.got.cif
#   From: 2010.05.17/outbox.ucp.g08.bks.cvg/sg40_9_cif.got.tgz:17609.got - 2010.06.11 16:26:39.
