data_PCOD9365837
_publ_section_title
;
Structure prediction by ZEFSAII (Michael W. Deem and Ramdas Pophale) SiO2 
 PCOD9365837
Probable space group: A B A 2
;
_chemical_formula_sum "Si O2"
_cell_formula_units_Z 40
_cell_length_a 12.022192
_cell_length_b 18.316120
_cell_length_c 7.545787
_cell_angle_alpha 90.000000
_cell_angle_beta 90.000000
_cell_angle_gamma 90.000000
_cell_volume 1661.581628
_symmetry_space_group_name_H-M "A B A 2"
_symmetry_group_IT_number 41
_symmetry_cell_setting 'orthorhombic'
loop_
_space_group_symop_operation_xyz
x,y,z
-x,-y,z
1/2-x,y,1/2+z
1/2+x,-y,1/2+z
x,1/2+y,1/2+z
-x,1/2-y,1/2+z
1/2-x,1/2+y,z
1/2+x,1/2-y,z
loop_
_atom_site_type_symbol
_atom_site_label
_atom_site_fract_x
_atom_site_fract_y
_atom_site_fract_z
Si Si1 0.380540 0.266496 0.072330
Si Si2 0.360503 0.116907 0.896041
Si Si3 0.901267 0.107723 0.801468
Si Si4 0.581667 0.682960 0.439882
Si Si5 0.144724 0.054022 0.747425
O O1 0.326310 0.192118 0.997899
O O2 0.353245 0.282855 0.275892
O O3 0.361644 0.334919 0.946033
O O4 0.511100 0.244626 0.045817
O O5 0.373918 0.052155 0.037636
O O6 0.485554 0.135670 0.837990
O O7 0.262199 0.092846 0.771867
O O8 0.872127 0.135887 0.602772
O O9 0.036415 0.099015 0.812191
O O10 0.856016 0.026390 0.827443
#
# Coordination Sequence:
#
# PCOD9365837 Si02
#       5
#     8   8   8   8   8
#     4  10  18  37  66  95 117 170 219 272 323 401
#     4   9  21  38  63  90 133 164 214 283 329 387
#     4  10  21  39  66  90 131 176 221 261 327 417
#     4   9  17  35  64  93 120 163 219 266 333 389
#     4  10  21  41  60  93 132 174 211 275 337 391
#
# _framework density 24.073447999999999
#
# number of rings (size 3 to 8) (size 9 to 14) (size 15 to 20)
#    1.200    1.200    2.000    0.000    2.800    0.000 
#    7.200    4.000    0.000    0.000    0.000    0.000 
#    0.000    0.000    0.000    0.000    0.000    0.000 
#
# Total GULP energy -111549.986500 kJ/mol
# GULP energy per Si atom -5577.499325 kJ/mol
# Density = 2.401866 g / cm^3
# Si number density = 24.073448 Si / 1000 Ang^3
#
#
#
# Elastic Constant Matrix: (Units=GPa)
#
#
# Indices 1 2 3 4 5 6 
#
# 1 58.8654 -4.8358 2.9502 0.0000 0.0000 0.0000
# 2 -4.8358 87.4401 20.2226 0.0000 0.0000 0.0000
# 3 2.9502 20.2226 54.0266 0.0000 0.0000 0.0000
# 4 0.0000 0.0000 0.0000 41.8953 0.0000 0.0000
# 5 0.0000 0.0000 0.0000 0.0000 26.6504 0.0000
# 6 0.0000 0.0000 0.0000 0.0000 0.0000 11.0288
#
#
#
# Elastic Compliance Matrix: (Units=1/GPa)
#
#
# Indices 1 2 3 4 5 6 
#
# 1 0.017164 0.001276 -0.001415 0.000000 0.000000 0.000000
# 2 0.001276 0.012615 -0.004792 0.000000 0.000000 0.000000
# 3 -0.001415 -0.004792 0.020380 0.000000 0.000000 0.000000
# 4 0.000000 0.000000 0.000000 0.023869 0.000000 0.000000
# 5 0.000000 0.000000 0.000000 0.000000 0.037523 0.000000
# 6 0.000000 0.000000 0.000000 0.000000 0.000000 0.090671
#
#
# Mechanical properties :
#
#
# Convention : Reuss Voigt Hill
#
# Bulk Modulus (GPa) = 24.81473 26.33401 25.57437
# Shear Modulus (GPa) = 22.17139 28.04792 25.10966
#
# Velocity S-wave (km/s) = 3.03807 3.41706 3.23312
# Velocity P-wave (km/s) = 4.75782 5.15084 4.95822
#
# Compressibility (1/GPa) = 0.04029865
#
# Stress axis : x y z
#
# Youngs Moduli (GPa) = 58.26255 79.26959 49.06714
#
# Poissons Ratio (x) = -0.10119 0.06943
# Poissons Ratio (y) = -0.07437 0.23511
# Poissons Ratio (z) = 0.08244 0.37983
#
# Static dielectric constant tensor:
#      x y z
#    x 2.080990 0.000000 0.000000 
#    y 0.000000 1.898630 0.000000 
#    z 0.000000 0.000000 1.881960 
# 
# From -- ./inp_files/1994.got.cif
#   From: 2010.05.17/outbox.cif.g08.bks.cpg/sg41_1_cif.got.tgz:1994.got - 2010.06.03 18:54:24.
