data_PCOD9365122
_publ_section_title
;
Structure prediction by ZEFSAII (Michael W. Deem and Ramdas Pophale) SiO2 
 PCOD9365122
Probable space group: A M A 2
;
_chemical_formula_sum "Si O2"
_cell_formula_units_Z 48
_cell_length_a 15.828671
_cell_length_b 11.696219
_cell_length_c 10.493905
_cell_angle_alpha 90.000000
_cell_angle_beta 90.000000
_cell_angle_gamma 90.000000
_cell_volume 1942.795425
_symmetry_space_group_name_H-M "A M A 2"
_symmetry_group_IT_number 40
_symmetry_cell_setting 'orthorhombic'
loop_
_space_group_symop_operation_xyz
x,y,z
-x,-y,z
1/2-x,y,z
1/2+x,-y,z
x,1/2+y,1/2+z
-x,1/2-y,1/2+z
1/2-x,1/2+y,1/2+z
1/2+x,1/2-y,1/2+z
loop_
_atom_site_type_symbol
_atom_site_label
_atom_site_fract_x
_atom_site_fract_y
_atom_site_fract_z
Si Si1 0.406951 0.966372 0.274030
Si Si2 0.847353 0.322584 0.671484
Si Si3 0.151193 0.311605 0.546434
Si Si4 0.850211 0.963494 0.908668
Si Si5 0.921802 0.913440 0.647839
Si Si6 0.846426 0.113047 0.531921
O O1 0.356738 0.890815 0.172880
O O2 0.401573 0.899459 0.405428
O O3 0.500000 0.000000 0.228328
O O4 0.370176 0.094278 0.286186
O O5 0.750000 0.297198 0.691463
O O6 0.860328 0.396312 0.542170
O O7 0.885503 0.201502 0.633964
O O8 0.250000 0.278531 0.531298
O O9 0.128719 0.402530 0.434775
O O10 0.088771 0.206437 0.575198
O O11 0.750000 0.957542 0.878800
O O12 0.905444 0.905465 0.799021
O O13 0.844957 0.990890 0.597239
O O14 0.000000 0.000000 0.624111
O O15 0.750000 0.146330 0.494654
#
# Coordination Sequence:
#
# PCOD9365122 Si02
#       6
#     8   8   8   8   8   8
#     4  11  23  40  66  99 130 166 220 282 340 395
#     4   9  20  40  67  93 123 168 223 270 321 399
#     4  10  22  44  71  94 128 179 228 269 331 414
#     4   9  19  40  68  94 121 168 225 269 322 399
#     4  12  26  41  60  98 140 170 215 276 339 397
#     4  11  23  41  64  90 130 177 218 265 329 407
#
# _framework density 24.706666999999999
#
# number of rings (size 3 to 8) (size 9 to 14) (size 15 to 20)
#    0.000    1.667    0.000    5.500    2.333    5.333 
#    3.000    1.667    0.000    0.000    0.000    0.000 
#    0.000    0.000    0.000    0.000    0.000    0.000 
#
# Total GULP energy -133978.179807 kJ/mol
# GULP energy per Si atom -5582.424159 kJ/mol
# Density = 2.465043 g / cm^3
# Si number density = 24.706667 Si / 1000 Ang^3
#
#
#
# Elastic Constant Matrix: (Units=GPa)
#
#
# Indices 1 2 3 4 5 6 
#
# 1 66.0262 -3.2340 -7.0363 0.0000 0.0000 0.0000
# 2 -3.2340 108.9970 -1.2526 0.0000 0.0000 0.0000
# 3 -7.0363 -1.2526 57.6878 0.0000 0.0000 0.0000
# 4 0.0000 0.0000 0.0000 10.1175 0.0000 0.0000
# 5 0.0000 0.0000 0.0000 0.0000 -9.5129 0.0000
# 6 0.0000 0.0000 0.0000 0.0000 0.0000 30.4155
#
#
#
# Elastic Compliance Matrix: (Units=1/GPa)
#
#
# Indices 1 2 3 4 5 6 
#
# 1 0.015370 0.000478 0.001885 0.000000 0.000000 0.000000
# 2 0.000478 0.009192 0.000258 0.000000 0.000000 0.000000
# 3 0.001885 0.000258 0.017570 0.000000 0.000000 0.000000
# 4 0.000000 0.000000 0.000000 0.098838 0.000000 0.000000
# 5 0.000000 0.000000 0.000000 0.000000 -0.105120 0.000000
# 6 0.000000 0.000000 0.000000 0.000000 0.000000 0.032878
#
#
# Mechanical properties :
#
#
# Convention : Reuss Voigt Hill
#
# Bulk Modulus (GPa) = 21.10913 23.29614 22.20263
# Shear Modulus (GPa) = 63.06970 22.48628 42.77799
#
# Velocity S-wave (km/s) = 5.05795 3.02011 4.16557
# Velocity P-wave (km/s) = 6.53245 4.64876 5.66938
#
# Compressibility (1/GPa) = 0.04737287
#
# Stress axis : x y z
#
# Youngs Moduli (GPa) = 65.06271 108.79379 56.91455
#
# Poissons Ratio (x) = -0.05197 -0.10729
# Poissons Ratio (y) = -0.03108 -0.01468
# Poissons Ratio (z) = -0.12265 -0.02805
#
# Static dielectric constant tensor:
#      x y z
#    x 2.150550 0.000000 0.000000 
#    y 0.000000 2.181890 0.000000 
#    z 0.000000 0.000000 1.982650 
# 
# From -- ./inp_files/12895.got.cif
#   From: 2010.05.17/outbox.cif.g08.bks.cpg/sg40_7_cif.got.tgz:12895.got - 2010.06.03 18:35:42.
