data_PCOD9365329
_publ_section_title
;
Structure prediction by ZEFSAII (Michael W. Deem and Ramdas Pophale) SiO2 
 PCOD9365329
Probable space group: A M A 2
;
_chemical_formula_sum "Si O2"
_cell_formula_units_Z 56
_cell_length_a 14.313239
_cell_length_b 9.428130
_cell_length_c 17.370417
_cell_angle_alpha 90.000000
_cell_angle_beta 90.000000
_cell_angle_gamma 90.000000
_cell_volume 2344.087018
_symmetry_space_group_name_H-M "A M A 2"
_symmetry_group_IT_number 40
_symmetry_cell_setting 'orthorhombic'
loop_
_space_group_symop_operation_xyz
x,y,z
-x,-y,z
1/2-x,y,z
1/2+x,-y,z
x,1/2+y,1/2+z
-x,1/2-y,1/2+z
1/2-x,1/2+y,1/2+z
1/2+x,1/2-y,1/2+z
loop_
_atom_site_type_symbol
_atom_site_label
_atom_site_fract_x
_atom_site_fract_y
_atom_site_fract_z
Si Si1 0.362656 0.758186 0.479090
Si Si2 0.600510 0.814804 0.158602
Si Si3 0.099557 0.943823 0.759768
Si Si4 0.000000 0.000000 0.492760
Si Si5 0.750000 0.802427 0.773530
Si Si6 0.137671 0.442008 0.424519
Si Si7 0.647432 0.288592 0.049383
Si Si8 0.884783 0.129323 0.199571
O O1 0.250000 0.785621 0.470819
O O2 0.386018 0.726469 0.569400
O O3 0.432171 0.883996 0.452428
O O4 0.382281 0.607169 0.438899
O O5 0.636367 0.682443 0.207175
O O6 0.494085 0.840420 0.188225
O O7 0.641191 0.969849 0.175677
O O8 0.089344 0.888564 0.847377
O O9 0.169560 0.073822 0.766803
O O10 0.000000 0.000000 0.730803
O O11 0.927091 0.910929 0.542794
O O12 0.832990 0.679068 0.775745
O O13 0.250000 0.431666 0.415420
O O14 0.114513 0.344202 0.497466
O O15 0.750000 0.335580 0.021916
O O16 0.657228 0.234133 0.135332
#
# Coordination Sequence:
#
# PCOD9365329 Si02
#       8
#     8   8   8   4   4   8   8   8
#     4  11  25  42  71 102 140 181 238 298 350 426
#     4  11  25  43  68 110 134 185 246 289 353 432
#     4  12  27  45  73 105 143 193 240 292 359 442
#     4  12  26  38  62 104 142 172 226 300 358 400
#     4  12  26  44  68 106 146 188 222 306 358 426
#     4  10  24  49  73  99 137 190 246 282 355 439
#     4  11  23  42  70 102 134 185 232 295 352 420
#     4  11  23  43  71 100 143 181 236 297 357 419
#
# _framework density 23.889897999999999
#
# number of rings (size 3 to 8) (size 9 to 14) (size 15 to 20)
#    0.000    0.857    5.714    0.429    7.000    0.000 
#    0.000    2.857    3.143    0.000    0.000    0.000 
#    0.000    0.000    0.000    0.000    0.000    0.000 
#
# Total GULP energy -156091.428740 kJ/mol
# GULP energy per Si atom -5574.693884 kJ/mol
# Density = 2.383552 g / cm^3
# Si number density = 23.889898 Si / 1000 Ang^3
#
#
#
# Elastic Constant Matrix: (Units=GPa)
#
#
# Indices 1 2 3 4 5 6 
#
# 1 141.3420 33.6876 -3.4878 0.0000 0.0000 0.0000
# 2 33.6876 116.0512 23.2634 0.0000 0.0000 0.0000
# 3 -3.4878 23.2634 71.3943 0.0000 0.0000 0.0000
# 4 0.0000 0.0000 0.0000 23.6407 0.0000 0.0000
# 5 0.0000 0.0000 0.0000 0.0000 1.0347 0.0000
# 6 0.0000 0.0000 0.0000 0.0000 0.0000 40.9824
#
#
#
# Elastic Compliance Matrix: (Units=1/GPa)
#
#
# Indices 1 2 3 4 5 6 
#
# 1 0.007693 -0.002470 0.001181 0.000000 0.000000 0.000000
# 2 -0.002470 0.010012 -0.003383 0.000000 0.000000 0.000000
# 3 0.001181 -0.003383 0.015167 0.000000 0.000000 0.000000
# 4 0.000000 0.000000 0.000000 0.042300 0.000000 0.000000
# 5 0.000000 0.000000 0.000000 0.000000 0.966438 0.000000
# 6 0.000000 0.000000 0.000000 0.000000 0.000000 0.024401
#
#
# Mechanical properties :
#
#
# Convention : Reuss Voigt Hill
#
# Bulk Modulus (GPa) = 42.50406 48.41265 45.45835
# Shear Modulus (GPa) = 4.61596 31.48652 18.05124
#
# Velocity S-wave (km/s) = 1.39154 3.63434 2.75180
# Velocity P-wave (km/s) = 4.51798 6.15794 5.40057
#
# Compressibility (1/GPa) = 0.02352716
#
# Stress axis : x y z
#
# Youngs Moduli (GPa) = 129.99156 99.88064 65.93381
#
# Poissons Ratio (x) = 0.24668 -0.07784
# Poissons Ratio (y) = 0.32104 0.22305
# Poissons Ratio (z) = -0.15346 0.33789
#
# Static dielectric constant tensor:
#      x y z
#    x 2.074650 0.000000 0.000000 
#    y 0.000000 1.893570 0.000000 
#    z 0.000000 0.000000 1.988390 
# 
# From -- ./inp_files/23156.got.cif
#   From: 2010.05.17/outbox.cif.g08.bks.cpg/sg40_12_cif.got.tgz:23156.got - 2010.06.03 18:35:42.
