data_PCOD9365940
_publ_section_title
;
Structure prediction by ZEFSAII (Michael W. Deem and Ramdas Pophale) SiO2 
 PCOD9365940
Probable space group: A B A 2
;
_chemical_formula_sum "Si O2"
_cell_formula_units_Z 48
_cell_length_a 7.808656
_cell_length_b 16.269748
_cell_length_c 16.183067
_cell_angle_alpha 90.000000
_cell_angle_beta 90.000000
_cell_angle_gamma 90.000000
_cell_volume 2055.975568
_symmetry_space_group_name_H-M "A B A 2"
_symmetry_group_IT_number 41
_symmetry_cell_setting 'orthorhombic'
loop_
_space_group_symop_operation_xyz
x,y,z
-x,-y,z
1/2-x,y,1/2+z
1/2+x,-y,1/2+z
x,1/2+y,1/2+z
-x,1/2-y,1/2+z
1/2-x,1/2+y,z
1/2+x,1/2-y,z
loop_
_atom_site_type_symbol
_atom_site_label
_atom_site_fract_x
_atom_site_fract_y
_atom_site_fract_z
Si Si1 0.360739 0.620255 0.106280
Si Si2 0.500000 0.500000 0.227617
Si Si3 0.127908 0.370443 0.968297
Si Si4 0.707581 0.720501 0.125440
Si Si5 0.737971 0.943866 0.947370
Si Si6 0.249743 0.364813 0.290369
Si Si7 0.500000 0.000000 0.312111
O O1 0.362764 0.543833 0.167906
O O2 0.526210 0.675538 0.121672
O O3 0.203587 0.681918 0.115199
O O4 0.370332 0.590234 0.013407
O O5 0.411337 0.427049 0.277458
O O6 0.183714 0.465653 0.978863
O O7 0.228562 0.338277 0.885952
O O8 0.925546 0.382911 0.947135
O O9 0.181706 0.319038 0.049628
O O10 0.761248 0.703498 0.220198
O O11 0.843405 0.960891 0.864915
O O12 0.087923 0.422672 0.270856
#
# Coordination Sequence:
#
# PCOD9365940 Si02
#       7
#     8   4   8   8   8   8   4
#     4  11  22  40  63  91 126 165 211 258 314 375
#     4  10  21  40  63  84 122 172 210 254 304 370
#     4  10  21  40  63  92 125 164 211 258 309 368
#     4  11  24  40  62  90 125 162 204 262 322 374
#     4  10  19  36  64  91 123 166 212 255 304 370
#     4  10  21  39  61  91 127 161 209 261 309 372
#     4  10  19  34  61  92 122 164 212 258 308 368
#
# _framework density 23.346579999999999
#
# number of rings (size 3 to 8) (size 9 to 14) (size 15 to 20)
#    0.000    1.667    0.000    7.500    0.000    4.000 
#    0.000   13.333    0.000    0.000    0.000    0.000 
#    0.000    0.000    0.000    0.000    0.000    0.000 
#
# Total GULP energy -133985.307121 kJ/mol
# GULP energy per Si atom -5582.721130 kJ/mol
# Density = 2.329344 g / cm^3
# Si number density = 23.346580 Si / 1000 Ang^3
#
#
#
# Elastic Constant Matrix: (Units=GPa)
#
#
# Indices 1 2 3 4 5 6 
#
# 1 51.5284 -9.3676 -2.7521 0.0000 0.0000 0.0000
# 2 -9.3676 43.6064 32.7163 0.0000 0.0000 0.0000
# 3 -2.7521 32.7163 101.0458 0.0000 0.0000 0.0000
# 4 0.0000 0.0000 0.0000 25.5626 0.0000 0.0000
# 5 0.0000 0.0000 0.0000 0.0000 11.0932 0.0000
# 6 0.0000 0.0000 0.0000 0.0000 0.0000 27.5504
#
#
#
# Elastic Compliance Matrix: (Units=1/GPa)
#
#
# Indices 1 2 3 4 5 6 
#
# 1 0.020293 0.005210 -0.001134 0.000000 0.000000 0.000000
# 2 0.005210 0.031628 -0.010099 0.000000 0.000000 0.000000
# 3 -0.001134 -0.010099 0.013135 0.000000 0.000000 0.000000
# 4 0.000000 0.000000 0.000000 0.039120 0.000000 0.000000
# 5 0.000000 0.000000 0.000000 0.000000 0.090145 0.000000
# 6 0.000000 0.000000 0.000000 0.000000 0.000000 0.036297
#
#
# Mechanical properties :
#
#
# Convention : Reuss Voigt Hill
#
# Bulk Modulus (GPa) = 18.86358 26.37486 22.61922
# Shear Modulus (GPa) = 19.20603 24.54683 21.87643
#
# Velocity S-wave (km/s) = 2.87130 3.24606 3.06441
# Velocity P-wave (km/s) = 4.36919 5.03695 4.71491
#
# Compressibility (1/GPa) = 0.05301221
#
# Stress axis : x y z
#
# Youngs Moduli (GPa) = 49.27701 31.61721 76.13068
#
# Poissons Ratio (x) = -0.16474 0.08636
# Poissons Ratio (y) = -0.25676 0.76881
# Poissons Ratio (z) = 0.05590 0.31929
#
# Static dielectric constant tensor:
#      x y z
#    x 1.995740 0.000000 0.000000 
#    y 0.000000 1.844540 0.000000 
#    z 0.000000 0.000000 1.883030 
# 
# From -- ./inp_files/7337.got.cif
#   From: 2010.05.17/outbox.cif.g08.bks.cpg/sg41_4_cif.got.tgz:7337.got - 2010.06.03 18:54:24.
