data_PCOD9365858
_publ_section_title
;
Structure prediction by ZEFSAII (Michael W. Deem and Ramdas Pophale) SiO2 
 PCOD9365858
Probable space group: A B A 2
;
_chemical_formula_sum "Si O2"
_cell_formula_units_Z 48
_cell_length_a 13.706167
_cell_length_b 16.928660
_cell_length_c 9.945638
_cell_angle_alpha 90.000000
_cell_angle_beta 90.000000
_cell_angle_gamma 90.000000
_cell_volume 2307.656956
_symmetry_space_group_name_H-M "A B A 2"
_symmetry_group_IT_number 41
_symmetry_cell_setting 'orthorhombic'
loop_
_space_group_symop_operation_xyz
x,y,z
-x,-y,z
1/2-x,y,1/2+z
1/2+x,-y,1/2+z
x,1/2+y,1/2+z
-x,1/2-y,1/2+z
1/2-x,1/2+y,z
1/2+x,1/2-y,z
loop_
_atom_site_type_symbol
_atom_site_label
_atom_site_fract_x
_atom_site_fract_y
_atom_site_fract_z
Si Si1 0.983715 0.694858 0.012800
Si Si2 0.777096 0.551850 0.437197
Si Si3 0.103272 0.041955 0.500907
Si Si4 0.786170 0.156638 0.677464
Si Si5 0.894138 0.259287 0.241416
Si Si6 0.404018 0.554373 0.794133
O O1 0.891250 0.669118 0.106056
O O2 0.070320 0.631833 0.981193
O O3 0.040703 0.756429 0.108382
O O4 0.935253 0.715087 0.871540
O O5 0.673983 0.508642 0.409330
O O6 0.801635 0.612175 0.317865
O O7 0.772692 0.601341 0.573136
O O8 0.849462 0.477924 0.424237
O O9 0.148081 0.035722 0.651199
O O10 0.000000 0.000000 0.500430
O O11 0.716797 0.232353 0.708873
O O12 0.910781 0.351344 0.283263
O O13 0.500000 0.500000 0.788713
#
# Coordination Sequence:
#
# PCOD9365858 Si02
#       6
#     8   8   8   8   8   8
#     4  11  25  45  69  98 145 182 236 298 361 432
#     4  12  22  42  71  99 133 183 234 294 349 435
#     4  10  18  40  66  92 127 182 224 271 357 421
#     4  12  24  44  70 100 139 183 235 293 365 423
#     4  11  26  43  70 103 135 194 232 297 363 433
#     4  10  23  43  66  95 138 184 227 284 360 425
#
# _framework density 20.800318999999998
#
# number of rings (size 3 to 8) (size 9 to 14) (size 15 to 20)
#    0.000    1.000    5.000    2.000    4.667    4.000 
#    3.000    0.833    0.000    0.000    0.000    0.000 
#    0.000    0.000    0.000    0.000    0.000    0.000 
#
# Total GULP energy -133610.719114 kJ/mol
# GULP energy per Si atom -5567.113296 kJ/mol
# Density = 2.075298 g / cm^3
# Si number density = 20.800319 Si / 1000 Ang^3
#
#
#
# Elastic Constant Matrix: (Units=GPa)
#
#
# Indices 1 2 3 4 5 6 
#
# 1 56.6250 26.6436 -10.1186 0.0000 0.0000 0.0000
# 2 26.6436 76.7202 9.7929 0.0000 0.0000 0.0000
# 3 -10.1186 9.7929 42.1640 0.0000 0.0000 0.0000
# 4 0.0000 0.0000 0.0000 44.9109 0.0000 0.0000
# 5 0.0000 0.0000 0.0000 0.0000 4.4120 0.0000
# 6 0.0000 0.0000 0.0000 0.0000 0.0000 33.0717
#
#
#
# Elastic Compliance Matrix: (Units=1/GPa)
#
#
# Indices 1 2 3 4 5 6 
#
# 1 0.023307 -0.009077 0.007702 0.000000 0.000000 0.000000
# 2 -0.009077 0.016968 -0.006119 0.000000 0.000000 0.000000
# 3 0.007702 -0.006119 0.026986 0.000000 0.000000 0.000000
# 4 0.000000 0.000000 0.000000 0.022266 0.000000 0.000000
# 5 0.000000 0.000000 0.000000 0.000000 0.226654 0.000000
# 6 0.000000 0.000000 0.000000 0.000000 0.000000 0.030237
#
#
# Mechanical properties :
#
#
# Convention : Reuss Voigt Hill
#
# Bulk Modulus (GPa) = 19.13083 25.34946 22.24015
# Shear Modulus (GPa) = 13.19843 26.42500 19.81171
#
# Velocity S-wave (km/s) = 2.52172 3.56815 3.08956
# Velocity P-wave (km/s) = 4.20667 5.40270 4.84176
#
# Compressibility (1/GPa) = 0.05227164
#
# Stress axis : x y z
#
# Youngs Moduli (GPa) = 42.90473 58.93480 37.05571
#
# Poissons Ratio (x) = 0.53497 -0.28539
# Poissons Ratio (y) = 0.38946 0.22676
# Poissons Ratio (z) = -0.33044 0.36064
#
# Static dielectric constant tensor:
#      x y z
#    x 1.845420 0.000000 0.000000 
#    y 0.000000 0.567620 0.000000 
#    z 0.000000 0.000000 1.777470 
# 
# From -- ./inp_files/2540.got.cif
#   From: 2010.05.17/outbox.cif.g08.bks.cpg/sg41_2_cif.got.tgz:2540.got - 2010.06.03 18:54:24.
