data_PCOD9365217
_publ_section_title
;
Structure prediction by ZEFSAII (Michael W. Deem and Ramdas Pophale) SiO2 
 PCOD9365217
Probable space group: A M A 2
;
_chemical_formula_sum "Si O2"
_cell_formula_units_Z 64
_cell_length_a 18.762534
_cell_length_b 15.486825
_cell_length_c 11.884285
_cell_angle_alpha 90.000000
_cell_angle_beta 90.000000
_cell_angle_gamma 90.000000
_cell_volume 3453.241419
_symmetry_space_group_name_H-M "A M A 2"
_symmetry_group_IT_number 40
_symmetry_cell_setting 'orthorhombic'
loop_
_space_group_symop_operation_xyz
x,y,z
-x,-y,z
1/2-x,y,z
1/2+x,-y,z
x,1/2+y,1/2+z
-x,1/2-y,1/2+z
1/2-x,1/2+y,1/2+z
1/2+x,1/2-y,1/2+z
loop_
_atom_site_type_symbol
_atom_site_label
_atom_site_fract_x
_atom_site_fract_y
_atom_site_fract_z
Si Si1 0.939369 0.879741 0.065960
Si Si2 0.665495 0.886007 0.628870
Si Si3 0.929593 0.814946 0.811650
Si Si4 0.897636 0.069726 0.104794
Si Si5 0.835001 0.226610 0.962880
Si Si6 0.087113 0.779196 0.724072
Si Si7 0.333045 0.854566 0.319365
Si Si8 0.667615 0.082435 0.574385
O O1 0.907785 0.805981 0.146490
O O2 0.019757 0.900679 0.106354
O O3 0.897197 0.970167 0.068016
O O4 0.941978 0.845226 0.938756
O O5 0.750000 0.876691 0.654149
O O6 0.617000 0.881105 0.739121
O O7 0.645801 0.807421 0.544593
O O8 0.653777 0.980414 0.577784
O O9 0.881781 0.729312 0.809465
O O10 0.004792 0.797342 0.752756
O O11 0.861837 0.079340 0.226569
O O12 0.858706 0.137753 0.022948
O O13 0.750000 0.227694 0.949297
O O14 0.872524 0.233455 0.842221
O O15 0.119146 0.859915 0.655401
O O16 0.250000 0.834774 0.296091
O O17 0.339561 0.887944 0.445893
O O18 0.750000 0.096258 0.609145
#
# Coordination Sequence:
#
# PCOD9365217 Si02
#       8
#     8   8   8   8   8   8   8   8
#     4  11  25  42  63  97 133 164 214 268 323 377
#     4  10  23  43  67  94 123 163 216 263 313 382
#     4  12  23  42  67  92 126 172 216 262 313 380
#     4  11  23  43  64  94 129 170 212 263 317 388
#     4  11  23  42  65  92 129 171 213 263 322 382
#     4  12  24  42  64  94 132 168 208 266 325 379
#     4  11  22  42  67  91 126 171 214 262 316 377
#     4  10  24  43  64  94 129 163 208 266 321 378
#
# _framework density 18.533311000000001
#
# number of rings (size 3 to 8) (size 9 to 14) (size 15 to 20)
#    0.000    1.000    5.000    1.125    3.500    0.500 
#    0.000    3.750    0.000    0.000    0.000    0.000 
#    0.000    0.000    0.000    0.000    0.000    0.000 
#
# Total GULP energy -178809.936535 kJ/mol
# GULP energy per Si atom -5587.810517 kJ/mol
# Density = 1.849113 g / cm^3
# Si number density = 18.533311 Si / 1000 Ang^3
#
#
#
# Elastic Constant Matrix: (Units=GPa)
#
#
# Indices 1 2 3 4 5 6 
#
# 1 91.9233 50.9763 50.9063 0.0000 0.0000 0.0000
# 2 50.9763 103.0889 47.1448 0.0000 0.0000 0.0000
# 3 50.9063 47.1448 104.6745 0.0000 0.0000 0.0000
# 4 0.0000 0.0000 0.0000 22.5806 0.0000 0.0000
# 5 0.0000 0.0000 0.0000 0.0000 50.4317 0.0000
# 6 0.0000 0.0000 0.0000 0.0000 0.0000 53.5287
#
#
#
# Elastic Compliance Matrix: (Units=1/GPa)
#
#
# Indices 1 2 3 4 5 6 
#
# 1 0.017375 -0.005954 -0.005768 0.000000 0.000000 0.000000
# 2 -0.005954 0.014257 -0.003526 0.000000 0.000000 0.000000
# 3 -0.005768 -0.003526 0.013947 0.000000 0.000000 0.000000
# 4 0.000000 0.000000 0.000000 0.044286 0.000000 0.000000
# 5 0.000000 0.000000 0.000000 0.000000 0.019829 0.000000
# 6 0.000000 0.000000 0.000000 0.000000 0.000000 0.018682
#
#
# Mechanical properties :
#
#
# Convention : Reuss Voigt Hill
#
# Bulk Modulus (GPa) = 66.30088 66.41574 66.35831
# Shear Modulus (GPa) = 30.50690 35.35216 32.92953
#
# Velocity S-wave (km/s) = 4.06157 4.37222 4.21975
# Velocity P-wave (km/s) = 7.60570 7.83595 7.72168
#
# Compressibility (1/GPa) = 0.01508276
#
# Stress axis : x y z
#
# Youngs Moduli (GPa) = 57.55506 70.14216 71.70143
#
# Poissons Ratio (x) = 0.41760 0.41360
# Poissons Ratio (y) = 0.34266 0.25280
# Poissons Ratio (z) = 0.33200 0.24730
#
# Static dielectric constant tensor:
#      x y z
#    x 1.625480 0.000000 0.000000 
#    y 0.000000 1.630170 0.000000 
#    z 0.000000 0.000000 1.615080 
# 
# From -- ./inp_files/13150.got.cif
#   From: 2010.05.17/outbox.cif.g08.bks.cpg/sg40_7_cif.got.tgz:13150.got - 2010.06.03 18:35:42.
