data_PCOD9365350
_publ_section_title
;
Structure prediction by ZEFSAII (Michael W. Deem and Ramdas Pophale) SiO2 
 PCOD9365350
Probable space group: A M A 2
;
_chemical_formula_sum "Si O2"
_cell_formula_units_Z 32
_cell_length_a 12.603708
_cell_length_b 21.700598
_cell_length_c 5.624286
_cell_angle_alpha 90.000000
_cell_angle_beta 90.000000
_cell_angle_gamma 90.000000
_cell_volume 1538.287219
_symmetry_space_group_name_H-M "A M A 2"
_symmetry_group_IT_number 40
_symmetry_cell_setting 'orthorhombic'
loop_
_space_group_symop_operation_xyz
x,y,z
-x,-y,z
1/2-x,y,z
1/2+x,-y,z
x,1/2+y,1/2+z
-x,1/2-y,1/2+z
1/2-x,1/2+y,1/2+z
1/2+x,1/2-y,1/2+z
loop_
_atom_site_type_symbol
_atom_site_label
_atom_site_fract_x
_atom_site_fract_y
_atom_site_fract_z
Si Si1 0.250000 0.427069 0.681850
Si Si2 0.250000 0.001078 0.693215
Si Si3 0.449771 0.844486 0.257268
Si Si4 0.135514 0.111673 0.543232
Si Si5 0.869277 0.284162 0.435330
O O1 0.250000 0.467979 0.444945
O O2 0.353782 0.384369 0.660918
O O3 0.250000 0.461260 0.944598
O O4 0.150925 0.048938 0.689356
O O5 0.525989 0.888522 0.408332
O O6 0.397794 0.786818 0.393379
O O7 0.534963 0.813448 0.082120
O O8 0.250000 0.112067 0.405833
O O9 0.134240 0.174016 0.698091
O O10 0.750000 0.287105 0.539109
#
# Coordination Sequence:
#
# PCOD9365350 Si02
#       5
#     4   4   8   8   8
#     4  12  30  49  73 114 152 188 260 306 363 423
#     4  10  28  53  69 104 150 206 252 298 347 449
#     4  12  24  43  75 109 149 189 239 322 370 447
#     4   9  23  46  70 101 138 197 247 290 364 445
#     4  11  23  43  70 107 144 188 244 305 387 443
#
# _framework density 20.802358999999999
#
# number of rings (size 3 to 8) (size 9 to 14) (size 15 to 20)
#    0.750    0.500    3.750    0.750    7.000    1.000 
#    2.250    0.000    0.000    0.000    0.000    0.000 
#    0.000    0.000    0.000    0.000    0.000    0.000 
#
# Total GULP energy -89109.585957 kJ/mol
# GULP energy per Si atom -5569.349122 kJ/mol
# Density = 2.075501 g / cm^3
# Si number density = 20.802359 Si / 1000 Ang^3
#
#
#
# Elastic Constant Matrix: (Units=GPa)
#
#
# Indices 1 2 3 4 5 6 
#
# 1 182.4477 68.0125 48.2840 0.0000 0.0000 0.0000
# 2 68.0125 109.8362 39.0124 0.0000 0.0000 0.0000
# 3 48.2840 39.0124 56.9806 0.0000 0.0000 0.0000
# 4 0.0000 0.0000 0.0000 44.5491 0.0000 0.0000
# 5 0.0000 0.0000 0.0000 0.0000 29.9593 0.0000
# 6 0.0000 0.0000 0.0000 0.0000 0.0000 99.1708
#
#
#
# Elastic Compliance Matrix: (Units=1/GPa)
#
#
# Indices 1 2 3 4 5 6 
#
# 1 0.007884 -0.003315 -0.004411 0.000000 0.000000 0.000000
# 2 -0.003315 0.013424 -0.006382 0.000000 0.000000 0.000000
# 3 -0.004411 -0.006382 0.025657 0.000000 0.000000 0.000000
# 4 0.000000 0.000000 0.000000 0.022447 0.000000 0.000000
# 5 0.000000 0.000000 0.000000 0.000000 0.033379 0.000000
# 6 0.000000 0.000000 0.000000 0.000000 0.000000 0.010084
#
#
# Mechanical properties :
#
#
# Convention : Reuss Voigt Hill
#
# Bulk Modulus (GPa) = 53.33553 73.32026 63.32790
# Shear Modulus (GPa) = 33.93507 47.66624 40.80065
#
# Velocity S-wave (km/s) = 4.04333 4.79204 4.43351
# Velocity P-wave (km/s) = 6.89150 8.12039 7.53106
#
# Compressibility (1/GPa) = 0.01874923
#
# Stress axis : x y z
#
# Youngs Moduli (GPa) = 126.83478 74.49330 38.97589
#
# Poissons Ratio (x) = 0.24697 0.17193
# Poissons Ratio (y) = 0.42050 0.24873
# Poissons Ratio (z) = 0.55948 0.47539
#
# Static dielectric constant tensor:
#      x y z
#    x 1.683860 0.000000 0.000000 
#    y 0.000000 1.759160 0.000000 
#    z 0.000000 0.000000 1.839570 
# 
# From -- ./inp_files/653.got.cif
#   From: 2010.05.17/outbox.cif.g08.bks.cpg/sg40_1_cif.got.tgz:653.got - 2010.06.03 18:35:42.
