data_PCOD9365177
_publ_section_title
;
Structure prediction by ZEFSAII (Michael W. Deem and Ramdas Pophale) SiO2 
 PCOD9365177
Probable space group: A M A 2
;
_chemical_formula_sum "Si O2"
_cell_formula_units_Z 48
_cell_length_a 16.830291
_cell_length_b 11.901622
_cell_length_c 9.686515
_cell_angle_alpha 90.000000
_cell_angle_beta 90.000000
_cell_angle_gamma 90.000000
_cell_volume 1940.284138
_symmetry_space_group_name_H-M "A M A 2"
_symmetry_group_IT_number 40
_symmetry_cell_setting 'orthorhombic'
loop_
_space_group_symop_operation_xyz
x,y,z
-x,-y,z
1/2-x,y,z
1/2+x,-y,z
x,1/2+y,1/2+z
-x,1/2-y,1/2+z
1/2-x,1/2+y,1/2+z
1/2+x,1/2-y,1/2+z
loop_
_atom_site_type_symbol
_atom_site_label
_atom_site_fract_x
_atom_site_fract_y
_atom_site_fract_z
Si Si1 0.653192 0.089156 0.704390
Si Si2 0.342030 0.627233 0.054484
Si Si3 0.384321 0.215129 0.852375
Si Si4 0.661919 0.835400 0.144050
Si Si5 0.077338 0.445313 0.748756
Si Si6 0.438399 0.335618 0.448068
O O1 0.750000 0.083652 0.711835
O O2 0.621866 0.214474 0.669312
O O3 0.613394 0.078168 0.855377
O O4 0.629230 0.999258 0.587705
O O5 0.250000 0.626193 0.009939
O O6 0.348133 0.674384 0.209817
O O7 0.392725 0.715863 0.965402
O O8 0.338917 0.161307 0.979389
O O9 0.381528 0.349984 0.838800
O O10 0.476534 0.183000 0.877432
O O11 0.750000 0.821259 0.197627
O O12 0.629510 0.948245 0.208572
O O13 0.052156 0.385241 0.603141
O O14 0.000000 0.500000 0.816118
#
# Coordination Sequence:
#
# PCOD9365177 Si02
#       6
#     8   8   8   8   8   8
#     4  10  23  41  64  92 131 175 220 273 334 403
#     4  10  23  43  66  95 130 175 226 275 336 406
#     4  11  24  41  66  97 130 173 223 280 335 402
#     4  11  24  42  64  96 134 173 221 273 334 409
#     4  11  23  42  65  94 133 172 221 277 340 395
#     4  11  23  40  67  96 132 170 227 282 334 400
#
# _framework density 24.738645999999999
#
# number of rings (size 3 to 8) (size 9 to 14) (size 15 to 20)
#    0.000    1.333    1.667    3.000    2.333    8.000 
#    0.000    3.333    0.000    0.000    0.000    0.000 
#    0.000    0.000    0.000    0.000    0.000    0.000 
#
# Total GULP energy -134250.881377 kJ/mol
# GULP energy per Si atom -5593.786724 kJ/mol
# Density = 2.468234 g / cm^3
# Si number density = 24.738646 Si / 1000 Ang^3
#
#
#
# Elastic Constant Matrix: (Units=GPa)
#
#
# Indices 1 2 3 4 5 6 
#
# 1 65.0372 33.9229 10.4068 0.0000 0.0000 0.0000
# 2 33.9229 169.9212 16.7690 0.0000 0.0000 0.0000
# 3 10.4068 16.7690 68.0369 0.0000 0.0000 0.0000
# 4 0.0000 0.0000 0.0000 27.7258 0.0000 0.0000
# 5 0.0000 0.0000 0.0000 0.0000 -9.6204 0.0000
# 6 0.0000 0.0000 0.0000 0.0000 0.0000 14.5670
#
#
#
# Elastic Compliance Matrix: (Units=1/GPa)
#
#
# Indices 1 2 3 4 5 6 
#
# 1 0.017387 -0.003289 -0.001849 0.000000 0.000000 0.000000
# 2 -0.003289 0.006654 -0.001137 0.000000 0.000000 0.000000
# 3 -0.001849 -0.001137 0.015261 0.000000 0.000000 0.000000
# 4 0.000000 0.000000 0.000000 0.036067 0.000000 0.000000
# 5 0.000000 0.000000 0.000000 0.000000 -0.103945 0.000000
# 6 0.000000 0.000000 0.000000 0.000000 0.000000 0.068648
#
#
# Mechanical properties :
#
#
# Convention : Reuss Voigt Hill
#
# Bulk Modulus (GPa) = 37.37939 47.24365 42.31152
# Shear Modulus (GPa) = 81.24974 22.66092 51.95533
#
# Velocity S-wave (km/s) = 5.73712 3.02985 4.58773
# Velocity P-wave (km/s) = 7.68301 5.60166 6.72336
#
# Compressibility (1/GPa) = 0.02675271
#
# Stress axis : x y z
#
# Youngs Moduli (GPa) = 57.51421 150.28946 65.52678
#
# Poissons Ratio (x) = 0.49425 0.12115
# Poissons Ratio (y) = 0.18914 0.07450
# Poissons Ratio (z) = 0.10634 0.17087
#
# Static dielectric constant tensor:
#      x y z
#    x 1.951320 0.000000 0.000000 
#    y 0.000000 2.084590 0.000000 
#    z 0.000000 0.000000 2.053430 
# 
# From -- ./inp_files/12913.got.cif
#   From: 2010.05.17/outbox.cif.g08.bks.cpg/sg40_7_cif.got.tgz:12913.got - 2010.06.03 18:35:42.
