data_PCOD9365535
_publ_section_title
;
Structure prediction by ZEFSAII (Michael W. Deem and Ramdas Pophale) SiO2 
 PCOD9365535
Probable space group: A M A 2
;
_chemical_formula_sum "Si O2"
_cell_formula_units_Z 32
_cell_length_a 26.770686
_cell_length_b 7.484236
_cell_length_c 6.992469
_cell_angle_alpha 90.000000
_cell_angle_beta 90.000000
_cell_angle_gamma 90.000000
_cell_volume 1400.998026
_symmetry_space_group_name_H-M "A M A 2"
_symmetry_group_IT_number 40
_symmetry_cell_setting 'orthorhombic'
loop_
_space_group_symop_operation_xyz
x,y,z
-x,-y,z
1/2-x,y,z
1/2+x,-y,z
x,1/2+y,1/2+z
-x,1/2-y,1/2+z
1/2-x,1/2+y,1/2+z
1/2+x,1/2-y,1/2+z
loop_
_atom_site_type_symbol
_atom_site_label
_atom_site_fract_x
_atom_site_fract_y
_atom_site_fract_z
Si Si1 0.191861 0.522905 0.936050
Si Si2 0.143055 0.396124 0.567267
Si Si3 0.893229 0.603162 0.172251
Si Si4 0.942086 0.975834 0.303714
O O1 0.250000 0.508884 0.977463
O O2 0.180371 0.494691 0.712160
O O3 0.169458 0.712673 0.004061
O O4 0.157973 0.380945 0.050804
O O5 0.124902 0.486236 0.369945
O O6 0.079595 0.714191 0.733920
O O7 0.907873 0.617712 0.690047
O O8 0.930119 0.502442 0.027525
O O9 0.000000 0.000000 0.263406
#
# Coordination Sequence:
#
# PCOD9365535 Si02
#       4
#     8   8   8   8
#     4  11  26  47  77 110 149 198 244 303 372 435
#     4  11  24  49  71 107 149 188 249 303 357 443
#     4  11  25  49  72 107 149 188 248 303 358 441
#     4  11  28  47  77 110 149 198 244 303 372 435
#
# _framework density 22.840858999999998
#
# number of rings (size 3 to 8) (size 9 to 14) (size 15 to 20)
#    0.000    1.000    5.000    0.750   10.500    3.000 
#    0.000    0.000    0.000    0.000    0.000    0.000 
#    0.000    0.000    0.000    0.000    0.000    0.000 
#
# Total GULP energy -89381.403866 kJ/mol
# GULP energy per Si atom -5586.337742 kJ/mol
# Density = 2.278887 g / cm^3
# Si number density = 22.840859 Si / 1000 Ang^3
#
#
#
# Elastic Constant Matrix: (Units=GPa)
#
#
# Indices 1 2 3 4 5 6 
#
# 1 201.7785 29.3852 32.0756 0.0000 0.0000 0.0000
# 2 29.3852 113.2633 50.7659 0.0000 0.0000 0.0000
# 3 32.0756 50.7659 151.8243 0.0000 0.0000 0.0000
# 4 0.0000 0.0000 0.0000 48.0836 0.0000 0.0000
# 5 0.0000 0.0000 0.0000 0.0000 21.9259 0.0000
# 6 0.0000 0.0000 0.0000 0.0000 0.0000 33.4751
#
#
#
# Elastic Compliance Matrix: (Units=1/GPa)
#
#
# Indices 1 2 3 4 5 6 
#
# 1 0.005225 -0.001013 -0.000765 0.000000 0.000000 0.000000
# 2 -0.001013 0.010582 -0.003324 0.000000 0.000000 0.000000
# 3 -0.000765 -0.003324 0.007860 0.000000 0.000000 0.000000
# 4 0.000000 0.000000 0.000000 0.020797 0.000000 0.000000
# 5 0.000000 0.000000 0.000000 0.000000 0.045608 0.000000
# 6 0.000000 0.000000 0.000000 0.000000 0.000000 0.029873
#
#
# Mechanical properties :
#
#
# Convention : Reuss Voigt Hill
#
# Bulk Modulus (GPa) = 74.28227 76.81327 75.54777
# Shear Modulus (GPa) = 37.13705 44.33955 40.73830
#
# Velocity S-wave (km/s) = 4.03662 4.41073 4.22782
# Velocity P-wave (km/s) = 7.37008 7.72283 7.54852
#
# Compressibility (1/GPa) = 0.01346216
#
# Stress axis : x y z
#
# Youngs Moduli (GPa) = 191.38577 94.50296 127.22964
#
# Poissons Ratio (x) = 0.09569 0.09737
# Poissons Ratio (y) = 0.19379 0.42295
# Poissons Ratio (z) = 0.14647 0.31416
#
# Static dielectric constant tensor:
#      x y z
#    x 1.794680 0.000000 0.000000 
#    y 0.000000 1.947350 0.000000 
#    z 0.000000 0.000000 1.900150 
# 
# From -- ./inp_files/3256.got.cif
#   From: 2010.05.17/outbox.cif.g08.bks.cpg/sg40_2_cif.got.tgz:3256.got - 2010.06.03 18:35:42.
