data_PCOD9365942
_publ_section_title
;
Structure prediction by ZEFSAII (Michael W. Deem and Ramdas Pophale) SiO2 
 PCOD9365942
Probable space group: A B A 2
;
_chemical_formula_sum "Si O2"
_cell_formula_units_Z 60
_cell_length_a 28.456604
_cell_length_b 5.796498
_cell_length_c 15.238850
_cell_angle_alpha 90.000000
_cell_angle_beta 90.000000
_cell_angle_gamma 90.000000
_cell_volume 2513.627707
_symmetry_space_group_name_H-M "A B A 2"
_symmetry_group_IT_number 41
_symmetry_cell_setting 'orthorhombic'
loop_
_space_group_symop_operation_xyz
x,y,z
-x,-y,z
1/2-x,y,1/2+z
1/2+x,-y,1/2+z
x,1/2+y,1/2+z
-x,1/2-y,1/2+z
1/2-x,1/2+y,z
1/2+x,1/2-y,z
loop_
_atom_site_type_symbol
_atom_site_label
_atom_site_fract_x
_atom_site_fract_y
_atom_site_fract_z
Si Si1 0.769270 0.202601 0.181420
Si Si2 0.866053 0.268365 0.510955
Si Si3 0.407336 0.137869 0.061709
Si Si4 0.000000 0.500000 0.132074
Si Si5 0.037195 0.181844 0.279081
Si Si6 0.446880 0.507505 0.934310
Si Si7 0.624756 0.041864 0.693848
Si Si8 0.238140 0.719773 0.476176
O O1 0.760266 0.470843 0.211144
O O2 0.821747 0.118932 0.207808
O O3 0.758140 0.231964 0.075888
O O4 0.910595 0.282975 0.444980
O O5 0.874522 0.378658 0.607093
O O6 0.816744 0.351229 0.477026
O O7 0.862027 0.999496 0.533479
O O8 0.400631 0.229653 0.159160
O O9 0.455220 0.000712 0.069954
O O10 0.416862 0.329889 0.991223
O O11 0.010279 0.278093 0.193154
O O12 0.046930 0.403033 0.338888
O O13 0.088157 0.072859 0.259992
O O14 0.000000 0.000000 0.320671
O O15 0.500000 0.500000 0.972014
O O16 0.260131 0.482187 0.437037
#
# Coordination Sequence:
#
# PCOD9365942 Si02
#       8
#     8   8   8   4   8   8   8   8
#     4  10  19  34  61  98 134 167 212 287 351 410
#     4  11  22  38  64  96 127 170 222 286 336 409
#     4  11  23  37  63  95 126 164 220 292 329 400
#     4  12  22  38  64  88 126 166 222 278 332 386
#     4  12  26  44  60  91 135 183 223 274 340 421
#     4  11  27  42  61  89 134 181 229 268 346 414
#     4  11  22  37  64  98 128 166 229 277 342 406
#     4  10  19  34  61  97 134 167 214 284 354 410
#
# _framework density 23.869883999999999
#
# number of rings (size 3 to 8) (size 9 to 14) (size 15 to 20)
#    0.000    1.067    6.000    2.400    6.533    0.000 
#    0.000    0.000    0.000    1.600    0.000    0.000 
#    0.000    0.000    0.000    0.000    0.000    0.000 
#
# Total GULP energy -167037.485113 kJ/mol
# GULP energy per Si atom -5567.916170 kJ/mol
# Density = 2.381556 g / cm^3
# Si number density = 23.869884 Si / 1000 Ang^3
#
#
#
# Elastic Constant Matrix: (Units=GPa)
#
#
# Indices 1 2 3 4 5 6 
#
# 1 136.5488 17.3899 16.2326 0.0000 0.0000 0.0000
# 2 17.3899 93.8154 9.0215 0.0000 0.0000 0.0000
# 3 16.2326 9.0215 33.8942 0.0000 0.0000 0.0000
# 4 0.0000 0.0000 0.0000 22.2483 0.0000 0.0000
# 5 0.0000 0.0000 0.0000 0.0000 15.1540 0.0000
# 6 0.0000 0.0000 0.0000 0.0000 0.0000 39.7934
#
#
#
# Elastic Compliance Matrix: (Units=1/GPa)
#
#
# Indices 1 2 3 4 5 6 
#
# 1 0.007880 -0.001127 -0.003474 0.000000 0.000000 0.000000
# 2 -0.001127 0.011100 -0.002415 0.000000 0.000000 0.000000
# 3 -0.003474 -0.002415 0.031810 0.000000 0.000000 0.000000
# 4 0.000000 0.000000 0.000000 0.044947 0.000000 0.000000
# 5 0.000000 0.000000 0.000000 0.000000 0.065989 0.000000
# 6 0.000000 0.000000 0.000000 0.000000 0.000000 0.025130
#
#
# Mechanical properties :
#
#
# Convention : Reuss Voigt Hill
#
# Bulk Modulus (GPa) = 27.20407 38.83848 33.02128
# Shear Modulus (GPa) = 23.45870 30.21343 26.83607
#
# Velocity S-wave (km/s) = 3.13832 3.56161 3.35664
# Velocity P-wave (km/s) = 4.95517 5.76365 5.37463
#
# Compressibility (1/GPa) = 0.03675920
#
# Stress axis : x y z
#
# Youngs Moduli (GPa) = 126.90622 90.08773 31.43655
#
# Poissons Ratio (x) = 0.10149 0.10921
# Poissons Ratio (y) = 0.14297 0.07592
# Poissons Ratio (z) = 0.44087 0.21756
#
# Static dielectric constant tensor:
#      x y z
#    x 2.058510 0.000000 0.000000 
#    y 0.000000 1.510410 0.000000 
#    z 0.000000 0.000000 1.893460 
# 
# From -- ./inp_files/10787.got.cif
#   From: 2010.05.17/outbox.cif.g08.bks.cpg/sg41_6_cif.got.tgz:10787.got - 2010.06.03 18:54:24.
