data_PCOD9365356
_publ_section_title
;
Structure prediction by ZEFSAII (Michael W. Deem and Ramdas Pophale) SiO2 
 PCOD9365356
Probable space group: A M A 2
;
_chemical_formula_sum "Si O2"
_cell_formula_units_Z 48
_cell_length_a 14.192155
_cell_length_b 8.860572
_cell_length_c 20.247001
_cell_angle_alpha 90.000000
_cell_angle_beta 90.000000
_cell_angle_gamma 90.000000
_cell_volume 2546.072751
_symmetry_space_group_name_H-M "A M A 2"
_symmetry_group_IT_number 40
_symmetry_cell_setting 'orthorhombic'
loop_
_space_group_symop_operation_xyz
x,y,z
-x,-y,z
1/2-x,y,z
1/2+x,-y,z
x,1/2+y,1/2+z
-x,1/2-y,1/2+z
1/2-x,1/2+y,1/2+z
1/2+x,1/2-y,1/2+z
loop_
_atom_site_type_symbol
_atom_site_label
_atom_site_fract_x
_atom_site_fract_y
_atom_site_fract_z
Si Si1 0.750000 0.145710 0.064600
Si Si2 0.250000 0.562572 0.777148
Si Si3 0.441293 0.845303 0.979362
Si Si4 0.464732 0.179694 0.107006
Si Si5 0.544040 0.835874 0.736494
Si Si6 0.558186 0.853868 0.350501
Si Si7 0.250000 0.673214 0.636464
Si Si8 0.250000 0.231406 0.708070
O O1 0.750000 0.263023 0.126951
O O2 0.750000 0.994001 0.106590
O O3 0.658536 0.140882 0.017598
O O4 0.343470 0.591211 0.819218
O O5 0.250000 0.676755 0.715451
O O6 0.250000 0.398801 0.741663
O O7 0.427644 0.756062 0.912148
O O8 0.500000 0.000000 0.965825
O O9 0.503902 0.764288 0.035328
O O10 0.517043 0.257365 0.167441
O O11 0.354609 0.221118 0.114774
O O12 0.500000 0.000000 0.109925
O O13 0.502179 0.731205 0.794156
O O14 0.656337 0.845760 0.735084
O O15 0.500000 0.000000 0.741805
O O16 0.500000 0.000000 0.372133
#
# Coordination Sequence:
#
# PCOD9365356 Si02
#       8
#     4   4   8   8   8   8   4   4
#     4  11  19  38  69  98 127 170 221 276 332 396
#     4  11  21  39  74  97 127 170 233 276 323 407
#     4  11  23  40  64  97 133 176 222 273 331 395
#     4  11  20  39  66  96 130 173 219 270 328 396
#     4  12  25  42  68 100 138 170 217 286 336 392
#     4  12  25  44  65  94 132 183 224 270 330 401
#     4  11  18  33  70 101 120 158 228 274 315 399
#     4  11  22  42  73 104 126 168 230 284 332 400
#
# _framework density 18.852564000000001
#
# number of rings (size 3 to 8) (size 9 to 14) (size 15 to 20)
#    0.000    0.667    8.333    2.500    0.000    2.000 
#    0.000    5.000    0.000    0.000    0.000    0.000 
#    0.000    0.000    0.000    0.000    0.000    0.000 
#
# Total GULP energy -133810.373447 kJ/mol
# GULP energy per Si atom -5575.432227 kJ/mol
# Density = 1.880965 g / cm^3
# Si number density = 18.852564 Si / 1000 Ang^3
#
#
#
# Elastic Constant Matrix: (Units=GPa)
#
#
# Indices 1 2 3 4 5 6 
#
# 1 193.9929 29.5610 50.9323 0.0000 0.0000 0.0000
# 2 29.5610 60.5227 28.7688 0.0000 0.0000 0.0000
# 3 50.9323 28.7688 120.4412 0.0000 0.0000 0.0000
# 4 0.0000 0.0000 0.0000 12.0369 0.0000 0.0000
# 5 0.0000 0.0000 0.0000 0.0000 21.2216 0.0000
# 6 0.0000 0.0000 0.0000 0.0000 0.0000 -3.1144
#
#
#
# Elastic Compliance Matrix: (Units=1/GPa)
#
#
# Indices 1 2 3 4 5 6 
#
# 1 0.005995 -0.001944 -0.002071 0.000000 0.000000 0.000000
# 2 -0.001944 0.019269 -0.003781 0.000000 0.000000 0.000000
# 3 -0.002071 -0.003781 0.010082 0.000000 0.000000 0.000000
# 4 0.000000 0.000000 0.000000 0.083078 0.000000 0.000000
# 5 0.000000 0.000000 0.000000 0.000000 0.047122 0.000000
# 6 0.000000 0.000000 0.000000 0.000000 0.000000 -0.321092
#
#
# Mechanical properties :
#
#
# Convention : Reuss Voigt Hill
#
# Bulk Modulus (GPa) = 50.61979 65.94232 58.28105
# Shear Modulus (GPa) = -37.48921 23.74181 -6.87370
#
# Velocity S-wave (km/s) = -4.46415 3.55257 -1.91153
# Velocity P-wave (km/s) = 0.58061 7.20288 5.10973
#
# Compressibility (1/GPa) = 0.01975512
#
# Stress axis : x y z
#
# Youngs Moduli (GPa) = 166.81459 51.89632 99.19088
#
# Poissons Ratio (x) = 0.10087 0.20540
# Poissons Ratio (y) = 0.32423 0.37501
# Poissons Ratio (z) = 0.34544 0.19621
#
# Static dielectric constant tensor:
#      x y z
#    x 1.546570 0.000000 0.000000 
#    y 0.000000 1.669760 0.000000 
#    z 0.000000 0.000000 1.630620 
# 
# From -- ./inp_files/20625.got.cif
#   From: 2010.05.17/outbox.cif.g08.bks.cpg/sg40_11_cif.got.tgz:20625.got - 2010.06.03 18:35:42.
