data_PCOD9365142
_publ_section_title
;
Structure prediction by ZEFSAII (Michael W. Deem and Ramdas Pophale) SiO2 
 PCOD9365142
Probable space group: A M A 2
;
_chemical_formula_sum "Si O2"
_cell_formula_units_Z 40
_cell_length_a 26.998943
_cell_length_b 13.602199
_cell_length_c 5.271283
_cell_angle_alpha 90.000000
_cell_angle_beta 90.000000
_cell_angle_gamma 90.000000
_cell_volume 1935.852301
_symmetry_space_group_name_H-M "A M A 2"
_symmetry_group_IT_number 40
_symmetry_cell_setting 'orthorhombic'
loop_
_space_group_symop_operation_xyz
x,y,z
-x,-y,z
1/2-x,y,z
1/2+x,-y,z
x,1/2+y,1/2+z
-x,1/2-y,1/2+z
1/2-x,1/2+y,1/2+z
1/2+x,1/2-y,1/2+z
loop_
_atom_site_type_symbol
_atom_site_label
_atom_site_fract_x
_atom_site_fract_y
_atom_site_fract_z
Si Si1 0.471690 0.783832 0.844070
Si Si2 0.136283 0.822346 0.324886
Si Si3 0.808710 0.715332 0.318212
Si Si4 0.947655 0.538608 0.666807
Si Si5 0.615541 0.344586 0.637221
O O1 0.503285 0.764925 0.591813
O O2 0.420604 0.728559 0.790913
O O3 0.463019 0.896739 0.921554
O O4 0.170450 0.841381 0.570295
O O5 0.086720 0.886858 0.325165
O O6 0.121026 0.708228 0.365299
O O7 0.167140 0.830960 0.068646
O O8 0.750000 0.716153 0.330782
O O9 0.831521 0.825445 0.270033
O O10 0.911469 0.447304 0.617758
O O11 0.000000 0.500000 0.776615
#
# Coordination Sequence:
#
# PCOD9365142 Si02
#       5
#     8   8   8   8   8
#     4  12  25  47  62 100 144 184 230 275 330 416
#     4  10  23  47  64 103 140 171 234 287 339 425
#     4  10  22  46  75  92 135 183 225 297 360 395
#     4  12  24  43  71 105 138 193 222 277 353 411
#     4  10  25  44  70  97 142 172 233 285 340 409
#
# _framework density 20.662731999999998
#
# number of rings (size 3 to 8) (size 9 to 14) (size 15 to 20)
#    1.200    0.000    4.000    1.800    0.000    0.000 
#   21.600    2.000    0.000    0.000    0.000    0.000 
#    0.000    0.000    0.000    0.000    0.000    0.000 
#
# Total GULP energy -111505.132550 kJ/mol
# GULP energy per Si atom -5575.256627 kJ/mol
# Density = 2.061570 g / cm^3
# Si number density = 20.662732 Si / 1000 Ang^3
#
#
#
# Elastic Constant Matrix: (Units=GPa)
#
#
# Indices 1 2 3 4 5 6 
#
# 1 157.9310 36.7657 68.8248 0.0000 0.0000 0.0000
# 2 36.7657 87.4177 18.7789 0.0000 0.0000 0.0000
# 3 68.8248 18.7789 143.7327 0.0000 0.0000 0.0000
# 4 0.0000 0.0000 0.0000 11.6448 0.0000 0.0000
# 5 0.0000 0.0000 0.0000 0.0000 27.4139 0.0000
# 6 0.0000 0.0000 0.0000 0.0000 0.0000 25.7866
#
#
#
# Elastic Compliance Matrix: (Units=1/GPa)
#
#
# Indices 1 2 3 4 5 6 
#
# 1 0.008628 -0.002821 -0.003763 0.000000 0.000000 0.000000
# 2 -0.002821 0.012692 -0.000308 0.000000 0.000000 0.000000
# 3 -0.003763 -0.000308 0.008799 0.000000 0.000000 0.000000
# 4 0.000000 0.000000 0.000000 0.085875 0.000000 0.000000
# 5 0.000000 0.000000 0.000000 0.000000 0.036478 0.000000
# 6 0.000000 0.000000 0.000000 0.000000 0.000000 0.038780
#
#
# Mechanical properties :
#
#
# Convention : Reuss Voigt Hill
#
# Bulk Modulus (GPa) = 61.21055 70.86893 66.03974
# Shear Modulus (GPa) = 23.75515 30.61652 27.18583
#
# Velocity S-wave (km/s) = 3.39434 3.85350 3.63118
# Velocity P-wave (km/s) = 6.71193 7.36014 7.04350
#
# Compressibility (1/GPa) = 0.01633705
#
# Stress axis : x y z
#
# Youngs Moduli (GPa) = 115.89612 78.79195 113.64314
#
# Poissons Ratio (x) = 0.22223 0.42765
# Poissons Ratio (y) = 0.32689 0.03496
# Poissons Ratio (z) = 0.43613 0.02424
#
# Static dielectric constant tensor:
#      x y z
#    x 1.763820 0.000000 0.000000 
#    y 0.000000 1.769600 0.000000 
#    z 0.000000 0.000000 1.785790 
# 
# From -- ./inp_files/3009.got.cif
#   From: 2010.05.17/outbox.cif.g08.bks.cpg/sg40_2_cif.got.tgz:3009.got - 2010.06.03 18:35:42.
