data_PCOD9365807
_publ_section_title
;
Structure prediction by ZEFSAII (Michael W. Deem and Ramdas Pophale) SiO2 
 PCOD9365807
Probable space group: A B A 2
;
_chemical_formula_sum "Si O2"
_cell_formula_units_Z 64
_cell_length_a 15.426330
_cell_length_b 23.893298
_cell_length_c 8.206321
_cell_angle_alpha 90.000000
_cell_angle_beta 90.000000
_cell_angle_gamma 90.000000
_cell_volume 3024.734209
_symmetry_space_group_name_H-M "A B A 2"
_symmetry_group_IT_number 41
_symmetry_cell_setting 'orthorhombic'
loop_
_space_group_symop_operation_xyz
x,y,z
-x,-y,z
1/2-x,y,1/2+z
1/2+x,-y,1/2+z
x,1/2+y,1/2+z
-x,1/2-y,1/2+z
1/2-x,1/2+y,z
1/2+x,1/2-y,z
loop_
_atom_site_type_symbol
_atom_site_label
_atom_site_fract_x
_atom_site_fract_y
_atom_site_fract_z
Si Si1 0.832733 0.061264 0.261210
Si Si2 0.780702 0.488620 0.054942
Si Si3 0.798239 0.219387 0.996181
Si Si4 0.993632 0.063652 0.092287
Si Si5 0.674031 0.878873 0.530256
Si Si6 0.794563 0.302648 0.248056
Si Si7 0.678367 0.143512 0.224247
Si Si8 0.925567 0.039041 0.727619
O O1 0.921343 0.090415 0.209042
O O2 0.757159 0.105543 0.292824
O O3 0.832751 0.017076 0.407750
O O4 0.801582 0.026577 0.102021
O O5 0.746844 0.427392 0.016845
O O6 0.842421 0.497577 0.213145
O O7 0.843969 0.262485 0.120385
O O8 0.726254 0.182974 0.093766
O O9 0.747237 0.259415 0.873473
O O10 0.853975 0.179255 0.879188
O O11 0.085262 0.094213 0.092531
O O12 0.959803 0.056166 0.906407
O O13 0.000000 0.000000 0.155861
O O14 0.717313 0.834431 0.652858
O O15 0.657658 0.848803 0.356981
O O16 0.608968 0.098519 0.157718
O O17 0.000000 0.000000 0.651048
#
# Coordination Sequence:
#
# PCOD9365807 Si02
#       8
#     8   8   8   8   8   8   8   8
#     4  11  21  36  58  94 124 164 213 251 302 397
#     4  11  22  37  60  85 129 168 219 240 309 399
#     4   9  18  37  64  93 110 152 234 269 293 365
#     4  11  23  37  57  88 137 170 200 249 318 385
#     4  11  22  38  63  88 124 173 198 267 328 371
#     4   9  21  38  62  91 115 157 228 267 309 367
#     4  10  18  34  66  86 119 162 197 258 316 360
#     4  10  23  38  57  94 132 167 199 251 309 396
#
# _framework density 21.158885000000001
#
# number of rings (size 3 to 8) (size 9 to 14) (size 15 to 20)
#    0.000    1.750    1.250    4.500    7.000    0.500 
#    0.000    0.000    0.000   24.000    0.000    0.000 
#    0.000    0.000    0.000    0.000    0.000    0.000 
#
# Total GULP energy -178364.244628 kJ/mol
# GULP energy per Si atom -5573.882645 kJ/mol
# Density = 2.111073 g / cm^3
# Si number density = 21.158885 Si / 1000 Ang^3
#
#
#
# Elastic Constant Matrix: (Units=GPa)
#
#
# Indices 1 2 3 4 5 6 
#
# 1 80.7170 33.6256 14.8212 0.0000 0.0000 0.0000
# 2 33.6256 122.7436 45.9004 0.0000 0.0000 0.0000
# 3 14.8212 45.9004 79.5742 0.0000 0.0000 0.0000
# 4 0.0000 0.0000 0.0000 43.5613 0.0000 0.0000
# 5 0.0000 0.0000 0.0000 0.0000 21.8732 0.0000
# 6 0.0000 0.0000 0.0000 0.0000 0.0000 20.2195
#
#
#
# Elastic Compliance Matrix: (Units=1/GPa)
#
#
# Indices 1 2 3 4 5 6 
#
# 1 0.014001 -0.003647 -0.000504 0.000000 0.000000 0.000000
# 2 -0.003647 0.011338 -0.005861 0.000000 0.000000 0.000000
# 3 -0.000504 -0.005861 0.016041 0.000000 0.000000 0.000000
# 4 0.000000 0.000000 0.000000 0.022956 0.000000 0.000000
# 5 0.000000 0.000000 0.000000 0.000000 0.045718 0.000000
# 6 0.000000 0.000000 0.000000 0.000000 0.000000 0.049457
#
#
# Mechanical properties :
#
#
# Convention : Reuss Voigt Hill
#
# Bulk Modulus (GPa) = 46.82414 52.41436 49.61925
# Shear Modulus (GPa) = 26.78759 29.70996 28.24877
#
# Velocity S-wave (km/s) = 3.56198 3.75125 3.65784
# Velocity P-wave (km/s) = 6.25258 6.60212 6.42973
#
# Compressibility (1/GPa) = 0.02135651
#
# Stress axis : x y z
#
# Youngs Moduli (GPa) = 71.42435 88.20074 62.33895
#
# Poissons Ratio (x) = 0.32167 0.03142
# Poissons Ratio (y) = 0.26049 0.36535
# Poissons Ratio (z) = 0.03600 0.51691
#
# Static dielectric constant tensor:
#      x y z
#    x 1.796160 0.000000 0.000000 
#    y 0.000000 1.808540 0.000000 
#    z 0.000000 0.000000 1.852690 
# 
# From -- ./inp_files/2781.got.cif
#   From: 2010.05.17/outbox.cif.g08.bks.cpg/sg41_2_cif.got.tgz:2781.got - 2010.06.03 18:54:24.
