data_PCOD9365715
_publ_section_title
;
Structure prediction by ZEFSAII (Michael W. Deem and Ramdas Pophale) SiO2 
 PCOD9365715
Probable space group: A B A 2
;
_chemical_formula_sum "Si O2"
_cell_formula_units_Z 64
_cell_length_a 5.398670
_cell_length_b 35.230260
_cell_length_c 13.647560
_cell_angle_alpha 90.000000
_cell_angle_beta 90.000000
_cell_angle_gamma 90.000000
_cell_volume 2595.718797
_symmetry_space_group_name_H-M "A B A 2"
_symmetry_group_IT_number 41
_symmetry_cell_setting 'orthorhombic'
loop_
_space_group_symop_operation_xyz
x,y,z
-x,-y,z
1/2-x,y,1/2+z
1/2+x,-y,1/2+z
x,1/2+y,1/2+z
-x,1/2-y,1/2+z
1/2-x,1/2+y,z
1/2+x,1/2-y,z
loop_
_atom_site_type_symbol
_atom_site_label
_atom_site_fract_x
_atom_site_fract_y
_atom_site_fract_z
Si Si1 0.086285 0.456924 0.019280
Si Si2 0.773000 0.729910 0.766777
Si Si3 0.595055 0.916923 0.536352
Si Si4 0.918246 0.459733 0.736683
Si Si5 0.731223 0.260991 0.487632
Si Si6 0.402400 0.937012 0.251341
Si Si7 0.764493 0.846108 0.430341
Si Si8 0.766514 0.646920 0.307175
O O1 0.347755 0.436625 0.993500
O O2 0.093661 0.452259 0.139358
O O3 0.000000 0.500000 0.999067
O O4 0.844011 0.433784 0.990919
O O5 0.508814 0.745814 0.734839
O O6 0.766632 0.737943 0.885094
O O7 0.801392 0.685047 0.747687
O O8 0.591502 0.928046 0.651159
O O9 0.643919 0.873192 0.513279
O O10 0.658328 0.454311 0.789239
O O11 0.000000 0.500000 0.689655
O O12 0.157687 0.453346 0.802953
O O13 0.497352 0.241770 0.536608
O O14 0.674511 0.304847 0.470537
O O15 0.353569 0.892022 0.254544
O O16 0.525799 0.841974 0.359726
O O17 0.018940 0.859883 0.375040
#
# Coordination Sequence:
#
# PCOD9365715 Si02
#       8
#     8   8   8   8   8   8   8   8
#     4  10  19  38  62  79  97 132 192 236 254 309
#     4  10  16  30  48  69  99 139 190 213 239 306
#     4  10  20  32  54  85 104 134 173 231 276 302
#     4  10  19  38  62  79  97 132 192 236 254 309
#     4  10  16  30  48  69  99 139 190 213 239 306
#     4  10  20  32  54  85 104 134 173 231 276 302
#     4  12  21  32  50  79 120 141 168 223 274 331
#     4  12  21  32  50  79 120 141 168 223 274 331
#
# _framework density 24.655984
#
# number of rings (size 3 to 8) (size 9 to 14) (size 15 to 20)
#    0.000    1.500    5.000    5.250    0.000    0.000 
#    0.000    0.000    0.000   18.000    0.000   21.000 
#    0.000    0.000    0.000    0.000    0.000    0.000 
#
# Total GULP energy -178391.796197 kJ/mol
# GULP energy per Si atom -5574.743631 kJ/mol
# Density = 2.459987 g / cm^3
# Si number density = 24.655984 Si / 1000 Ang^3
#
#
#
# Elastic Constant Matrix: (Units=GPa)
#
#
# Indices 1 2 3 4 5 6 
#
# 1 247.8447 35.3641 14.0587 0.0000 0.0000 0.0000
# 2 35.3641 166.8405 4.1138 0.0000 0.0000 0.0000
# 3 14.0587 4.1138 57.5710 0.0000 0.0000 0.0000
# 4 0.0000 0.0000 0.0000 33.5867 0.0000 0.0000
# 5 0.0000 0.0000 0.0000 0.0000 -6.4365 0.0000
# 6 0.0000 0.0000 0.0000 0.0000 0.0000 50.0344
#
#
#
# Elastic Compliance Matrix: (Units=1/GPa)
#
#
# Indices 1 2 3 4 5 6 
#
# 1 0.004214 -0.000869 -0.000967 0.000000 0.000000 0.000000
# 2 -0.000869 0.006184 -0.000230 0.000000 0.000000 0.000000
# 3 -0.000967 -0.000230 0.017622 0.000000 0.000000 0.000000
# 4 0.000000 0.000000 0.000000 0.029774 0.000000 0.000000
# 5 0.000000 0.000000 0.000000 0.000000 -0.155365 0.000000
# 6 0.000000 0.000000 0.000000 0.000000 0.000000 0.019986
#
#
# Mechanical properties :
#
#
# Convention : Reuss Voigt Hill
#
# Bulk Modulus (GPa) = 41.86160 64.36994 53.11577
# Shear Modulus (GPa) = -76.34670 43.35156 -16.49757
#
# Velocity S-wave (km/s) = -5.57064 4.19771 -2.58952
# Velocity P-wave (km/s) = 4.93567 7.04686 3.55650
#
# Compressibility (1/GPa) = 0.02388824
#
# Stress axis : x y z
#
# Youngs Moduli (GPa) = 237.32304 161.71623 56.74606
#
# Poissons Ratio (x) = 0.14058 0.05487
# Poissons Ratio (y) = 0.20631 0.01303
# Poissons Ratio (z) = 0.22946 0.03713
#
# Static dielectric constant tensor:
#      x y z
#    x 2.086810 0.000000 0.000000 
#    y 0.000000 1.999400 0.000000 
#    z 0.000000 0.000000 2.033400 
# 
# From -- ./inp_files/9504.got.cif
#   From: 2010.05.17/outbox.cif.g08.bks.cpg/sg41_5_cif.got.tgz:9504.got - 2010.06.03 18:54:24.
