data_PCOD9365434
_publ_section_title
;
Structure prediction by ZEFSAII (Michael W. Deem and Ramdas Pophale) SiO2 
 PCOD9365434
Probable space group: A M A 2
;
_chemical_formula_sum "Si O2"
_cell_formula_units_Z 64
_cell_length_a 8.581186
_cell_length_b 31.613552
_cell_length_c 12.242915
_cell_angle_alpha 90.000000
_cell_angle_beta 90.000000
_cell_angle_gamma 90.000000
_cell_volume 3321.279649
_symmetry_space_group_name_H-M "A M A 2"
_symmetry_group_IT_number 40
_symmetry_cell_setting 'orthorhombic'
loop_
_space_group_symop_operation_xyz
x,y,z
-x,-y,z
1/2-x,y,z
1/2+x,-y,z
x,1/2+y,1/2+z
-x,1/2-y,1/2+z
1/2-x,1/2+y,1/2+z
1/2+x,1/2-y,1/2+z
loop_
_atom_site_type_symbol
_atom_site_label
_atom_site_fract_x
_atom_site_fract_y
_atom_site_fract_z
Si Si1 0.065168 0.705882 0.659360
Si Si2 0.560163 0.874053 0.763057
Si Si3 0.936480 0.455232 0.122839
Si Si4 0.433297 0.330091 0.880042
Si Si5 0.563492 0.455268 0.653144
Si Si6 0.063925 0.202564 0.607270
Si Si7 0.059828 0.626295 0.513996
Si Si8 0.565509 0.569095 0.887878
O O1 0.250000 0.711884 0.644907
O O2 0.011737 0.669082 0.575964
O O3 0.029272 0.689037 0.780153
O O4 0.980952 0.750153 0.640019
O O5 0.750000 0.874622 0.764619
O O6 0.509398 0.915404 0.695484
O O7 0.513669 0.831715 0.698446
O O8 0.507666 0.874609 0.888482
O O9 0.750000 0.455919 0.124266
O O10 0.000000 0.500000 0.163997
O O11 0.992556 0.448726 0.998643
O O12 0.250000 0.322862 0.860399
O O13 0.460075 0.380376 0.886793
O O14 0.483848 0.309546 0.993623
O O15 0.500000 0.500000 0.611344
O O16 0.750000 0.456008 0.651483
O O17 0.509279 0.415086 0.581637
O O18 0.507347 0.449101 0.777448
O O19 0.250000 0.198887 0.594672
O O20 0.250000 0.626007 0.514641
O O21 0.750000 0.560626 0.888106
#
# Coordination Sequence:
#
# PCOD9365434 Si02
#       8
#     8   8   8   8   8   8   8   8
#     4  11  23  40  64  93 125 161 205 251 303 366
#     4   9  20  39  61  85 118 160 201 243 298 362
#     4  11  22  38  61  88 120 157 200 247 302 365
#     4  11  23  40  64  91 125 162 203 255 308 361
#     4  11  22  38  61  88 120 157 200 247 302 365
#     4  11  23  40  64  93 125 161 205 251 303 366
#     4   9  20  39  61  85 118 160 201 243 298 362
#     4  11  22  38  61  89 122 156 200 253 303 355
#
# _framework density 19.269683000000001
#
# number of rings (size 3 to 8) (size 9 to 14) (size 15 to 20)
#    0.000    1.500    2.500    2.625    1.750    1.500 
#    0.000    0.000    0.000    8.250    0.000    0.000 
#    0.000    0.000    0.000    0.000    0.000    0.000 
#
# Total GULP energy -178881.149639 kJ/mol
# GULP energy per Si atom -5590.035926 kJ/mol
# Density = 1.922582 g / cm^3
# Si number density = 19.269683 Si / 1000 Ang^3
#
#
#
# Elastic Constant Matrix: (Units=GPa)
#
#
# Indices 1 2 3 4 5 6 
#
# 1 20.6598 24.1412 -2.3904 0.0000 0.0000 0.0000
# 2 24.1412 152.1734 65.1678 0.0000 0.0000 0.0000
# 3 -2.3904 65.1678 131.7686 0.0000 0.0000 0.0000
# 4 0.0000 0.0000 0.0000 79.5465 0.0000 0.0000
# 5 0.0000 0.0000 0.0000 0.0000 5.7001 0.0000
# 6 0.0000 0.0000 0.0000 0.0000 0.0000 31.3602
#
#
#
# Elastic Compliance Matrix: (Units=1/GPa)
#
#
# Indices 1 2 3 4 5 6 
#
# 1 0.065488 -0.013826 0.008026 0.000000 0.000000 0.000000
# 2 -0.013826 0.011256 -0.005818 0.000000 0.000000 0.000000
# 3 0.008026 -0.005818 0.010612 0.000000 0.000000 0.000000
# 4 0.000000 0.000000 0.000000 0.012571 0.000000 0.000000
# 5 0.000000 0.000000 0.000000 0.000000 0.175436 0.000000
# 6 0.000000 0.000000 0.000000 0.000000 0.000000 0.031888
#
#
# Mechanical properties :
#
#
# Convention : Reuss Voigt Hill
#
# Bulk Modulus (GPa) = 15.59576 53.15990 34.37783
# Shear Modulus (GPa) = 14.21016 37.83357 26.02186
#
# Velocity S-wave (km/s) = 2.71852 4.43580 3.67877
# Velocity P-wave (km/s) = 4.23849 7.34046 5.99363
#
# Compressibility (1/GPa) = 0.06411999
#
# Stress axis : x y z
#
# Youngs Moduli (GPa) = 15.26999 88.83882 94.23370
#
# Poissons Ratio (x) = 1.22831 -0.75632
# Poissons Ratio (y) = 0.21113 0.54823
# Poissons Ratio (z) = -0.12256 0.51684
#
# Static dielectric constant tensor:
#      x y z
#    x 1.654570 0.000000 0.000000 
#    y 0.000000 1.664400 0.000000 
#    z 0.000000 0.000000 1.637610 
# 
# From -- ./inp_files/10651.got.cif
#   From: 2010.05.17/outbox.cif.g08.bks.cpg/sg40_6_cif.got.tgz:10651.got - 2010.06.03 18:35:42.
