data_PCOD9365042
_publ_section_title
;
Structure prediction by ZEFSAII (Michael W. Deem and Ramdas Pophale) SiO2 
 PCOD9365042
Probable space group: A M A 2
;
_chemical_formula_sum "Si O2"
_cell_formula_units_Z 64
_cell_length_a 28.360629
_cell_length_b 12.273907
_cell_length_c 7.801634
_cell_angle_alpha 90.000000
_cell_angle_beta 90.000000
_cell_angle_gamma 90.000000
_cell_volume 2715.715426
_symmetry_space_group_name_H-M "A M A 2"
_symmetry_group_IT_number 40
_symmetry_cell_setting 'orthorhombic'
loop_
_space_group_symop_operation_xyz
x,y,z
-x,-y,z
1/2-x,y,z
1/2+x,-y,z
x,1/2+y,1/2+z
-x,1/2-y,1/2+z
1/2-x,1/2+y,1/2+z
1/2+x,1/2-y,1/2+z
loop_
_atom_site_type_symbol
_atom_site_label
_atom_site_fract_x
_atom_site_fract_y
_atom_site_fract_z
Si Si1 0.443729 0.507687 0.176870
Si Si2 0.365029 0.353900 0.645497
Si Si3 0.306084 0.423810 0.315195
Si Si4 0.551377 0.762222 0.783702
Si Si5 0.305941 0.660614 0.313985
Si Si6 0.943546 0.729454 0.175225
Si Si7 0.304382 0.191888 0.205817
Si Si8 0.885541 0.923489 0.344645
O O1 0.500000 0.500000 0.136181
O O2 0.438318 0.609127 0.303770
O O3 0.428855 0.389574 0.245603
O O4 0.414759 0.544992 0.011502
O O5 0.337041 0.389251 0.477310
O O6 0.415415 0.292203 0.640710
O O7 0.333670 0.263751 0.744081
O O8 0.374917 0.464425 0.748063
O O9 0.250000 0.430511 0.361614
O O10 0.319271 0.541626 0.241179
O O11 0.311424 0.321624 0.189667
O O12 0.497583 0.750388 0.727085
O O13 0.559758 0.713210 0.970549
O O14 0.250000 0.678721 0.290334
O O15 0.315023 0.646110 0.517827
O O16 0.914703 0.833123 0.237550
O O17 0.250000 0.171845 0.245671
O O18 0.335698 0.139280 0.354204
#
# Coordination Sequence:
#
# PCOD9365042 Si02
#       8
#     8   8   8   8   8   8   8   8
#     4  10  23  45  64  93 126 168 213 268 317 380
#     4  12  24  40  65  97 126 172 213 259 326 383
#     4  10  22  42  65  93 131 168 215 268 317 378
#     4  11  24  44  68  92 129 168 214 267 323 386
#     4  10  22  43  65  89 129 169 211 266 319 374
#     4  11  24  46  63  93 129 165 214 268 322 379
#     4  10  22  42  66  95 127 167 212 260 318 378
#     4  12  24  41  70  92 134 172 207 269 320 380
#
# _framework density 23.566534000000001
#
# number of rings (size 3 to 8) (size 9 to 14) (size 15 to 20)
#    0.000    1.250    2.500    3.375    0.000    1.500 
#   11.250    0.000    0.000    0.000    0.000    0.000 
#    0.000    0.000    0.000    0.000    0.000    0.000 
#
# Total GULP energy -179121.357636 kJ/mol
# GULP energy per Si atom -5597.542426 kJ/mol
# Density = 2.351290 g / cm^3
# Si number density = 23.566534 Si / 1000 Ang^3
#
#
#
# Elastic Constant Matrix: (Units=GPa)
#
#
# Indices 1 2 3 4 5 6 
#
# 1 96.5040 61.9541 24.4893 0.0000 0.0000 0.0000
# 2 61.9541 186.5932 21.4729 0.0000 0.0000 0.0000
# 3 24.4893 21.4729 43.2828 0.0000 0.0000 0.0000
# 4 0.0000 0.0000 0.0000 36.0712 0.0000 0.0000
# 5 0.0000 0.0000 0.0000 0.0000 23.4470 0.0000
# 6 0.0000 0.0000 0.0000 0.0000 0.0000 44.7925
#
#
#
# Elastic Compliance Matrix: (Units=1/GPa)
#
#
# Indices 1 2 3 4 5 6 
#
# 1 0.014588 -0.004130 -0.006205 0.000000 0.000000 0.000000
# 2 -0.004130 0.006853 -0.001063 0.000000 0.000000 0.000000
# 3 -0.006205 -0.001063 0.027142 0.000000 0.000000 0.000000
# 4 0.000000 0.000000 0.000000 0.027723 0.000000 0.000000
# 5 0.000000 0.000000 0.000000 0.000000 0.042649 0.000000
# 6 0.000000 0.000000 0.000000 0.000000 0.000000 0.022325
#
#
# Mechanical properties :
#
#
# Convention : Reuss Voigt Hill
#
# Bulk Modulus (GPa) = 38.77906 60.24583 49.51244
# Shear Modulus (GPa) = 28.95666 35.42640 32.19153
#
# Velocity S-wave (km/s) = 3.50911 3.88138 3.69993
# Velocity P-wave (km/s) = 5.73667 6.76066 6.26960
#
# Compressibility (1/GPa) = 0.02578711
#
# Stress axis : x y z
#
# Youngs Moduli (GPa) = 68.54942 145.92739 36.84304
#
# Poissons Ratio (x) = 0.60261 0.22862
# Poissons Ratio (y) = 0.28308 0.03917
# Poissons Ratio (z) = 0.42536 0.15515
#
# Static dielectric constant tensor:
#      x y z
#    x 1.917390 0.000000 0.000000 
#    y 0.000000 1.891510 0.000000 
#    z 0.000000 0.000000 1.846200 
# 
# From -- ./inp_files/9443.got.cif
#   From: 2010.05.17/outbox.cif.g08.bks.cpg/sg40_5_cif.got.tgz:9443.got - 2010.06.03 18:35:42.
