data_PCOD9365317
_publ_section_title
;
Structure prediction by ZEFSAII (Michael W. Deem and Ramdas Pophale) SiO2 
 PCOD9365317
Probable space group: A M A 2
;
_chemical_formula_sum "Si O2"
_cell_formula_units_Z 40
_cell_length_a 17.731101
_cell_length_b 17.611492
_cell_length_c 5.185237
_cell_angle_alpha 90.000000
_cell_angle_beta 90.000000
_cell_angle_gamma 90.000000
_cell_volume 1619.199887
_symmetry_space_group_name_H-M "A M A 2"
_symmetry_group_IT_number 40
_symmetry_cell_setting 'orthorhombic'
loop_
_space_group_symop_operation_xyz
x,y,z
-x,-y,z
1/2-x,y,z
1/2+x,-y,z
x,1/2+y,1/2+z
-x,1/2-y,1/2+z
1/2-x,1/2+y,1/2+z
1/2+x,1/2-y,1/2+z
loop_
_atom_site_type_symbol
_atom_site_label
_atom_site_fract_x
_atom_site_fract_y
_atom_site_fract_z
Si Si1 0.595006 0.341308 0.205070
Si Si2 0.333092 0.100181 0.204421
Si Si3 0.544659 0.570055 0.995972
Si Si4 0.331084 0.459971 0.359301
Si Si5 0.162421 0.824590 0.195249
O O1 0.609843 0.360973 0.503670
O O2 0.513196 0.369329 0.116852
O O3 0.619081 0.254335 0.168881
O O4 0.648570 0.385209 0.000384
O O5 0.250000 0.132135 0.148989
O O6 0.331578 0.012941 0.113203
O O7 0.500000 0.500000 0.856847
O O8 0.591969 0.525833 0.212863
O O9 0.607655 0.619807 0.854416
O O10 0.250000 0.476673 0.228450
O O11 0.331435 0.371469 0.430000
O O12 0.250000 0.815589 0.286856
#
# Coordination Sequence:
#
# PCOD9365317 Si02
#       5
#     8   8   8   8   8
#     4  12  28  46  79 116 155 200 254 327 390 458
#     4  11  24  48  76 111 152 204 259 313 381 464
#     4  12  26  46  74 112 155 205 263 325 390 459
#     4  10  24  45  73 105 152 208 263 318 387 466
#     4  11  27  48  74 109 155 206 257 317 396 473
#
# _framework density 24.703558999999998
#
# number of rings (size 3 to 8) (size 9 to 14) (size 15 to 20)
#    0.000    0.800    2.000    3.600    8.400    0.800 
#    0.000    0.000    0.000    0.000    0.000    0.000 
#    0.000    0.000    0.000    0.000    0.000    0.000 
#
# Total GULP energy -111796.820989 kJ/mol
# GULP energy per Si atom -5589.841049 kJ/mol
# Density = 2.464733 g / cm^3
# Si number density = 24.703559 Si / 1000 Ang^3
#
#
#
# Elastic Constant Matrix: (Units=GPa)
#
#
# Indices 1 2 3 4 5 6 
#
# 1 158.7956 39.7817 29.6807 0.0000 0.0000 0.0000
# 2 39.7817 149.8566 16.9727 0.0000 0.0000 0.0000
# 3 29.6807 16.9727 42.3712 0.0000 0.0000 0.0000
# 4 0.0000 0.0000 0.0000 29.6760 0.0000 0.0000
# 5 0.0000 0.0000 0.0000 0.0000 29.1556 0.0000
# 6 0.0000 0.0000 0.0000 0.0000 0.0000 35.1358
#
#
#
# Elastic Compliance Matrix: (Units=1/GPa)
#
#
# Indices 1 2 3 4 5 6 
#
# 1 0.007543 -0.001471 -0.004695 0.000000 0.000000 0.000000
# 2 -0.001471 0.007277 -0.001885 0.000000 0.000000 0.000000
# 3 -0.004695 -0.001885 0.027645 0.000000 0.000000 0.000000
# 4 0.000000 0.000000 0.000000 0.033697 0.000000 0.000000
# 5 0.000000 0.000000 0.000000 0.000000 0.034299 0.000000
# 6 0.000000 0.000000 0.000000 0.000000 0.000000 0.028461
#
#
# Mechanical properties :
#
#
# Convention : Reuss Voigt Hill
#
# Bulk Modulus (GPa) = 37.93022 58.21041 48.07032
# Shear Modulus (GPa) = 30.52304 36.43272 33.47788
#
# Velocity S-wave (km/s) = 3.51888 3.84447 3.68528
# Velocity P-wave (km/s) = 5.64779 6.58190 6.13266
#
# Compressibility (1/GPa) = 0.02636420
#
# Stress axis : x y z
#
# Youngs Moduli (GPa) = 132.56627 137.42034 36.17340
#
# Poissons Ratio (x) = 0.20211 0.16983
# Poissons Ratio (y) = 0.19497 0.06818
# Poissons Ratio (z) = 0.62239 0.25899
#
# Static dielectric constant tensor:
#      x y z
#    x 1.990650 0.000000 0.000000 
#    y 0.000000 1.958130 0.000000 
#    z 0.000000 0.000000 1.987940 
# 
# From -- ./inp_files/1740.got.cif
#   From: 2010.05.17/outbox.cif.g08.bks.cpg/sg40_1_cif.got.tgz:1740.got - 2010.06.03 18:35:42.
