data_PCOD9365859
_publ_section_title
;
Structure prediction by ZEFSAII (Michael W. Deem and Ramdas Pophale) SiO2 
 PCOD9365859
Probable space group: A B A 2
;
_chemical_formula_sum "Si O2"
_cell_formula_units_Z 52
_cell_length_a 16.879130
_cell_length_b 17.038956
_cell_length_c 7.832004
_cell_angle_alpha 90.000000
_cell_angle_beta 90.000000
_cell_angle_gamma 90.000000
_cell_volume 2252.505915
_symmetry_space_group_name_H-M "A B A 2"
_symmetry_group_IT_number 41
_symmetry_cell_setting 'orthorhombic'
loop_
_space_group_symop_operation_xyz
x,y,z
-x,-y,z
1/2-x,y,1/2+z
1/2+x,-y,1/2+z
x,1/2+y,1/2+z
-x,1/2-y,1/2+z
1/2-x,1/2+y,z
1/2+x,1/2-y,z
loop_
_atom_site_type_symbol
_atom_site_label
_atom_site_fract_x
_atom_site_fract_y
_atom_site_fract_z
Si Si1 0.834667 0.564111 0.378370
Si Si2 0.611633 0.717752 0.993928
Si Si3 0.447982 0.156037 0.427302
Si Si4 0.421055 0.618305 0.538311
Si Si5 0.914891 0.181014 0.383092
Si Si6 0.172269 0.965185 0.484535
Si Si7 0.500000 0.000000 0.519422
O O1 0.824913 0.652064 0.450964
O O2 0.832336 0.564140 0.177045
O O3 0.762237 0.511864 0.444279
O O4 0.920738 0.534778 0.434673
O O5 0.580008 0.707210 0.186683
O O6 0.533862 0.695050 0.885679
O O7 0.632490 0.808374 0.977572
O O8 0.398620 0.234550 0.474846
O O9 0.461476 0.086569 0.566880
O O10 0.420949 0.117737 0.246559
O O11 0.508448 0.640667 0.470395
O O12 0.388478 0.536783 0.468106
O O13 0.852297 0.110235 0.375900
#
# Coordination Sequence:
#
# PCOD9365859 Si02
#       7
#     8   8   8   8   8   8   4
#     4  11  24  43  66  91 127 176 211 271 329 384
#     4   9  20  39  62  91 132 167 218 258 320 391
#     4   9  18  36  65  93 121 173 215 259 305 390
#     4  10  20  39  64  97 127 170 219 262 320 391
#     4  10  20  36  63  97 132 165 210 265 324 384
#     4  12  24  42  63  94 132 166 220 271 331 380
#     4  10  18  40  68  88 122 170 218 248 316 384
#
# _framework density 23.085401000000001
#
# number of rings (size 3 to 8) (size 9 to 14) (size 15 to 20)
#    0.000    1.846    1.538    3.231    0.000    1.231 
#   19.385    1.538    0.000    0.000    0.000    0.000 
#    0.000    0.000    0.000    0.000    0.000    0.000 
#
# Total GULP energy -144791.678317 kJ/mol
# GULP energy per Si atom -5568.910704 kJ/mol
# Density = 2.303286 g / cm^3
# Si number density = 23.085401 Si / 1000 Ang^3
#
#
#
# Elastic Constant Matrix: (Units=GPa)
#
#
# Indices 1 2 3 4 5 6 
#
# 1 60.8943 16.1336 6.3560 0.0000 0.0000 0.0000
# 2 16.1336 177.1611 18.2445 0.0000 0.0000 0.0000
# 3 6.3560 18.2445 32.2746 0.0000 0.0000 0.0000
# 4 0.0000 0.0000 0.0000 24.3790 0.0000 0.0000
# 5 0.0000 0.0000 0.0000 0.0000 6.4070 0.0000
# 6 0.0000 0.0000 0.0000 0.0000 0.0000 21.9083
#
#
#
# Elastic Compliance Matrix: (Units=1/GPa)
#
#
# Indices 1 2 3 4 5 6 
#
# 1 0.017036 -0.001280 -0.002631 0.000000 0.000000 0.000000
# 2 -0.001280 0.006090 -0.003190 0.000000 0.000000 0.000000
# 3 -0.002631 -0.003190 0.033306 0.000000 0.000000 0.000000
# 4 0.000000 0.000000 0.000000 0.041019 0.000000 0.000000
# 5 0.000000 0.000000 0.000000 0.000000 0.156080 0.000000
# 6 0.000000 0.000000 0.000000 0.000000 0.000000 0.045645
#
#
# Mechanical properties :
#
#
# Convention : Reuss Voigt Hill
#
# Bulk Modulus (GPa) = 23.68125 39.08868 31.38496
# Shear Modulus (GPa) = 15.26929 25.84524 20.55726
#
# Velocity S-wave (km/s) = 2.57461 3.34960 2.98734
# Velocity P-wave (km/s) = 4.37247 5.65055 5.05209
#
# Compressibility (1/GPa) = 0.04222751
#
# Stress axis : x y z
#
# Youngs Moduli (GPa) = 58.70002 164.21085 30.02482
#
# Poissons Ratio (x) = 0.21026 0.07900
# Poissons Ratio (y) = 0.07516 0.09579
# Poissons Ratio (z) = 0.15445 0.52388
#
# Static dielectric constant tensor:
#      x y z
#    x 1.924320 0.000000 0.000000 
#    y 0.000000 2.010100 0.000000 
#    z 0.000000 0.000000 1.878790 
# 
# From -- ./inp_files/3130.got.cif
#   From: 2010.05.17/outbox.cif.g08.bks.cpg/sg41_2_cif.got.tgz:3130.got - 2010.06.03 18:54:24.
