data_PCOD9365516
_publ_section_title
;
Structure prediction by ZEFSAII (Michael W. Deem and Ramdas Pophale) SiO2 
 PCOD9365516
Probable space group: A M A 2
;
_chemical_formula_sum "Si O2"
_cell_formula_units_Z 40
_cell_length_a 15.370885
_cell_length_b 24.307585
_cell_length_c 4.935102
_cell_angle_alpha 90.000000
_cell_angle_beta 90.000000
_cell_angle_gamma 90.000000
_cell_volume 1843.897687
_symmetry_space_group_name_H-M "A M A 2"
_symmetry_group_IT_number 40
_symmetry_cell_setting 'orthorhombic'
loop_
_space_group_symop_operation_xyz
x,y,z
-x,-y,z
1/2-x,y,z
1/2+x,-y,z
x,1/2+y,1/2+z
-x,1/2-y,1/2+z
1/2-x,1/2+y,1/2+z
1/2+x,1/2-y,1/2+z
loop_
_atom_site_type_symbol
_atom_site_label
_atom_site_fract_x
_atom_site_fract_y
_atom_site_fract_z
Si Si1 0.524038 0.215544 0.257740
Si Si2 0.607303 0.531957 0.817249
Si Si3 0.150882 0.041483 0.821700
Si Si4 0.991925 0.387459 0.099729
Si Si5 0.347097 0.360870 0.502500
O O1 0.524147 0.260959 0.493696
O O2 0.478671 0.162787 0.395531
O O3 0.617503 0.192645 0.161214
O O4 0.605809 0.493167 0.557832
O O5 0.519136 0.558253 0.933664
O O6 0.653978 0.587372 0.707080
O O7 0.651371 0.498595 0.060156
O O8 0.250000 0.054080 0.897650
O O9 0.093080 0.094936 0.761974
O O10 0.075746 0.373581 0.287340
O O11 0.250000 0.354051 0.388824
#
# Coordination Sequence:
#
# PCOD9365516 Si02
#       5
#     8   8   8   8   8
#     4  11  24  48  71  95 132 178 224 295 361 407
#     4  11  25  41  64 100 141 186 234 279 333 403
#     4  12  26  42  64 100 147 192 230 274 338 422
#     4  11  26  41  74  99 143 183 237 287 347 411
#     4  11  24  43  71 106 136 178 235 294 343 407
#
# _framework density 21.693176999999999
#
# number of rings (size 3 to 8) (size 9 to 14) (size 15 to 20)
#    0.000    0.800    4.000    2.400    8.400    4.000 
#    0.000    2.000    0.000    1.200    0.000    0.000 
#    0.000    0.000    0.000    0.000    0.000    0.000 
#
# Total GULP energy -111817.220724 kJ/mol
# GULP energy per Si atom -5590.861036 kJ/mol
# Density = 2.164380 g / cm^3
# Si number density = 21.693177 Si / 1000 Ang^3
#
#
#
# Elastic Constant Matrix: (Units=GPa)
#
#
# Indices 1 2 3 4 5 6 
#
# 1 135.6840 55.8582 39.1139 0.0000 0.0000 0.0000
# 2 55.8582 91.4429 38.9639 0.0000 0.0000 0.0000
# 3 39.1139 38.9639 129.1748 0.0000 0.0000 0.0000
# 4 0.0000 0.0000 0.0000 59.6270 0.0000 0.0000
# 5 0.0000 0.0000 0.0000 0.0000 22.2761 0.0000
# 6 0.0000 0.0000 0.0000 0.0000 0.0000 6.2611
#
#
#
# Elastic Compliance Matrix: (Units=1/GPa)
#
#
# Indices 1 2 3 4 5 6 
#
# 1 0.010052 -0.005558 -0.001367 0.000000 0.000000 0.000000
# 2 -0.005558 0.015622 -0.003029 0.000000 0.000000 0.000000
# 3 -0.001367 -0.003029 0.009069 0.000000 0.000000 0.000000
# 4 0.000000 0.000000 0.000000 0.016771 0.000000 0.000000
# 5 0.000000 0.000000 0.000000 0.000000 0.044891 0.000000
# 6 0.000000 0.000000 0.000000 0.000000 0.000000 0.159715
#
#
# Mechanical properties :
#
#
# Convention : Reuss Voigt Hill
#
# Bulk Modulus (GPa) = 67.41118 69.35263 68.38191
# Shear Modulus (GPa) = 17.79526 32.45722 25.12624
#
# Velocity S-wave (km/s) = 2.86722 3.87226 3.40701
# Velocity P-wave (km/s) = 6.48873 7.21330 6.86059
#
# Compressibility (1/GPa) = 0.01483433
#
# Stress axis : x y z
#
# Youngs Moduli (GPa) = 99.47986 64.01418 110.26352
#
# Poissons Ratio (x) = 0.35578 0.15077
# Poissons Ratio (y) = 0.55289 0.33400
# Poissons Ratio (z) = 0.13602 0.19391
#
# Static dielectric constant tensor:
#      x y z
#    x 1.815250 0.000000 0.000000 
#    y 0.000000 1.815270 0.000000 
#    z 0.000000 0.000000 1.831600 
# 
# From -- ./inp_files/1266.got.cif
#   From: 2010.05.17/outbox.cif.g08.bks.cpg/sg40_1_cif.got.tgz:1266.got - 2010.06.03 18:35:42.
