data_PCOD9365037
_publ_section_title
;
Structure prediction by ZEFSAII (Michael W. Deem and Ramdas Pophale) SiO2 
 PCOD9365037
Probable space group: A M A 2
;
_chemical_formula_sum "Si O2"
_cell_formula_units_Z 32
_cell_length_a 13.980696
_cell_length_b 19.572408
_cell_length_c 5.160285
_cell_angle_alpha 90.000000
_cell_angle_beta 90.000000
_cell_angle_gamma 90.000000
_cell_volume 1412.039159
_symmetry_space_group_name_H-M "A M A 2"
_symmetry_group_IT_number 40
_symmetry_cell_setting 'orthorhombic'
loop_
_space_group_symop_operation_xyz
x,y,z
-x,-y,z
1/2-x,y,z
1/2+x,-y,z
x,1/2+y,1/2+z
-x,1/2-y,1/2+z
1/2-x,1/2+y,1/2+z
1/2+x,1/2-y,1/2+z
loop_
_atom_site_type_symbol
_atom_site_label
_atom_site_fract_x
_atom_site_fract_y
_atom_site_fract_z
Si Si1 0.565574 0.743972 0.840140
Si Si2 0.138374 0.979236 0.757314
Si Si3 0.059130 0.405658 0.767619
Si Si4 0.643663 0.881519 0.042463
O O1 0.512537 0.759071 0.570592
O O2 0.607516 0.668128 0.815923
O O3 0.632791 0.806866 0.916300
O O4 0.250000 0.962645 0.730251
O O5 0.085880 0.954931 0.500678
O O6 0.095259 0.938586 0.001315
O O7 0.131670 0.058978 0.829113
O O8 0.945926 0.391659 0.733699
O O9 0.750000 0.889899 0.158235
#
# Coordination Sequence:
#
# PCOD9365037 Si02
#       4
#     8   8   8   8
#     4  10  22  42  64  92 130 174 220 270 328 392
#     4  11  25  44  68  99 134 177 228 277 332 395
#     4  11  23  44  70  99 136 179 222 277 335 398
#     4  10  24  44  69 102 137 176 223 276 335 399
#
# _framework density 22.662258999999999
#
# number of rings (size 3 to 8) (size 9 to 14) (size 15 to 20)
#    0.000    1.500    0.000    4.500    0.000   12.000 
#    0.000   18.750    0.000    3.000    0.000    0.000 
#    0.000    0.000    0.000    0.000    0.000    0.000 
#
# Total GULP energy -89589.928312 kJ/mol
# GULP energy per Si atom -5599.370520 kJ/mol
# Density = 2.261068 g / cm^3
# Si number density = 22.662259 Si / 1000 Ang^3
#
#
#
# Elastic Constant Matrix: (Units=GPa)
#
#
# Indices 1 2 3 4 5 6 
#
# 1 189.7066 15.9239 86.6929 0.0000 0.0000 0.0000
# 2 15.9239 208.8828 -36.2442 0.0000 0.0000 0.0000
# 3 86.6929 -36.2442 147.2020 0.0000 0.0000 0.0000
# 4 0.0000 0.0000 0.0000 23.5591 0.0000 0.0000
# 5 0.0000 0.0000 0.0000 0.0000 11.2648 0.0000
# 6 0.0000 0.0000 0.0000 0.0000 0.0000 95.2887
#
#
#
# Elastic Compliance Matrix: (Units=1/GPa)
#
#
# Indices 1 2 3 4 5 6 
#
# 1 0.007593 -0.001415 -0.004820 0.000000 0.000000 0.000000
# 2 -0.001415 0.005265 0.002130 0.000000 0.000000 0.000000
# 3 -0.004820 0.002130 0.010157 0.000000 0.000000 0.000000
# 4 0.000000 0.000000 0.000000 0.042447 0.000000 0.000000
# 5 0.000000 0.000000 0.000000 0.000000 0.088772 0.000000
# 6 0.000000 0.000000 0.000000 0.000000 0.000000 0.010494
#
#
# Mechanical properties :
#
#
# Convention : Reuss Voigt Hill
#
# Bulk Modulus (GPa) = 67.55379 75.39295 71.47337
# Shear Modulus (GPa) = 28.10998 57.98376 43.04687
#
# Velocity S-wave (km/s) = 3.52573 5.06375 4.36305
# Velocity P-wave (km/s) = 6.81528 8.21761 7.54908
#
# Compressibility (1/GPa) = 0.01480302
#
# Stress axis : x y z
#
# Youngs Moduli (GPa) = 131.70326 189.94054 98.45855
#
# Poissons Ratio (x) = 0.26880 0.47459
# Poissons Ratio (y) = 0.18639 -0.20969
# Poissons Ratio (z) = 0.63483 -0.40453
#
# Static dielectric constant tensor:
#      x y z
#    x 1.854100 0.000000 0.000000 
#    y 0.000000 1.868760 0.000000 
#    z 0.000000 0.000000 1.780820 
# 
# From -- ./inp_files/1110.got.cif
#   From: 2010.05.17/outbox.cif.g08.bks.cpg/sg40_1_cif.got.tgz:1110.got - 2010.06.03 18:35:42.
