data_PCOD9365819
_publ_section_title
;
Structure prediction by ZEFSAII (Michael W. Deem and Ramdas Pophale) SiO2 
 PCOD9365819
Probable space group: A B A 2
;
_chemical_formula_sum "Si O2"
_cell_formula_units_Z 52
_cell_length_a 21.594067
_cell_length_b 14.647684
_cell_length_c 7.395365
_cell_angle_alpha 90.000000
_cell_angle_beta 90.000000
_cell_angle_gamma 90.000000
_cell_volume 2339.176651
_symmetry_space_group_name_H-M "A B A 2"
_symmetry_group_IT_number 41
_symmetry_cell_setting 'orthorhombic'
loop_
_space_group_symop_operation_xyz
x,y,z
-x,-y,z
1/2-x,y,1/2+z
1/2+x,-y,1/2+z
x,1/2+y,1/2+z
-x,1/2-y,1/2+z
1/2-x,1/2+y,z
1/2+x,1/2-y,z
loop_
_atom_site_type_symbol
_atom_site_label
_atom_site_fract_x
_atom_site_fract_y
_atom_site_fract_z
Si Si1 0.077921 0.652852 0.134860
Si Si2 0.305175 0.498986 0.036753
Si Si3 0.500000 0.500000 0.073561
Si Si4 0.063244 0.342246 0.035356
Si Si5 0.098969 0.139968 0.071973
Si Si6 0.836721 0.507075 0.117501
Si Si7 0.406875 0.358697 0.115307
O O1 0.087155 0.642647 0.352755
O O2 0.124852 0.580216 0.051675
O O3 0.095315 0.753306 0.061260
O O4 0.006140 0.634032 0.094879
O O5 0.333807 0.595258 0.108141
O O6 0.324830 0.498824 0.829686
O O7 0.231912 0.488499 0.038820
O O8 0.342350 0.413695 0.124190
O O9 0.453205 0.422248 0.995796
O O10 0.448674 0.566918 0.158238
O O11 0.118211 0.408714 0.089536
O O12 0.081305 0.243120 0.116168
O O13 0.064993 0.348996 0.816842
#
# Coordination Sequence:
#
# PCOD9365819 Si02
#       7
#     8   8   4   8   8   8   8
#     4  10  22  38  61  94 122 161 198 253 303 368
#     4  10  23  44  62  88 115 171 205 252 306 359
#     4  10  18  36  58  86 122 162 184 252 288 364
#     4  11  22  38  61  97 125 157 198 257 305 368
#     4   9  21  38  62  86 125 158 203 244 305 361
#     4  11  24  41  64  84 127 160 211 251 303 367
#     4  10  22  38  61  90 127 154 205 247 306 359
#
# _framework density 22.230043999999999
#
# number of rings (size 3 to 8) (size 9 to 14) (size 15 to 20)
#    0.000    1.846    1.538    1.385    8.615    1.231 
#    0.000    3.077    0.000    0.000    0.000    0.000 
#    0.000    0.000    0.000    0.000    0.000    0.000 
#
# Total GULP energy -145013.516557 kJ/mol
# GULP energy per Si atom -5577.442944 kJ/mol
# Density = 2.217945 g / cm^3
# Si number density = 22.230044 Si / 1000 Ang^3
#
#
#
# Elastic Constant Matrix: (Units=GPa)
#
#
# Indices 1 2 3 4 5 6 
#
# 1 196.4520 105.3056 0.3829 0.0000 0.0000 0.0000
# 2 105.3056 170.9387 10.8020 0.0000 0.0000 0.0000
# 3 0.3829 10.8020 54.2392 0.0000 0.0000 0.0000
# 4 0.0000 0.0000 0.0000 -0.7022 0.0000 0.0000
# 5 0.0000 0.0000 0.0000 0.0000 16.9851 0.0000
# 6 0.0000 0.0000 0.0000 0.0000 0.0000 13.8836
#
#
#
# Elastic Compliance Matrix: (Units=1/GPa)
#
#
# Indices 1 2 3 4 5 6 
#
# 1 0.007643 -0.004765 0.000895 0.000000 0.000000 0.000000
# 2 -0.004765 0.008895 -0.001738 0.000000 0.000000 0.000000
# 3 0.000895 -0.001738 0.018777 0.000000 0.000000 0.000000
# 4 0.000000 0.000000 0.000000 -1.424180 0.000000 0.000000
# 5 0.000000 0.000000 0.000000 0.000000 0.058875 0.000000
# 6 0.000000 0.000000 0.000000 0.000000 0.000000 0.072027
#
#
# Mechanical properties :
#
#
# Convention : Reuss Voigt Hill
#
# Bulk Modulus (GPa) = 41.49528 72.73454 57.11491
# Shear Modulus (GPa) = -4.03644 26.37593 11.16974
#
# Velocity S-wave (km/s) = -1.34896 3.44830 2.24400
# Velocity P-wave (km/s) = 4.03492 6.97455 5.69759
#
# Compressibility (1/GPa) = 0.02409913
#
# Stress axis : x y z
#
# Youngs Moduli (GPa) = 130.84477 112.42064 53.25767
#
# Poissons Ratio (x) = 0.53566 -0.04766
# Poissons Ratio (y) = 0.62344 0.09255
# Poissons Ratio (z) = -0.11710 0.19537
#
# Static dielectric constant tensor:
#      x y z
#    x 1.869640 0.000000 0.000000 
#    y 0.000000 1.884940 0.000000 
#    z 0.000000 0.000000 1.925750 
# 
# From -- ./inp_files/3392.got.cif
#   From: 2010.05.17/outbox.cif.g08.bks.cpg/sg41_2_cif.got.tgz:3392.got - 2010.06.03 18:54:24.
