data_PCOD9365700
_publ_section_title
;
Structure prediction by ZEFSAII (Michael W. Deem and Ramdas Pophale) SiO2 
 PCOD9365700
Probable space group: A B A 2
;
_chemical_formula_sum "Si O2"
_cell_formula_units_Z 56
_cell_length_a 13.414258
_cell_length_b 5.312391
_cell_length_c 35.896186
_cell_angle_alpha 90.000000
_cell_angle_beta 90.000000
_cell_angle_gamma 90.000000
_cell_volume 2558.026234
_symmetry_space_group_name_H-M "A B A 2"
_symmetry_group_IT_number 41
_symmetry_cell_setting 'orthorhombic'
loop_
_space_group_symop_operation_xyz
x,y,z
-x,-y,z
1/2-x,y,1/2+z
1/2+x,-y,1/2+z
x,1/2+y,1/2+z
-x,1/2-y,1/2+z
1/2-x,1/2+y,z
1/2+x,1/2-y,z
loop_
_atom_site_type_symbol
_atom_site_label
_atom_site_fract_x
_atom_site_fract_y
_atom_site_fract_z
Si Si1 0.567257 0.250343 0.713770
Si Si2 0.866564 0.141236 0.369583
Si Si3 0.315050 0.200037 0.979335
Si Si4 0.188274 0.313435 0.557335
Si Si5 0.067191 0.749886 0.132393
Si Si6 0.865392 0.141819 0.898903
Si Si7 0.688854 0.698487 0.288937
O O1 0.500000 0.500000 0.715449
O O2 0.619724 0.254469 0.673072
O O3 0.634595 0.243314 0.750097
O O4 0.500000 0.000000 0.714700
O O5 0.750195 0.109820 0.383896
O O6 0.906632 0.361916 0.395679
O O7 0.871172 0.234214 0.327219
O O8 0.907853 0.861239 0.373103
O O9 0.228242 0.416681 0.979064
O O10 0.369386 0.255074 0.940770
O O11 0.369213 0.252351 0.018684
O O12 0.223811 0.603077 0.556221
O O13 0.134135 0.262332 0.595961
O O14 0.000000 0.500000 0.130442
O O15 0.000000 0.000000 0.131940
O O16 0.726229 0.411417 0.290509
#
# Coordination Sequence:
#
# PCOD9365700 Si02
#       7
#     8   8   8   8   8   8   8
#     4  10  23  41  57  77 107 148 182 212 266 337
#     4  10  16  25  42  70 105 130 170 210 260 298
#     4  10  16  25  42  69 105 133 161 208 262 305
#     4  10  21  33  53  86 116 129 173 231 280 299
#     4  10  21  40  61  76 103 149 188 207 257 342
#     4  10  14  25  41  64 109 134 166 198 267 302
#     4  12  21  33  54  86 111 131 180 236 270 301
#
# _framework density 21.891877000000001
#
# number of rings (size 3 to 8) (size 9 to 14) (size 15 to 20)
#    0.000    1.714    5.714    1.714    0.000    1.143 
#    0.000    0.000    0.000    0.000    0.000    6.000 
#    0.000    0.000    0.000    0.000    0.000    0.000 
#
# Total GULP energy -156206.379535 kJ/mol
# GULP energy per Si atom -5578.799269 kJ/mol
# Density = 2.184205 g / cm^3
# Si number density = 21.891877 Si / 1000 Ang^3
#
#
#
# Elastic Constant Matrix: (Units=GPa)
#
#
# Indices 1 2 3 4 5 6 
#
# 1 10.6689 5.5108 8.6020 0.0000 0.0000 0.0000
# 2 5.5108 132.4508 -0.9818 0.0000 0.0000 0.0000
# 3 8.6020 -0.9818 188.2713 0.0000 0.0000 0.0000
# 4 0.0000 0.0000 0.0000 35.5004 0.0000 0.0000
# 5 0.0000 0.0000 0.0000 0.0000 -1.5375 0.0000
# 6 0.0000 0.0000 0.0000 0.0000 0.0000 25.8435
#
#
#
# Elastic Compliance Matrix: (Units=1/GPa)
#
#
# Indices 1 2 3 4 5 6 
#
# 1 0.099573 -0.004177 -0.004571 0.000000 0.000000 0.000000
# 2 -0.004177 0.007725 0.000231 0.000000 0.000000 0.000000
# 3 -0.004571 0.000231 0.005522 0.000000 0.000000 0.000000
# 4 0.000000 0.000000 0.000000 0.028169 0.000000 0.000000
# 5 0.000000 0.000000 0.000000 0.000000 -0.650396 0.000000
# 6 0.000000 0.000000 0.000000 0.000000 0.000000 0.038694
#
#
# Mechanical properties :
#
#
# Convention : Reuss Voigt Hill
#
# Bulk Modulus (GPa) = 10.43987 39.73922 25.08955
# Shear Modulus (GPa) = -11.85536 33.17862 10.66163
#
# Velocity S-wave (km/s) = -2.32963 3.89725 2.20923
# Velocity P-wave (km/s) = 1.56749 6.20027 4.24183
#
# Compressibility (1/GPa) = 0.09578660
#
# Stress axis : x y z
#
# Youngs Moduli (GPa) = 10.04285 129.44201 181.10871
#
# Poissons Ratio (x) = 0.54065 0.82789
# Poissons Ratio (y) = 0.04195 -0.04186
# Poissons Ratio (z) = 0.04591 -0.02992
#
# Static dielectric constant tensor:
#      x y z
#    x 2.030400 0.000000 0.000000 
#    y 0.000000 1.830060 0.000000 
#    z 0.000000 0.000000 1.834540 
# 
# From -- ./inp_files/12739.got.cif
#   From: 2010.05.17/outbox.cif.g08.bks.cpg/sg41_7_cif.got.tgz:12739.got - 2010.06.03 18:54:24.
