data_PCOD9365904
_publ_section_title
;
Structure prediction by ZEFSAII (Michael W. Deem and Ramdas Pophale) SiO2 
 PCOD9365904
Probable space group: A B A 2
;
_chemical_formula_sum "Si O2"
_cell_formula_units_Z 48
_cell_length_a 5.544674
_cell_length_b 21.599228
_cell_length_c 14.608327
_cell_angle_alpha 90.000000
_cell_angle_beta 90.000000
_cell_angle_gamma 90.000000
_cell_volume 1749.503145
_symmetry_space_group_name_H-M "A B A 2"
_symmetry_group_IT_number 41
_symmetry_cell_setting 'orthorhombic'
loop_
_space_group_symop_operation_xyz
x,y,z
-x,-y,z
1/2-x,y,1/2+z
1/2+x,-y,1/2+z
x,1/2+y,1/2+z
-x,1/2-y,1/2+z
1/2-x,1/2+y,z
1/2+x,1/2-y,z
loop_
_atom_site_type_symbol
_atom_site_label
_atom_site_fract_x
_atom_site_fract_y
_atom_site_fract_z
Si Si1 0.784392 0.242326 0.842350
Si Si2 0.602591 0.871651 0.184565
Si Si3 0.237935 0.895876 0.926531
Si Si4 0.264555 0.148182 0.992044
Si Si5 0.000000 0.000000 0.581319
Si Si6 0.500000 0.500000 0.083278
Si Si7 0.098217 0.899604 0.240290
O O1 0.535251 0.251765 0.790387
O O2 0.769142 0.175421 0.887770
O O3 0.772164 0.292403 0.925978
O O4 0.561966 0.942805 0.149066
O O5 0.324146 0.856587 0.208620
O O6 0.824473 0.873464 0.257837
O O7 0.714477 0.834675 0.098876
O O8 0.491825 0.891865 0.978957
O O9 0.292056 0.931603 0.831437
O O10 0.974272 0.893355 0.973246
O O11 0.748479 0.006329 0.526965
O O12 0.453247 0.444581 0.155665
#
# Coordination Sequence:
#
# PCOD9365904 Si02
#       7
#     8   8   8   8   4   4   8
#     4   8  16  30  50  68  94 134 174 202 252 322
#     4  10  19  33  54  78 103 135 178 220 259 313
#     4  10  19  33  54  76 103 140 175 214 268 325
#     4  10  19  33  54  76 103 140 175 214 268 325
#     4   8  16  30  49  72 101 134 162 202 262 310
#     4   8  16  30  49  72 101 134 162 202 262 310
#     4  10  19  33  54  78 103 135 178 220 259 313
#
# _framework density 27.436363
#
# number of rings (size 3 to 8) (size 9 to 14) (size 15 to 20)
#    0.000    2.667    0.000    2.000    0.000    0.000 
#    0.000    0.833    0.000   56.000    0.000    0.000 
#    0.000    0.000    0.000    0.000    0.000    0.000 
#
# Total GULP energy -133812.777046 kJ/mol
# GULP energy per Si atom -5575.532377 kJ/mol
# Density = 2.737392 g / cm^3
# Si number density = 27.436363 Si / 1000 Ang^3
#
#
#
# Elastic Constant Matrix: (Units=GPa)
#
#
# Indices 1 2 3 4 5 6 
#
# 1 303.3744 -11.1674 16.4759 0.0000 0.0000 0.0000
# 2 -11.1674 30.4399 -22.3364 0.0000 0.0000 0.0000
# 3 16.4759 -22.3364 95.2942 0.0000 0.0000 0.0000
# 4 0.0000 0.0000 0.0000 24.0046 0.0000 0.0000
# 5 0.0000 0.0000 0.0000 0.0000 49.0181 0.0000
# 6 0.0000 0.0000 0.0000 0.0000 0.0000 52.8778
#
#
#
# Elastic Compliance Matrix: (Units=1/GPa)
#
#
# Indices 1 2 3 4 5 6 
#
# 1 0.003351 0.000971 -0.000352 0.000000 0.000000 0.000000
# 2 0.000971 0.039957 0.009198 0.000000 0.000000 0.000000
# 3 -0.000352 0.009198 0.012711 0.000000 0.000000 0.000000
# 4 0.000000 0.000000 0.000000 0.041659 0.000000 0.000000
# 5 0.000000 0.000000 0.000000 0.000000 0.020401 0.000000
# 6 0.000000 0.000000 0.000000 0.000000 0.000000 0.018912
#
#
# Mechanical properties :
#
#
# Convention : Reuss Voigt Hill
#
# Bulk Modulus (GPa) = 13.21815 43.89475 28.55645
# Shear Modulus (GPa) = 35.06983 54.92251 44.99617
#
# Velocity S-wave (km/s) = 3.57911 4.47902 4.05411
# Velocity P-wave (km/s) = 4.68062 6.54082 5.68729
#
# Compressibility (1/GPa) = 0.07565355
#
# Stress axis : x y z
#
# Youngs Moduli (GPa) = 298.40827 25.02683 78.67486
#
# Poissons Ratio (x) = -0.02431 0.02767
# Poissons Ratio (y) = -0.28985 -0.72363
# Poissons Ratio (z) = 0.10496 -0.23019
#
# Static dielectric constant tensor:
#      x y z
#    x 2.300980 0.000000 0.000000 
#    y 0.000000 2.348350 0.000000 
#    z 0.000000 0.000000 2.258670 
# 
# From -- ./inp_files/6898.got.cif
#   From: 2010.05.17/outbox.cif.g08.bks.cpg/sg41_4_cif.got.tgz:6898.got - 2010.06.03 18:54:24.
