data_PCOD9365279
_publ_section_title
;
Structure prediction by ZEFSAII (Michael W. Deem and Ramdas Pophale) SiO2 
 PCOD9365279
Probable space group: A M A 2
;
_chemical_formula_sum "Si O2"
_cell_formula_units_Z 40
_cell_length_a 26.695852
_cell_length_b 5.311964
_cell_length_c 13.196148
_cell_angle_alpha 90.000000
_cell_angle_beta 90.000000
_cell_angle_gamma 90.000000
_cell_volume 1871.311501
_symmetry_space_group_name_H-M "A M A 2"
_symmetry_group_IT_number 40
_symmetry_cell_setting 'orthorhombic'
loop_
_space_group_symop_operation_xyz
x,y,z
-x,-y,z
1/2-x,y,z
1/2+x,-y,z
x,1/2+y,1/2+z
-x,1/2-y,1/2+z
1/2-x,1/2+y,1/2+z
1/2+x,1/2-y,1/2+z
loop_
_atom_site_type_symbol
_atom_site_label
_atom_site_fract_x
_atom_site_fract_y
_atom_site_fract_z
Si Si1 0.533513 0.750995 0.894890
Si Si2 0.830156 0.837357 0.644218
Si Si3 0.073939 0.870896 0.603426
Si Si4 0.929194 0.627432 0.681495
Si Si5 0.750000 0.336146 0.323779
Si Si6 0.250000 0.666115 0.964601
O O1 0.500000 0.500000 0.895797
O O2 0.565119 0.739034 0.792476
O O3 0.500000 0.000000 0.897961
O O4 0.569160 0.737153 0.991757
O O5 0.870640 0.613161 0.651388
O O6 0.796702 0.840837 0.745041
O O7 0.796833 0.830251 0.543084
O O8 0.869416 0.067022 0.636593
O O9 0.050491 0.653830 0.673480
O O10 0.049777 0.150469 0.609630
O O11 0.750000 0.584844 0.394314
O O12 0.750000 0.084767 0.394039
#
# Coordination Sequence:
#
# PCOD9365279 Si02
#       6
#     8   8   8   8   4   4
#     4  12  26  42  64  97 126 165 218 264 324 374
#     4   9  26  42  67  98 126 172 217 246 330 377
#     4  10  24  42  67  90 128 167 213 259 314 381
#     4  10  24  42  67  90 128 167 213 259 314 381
#     4  11  26  41  68  96 136 163 210 267 310 382
#     4  11  26  41  68  96 136 163 210 267 310 382
#
# _framework density 21.375381000000001
#
# number of rings (size 3 to 8) (size 9 to 14) (size 15 to 20)
#    1.200    0.400    0.000    2.400    8.400    6.400 
#    0.000    0.000    0.000    0.000    0.000    0.000 
#    0.000    0.000    0.000    0.000    0.000    0.000 
#
# Total GULP energy -111535.139397 kJ/mol
# GULP energy per Si atom -5576.756970 kJ/mol
# Density = 2.132673 g / cm^3
# Si number density = 21.375381 Si / 1000 Ang^3
#
#
#
# Elastic Constant Matrix: (Units=GPa)
#
#
# Indices 1 2 3 4 5 6 
#
# 1 96.4065 42.8473 35.1768 0.0000 0.0000 0.0000
# 2 42.8473 172.7079 40.0336 0.0000 0.0000 0.0000
# 3 35.1768 40.0336 136.5864 0.0000 0.0000 0.0000
# 4 0.0000 0.0000 0.0000 25.1723 0.0000 0.0000
# 5 0.0000 0.0000 0.0000 0.0000 28.8547 0.0000
# 6 0.0000 0.0000 0.0000 0.0000 0.0000 28.3615
#
#
#
# Elastic Compliance Matrix: (Units=1/GPa)
#
#
# Indices 1 2 3 4 5 6 
#
# 1 0.012381 -0.002502 -0.002455 0.000000 0.000000 0.000000
# 2 -0.002502 0.006718 -0.001325 0.000000 0.000000 0.000000
# 3 -0.002455 -0.001325 0.008342 0.000000 0.000000 0.000000
# 4 0.000000 0.000000 0.000000 0.039726 0.000000 0.000000
# 5 0.000000 0.000000 0.000000 0.000000 0.034656 0.000000
# 6 0.000000 0.000000 0.000000 0.000000 0.000000 0.035259
#
#
# Mechanical properties :
#
#
# Convention : Reuss Voigt Hill
#
# Bulk Modulus (GPa) = 67.22053 71.31292 69.26673
# Shear Modulus (GPa) = 32.34042 35.65392 33.99717
#
# Velocity S-wave (km/s) = 3.89392 4.08853 3.99241
# Velocity P-wave (km/s) = 7.19255 7.46477 7.32992
#
# Compressibility (1/GPa) = 0.01487641
#
# Stress axis : x y z
#
# Youngs Moduli (GPa) = 80.77040 148.85389 119.87686
#
# Poissons Ratio (x) = 0.37250 0.29431
# Poissons Ratio (y) = 0.20213 0.15878
# Poissons Ratio (z) = 0.19830 0.19717
#
# Static dielectric constant tensor:
#      x y z
#    x 1.838260 0.000000 0.000000 
#    y 0.000000 1.832120 0.000000 
#    z 0.000000 0.000000 1.793250 
# 
# From -- ./inp_files/14320.got.cif
#   From: 2010.05.17/outbox.cif.g08.bks.cpg/sg40_8_cif.got.tgz:14320.got - 2010.06.03 18:35:42.
