data_PCOD9365640
_publ_section_title
;
Structure prediction by ZEFSAII (Michael W. Deem and Ramdas Pophale) SiO2 
 PCOD9365640
Probable space group: A M A 2
;
_chemical_formula_sum "Si O2"
_cell_formula_units_Z 32
_cell_length_a 18.000000
_cell_length_b 15.000000
_cell_length_c 12.000000
_cell_angle_alpha 90.000000
_cell_angle_beta 90.000000
_cell_angle_gamma 90.000000
_cell_volume 3240.000000
_symmetry_space_group_name_H-M "A M A 2"
_symmetry_group_IT_number 40
_symmetry_cell_setting 'orthorhombic'
loop_
_space_group_symop_operation_xyz
x,y,z
-x,-y,z
1/2-x,y,z
1/2+x,-y,z
x,1/2+y,1/2+z
-x,1/2-y,1/2+z
1/2-x,1/2+y,1/2+z
1/2+x,1/2-y,1/2+z
loop_
_atom_site_type_symbol
_atom_site_label
_atom_site_fract_x
_atom_site_fract_y
_atom_site_fract_z
Si Si1 0.927947 0.558875 0.096480
Si Si2 0.097164 0.229043 0.853733
Si Si3 0.662351 0.023814 0.153782
Si Si4 0.663512 0.093460 0.376701
Si Si5 0.162459 0.886476 0.940152
Si Si6 0.338559 0.679560 0.592359
Si Si7 0.664100 0.450231 0.268980
Si Si8 0.434704 0.780918 0.769905
O O1 0.867840 0.499562 0.161927
O O2 0.948410 0.638458 0.181646
O O3 0.000000 0.500000 0.072966
O O4 0.888195 0.590419 0.984403
O O5 0.152078 0.309246 0.822845
O O6 0.117634 0.137205 0.794332
O O7 0.013104 0.252819 0.818514
O O8 0.116378 0.210660 0.983591
O O9 0.750000 0.044746 0.163463
O O10 0.635231 0.027443 0.280065
O O11 0.657562 0.926522 0.101681
O O12 0.632222 0.093281 0.063519
O O13 0.750000 0.078271 0.405568
O O14 0.250000 0.861406 0.942816
O O15 0.112673 0.817812 0.873318
O O16 0.158529 0.978583 0.869717
O O17 0.250000 0.705308 0.586175
O O18 0.380543 0.716737 0.700456
O O19 0.750000 0.426353 0.256801
#
# Coordination Sequence:
#
# PCOD9365640 Si02
#       8
#     8   8   8   8   8   8   8   8
#     4  11  22  40  60  88 131 166 206 265 325 384
#     4  12  23  38  61  95 128 164 214 271 322 375
#     4   9  20  40  64  93 121 154 211 265 310 377
#     4  11  24  42  65  92 128 175 219 260 315 391
#     4   9  18  36  63  91 121 158 205 262 321 380
#     4  11  22  43  70  94 127 173 223 264 315 396
#     4  10  19  35  63  91 116 156 210 261 313 375
#     4  11  24  38  60  96 132 162 211 273 327 381
#
# _framework density 9.8765429999999999
#
# number of rings (size 3 to 8) (size 9 to 14) (size 15 to 20)
#    0.000    1.500    3.750    1.875    0.000    3.000 
#    0.000    2.500    0.000    3.000    0.000    0.000 
#    0.000    0.000    0.000    0.000    0.000    0.000 
#
# Total GULP energy -178482.323469 kJ/mol
# GULP energy per Si atom -5577.572608 kJ/mol
# Density = 0.985406 g / cm^3
# Si number density = 9.876543 Si / 1000 Ang^3
#
#
#
# Elastic Constant Matrix: (Units=GPa)
#
#
# Indices 1 2 3 4 5 6 
#
# 1 81.3503 2.7859 43.7677 0.0000 0.0000 0.0000
# 2 2.7859 20.8422 23.3435 0.0000 0.0000 0.0000
# 3 43.7677 23.3435 107.4886 0.0000 0.0000 0.0000
# 4 0.0000 0.0000 0.0000 -7.0975 0.0000 0.0000
# 5 0.0000 0.0000 0.0000 0.0000 28.0160 0.0000
# 6 0.0000 0.0000 0.0000 0.0000 0.0000 25.8147
#
#
#
# Elastic Compliance Matrix: (Units=1/GPa)
#
#
# Indices 1 2 3 4 5 6 
#
# 1 0.016484 0.007022 -0.008237 0.000000 0.000000 0.000000
# 2 0.007022 0.066392 -0.017278 0.000000 0.000000 0.000000
# 3 -0.008237 -0.017278 0.016409 0.000000 0.000000 0.000000
# 4 0.000000 0.000000 0.000000 -0.140895 0.000000 0.000000
# 5 0.000000 0.000000 0.000000 0.000000 0.035694 0.000000
# 6 0.000000 0.000000 0.000000 0.000000 0.000000 0.038738
#
#
# Mechanical properties :
#
#
# Convention : Reuss Voigt Hill
#
# Bulk Modulus (GPa) = 16.05134 38.83058 27.44096
# Shear Modulus (GPa) = 55.20349 18.66557 36.93453
#
# Velocity S-wave (km/s) = 5.29221 3.07733 4.32882
# Velocity P-wave (km/s) = 6.74440 5.68571 6.23755
#
# Compressibility (1/GPa) = 0.06230010
#
# Stress axis : x y z
#
# Youngs Moduli (GPa) = 60.66633 15.06203 60.94034
#
# Poissons Ratio (x) = -0.10577 0.50196
# Poissons Ratio (y) = -0.42601 1.05291
# Poissons Ratio (z) = 0.49970 0.26024
#
# Static dielectric constant tensor:
#      x y z
#    x 1.675860 0.000000 0.000000 
#    y 0.000000 1.734870 0.000000 
#    z 0.000000 0.000000 1.725820 
# 
# From -- ./inp_files/13156.got.cif
#   From: 2010.05.17/outbox.ucp.g08.bks.cvg/sg40_7_cif.got.tgz:13156.got - 2010.06.11 16:26:39.
