data_PCOD9365651
_publ_section_title
;
Structure prediction by ZEFSAII (Michael W. Deem and Ramdas Pophale) SiO2 
 PCOD9365651
Probable space group: A M A 2
;
_chemical_formula_sum "Si O2"
_cell_formula_units_Z 32
_cell_length_a 9.000000
_cell_length_b 15.000000
_cell_length_c 24.000000
_cell_angle_alpha 90.000000
_cell_angle_beta 90.000000
_cell_angle_gamma 90.000000
_cell_volume 3240.000000
_symmetry_space_group_name_H-M "A M A 2"
_symmetry_group_IT_number 40
_symmetry_cell_setting 'orthorhombic'
loop_
_space_group_symop_operation_xyz
x,y,z
-x,-y,z
1/2-x,y,z
1/2+x,-y,z
x,1/2+y,1/2+z
-x,1/2-y,1/2+z
1/2-x,1/2+y,1/2+z
1/2+x,1/2-y,1/2+z
loop_
_atom_site_type_symbol
_atom_site_label
_atom_site_fract_x
_atom_site_fract_y
_atom_site_fract_z
Si Si1 0.572428 0.597270 0.970910
Si Si2 0.574933 0.405808 0.078823
Si Si3 0.075898 0.328084 0.180987
Si Si4 0.430244 0.594677 0.520772
Si Si5 0.426403 0.221416 0.915398
Si Si6 0.926602 0.228357 0.801199
Si Si7 0.575195 0.651569 0.638285
Si Si8 0.078871 0.910784 0.261772
O O1 0.500000 0.500000 0.958416
O O2 0.750000 0.585947 0.977696
O O3 0.543435 0.673232 0.925229
O O4 0.505338 0.643210 0.027478
O O5 0.500000 0.500000 0.069095
O O6 0.750000 0.404028 0.071413
O O7 0.529474 0.384089 0.141271
O O8 0.250000 0.347355 0.171266
O O9 0.043373 0.332103 0.246509
O O10 0.033539 0.230277 0.158416
O O11 0.500000 0.500000 0.503600
O O12 0.250000 0.590375 0.528179
O O13 0.462421 0.664989 0.471098
O O14 0.509055 0.616881 0.580119
O O15 0.250000 0.211650 0.906747
O O16 0.510298 0.193431 0.859347
O O17 0.750000 0.239490 0.804625
O O18 0.000053 0.322997 0.785346
O O19 0.750000 0.679250 0.630158
O O20 0.576119 0.590613 0.693718
O O21 0.250000 0.908764 0.278932
O O22 0.000000 0.000000 0.281508
#
# Coordination Sequence:
#
# PCOD9365651 Si02
#       8
#     8   8   8   8   8   8   8   8
#     4  10  20  36  58  86 118 152 187 229 281 340
#     4  11  21  34  55  83 113 145 180 225 278 335
#     4  10  20  36  56  81 112 145 182 227 278 334
#     4  11  23  39  59  84 114 151 192 239 289 339
#     4  10  23  41  59  79 111 153 193 235 285 335
#     4  10  22  38  58  80 105 141 186 232 277 327
#     4  10  20  34  56  86 115 147 183 224 276 336
#     4  10  20  34  54  81 115 148 181 221 270 328
#
# _framework density 9.8765429999999999
#
# number of rings (size 3 to 8) (size 9 to 14) (size 15 to 20)
#    0.000    1.750    0.000    5.250    0.000    7.500 
#    0.000    1.875    0.000    1.500    0.000    0.000 
#    0.000    0.000    0.000    0.000    0.000    0.000 
#
# Total GULP energy -178402.284615 kJ/mol
# GULP energy per Si atom -5575.071394 kJ/mol
# Density = 0.985406 g / cm^3
# Si number density = 9.876543 Si / 1000 Ang^3
#
#
#
# Elastic Constant Matrix: (Units=GPa)
#
#
# Indices 1 2 3 4 5 6 
#
# 1 77.0631 7.4544 39.7145 0.0000 0.0000 0.0000
# 2 7.4544 31.6967 16.0035 0.0000 0.0000 0.0000
# 3 39.7145 16.0035 94.2990 0.0000 0.0000 0.0000
# 4 0.0000 0.0000 0.0000 7.1097 0.0000 0.0000
# 5 0.0000 0.0000 0.0000 0.0000 36.2601 0.0000
# 6 0.0000 0.0000 0.0000 0.0000 0.0000 24.7216
#
#
#
# Elastic Compliance Matrix: (Units=1/GPa)
#
#
# Indices 1 2 3 4 5 6 
#
# 1 0.016578 -0.000409 -0.006913 0.000000 0.000000 0.000000
# 2 -0.000409 0.034516 -0.005686 0.000000 0.000000 0.000000
# 3 -0.006913 -0.005686 0.014481 0.000000 0.000000 0.000000
# 4 0.000000 0.000000 0.000000 0.140652 0.000000 0.000000
# 5 0.000000 0.000000 0.000000 0.000000 0.027579 0.000000
# 6 0.000000 0.000000 0.000000 0.000000 0.000000 0.040450
#
#
# Mechanical properties :
#
#
# Convention : Reuss Voigt Hill
#
# Bulk Modulus (GPa) = 25.27740 36.60040 30.93890
# Shear Modulus (GPa) = 15.95114 22.94405 19.44759
#
# Velocity S-wave (km/s) = 2.84478 3.41184 3.14113
# Velocity P-wave (km/s) = 4.85951 5.83867 5.37145
#
# Compressibility (1/GPa) = 0.03956103
#
# Stress axis : x y z
#
# Youngs Moduli (GPa) = 60.31949 28.97227 69.05696
#
# Poissons Ratio (x) = 0.01184 0.47737
# Poissons Ratio (y) = 0.02465 0.39263
# Poissons Ratio (z) = 0.41697 0.16472
#
# Static dielectric constant tensor:
#      x y z
#    x 1.658130 0.000000 0.000000 
#    y 0.000000 1.770900 0.000000 
#    z 0.000000 0.000000 1.779440 
# 
# From -- ./inp_files/24310.got.cif
#   From: 2010.05.17/outbox.ucp.g08.bks.cvg/sg40_13_cif.got.tgz:24310.got - 2010.06.11 16:26:39.
