data_PCOD9365958
_publ_section_title
;
Structure prediction by ZEFSAII (Michael W. Deem and Ramdas Pophale) SiO2 
 PCOD9365958
Probable space group: A B A 2
;
_chemical_formula_sum "Si O2"
_cell_formula_units_Z 60
_cell_length_a 32.636996
_cell_length_b 14.084581
_cell_length_c 5.273279
_cell_angle_alpha 90.000000
_cell_angle_beta 90.000000
_cell_angle_gamma 90.000000
_cell_volume 2424.012526
_symmetry_space_group_name_H-M "A B A 2"
_symmetry_group_IT_number 41
_symmetry_cell_setting 'orthorhombic'
loop_
_space_group_symop_operation_xyz
x,y,z
-x,-y,z
1/2-x,y,1/2+z
1/2+x,-y,1/2+z
x,1/2+y,1/2+z
-x,1/2-y,1/2+z
1/2-x,1/2+y,z
1/2+x,1/2-y,z
loop_
_atom_site_type_symbol
_atom_site_label
_atom_site_fract_x
_atom_site_fract_y
_atom_site_fract_z
Si Si1 0.739238 0.822216 0.075350
Si Si2 0.602110 0.794754 0.507022
Si Si3 0.411365 0.978371 0.474202
Si Si4 0.726598 0.615829 0.556266
Si Si5 0.136472 0.464604 0.979851
Si Si6 0.500000 0.000000 0.651327
Si Si7 0.482428 0.210036 0.781304
Si Si8 0.146215 0.193547 0.505079
O O1 0.751854 0.878278 0.321712
O O2 0.768721 0.730663 0.061887
O O3 0.692852 0.787682 0.077860
O O4 0.596835 0.908478 0.480208
O O5 0.559728 0.763773 0.636958
O O6 0.616736 0.767233 0.226318
O O7 0.635507 0.773474 0.722958
O O8 0.391351 0.938311 0.220842
O O9 0.460269 0.968960 0.491189
O O10 0.388355 0.942218 0.724786
O O11 0.757493 0.586497 0.332367
O O12 0.681124 0.581254 0.496823
O O13 0.142114 0.578868 0.994184
O O14 0.513263 0.904776 0.801538
O O15 0.514119 0.248063 0.565046
#
# Coordination Sequence:
#
# PCOD9365958 Si02
#       8
#     8   8   8   8   8   4   8   8
#     4  10  21  36  52  76 107 144 188 236 300 367
#     4   9  19  37  59  85 121 154 197 262 311 377
#     4   9  20  37  62  90 120 163 203 256 332 391
#     4  10  21  37  53  74 111 152 186 244 307 359
#     4  10  20  36  58  87 117 153 210 260 309 385
#     4  10  24  46  72 100 144 182 224 288 346 410
#     4  11  24  43  67 101 137 177 227 274 338 408
#     4  10  19  35  59  82 109 154 201 248 312 375
#
# _framework density 24.752348999999999
#
# number of rings (size 3 to 8) (size 9 to 14) (size 15 to 20)
#    0.000    2.133    0.000    2.400    0.000    6.400 
#    0.000   16.000    0.000    0.000    0.000    0.000 
#    0.000    0.000    0.000    0.000    0.000    0.000 
#
# Total GULP energy -167837.262810 kJ/mol
# GULP energy per Si atom -5594.575427 kJ/mol
# Density = 2.469601 g / cm^3
# Si number density = 24.752349 Si / 1000 Ang^3
#
#
#
# Elastic Constant Matrix: (Units=GPa)
#
#
# Indices 1 2 3 4 5 6 
#
# 1 116.9180 1.4471 2.8243 0.0000 0.0000 0.0000
# 2 1.4471 121.8552 -1.3692 0.0000 0.0000 0.0000
# 3 2.8243 -1.3692 109.0113 0.0000 0.0000 0.0000
# 4 0.0000 0.0000 0.0000 -28.2668 0.0000 0.0000
# 5 0.0000 0.0000 0.0000 0.0000 28.7393 0.0000
# 6 0.0000 0.0000 0.0000 0.0000 0.0000 30.0359
#
#
#
# Elastic Compliance Matrix: (Units=1/GPa)
#
#
# Indices 1 2 3 4 5 6 
#
# 1 0.008560 -0.000104 -0.000223 0.000000 0.000000 0.000000
# 2 -0.000104 0.008209 0.000106 0.000000 0.000000 0.000000
# 3 -0.000223 0.000106 0.009180 0.000000 0.000000 0.000000
# 4 0.000000 0.000000 0.000000 -0.035377 0.000000 0.000000
# 5 0.000000 0.000000 0.000000 0.000000 0.034796 0.000000
# 6 0.000000 0.000000 0.000000 0.000000 0.000000 0.033293
#
#
# Mechanical properties :
#
#
# Convention : Reuss Voigt Hill
#
# Bulk Modulus (GPa) = 39.20617 39.28764 39.24691
# Shear Modulus (GPa) = 73.95816 29.09384 51.52600
#
# Velocity S-wave (km/s) = 5.47212 3.43213 4.56747
# Velocity P-wave (km/s) = 7.46989 5.62252 6.61105
#
# Compressibility (1/GPa) = 0.02550619
#
# Stress axis : x y z
#
# Youngs Moduli (GPa) = 116.82675 121.81915 108.92693
#
# Poissons Ratio (x) = 0.01269 0.02430
# Poissons Ratio (y) = 0.01217 -0.01152
# Poissons Ratio (z) = 0.02606 -0.01289
#
# Static dielectric constant tensor:
#      x y z
#    x 1.940930 0.000000 0.000000 
#    y 0.000000 1.966510 0.000000 
#    z 0.000000 0.000000 2.003820 
# 
# From -- ./inp_files/1181.got.cif
#   From: 2010.05.17/outbox.cif.g08.bks.cpg/sg41_1_cif.got.tgz:1181.got - 2010.06.03 18:54:24.
