data_PCOD9365342
_publ_section_title
;
Structure prediction by ZEFSAII (Michael W. Deem and Ramdas Pophale) SiO2 
 PCOD9365342
Probable space group: A M A 2
;
_chemical_formula_sum "Si O2"
_cell_formula_units_Z 40
_cell_length_a 14.883169
_cell_length_b 8.956345
_cell_length_c 12.139568
_cell_angle_alpha 90.000000
_cell_angle_beta 90.000000
_cell_angle_gamma 90.000000
_cell_volume 1618.189801
_symmetry_space_group_name_H-M "A M A 2"
_symmetry_group_IT_number 40
_symmetry_cell_setting 'orthorhombic'
loop_
_space_group_symop_operation_xyz
x,y,z
-x,-y,z
1/2-x,y,z
1/2+x,-y,z
x,1/2+y,1/2+z
-x,1/2-y,1/2+z
1/2-x,1/2+y,1/2+z
1/2+x,1/2-y,1/2+z
loop_
_atom_site_type_symbol
_atom_site_label
_atom_site_fract_x
_atom_site_fract_y
_atom_site_fract_z
Si Si1 0.250000 0.868875 0.849670
Si Si2 0.750000 0.698969 0.584938
Si Si3 0.500000 0.000000 0.617184
Si Si4 0.250000 0.711554 0.316504
Si Si5 0.903527 0.457384 0.605581
Si Si6 0.056429 0.758258 0.785060
Si Si7 0.406017 0.315208 0.953469
O O1 0.152992 0.837996 0.796101
O O2 0.250000 0.046905 0.869605
O O3 0.250000 0.761942 0.957170
O O4 0.750000 0.812709 0.685228
O O5 0.836097 0.592356 0.599489
O O6 0.502909 0.858070 0.699238
O O7 0.420486 0.958573 0.531362
O O8 0.334460 0.808516 0.356382
O O9 0.921319 0.398201 0.727955
O O10 0.873306 0.313944 0.536708
O O11 0.000000 0.500000 0.557618
O O12 0.000148 0.731182 0.895614
#
# Coordination Sequence:
#
# PCOD9365342 Si02
#       7
#     4   4   4   4   8   8   8
#     4  12  25  46  71 104 147 192 245 298 363 437
#     4  12  25  43  69 105 135 185 241 287 353 440
#     4  10  26  44  68 106 142 180 252 292 360 434
#     4  12  26  43  76 101 146 195 240 301 370 429
#     4  11  23  43  70 101 138 184 242 288 355 435
#     4  11  25  43  71 103 144 190 235 302 364 422
#     4  11  24  46  71 106 144 192 235 306 362 426
#
# _framework density 24.718979000000001
#
# number of rings (size 3 to 8) (size 9 to 14) (size 15 to 20)
#    0.000    0.800    2.000    4.200    5.600    7.200 
#    0.000    1.000    0.000    0.000    0.000    0.000 
#    0.000    0.000    0.000    0.000    0.000    0.000 
#
# Total GULP energy -111810.617983 kJ/mol
# GULP energy per Si atom -5590.530899 kJ/mol
# Density = 2.466272 g / cm^3
# Si number density = 24.718979 Si / 1000 Ang^3
#
#
#
# Elastic Constant Matrix: (Units=GPa)
#
#
# Indices 1 2 3 4 5 6 
#
# 1 124.6430 30.0635 18.4207 0.0000 0.0000 0.0000
# 2 30.0635 35.1054 13.8179 0.0000 0.0000 0.0000
# 3 18.4207 13.8179 110.0871 0.0000 0.0000 0.0000
# 4 0.0000 0.0000 0.0000 46.2185 0.0000 0.0000
# 5 0.0000 0.0000 0.0000 0.0000 31.7743 0.0000
# 6 0.0000 0.0000 0.0000 0.0000 0.0000 28.8488
#
#
#
# Elastic Compliance Matrix: (Units=1/GPa)
#
#
# Indices 1 2 3 4 5 6 
#
# 1 0.010154 -0.008444 -0.000639 0.000000 0.000000 0.000000
# 2 -0.008444 0.036988 -0.003230 0.000000 0.000000 0.000000
# 3 -0.000639 -0.003230 0.009596 0.000000 0.000000 0.000000
# 4 0.000000 0.000000 0.000000 0.021636 0.000000 0.000000
# 5 0.000000 0.000000 0.000000 0.000000 0.031472 0.000000
# 6 0.000000 0.000000 0.000000 0.000000 0.000000 0.034663
#
#
# Mechanical properties :
#
#
# Convention : Reuss Voigt Hill
#
# Bulk Modulus (GPa) = 31.14073 43.82663 37.48368
# Shear Modulus (GPa) = 27.80242 35.20388 31.50315
#
# Velocity S-wave (km/s) = 3.35735 3.77790 3.57382
# Velocity P-wave (km/s) = 5.25874 6.06618 5.67683
#
# Compressibility (1/GPa) = 0.03211228
#
# Stress axis : x y z
#
# Youngs Moduli (GPa) = 98.48266 27.03560 104.20942
#
# Poissons Ratio (x) = 0.22829 0.06661
# Poissons Ratio (y) = 0.83160 0.33657
# Poissons Ratio (z) = 0.06295 0.08732
#
# Static dielectric constant tensor:
#      x y z
#    x 1.976300 0.000000 0.000000 
#    y 0.000000 1.939510 0.000000 
#    z 0.000000 0.000000 1.979970 
# 
# From -- ./inp_files/12756.got.cif
#   From: 2010.05.17/outbox.cif.g08.bks.cpg/sg40_7_cif.got.tgz:12756.got - 2010.06.03 18:35:42.
