data_PCOD9365452
_publ_section_title
;
Structure prediction by ZEFSAII (Michael W. Deem and Ramdas Pophale) SiO2 
 PCOD9365452
Probable space group: A M A 2
;
_chemical_formula_sum "Si O2"
_cell_formula_units_Z 48
_cell_length_a 21.452255
_cell_length_b 12.839867
_cell_length_c 9.001228
_cell_angle_alpha 90.000000
_cell_angle_beta 90.000000
_cell_angle_gamma 90.000000
_cell_volume 2479.335155
_symmetry_space_group_name_H-M "A M A 2"
_symmetry_group_IT_number 40
_symmetry_cell_setting 'orthorhombic'
loop_
_space_group_symop_operation_xyz
x,y,z
-x,-y,z
1/2-x,y,z
1/2+x,-y,z
x,1/2+y,1/2+z
-x,1/2-y,1/2+z
1/2-x,1/2+y,1/2+z
1/2+x,1/2-y,1/2+z
loop_
_atom_site_type_symbol
_atom_site_label
_atom_site_fract_x
_atom_site_fract_y
_atom_site_fract_z
Si Si1 0.824070 0.128767 0.112100
Si Si2 0.174869 0.124932 0.621663
Si Si3 0.891956 0.477269 0.843113
Si Si4 0.511483 0.146300 0.290584
Si Si5 0.604373 0.012911 0.865820
Si Si6 0.997393 0.859380 0.948659
O O1 0.750000 0.127050 0.119876
O O2 0.841679 0.251377 0.132606
O O3 0.850410 0.044136 0.229041
O O4 0.847286 0.083091 0.955589
O O5 0.250000 0.116300 0.635461
O O6 0.150866 0.073517 0.468694
O O7 0.138986 0.055837 0.744215
O O8 0.938662 0.385209 0.792813
O O9 0.944730 0.564476 0.876897
O O10 0.521007 0.251974 0.376904
O O11 0.527001 0.147994 0.113762
O O12 0.547337 0.091766 0.832260
O O13 0.563446 0.931560 0.962617
#
# Coordination Sequence:
#
# PCOD9365452 Si02
#       6
#     8   8   8   8   8   8
#     4  11  22  43  67  89 127 175 215 268 316 372
#     4  11  26  43  65  97 127 171 223 260 316 382
#     4  11  22  42  63  92 132 165 211 266 320 380
#     4  11  23  39  66  99 131 165 213 265 325 389
#     4  11  22  42  63  92 132 165 211 266 320 380
#     4  11  23  39  66  99 131 165 213 265 325 389
#
# _framework density 19.360029000000001
#
# number of rings (size 3 to 8) (size 9 to 14) (size 15 to 20)
#    0.000    1.000    3.333    4.000    4.667    1.333 
#    0.000    0.000    0.000    8.000    0.000    0.000 
#    0.000    0.000    0.000    0.000    0.000    0.000 
#
# Total GULP energy -133636.672051 kJ/mol
# GULP energy per Si atom -5568.194669 kJ/mol
# Density = 1.931596 g / cm^3
# Si number density = 19.360029 Si / 1000 Ang^3
#
#
#
# Elastic Constant Matrix: (Units=GPa)
#
#
# Indices 1 2 3 4 5 6 
#
# 1 90.7519 16.1409 14.3638 0.0000 0.0000 0.0000
# 2 16.1409 78.8989 12.1983 0.0000 0.0000 0.0000
# 3 14.3638 12.1983 38.0772 0.0000 0.0000 0.0000
# 4 0.0000 0.0000 0.0000 33.4168 0.0000 0.0000
# 5 0.0000 0.0000 0.0000 0.0000 32.7732 0.0000
# 6 0.0000 0.0000 0.0000 0.0000 0.0000 40.0856
#
#
#
# Elastic Compliance Matrix: (Units=1/GPa)
#
#
# Indices 1 2 3 4 5 6 
#
# 1 0.011968 -0.001842 -0.003925 0.000000 0.000000 0.000000
# 2 -0.001842 0.013618 -0.003668 0.000000 0.000000 0.000000
# 3 -0.003925 -0.003668 0.028918 0.000000 0.000000 0.000000
# 4 0.000000 0.000000 0.000000 0.029925 0.000000 0.000000
# 5 0.000000 0.000000 0.000000 0.000000 0.030513 0.000000
# 6 0.000000 0.000000 0.000000 0.000000 0.000000 0.024947
#
#
# Mechanical properties :
#
#
# Convention : Reuss Voigt Hill
#
# Bulk Modulus (GPa) = 28.06183 32.57045 30.31614
# Shear Modulus (GPa) = 29.30224 32.25679 30.77952
#
# Velocity S-wave (km/s) = 3.89465 4.08628 3.99162
# Velocity P-wave (km/s) = 5.89496 6.25489 6.07759
#
# Compressibility (1/GPa) = 0.03563560
#
# Stress axis : x y z
#
# Youngs Moduli (GPa) = 83.55784 73.43064 34.58057
#
# Poissons Ratio (x) = 0.13523 0.13572
# Poissons Ratio (y) = 0.15388 0.12684
# Poissons Ratio (z) = 0.32793 0.26935
#
# Static dielectric constant tensor:
#      x y z
#    x 1.702220 0.000000 0.000000 
#    y 0.000000 1.757940 0.000000 
#    z 0.000000 0.000000 1.689360 
# 
# From -- ./inp_files/8736.got.cif
#   From: 2010.05.17/outbox.cif.g08.bks.cpg/sg40_5_cif.got.tgz:8736.got - 2010.06.03 18:35:42.
