data_PCOD9365539
_publ_section_title
;
Structure prediction by ZEFSAII (Michael W. Deem and Ramdas Pophale) SiO2 
 PCOD9365539
Probable space group: A M A 2
;
_chemical_formula_sum "Si O2"
_cell_formula_units_Z 40
_cell_length_a 18.697764
_cell_length_b 11.467352
_cell_length_c 8.532046
_cell_angle_alpha 90.000000
_cell_angle_beta 90.000000
_cell_angle_gamma 90.000000
_cell_volume 1829.388758
_symmetry_space_group_name_H-M "A M A 2"
_symmetry_group_IT_number 40
_symmetry_cell_setting 'orthorhombic'
loop_
_space_group_symop_operation_xyz
x,y,z
-x,-y,z
1/2-x,y,z
1/2+x,-y,z
x,1/2+y,1/2+z
-x,1/2-y,1/2+z
1/2-x,1/2+y,1/2+z
1/2+x,1/2-y,1/2+z
loop_
_atom_site_type_symbol
_atom_site_label
_atom_site_fract_x
_atom_site_fract_y
_atom_site_fract_z
Si Si1 0.972636 0.380743 0.262780
Si Si2 0.330266 0.500999 0.869818
Si Si3 0.172199 0.508012 0.247282
Si Si4 0.555802 0.674993 0.954054
Si Si5 0.834165 0.750980 0.207539
O O1 0.887869 0.397327 0.274235
O O2 0.989974 0.261625 0.348433
O O3 0.000000 0.500000 0.339288
O O4 0.004343 0.377901 0.087588
O O5 0.250000 0.464293 0.812387
O O6 0.397904 0.414997 0.848968
O O7 0.344196 0.630335 0.803827
O O8 0.324766 0.503215 0.058309
O O9 0.250000 0.537608 0.312042
O O10 0.153127 0.374301 0.294475
O O11 0.614252 0.744773 0.058495
O O12 0.750000 0.746416 0.163008
#
# Coordination Sequence:
#
# PCOD9365539 Si02
#       5
#     8   8   8   8   8
#     4  12  25  42  61  91 126 167 208 258 311 369
#     4   9  18  37  66  94 123 163 205 254 313 371
#     4   9  19  37  61  89 120 160 205 253 309 369
#     4  11  25  39  63  89 129 169 209 255 310 372
#     4   9  18  37  65  94 124 160 206 260 310 366
#
# _framework density 21.865224999999999
#
# number of rings (size 3 to 8) (size 9 to 14) (size 15 to 20)
#    0.000    2.000    4.000    1.800    2.800    3.200 
#    0.000    0.000    0.000    4.800    0.000    0.000 
#    0.000    0.000    0.000    0.000    0.000    0.000 
#
# Total GULP energy -111470.513939 kJ/mol
# GULP energy per Si atom -5573.525697 kJ/mol
# Density = 2.181546 g / cm^3
# Si number density = 21.865225 Si / 1000 Ang^3
#
#
#
# Elastic Constant Matrix: (Units=GPa)
#
#
# Indices 1 2 3 4 5 6 
#
# 1 100.8585 52.9442 19.6686 0.0000 0.0000 0.0000
# 2 52.9442 128.3248 52.0280 0.0000 0.0000 0.0000
# 3 19.6686 52.0280 25.8367 0.0000 0.0000 0.0000
# 4 0.0000 0.0000 0.0000 40.0687 0.0000 0.0000
# 5 0.0000 0.0000 0.0000 0.0000 14.9932 0.0000
# 6 0.0000 0.0000 0.0000 0.0000 0.0000 112.1896
#
#
#
# Elastic Compliance Matrix: (Units=1/GPa)
#
#
# Indices 1 2 3 4 5 6 
#
# 1 0.012766 -0.007228 0.004837 0.000000 0.000000 0.000000
# 2 -0.007228 0.046547 -0.088231 0.000000 0.000000 0.000000
# 3 0.004837 -0.088231 0.212694 0.000000 0.000000 0.000000
# 4 0.000000 0.000000 0.000000 0.024957 0.000000 0.000000
# 5 0.000000 0.000000 0.000000 0.000000 0.066697 0.000000
# 6 0.000000 0.000000 0.000000 0.000000 0.000000 0.008913
#
#
# Mechanical properties :
#
#
# Convention : Reuss Voigt Hill
#
# Bulk Modulus (GPa) = 11.01752 56.03350 33.52551
# Shear Modulus (GPa) = 8.56059 42.14224 25.35142
#
# Velocity S-wave (km/s) = 1.98082 4.39494 3.40875
# Velocity P-wave (km/s) = 3.20645 7.17192 5.55507
#
# Compressibility (1/GPa) = 0.09076456
#
# Stress axis : x y z
#
# Youngs Moduli (GPa) = 78.33377 21.48361 4.70159
#
# Poissons Ratio (x) = 0.15529 -0.02274
# Poissons Ratio (y) = 0.56622 0.41482
# Poissons Ratio (z) = -0.37894 1.89551
#
# Static dielectric constant tensor:
#      x y z
#    x 1.912420 0.000000 0.000000 
#    y 0.000000 1.835660 0.000000 
#    z 0.000000 0.000000 1.764390 
# 
# From -- ./inp_files/8092.got.cif
#   From: 2010.05.17/outbox.cif.g08.bks.cpg/sg40_5_cif.got.tgz:8092.got - 2010.06.03 18:35:42.
