data_PCOD9365920
_publ_section_title
;
Structure prediction by ZEFSAII (Michael W. Deem and Ramdas Pophale) SiO2 
 PCOD9365920
Probable space group: A B A 2
;
_chemical_formula_sum "Si O2"
_cell_formula_units_Z 48
_cell_length_a 17.025520
_cell_length_b 4.886565
_cell_length_c 25.525520
_cell_angle_alpha 90.000000
_cell_angle_beta 90.000000
_cell_angle_gamma 90.000000
_cell_volume 2123.629078
_symmetry_space_group_name_H-M "A B A 2"
_symmetry_group_IT_number 41
_symmetry_cell_setting 'orthorhombic'
loop_
_space_group_symop_operation_xyz
x,y,z
-x,-y,z
1/2-x,y,1/2+z
1/2+x,-y,1/2+z
x,1/2+y,1/2+z
-x,1/2-y,1/2+z
1/2-x,1/2+y,z
1/2+x,1/2-y,z
loop_
_atom_site_type_symbol
_atom_site_label
_atom_site_fract_x
_atom_site_fract_y
_atom_site_fract_z
Si Si1 0.083510 0.604559 0.101010
Si Si2 0.807054 0.196647 0.189940
Si Si3 0.804679 0.226323 0.537306
Si Si4 0.305900 0.216424 0.304785
Si Si5 0.080229 0.141157 0.482198
Si Si6 0.812768 0.004878 0.909809
O O1 0.130141 0.769248 0.144292
O O2 0.141929 0.354461 0.086211
O O3 0.000000 0.500000 0.120034
O O4 0.068309 0.738524 0.043133
O O5 0.732588 0.401052 0.186043
O O6 0.841953 0.283080 0.246771
O O7 0.771885 0.529771 0.537025
O O8 0.857641 0.107431 0.490475
O O9 0.272215 0.523757 0.307746
O O10 0.148541 0.592770 0.354289
O O11 0.117385 0.373237 0.446073
O O12 0.000000 0.000000 0.464009
O O13 0.750619 0.257159 0.914540
#
# Coordination Sequence:
#
# PCOD9365920 Si02
#       6
#     8   8   8   8   8   8
#     4   9  20  36  52  80 115 146 179 225 282 332
#     4  10  19  34  57  80 105 141 184 228 270 326
#     4  10  19  34  53  74 100 138 184 218 259 324
#     4   8  16  30  52  80 102 128 174 226 268 304
#     4   9  20  36  52  80 115 146 179 225 282 332
#     4  10  19  34  57  80 105 141 184 228 270 326
#
# _framework density 22.602815
#
# number of rings (size 3 to 8) (size 9 to 14) (size 15 to 20)
#    1.000    1.667    0.000    2.000    0.000    0.000 
#    0.000    8.333    0.000   12.000    0.000    0.000 
#    0.000    0.000    0.000    0.000    0.000    0.000 
#
# Total GULP energy -133653.095174 kJ/mol
# GULP energy per Si atom -5568.878966 kJ/mol
# Density = 2.255137 g / cm^3
# Si number density = 22.602815 Si / 1000 Ang^3
#
#
#
# Elastic Constant Matrix: (Units=GPa)
#
#
# Indices 1 2 3 4 5 6 
#
# 1 64.4944 3.1830 10.1652 0.0000 0.0000 0.0000
# 2 3.1830 91.9005 4.2046 0.0000 0.0000 0.0000
# 3 10.1652 4.2046 96.3902 0.0000 0.0000 0.0000
# 4 0.0000 0.0000 0.0000 26.3797 0.0000 0.0000
# 5 0.0000 0.0000 0.0000 0.0000 10.6116 0.0000
# 6 0.0000 0.0000 0.0000 0.0000 0.0000 7.5543
#
#
#
# Elastic Compliance Matrix: (Units=1/GPa)
#
#
# Indices 1 2 3 4 5 6 
#
# 1 0.015788 -0.000472 -0.001644 0.000000 0.000000 0.000000
# 2 -0.000472 0.010917 -0.000426 0.000000 0.000000 0.000000
# 3 -0.001644 -0.000426 0.010567 0.000000 0.000000 0.000000
# 4 0.000000 0.000000 0.000000 0.037908 0.000000 0.000000
# 5 0.000000 0.000000 0.000000 0.000000 0.094236 0.000000
# 6 0.000000 0.000000 0.000000 0.000000 0.000000 0.132375
#
#
# Mechanical properties :
#
#
# Convention : Reuss Voigt Hill
#
# Bulk Modulus (GPa) = 31.06893 31.98785 31.52839
# Shear Modulus (GPa) = 15.74287 24.59128 20.16707
#
# Velocity S-wave (km/s) = 2.64199 3.30202 2.99027
# Velocity P-wave (km/s) = 4.80440 5.35917 5.08935
#
# Compressibility (1/GPa) = 0.03218650
#
# Stress axis : x y z
#
# Youngs Moduli (GPa) = 63.34051 91.59880 94.63858
#
# Poissons Ratio (x) = 0.04320 0.15562
# Poissons Ratio (y) = 0.02987 0.04036
# Poissons Ratio (z) = 0.10416 0.03906
#
# Static dielectric constant tensor:
#      x y z
#    x 1.795720 0.000000 0.000000 
#    y 0.000000 1.895580 0.000000 
#    z 0.000000 0.000000 2.094480 
# 
# From -- ./inp_files/12725.got.cif
#   From: 2010.05.17/outbox.cif.g08.bks.cpg/sg41_7_cif.got.tgz:12725.got - 2010.06.03 18:54:24.
