data_PCOD9365641
_publ_section_title
;
Structure prediction by ZEFSAII (Michael W. Deem and Ramdas Pophale) SiO2 
 PCOD9365641
Probable space group: A M A 2
;
_chemical_formula_sum "Si O2"
_cell_formula_units_Z 32
_cell_length_a 24.000000
_cell_length_b 15.000000
_cell_length_c 9.000000
_cell_angle_alpha 90.000000
_cell_angle_beta 90.000000
_cell_angle_gamma 90.000000
_cell_volume 3240.000000
_symmetry_space_group_name_H-M "A M A 2"
_symmetry_group_IT_number 40
_symmetry_cell_setting 'orthorhombic'
loop_
_space_group_symop_operation_xyz
x,y,z
-x,-y,z
1/2-x,y,z
1/2+x,-y,z
x,1/2+y,1/2+z
-x,1/2-y,1/2+z
1/2-x,1/2+y,1/2+z
1/2+x,1/2-y,1/2+z
loop_
_atom_site_type_symbol
_atom_site_label
_atom_site_fract_x
_atom_site_fract_y
_atom_site_fract_z
Si Si1 0.623717 0.398108 0.564830
Si Si2 0.314414 0.937556 0.516165
Si Si3 0.089218 0.797214 0.571528
Si Si4 0.812189 0.518792 0.364262
Si Si5 0.545255 0.563142 0.598726
Si Si6 0.493144 0.598598 0.920007
Si Si7 0.860464 0.378991 0.883426
Si Si8 0.880553 0.688984 0.420240
O O1 0.591190 0.307308 0.530737
O O2 0.653467 0.434043 0.419028
O O3 0.591994 0.487145 0.622095
O O4 0.658297 0.370988 0.711263
O O5 0.250000 0.914287 0.474938
O O6 0.360205 0.857743 0.501314
O O7 0.314049 0.964242 0.689545
O O8 0.334568 0.029101 0.439772
O O9 0.030549 0.836105 0.517307
O O10 0.097913 0.804196 0.749627
O O11 0.750000 0.504918 0.415968
O O12 0.836511 0.609349 0.431312
O O13 0.500000 0.500000 0.515030
O O14 0.519692 0.593151 0.755123
O O15 0.568550 0.649514 0.516346
O O16 0.500000 0.500000 0.987079
O O17 0.427965 0.617057 0.900398
O O18 0.851332 0.282681 0.959549
#
# Coordination Sequence:
#
# PCOD9365641 Si02
#       8
#     8   8   8   8   8   8   8   8
#     4  10  20  36  57  82 110 142 190 224 272 335
#     4  10  21  39  58  78 109 142 180 232 283 328
#     4  10  21  37  55  85 111 145 187 228 277 329
#     4   9  20  40  58  76 107 144 180 233 284 323
#     4  10  19  36  52  77 114 155 177 224 273 319
#     4  11  20  35  57  77 121 153 179 227 273 329
#     4  11  21  37  56  86 112 148 188 222 280 330
#     4   9  22  35  55  83 112 142 190 228 267 335
#
# _framework density 9.8765429999999999
#
# number of rings (size 3 to 8) (size 9 to 14) (size 15 to 20)
#    0.000    2.000    3.750    0.000    1.750    3.000 
#    2.250    2.500    0.000    0.000    0.000    0.000 
#    0.000    0.000    0.000    0.000    0.000    0.000 
#
# Total GULP energy -178148.132245 kJ/mol
# GULP energy per Si atom -5567.129133 kJ/mol
# Density = 0.985406 g / cm^3
# Si number density = 9.876543 Si / 1000 Ang^3
#
#
#
# Elastic Constant Matrix: (Units=GPa)
#
#
# Indices 1 2 3 4 5 6 
#
# 1 34.0302 -8.7641 7.8734 0.0000 0.0000 0.0000
# 2 -8.7641 94.8678 11.1353 0.0000 0.0000 0.0000
# 3 7.8734 11.1353 8.9392 0.0000 0.0000 0.0000
# 4 0.0000 0.0000 0.0000 20.2921 0.0000 0.0000
# 5 0.0000 0.0000 0.0000 0.0000 16.1273 0.0000
# 6 0.0000 0.0000 0.0000 0.0000 0.0000 14.5861
#
#
#
# Elastic Compliance Matrix: (Units=1/GPa)
#
#
# Indices 1 2 3 4 5 6 
#
# 1 0.043788 0.010040 -0.051074 0.000000 0.000000 0.000000
# 2 0.010040 0.014648 -0.027090 0.000000 0.000000 0.000000
# 3 -0.051074 -0.027090 0.190598 0.000000 0.000000 0.000000
# 4 0.000000 0.000000 0.000000 0.049280 0.000000 0.000000
# 5 0.000000 0.000000 0.000000 0.000000 0.062007 0.000000
# 6 0.000000 0.000000 0.000000 0.000000 0.000000 0.068558
#
#
# Mechanical properties :
#
#
# Convention : Reuss Voigt Hill
#
# Bulk Modulus (GPa) = 8.86640 17.59183 13.22911
# Shear Modulus (GPa) = 8.29568 18.70726 13.50147
#
# Velocity S-wave (km/s) = 2.05154 3.08076 2.61724
# Velocity P-wave (km/s) = 3.17964 4.64543 3.98058
#
# Compressibility (1/GPa) = 0.11278535
#
# Stress axis : x y z
#
# Youngs Moduli (GPa) = 22.83716 68.26729 5.24666
#
# Poissons Ratio (x) = -0.68542 0.26797
# Poissons Ratio (y) = -0.22929 0.14213
# Poissons Ratio (z) = 1.16639 1.84938
#
# Static dielectric constant tensor:
#      x y z
#    x 1.778250 0.000000 0.000000 
#    y 0.000000 22.781010 0.000000 
#    z 0.000000 0.000000 1.710960 
# 
# From -- ./inp_files/8916.got.cif
#   From: 2010.05.17/outbox.ucp.g08.bks.cvg/sg40_5_cif.got.tgz:8916.got - 2010.06.11 16:26:39.
