data_PCOD9365344
_publ_section_title
;
Structure prediction by ZEFSAII (Michael W. Deem and Ramdas Pophale) SiO2 
 PCOD9365344
Probable space group: A M A 2
;
_chemical_formula_sum "Si O2"
_cell_formula_units_Z 28
_cell_length_a 26.722446
_cell_length_b 4.786919
_cell_length_c 8.746846
_cell_angle_alpha 90.000000
_cell_angle_beta 90.000000
_cell_angle_gamma 90.000000
_cell_volume 1118.880660
_symmetry_space_group_name_H-M "A M A 2"
_symmetry_group_IT_number 40
_symmetry_cell_setting 'orthorhombic'
loop_
_space_group_symop_operation_xyz
x,y,z
-x,-y,z
1/2-x,y,z
1/2+x,-y,z
x,1/2+y,1/2+z
-x,1/2-y,1/2+z
1/2-x,1/2+y,1/2+z
1/2+x,1/2-y,1/2+z
loop_
_atom_site_type_symbol
_atom_site_label
_atom_site_fract_x
_atom_site_fract_y
_atom_site_fract_z
Si Si1 0.250000 0.249409 0.476250
Si Si2 0.172574 0.481177 0.221685
Si Si3 0.034469 0.235665 0.425274
Si Si4 0.103785 0.465883 0.680865
O O1 0.206716 0.378299 0.361032
O O2 0.206916 0.116070 0.590304
O O3 0.142757 0.215722 0.157461
O O4 0.133238 0.719947 0.267556
O O5 0.080001 0.331903 0.531033
O O6 0.058435 0.089591 0.278657
O O7 0.000000 0.500000 0.390283
O O8 0.000000 0.000000 0.503453
#
# Coordination Sequence:
#
# PCOD9365344 Si02
#       4
#     4   8   8   8
#     4  10  26  48  76 110 152 200 252 314 378 452
#     4  11  26  48  77 110 152 198 255 312 380 449
#     4  12  27  50  78 113 154 201 254 314 381 454
#     4  12  27  49  78 112 152 200 254 315 379 454
#
# _framework density 25.025009000000001
#
# number of rings (size 3 to 8) (size 9 to 14) (size 15 to 20)
#    0.000    0.571    0.000    6.000    0.000   16.000 
#    0.000    0.000    0.000    0.000    0.000    0.000 
#    0.000    0.000    0.000    0.000    0.000    0.000 
#
# Total GULP energy -78100.193726 kJ/mol
# GULP energy per Si atom -5578.585266 kJ/mol
# Density = 2.496805 g / cm^3
# Si number density = 25.025009 Si / 1000 Ang^3
#
#
#
# Elastic Constant Matrix: (Units=GPa)
#
#
# Indices 1 2 3 4 5 6 
#
# 1 131.9818 68.2969 31.4245 0.0000 0.0000 0.0000
# 2 68.2969 162.2401 52.3298 0.0000 0.0000 0.0000
# 3 31.4245 52.3298 112.1076 0.0000 0.0000 0.0000
# 4 0.0000 0.0000 0.0000 36.3774 0.0000 0.0000
# 5 0.0000 0.0000 0.0000 0.0000 19.8019 0.0000
# 6 0.0000 0.0000 0.0000 0.0000 0.0000 -334.4332
#
#
#
# Elastic Compliance Matrix: (Units=1/GPa)
#
#
# Indices 1 2 3 4 5 6 
#
# 1 0.009775 -0.003804 -0.000964 0.000000 0.000000 0.000000
# 2 -0.003804 0.008736 -0.003012 0.000000 0.000000 0.000000
# 3 -0.000964 -0.003012 0.010596 0.000000 0.000000 0.000000
# 4 0.000000 0.000000 0.000000 0.027490 0.000000 0.000000
# 5 0.000000 0.000000 0.000000 0.000000 0.050500 0.000000
# 6 0.000000 0.000000 0.000000 0.000000 0.000000 -0.002990
#
#
# Mechanical properties :
#
#
# Convention : Reuss Voigt Hill
#
# Bulk Modulus (GPa) = 73.81455 78.93687 76.37571
# Shear Modulus (GPa) = 40.26326 -38.69891 0.78218
#
# Velocity S-wave (km/s) = 4.01549 -3.93671 0.55967
# Velocity P-wave (km/s) = 7.14557 3.30879 5.56809
#
# Compressibility (1/GPa) = 0.01354746
#
# Stress axis : x y z
#
# Youngs Moduli (GPa) = 102.30435 114.46408 94.37372
#
# Poissons Ratio (x) = 0.43539 0.09102
# Poissons Ratio (y) = 0.38914 0.28423
# Poissons Ratio (z) = 0.09866 0.34474
#
# Static dielectric constant tensor:
#      x y z
#    x 1.932090 0.000000 0.000000 
#    y 0.000000 1.982810 0.000000 
#    z 0.000000 0.000000 1.950070 
# 
# From -- ./inp_files/9003.got.cif
#   From: 2010.05.17/outbox.cif.g08.bks.cpg/sg40_5_cif.got.tgz:9003.got - 2010.06.03 18:35:42.
