data_PCOD9365440
_publ_section_title
;
Structure prediction by ZEFSAII (Michael W. Deem and Ramdas Pophale) SiO2 
 PCOD9365440
Probable space group: A M A 2
;
_chemical_formula_sum "Si O2"
_cell_formula_units_Z 52
_cell_length_a 20.090065
_cell_length_b 13.095862
_cell_length_c 9.965697
_cell_angle_alpha 90.000000
_cell_angle_beta 90.000000
_cell_angle_gamma 90.000000
_cell_volume 2621.942181
_symmetry_space_group_name_H-M "A M A 2"
_symmetry_group_IT_number 40
_symmetry_cell_setting 'orthorhombic'
loop_
_space_group_symop_operation_xyz
x,y,z
-x,-y,z
1/2-x,y,z
1/2+x,-y,z
x,1/2+y,1/2+z
-x,1/2-y,1/2+z
1/2-x,1/2+y,1/2+z
1/2+x,1/2-y,1/2+z
loop_
_atom_site_type_symbol
_atom_site_label
_atom_site_fract_x
_atom_site_fract_y
_atom_site_fract_z
Si Si1 0.250000 0.611837 0.789270
Si Si2 0.884245 0.599699 0.103047
Si Si3 0.046722 0.405412 0.387884
Si Si4 0.516977 0.182108 0.377019
Si Si5 0.250000 0.780522 0.579732
Si Si6 0.750000 0.634023 0.780466
Si Si7 0.385691 0.317353 0.631545
Si Si8 0.378466 0.115651 0.464380
O O1 0.250000 0.667475 0.644504
O O2 0.250000 0.488830 0.792861
O O3 0.316719 0.643831 0.869268
O O4 0.920523 0.579581 0.242971
O O5 0.817643 0.664366 0.127158
O O6 0.866259 0.493689 0.030614
O O7 0.934991 0.656191 0.001766
O O8 0.101208 0.388190 0.503156
O O9 0.000000 0.500000 0.419963
O O10 0.005136 0.300100 0.383970
O O11 0.556870 0.164450 0.240519
O O12 0.448984 0.117076 0.386946
O O13 0.250000 0.802890 0.419990
O O14 0.684067 0.662570 0.700681
O O15 0.386982 0.201565 0.577908
#
# Coordination Sequence:
#
# PCOD9365440 Si02
#       8
#     4   8   8   8   4   4   8   8
#     4  12  25  45  68 101 131 182 230 281 344 433
#     4  12  23  44  70  97 134 187 231 278 347 424
#     4  11  24  40  63 101 136 173 231 287 353 416
#     4  11  22  40  66  94 132 178 222 285 338 408
#     4  12  24  43  72  95 136 177 240 276 344 430
#     4  12  25  48  64 100 139 181 226 285 354 423
#     4  11  24  42  66  96 139 170 225 293 341 410
#     4  11  23  43  70  94 135 179 228 280 347 417
#
# _framework density 19.832626000000001
#
# number of rings (size 3 to 8) (size 9 to 14) (size 15 to 20)
#    0.000    0.615    3.077    6.462    0.000    4.308 
#    2.769    0.000    0.000    0.000    0.000    0.000 
#    0.000    0.000    0.000    0.000    0.000    0.000 
#
# Total GULP energy -145422.036271 kJ/mol
# GULP energy per Si atom -5593.155241 kJ/mol
# Density = 1.978749 g / cm^3
# Si number density = 19.832626 Si / 1000 Ang^3
#
#
#
# Elastic Constant Matrix: (Units=GPa)
#
#
# Indices 1 2 3 4 5 6 
#
# 1 113.9372 22.2655 39.9779 0.0000 0.0000 0.0000
# 2 22.2655 59.0135 46.7084 0.0000 0.0000 0.0000
# 3 39.9779 46.7084 110.4750 0.0000 0.0000 0.0000
# 4 0.0000 0.0000 0.0000 22.9010 0.0000 0.0000
# 5 0.0000 0.0000 0.0000 0.0000 41.7551 0.0000
# 6 0.0000 0.0000 0.0000 0.0000 0.0000 26.9276
#
#
#
# Elastic Compliance Matrix: (Units=1/GPa)
#
#
# Indices 1 2 3 4 5 6 
#
# 1 0.010128 -0.001383 -0.003080 0.000000 0.000000 0.000000
# 2 -0.001383 0.025657 -0.010347 0.000000 0.000000 0.000000
# 3 -0.003080 -0.010347 0.014541 0.000000 0.000000 0.000000
# 4 0.000000 0.000000 0.000000 0.043666 0.000000 0.000000
# 5 0.000000 0.000000 0.000000 0.000000 0.023949 0.000000
# 6 0.000000 0.000000 0.000000 0.000000 0.000000 0.037137
#
#
# Mechanical properties :
#
#
# Convention : Reuss Voigt Hill
#
# Bulk Modulus (GPa) = 48.29795 55.70325 52.00060
# Shear Modulus (GPa) = 26.09602 29.94833 28.02218
#
# Velocity S-wave (km/s) = 3.63135 3.89016 3.76298
# Velocity P-wave (km/s) = 6.47981 6.95165 6.71987
#
# Compressibility (1/GPa) = 0.02070481
#
# Stress axis : x y z
#
# Youngs Moduli (GPa) = 98.73776 38.97618 68.77053
#
# Poissons Ratio (x) = 0.05392 0.21182
# Poissons Ratio (y) = 0.13658 0.71157
# Poissons Ratio (z) = 0.30413 0.40329
#
# Static dielectric constant tensor:
#      x y z
#    x 1.649420 0.000000 0.000000 
#    y 0.000000 1.694440 0.000000 
#    z 0.000000 0.000000 1.688850 
# 
# From -- ./inp_files/8277.got.cif
#   From: 2010.05.17/outbox.cif.g08.bks.cpg/sg40_5_cif.got.tgz:8277.got - 2010.06.03 18:35:42.
