data_PCOD9365043
_publ_section_title
;
Structure prediction by ZEFSAII (Michael W. Deem and Ramdas Pophale) SiO2 
 PCOD9365043
Probable space group: A M A 2
;
_chemical_formula_sum "Si O2"
_cell_formula_units_Z 64
_cell_length_a 20.362953
_cell_length_b 5.201031
_cell_length_c 26.061481
_cell_angle_alpha 90.000000
_cell_angle_beta 90.000000
_cell_angle_gamma 90.000000
_cell_volume 2760.128446
_symmetry_space_group_name_H-M "A M A 2"
_symmetry_group_IT_number 40
_symmetry_cell_setting 'orthorhombic'
loop_
_space_group_symop_operation_xyz
x,y,z
-x,-y,z
1/2-x,y,z
1/2+x,-y,z
x,1/2+y,1/2+z
-x,1/2-y,1/2+z
1/2-x,1/2+y,1/2+z
1/2+x,1/2-y,1/2+z
loop_
_atom_site_type_symbol
_atom_site_label
_atom_site_fract_x
_atom_site_fract_y
_atom_site_fract_z
Si Si1 0.822706 0.634741 0.778280
Si Si2 0.178307 0.221009 0.179889
Si Si3 0.429384 0.113827 0.959588
Si Si4 0.587646 0.073521 0.553795
Si Si5 0.412354 0.426479 0.619588
Si Si6 0.678307 0.278991 0.993494
Si Si7 0.677294 0.634741 0.895103
Si Si8 0.570616 0.886173 0.713796
O O1 0.750000 0.763419 0.774239
O O2 0.821909 0.412295 0.735695
O O3 0.829360 0.544084 0.836692
O O4 0.884363 0.807236 0.761837
O O5 0.250000 0.335327 0.170458
O O6 0.119108 0.423942 0.181969
O O7 0.161904 0.002028 0.137599
O O8 0.380892 0.923942 0.991415
O O9 0.500000 0.000000 0.946526
O O10 0.384363 0.192764 0.911547
O O11 0.440649 0.351769 0.998193
O O12 0.570515 0.316858 0.588816
O O13 0.570515 0.816858 0.584567
O O14 0.661904 0.997972 0.535784
O O15 0.440649 0.351769 0.675191
O O16 0.750000 0.164673 0.002925
O O17 0.678091 0.412295 0.937688
O O18 0.750000 0.763419 0.899144
O O19 0.500000 0.000000 0.726858
#
# Coordination Sequence:
#
# PCOD9365043 Si02
#       8
#     8   8   8   8   8   8   8   8
#     4   9  20  40  66  96 131 175 227 285 347 409
#     4  10  22  42  65  93 131 174 226 286 344 409
#     4  11  24  41  65  99 139 181 227 281 341 415
#     4  11  23  44  65  97 131 177 225 275 332 397
#     4  11  23  44  65  97 131 177 225 275 332 397
#     4  10  22  42  65  93 131 174 226 286 344 409
#     4   9  20  40  66  96 131 175 227 285 347 409
#     4  11  24  41  65  99 139 181 227 281 341 415
#
# _framework density 23.187324
#
# number of rings (size 3 to 8) (size 9 to 14) (size 15 to 20)
#    0.000    1.750    2.500    0.750    0.000    8.500 
#    0.000    3.750    0.000    0.000    0.000    0.000 
#    0.000    0.000    0.000    0.000    0.000    0.000 
#
# Total GULP energy -178431.158244 kJ/mol
# GULP energy per Si atom -5575.973695 kJ/mol
# Density = 2.313455 g / cm^3
# Si number density = 23.187324 Si / 1000 Ang^3
#
#
#
# Elastic Constant Matrix: (Units=GPa)
#
#
# Indices 1 2 3 4 5 6 
#
# 1 198.3505 57.4599 44.7611 0.0000 0.0000 0.0000
# 2 57.4599 102.0616 31.5626 0.0000 0.0000 0.0000
# 3 44.7611 31.5626 102.9908 0.0000 0.0000 0.0000
# 4 0.0000 0.0000 0.0000 20.5163 0.0000 0.0000
# 5 0.0000 0.0000 0.0000 0.0000 -10.4362 0.0000
# 6 0.0000 0.0000 0.0000 0.0000 0.0000 39.1724
#
#
#
# Elastic Compliance Matrix: (Units=1/GPa)
#
#
# Indices 1 2 3 4 5 6 
#
# 1 0.006322 -0.002993 -0.001830 0.000000 0.000000 0.000000
# 2 -0.002993 0.012241 -0.002451 0.000000 0.000000 0.000000
# 3 -0.001830 -0.002451 0.011256 0.000000 0.000000 0.000000
# 4 0.000000 0.000000 0.000000 0.048742 0.000000 0.000000
# 5 0.000000 0.000000 0.000000 0.000000 -0.095820 0.000000
# 6 0.000000 0.000000 0.000000 0.000000 0.000000 0.025528
#
#
# Mechanical properties :
#
#
# Convention : Reuss Voigt Hill
#
# Bulk Modulus (GPa) = 65.48369 74.55224 70.01797
# Shear Modulus (GPa) = 179.17070 27.82511 103.49790
#
# Velocity S-wave (km/s) = 8.79993 3.46788 6.68823
# Velocity P-wave (km/s) = 11.46970 6.94672 9.48185
#
# Compressibility (1/GPa) = 0.01527098
#
# Stress axis : x y z
#
# Youngs Moduli (GPa) = 158.18651 81.69341 88.84120
#
# Poissons Ratio (x) = 0.24451 0.16260
# Poissons Ratio (y) = 0.47346 0.21771
# Poissons Ratio (z) = 0.28952 0.20019
#
# Static dielectric constant tensor:
#      x y z
#    x 1.954710 0.000000 0.000000 
#    y 0.000000 1.978380 0.000000 
#    z 0.000000 0.000000 1.844440 
# 
# From -- ./inp_files/25843.got.cif
#   From: 2010.05.17/outbox.cif.g08.bks.cpg/sg40_13_cif.got.tgz:25843.got - 2010.06.03 18:35:42.
