data_PCOD9365855
_publ_section_title
;
Structure prediction by ZEFSAII (Michael W. Deem and Ramdas Pophale) SiO2 
 PCOD9365855
Probable space group: A B A 2
;
_chemical_formula_sum "Si O2"
_cell_formula_units_Z 60
_cell_length_a 27.502679
_cell_length_b 18.811901
_cell_length_c 5.420006
_cell_angle_alpha 90.000000
_cell_angle_beta 90.000000
_cell_angle_gamma 90.000000
_cell_volume 2804.190101
_symmetry_space_group_name_H-M "A B A 2"
_symmetry_group_IT_number 41
_symmetry_cell_setting 'orthorhombic'
loop_
_space_group_symop_operation_xyz
x,y,z
-x,-y,z
1/2-x,y,1/2+z
1/2+x,-y,1/2+z
x,1/2+y,1/2+z
-x,1/2-y,1/2+z
1/2-x,1/2+y,z
1/2+x,1/2-y,z
loop_
_atom_site_type_symbol
_atom_site_label
_atom_site_fract_x
_atom_site_fract_y
_atom_site_fract_z
Si Si1 0.325313 0.708405 0.697080
Si Si2 0.402560 0.435702 0.059581
Si Si3 0.404640 0.215287 0.808690
Si Si4 0.585195 0.640984 0.571253
Si Si5 0.000000 0.000000 0.210810
Si Si6 0.382738 0.592778 0.946863
Si Si7 0.737613 0.210393 0.014689
Si Si8 0.529058 0.383705 0.572443
O O1 0.367290 0.737763 0.521310
O O2 0.341866 0.629907 0.774757
O O3 0.313883 0.757311 0.937211
O O4 0.274636 0.722540 0.554724
O O5 0.395648 0.393222 0.316549
O O6 0.460735 0.454384 0.062693
O O7 0.390181 0.391680 0.815186
O O8 0.376691 0.511920 0.028861
O O9 0.413253 0.274515 0.604585
O O10 0.384573 0.144410 0.680858
O O11 0.453193 0.189085 0.945080
O O12 0.528343 0.621811 0.602863
O O13 0.967104 0.949713 0.383585
O O14 0.434333 0.601341 0.799098
O O15 0.758178 0.171237 0.773456
#
# Coordination Sequence:
#
# PCOD9365855 Si02
#       8
#     8   8   8   8   4   8   8   8
#     4   9  20  35  62  91 127 145 197 246 318 362
#     4  11  23  41  57  81 116 162 207 248 296 356
#     4  11  24  37  58  91 123 157 202 261 303 354
#     4  11  27  39  57  82 124 168 208 247 307 349
#     4  10  18  40  56  80 106 160 216 254 288 338
#     4  11  21  37  61  89 119 153 209 253 301 352
#     4   8  16  34  56  91 120 148 178 240 309 369
#     4  10  22  35  59  81 119 159 212 256 301 348
#
# _framework density 21.396553000000001
#
# number of rings (size 3 to 8) (size 9 to 14) (size 15 to 20)
#    0.800    1.067    1.333    3.200    9.333    0.533 
#    0.000    0.000    0.000    0.000    0.000    5.600 
#    0.000    0.000    0.000    0.000    0.000    0.000 
#
# Total GULP energy -167205.917753 kJ/mol
# GULP energy per Si atom -5573.530592 kJ/mol
# Density = 2.134785 g / cm^3
# Si number density = 21.396553 Si / 1000 Ang^3
#
#
#
# Elastic Constant Matrix: (Units=GPa)
#
#
# Indices 1 2 3 4 5 6 
#
# 1 19.7081 -4.7073 7.6335 0.0000 0.0000 0.0000
# 2 -4.7073 83.4150 29.1235 0.0000 0.0000 0.0000
# 3 7.6335 29.1235 124.3450 0.0000 0.0000 0.0000
# 4 0.0000 0.0000 0.0000 35.4851 0.0000 0.0000
# 5 0.0000 0.0000 0.0000 0.0000 22.3107 0.0000
# 6 0.0000 0.0000 0.0000 0.0000 0.0000 1.8390
#
#
#
# Elastic Compliance Matrix: (Units=1/GPa)
#
#
# Indices 1 2 3 4 5 6 
#
# 1 0.053508 0.004537 -0.004348 0.000000 0.000000 0.000000
# 2 0.004537 0.013441 -0.003427 0.000000 0.000000 0.000000
# 3 -0.004348 -0.003427 0.009112 0.000000 0.000000 0.000000
# 4 0.000000 0.000000 0.000000 0.028181 0.000000 0.000000
# 5 0.000000 0.000000 0.000000 0.000000 0.044822 0.000000
# 6 0.000000 0.000000 0.000000 0.000000 0.000000 0.543761
#
#
# Mechanical properties :
#
#
# Convention : Reuss Voigt Hill
#
# Bulk Modulus (GPa) = 14.37046 32.39638 23.38342
# Shear Modulus (GPa) = 6.92048 24.95487 15.93768
#
# Velocity S-wave (km/s) = 1.80039 3.41882 2.73219
# Velocity P-wave (km/s) = 3.32456 5.54601 4.57225
#
# Compressibility (1/GPa) = 0.06958720
#
# Stress axis : x y z
#
# Youngs Moduli (GPa) = 18.68870 74.40111 109.75039
#
# Poissons Ratio (x) = -0.33759 0.47715
# Poissons Ratio (y) = -0.08480 0.37607
# Poissons Ratio (z) = 0.08125 0.25494
#
# Static dielectric constant tensor:
#      x y z
#    x 1.846050 0.000000 0.000000 
#    y 0.000000 1.782450 0.000000 
#    z 0.000000 0.000000 1.883900 
# 
# From -- ./inp_files/1438.got.cif
#   From: 2010.05.17/outbox.cif.g08.bks.cpg/sg41_1_cif.got.tgz:1438.got - 2010.06.03 18:54:24.
