data_PCOD9365081
_publ_section_title
;
Structure prediction by ZEFSAII (Michael W. Deem and Ramdas Pophale) SiO2 
 PCOD9365081
Probable space group: A M A 2
;
_chemical_formula_sum "Si O2"
_cell_formula_units_Z 44
_cell_length_a 24.105915
_cell_length_b 5.179860
_cell_length_c 13.810428
_cell_angle_alpha 90.000000
_cell_angle_beta 90.000000
_cell_angle_gamma 90.000000
_cell_volume 1724.442750
_symmetry_space_group_name_H-M "A M A 2"
_symmetry_group_IT_number 40
_symmetry_cell_setting 'orthorhombic'
loop_
_space_group_symop_operation_xyz
x,y,z
-x,-y,z
1/2-x,y,z
1/2+x,-y,z
x,1/2+y,1/2+z
-x,1/2-y,1/2+z
1/2-x,1/2+y,1/2+z
1/2+x,1/2-y,1/2+z
loop_
_atom_site_type_symbol
_atom_site_label
_atom_site_fract_x
_atom_site_fract_y
_atom_site_fract_z
Si Si1 0.142017 0.226209 0.509380
Si Si2 0.588231 0.722665 0.794455
Si Si3 0.812522 0.486562 0.687056
Si Si4 0.500000 0.000000 0.657080
Si Si5 0.572360 0.264559 0.505840
Si Si6 0.309879 0.417120 0.327172
O O1 0.181534 0.372797 0.584980
O O2 0.091827 0.437443 0.502300
O O3 0.172445 0.203728 0.405976
O O4 0.120349 0.942781 0.535781
O O5 0.624388 0.526313 0.730343
O O6 0.557998 0.667515 0.896370
O O7 0.546494 0.874157 0.725502
O O8 0.641026 0.884942 0.830790
O O9 0.750000 0.575599 0.723353
O O10 0.807568 0.188598 0.718071
O O11 0.526065 0.212148 0.585533
O O12 0.250000 0.511639 0.358160
#
# Coordination Sequence:
#
# PCOD9365081 Si02
#       6
#     8   8   8   4   8   8
#     4  11  23  46  69 104 147 188 240 301 366 442
#     4  11  24  47  71 103 143 196 247 307 373 446
#     4  11  22  40  70 105 141 189 237 297 369 446
#     4  12  26  50  74 108 150 208 250 330 372 448
#     4  11  26  47  73 103 144 191 250 302 366 443
#     4  10  22  42  71 107 145 189 239 306 378 452
#
# _framework density 25.515488999999999
#
# number of rings (size 3 to 8) (size 9 to 14) (size 15 to 20)
#    0.000    1.091    3.636    2.182    0.000    3.636 
#    6.545    1.818    0.000    0.000    0.000    0.000 
#    0.000    0.000    0.000    0.000    0.000    0.000 
#
# Total GULP energy -122574.956422 kJ/mol
# GULP energy per Si atom -5571.588928 kJ/mol
# Density = 2.545741 g / cm^3
# Si number density = 25.515489 Si / 1000 Ang^3
#
#
#
# Elastic Constant Matrix: (Units=GPa)
#
#
# Indices 1 2 3 4 5 6 
#
# 1 146.5375 23.9354 42.5745 0.0000 0.0000 0.0000
# 2 23.9354 52.2204 8.9195 0.0000 0.0000 0.0000
# 3 42.5745 8.9195 132.5107 0.0000 0.0000 0.0000
# 4 0.0000 0.0000 0.0000 37.3033 0.0000 0.0000
# 5 0.0000 0.0000 0.0000 0.0000 20.1270 0.0000
# 6 0.0000 0.0000 0.0000 0.0000 0.0000 -36.9992
#
#
#
# Elastic Compliance Matrix: (Units=1/GPa)
#
#
# Indices 1 2 3 4 5 6 
#
# 1 0.008048 -0.003285 -0.002365 0.000000 0.000000 0.000000
# 2 -0.003285 0.020713 -0.000339 0.000000 0.000000 0.000000
# 3 -0.002365 -0.000339 0.008329 0.000000 0.000000 0.000000
# 4 0.000000 0.000000 0.000000 0.026807 0.000000 0.000000
# 5 0.000000 0.000000 0.000000 0.000000 0.049685 0.000000
# 6 0.000000 0.000000 0.000000 0.000000 0.000000 -0.027028
#
#
# Mechanical properties :
#
#
# Convention : Reuss Voigt Hill
#
# Bulk Modulus (GPa) = 39.81933 53.56972 46.69453
# Shear Modulus (GPa) = 46.77193 21.14216 33.95705
#
# Velocity S-wave (km/s) = 4.28609 2.88167 3.65203
# Velocity P-wave (km/s) = 6.33514 5.66679 6.01026
#
# Compressibility (1/GPa) = 0.02511343
#
# Stress axis : x y z
#
# Youngs Moduli (GPa) = 124.25872 48.27869 120.06126
#
# Poissons Ratio (x) = 0.15859 0.28389
# Poissons Ratio (y) = 0.40817 0.04068
# Poissons Ratio (z) = 0.29382 0.01636
#
# Static dielectric constant tensor:
#      x y z
#    x 2.070230 0.000000 0.000000 
#    y 0.000000 2.089620 0.000000 
#    z 0.000000 0.000000 2.169100 
# 
# From -- ./inp_files/18618.got.cif
#   From: 2010.05.17/outbox.cif.g08.bks.cpg/sg40_10_cif.got.tgz:18618.got - 2010.06.03 18:35:42.
