data_PCOD9365446
_publ_section_title
;
Structure prediction by ZEFSAII (Michael W. Deem and Ramdas Pophale) SiO2 
 PCOD9365446
Probable space group: A M A 2
;
_chemical_formula_sum "Si O2"
_cell_formula_units_Z 40
_cell_length_a 14.247493
_cell_length_b 16.674065
_cell_length_c 7.746984
_cell_angle_alpha 90.000000
_cell_angle_beta 90.000000
_cell_angle_gamma 90.000000
_cell_volume 1840.401597
_symmetry_space_group_name_H-M "A M A 2"
_symmetry_group_IT_number 40
_symmetry_cell_setting 'orthorhombic'
loop_
_space_group_symop_operation_xyz
x,y,z
-x,-y,z
1/2-x,y,z
1/2+x,-y,z
x,1/2+y,1/2+z
-x,1/2-y,1/2+z
1/2-x,1/2+y,1/2+z
1/2+x,1/2-y,1/2+z
loop_
_atom_site_type_symbol
_atom_site_label
_atom_site_fract_x
_atom_site_fract_y
_atom_site_fract_z
Si Si1 0.968016 0.593600 0.612690
Si Si2 0.750000 0.722882 0.874939
Si Si3 0.250000 0.029366 0.878447
Si Si4 0.588949 0.346542 0.311022
Si Si5 0.962899 0.589983 0.014896
Si Si6 0.750000 0.087532 0.103189
Si Si7 0.750000 0.610396 0.129051
O O1 0.978729 0.612647 0.815281
O O2 0.859980 0.604978 0.558074
O O3 0.000000 0.500000 0.589637
O O4 0.030266 0.646848 0.486358
O O5 0.658596 0.771444 0.817036
O O6 0.750000 0.637002 0.783145
O O7 0.750000 0.705191 0.080819
O O8 0.250000 0.937619 0.809878
O O9 0.339962 0.077311 0.815517
O O10 0.250000 0.010542 0.083285
O O11 0.519971 0.354568 0.148580
O O12 0.852741 0.586928 0.058207
O O13 0.000000 0.500000 0.038612
#
# Coordination Sequence:
#
# PCOD9365446 Si02
#       7
#     8   4   4   8   8   4   4
#     4  11  22  40  73 103 130 175 230 280 327 398
#     4  11  28  46  62 101 150 168 222 291 330 400
#     4  11  22  42  74  93 134 176 232 277 328 396
#     4  11  24  46  68 101 133 181 225 277 337 400
#     4  11  22  40  73 103 130 175 230 280 327 398
#     4  12  22  44  64 100 138 174 223 280 335 395
#     4  12  22  44  64 100 138 174 223 280 335 395
#
# _framework density 21.734386000000001
#
# number of rings (size 3 to 8) (size 9 to 14) (size 15 to 20)
#    0.000    0.800    6.000    1.800    0.000    1.600 
#    3.600    2.000    0.000    0.000    0.000    0.000 
#    0.000    0.000    0.000    0.000    0.000    0.000 
#
# Total GULP energy -111396.941149 kJ/mol
# GULP energy per Si atom -5569.847057 kJ/mol
# Density = 2.168492 g / cm^3
# Si number density = 21.734386 Si / 1000 Ang^3
#
#
#
# Elastic Constant Matrix: (Units=GPa)
#
#
# Indices 1 2 3 4 5 6 
#
# 1 204.5217 33.5320 69.1914 0.0000 0.0000 0.0000
# 2 33.5320 58.7393 28.6504 0.0000 0.0000 0.0000
# 3 69.1914 28.6504 83.1372 0.0000 0.0000 0.0000
# 4 0.0000 0.0000 0.0000 25.9344 0.0000 0.0000
# 5 0.0000 0.0000 0.0000 0.0000 22.5266 0.0000
# 6 0.0000 0.0000 0.0000 0.0000 0.0000 27.5304
#
#
#
# Elastic Compliance Matrix: (Units=1/GPa)
#
#
# Indices 1 2 3 4 5 6 
#
# 1 0.006896 -0.001367 -0.005268 0.000000 0.000000 0.000000
# 2 -0.001367 0.020735 -0.006008 0.000000 0.000000 0.000000
# 3 -0.005268 -0.006008 0.018483 0.000000 0.000000 0.000000
# 4 0.000000 0.000000 0.000000 0.038559 0.000000 0.000000
# 5 0.000000 0.000000 0.000000 0.000000 0.044392 0.000000
# 6 0.000000 0.000000 0.000000 0.000000 0.000000 0.036324
#
#
# Mechanical properties :
#
#
# Convention : Reuss Voigt Hill
#
# Bulk Modulus (GPa) = 48.01204 67.68285 57.84745
# Shear Modulus (GPa) = 25.30149 29.53324 27.41737
#
# Velocity S-wave (km/s) = 3.41563 3.69022 3.55558
# Velocity P-wave (km/s) = 6.13952 7.02606 6.59770
#
# Compressibility (1/GPa) = 0.02082811
#
# Stress axis : x y z
#
# Youngs Moduli (GPa) = 145.01638 48.22722 54.10382
#
# Poissons Ratio (x) = 0.06593 0.28501
# Poissons Ratio (y) = 0.19825 0.32505
# Poissons Ratio (z) = 0.76394 0.28975
#
# Static dielectric constant tensor:
#      x y z
#    x 1.789940 0.000000 0.000000 
#    y 0.000000 1.834750 0.000000 
#    z 0.000000 0.000000 1.943810 
# 
# From -- ./inp_files/5167.got.cif
#   From: 2010.05.17/outbox.cif.g08.bks.cpg/sg40_3_cif.got.tgz:5167.got - 2010.06.03 18:35:42.
