data_PCOD9365274
_publ_section_title
;
Structure prediction by ZEFSAII (Michael W. Deem and Ramdas Pophale) SiO2 
 PCOD9365274
Probable space group: A M A 2
;
_chemical_formula_sum "Si O2"
_cell_formula_units_Z 52
_cell_length_a 9.130689
_cell_length_b 21.425906
_cell_length_c 14.171819
_cell_angle_alpha 90.000000
_cell_angle_beta 90.000000
_cell_angle_gamma 90.000000
_cell_volume 2772.479494
_symmetry_space_group_name_H-M "A M A 2"
_symmetry_group_IT_number 40
_symmetry_cell_setting 'orthorhombic'
loop_
_space_group_symop_operation_xyz
x,y,z
-x,-y,z
1/2-x,y,z
1/2+x,-y,z
x,1/2+y,1/2+z
-x,1/2-y,1/2+z
1/2-x,1/2+y,1/2+z
1/2+x,1/2-y,1/2+z
loop_
_atom_site_type_symbol
_atom_site_label
_atom_site_fract_x
_atom_site_fract_y
_atom_site_fract_z
Si Si1 0.076495 0.821393 0.230480
Si Si2 0.750000 0.485321 0.180909
Si Si3 0.423589 0.433615 0.590027
Si Si4 0.079104 0.785979 0.610142
Si Si5 0.926588 0.774751 0.415674
Si Si6 0.991491 0.089423 0.717068
Si Si7 0.923224 0.360932 0.418095
O O1 0.250000 0.808140 0.243779
O O2 0.062409 0.888375 0.180479
O O3 0.005589 0.770836 0.159856
O O4 0.989590 0.813642 0.327794
O O5 0.872593 0.535923 0.216075
O O6 0.622564 0.435118 0.153012
O O7 0.500000 0.500000 0.604728
O O8 0.250000 0.440842 0.569668
O O9 0.503171 0.398968 0.503112
O O10 0.250000 0.770332 0.594051
O O11 0.069967 0.845860 0.677481
O O12 0.996395 0.799426 0.512575
O O13 0.750000 0.773493 0.416832
O O14 0.991548 0.704464 0.406972
O O15 0.057656 0.101106 0.820925
O O16 0.750000 0.350783 0.434600
#
# Coordination Sequence:
#
# PCOD9365274 Si02
#       7
#     8   4   8   8   8   8   8
#     4  11  24  44  67  96 131 170 220 274 327 388
#     4  10  24  42  60  90 130 176 214 258 322 398
#     4  11  26  43  67  94 134 176 221 271 330 398
#     4  12  24  41  68  98 128 170 218 271 329 386
#     4  12  26  41  66  97 133 170 217 274 330 388
#     4  11  24  40  64  92 132 172 215 263 323 388
#     4  12  24  38  63  99 133 174 216 265 327 393
#
# _framework density 18.755773999999999
#
# number of rings (size 3 to 8) (size 9 to 14) (size 15 to 20)
#    0.000    0.615    4.615    3.231    6.462    1.846 
#    0.000    0.000    3.385    0.000    0.000    0.000 
#    0.000    0.000    0.000    0.000    0.000    0.000 
#
# Total GULP energy -144750.257097 kJ/mol
# GULP energy per Si atom -5567.317581 kJ/mol
# Density = 1.871308 g / cm^3
# Si number density = 18.755774 Si / 1000 Ang^3
#
#
#
# Elastic Constant Matrix: (Units=GPa)
#
#
# Indices 1 2 3 4 5 6 
#
# 1 196.3253 29.8677 42.2036 0.0000 0.0000 0.0000
# 2 29.8677 68.7311 11.9826 0.0000 0.0000 0.0000
# 3 42.2036 11.9826 98.8221 0.0000 0.0000 0.0000
# 4 0.0000 0.0000 0.0000 10.4565 0.0000 0.0000
# 5 0.0000 0.0000 0.0000 0.0000 49.7556 0.0000
# 6 0.0000 0.0000 0.0000 0.0000 0.0000 42.2338
#
#
#
# Elastic Compliance Matrix: (Units=1/GPa)
#
#
# Indices 1 2 3 4 5 6 
#
# 1 0.005910 -0.002174 -0.002260 0.000000 0.000000 0.000000
# 2 -0.002174 0.015664 -0.000971 0.000000 0.000000 0.000000
# 3 -0.002260 -0.000971 0.011202 0.000000 0.000000 0.000000
# 4 0.000000 0.000000 0.000000 0.095635 0.000000 0.000000
# 5 0.000000 0.000000 0.000000 0.000000 0.020098 0.000000
# 6 0.000000 0.000000 0.000000 0.000000 0.000000 0.023678
#
#
# Mechanical properties :
#
#
# Convention : Reuss Voigt Hill
#
# Bulk Modulus (GPa) = 45.52654 59.10959 52.31807
# Shear Modulus (GPa) = 26.27163 39.14414 32.70788
#
# Velocity S-wave (km/s) = 3.74668 4.57337 4.18051
# Velocity P-wave (km/s) = 6.56071 7.71178 7.15941
#
# Compressibility (1/GPa) = 0.02196521
#
# Stress axis : x y z
#
# Youngs Moduli (GPa) = 169.19637 63.84255 89.26770
#
# Poissons Ratio (x) = 0.13881 0.20178
# Poissons Ratio (y) = 0.36788 0.08665
# Poissons Ratio (z) = 0.38246 0.06197
#
# Static dielectric constant tensor:
#      x y z
#    x 1.628980 0.000000 0.000000 
#    y 0.000000 1.648610 0.000000 
#    z 0.000000 0.000000 1.661090 
# 
# From -- ./inp_files/15191.got.cif
#   From: 2010.05.17/outbox.cif.g08.bks.cpg/sg40_8_cif.got.tgz:15191.got - 2010.06.03 18:35:42.
