data_PCOD9365902
_publ_section_title
;
Structure prediction by ZEFSAII (Michael W. Deem and Ramdas Pophale) SiO2 
 PCOD9365902
Probable space group: A B A 2
;
_chemical_formula_sum "Si O2"
_cell_formula_units_Z 64
_cell_length_a 15.919335
_cell_length_b 9.891931
_cell_length_c 22.061883
_cell_angle_alpha 90.000000
_cell_angle_beta 90.000000
_cell_angle_gamma 90.000000
_cell_volume 3474.150094
_symmetry_space_group_name_H-M "A B A 2"
_symmetry_group_IT_number 41
_symmetry_cell_setting 'orthorhombic'
loop_
_space_group_symop_operation_xyz
x,y,z
-x,-y,z
1/2-x,y,1/2+z
1/2+x,-y,1/2+z
x,1/2+y,1/2+z
-x,1/2-y,1/2+z
1/2-x,1/2+y,z
1/2+x,1/2-y,z
loop_
_atom_site_type_symbol
_atom_site_label
_atom_site_fract_x
_atom_site_fract_y
_atom_site_fract_z
Si Si1 0.834480 0.434845 0.752620
Si Si2 0.340907 0.304772 0.414432
Si Si3 0.948859 0.859919 0.598661
Si Si4 0.592772 0.209688 0.778340
Si Si5 0.817276 0.881458 0.395635
Si Si6 0.982516 0.338297 0.965082
Si Si7 0.834853 0.936220 0.696154
Si Si8 0.941367 0.700033 0.211225
O O1 0.901357 0.555359 0.756993
O O2 0.813952 0.392430 0.822135
O O3 0.754670 0.490661 0.716015
O O4 0.868030 0.308034 0.715417
O O5 0.374735 0.288063 0.346118
O O6 0.260665 0.207035 0.420107
O O7 0.315031 0.463307 0.420020
O O8 0.425056 0.276367 0.453501
O O9 0.949569 0.799465 0.531884
O O10 0.858138 0.893613 0.627692
O O11 0.000708 0.783130 0.651419
O O12 0.000000 0.000000 0.592185
O O13 0.650884 0.305286 0.737553
O O14 0.500427 0.268484 0.768359
O O15 0.906628 0.818333 0.417273
O O16 0.000000 0.500000 0.961718
O O17 0.903463 0.050585 0.711836
#
# Coordination Sequence:
#
# PCOD9365902 Si02
#       8
#     8   8   8   8   8   8   8   8
#     4  11  20  32  52  82 116 138 174 231 285 332
#     4  10  20  36  56  85 111 145 186 226 282 332
#     4   8  17  35  55  76 103 142 193 219 261 330
#     4  10  19  33  51  78 112 144 176 218 280 340
#     4  10  21  35  58  83 114 144 184 232 278 334
#     4   9  18  37  60  77 107 154 191 226 269 336
#     4  10  19  33  53  80 107 143 180 228 272 325
#     4  10  20  33  55  79 107 146 184 222 273 330
#
# _framework density 18.421772000000001
#
# number of rings (size 3 to 8) (size 9 to 14) (size 15 to 20)
#    0.000    2.250    1.250    3.000    1.750    2.000 
#    2.250    0.625    8.250    3.000    0.000    0.000 
#    0.000    0.000    0.000    0.000    0.000    0.000 
#
# Total GULP energy -178205.410086 kJ/mol
# GULP energy per Si atom -5568.919065 kJ/mol
# Density = 1.837984 g / cm^3
# Si number density = 18.421772 Si / 1000 Ang^3
#
#
#
# Elastic Constant Matrix: (Units=GPa)
#
#
# Indices 1 2 3 4 5 6 
#
# 1 117.8441 26.7885 39.7041 0.0000 0.0000 0.0000
# 2 26.7885 59.3165 17.8384 0.0000 0.0000 0.0000
# 3 39.7041 17.8384 74.4109 0.0000 0.0000 0.0000
# 4 0.0000 0.0000 0.0000 11.7719 0.0000 0.0000
# 5 0.0000 0.0000 0.0000 0.0000 16.0673 0.0000
# 6 0.0000 0.0000 0.0000 0.0000 0.0000 32.5983
#
#
#
# Elastic Compliance Matrix: (Units=1/GPa)
#
#
# Indices 1 2 3 4 5 6 
#
# 1 0.010960 -0.003439 -0.005024 0.000000 0.000000 0.000000
# 2 -0.003439 0.019248 -0.002779 0.000000 0.000000 0.000000
# 3 -0.005024 -0.002779 0.016786 0.000000 0.000000 0.000000
# 4 0.000000 0.000000 0.000000 0.084948 0.000000 0.000000
# 5 0.000000 0.000000 0.000000 0.000000 0.062238 0.000000
# 6 0.000000 0.000000 0.000000 0.000000 0.000000 0.030676
#
#
# Mechanical properties :
#
#
# Convention : Reuss Voigt Hill
#
# Bulk Modulus (GPa) = 40.80027 46.69260 43.74644
# Shear Modulus (GPa) = 19.56875 23.23690 21.40282
#
# Velocity S-wave (km/s) = 3.26277 3.55545 3.41225
# Velocity P-wave (km/s) = 6.03243 6.50049 6.27083
#
# Compressibility (1/GPa) = 0.02450964
#
# Stress axis : x y z
#
# Youngs Moduli (GPa) = 91.23981 51.95443 59.57468
#
# Poissons Ratio (x) = 0.17867 0.29928
# Poissons Ratio (y) = 0.31378 0.16557
# Poissons Ratio (z) = 0.45836 0.14439
#
# Static dielectric constant tensor:
#      x y z
#    x 1.717760 0.000000 0.000000 
#    y 0.000000 1.634210 0.000000 
#    z 0.000000 0.000000 1.641790 
# 
# From -- ./inp_files/12233.got.cif
#   From: 2010.05.17/outbox.cif.g08.bks.cpg/sg41_7_cif.got.tgz:12233.got - 2010.06.03 18:54:24.
