data_PCOD9365972
_publ_section_title
;
Structure prediction by ZEFSAII (Michael W. Deem and Ramdas Pophale) SiO2 
 PCOD9365972
Probable space group: A B A 2
;
_chemical_formula_sum "Si O2"
_cell_formula_units_Z 64
_cell_length_a 32.854922
_cell_length_b 13.820198
_cell_length_c 5.587056
_cell_angle_alpha 90.000000
_cell_angle_beta 90.000000
_cell_angle_gamma 90.000000
_cell_volume 2536.867181
_symmetry_space_group_name_H-M "A B A 2"
_symmetry_group_IT_number 41
_symmetry_cell_setting 'orthorhombic'
loop_
_space_group_symop_operation_xyz
x,y,z
-x,-y,z
1/2-x,y,1/2+z
1/2+x,-y,1/2+z
x,1/2+y,1/2+z
-x,1/2-y,1/2+z
1/2-x,1/2+y,z
1/2+x,1/2-y,z
loop_
_atom_site_type_symbol
_atom_site_label
_atom_site_fract_x
_atom_site_fract_y
_atom_site_fract_z
Si Si1 0.272624 0.559727 0.336390
Si Si2 0.087690 0.972098 0.448499
Si Si3 0.845083 0.054910 0.822436
Si Si4 0.963400 0.195480 0.539182
Si Si5 0.141362 0.111271 0.163230
Si Si6 0.896858 0.219119 0.906981
Si Si7 0.756602 0.649326 0.308666
Si Si8 0.948607 0.356391 0.200657
O O1 0.251108 0.583616 0.588605
O O2 0.318057 0.600345 0.323147
O O3 0.274070 0.442169 0.320025
O O4 0.128916 0.939708 0.580666
O O5 0.059872 0.882360 0.371434
O O6 0.102678 0.048399 0.252863
O O7 0.062363 0.033241 0.649324
O O8 0.869695 0.130054 0.991395
O O9 0.800482 0.098294 0.804841
O O10 0.846136 0.945432 0.921432
O O11 0.938533 0.184188 0.784500
O O12 0.958051 0.305780 0.452865
O O13 0.010217 0.167868 0.556702
O O14 0.127673 0.221470 0.199669
O O15 0.909727 0.296535 0.104080
O O16 0.750911 0.702857 0.559756
#
# Coordination Sequence:
#
# PCOD9365972 Si02
#       8
#     8   8   8   8   8   8   8   8
#     4  10  19  35  62  90 122 171 214 260 331 385
#     4  10  23  36  60  92 114 160 210 252 312 392
#     4  11  21  38  63  85 126 157 208 260 313 381
#     4  11  21  40  63  84 123 159 202 260 323 376
#     4  11  21  38  63  85 126 157 208 260 313 381
#     4  10  24  40  58  94 116 162 206 254 324 380
#     4  10  19  35  62  90 122 171 214 260 331 385
#     4  11  21  40  63  84 123 159 202 260 323 376
#
# _framework density 25.227965000000001
#
# number of rings (size 3 to 8) (size 9 to 14) (size 15 to 20)
#    0.000    1.500    3.750    3.375    0.000    0.000 
#    0.000    1.250    0.000    0.000    0.000    0.000 
#    0.000    0.000    0.000    0.000    0.000    0.000 
#
# Total GULP energy -178790.496846 kJ/mol
# GULP energy per Si atom -5587.203026 kJ/mol
# Density = 2.517054 g / cm^3
# Si number density = 25.227965 Si / 1000 Ang^3
#
#
#
# Elastic Constant Matrix: (Units=GPa)
#
#
# Indices 1 2 3 4 5 6 
#
# 1 108.9956 10.3278 31.0989 0.0000 0.0000 0.0000
# 2 10.3278 105.2773 13.6851 0.0000 0.0000 0.0000
# 3 31.0989 13.6851 111.1315 0.0000 0.0000 0.0000
# 4 0.0000 0.0000 0.0000 15.9605 0.0000 0.0000
# 5 0.0000 0.0000 0.0000 0.0000 -81.1168 0.0000
# 6 0.0000 0.0000 0.0000 0.0000 0.0000 -1.6326
#
#
#
# Elastic Compliance Matrix: (Units=1/GPa)
#
#
# Indices 1 2 3 4 5 6 
#
# 1 0.010011 -0.000628 -0.002724 0.000000 0.000000 0.000000
# 2 -0.000628 0.009693 -0.001018 0.000000 0.000000 0.000000
# 3 -0.002724 -0.001018 0.009886 0.000000 0.000000 0.000000
# 4 0.000000 0.000000 0.000000 0.062655 0.000000 0.000000
# 5 0.000000 0.000000 0.000000 0.000000 -0.012328 0.000000
# 6 0.000000 0.000000 0.000000 0.000000 0.000000 -0.612516
#
#
# Mechanical properties :
#
#
# Convention : Reuss Voigt Hill
#
# Bulk Modulus (GPa) = 47.96177 48.40310 48.18244
# Shear Modulus (GPa) = -9.67288 4.66173 -2.50558
#
# Velocity S-wave (km/s) = -1.96023 1.36083 -0.99766
# Velocity P-wave (km/s) = 3.73219 4.65801 4.22057
#
# Compressibility (1/GPa) = 0.02084994
#
# Stress axis : x y z
#
# Youngs Moduli (GPa) = 99.88526 103.17109 101.15267
#
# Poissons Ratio (x) = 0.06479 0.27557
# Poissons Ratio (y) = 0.06273 0.10296
# Poissons Ratio (z) = 0.27211 0.10501
#
# Static dielectric constant tensor:
#      x y z
#    x 4.044810 0.000000 0.000000 
#    y 0.000000 1.997000 0.000000 
#    z 0.000000 0.000000 2.167050 
# 
# From -- ./inp_files/1411.got.cif
#   From: 2010.05.17/outbox.cif.g08.bks.cpg/sg41_1_cif.got.tgz:1411.got - 2010.06.03 18:54:24.
