data_PCOD9365336
_publ_section_title
;
Structure prediction by ZEFSAII (Michael W. Deem and Ramdas Pophale) SiO2 
 PCOD9365336
Probable space group: A M A 2
;
_chemical_formula_sum "Si O2"
_cell_formula_units_Z 64
_cell_length_a 18.549346
_cell_length_b 14.891416
_cell_length_c 11.864762
_cell_angle_alpha 90.000000
_cell_angle_beta 90.000000
_cell_angle_gamma 90.000000
_cell_volume 3277.356078
_symmetry_space_group_name_H-M "A M A 2"
_symmetry_group_IT_number 40
_symmetry_cell_setting 'orthorhombic'
loop_
_space_group_symop_operation_xyz
x,y,z
-x,-y,z
1/2-x,y,z
1/2+x,-y,z
x,1/2+y,1/2+z
-x,1/2-y,1/2+z
1/2-x,1/2+y,1/2+z
1/2+x,1/2-y,1/2+z
loop_
_atom_site_type_symbol
_atom_site_label
_atom_site_fract_x
_atom_site_fract_y
_atom_site_fract_z
Si Si1 0.904613 0.285480 0.836750
Si Si2 0.053519 0.274364 0.941083
Si Si3 0.664079 0.646090 0.775754
Si Si4 0.398375 0.564747 0.224894
Si Si5 0.836617 0.949281 0.199707
Si Si6 0.060711 0.873541 0.677600
Si Si7 0.165107 0.224328 0.581843
Si Si8 0.929447 0.435847 0.473435
O O1 0.864920 0.364092 0.769526
O O2 0.901912 0.194306 0.764425
O O3 0.989044 0.303916 0.858473
O O4 0.872904 0.277020 0.961785
O O5 0.125831 0.300449 0.875465
O O6 0.047831 0.168962 0.968911
O O7 0.051340 0.326896 0.057850
O O8 0.750000 0.656728 0.784766
O O9 0.647683 0.540663 0.768831
O O10 0.640687 0.692040 0.658332
O O11 0.397734 0.467380 0.168055
O O12 0.480564 0.601975 0.220525
O O13 0.351843 0.636448 0.156965
O O14 0.384733 0.550923 0.357451
O O15 0.750000 0.944390 0.182064
O O16 0.880000 0.952255 0.082266
O O17 0.250000 0.230906 0.562978
O O18 0.000000 0.500000 0.473311
#
# Coordination Sequence:
#
# PCOD9365336 Si02
#       8
#     8   8   8   8   8   8   8   8
#     4  12  24  42  68  95 134 172 225 281 328 396
#     4  12  24  42  70  99 130 178 224 278 338 400
#     4  10  25  46  68  98 135 177 227 274 335 411
#     4  11  22  42  64  96 135 163 219 273 331 393
#     4  11  28  46  66  99 141 183 225 277 340 411
#     4  11  23  41  63 100 130 166 215 281 328 386
#     4  11  24  43  66  92 132 178 216 267 332 399
#     4  12  24  41  71 101 134 172 224 287 335 401
#
# _framework density 19.527934999999999
#
# number of rings (size 3 to 8) (size 9 to 14) (size 15 to 20)
#    0.000    0.750    6.250    0.375    7.000    1.000 
#    0.000    1.250    0.000    0.000    0.000    0.000 
#    0.000    0.000    0.000    0.000    0.000    0.000 
#
# Total GULP energy -178856.492786 kJ/mol
# GULP energy per Si atom -5589.265400 kJ/mol
# Density = 1.948349 g / cm^3
# Si number density = 19.527935 Si / 1000 Ang^3
#
#
#
# Elastic Constant Matrix: (Units=GPa)
#
#
# Indices 1 2 3 4 5 6 
#
# 1 42.8731 33.6641 28.2808 0.0000 0.0000 0.0000
# 2 33.6641 144.6451 44.4526 0.0000 0.0000 0.0000
# 3 28.2808 44.4526 80.3941 0.0000 0.0000 0.0000
# 4 0.0000 0.0000 0.0000 30.0953 0.0000 0.0000
# 5 0.0000 0.0000 0.0000 0.0000 23.7296 0.0000
# 6 0.0000 0.0000 0.0000 0.0000 0.0000 22.4510
#
#
#
# Elastic Compliance Matrix: (Units=1/GPa)
#
#
# Indices 1 2 3 4 5 6 
#
# 1 0.033093 -0.004969 -0.008894 0.000000 0.000000 0.000000
# 2 -0.004969 0.009075 -0.003270 0.000000 0.000000 0.000000
# 3 -0.008894 -0.003270 0.017375 0.000000 0.000000 0.000000
# 4 0.000000 0.000000 0.000000 0.033228 0.000000 0.000000
# 5 0.000000 0.000000 0.000000 0.000000 0.042142 0.000000
# 6 0.000000 0.000000 0.000000 0.000000 0.000000 0.044541
#
#
# Mechanical properties :
#
#
# Convention : Reuss Voigt Hill
#
# Bulk Modulus (GPa) = 39.55995 53.41192 46.48594
# Shear Modulus (GPa) = 22.50785 26.02283 24.26534
#
# Velocity S-wave (km/s) = 3.39868 3.65443 3.52887
# Velocity P-wave (km/s) = 5.97524 6.72439 6.36085
#
# Compressibility (1/GPa) = 0.02527809
#
# Stress axis : x y z
#
# Youngs Moduli (GPa) = 30.21804 110.19585 57.55245
#
# Poissons Ratio (x) = 0.54752 0.51187
# Poissons Ratio (y) = 0.15014 0.18819
# Poissons Ratio (z) = 0.26876 0.36033
#
# Static dielectric constant tensor:
#      x y z
#    x 1.668410 0.000000 0.000000 
#    y 0.000000 1.688720 0.000000 
#    z 0.000000 0.000000 1.675600 
# 
# From -- ./inp_files/13110.got.cif
#   From: 2010.05.17/outbox.cif.g08.bks.cpg/sg40_7_cif.got.tgz:13110.got - 2010.06.03 18:35:42.
