data_PCOD9365094
_publ_section_title
;
Structure prediction by ZEFSAII (Michael W. Deem and Ramdas Pophale) SiO2 
 PCOD9365094
Probable space group: A M A 2
;
_chemical_formula_sum "Si O2"
_cell_formula_units_Z 24
_cell_length_a 13.407226
_cell_length_b 13.693766
_cell_length_c 4.878834
_cell_angle_alpha 90.000000
_cell_angle_beta 90.000000
_cell_angle_gamma 90.000000
_cell_volume 895.731556
_symmetry_space_group_name_H-M "A M A 2"
_symmetry_group_IT_number 40
_symmetry_cell_setting 'orthorhombic'
loop_
_space_group_symop_operation_xyz
x,y,z
-x,-y,z
1/2-x,y,z
1/2+x,-y,z
x,1/2+y,1/2+z
-x,1/2-y,1/2+z
1/2-x,1/2+y,1/2+z
1/2+x,1/2-y,1/2+z
loop_
_atom_site_type_symbol
_atom_site_label
_atom_site_fract_x
_atom_site_fract_y
_atom_site_fract_z
Si Si1 0.085225 0.652943 0.591040
Si Si2 0.358334 0.343436 0.758073
Si Si3 0.387367 0.533559 0.096183
O O1 0.119815 0.754608 0.466819
O O2 0.135074 0.570025 0.399160
O O3 0.962905 0.647974 0.587918
O O4 0.117791 0.627740 0.898214
O O5 0.250000 0.328575 0.616350
O O6 0.346527 0.440636 0.939776
O O7 0.500000 0.500000 0.114800
#
# Coordination Sequence:
#
# PCOD9365094 Si02
#       3
#     8   8   8
#     4  11  24  45  68 102 147 181 230 301 352 411
#     4  11  25  46  76 108 143 195 245 290 361 437
#     4  10  22  43  67  94 136 184 230 291 355 410
#
# _framework density 26.793741000000001
#
# number of rings (size 3 to 8) (size 9 to 14) (size 15 to 20)
#    0.000    1.333    0.000    7.000    0.000    5.333 
#    0.000   38.333    0.000    2.000    0.000    0.000 
#    0.000    0.000    0.000    0.000    0.000    0.000 
#
# Total GULP energy -67109.082268 kJ/mol
# GULP energy per Si atom -5592.423522 kJ/mol
# Density = 2.673276 g / cm^3
# Si number density = 26.793741 Si / 1000 Ang^3
#
#
#
# Elastic Constant Matrix: (Units=GPa)
#
#
# Indices 1 2 3 4 5 6 
#
# 1 189.8976 25.6961 15.8906 0.0000 0.0000 0.0000
# 2 25.6961 143.9248 30.4178 0.0000 0.0000 0.0000
# 3 15.8906 30.4178 117.0396 0.0000 0.0000 0.0000
# 4 0.0000 0.0000 0.0000 41.2471 0.0000 0.0000
# 5 0.0000 0.0000 0.0000 0.0000 -20.4961 0.0000
# 6 0.0000 0.0000 0.0000 0.0000 0.0000 1.3015
#
#
#
# Elastic Compliance Matrix: (Units=1/GPa)
#
#
# Indices 1 2 3 4 5 6 
#
# 1 0.005425 -0.000860 -0.000513 0.000000 0.000000 0.000000
# 2 -0.000860 0.007488 -0.001829 0.000000 0.000000 0.000000
# 3 -0.000513 -0.001829 0.009089 0.000000 0.000000 0.000000
# 4 0.000000 0.000000 0.000000 0.024244 0.000000 0.000000
# 5 0.000000 0.000000 0.000000 0.000000 -0.048790 0.000000
# 6 0.000000 0.000000 0.000000 0.000000 0.000000 0.768315
#
#
# Mechanical properties :
#
#
# Convention : Reuss Voigt Hill
#
# Bulk Modulus (GPa) = 64.11242 66.09680 65.10461
# Shear Modulus (GPa) = 6.43189 29.66767 18.04978
#
# Velocity S-wave (km/s) = 1.55104 3.33116 2.59831
# Velocity P-wave (km/s) = 5.21418 6.28632 5.77519
#
# Compressibility (1/GPa) = 0.01559760
#
# Stress axis : x y z
#
# Youngs Moduli (GPa) = 184.32069 133.54209 110.02058
#
# Poissons Ratio (x) = 0.11487 0.05645
# Poissons Ratio (y) = 0.15855 0.20127
# Poissons Ratio (z) = 0.09456 0.24430
#
# Static dielectric constant tensor:
#      x y z
#    x 2.264980 0.000000 0.000000 
#    y 0.000000 2.079530 0.000000 
#    z 0.000000 0.000000 2.013770 
# 
# From -- ./inp_files/964.got.cif
#   From: 2010.05.17/outbox.cif.g08.bks.cpg/sg40_1_cif.got.tgz:964.got - 2010.06.03 18:35:42.
