data_PCOD9365210
_publ_section_title
;
Structure prediction by ZEFSAII (Michael W. Deem and Ramdas Pophale) SiO2 
 PCOD9365210
Probable space group: A M A 2
;
_chemical_formula_sum "Si O2"
_cell_formula_units_Z 64
_cell_length_a 17.691193
_cell_length_b 16.474371
_cell_length_c 11.540928
_cell_angle_alpha 90.000000
_cell_angle_beta 90.000000
_cell_angle_gamma 90.000000
_cell_volume 3363.618202
_symmetry_space_group_name_H-M "A M A 2"
_symmetry_group_IT_number 40
_symmetry_cell_setting 'orthorhombic'
loop_
_space_group_symop_operation_xyz
x,y,z
-x,-y,z
1/2-x,y,z
1/2+x,-y,z
x,1/2+y,1/2+z
-x,1/2-y,1/2+z
1/2-x,1/2+y,1/2+z
1/2+x,1/2-y,1/2+z
loop_
_atom_site_type_symbol
_atom_site_label
_atom_site_fract_x
_atom_site_fract_y
_atom_site_fract_z
Si Si1 0.068701 0.173369 0.530590
Si Si2 0.925412 0.463365 0.841661
Si Si3 0.661123 0.907556 0.122442
Si Si4 0.838298 0.581152 0.010389
Si Si5 0.908526 0.239664 0.605294
Si Si6 0.661581 0.022819 0.916566
Si Si7 0.913865 0.469181 0.195100
Si Si8 0.659700 0.711593 0.361776
O O1 0.048703 0.103907 0.435411
O O2 0.097534 0.118655 0.637578
O O3 0.127282 0.230785 0.463192
O O4 0.995836 0.221528 0.576821
O O5 0.869517 0.424173 0.750223
O O6 0.000000 0.500000 0.783630
O O7 0.883002 0.534508 0.910279
O O8 0.750000 0.888445 0.124554
O O9 0.616171 0.830293 0.074405
O O10 0.649458 0.986930 0.043911
O O11 0.750000 0.575267 0.989595
O O12 0.863045 0.673084 0.031356
O O13 0.861142 0.532718 0.126830
O O14 0.884753 0.226512 0.740600
O O15 0.750000 0.008334 0.887505
O O16 0.647935 0.118399 0.900647
O O17 0.609168 0.974387 0.827739
O O18 0.000000 0.500000 0.178153
O O19 0.750000 0.724590 0.343691
#
# Coordination Sequence:
#
# PCOD9365210 Si02
#       8
#     8   8   8   8   8   8   8   8
#     4  11  23  39  63  97 131 161 215 278 320 380
#     4  11  22  41  61  92 130 165 209 264 324 380
#     4  11  25  43  65  93 130 172 215 262 319 394
#     4  11  20  35  64  92 119 160 209 260 315 372
#     4  12  22  40  63  96 126 166 216 269 319 382
#     4  10  23  43  63  91 126 166 214 259 316 393
#     4  11  20  38  64  93 127 160 211 265 320 374
#     4  11  23  42  68  95 131 173 220 266 324 394
#
# _framework density 19.027128999999999
#
# number of rings (size 3 to 8) (size 9 to 14) (size 15 to 20)
#    0.000    1.000    5.000    2.625    0.000    6.000 
#    0.000    1.250    0.000    3.000    0.000    0.000 
#    0.000    0.000    0.000    0.000    0.000    0.000 
#
# Total GULP energy -178727.990209 kJ/mol
# GULP energy per Si atom -5585.249694 kJ/mol
# Density = 1.898382 g / cm^3
# Si number density = 19.027129 Si / 1000 Ang^3
#
#
#
# Elastic Constant Matrix: (Units=GPa)
#
#
# Indices 1 2 3 4 5 6 
#
# 1 51.0287 25.9129 30.6714 0.0000 0.0000 0.0000
# 2 25.9129 86.2700 30.1288 0.0000 0.0000 0.0000
# 3 30.6714 30.1288 63.6397 0.0000 0.0000 0.0000
# 4 0.0000 0.0000 0.0000 13.7334 0.0000 0.0000
# 5 0.0000 0.0000 0.0000 0.0000 30.5985 0.0000
# 6 0.0000 0.0000 0.0000 0.0000 0.0000 28.0041
#
#
#
# Elastic Compliance Matrix: (Units=1/GPa)
#
#
# Indices 1 2 3 4 5 6 
#
# 1 0.029033 -0.004593 -0.011818 0.000000 0.000000 0.000000
# 2 -0.004593 0.014614 -0.004705 0.000000 0.000000 0.000000
# 3 -0.011818 -0.004705 0.023637 0.000000 0.000000 0.000000
# 4 0.000000 0.000000 0.000000 0.072815 0.000000 0.000000
# 5 0.000000 0.000000 0.000000 0.000000 0.032681 0.000000
# 6 0.000000 0.000000 0.000000 0.000000 0.000000 0.035709
#
#
# Mechanical properties :
#
#
# Convention : Reuss Voigt Hill
#
# Bulk Modulus (GPa) = 39.91816 41.59605 40.75710
# Shear Modulus (GPa) = 19.29968 22.08223 20.69095
#
# Velocity S-wave (km/s) = 3.18830 3.41040 3.30122
# Velocity P-wave (km/s) = 5.88038 6.11692 5.99981
#
# Compressibility (1/GPa) = 0.02505125
#
# Stress axis : x y z
#
# Youngs Moduli (GPa) = 34.44409 68.42562 42.30723
#
# Poissons Ratio (x) = 0.31430 0.49998
# Poissons Ratio (y) = 0.15821 0.19906
# Poissons Ratio (z) = 0.40705 0.32195
#
# Static dielectric constant tensor:
#      x y z
#    x 1.648220 0.000000 0.000000 
#    y 0.000000 1.661800 0.000000 
#    z 0.000000 0.000000 1.652090 
# 
# From -- ./inp_files/13147.got.cif
#   From: 2010.05.17/outbox.cif.g08.bks.cpg/sg40_7_cif.got.tgz:13147.got - 2010.06.03 18:35:42.
