data_PCOD9365404
_publ_section_title
;
Structure prediction by ZEFSAII (Michael W. Deem and Ramdas Pophale) SiO2 
 PCOD9365404
Probable space group: A M A 2
;
_chemical_formula_sum "Si O2"
_cell_formula_units_Z 32
_cell_length_a 9.371335
_cell_length_b 8.556108
_cell_length_c 16.414504
_cell_angle_alpha 90.000000
_cell_angle_beta 90.000000
_cell_angle_gamma 90.000000
_cell_volume 1316.150294
_symmetry_space_group_name_H-M "A M A 2"
_symmetry_group_IT_number 40
_symmetry_cell_setting 'orthorhombic'
loop_
_space_group_symop_operation_xyz
x,y,z
-x,-y,z
1/2-x,y,z
1/2+x,-y,z
x,1/2+y,1/2+z
-x,1/2-y,1/2+z
1/2-x,1/2+y,1/2+z
1/2+x,1/2-y,1/2+z
loop_
_atom_site_type_symbol
_atom_site_label
_atom_site_fract_x
_atom_site_fract_y
_atom_site_fract_z
Si Si1 0.911897 0.801929 0.287250
Si Si2 0.974566 0.314291 0.974585
Si Si3 0.750000 0.590435 0.762572
Si Si4 0.250000 0.988320 0.751372
Si Si5 0.750000 0.750292 0.610532
Si Si6 0.250000 0.699702 0.412775
O O1 0.750000 0.890580 0.270616
O O2 0.909271 0.790279 0.384469
O O3 0.881807 0.633243 0.249171
O O4 0.067112 0.863203 0.263189
O O5 0.000000 0.500000 0.981881
O O6 0.113332 0.206339 0.969000
O O7 0.881848 0.266630 0.050567
O O8 0.750000 0.595269 0.662215
O O9 0.750000 0.637860 0.862105
O O10 0.250000 0.113838 0.680140
O O11 0.250000 0.074314 0.839371
#
# Coordination Sequence:
#
# PCOD9365404 Si02
#       6
#     8   8   4   4   4   4
#     4   8  17  41  70  89 124 171 225 258 325 398
#     4  12  21  40  71  96 130 180 223 274 327 406
#     4   8  17  39  68  92 117 175 214 264 316 400
#     4   8  21  42  69  99 128 168 229 286 316 390
#     4  11  21  40  69 102 135 165 219 284 343 367
#     4  11  21  37  70  99 126 176 228 256 325 407
#
# _framework density 24.313331999999999
#
# number of rings (size 3 to 8) (size 9 to 14) (size 15 to 20)
#    1.500    0.500    3.750    0.750    0.000    1.000 
#    9.000    0.000   33.000    4.500    0.000    0.000 
#    0.000    0.000    0.000    0.000    0.000    0.000 
#
# Total GULP energy -89104.216546 kJ/mol
# GULP energy per Si atom -5569.013534 kJ/mol
# Density = 2.425799 g / cm^3
# Si number density = 24.313332 Si / 1000 Ang^3
#
#
#
# Elastic Constant Matrix: (Units=GPa)
#
#
# Indices 1 2 3 4 5 6 
#
# 1 220.4693 53.7618 78.5588 0.0000 0.0000 0.0000
# 2 53.7618 80.8519 30.7289 0.0000 0.0000 0.0000
# 3 78.5588 30.7289 145.7915 0.0000 0.0000 0.0000
# 4 0.0000 0.0000 0.0000 17.7663 0.0000 0.0000
# 5 0.0000 0.0000 0.0000 0.0000 51.0380 0.0000
# 6 0.0000 0.0000 0.0000 0.0000 0.0000 -78.0946
#
#
#
# Elastic Compliance Matrix: (Units=1/GPa)
#
#
# Indices 1 2 3 4 5 6 
#
# 1 0.006268 -0.003136 -0.002717 0.000000 0.000000 0.000000
# 2 -0.003136 0.015014 -0.001475 0.000000 0.000000 0.000000
# 3 -0.002717 -0.001475 0.008634 0.000000 0.000000 0.000000
# 4 0.000000 0.000000 0.000000 0.056286 0.000000 0.000000
# 5 0.000000 0.000000 0.000000 0.000000 0.019593 0.000000
# 6 0.000000 0.000000 0.000000 0.000000 0.000000 -0.012805
#
#
# Mechanical properties :
#
#
# Convention : Reuss Voigt Hill
#
# Bulk Modulus (GPa) = 65.52409 85.91241 75.71825
# Shear Modulus (GPa) = 44.35274 17.07950 30.71612
#
# Velocity S-wave (km/s) = 4.27572 2.65330 3.55821
# Velocity P-wave (km/s) = 7.16827 6.69320 6.93480
#
# Compressibility (1/GPa) = 0.01526156
#
# Stress axis : x y z
#
# Youngs Moduli (GPa) = 159.52848 66.60520 115.82215
#
# Poissons Ratio (x) = 0.20885 0.31467
# Poissons Ratio (y) = 0.50022 0.17083
# Poissons Ratio (z) = 0.43341 0.09824
#
# Static dielectric constant tensor:
#      x y z
#    x 2.107280 0.000000 0.000000 
#    y 0.000000 2.103690 0.000000 
#    z 0.000000 0.000000 1.807030 
# 
# From -- ./inp_files/14675.got.cif
#   From: 2010.05.17/outbox.cif.g08.bks.cpg/sg40_8_cif.got.tgz:14675.got - 2010.06.03 18:35:42.
