data_PCOD9365074
_publ_section_title
;
Structure prediction by ZEFSAII (Michael W. Deem and Ramdas Pophale) SiO2 
 PCOD9365074
Probable space group: A M A 2
;
_chemical_formula_sum "Si O2"
_cell_formula_units_Z 48
_cell_length_a 21.298112
_cell_length_b 8.831661
_cell_length_c 11.394381
_cell_angle_alpha 90.000000
_cell_angle_beta 90.000000
_cell_angle_gamma 90.000000
_cell_volume 2143.256917
_symmetry_space_group_name_H-M "A M A 2"
_symmetry_group_IT_number 40
_symmetry_cell_setting 'orthorhombic'
loop_
_space_group_symop_operation_xyz
x,y,z
-x,-y,z
1/2-x,y,z
1/2+x,-y,z
x,1/2+y,1/2+z
-x,1/2-y,1/2+z
1/2-x,1/2+y,1/2+z
1/2+x,1/2-y,1/2+z
loop_
_atom_site_type_symbol
_atom_site_label
_atom_site_fract_x
_atom_site_fract_y
_atom_site_fract_z
Si Si1 0.066666 0.910860 0.479880
Si Si2 0.502457 0.672357 0.590115
Si Si3 0.900350 0.800210 0.762383
Si Si4 0.822961 0.892305 0.403716
Si Si5 0.320905 0.938375 0.156343
Si Si6 0.893930 0.584834 0.425955
O O1 0.078794 0.820338 0.360307
O O2 0.058824 0.774673 0.573308
O O3 0.127592 0.018070 0.486728
O O4 0.000000 0.000000 0.475424
O O5 0.500000 0.500000 0.639228
O O6 0.546775 0.780741 0.665163
O O7 0.537419 0.646806 0.464031
O O8 0.838451 0.730418 0.701706
O O9 0.895501 0.960638 0.825011
O O10 0.750000 0.903497 0.440114
O O11 0.848227 0.722459 0.397753
O O12 0.827358 0.959139 0.271816
O O13 0.250000 0.946075 0.113661
O O14 0.366756 0.978894 0.049529
#
# Coordination Sequence:
#
# PCOD9365074 Si02
#       6
#     8   8   8   8   8   8
#     4  11  21  42  66 100 137 181 227 283 354 414
#     4  11  22  43  65  99 142 176 237 293 346 420
#     4  10  23  40  66  99 134 179 224 287 349 416
#     4  10  22  42  69 102 141 182 235 292 346 419
#     4   9  21  41  64  93 132 179 230 284 345 415
#     4  11  21  42  66  95 132 183 227 280 350 415
#
# _framework density 22.395821000000002
#
# number of rings (size 3 to 8) (size 9 to 14) (size 15 to 20)
#    0.000    1.667    3.333    1.000    0.000    1.333 
#    6.000    0.000    0.000    8.000    0.000    0.000 
#    0.000    0.000    0.000    0.000    0.000    0.000 
#
# Total GULP energy -134008.696733 kJ/mol
# GULP energy per Si atom -5583.695697 kJ/mol
# Density = 2.234485 g / cm^3
# Si number density = 22.395821 Si / 1000 Ang^3
#
#
#
# Elastic Constant Matrix: (Units=GPa)
#
#
# Indices 1 2 3 4 5 6 
#
# 1 117.9451 82.4485 21.4830 0.0000 0.0000 0.0000
# 2 82.4485 162.7518 49.9404 0.0000 0.0000 0.0000
# 3 21.4830 49.9404 42.0950 0.0000 0.0000 0.0000
# 4 0.0000 0.0000 0.0000 42.3925 0.0000 0.0000
# 5 0.0000 0.0000 0.0000 0.0000 20.1420 0.0000
# 6 0.0000 0.0000 0.0000 0.0000 0.0000 28.7275
#
#
#
# Elastic Compliance Matrix: (Units=1/GPa)
#
#
# Indices 1 2 3 4 5 6 
#
# 1 0.013222 -0.007276 0.001885 0.000000 0.000000 0.000000
# 2 -0.007276 0.013666 -0.012499 0.000000 0.000000 0.000000
# 3 0.001885 -0.012499 0.037623 0.000000 0.000000 0.000000
# 4 0.000000 0.000000 0.000000 0.023589 0.000000 0.000000
# 5 0.000000 0.000000 0.000000 0.000000 0.049648 0.000000
# 6 0.000000 0.000000 0.000000 0.000000 0.000000 0.034810
#
#
# Mechanical properties :
#
#
# Convention : Reuss Voigt Hill
#
# Bulk Modulus (GPa) = 34.80852 70.05952 52.43402
# Shear Modulus (GPa) = 22.94473 29.51373 26.22923
#
# Velocity S-wave (km/s) = 3.20427 3.63412 3.42594
# Velocity P-wave (km/s) = 5.40980 6.99710 6.25401
#
# Compressibility (1/GPa) = 0.02872860
#
# Stress axis : x y z
#
# Youngs Moduli (GPa) = 75.63349 73.17488 26.57956
#
# Poissons Ratio (x) = 0.53244 -0.05010
# Poissons Ratio (y) = 0.55033 0.33223
# Poissons Ratio (z) = -0.14256 0.91464
#
# Static dielectric constant tensor:
#      x y z
#    x 1.847300 0.000000 0.000000 
#    y 0.000000 1.864610 0.000000 
#    z 0.000000 0.000000 1.869610 
# 
# From -- ./inp_files/13925.got.cif
#   From: 2010.05.17/outbox.cif.g08.bks.cpg/sg40_7_cif.got.tgz:13925.got - 2010.06.03 18:35:42.
