data_PCOD9365623
_publ_section_title
;
Structure prediction by ZEFSAII (Michael W. Deem and Ramdas Pophale) SiO2 
 PCOD9365623
Probable space group: A M A 2
;
_chemical_formula_sum "Si O2"
_cell_formula_units_Z 24
_cell_length_a 9.000000
_cell_length_b 15.000000
_cell_length_c 18.000000
_cell_angle_alpha 90.000000
_cell_angle_beta 90.000000
_cell_angle_gamma 90.000000
_cell_volume 2430.000000
_symmetry_space_group_name_H-M "A M A 2"
_symmetry_group_IT_number 40
_symmetry_cell_setting 'orthorhombic'
loop_
_space_group_symop_operation_xyz
x,y,z
-x,-y,z
1/2-x,y,z
1/2+x,-y,z
x,1/2+y,1/2+z
-x,1/2-y,1/2+z
1/2-x,1/2+y,1/2+z
1/2+x,1/2-y,1/2+z
loop_
_atom_site_type_symbol
_atom_site_label
_atom_site_fract_x
_atom_site_fract_y
_atom_site_fract_z
Si Si1 0.422884 0.744368 0.295700
Si Si2 0.921450 0.418739 0.404918
Si Si3 0.426698 0.906205 0.062580
Si Si4 0.929457 0.898371 0.390791
Si Si5 0.071654 0.401403 0.185956
Si Si6 0.571648 0.803938 0.552101
O O1 0.250000 0.761172 0.273046
O O2 0.419895 0.675044 0.364183
O O3 0.500389 0.835715 0.324805
O O4 0.507397 0.680950 0.236099
O O5 0.750000 0.441336 0.422236
O O6 0.000000 0.500000 0.361061
O O7 0.023211 0.410282 0.476985
O O8 0.250000 0.913851 0.073154
O O9 0.465778 0.800054 0.075861
O O10 0.500000 0.000000 0.094754
O O11 0.750000 0.906416 0.381385
O O12 0.954051 0.840085 0.467270
O O13 0.000000 0.000000 0.393816
O O14 0.250000 0.407289 0.194625
O O15 0.000000 0.500000 0.198520
O O16 0.022113 0.369642 0.104070
O O17 0.750000 0.812730 0.564666
#
# Coordination Sequence:
#
# PCOD9365623 Si02
#       6
#     8   8   8   8   8   8
#     4  11  23  40  62  90 124 163 208 260 315 374
#     4  10  19  30  51  82 116 153 193 241 296 355
#     4  10  19  33  55  86 122 159 199 249 303 361
#     4  11  23  41  65  94 127 165 213 265 320 380
#     4  12  26  43  66  94 128 168 212 262 320 385
#     4  10  22  41  64  92 129 170 213 263 316 377
#
# _framework density 9.8765429999999999
#
# number of rings (size 3 to 8) (size 9 to 14) (size 15 to 20)
#    0.000    1.333    1.667    5.500    0.000    7.333 
#    0.000    0.833    0.000    2.000    0.000    0.000 
#    0.000    0.000    0.000    0.000    0.000    0.000 
#
# Total GULP energy -133679.331210 kJ/mol
# GULP energy per Si atom -5569.972134 kJ/mol
# Density = 0.985406 g / cm^3
# Si number density = 9.876543 Si / 1000 Ang^3
#
#
#
# Elastic Constant Matrix: (Units=GPa)
#
#
# Indices 1 2 3 4 5 6 
#
# 1 126.8887 70.7055 38.0013 0.0000 0.0000 0.0000
# 2 70.7055 175.0160 30.7900 0.0000 0.0000 0.0000
# 3 38.0013 30.7900 55.4552 0.0000 0.0000 0.0000
# 4 0.0000 0.0000 0.0000 31.0494 0.0000 0.0000
# 5 0.0000 0.0000 0.0000 0.0000 24.5905 0.0000
# 6 0.0000 0.0000 0.0000 0.0000 0.0000 46.7626
#
#
#
# Elastic Compliance Matrix: (Units=1/GPa)
#
#
# Indices 1 2 3 4 5 6 
#
# 1 0.011728 -0.003684 -0.005991 0.000000 0.000000 0.000000
# 2 -0.003684 0.007490 -0.001634 0.000000 0.000000 0.000000
# 3 -0.005991 -0.001634 0.023045 0.000000 0.000000 0.000000
# 4 0.000000 0.000000 0.000000 0.032207 0.000000 0.000000
# 5 0.000000 0.000000 0.000000 0.000000 0.040666 0.000000
# 6 0.000000 0.000000 0.000000 0.000000 0.000000 0.021385
#
#
# Mechanical properties :
#
#
# Convention : Reuss Voigt Hill
#
# Bulk Modulus (GPa) = 50.90471 70.70595 60.80533
# Shear Modulus (GPa) = 30.17740 35.00471 32.59105
#
# Velocity S-wave (km/s) = 3.91286 4.21421 4.06633
# Velocity P-wave (km/s) = 6.80003 7.71700 7.27298
#
# Compressibility (1/GPa) = 0.01964455
#
# Stress axis : x y z
#
# Youngs Moduli (GPa) = 85.26550 133.51967 43.39270
#
# Poissons Ratio (x) = 0.49189 0.25998
# Poissons Ratio (y) = 0.31412 0.07090
# Poissons Ratio (z) = 0.51085 0.21815
#
# Static dielectric constant tensor:
#      x y z
#    x 1.680790 0.000000 0.000000 
#    y 0.000000 1.755980 0.000000 
#    z 0.000000 0.000000 1.755580 
# 
# From -- ./inp_files/19215.got.cif
#   From: 2010.05.17/outbox.ucp.g08.bks.cvg/sg40_10_cif.got.tgz:19215.got - 2010.06.11 16:26:39.
