data_PCOD9365585
_publ_section_title
;
Structure prediction by ZEFSAII (Michael W. Deem and Ramdas Pophale) SiO2 
 PCOD9365585
Probable space group: A M A 2
;
_chemical_formula_sum "Si O2"
_cell_formula_units_Z 32
_cell_length_a 21.319836
_cell_length_b 4.732035
_cell_length_c 13.352801
_cell_angle_alpha 90.000000
_cell_angle_beta 90.000000
_cell_angle_gamma 90.000000
_cell_volume 1347.113488
_symmetry_space_group_name_H-M "A M A 2"
_symmetry_group_IT_number 40
_symmetry_cell_setting 'orthorhombic'
loop_
_space_group_symop_operation_xyz
x,y,z
-x,-y,z
1/2-x,y,z
1/2+x,-y,z
x,1/2+y,1/2+z
-x,1/2-y,1/2+z
1/2-x,1/2+y,1/2+z
1/2+x,1/2-y,1/2+z
loop_
_atom_site_type_symbol
_atom_site_label
_atom_site_fract_x
_atom_site_fract_y
_atom_site_fract_z
Si Si1 0.545213 0.247510 0.635800
Si Si2 0.630607 0.262627 0.819320
Si Si3 0.250000 0.084565 0.201486
Si Si4 0.250000 0.072534 0.559550
Si Si5 0.633308 0.229144 0.454120
O O1 0.500000 0.500000 0.665953
O O2 0.586858 0.154779 0.730123
O O3 0.591927 0.333585 0.546875
O O4 0.500000 0.000000 0.600472
O O5 0.688089 0.434537 0.768348
O O6 0.597002 0.499390 0.886721
O O7 0.651768 0.998500 0.887145
O O8 0.250000 0.405865 0.164007
O O9 0.250000 0.892940 0.100658
O O10 0.309852 0.958538 0.499116
#
# Coordination Sequence:
#
# PCOD9365585 Si02
#       5
#     8   8   4   4   8
#     4  12  28  47  72 101 142 190 244 296 352 424
#     4  12  26  46  74 105 144 186 239 296 365 429
#     4  12  24  44  76 105 147 186 232 295 370 430
#     4  12  24  44  76 105 147 186 232 295 370 430
#     4  12  26  46  74 105 144 186 239 296 365 429
#
# _framework density 23.754496
#
# number of rings (size 3 to 8) (size 9 to 14) (size 15 to 20)
#    0.000    0.000    2.500    7.500    3.500    6.000 
#    0.000    0.000    0.000    0.000    0.000    0.000 
#    0.000    0.000    0.000    0.000    0.000    0.000 
#
# Total GULP energy -89549.139058 kJ/mol
# GULP energy per Si atom -5596.821191 kJ/mol
# Density = 2.370043 g / cm^3
# Si number density = 23.754496 Si / 1000 Ang^3
#
#
#
# Elastic Constant Matrix: (Units=GPa)
#
#
# Indices 1 2 3 4 5 6 
#
# 1 101.8029 16.7484 46.0449 0.0000 0.0000 0.0000
# 2 16.7484 100.3587 23.6125 0.0000 0.0000 0.0000
# 3 46.0449 23.6125 126.1869 0.0000 0.0000 0.0000
# 4 0.0000 0.0000 0.0000 59.9514 0.0000 0.0000
# 5 0.0000 0.0000 0.0000 0.0000 10.1733 0.0000
# 6 0.0000 0.0000 0.0000 0.0000 0.0000 23.8971
#
#
#
# Elastic Compliance Matrix: (Units=1/GPa)
#
#
# Indices 1 2 3 4 5 6 
#
# 1 0.011861 -0.001005 -0.004140 0.000000 0.000000 0.000000
# 2 -0.001005 0.010508 -0.001600 0.000000 0.000000 0.000000
# 3 -0.004140 -0.001600 0.009735 0.000000 0.000000 0.000000
# 4 0.000000 0.000000 0.000000 0.016680 0.000000 0.000000
# 5 0.000000 0.000000 0.000000 0.000000 0.098297 0.000000
# 6 0.000000 0.000000 0.000000 0.000000 0.000000 0.041846
#
#
# Mechanical properties :
#
#
# Convention : Reuss Voigt Hill
#
# Bulk Modulus (GPa) = 53.72183 55.68446 54.70314
# Shear Modulus (GPa) = 23.96691 34.93387 29.45039
#
# Velocity S-wave (km/s) = 3.17983 3.83903 3.52487
# Velocity P-wave (km/s) = 6.01218 6.56836 6.29642
#
# Compressibility (1/GPa) = 0.01861441
#
# Stress axis : x y z
#
# Youngs Moduli (GPa) = 84.31198 95.16223 102.72590
#
# Poissons Ratio (x) = 0.09567 0.42526
# Poissons Ratio (y) = 0.08476 0.16431
# Poissons Ratio (z) = 0.34903 0.15221
#
# Static dielectric constant tensor:
#      x y z
#    x 1.871190 0.000000 0.000000 
#    y 0.000000 1.860120 0.000000 
#    z 0.000000 0.000000 1.940240 
# 
# From -- ./inp_files/17379.got.cif
#   From: 2010.05.17/outbox.cif.g08.bks.cpg/sg40_9_cif.got.tgz:17379.got - 2010.06.03 18:35:42.
