data_PCOD9365134
_publ_section_title
;
Structure prediction by ZEFSAII (Michael W. Deem and Ramdas Pophale) SiO2 
 PCOD9365134
Probable space group: A M A 2
;
_chemical_formula_sum "Si O2"
_cell_formula_units_Z 40
_cell_length_a 16.382253
_cell_length_b 9.013902
_cell_length_c 12.006185
_cell_angle_alpha 90.000000
_cell_angle_beta 90.000000
_cell_angle_gamma 90.000000
_cell_volume 1772.929604
_symmetry_space_group_name_H-M "A M A 2"
_symmetry_group_IT_number 40
_symmetry_cell_setting 'orthorhombic'
loop_
_space_group_symop_operation_xyz
x,y,z
-x,-y,z
1/2-x,y,z
1/2+x,-y,z
x,1/2+y,1/2+z
-x,1/2-y,1/2+z
1/2-x,1/2+y,1/2+z
1/2+x,1/2-y,1/2+z
loop_
_atom_site_type_symbol
_atom_site_label
_atom_site_fract_x
_atom_site_fract_y
_atom_site_fract_z
Si Si1 0.385842 0.575638 0.035470
Si Si2 0.750000 0.720052 0.467398
Si Si3 0.070953 0.607356 0.274921
Si Si4 0.750000 0.913174 0.238817
Si Si5 0.750000 0.175046 0.543721
Si Si6 0.750000 0.416840 0.362238
Si Si7 0.080512 0.949222 0.298304
O O1 0.440939 0.606836 0.141602
O O2 0.327914 0.432090 0.053960
O O3 0.328644 0.719256 0.029207
O O4 0.420391 0.543759 0.913229
O O5 0.750000 0.546728 0.452758
O O6 0.750000 0.808466 0.349294
O O7 0.165202 0.559885 0.296447
O O8 0.069220 0.774848 0.318813
O O9 0.000000 0.500000 0.322159
O O10 0.832392 0.010999 0.243803
O O11 0.750000 0.800453 0.136722
O O12 0.750000 0.258430 0.424488
O O13 0.000000 0.000000 0.231505
#
# Coordination Sequence:
#
# PCOD9365134 Si02
#       7
#     8   4   8   4   4   4   8
#     4  10  22  45  69  97 140 179 232 281 356 411
#     4   9  21  38  71 100 125 188 222 284 348 407
#     4  12  27  45  72 104 136 188 232 287 353 422
#     4  10  23  42  71  94 142 179 232 281 353 402
#     4  11  22  41  70 105 131 188 233 287 341 425
#     4  12  24  45  70  99 148 175 241 288 340 422
#     4  11  25  46  69 102 140 181 230 291 346 420
#
# _framework density 22.561527999999999
#
# number of rings (size 3 to 8) (size 9 to 14) (size 15 to 20)
#    0.000    1.200    2.000    4.200   11.200    0.000 
#    0.000    1.000    0.000    0.000    0.000    0.000 
#    0.000    0.000    0.000    0.000    0.000    0.000 
#
# Total GULP energy -111730.354092 kJ/mol
# GULP energy per Si atom -5586.517705 kJ/mol
# Density = 2.251018 g / cm^3
# Si number density = 22.561528 Si / 1000 Ang^3
#
#
#
# Elastic Constant Matrix: (Units=GPa)
#
#
# Indices 1 2 3 4 5 6 
#
# 1 136.6626 26.9617 -4.3855 0.0000 0.0000 0.0000
# 2 26.9617 95.0466 -10.1985 0.0000 0.0000 0.0000
# 3 -4.3855 -10.1985 45.6842 0.0000 0.0000 0.0000
# 4 0.0000 0.0000 0.0000 29.6947 0.0000 0.0000
# 5 0.0000 0.0000 0.0000 0.0000 4.3183 0.0000
# 6 0.0000 0.0000 0.0000 0.0000 0.0000 36.8924
#
#
#
# Elastic Compliance Matrix: (Units=1/GPa)
#
#
# Indices 1 2 3 4 5 6 
#
# 1 0.007754 -0.002172 0.000260 0.000000 0.000000 0.000000
# 2 -0.002172 0.011388 0.002334 0.000000 0.000000 0.000000
# 3 0.000260 0.002334 0.022435 0.000000 0.000000 0.000000
# 4 0.000000 0.000000 0.000000 0.033676 0.000000 0.000000
# 5 0.000000 0.000000 0.000000 0.000000 0.231573 0.000000
# 6 0.000000 0.000000 0.000000 0.000000 0.000000 0.027106
#
#
# Mechanical properties :
#
#
# Convention : Reuss Voigt Hill
#
# Bulk Modulus (GPa) = 23.57380 33.57207 28.57293
# Shear Modulus (GPa) = 14.39971 31.84878 23.12424
#
# Velocity S-wave (km/s) = 2.52909 3.76126 3.20494
# Velocity P-wave (km/s) = 4.35887 5.81165 5.13688
#
# Compressibility (1/GPa) = 0.04241997
#
# Stress axis : x y z
#
# Youngs Moduli (GPa) = 128.96444 87.81471 44.57266
#
# Poissons Ratio (x) = 0.19071 -0.01157
# Poissons Ratio (y) = 0.28008 -0.10402
# Poissons Ratio (z) = -0.03347 -0.20493
#
# Static dielectric constant tensor:
#      x y z
#    x 1.964010 0.000000 0.000000 
#    y 0.000000 1.781670 0.000000 
#    z 0.000000 0.000000 1.861370 
# 
# From -- ./inp_files/12748.got.cif
#   From: 2010.05.17/outbox.cif.g08.bks.cpg/sg40_7_cif.got.tgz:12748.got - 2010.06.03 18:35:42.
