data_PCOD9365702
_publ_section_title
;
Structure prediction by ZEFSAII (Michael W. Deem and Ramdas Pophale) SiO2 
 PCOD9365702
Probable space group: A B A 2
;
_chemical_formula_sum "Si O2"
_cell_formula_units_Z 48
_cell_length_a 11.658668
_cell_length_b 28.662522
_cell_length_c 5.531490
_cell_angle_alpha 90.000000
_cell_angle_beta 90.000000
_cell_angle_gamma 90.000000
_cell_volume 1848.440468
_symmetry_space_group_name_H-M "A B A 2"
_symmetry_group_IT_number 41
_symmetry_cell_setting 'orthorhombic'
loop_
_space_group_symop_operation_xyz
x,y,z
-x,-y,z
1/2-x,y,1/2+z
1/2+x,-y,1/2+z
x,1/2+y,1/2+z
-x,1/2-y,1/2+z
1/2-x,1/2+y,z
1/2+x,1/2-y,z
loop_
_atom_site_type_symbol
_atom_site_label
_atom_site_fract_x
_atom_site_fract_y
_atom_site_fract_z
Si Si1 0.623963 0.128232 0.112760
Si Si2 0.679964 0.384009 0.112226
Si Si3 0.177213 0.015362 0.112210
Si Si4 0.996925 0.720373 0.112185
Si Si5 0.245655 0.213237 0.612318
Si Si6 0.889144 0.589269 0.612759
O O1 0.605756 0.183468 0.112308
O O2 0.754264 0.108308 0.112901
O O3 0.566299 0.110079 0.360080
O O4 0.566286 0.109952 0.865701
O O5 0.750041 0.387864 0.362183
O O6 0.615319 0.434082 0.112314
O O7 0.659573 0.327870 0.112288
O O8 0.250071 0.013319 0.362123
O O9 0.112274 0.966422 0.112351
O O10 0.117289 0.692441 0.112260
O O11 0.000003 0.750016 0.362139
O O12 0.250008 0.240133 0.362317
#
# Coordination Sequence:
#
# PCOD9365702 Si02
#       6
#     8   8   8   8   8   8
#     4  10  20  35  54  81 118 150 187 237 301 349
#     4   8  16  27  52  84 108 149 192 238 270 327
#     4  10  14  25  48  85 116 143 193 234 265 340
#     4  12  26  45  61  89 120 154 197 261 314 350
#     4  10  21  43  64  88 114 159 205 244 294 358
#     4  10  17  33  55  87 114 155 189 221 288 357
#
# _framework density 25.967838
#
# number of rings (size 3 to 8) (size 9 to 14) (size 15 to 20)
#    0.000    2.000    3.333    2.000    0.000    0.000 
#   18.000    0.000    0.000    1.000    0.000    7.000 
#    0.000    0.000    0.000    0.000    0.000    0.000 
#
# Total GULP energy -133706.443024 kJ/mol
# GULP energy per Si atom -5571.101793 kJ/mol
# Density = 2.590873 g / cm^3
# Si number density = 25.967838 Si / 1000 Ang^3
#
#
#
# Elastic Constant Matrix: (Units=GPa)
#
#
# Indices 1 2 3 4 5 6 
#
# 1 69.2955 35.7790 7.8957 0.0000 0.0000 0.0000
# 2 35.7790 165.8315 89.8080 0.0000 0.0000 0.0000
# 3 7.8957 89.8080 318.1702 0.0000 0.0000 0.0000
# 4 0.0000 0.0000 0.0000 63.6093 0.0000 0.0000
# 5 0.0000 0.0000 0.0000 0.0000 18.4134 0.0000
# 6 0.0000 0.0000 0.0000 0.0000 0.0000 -124.6679
#
#
#
# Elastic Compliance Matrix: (Units=1/GPa)
#
#
# Indices 1 2 3 4 5 6 
#
# 1 0.016370 -0.003910 0.000697 0.000000 0.000000 0.000000
# 2 -0.003910 0.008052 -0.002176 0.000000 0.000000 0.000000
# 3 0.000697 -0.002176 0.003740 0.000000 0.000000 0.000000
# 4 0.000000 0.000000 0.000000 0.015721 0.000000 0.000000
# 5 0.000000 0.000000 0.000000 0.000000 0.054308 0.000000
# 6 0.000000 0.000000 0.000000 0.000000 0.000000 -0.008021
#
#
# Mechanical properties :
#
#
# Convention : Reuss Voigt Hill
#
# Bulk Modulus (GPa) = 57.51803 91.14029 74.32916
# Shear Modulus (GPa) = 46.84227 19.45861 33.15044
#
# Velocity S-wave (km/s) = 4.25179 2.74037 3.57682
# Velocity P-wave (km/s) = 6.80452 6.72208 6.76342
#
# Compressibility (1/GPa) = 0.01738585
#
# Stress axis : x y z
#
# Youngs Moduli (GPa) = 61.08700 124.19208 267.39303
#
# Poissons Ratio (x) = 0.48554 -0.18645
# Poissons Ratio (y) = 0.23882 0.58179
# Poissons Ratio (z) = -0.04260 0.27022
#
# Static dielectric constant tensor:
#      x y z
#    x 2.227950 0.000000 0.000000 
#    y 0.000000 2.016730 0.000000 
#    z 0.000000 0.000000 2.183660 
# 
# From -- ./inp_files/289.got.cif
#   From: 2010.05.17/outbox.cif.g08.bks.cpg/sg41_1_cif.got.tgz:289.got - 2010.06.03 18:54:24.
