data_PCOD9365353
_publ_section_title
;
Structure prediction by ZEFSAII (Michael W. Deem and Ramdas Pophale) SiO2 
 PCOD9365353
Probable space group: A M A 2
;
_chemical_formula_sum "Si O2"
_cell_formula_units_Z 64
_cell_length_a 19.467941
_cell_length_b 19.119048
_cell_length_c 9.180907
_cell_angle_alpha 90.000000
_cell_angle_beta 90.000000
_cell_angle_gamma 90.000000
_cell_volume 3417.211609
_symmetry_space_group_name_H-M "A M A 2"
_symmetry_group_IT_number 40
_symmetry_cell_setting 'orthorhombic'
loop_
_space_group_symop_operation_xyz
x,y,z
-x,-y,z
1/2-x,y,z
1/2+x,-y,z
x,1/2+y,1/2+z
-x,1/2-y,1/2+z
1/2-x,1/2+y,1/2+z
1/2+x,1/2-y,1/2+z
loop_
_atom_site_type_symbol
_atom_site_label
_atom_site_fract_x
_atom_site_fract_y
_atom_site_fract_z
Si Si1 0.324888 0.773067 0.633920
Si Si2 0.672775 0.485883 0.077549
Si Si3 0.328289 0.901763 0.842852
Si Si4 0.480853 0.419170 0.352873
Si Si5 0.528555 0.922029 0.537172
Si Si6 0.549754 0.803925 0.024416
Si Si7 0.674474 0.115238 0.367333
Si Si8 0.963638 0.176950 0.301637
O O1 0.250000 0.740638 0.640683
O O2 0.333336 0.824681 0.770544
O O3 0.380124 0.713712 0.607138
O O4 0.326027 0.828320 0.499645
O O5 0.750000 0.455286 0.075387
O O6 0.666330 0.539361 0.941276
O O7 0.669142 0.537744 0.217362
O O8 0.609125 0.432696 0.073797
O O9 0.250000 0.907185 0.906529
O O10 0.403496 0.910160 0.914227
O O11 0.500000 0.500000 0.351204
O O12 0.487913 0.395611 0.182279
O O13 0.536435 0.377023 0.445743
O O14 0.511621 0.874365 0.398673
O O15 0.500000 0.000000 0.508521
O O16 0.493136 0.799557 0.148937
O O17 0.543888 0.745043 0.901683
O O18 0.750000 0.119036 0.297556
O O19 0.608317 0.137105 0.277919
#
# Coordination Sequence:
#
# PCOD9365353 Si02
#       8
#     8   8   8   8   8   8   8   8
#     4   8  15  30  53  77 103 139 185 225 267 331
#     4   9  15  27  50  80 110 142 180 217 262 325
#     4   9  15  29  55  82 107 143 190 226 268 330
#     4  11  21  36  54  81 115 145 180 239 283 332
#     4  11  18  32  55  82 109 140 179 227 271 330
#     4  11  23  37  55  80 109 146 187 232 284 331
#     4   8  14  27  50  79 104 133 175 223 264 313
#     4  11  21  35  56  80 109 143 186 229 276 332
#
# _framework density 18.728719000000002
#
# number of rings (size 3 to 8) (size 9 to 14) (size 15 to 20)
#    0.000    2.250    3.750    4.500    0.000    0.500 
#    0.000    2.500    0.000    3.750    0.000    0.000 
#    0.000    0.000    0.000    0.000    0.000    0.000 
#
# Total GULP energy -178196.497028 kJ/mol
# GULP energy per Si atom -5568.640532 kJ/mol
# Density = 1.868609 g / cm^3
# Si number density = 18.728719 Si / 1000 Ang^3
#
#
#
# Elastic Constant Matrix: (Units=GPa)
#
#
# Indices 1 2 3 4 5 6 
#
# 1 127.5359 17.4081 0.0804 0.0000 0.0000 0.0000
# 2 17.4081 34.4724 1.9256 0.0000 0.0000 0.0000
# 3 0.0804 1.9256 26.6890 0.0000 0.0000 0.0000
# 4 0.0000 0.0000 0.0000 9.3911 0.0000 0.0000
# 5 0.0000 0.0000 0.0000 0.0000 3.3998 0.0000
# 6 0.0000 0.0000 0.0000 0.0000 0.0000 30.5629
#
#
#
# Elastic Compliance Matrix: (Units=1/GPa)
#
#
# Indices 1 2 3 4 5 6 
#
# 1 0.008424 -0.004270 0.000283 0.000000 0.000000 0.000000
# 2 -0.004270 0.031290 -0.002245 0.000000 0.000000 0.000000
# 3 0.000283 -0.002245 0.037630 0.000000 0.000000 0.000000
# 4 0.000000 0.000000 0.000000 0.106484 0.000000 0.000000
# 5 0.000000 0.000000 0.000000 0.000000 0.294136 0.000000
# 6 0.000000 0.000000 0.000000 0.000000 0.000000 0.032719
#
#
# Mechanical properties :
#
#
# Convention : Reuss Voigt Hill
#
# Bulk Modulus (GPa) = 15.41302 25.28062 20.34682
# Shear Modulus (GPa) = 9.17814 19.95629 14.56721
#
# Velocity S-wave (km/s) = 2.21612 3.26781 2.79193
# Velocity P-wave (km/s) = 3.84653 5.26932 4.61311
#
# Compressibility (1/GPa) = 0.06488021
#
# Stress axis : x y z
#
# Youngs Moduli (GPa) = 118.71510 31.95888 26.57476
#
# Poissons Ratio (x) = 0.13645 -0.00751
# Poissons Ratio (y) = 0.50686 0.05965
# Poissons Ratio (z) = -0.03356 0.07174
#
# Static dielectric constant tensor:
#      x y z
#    x 1.715630 0.000000 0.000000 
#    y 0.000000 1.611980 0.000000 
#    z 0.000000 0.000000 1.668380 
# 
# From -- ./inp_files/7797.got.cif
#   From: 2010.05.17/outbox.cif.g08.bks.cpg/sg40_4_cif.got.tgz:7797.got - 2010.06.03 18:35:42.
