data_PCOD9365053
_publ_section_title
;
Structure prediction by ZEFSAII (Michael W. Deem and Ramdas Pophale) SiO2 
 PCOD9365053
Probable space group: A M A 2
;
_chemical_formula_sum "Si O2"
_cell_formula_units_Z 60
_cell_length_a 27.428642
_cell_length_b 11.065779
_cell_length_c 8.959243
_cell_angle_alpha 90.000000
_cell_angle_beta 90.000000
_cell_angle_gamma 90.000000
_cell_volume 2719.303080
_symmetry_space_group_name_H-M "A M A 2"
_symmetry_group_IT_number 40
_symmetry_cell_setting 'orthorhombic'
loop_
_space_group_symop_operation_xyz
x,y,z
-x,-y,z
1/2-x,y,z
1/2+x,-y,z
x,1/2+y,1/2+z
-x,1/2-y,1/2+z
1/2-x,1/2+y,1/2+z
1/2+x,1/2-y,1/2+z
loop_
_atom_site_type_symbol
_atom_site_label
_atom_site_fract_x
_atom_site_fract_y
_atom_site_fract_z
Si Si1 0.987735 0.129854 0.047980
Si Si2 0.664269 0.174065 0.745960
Si Si3 0.173096 0.320782 0.901617
Si Si4 0.669590 0.918038 0.381822
Si Si5 0.548074 0.210252 0.744510
Si Si6 0.693800 0.415756 0.211486
Si Si7 0.419313 0.951539 0.313454
Si Si8 0.500000 0.500000 0.055432
O O1 0.946348 0.102447 0.171134
O O2 0.033727 0.175469 0.143391
O O3 0.970822 0.216496 0.915047
O O4 0.000000 0.000000 0.979288
O O5 0.681999 0.192980 0.576394
O O6 0.686513 0.285777 0.837392
O O7 0.605100 0.177064 0.748481
O O8 0.680766 0.040354 0.794941
O O9 0.195245 0.452011 0.854822
O O10 0.115270 0.345789 0.879586
O O11 0.187563 0.204435 0.808251
O O12 0.661718 0.914358 0.560487
O O13 0.619881 0.941940 0.289913
O O14 0.514311 0.110211 0.662643
O O15 0.750000 0.422299 0.161519
O O16 0.455030 0.000235 0.440115
#
# Coordination Sequence:
#
# PCOD9365053 Si02
#       8
#     8   8   8   8   8   8   8   4
#     4  12  26  42  61  98 137 186 239 279 324 406
#     4  11  24  45  69 101 138 177 228 289 348 418
#     4   9  23  43  66 100 136 179 224 282 348 410
#     4   9  23  45  69  99 133 180 223 287 347 415
#     4  12  27  40  66  98 140 189 237 289 339 390
#     4  11  25  46  73 103 134 176 227 291 364 435
#     4  10  22  42  66  95 140 187 233 286 335 401
#     4  12  20  44  64  96 142 192 238 286 330 398
#
# _framework density 22.064475999999999
#
# number of rings (size 3 to 8) (size 9 to 14) (size 15 to 20)
#    0.800    0.533    2.667    1.600    3.733    6.933 
#    0.000    0.000    0.000    0.000    0.000    0.000 
#    0.000    0.000    0.000    0.000    0.000    0.000 
#
# Total GULP energy -167277.164302 kJ/mol
# GULP energy per Si atom -5575.905477 kJ/mol
# Density = 2.201426 g / cm^3
# Si number density = 22.064476 Si / 1000 Ang^3
#
#
#
# Elastic Constant Matrix: (Units=GPa)
#
#
# Indices 1 2 3 4 5 6 
#
# 1 75.9955 9.7470 10.6007 0.0000 0.0000 0.0000
# 2 9.7470 169.8891 50.0569 0.0000 0.0000 0.0000
# 3 10.6007 50.0569 82.7880 0.0000 0.0000 0.0000
# 4 0.0000 0.0000 0.0000 37.1367 0.0000 0.0000
# 5 0.0000 0.0000 0.0000 0.0000 -21.5858 0.0000
# 6 0.0000 0.0000 0.0000 0.0000 0.0000 71.8155
#
#
#
# Elastic Compliance Matrix: (Units=1/GPa)
#
#
# Indices 1 2 3 4 5 6 
#
# 1 0.013412 -0.000321 -0.001524 0.000000 0.000000 0.000000
# 2 -0.000321 0.007170 -0.004294 0.000000 0.000000 0.000000
# 3 -0.001524 -0.004294 0.014870 0.000000 0.000000 0.000000
# 4 0.000000 0.000000 0.000000 0.026928 0.000000 0.000000
# 5 0.000000 0.000000 0.000000 0.000000 -0.046327 0.000000
# 6 0.000000 0.000000 0.000000 0.000000 0.000000 0.013925
#
#
# Mechanical properties :
#
#
# Convention : Reuss Voigt Hill
#
# Bulk Modulus (GPa) = 43.14781 52.16465 47.65623
# Shear Modulus (GPa) = 100.04050 34.69117 67.36584
#
# Velocity S-wave (km/s) = 6.74081 3.96948 5.53151
# Velocity P-wave (km/s) = 8.95447 6.68598 7.90205
#
# Compressibility (1/GPa) = 0.02317615
#
# Stress axis : x y z
#
# Youngs Moduli (GPa) = 74.55836 139.47360 67.24725
#
# Poissons Ratio (x) = 0.04472 0.10245
# Poissons Ratio (y) = 0.02390 0.28877
# Poissons Ratio (z) = 0.11359 0.59891
#
# Static dielectric constant tensor:
#      x y z
#    x 1.842090 0.000000 0.000000 
#    y 0.000000 1.900920 0.000000 
#    z 0.000000 0.000000 1.765370 
# 
# From -- ./inp_files/9151.got.cif
#   From: 2010.05.17/outbox.cif.g08.bks.cpg/sg40_5_cif.got.tgz:9151.got - 2010.06.03 18:35:42.
