data_PCOD9365603
_publ_section_title
;
Structure prediction by ZEFSAII (Michael W. Deem and Ramdas Pophale) SiO2 
 PCOD9365603
Probable space group: A M A 2
;
_chemical_formula_sum "Si O2"
_cell_formula_units_Z 40
_cell_length_a 11.430755
_cell_length_b 17.757904
_cell_length_c 6.803531
_cell_angle_alpha 90.000000
_cell_angle_beta 90.000000
_cell_angle_gamma 90.000000
_cell_volume 1381.023244
_symmetry_space_group_name_H-M "A M A 2"
_symmetry_group_IT_number 40
_symmetry_cell_setting 'orthorhombic'
loop_
_space_group_symop_operation_xyz
x,y,z
-x,-y,z
1/2-x,y,z
1/2+x,-y,z
x,1/2+y,1/2+z
-x,1/2-y,1/2+z
1/2-x,1/2+y,1/2+z
1/2+x,1/2-y,1/2+z
loop_
_atom_site_type_symbol
_atom_site_label
_atom_site_fract_x
_atom_site_fract_y
_atom_site_fract_z
Si Si1 0.625196 0.285456 0.860560
Si Si2 0.877200 0.019464 0.536375
Si Si3 0.623701 0.112610 0.922156
Si Si4 0.623363 0.728528 0.912069
Si Si5 0.376388 0.105198 0.876089
O O1 0.750000 0.323535 0.905428
O O2 0.625632 0.202116 0.958229
O O3 0.627806 0.262176 0.631351
O O4 0.495378 0.317695 0.887886
O O5 0.750000 0.020494 0.434535
O O6 0.873650 0.952297 0.697286
O O7 0.879789 0.091332 0.687960
O O8 0.000000 0.000000 0.431081
O O9 0.750000 0.082293 0.989228
O O10 0.495652 0.087883 0.992308
O O11 0.750000 0.693937 0.869061
O O12 0.613325 0.808782 0.796682
O O13 0.250000 0.099403 0.977667
#
# Coordination Sequence:
#
# PCOD9365603 Si02
#       5
#     8   8   8   8   8
#     4   9  17  28  41  58  82 111 140 169 203 245
#     4   8  12  18  30  48  70  94 118 150 194 234
#     4   8  13  21  33  50  73  98 123 154 193 234
#     4   9  17  28  41  58  82 111 140 169 203 245
#     4   8  13  21  33  50  73  98 123 154 193 234
#
# _framework density 28.964029
#
# number of rings (size 3 to 8) (size 9 to 14) (size 15 to 20)
#    0.000    3.600    0.000    0.000    0.000    0.800 
#    0.000    0.000    0.000    0.000    0.000    0.000 
#    0.000   40.000    0.000  410.400    0.000   50.400 
#
# Total GULP energy -111627.865851 kJ/mol
# GULP energy per Si atom -5581.393293 kJ/mol
# Density = 2.889811 g / cm^3
# Si number density = 28.964029 Si / 1000 Ang^3
#
#
#
# Elastic Constant Matrix: (Units=GPa)
#
#
# Indices 1 2 3 4 5 6 
#
# 1 438.0215 4.1996 39.7337 0.0000 0.0000 0.0000
# 2 4.1996 124.3070 19.3929 0.0000 0.0000 0.0000
# 3 39.7337 19.3929 72.3990 0.0000 0.0000 0.0000
# 4 0.0000 0.0000 0.0000 31.6410 0.0000 0.0000
# 5 0.0000 0.0000 0.0000 0.0000 6.5784 0.0000
# 6 0.0000 0.0000 0.0000 0.0000 0.0000 11.3985
#
#
#
# Elastic Compliance Matrix: (Units=1/GPa)
#
#
# Indices 1 2 3 4 5 6 
#
# 1 0.002405 0.000130 -0.001355 0.000000 0.000000 0.000000
# 2 0.000130 0.008402 -0.002322 0.000000 0.000000 0.000000
# 3 -0.001355 -0.002322 0.015178 0.000000 0.000000 0.000000
# 4 0.000000 0.000000 0.000000 0.031605 0.000000 0.000000
# 5 0.000000 0.000000 0.000000 0.000000 0.152012 0.000000
# 6 0.000000 0.000000 0.000000 0.000000 0.000000 0.087731
#
#
# Mechanical properties :
#
#
# Convention : Reuss Voigt Hill
#
# Bulk Modulus (GPa) = 52.93316 84.59773 68.76544
# Shear Modulus (GPa) = 16.09152 48.01700 32.05426
#
# Velocity S-wave (km/s) = 2.35961 4.07604 3.33031
# Velocity P-wave (km/s) = 5.07334 7.17101 6.21137
#
# Compressibility (1/GPa) = 0.01889175
#
# Stress axis : x y z
#
# Youngs Moduli (GPa) = 415.86649 119.01263 65.88597
#
# Poissons Ratio (x) = -0.01548 0.08924
# Poissons Ratio (y) = -0.05410 0.15299
# Poissons Ratio (z) = 0.56331 0.27636
#
# Static dielectric constant tensor:
#      x y z
#    x 2.297080 0.000000 0.000000 
#    y 0.000000 2.237060 0.000000 
#    z 0.000000 0.000000 2.298430 
# 
# From -- ./inp_files/800.got.cif
#   From: 2010.05.17/outbox.cif.g08.bks.cpg/sg40_1_cif.got.tgz:800.got - 2010.06.03 18:35:42.
