data_PCOD9365709
_publ_section_title
;
Structure prediction by ZEFSAII (Michael W. Deem and Ramdas Pophale) SiO2 
 PCOD9365709
Probable space group: A B A 2
;
_chemical_formula_sum "Si O2"
_cell_formula_units_Z 56
_cell_length_a 13.474937
_cell_length_b 5.469829
_cell_length_c 34.205640
_cell_angle_alpha 90.000000
_cell_angle_beta 90.000000
_cell_angle_gamma 90.000000
_cell_volume 2521.147260
_symmetry_space_group_name_H-M "A B A 2"
_symmetry_group_IT_number 41
_symmetry_cell_setting 'orthorhombic'
loop_
_space_group_symop_operation_xyz
x,y,z
-x,-y,z
1/2-x,y,1/2+z
1/2+x,-y,1/2+z
x,1/2+y,1/2+z
-x,1/2-y,1/2+z
1/2-x,1/2+y,z
1/2+x,1/2-y,z
loop_
_atom_site_type_symbol
_atom_site_label
_atom_site_fract_x
_atom_site_fract_y
_atom_site_fract_z
Si Si1 0.500000 0.000000 0.625000
Si Si2 0.500000 0.000000 0.174614
Si Si3 0.358915 0.595378 0.821577
Si Si4 0.638296 0.906903 0.023750
Si Si5 0.812190 0.510515 0.935819
Si Si6 0.687897 0.982667 0.231339
Si Si7 0.133940 0.592426 0.554072
Si Si8 0.868760 0.404129 0.852145
O O1 0.498102 0.749865 0.649509
O O2 0.597175 0.984517 0.596936
O O3 0.596482 0.997153 0.201994
O O4 0.348467 0.526053 0.776296
O O5 0.248487 0.618591 0.840508
O O6 0.403657 0.864108 0.827115
O O7 0.407026 0.364863 0.842982
O O8 0.598428 0.633422 0.027544
O O9 0.749353 0.884174 0.042999
O O10 0.592785 0.137600 0.045988
O O11 0.641374 0.981985 0.978542
O O12 0.735765 0.280417 0.933692
O O13 0.878168 0.472945 0.897468
O O14 0.752960 0.227987 0.225748
#
# Coordination Sequence:
#
# PCOD9365709 Si02
#       8
#     4   4   8   8   8   8   8   8
#     4  12  26  50  64  90 129 152 209 266 334 402
#     4  12  30  50  66 106 133 160 223 270 340 416
#     4  10  16  29  51  83 119 154 216 245 295 386
#     4  10  19  35  55  92 118 151 218 240 299 377
#     4  12  16  25  46  80 129 153 191 279 296 333
#     4  12  23  45  72  95 133 175 215 272 329 396
#     4  10  20  37  61  80 115 155 189 258 299 374
#     4  10  16  25  46  87 124 158 206 263 299 357
#
# _framework density 22.212109999999999
#
# number of rings (size 3 to 8) (size 9 to 14) (size 15 to 20)
#    0.000    1.143    8.571    1.714    0.000    0.000 
#   15.429    0.000    0.000    0.000    0.000   11.000 
#    0.000    0.000    0.000    0.000    0.000    0.000 
#
# Total GULP energy -156323.608954 kJ/mol
# GULP energy per Si atom -5582.986034 kJ/mol
# Density = 2.216155 g / cm^3
# Si number density = 22.212110 Si / 1000 Ang^3
#
#
#
# Elastic Constant Matrix: (Units=GPa)
#
#
# Indices 1 2 3 4 5 6 
#
# 1 62.4785 25.8013 25.7344 0.0000 0.0000 0.0000
# 2 25.8013 184.2411 26.5007 0.0000 0.0000 0.0000
# 3 25.7344 26.5007 141.8787 0.0000 0.0000 0.0000
# 4 0.0000 0.0000 0.0000 41.5841 0.0000 0.0000
# 5 0.0000 0.0000 0.0000 0.0000 -309.8769 0.0000
# 6 0.0000 0.0000 0.0000 0.0000 0.0000 31.5545
#
#
#
# Elastic Compliance Matrix: (Units=1/GPa)
#
#
# Indices 1 2 3 4 5 6 
#
# 1 0.018066 -0.002115 -0.002882 0.000000 0.000000 0.000000
# 2 -0.002115 0.005825 -0.000704 0.000000 0.000000 0.000000
# 3 -0.002882 -0.000704 0.007703 0.000000 0.000000 0.000000
# 4 0.000000 0.000000 0.000000 0.024048 0.000000 0.000000
# 5 0.000000 0.000000 0.000000 0.000000 -0.003227 0.000000
# 6 0.000000 0.000000 0.000000 0.000000 0.000000 0.031691
#
#
# Mechanical properties :
#
#
# Convention : Reuss Voigt Hill
#
# Bulk Modulus (GPa) = 49.52775 60.51901 55.02338
# Shear Modulus (GPa) = 48.90499 -26.64355 11.13072
#
# Velocity S-wave (km/s) = 4.69735 -3.46715 2.24098
# Velocity P-wave (km/s) = 7.19487 3.35812 5.61441
#
# Compressibility (1/GPa) = 0.02019070
#
# Stress axis : x y z
#
# Youngs Moduli (GPa) = 55.35231 171.66678 129.82741
#
# Poissons Ratio (x) = 0.36316 0.37413
# Poissons Ratio (y) = 0.11710 0.09144
# Poissons Ratio (z) = 0.15951 0.12091
#
# Static dielectric constant tensor:
#      x y z
#    x 1.825680 0.000000 0.000000 
#    y 0.000000 1.846920 0.000000 
#    z 0.000000 0.000000 1.777640 
# 
# From -- ./inp_files/12741.got.cif
#   From: 2010.05.17/outbox.cif.g08.bks.cpg/sg41_7_cif.got.tgz:12741.got - 2010.06.03 18:54:24.
