data_PCOD9365639
_publ_section_title
;
Structure prediction by ZEFSAII (Michael W. Deem and Ramdas Pophale) SiO2 
 PCOD9365639
Probable space group: A M A 2
;
_chemical_formula_sum "Si O2"
_cell_formula_units_Z 32
_cell_length_a 18.000000
_cell_length_b 12.000000
_cell_length_c 15.000000
_cell_angle_alpha 90.000000
_cell_angle_beta 90.000000
_cell_angle_gamma 90.000000
_cell_volume 3240.000000
_symmetry_space_group_name_H-M "A M A 2"
_symmetry_group_IT_number 40
_symmetry_cell_setting 'orthorhombic'
loop_
_space_group_symop_operation_xyz
x,y,z
-x,-y,z
1/2-x,y,z
1/2+x,-y,z
x,1/2+y,1/2+z
-x,1/2-y,1/2+z
1/2-x,1/2+y,1/2+z
1/2+x,1/2-y,1/2+z
loop_
_atom_site_type_symbol
_atom_site_label
_atom_site_fract_x
_atom_site_fract_y
_atom_site_fract_z
Si Si1 0.569370 0.286920 0.552880
Si Si2 0.096915 0.789245 0.090972
Si Si3 0.423294 0.935122 0.437077
Si Si4 0.160668 0.823963 0.704712
Si Si5 0.165074 0.613275 0.400880
Si Si6 0.837784 0.676296 0.778734
Si Si7 0.336073 0.350474 0.398877
Si Si8 0.838559 0.453301 0.094461
O O1 0.489575 0.319766 0.590251
O O2 0.557992 0.174640 0.494867
O O3 0.623615 0.258140 0.634137
O O4 0.609061 0.366865 0.482230
O O5 0.137889 0.840442 0.176763
O O6 0.113422 0.657860 0.105621
O O7 0.126317 0.821362 0.992525
O O8 0.384924 0.899950 0.345371
O O9 0.500000 0.000000 0.424685
O O10 0.363423 0.999522 0.498350
O O11 0.250000 0.813159 0.704450
O O12 0.133245 0.802349 0.805616
O O13 0.145393 0.949076 0.666519
O O14 0.250000 0.640449 0.429747
O O15 0.149831 0.697263 0.318335
O O16 0.162554 0.483076 0.380209
O O17 0.750000 0.655123 0.786864
O O18 0.250000 0.316158 0.407718
O O19 0.750000 0.428658 0.098214
#
# Coordination Sequence:
#
# PCOD9365639 Si02
#       8
#     8   8   8   8   8   8   8   8
#     4  10  21  36  58  86 116 151 188 235 295 339
#     4  12  23  36  55  83 123 153 188 238 287 343
#     4  10  19  38  59  85 115 145 186 244 286 337
#     4   9  19  36  61  88 113 146 194 240 288 347
#     4   9  19  39  63  82 108 149 199 240 282 344
#     4  10  21  38  61  85 111 151 197 236 281 342
#     4  10  21  38  58  83 115 150 192 243 286 334
#     4  10  19  35  61  86 112 150 190 232 289 348
#
# _framework density 9.8765429999999999
#
# number of rings (size 3 to 8) (size 9 to 14) (size 15 to 20)
#    0.000    2.000    1.250    2.625    0.000    7.500 
#    2.250    1.250    0.000    3.000    0.000    0.000 
#    0.000    0.000    0.000    0.000    0.000    0.000 
#
# Total GULP energy -178593.570421 kJ/mol
# GULP energy per Si atom -5581.049076 kJ/mol
# Density = 0.985406 g / cm^3
# Si number density = 9.876543 Si / 1000 Ang^3
#
#
#
# Elastic Constant Matrix: (Units=GPa)
#
#
# Indices 1 2 3 4 5 6 
#
# 1 58.3978 -6.3472 32.9640 0.0000 0.0000 0.0000
# 2 -6.3472 -2.8484 2.7539 0.0000 0.0000 0.0000
# 3 32.9640 2.7539 152.2753 0.0000 0.0000 0.0000
# 4 0.0000 0.0000 0.0000 10.2224 0.0000 0.0000
# 5 0.0000 0.0000 0.0000 0.0000 28.7749 0.0000
# 6 0.0000 0.0000 0.0000 0.0000 0.0000 20.6057
#
#
#
# Elastic Compliance Matrix: (Units=1/GPa)
#
#
# Indices 1 2 3 4 5 6 
#
# 1 0.014728 -0.035285 -0.002550 0.000000 0.000000 0.000000
# 2 -0.035285 -0.260504 0.012350 0.000000 0.000000 0.000000
# 3 -0.002550 0.012350 0.006896 0.000000 0.000000 0.000000
# 4 0.000000 0.000000 0.000000 0.097824 0.000000 0.000000
# 5 0.000000 0.000000 0.000000 0.000000 0.034752 0.000000
# 6 0.000000 0.000000 0.000000 0.000000 0.000000 0.048530
#
#
# Mechanical properties :
#
#
# Convention : Reuss Voigt Hill
#
# Bulk Modulus (GPa) = -3.45005 29.61846 13.08421
# Shear Modulus (GPa) = -48.34711 23.81752 -12.26480
#
# Velocity S-wave (km/s) = -4.95266 3.47618 -2.49450
# Velocity P-wave (km/s) = 5.86988 5.58020 1.28781
#
# Compressibility (1/GPa) = -0.28985085
#
# Stress axis : x y z
#
# Youngs Moduli (GPa) = 67.89603 -3.83871 145.01641
#
# Poissons Ratio (x) = -0.13545 0.36982
# Poissons Ratio (y) = 2.39570 -1.79090
# Poissons Ratio (z) = 0.17315 0.04741
#
# Static dielectric constant tensor:
#      x y z
#    x 1.677390 0.000000 0.000000 
#    y 0.000000 1.719550 0.000000 
#    z 0.000000 0.000000 1.684020 
# 
# From -- ./inp_files/17857.got.cif
#   From: 2010.05.17/outbox.ucp.g08.bks.cvg/sg40_9_cif.got.tgz:17857.got - 2010.06.11 16:26:39.
