data_PCOD9365227
_publ_section_title
;
Structure prediction by ZEFSAII (Michael W. Deem and Ramdas Pophale) SiO2 
 PCOD9365227
Probable space group: A M A 2
;
_chemical_formula_sum "Si O2"
_cell_formula_units_Z 64
_cell_length_a 16.184940
_cell_length_b 15.421893
_cell_length_c 12.201646
_cell_angle_alpha 90.000000
_cell_angle_beta 90.000000
_cell_angle_gamma 90.000000
_cell_volume 3045.560283
_symmetry_space_group_name_H-M "A M A 2"
_symmetry_group_IT_number 40
_symmetry_cell_setting 'orthorhombic'
loop_
_space_group_symop_operation_xyz
x,y,z
-x,-y,z
1/2-x,y,z
1/2+x,-y,z
x,1/2+y,1/2+z
-x,1/2-y,1/2+z
1/2-x,1/2+y,1/2+z
1/2+x,1/2-y,1/2+z
loop_
_atom_site_type_symbol
_atom_site_label
_atom_site_fract_x
_atom_site_fract_y
_atom_site_fract_z
Si Si1 0.598396 0.506668 0.039410
Si Si2 0.348483 0.129317 0.106413
Si Si3 0.655806 0.639202 0.384574
Si Si4 0.104168 0.656229 0.175402
Si Si5 0.587830 0.182925 0.654854
Si Si6 0.154763 0.843496 0.127477
Si Si7 0.909946 0.456728 0.388497
Si Si8 0.349651 0.492993 0.788866
O O1 0.500000 0.500000 0.060000
O O2 0.635361 0.420499 0.095548
O O3 0.624391 0.596354 0.097810
O O4 0.614549 0.508371 0.910371
O O5 0.250000 0.120860 0.089052
O O6 0.373897 0.229175 0.109567
O O7 0.368324 0.079777 0.219946
O O8 0.394839 0.081538 0.007908
O O9 0.750000 0.671925 0.380356
O O10 0.606489 0.679262 0.284225
O O11 0.618015 0.655429 0.505028
O O12 0.652728 0.535837 0.369780
O O13 0.152209 0.746042 0.170604
O O14 0.101380 0.615218 0.295882
O O15 0.010615 0.680442 0.140454
O O16 0.250000 0.871677 0.110594
O O17 0.119698 0.912255 0.214071
O O18 0.000000 0.500000 0.376531
O O19 0.250000 0.486409 0.799660
#
# Coordination Sequence:
#
# PCOD9365227 Si02
#       8
#     8   8   8   8   8   8   8   8
#     4  10  23  44  62  89 130 169 210 261 320 385
#     4  11  26  44  66  99 134 172 220 271 327 393
#     4  11  22  43  70  92 126 172 216 267 327 388
#     4  11  24  43  66  96 131 169 217 269 330 390
#     4  11  24  43  66  96 132 171 214 273 325 392
#     4  10  24  43  65  95 130 169 218 270 325 392
#     4  12  23  44  70  98 130 168 220 277 328 386
#     4  10  23  44  63  89 130 168 210 263 317 382
#
# _framework density 21.014196999999999
#
# number of rings (size 3 to 8) (size 9 to 14) (size 15 to 20)
#    0.000    1.250    3.750    1.125    5.250    4.000 
#    0.000    0.000    0.000    0.000    0.000    0.000 
#    0.000    0.000    0.000    0.000    0.000    0.000 
#
# Total GULP energy -178869.859798 kJ/mol
# GULP energy per Si atom -5589.683119 kJ/mol
# Density = 2.096637 g / cm^3
# Si number density = 21.014197 Si / 1000 Ang^3
#
#
#
# Elastic Constant Matrix: (Units=GPa)
#
#
# Indices 1 2 3 4 5 6 
#
# 1 23.7257 0.8687 2.6874 0.0000 0.0000 0.0000
# 2 0.8687 87.1687 14.5994 0.0000 0.0000 0.0000
# 3 2.6874 14.5994 96.5379 0.0000 0.0000 0.0000
# 4 0.0000 0.0000 0.0000 30.7253 0.0000 0.0000
# 5 0.0000 0.0000 0.0000 0.0000 26.9046 0.0000
# 6 0.0000 0.0000 0.0000 0.0000 0.0000 31.9787
#
#
#
# Elastic Compliance Matrix: (Units=1/GPa)
#
#
# Indices 1 2 3 4 5 6 
#
# 1 0.042286 -0.000230 -0.001142 0.000000 0.000000 0.000000
# 2 -0.000230 0.011771 -0.001774 0.000000 0.000000 0.000000
# 3 -0.001142 -0.001774 0.010659 0.000000 0.000000 0.000000
# 4 0.000000 0.000000 0.000000 0.032546 0.000000 0.000000
# 5 0.000000 0.000000 0.000000 0.000000 0.037168 0.000000
# 6 0.000000 0.000000 0.000000 0.000000 0.000000 0.031271
#
#
# Mechanical properties :
#
#
# Convention : Reuss Voigt Hill
#
# Bulk Modulus (GPa) = 17.11632 27.08258 22.09945
# Shear Modulus (GPa) = 26.11390 30.54016 28.32703
#
# Velocity S-wave (km/s) = 3.52899 3.81637 3.67549
# Velocity P-wave (km/s) = 4.97673 5.68641 5.34336
#
# Compressibility (1/GPa) = 0.05842377
#
# Stress axis : x y z
#
# Youngs Moduli (GPa) = 23.64841 84.95177 93.82026
#
# Poissons Ratio (x) = 0.01955 0.10717
# Poissons Ratio (y) = 0.00544 0.16642
# Poissons Ratio (z) = 0.02701 0.15069
#
# Static dielectric constant tensor:
#      x y z
#    x 1.773490 0.000000 0.000000 
#    y 0.000000 1.740980 0.000000 
#    z 0.000000 0.000000 1.736130 
# 
# From -- ./inp_files/13122.got.cif
#   From: 2010.05.17/outbox.cif.g08.bks.cpg/sg40_7_cif.got.tgz:13122.got - 2010.06.03 18:35:42.
