data_PCOD9365003
_publ_section_title
;
Structure prediction by ZEFSAII (Michael W. Deem and Ramdas Pophale) SiO2 
 PCOD9365003
Probable space group: A M A 2
;
_chemical_formula_sum "Si O2"
_cell_formula_units_Z 64
_cell_length_a 18.451976
_cell_length_b 14.875022
_cell_length_c 11.484514
_cell_angle_alpha 90.000000
_cell_angle_beta 90.000000
_cell_angle_gamma 90.000000
_cell_volume 3152.195315
_symmetry_space_group_name_H-M "A M A 2"
_symmetry_group_IT_number 40
_symmetry_cell_setting 'orthorhombic'
loop_
_space_group_symop_operation_xyz
x,y,z
-x,-y,z
1/2-x,y,z
1/2+x,-y,z
x,1/2+y,1/2+z
-x,1/2-y,1/2+z
1/2-x,1/2+y,1/2+z
1/2+x,1/2-y,1/2+z
loop_
_atom_site_type_symbol
_atom_site_label
_atom_site_fract_x
_atom_site_fract_y
_atom_site_fract_z
Si Si1 0.580781 0.539701 0.070220
Si Si2 0.441454 0.130521 0.215468
Si Si3 0.669940 0.600745 0.450880
Si Si4 0.104514 0.610634 0.254455
Si Si5 0.555701 0.163524 0.767954
Si Si6 0.170731 0.784868 0.172477
Si Si7 0.834658 0.401480 0.511063
Si Si8 0.400369 0.442722 0.798950
O O1 0.500000 0.500000 0.058169
O O2 0.618430 0.467601 0.158799
O O3 0.577215 0.633144 0.138560
O O4 0.603896 0.558105 0.938758
O O5 0.441890 0.228684 0.274626
O O6 0.524323 0.094328 0.237384
O O7 0.395405 0.048473 0.270177
O O8 0.399996 0.139485 0.089858
O O9 0.750000 0.594502 0.398052
O O10 0.610971 0.617642 0.355220
O O11 0.667343 0.681928 0.540901
O O12 0.658483 0.509506 0.522858
O O13 0.114620 0.706707 0.194063
O O14 0.150968 0.610319 0.372702
O O15 0.020694 0.614733 0.291626
O O16 0.250000 0.746913 0.197279
O O17 0.157427 0.872708 0.250019
O O18 0.750000 0.376129 0.539081
#
# Coordination Sequence:
#
# PCOD9365003 Si02
#       8
#     8   8   8   8   8   8   8   8
#     4  10  22  41  62  94 137 169 212 271 326 382
#     4  11  24  39  67  96 127 173 215 274 328 386
#     4  10  23  43  65  91 133 173 217 273 325 391
#     4  11  24  41  68  99 128 174 220 273 325 395
#     4  11  24  39  66 100 128 169 219 272 327 393
#     4  11  24  44  67  96 132 173 218 269 331 396
#     4  11  24  44  67  94 133 175 222 276 333 393
#     4  11  23  43  62  96 134 171 215 272 328 394
#
# _framework density 20.303311000000001
#
# number of rings (size 3 to 8) (size 9 to 14) (size 15 to 20)
#    0.000    1.250    5.000    0.375    5.250    0.500 
#    0.000    1.875    0.000    0.000    0.000    0.000 
#    0.000    0.000    0.000    0.000    0.000    0.000 
#
# Total GULP energy -178267.565474 kJ/mol
# GULP energy per Si atom -5570.861421 kJ/mol
# Density = 2.025710 g / cm^3
# Si number density = 20.303311 Si / 1000 Ang^3
#
#
#
# Elastic Constant Matrix: (Units=GPa)
#
#
# Indices 1 2 3 4 5 6 
#
# 1 69.3346 4.2836 33.1224 0.0000 0.0000 0.0000
# 2 4.2836 69.4153 -8.3301 0.0000 0.0000 0.0000
# 3 33.1224 -8.3301 79.7405 0.0000 0.0000 0.0000
# 4 0.0000 0.0000 0.0000 18.6620 0.0000 0.0000
# 5 0.0000 0.0000 0.0000 0.0000 19.7892 0.0000
# 6 0.0000 0.0000 0.0000 0.0000 0.0000 14.1882
#
#
#
# Elastic Compliance Matrix: (Units=1/GPa)
#
#
# Indices 1 2 3 4 5 6 
#
# 1 0.018281 -0.002065 -0.007809 0.000000 0.000000 0.000000
# 2 -0.002065 0.014822 0.002406 0.000000 0.000000 0.000000
# 3 -0.007809 0.002406 0.016036 0.000000 0.000000 0.000000
# 4 0.000000 0.000000 0.000000 0.053585 0.000000 0.000000
# 5 0.000000 0.000000 0.000000 0.000000 0.050533 0.000000
# 6 0.000000 0.000000 0.000000 0.000000 0.000000 0.070481
#
#
# Mechanical properties :
#
#
# Convention : Reuss Voigt Hill
#
# Bulk Modulus (GPa) = 29.23754 30.73802 29.98778
# Shear Modulus (GPa) = 19.99398 23.15550 21.57474
#
# Velocity S-wave (km/s) = 3.14150 3.38076 3.26332
# Velocity P-wave (km/s) = 5.25265 5.51468 5.38526
#
# Compressibility (1/GPa) = 0.03420261
#
# Stress axis : x y z
#
# Youngs Moduli (GPa) = 54.70148 67.46608 62.36026
#
# Poissons Ratio (x) = 0.13934 0.48699
# Poissons Ratio (y) = 0.11297 -0.15006
# Poissons Ratio (z) = 0.42718 -0.16234
#
# Static dielectric constant tensor:
#      x y z
#    x 1.891070 0.000000 0.000000 
#    y 0.000000 1.731420 0.000000 
#    z 0.000000 0.000000 1.749190 
# 
# From -- ./inp_files/13120.got.cif
#   From: 2010.05.17/outbox.cif.g08.bks.cpg/sg40_7_cif.got.tgz:13120.got - 2010.06.03 18:35:42.
