data_PCOD9365150
_publ_section_title
;
Structure prediction by ZEFSAII (Michael W. Deem and Ramdas Pophale) SiO2 
 PCOD9365150
Probable space group: A M A 2
;
_chemical_formula_sum "Si O2"
_cell_formula_units_Z 36
_cell_length_a 18.519014
_cell_length_b 8.050720
_cell_length_c 10.145880
_cell_angle_alpha 90.000000
_cell_angle_beta 90.000000
_cell_angle_gamma 90.000000
_cell_volume 1512.663417
_symmetry_space_group_name_H-M "A M A 2"
_symmetry_group_IT_number 40
_symmetry_cell_setting 'orthorhombic'
loop_
_space_group_symop_operation_xyz
x,y,z
-x,-y,z
1/2-x,y,z
1/2+x,-y,z
x,1/2+y,1/2+z
-x,1/2-y,1/2+z
1/2-x,1/2+y,1/2+z
1/2+x,1/2-y,1/2+z
loop_
_atom_site_type_symbol
_atom_site_label
_atom_site_fract_x
_atom_site_fract_y
_atom_site_fract_z
Si Si1 0.250000 0.271016 0.138420
Si Si2 0.750000 0.013621 0.938290
Si Si3 0.483790 0.308479 0.942334
Si Si4 0.082709 0.313220 0.213813
Si Si5 0.250000 0.158415 0.561186
Si Si6 0.129313 0.156053 0.762105
O O1 0.250000 0.090772 0.070982
O O2 0.168192 0.274116 0.197515
O O3 0.250000 0.454689 0.058335
O O4 0.750000 0.212712 0.941981
O O5 0.818164 0.941318 0.860992
O O6 0.500000 0.500000 0.953310
O O7 0.548998 0.231727 0.855821
O O8 0.414704 0.285849 0.846506
O O9 0.461125 0.240049 0.087122
O O10 0.078884 0.513010 0.204957
O O11 0.179899 0.213992 0.644476
#
# Coordination Sequence:
#
# PCOD9365150 Si02
#       6
#     4   4   8   8   4   8
#     4  10  22  48  74 106 145 192 253 311 361 457
#     4  11  21  43  77 104 144 198 244 309 376 435
#     4  12  26  43  70 106 143 198 244 301 374 448
#     4  11  26  49  71 101 153 187 245 312 369 434
#     4   9  23  41  73 108 145 190 245 312 373 432
#     4  10  23  45  67 104 149 188 248 307 363 453
#
# _framework density 23.799081000000001
#
# number of rings (size 3 to 8) (size 9 to 14) (size 15 to 20)
#    0.000    1.333    2.222    2.667    3.111    7.111 
#    0.000    3.333    0.000    1.333    0.000    0.000 
#    0.000    0.000    0.000    0.000    0.000    0.000 
#
# Total GULP energy -100370.747582 kJ/mol
# GULP energy per Si atom -5576.152643 kJ/mol
# Density = 2.374491 g / cm^3
# Si number density = 23.799081 Si / 1000 Ang^3
#
#
#
# Elastic Constant Matrix: (Units=GPa)
#
#
# Indices 1 2 3 4 5 6 
#
# 1 162.1284 39.3314 68.6984 0.0000 0.0000 0.0000
# 2 39.3314 64.7276 29.5080 0.0000 0.0000 0.0000
# 3 68.6984 29.5080 101.7282 0.0000 0.0000 0.0000
# 4 0.0000 0.0000 0.0000 32.2521 0.0000 0.0000
# 5 0.0000 0.0000 0.0000 0.0000 160.8175 0.0000
# 6 0.0000 0.0000 0.0000 0.0000 0.0000 81.3575
#
#
#
# Elastic Compliance Matrix: (Units=1/GPa)
#
#
# Indices 1 2 3 4 5 6 
#
# 1 0.009172 -0.003168 -0.005275 0.000000 0.000000 0.000000
# 2 -0.003168 0.018898 -0.003342 0.000000 0.000000 0.000000
# 3 -0.005275 -0.003342 0.014362 0.000000 0.000000 0.000000
# 4 0.000000 0.000000 0.000000 0.031006 0.000000 0.000000
# 5 0.000000 0.000000 0.000000 0.000000 0.006218 0.000000
# 6 0.000000 0.000000 0.000000 0.000000 0.000000 0.012291
#
#
# Mechanical properties :
#
#
# Convention : Reuss Voigt Hill
#
# Bulk Modulus (GPa) = 53.01921 67.07331 60.04626
# Shear Modulus (GPa) = 41.04950 67.62185 54.33567
#
# Velocity S-wave (km/s) = 4.15762 5.33623 4.78336
# Velocity P-wave (km/s) = 6.73602 8.13704 7.46945
#
# Compressibility (1/GPa) = 0.01886109
#
# Stress axis : x y z
#
# Youngs Moduli (GPa) = 109.03205 52.91501 69.63029
#
# Poissons Ratio (x) = 0.16766 0.36727
# Poissons Ratio (y) = 0.34547 0.23271
# Poissons Ratio (z) = 0.57510 0.17684
#
# Static dielectric constant tensor:
#      x y z
#    x 1.893240 0.000000 0.000000 
#    y 0.000000 1.877150 0.000000 
#    z 0.000000 0.000000 2.078090 
# 
# From -- ./inp_files/13399.got.cif
#   From: 2010.05.17/outbox.cif.g08.bks.cpg/sg40_7_cif.got.tgz:13399.got - 2010.06.03 18:35:42.
