data_PCOD9365736
_publ_section_title
;
Structure prediction by ZEFSAII (Michael W. Deem and Ramdas Pophale) SiO2 
 PCOD9365736
Probable space group: A B A 2
;
_chemical_formula_sum "Si O2"
_cell_formula_units_Z 44
_cell_length_a 10.218783
_cell_length_b 14.567644
_cell_length_c 12.604818
_cell_angle_alpha 90.000000
_cell_angle_beta 90.000000
_cell_angle_gamma 90.000000
_cell_volume 1876.398495
_symmetry_space_group_name_H-M "A B A 2"
_symmetry_group_IT_number 41
_symmetry_cell_setting 'orthorhombic'
loop_
_space_group_symop_operation_xyz
x,y,z
-x,-y,z
1/2-x,y,1/2+z
1/2+x,-y,1/2+z
x,1/2+y,1/2+z
-x,1/2-y,1/2+z
1/2-x,1/2+y,z
1/2+x,1/2-y,z
loop_
_atom_site_type_symbol
_atom_site_label
_atom_site_fract_x
_atom_site_fract_y
_atom_site_fract_z
Si Si1 0.433122 0.654182 0.433020
Si Si2 0.500000 0.000000 0.075546
Si Si3 0.833227 0.085520 0.281162
Si Si4 0.407121 0.759359 0.635246
Si Si5 0.732025 0.883291 0.271541
Si Si6 0.442203 0.372339 0.760840
O O1 0.409500 0.563465 0.504690
O O2 0.558607 0.621837 0.364368
O O3 0.449846 0.737336 0.515932
O O4 0.306819 0.670427 0.362555
O O5 0.423328 0.932567 0.153621
O O6 0.862598 0.141450 0.172888
O O7 0.690387 0.116578 0.322786
O O8 0.817065 0.976502 0.259945
O O9 0.296715 0.683600 0.671582
O O10 0.523306 0.727785 0.715167
O O11 0.581882 0.905407 0.306657
#
# Coordination Sequence:
#
# PCOD9365736 Si02
#       6
#     8   4   8   8   8   8
#     4  11  22  41  71 102 134 190 241 284 351 450
#     4  10  16  40  66  96 136 184 222 280 366 396
#     4  12  20  41  76  94 133 196 232 278 378 407
#     4   9  25  42  65  98 154 166 239 293 359 409
#     4  10  21  41  68 100 135 181 237 291 346 433
#     4   9  20  40  66  94 143 176 226 302 340 412
#
# _framework density 23.449175
#
# number of rings (size 3 to 8) (size 9 to 14) (size 15 to 20)
#    1.091    0.727    3.636    0.000    2.545    0.000 
#    6.545    0.000    8.000    4.364    0.000    0.000 
#    0.000    0.000    0.000    0.000    0.000    0.000 
#
# Total GULP energy -122544.243858 kJ/mol
# GULP energy per Si atom -5570.192903 kJ/mol
# Density = 2.339580 g / cm^3
# Si number density = 23.449175 Si / 1000 Ang^3
#
#
#
# Elastic Constant Matrix: (Units=GPa)
#
#
# Indices 1 2 3 4 5 6 
#
# 1 130.2792 8.9301 51.6331 0.0000 0.0000 0.0000
# 2 8.9301 91.6145 24.0059 0.0000 0.0000 0.0000
# 3 51.6331 24.0059 66.5156 0.0000 0.0000 0.0000
# 4 0.0000 0.0000 0.0000 24.6019 0.0000 0.0000
# 5 0.0000 0.0000 0.0000 0.0000 16.2556 0.0000
# 6 0.0000 0.0000 0.0000 0.0000 0.0000 32.0024
#
#
#
# Elastic Compliance Matrix: (Units=1/GPa)
#
#
# Indices 1 2 3 4 5 6 
#
# 1 0.011228 0.001314 -0.009190 0.000000 0.000000 0.000000
# 2 0.001314 0.012209 -0.005426 0.000000 0.000000 0.000000
# 3 -0.009190 -0.005426 0.024126 0.000000 0.000000 0.000000
# 4 0.000000 0.000000 0.000000 0.040647 0.000000 0.000000
# 5 0.000000 0.000000 0.000000 0.000000 0.061517 0.000000
# 6 0.000000 0.000000 0.000000 0.000000 0.000000 0.031248
#
#
# Mechanical properties :
#
#
# Convention : Reuss Voigt Hill
#
# Bulk Modulus (GPa) = 47.71334 50.83860 49.27597
# Shear Modulus (GPa) = 23.30286 28.16133 25.73209
#
# Velocity S-wave (km/s) = 3.15582 3.46923 3.31623
# Velocity P-wave (km/s) = 5.80264 6.14613 5.97685
#
# Compressibility (1/GPa) = 0.02095850
#
# Stress axis : x y z
#
# Youngs Moduli (GPa) = 89.06346 81.90644 41.44904
#
# Poissons Ratio (x) = -0.10759 0.38091
# Poissons Ratio (y) = -0.11699 0.22490
# Poissons Ratio (z) = 0.81848 0.44443
#
# Static dielectric constant tensor:
#      x y z
#    x 1.936340 0.000000 0.000000 
#    y 0.000000 1.991270 0.000000 
#    z 0.000000 0.000000 1.912120 
# 
# From -- ./inp_files/4924.got.cif
#   From: 2010.05.17/outbox.cif.g08.bks.cpg/sg41_3_cif.got.tgz:4924.got - 2010.06.03 18:54:24.
