data_PCOD9365330
_publ_section_title
;
Structure prediction by ZEFSAII (Michael W. Deem and Ramdas Pophale) SiO2 
 PCOD9365330
Probable space group: A M A 2
;
_chemical_formula_sum "Si O2"
_cell_formula_units_Z 32
_cell_length_a 17.220475
_cell_length_b 13.678245
_cell_length_c 4.942013
_cell_angle_alpha 90.000000
_cell_angle_beta 90.000000
_cell_angle_gamma 90.000000
_cell_volume 1164.070782
_symmetry_space_group_name_H-M "A M A 2"
_symmetry_group_IT_number 40
_symmetry_cell_setting 'orthorhombic'
loop_
_space_group_symop_operation_xyz
x,y,z
-x,-y,z
1/2-x,y,z
1/2+x,-y,z
x,1/2+y,1/2+z
-x,1/2-y,1/2+z
1/2-x,1/2+y,1/2+z
1/2+x,1/2-y,1/2+z
loop_
_atom_site_type_symbol
_atom_site_label
_atom_site_fract_x
_atom_site_fract_y
_atom_site_fract_z
Si Si1 0.623298 0.084873 0.813880
Si Si2 0.487012 0.110591 0.459708
Si Si3 0.163029 0.110318 0.141597
Si Si4 0.135971 0.803679 0.310938
O O1 0.601561 0.372362 0.883902
O O2 0.656764 0.107025 0.516392
O O3 0.639448 0.982066 0.953415
O O4 0.658362 0.165746 0.013134
O O5 0.531102 0.102497 0.749717
O O6 0.541842 0.188606 0.311148
O O7 0.500000 0.000000 0.351871
O O8 0.250000 0.096346 0.244727
O O9 0.160846 0.204713 0.947282
#
# Coordination Sequence:
#
# PCOD9365330 Si02
#       4
#     8   8   8   8
#     4  10  25  51  77 113 162 220 272 328 414 511
#     4  10  24  49  83 112 166 223 276 326 411 510
#     4  12  27  52  87 130 167 214 284 367 426 478
#     4  10  26  48  81 110 166 217 282 323 418 506
#
# _framework density 27.489739
#
# number of rings (size 3 to 8) (size 9 to 14) (size 15 to 20)
#    1.500    0.000    2.500    0.000    3.500   10.000 
#    0.000    6.250    0.000    0.000    0.000    0.000 
#    0.000    0.000    0.000    0.000    0.000    0.000 
#
# Total GULP energy -89466.692155 kJ/mol
# GULP energy per Si atom -5591.668260 kJ/mol
# Density = 2.742717 g / cm^3
# Si number density = 27.489739 Si / 1000 Ang^3
#
#
#
# Elastic Constant Matrix: (Units=GPa)
#
#
# Indices 1 2 3 4 5 6 
#
# 1 227.9786 42.0084 57.8369 0.0000 0.0000 0.0000
# 2 42.0084 122.1161 7.3832 0.0000 0.0000 0.0000
# 3 57.8369 7.3832 127.3740 0.0000 0.0000 0.0000
# 4 0.0000 0.0000 0.0000 30.7467 0.0000 0.0000
# 5 0.0000 0.0000 0.0000 0.0000 17.6828 0.0000
# 6 0.0000 0.0000 0.0000 0.0000 0.0000 -13.2674
#
#
#
# Elastic Compliance Matrix: (Units=1/GPa)
#
#
# Indices 1 2 3 4 5 6 
#
# 1 0.005279 -0.001677 -0.002300 0.000000 0.000000 0.000000
# 2 -0.001677 0.008750 0.000254 0.000000 0.000000 0.000000
# 3 -0.002300 0.000254 0.008880 0.000000 0.000000 0.000000
# 4 0.000000 0.000000 0.000000 0.032524 0.000000 0.000000
# 5 0.000000 0.000000 0.000000 0.000000 0.056552 0.000000
# 6 0.000000 0.000000 0.000000 0.000000 0.000000 -0.075373
#
#
# Mechanical properties :
#
#
# Convention : Reuss Voigt Hill
#
# Bulk Modulus (GPa) = 64.66309 76.88063 70.77186
# Shear Modulus (GPa) = 101.59945 31.71509 66.65727
#
# Velocity S-wave (km/s) = 6.08599 3.40031 4.92957
# Velocity P-wave (km/s) = 8.54163 6.59120 7.62900
#
# Compressibility (1/GPa) = 0.01546477
#
# Stress axis : x y z
#
# Youngs Moduli (GPa) = 189.43692 114.28030 112.60740
#
# Poissons Ratio (x) = 0.19163 0.25897
# Poissons Ratio (y) = 0.31766 -0.02863
# Poissons Ratio (z) = 0.43566 -0.02905
#
# Static dielectric constant tensor:
#      x y z
#    x 2.217530 0.000000 0.000000 
#    y 0.000000 2.115850 0.000000 
#    z 0.000000 0.000000 2.072610 
# 
# From -- ./inp_files/1669.got.cif
#   From: 2010.05.17/outbox.cif.g08.bks.cpg/sg40_1_cif.got.tgz:1669.got - 2010.06.03 18:35:42.
