data_PCOD9365241
_publ_section_title
;
Structure prediction by ZEFSAII (Michael W. Deem and Ramdas Pophale) SiO2 
 PCOD9365241
Probable space group: A M A 2
;
_chemical_formula_sum "Si O2"
_cell_formula_units_Z 48
_cell_length_a 25.860490
_cell_length_b 4.903226
_cell_length_c 13.997451
_cell_angle_alpha 90.000000
_cell_angle_beta 90.000000
_cell_angle_gamma 90.000000
_cell_volume 1774.874364
_symmetry_space_group_name_H-M "A M A 2"
_symmetry_group_IT_number 40
_symmetry_cell_setting 'orthorhombic'
loop_
_space_group_symop_operation_xyz
x,y,z
-x,-y,z
1/2-x,y,z
1/2+x,-y,z
x,1/2+y,1/2+z
-x,1/2-y,1/2+z
1/2-x,1/2+y,1/2+z
1/2+x,1/2-y,1/2+z
loop_
_atom_site_type_symbol
_atom_site_label
_atom_site_fract_x
_atom_site_fract_y
_atom_site_fract_z
Si Si1 0.750000 0.230480 0.836231
Si Si2 0.250000 0.151612 0.676308
Si Si3 0.250000 0.347458 0.997187
Si Si4 0.640612 0.871073 0.927468
Si Si5 0.000000 0.000000 0.856564
Si Si6 0.924733 0.865686 0.483689
Si Si7 0.159187 0.935166 0.239559
Si Si8 0.051612 0.330916 0.690279
O O1 0.802463 0.355085 0.790613
O O2 0.750000 0.929788 0.789043
O O3 0.750000 0.358620 0.942006
O O4 0.196512 0.307459 0.659758
O O5 0.250000 0.893726 0.609560
O O6 0.303338 0.201410 0.969840
O O7 0.645835 0.798660 0.816328
O O8 0.595241 0.669332 0.964315
O O9 0.623259 0.172421 0.954018
O O10 0.961295 0.848753 0.783377
O O11 0.029337 0.772671 0.920863
O O12 0.937545 0.838862 0.594886
O O13 0.102579 0.019389 0.205187
O O14 0.000000 0.500000 0.673100
#
# Coordination Sequence:
#
# PCOD9365241 Si02
#       8
#     4   4   4   8   4   8   8   8
#     4   9  23  41  70  97 151 190 245 308 375 444
#     4  11  23  43  71 103 149 197 250 315 374 470
#     4  10  24  44  69 114 140 201 249 309 381 458
#     4  11  26  49  77 107 156 196 251 320 384 461
#     4  12  28  50  78 110 160 202 264 326 386 460
#     4  12  28  50  77 111 151 204 255 317 389 463
#     4  10  23  45  68 109 143 198 250 311 383 451
#     4  12  27  46  77 109 151 203 258 317 389 462
#
# _framework density 27.044165
#
# number of rings (size 3 to 8) (size 9 to 14) (size 15 to 20)
#    0.000    1.000    2.500    2.500    9.333    2.000 
#    0.000    0.000    0.000    0.000    0.000    0.000 
#    0.000    0.000    0.000    0.000    0.000    0.000 
#
# Total GULP energy -134543.695879 kJ/mol
# GULP energy per Si atom -5605.987328 kJ/mol
# Density = 2.698261 g / cm^3
# Si number density = 27.044165 Si / 1000 Ang^3
#
#
#
# Elastic Constant Matrix: (Units=GPa)
#
#
# Indices 1 2 3 4 5 6 
#
# 1 233.5716 22.1913 35.6320 0.0000 0.0000 0.0000
# 2 22.1913 62.5246 0.4005 0.0000 0.0000 0.0000
# 3 35.6320 0.4005 121.4077 0.0000 0.0000 0.0000
# 4 0.0000 0.0000 0.0000 26.6980 0.0000 0.0000
# 5 0.0000 0.0000 0.0000 0.0000 32.6143 0.0000
# 6 0.0000 0.0000 0.0000 0.0000 0.0000 48.1124
#
#
#
# Elastic Compliance Matrix: (Units=1/GPa)
#
#
# Indices 1 2 3 4 5 6 
#
# 1 0.004644 -0.001640 -0.001358 0.000000 0.000000 0.000000
# 2 -0.001640 0.016573 0.000427 0.000000 0.000000 0.000000
# 3 -0.001358 0.000427 0.008634 0.000000 0.000000 0.000000
# 4 0.000000 0.000000 0.000000 0.037456 0.000000 0.000000
# 5 0.000000 0.000000 0.000000 0.000000 0.030661 0.000000
# 6 0.000000 0.000000 0.000000 0.000000 0.000000 0.020785
#
#
# Mechanical properties :
#
#
# Convention : Reuss Voigt Hill
#
# Bulk Modulus (GPa) = 40.47032 59.32793 49.89913
# Shear Modulus (GPa) = 37.84128 45.43696 41.63912
#
# Velocity S-wave (km/s) = 3.74470 4.10335 3.92812
# Velocity P-wave (km/s) = 5.80466 6.66596 6.25016
#
# Compressibility (1/GPa) = 0.02470946
#
# Stress axis : x y z
#
# Youngs Moduli (GPa) = 215.32091 60.33941 115.82452
#
# Poissons Ratio (x) = 0.09893 0.15725
# Poissons Ratio (y) = 0.35305 -0.04940
# Poissons Ratio (z) = 0.29233 -0.02574
#
# Static dielectric constant tensor:
#      x y z
#    x 2.120100 0.000000 0.000000 
#    y 0.000000 2.103220 0.000000 
#    z 0.000000 0.000000 2.047820 
# 
# From -- ./inp_files/18688.got.cif
#   From: 2010.05.17/outbox.cif.g08.bks.cpg/sg40_10_cif.got.tgz:18688.got - 2010.06.03 18:35:42.
