data_PCOD9365850
_publ_section_title
;
Structure prediction by ZEFSAII (Michael W. Deem and Ramdas Pophale) SiO2 
 PCOD9365850
Probable space group: A B A 2
;
_chemical_formula_sum "Si O2"
_cell_formula_units_Z 60
_cell_length_a 18.200108
_cell_length_b 16.367821
_cell_length_c 9.108473
_cell_angle_alpha 90.000000
_cell_angle_beta 90.000000
_cell_angle_gamma 90.000000
_cell_volume 2713.378674
_symmetry_space_group_name_H-M "A B A 2"
_symmetry_group_IT_number 41
_symmetry_cell_setting 'orthorhombic'
loop_
_space_group_symop_operation_xyz
x,y,z
-x,-y,z
1/2-x,y,1/2+z
1/2+x,-y,1/2+z
x,1/2+y,1/2+z
-x,1/2-y,1/2+z
1/2-x,1/2+y,z
1/2+x,1/2-y,z
loop_
_atom_site_type_symbol
_atom_site_label
_atom_site_fract_x
_atom_site_fract_y
_atom_site_fract_z
Si Si1 0.118898 0.151240 0.310970
Si Si2 0.473573 0.763325 0.767284
Si Si3 0.087966 0.873106 0.718821
Si Si4 0.255032 0.533198 0.396063
Si Si5 0.762639 0.086507 0.643697
Si Si6 0.360739 0.802835 0.515307
Si Si7 0.500000 0.500000 0.846152
Si Si8 0.611725 0.865818 0.462081
O O1 0.166397 0.072737 0.357014
O O2 0.153196 0.221323 0.418282
O O3 0.030707 0.168715 0.330074
O O4 0.127316 0.154408 0.133208
O O5 0.527534 0.695186 0.696531
O O6 0.423479 0.793444 0.635875
O O7 0.422111 0.713681 0.880918
O O8 0.158444 0.872767 0.619280
O O9 0.055906 0.961825 0.729183
O O10 0.110783 0.861502 0.888527
O O11 0.244993 0.448330 0.307330
O O12 0.254606 0.498954 0.559847
O O13 0.186054 0.596412 0.387751
O O14 0.705694 0.155063 0.598342
O O15 0.547509 0.435230 0.941335
#
# Coordination Sequence:
#
# PCOD9365850 Si02
#       8
#     8   8   8   8   8   8   4   8
#     4  11  25  45  68 106 140 179 239 290 351 421
#     4  10  24  45  70 103 136 190 231 288 351 421
#     4  10  22  42  71  98 140 177 234 281 354 416
#     4  12  26  45  74 103 140 186 238 291 355 420
#     4  12  24  50  70 105 140 186 237 290 359 426
#     4  11  25  47  69 101 142 184 236 294 348 426
#     4  10  18  38  72 100 136 194 214 292 350 426
#     4  11  23  44  71 103 146 184 237 289 359 419
#
# _framework density 22.112652000000001
#
# number of rings (size 3 to 8) (size 9 to 14) (size 15 to 20)
#    0.000    1.067    4.000    2.400    1.867    4.267 
#    9.600    0.000    0.000    0.000    0.000    0.000 
#    0.000    0.000    0.000    0.000    0.000    0.000 
#
# Total GULP energy -167220.586115 kJ/mol
# GULP energy per Si atom -5574.019537 kJ/mol
# Density = 2.206232 g / cm^3
# Si number density = 22.112652 Si / 1000 Ang^3
#
#
#
# Elastic Constant Matrix: (Units=GPa)
#
#
# Indices 1 2 3 4 5 6 
#
# 1 331.6641 24.7956 63.0950 0.0000 0.0000 0.0000
# 2 24.7956 61.1127 20.6983 0.0000 0.0000 0.0000
# 3 63.0950 20.6983 45.9011 0.0000 0.0000 0.0000
# 4 0.0000 0.0000 0.0000 36.7865 0.0000 0.0000
# 5 0.0000 0.0000 0.0000 0.0000 36.7109 0.0000
# 6 0.0000 0.0000 0.0000 0.0000 0.0000 60.0696
#
#
#
# Elastic Compliance Matrix: (Units=1/GPa)
#
#
# Indices 1 2 3 4 5 6 
#
# 1 0.004087 0.000289 -0.005748 0.000000 0.000000 0.000000
# 2 0.000289 0.019333 -0.009115 0.000000 0.000000 0.000000
# 3 -0.005748 -0.009115 0.033797 0.000000 0.000000 0.000000
# 4 0.000000 0.000000 0.000000 0.027184 0.000000 0.000000
# 5 0.000000 0.000000 0.000000 0.000000 0.027240 0.000000
# 6 0.000000 0.000000 0.000000 0.000000 0.000000 0.016647
#
#
# Mechanical properties :
#
#
# Convention : Reuss Voigt Hill
#
# Bulk Modulus (GPa) = 35.62619 72.87284 54.24951
# Shear Modulus (GPa) = 29.97722 48.71933 39.34827
#
# Velocity S-wave (km/s) = 3.68592 4.69895 4.22292
# Velocity P-wave (km/s) = 5.85328 7.90361 6.95442
#
# Compressibility (1/GPa) = 0.02806924
#
# Stress axis : x y z
#
# Youngs Moduli (GPa) = 244.67642 51.72457 29.58814
#
# Poissons Ratio (x) = -0.01493 0.17008
# Poissons Ratio (y) = -0.07061 0.26968
# Poissons Ratio (z) = 1.40643 0.47145
#
# Static dielectric constant tensor:
#      x y z
#    x 0.991870 0.000000 0.000000 
#    y 0.000000 1.679890 0.000000 
#    z 0.000000 0.000000 1.785640 
# 
# From -- ./inp_files/3161.got.cif
#   From: 2010.05.17/outbox.cif.g08.bks.cpg/sg41_2_cif.got.tgz:3161.got - 2010.06.03 18:54:24.
