data_PCOD9365119
_publ_section_title
;
Structure prediction by ZEFSAII (Michael W. Deem and Ramdas Pophale) SiO2 
 PCOD9365119
Probable space group: A M A 2
;
_chemical_formula_sum "Si O2"
_cell_formula_units_Z 56
_cell_length_a 15.124287
_cell_length_b 5.294924
_cell_length_c 28.283886
_cell_angle_alpha 90.000000
_cell_angle_beta 90.000000
_cell_angle_gamma 90.000000
_cell_volume 2265.028751
_symmetry_space_group_name_H-M "A M A 2"
_symmetry_group_IT_number 40
_symmetry_cell_setting 'orthorhombic'
loop_
_space_group_symop_operation_xyz
x,y,z
-x,-y,z
1/2-x,y,z
1/2+x,-y,z
x,1/2+y,1/2+z
-x,1/2-y,1/2+z
1/2-x,1/2+y,1/2+z
1/2+x,1/2-y,1/2+z
loop_
_atom_site_type_symbol
_atom_site_label
_atom_site_fract_x
_atom_site_fract_y
_atom_site_fract_z
Si Si1 0.600453 0.890349 0.586160
Si Si2 0.094247 0.635749 0.977024
Si Si3 0.907054 0.383398 0.250775
Si Si4 0.103722 0.961898 0.171472
Si Si5 0.847869 0.654100 0.340021
Si Si6 0.500000 0.000000 0.321046
Si Si7 0.652030 0.866077 0.930933
Si Si8 0.750000 0.675126 0.145767
O O1 0.672347 0.069373 0.609853
O O2 0.500000 0.000000 0.590554
O O3 0.622934 0.846468 0.531554
O O4 0.606840 0.637361 0.617729
O O5 0.093974 0.915699 0.955505
O O6 0.000000 0.500000 0.978571
O O7 0.144900 0.423116 0.946615
O O8 0.861464 0.261233 0.205734
O O9 0.856794 0.572907 0.285359
O O10 0.000000 0.500000 0.234203
O O11 0.937908 0.163109 0.286604
O O12 0.170679 0.189516 0.177404
O O13 0.000000 0.000000 0.182840
O O14 0.750000 0.765258 0.347920
O O15 0.856413 0.414147 0.374898
O O16 0.933081 0.825897 0.350018
O O17 0.750000 0.952316 0.944693
#
# Coordination Sequence:
#
# PCOD9365119 Si02
#       8
#     8   8   8   8   8   4   8   4
#     4  11  26  48  71 107 152 188 251 317 371 455
#     4  11  27  45  77 109 149 197 254 315 382 456
#     4  10  23  43  69 103 147 194 241 307 378 444
#     4  12  25  47  75 108 150 192 254 314 373 465
#     4  10  25  45  72 106 151 191 249 312 375 454
#     4  10  22  44  70 102 140 198 238 298 380 438
#     4  11  26  47  73 112 150 197 249 317 382 453
#     4  12  28  44  78 104 140 210 240 304 404 438
#
# _framework density 24.723746999999999
#
# number of rings (size 3 to 8) (size 9 to 14) (size 15 to 20)
#    0.000    1.143    2.143    1.714    8.000    2.857 
#    2.571    0.000    0.000    0.000    0.000    0.000 
#    0.000    0.000    0.000    0.000    0.000    0.000 
#
# Total GULP energy -156114.040296 kJ/mol
# GULP energy per Si atom -5575.501439 kJ/mol
# Density = 2.466747 g / cm^3
# Si number density = 24.723747 Si / 1000 Ang^3
#
#
#
# Elastic Constant Matrix: (Units=GPa)
#
#
# Indices 1 2 3 4 5 6 
#
# 1 133.2840 30.3005 27.0795 0.0000 0.0000 0.0000
# 2 30.3005 80.1296 25.1860 0.0000 0.0000 0.0000
# 3 27.0795 25.1860 107.2129 0.0000 0.0000 0.0000
# 4 0.0000 0.0000 0.0000 39.7286 0.0000 0.0000
# 5 0.0000 0.0000 0.0000 0.0000 58.8358 0.0000
# 6 0.0000 0.0000 0.0000 0.0000 0.0000 9.3178
#
#
#
# Elastic Compliance Matrix: (Units=1/GPa)
#
#
# Indices 1 2 3 4 5 6 
#
# 1 0.008423 -0.002717 -0.001489 0.000000 0.000000 0.000000
# 2 -0.002717 0.014351 -0.002685 0.000000 0.000000 0.000000
# 3 -0.001489 -0.002685 0.010334 0.000000 0.000000 0.000000
# 4 0.000000 0.000000 0.000000 0.025171 0.000000 0.000000
# 5 0.000000 0.000000 0.000000 0.000000 0.016996 0.000000
# 6 0.000000 0.000000 0.000000 0.000000 0.000000 0.107322
#
#
# Mechanical properties :
#
#
# Convention : Reuss Voigt Hill
#
# Bulk Modulus (GPa) = 51.74440 53.97317 52.85878
# Shear Modulus (GPa) = 24.65216 37.44714 31.04965
#
# Velocity S-wave (km/s) = 3.16112 3.89604 3.54766
# Velocity P-wave (km/s) = 5.85645 6.48974 6.18121
#
# Compressibility (1/GPa) = 0.01932576
#
# Stress axis : x y z
#
# Youngs Moduli (GPa) = 118.72228 69.68080 96.76666
#
# Poissons Ratio (x) = 0.18932 0.14410
# Poissons Ratio (y) = 0.32257 0.25982
# Poissons Ratio (z) = 0.17680 0.18710
#
# Static dielectric constant tensor:
#      x y z
#    x 1.975060 0.000000 0.000000 
#    y 0.000000 2.015460 0.000000 
#    z 0.000000 0.000000 1.929460 
# 
# From -- ./inp_files/26631.got.cif
#   From: 2010.05.17/outbox.cif.g08.bks.cpg/sg40_14_cif.got.tgz:26631.got - 2010.06.03 18:35:42.
