data_PCOD9365892
_publ_section_title
;
Structure prediction by ZEFSAII (Michael W. Deem and Ramdas Pophale) SiO2 
 PCOD9365892
Probable space group: A B A 2
;
_chemical_formula_sum "Si O2"
_cell_formula_units_Z 48
_cell_length_a 8.061060
_cell_length_b 18.098667
_cell_length_c 15.521797
_cell_angle_alpha 90.000000
_cell_angle_beta 90.000000
_cell_angle_gamma 90.000000
_cell_volume 2264.543891
_symmetry_space_group_name_H-M "A B A 2"
_symmetry_group_IT_number 41
_symmetry_cell_setting 'orthorhombic'
loop_
_space_group_symop_operation_xyz
x,y,z
-x,-y,z
1/2-x,y,1/2+z
1/2+x,-y,1/2+z
x,1/2+y,1/2+z
-x,1/2-y,1/2+z
1/2-x,1/2+y,z
1/2+x,1/2-y,z
loop_
_atom_site_type_symbol
_atom_site_label
_atom_site_fract_x
_atom_site_fract_y
_atom_site_fract_z
Si Si1 0.391936 0.100082 0.230600
Si Si2 0.730554 0.766278 0.657524
Si Si3 0.065616 0.845799 0.082912
Si Si4 0.516724 0.318665 0.899165
Si Si5 0.330402 0.324508 0.326405
Si Si6 0.724613 0.049717 0.709462
O O1 0.355291 0.165432 0.164430
O O2 0.387803 0.133582 0.327180
O O3 0.581032 0.074658 0.214358
O O4 0.252236 0.037301 0.219400
O O5 0.552773 0.804234 0.651631
O O6 0.778233 0.710633 0.581195
O O7 0.750465 0.719827 0.745127
O O8 0.135661 0.921579 0.122412
O O9 0.955533 0.843129 0.997152
O O10 0.323200 0.336684 0.889111
O O11 0.546782 0.232658 0.873645
O O12 0.369531 0.404714 0.285394
#
# Coordination Sequence:
#
# PCOD9365892 Si02
#       6
#     8   8   8   8   8   8
#     4   9  19  36  55  75 108 153 188 222 280 354
#     4  10  19  33  53  77 107 142 186 229 283 348
#     4  11  20  32  54  84 109 139 186 243 284 328
#     4  10  19  32  53  80 107 137 182 236 282 324
#     4   9  17  32  52  74 102 143 182 221 279 347
#     4   9  18  35  55  75 105 148 188 222 278 349
#
# _framework density 21.196321999999999
#
# number of rings (size 3 to 8) (size 9 to 14) (size 15 to 20)
#    0.000    2.333    0.000    6.000    0.000    0.667 
#    0.000    6.667    0.000    0.000    0.000    0.000 
#    0.000    0.000    0.000    0.000    0.000    0.000 
#
# Total GULP energy -133643.721040 kJ/mol
# GULP energy per Si atom -5568.488377 kJ/mol
# Density = 2.114808 g / cm^3
# Si number density = 21.196322 Si / 1000 Ang^3
#
#
#
# Elastic Constant Matrix: (Units=GPa)
#
#
# Indices 1 2 3 4 5 6 
#
# 1 42.7693 15.0822 7.4099 0.0000 0.0000 0.0000
# 2 15.0822 108.1240 31.3107 0.0000 0.0000 0.0000
# 3 7.4099 31.3107 82.9844 0.0000 0.0000 0.0000
# 4 0.0000 0.0000 0.0000 15.4384 0.0000 0.0000
# 5 0.0000 0.0000 0.0000 0.0000 23.6631 0.0000
# 6 0.0000 0.0000 0.0000 0.0000 0.0000 41.9692
#
#
#
# Elastic Compliance Matrix: (Units=1/GPa)
#
#
# Indices 1 2 3 4 5 6 
#
# 1 0.024667 -0.003147 -0.001015 0.000000 0.000000 0.000000
# 2 -0.003147 0.010785 -0.003788 0.000000 0.000000 0.000000
# 3 -0.001015 -0.003788 0.013570 0.000000 0.000000 0.000000
# 4 0.000000 0.000000 0.000000 0.064773 0.000000 0.000000
# 5 0.000000 0.000000 0.000000 0.000000 0.042260 0.000000
# 6 0.000000 0.000000 0.000000 0.000000 0.000000 0.023827
#
#
# Mechanical properties :
#
#
# Convention : Reuss Voigt Hill
#
# Bulk Modulus (GPa) = 30.19186 37.94258 34.06722
# Shear Modulus (GPa) = 24.17527 28.21914 26.19721
#
# Velocity S-wave (km/s) = 3.38085 3.65269 3.51940
# Velocity P-wave (km/s) = 5.43278 5.97737 5.71157
#
# Compressibility (1/GPa) = 0.03312151
#
# Stress axis : x y z
#
# Youngs Moduli (GPa) = 40.54025 92.72526 73.68982
#
# Poissons Ratio (x) = 0.29178 0.07481
# Poissons Ratio (y) = 0.12757 0.27915
# Poissons Ratio (z) = 0.04116 0.35125
#
# Static dielectric constant tensor:
#      x y z
#    x 1.867830 0.000000 0.000000 
#    y 0.000000 1.818270 0.000000 
#    z 0.000000 0.000000 1.860810 
# 
# From -- ./inp_files/7322.got.cif
#   From: 2010.05.17/outbox.cif.g08.bks.cpg/sg41_4_cif.got.tgz:7322.got - 2010.06.03 18:54:24.
