data_PCOD9365843
_publ_section_title
;
Structure prediction by ZEFSAII (Michael W. Deem and Ramdas Pophale) SiO2 
 PCOD9365843
Probable space group: A B A 2
;
_chemical_formula_sum "Si O2"
_cell_formula_units_Z 52
_cell_length_a 18.573231
_cell_length_b 17.496352
_cell_length_c 7.683150
_cell_angle_alpha 90.000000
_cell_angle_beta 90.000000
_cell_angle_gamma 90.000000
_cell_volume 2496.745523
_symmetry_space_group_name_H-M "A B A 2"
_symmetry_group_IT_number 41
_symmetry_cell_setting 'orthorhombic'
loop_
_space_group_symop_operation_xyz
x,y,z
-x,-y,z
1/2-x,y,1/2+z
1/2+x,-y,1/2+z
x,1/2+y,1/2+z
-x,1/2-y,1/2+z
1/2-x,1/2+y,z
1/2+x,1/2-y,z
loop_
_atom_site_type_symbol
_atom_site_label
_atom_site_fract_x
_atom_site_fract_y
_atom_site_fract_z
Si Si1 0.500000 0.500000 0.348541
Si Si2 0.842969 0.463905 0.281826
Si Si3 0.102263 0.898045 0.597207
Si Si4 0.758606 0.383193 0.983352
Si Si5 0.043731 0.652783 0.203923
Si Si6 0.866025 0.762668 0.983866
Si Si7 0.591831 0.860397 0.806655
O O1 0.441734 0.454526 0.467549
O O2 0.545121 0.434392 0.252327
O O3 0.845722 0.547770 0.206317
O O4 0.799104 0.451349 0.456321
O O5 0.921651 0.426829 0.273521
O O6 0.800153 0.404122 0.158898
O O7 0.140294 0.827874 0.501941
O O8 0.041152 0.858926 0.716999
O O9 0.710838 0.306374 0.976806
O O10 0.825455 0.380977 0.849749
O O11 0.083936 0.715822 0.319141
O O12 0.060267 0.663729 0.996953
O O13 0.905515 0.799351 0.152863
#
# Coordination Sequence:
#
# PCOD9365843 Si02
#       7
#     4   8   8   8   8   8   8
#     4  10  20  40  64  86 120 164 200 244 322 358
#     4  10  18  38  62  81 121 164 200 246 310 367
#     4  11  20  39  62  91 119 161 202 258 306 368
#     4  10  19  38  61  83 120 167 200 245 311 367
#     4   9  21  39  63  85 120 160 200 253 310 356
#     4  11  24  37  64  93 120 160 211 251 308 369
#     4  10  20  42  64  86 121 164 201 254 304 375
#
# _framework density 20.827114000000002
#
# number of rings (size 3 to 8) (size 9 to 14) (size 15 to 20)
#    0.000    1.846    6.154    0.000    4.308    0.000 
#    8.308    0.000    0.000    0.000    0.000    0.000 
#    0.000    0.000    0.000    0.000    0.000    0.000 
#
# Total GULP energy -144907.228022 kJ/mol
# GULP energy per Si atom -5573.354924 kJ/mol
# Density = 2.077971 g / cm^3
# Si number density = 20.827114 Si / 1000 Ang^3
#
#
#
# Elastic Constant Matrix: (Units=GPa)
#
#
# Indices 1 2 3 4 5 6 
#
# 1 57.6585 28.9452 3.5339 0.0000 0.0000 0.0000
# 2 28.9452 126.6582 11.1923 0.0000 0.0000 0.0000
# 3 3.5339 11.1923 53.0571 0.0000 0.0000 0.0000
# 4 0.0000 0.0000 0.0000 27.1723 0.0000 0.0000
# 5 0.0000 0.0000 0.0000 0.0000 11.8912 0.0000
# 6 0.0000 0.0000 0.0000 0.0000 0.0000 8.7018
#
#
#
# Elastic Compliance Matrix: (Units=1/GPa)
#
#
# Indices 1 2 3 4 5 6 
#
# 1 0.019598 -0.004446 -0.000367 0.000000 0.000000 0.000000
# 2 -0.004446 0.009054 -0.001614 0.000000 0.000000 0.000000
# 3 -0.000367 -0.001614 0.019213 0.000000 0.000000 0.000000
# 4 0.000000 0.000000 0.000000 0.036802 0.000000 0.000000
# 5 0.000000 0.000000 0.000000 0.000000 0.084096 0.000000
# 6 0.000000 0.000000 0.000000 0.000000 0.000000 0.114919
#
#
# Mechanical properties :
#
#
# Convention : Reuss Voigt Hill
#
# Bulk Modulus (GPa) = 28.56357 36.07964 32.32161
# Shear Modulus (GPa) = 16.22290 22.46656 19.34473
#
# Velocity S-wave (km/s) = 2.79396 3.28795 3.05097
# Velocity P-wave (km/s) = 4.91454 5.63694 5.28809
#
# Compressibility (1/GPa) = 0.03500963
#
# Stress axis : x y z
#
# Youngs Moduli (GPa) = 51.02537 110.44865 52.04944
#
# Poissons Ratio (x) = 0.49109 0.01912
# Poissons Ratio (y) = 0.22687 0.08400
# Poissons Ratio (z) = 0.01875 0.17824
#
# Static dielectric constant tensor:
#      x y z
#    x 1.829740 0.000000 0.000000 
#    y 0.000000 1.748460 0.000000 
#    z 0.000000 0.000000 1.910710 
# 
# From -- ./inp_files/3115.got.cif
#   From: 2010.05.17/outbox.cif.g08.bks.cpg/sg41_2_cif.got.tgz:3115.got - 2010.06.03 18:54:24.
