data_PCOD9365645
_publ_section_title
;
Structure prediction by ZEFSAII (Michael W. Deem and Ramdas Pophale) SiO2 
 PCOD9365645
Probable space group: A M A 2
;
_chemical_formula_sum "Si O2"
_cell_formula_units_Z 32
_cell_length_a 30.000000
_cell_length_b 12.000000
_cell_length_c 9.000000
_cell_angle_alpha 90.000000
_cell_angle_beta 90.000000
_cell_angle_gamma 90.000000
_cell_volume 3240.000000
_symmetry_space_group_name_H-M "A M A 2"
_symmetry_group_IT_number 40
_symmetry_cell_setting 'orthorhombic'
loop_
_space_group_symop_operation_xyz
x,y,z
-x,-y,z
1/2-x,y,z
1/2+x,-y,z
x,1/2+y,1/2+z
-x,1/2-y,1/2+z
1/2-x,1/2+y,1/2+z
1/2+x,1/2-y,1/2+z
loop_
_atom_site_type_symbol
_atom_site_label
_atom_site_fract_x
_atom_site_fract_y
_atom_site_fract_z
Si Si1 0.301923 0.947899 0.625000
Si Si2 0.524434 0.618479 0.124831
Si Si3 0.115994 0.813683 0.489567
Si Si4 0.300454 0.881691 0.948415
Si Si5 0.887290 0.636909 0.643933
Si Si6 0.392267 0.605941 0.701078
Si Si7 0.953953 0.756577 0.418038
Si Si8 0.200151 0.122006 0.370096
O O1 0.250000 0.909512 0.613132
O O2 0.337893 0.865948 0.550690
O O3 0.311271 0.955130 0.801612
O O4 0.305036 0.061282 0.529749
O O5 0.500000 0.500000 0.132452
O O6 0.529249 0.671596 0.289705
O O7 0.574092 0.615254 0.053487
O O8 0.494455 0.695007 0.015243
O O9 0.115496 0.814600 0.310813
O O10 0.110337 0.693128 0.565878
O O11 0.250000 0.908316 0.999292
O O12 0.300232 0.754587 0.889531
O O13 0.338473 0.882093 0.072013
O O14 0.908376 0.514608 0.653758
O O15 0.917836 0.706478 0.532236
O O16 0.426048 0.652850 0.824002
O O17 0.342654 0.593040 0.771175
O O18 0.250000 0.090296 0.313747
#
# Coordination Sequence:
#
# PCOD9365645 Si02
#       8
#     8   8   8   8   8   8   8   8
#     4  10  20  37  65  93 125 170 211 257 320 381
#     4  11  25  44  70  95 125 171 211 265 327 386
#     4  11  23  40  64  97 128 164 217 262 319 383
#     4  10  21  38  59  91 132 170 215 266 316 379
#     4  12  24  40  64  94 131 170 210 271 318 384
#     4  11  23  42  65  96 127 170 215 265 322 386
#     4  11  25  45  64  95 129 160 216 265 322 382
#     4  10  19  36  64  92 125 170 210 258 321 380
#
# _framework density 9.8765429999999999
#
# number of rings (size 3 to 8) (size 9 to 14) (size 15 to 20)
#    0.000    1.250    3.750    2.250    0.000    5.000 
#    0.000    0.625    0.000    0.000    0.000    0.000 
#    0.000    0.000    0.000    0.000    0.000    0.000 
#
# Total GULP energy -178765.473974 kJ/mol
# GULP energy per Si atom -5586.421062 kJ/mol
# Density = 0.985406 g / cm^3
# Si number density = 9.876543 Si / 1000 Ang^3
#
#
#
# Elastic Constant Matrix: (Units=GPa)
#
#
# Indices 1 2 3 4 5 6 
#
# 1 100.6368 5.7033 54.0827 0.0000 0.0000 0.0000
# 2 5.7033 39.5774 19.9111 0.0000 0.0000 0.0000
# 3 54.0827 19.9111 133.7942 0.0000 0.0000 0.0000
# 4 0.0000 0.0000 0.0000 31.8223 0.0000 0.0000
# 5 0.0000 0.0000 0.0000 0.0000 -42.3570 0.0000
# 6 0.0000 0.0000 0.0000 0.0000 0.0000 7.5401
#
#
#
# Elastic Compliance Matrix: (Units=1/GPa)
#
#
# Indices 1 2 3 4 5 6 
#
# 1 0.012719 0.000815 -0.005262 0.000000 0.000000 0.000000
# 2 0.000815 0.027364 -0.004402 0.000000 0.000000 0.000000
# 3 -0.005262 -0.004402 0.010256 0.000000 0.000000 0.000000
# 4 0.000000 0.000000 0.000000 0.031425 0.000000 0.000000
# 5 0.000000 0.000000 0.000000 0.000000 -0.023609 0.000000
# 6 0.000000 0.000000 0.000000 0.000000 0.000000 0.132624
#
#
# Mechanical properties :
#
#
# Convention : Reuss Voigt Hill
#
# Bulk Modulus (GPa) = 30.63697 48.15586 39.39641
# Shear Modulus (GPa) = 22.79389 12.35517 17.57453
#
# Velocity S-wave (km/s) = 3.40066 2.50367 2.98604
# Velocity P-wave (km/s) = 5.56443 5.72623 5.64591
#
# Compressibility (1/GPa) = 0.03264031
#
# Stress axis : x y z
#
# Youngs Moduli (GPa) = 78.62513 36.54444 97.50033
#
# Poissons Ratio (x) = -0.02977 0.51308
# Poissons Ratio (y) = -0.06405 0.42915
# Poissons Ratio (z) = 0.41376 0.16085
#
# Static dielectric constant tensor:
#      x y z
#    x 1.695740 0.000000 0.000000 
#    y 0.000000 1.703370 0.000000 
#    z 0.000000 0.000000 1.680030 
# 
# From -- ./inp_files/9430.got.cif
#   From: 2010.05.17/outbox.ucp.g08.bks.cvg/sg40_5_cif.got.tgz:9430.got - 2010.06.11 16:26:39.
