data_PCOD9365597
_publ_section_title
;
Structure prediction by ZEFSAII (Michael W. Deem and Ramdas Pophale) SiO2 
 PCOD9365597
Probable space group: A M A 2
;
_chemical_formula_sum "Si O2"
_cell_formula_units_Z 32
_cell_length_a 27.030744
_cell_length_b 5.481057
_cell_length_c 8.376317
_cell_angle_alpha 90.000000
_cell_angle_beta 90.000000
_cell_angle_gamma 90.000000
_cell_volume 1241.010405
_symmetry_space_group_name_H-M "A M A 2"
_symmetry_group_IT_number 40
_symmetry_cell_setting 'orthorhombic'
loop_
_space_group_symop_operation_xyz
x,y,z
-x,-y,z
1/2-x,y,z
1/2+x,-y,z
x,1/2+y,1/2+z
-x,1/2-y,1/2+z
1/2-x,1/2+y,1/2+z
1/2+x,1/2-y,1/2+z
loop_
_atom_site_type_symbol
_atom_site_label
_atom_site_fract_x
_atom_site_fract_y
_atom_site_fract_z
Si Si1 0.097967 0.523519 0.108610
Si Si2 0.030475 0.752234 0.842940
Si Si3 0.750000 0.991483 0.731525
Si Si4 0.164602 0.279008 0.859709
Si Si5 0.750000 0.493521 0.680478
O O1 0.059892 0.332334 0.184809
O O2 0.120040 0.697410 0.244975
O O3 0.069840 0.688386 0.979883
O O4 0.141334 0.373770 0.021703
O O5 0.000000 0.500000 0.820863
O O6 0.000000 0.000000 0.882987
O O7 0.800547 0.513784 0.783515
O O8 0.750000 0.762772 0.609544
O O9 0.750000 0.223358 0.621193
O O10 0.202574 0.050469 0.845680
#
# Coordination Sequence:
#
# PCOD9365597 Si02
#       5
#     8   8   4   8   4
#     4  12  27  51  82 116 150 204 266 315 381 480
#     4  12  31  56  79 115 156 203 255 334 405 456
#     4   8  20  44  70 108 164 196 248 306 378 442
#     4   9  25  44  77 114 154 204 253 310 375 451
#     4   8  20  44  70 108 164 196 248 306 378 442
#
# _framework density 25.785439
#
# number of rings (size 3 to 8) (size 9 to 14) (size 15 to 20)
#    1.500    0.000    0.000    2.250    3.500   18.000 
#    0.000    2.500    0.000    0.000    0.000    0.000 
#    0.000    0.000    0.000    0.000    0.000    0.000 
#
# Total GULP energy -89473.429885 kJ/mol
# GULP energy per Si atom -5592.089368 kJ/mol
# Density = 2.572675 g / cm^3
# Si number density = 25.785439 Si / 1000 Ang^3
#
#
#
# Elastic Constant Matrix: (Units=GPa)
#
#
# Indices 1 2 3 4 5 6 
#
# 1 89.6416 34.3652 14.7899 0.0000 0.0000 0.0000
# 2 34.3652 201.1303 43.3615 0.0000 0.0000 0.0000
# 3 14.7899 43.3615 72.9572 0.0000 0.0000 0.0000
# 4 0.0000 0.0000 0.0000 -72.8722 0.0000 0.0000
# 5 0.0000 0.0000 0.0000 0.0000 63.0567 0.0000
# 6 0.0000 0.0000 0.0000 0.0000 0.0000 -4.9210
#
#
#
# Elastic Compliance Matrix: (Units=1/GPa)
#
#
# Indices 1 2 3 4 5 6 
#
# 1 0.012061 -0.001759 -0.001400 0.000000 0.000000 0.000000
# 2 -0.001759 0.005959 -0.003185 0.000000 0.000000 0.000000
# 3 -0.001400 -0.003185 0.015883 0.000000 0.000000 0.000000
# 4 0.000000 0.000000 0.000000 -0.013723 0.000000 0.000000
# 5 0.000000 0.000000 0.000000 0.000000 0.015859 0.000000
# 6 0.000000 0.000000 0.000000 0.000000 0.000000 -0.203210
#
#
# Mechanical properties :
#
#
# Convention : Reuss Voigt Hill
#
# Bulk Modulus (GPa) = 47.13425 60.97359 54.05392
# Shear Modulus (GPa) = -33.91883 15.13352 -9.39265
#
# Velocity S-wave (km/s) = -3.63081 2.42523 -1.91064
# Velocity P-wave (km/s) = 0.86140 5.61607 4.01760
#
# Compressibility (1/GPa) = 0.02121599
#
# Stress axis : x y z
#
# Youngs Moduli (GPa) = 82.91342 167.80958 62.95850
#
# Poissons Ratio (x) = 0.29517 0.08811
# Poissons Ratio (y) = 0.14584 0.20053
# Poissons Ratio (z) = 0.11604 0.53450
#
# Static dielectric constant tensor:
#      x y z
#    x 2.042720 0.000000 0.000000 
#    y 0.000000 2.083970 0.000000 
#    z 0.000000 0.000000 2.077040 
# 
# From -- ./inp_files/9259.got.cif
#   From: 2010.05.17/outbox.cif.g08.bks.cpg/sg40_5_cif.got.tgz:9259.got - 2010.06.03 18:35:42.
