data_PCOD9365080
_publ_section_title
;
Structure prediction by ZEFSAII (Michael W. Deem and Ramdas Pophale) SiO2 
 PCOD9365080
Probable space group: A M A 2
;
_chemical_formula_sum "Si O2"
_cell_formula_units_Z 40
_cell_length_a 24.236412
_cell_length_b 13.983691
_cell_length_c 4.704854
_cell_angle_alpha 90.000000
_cell_angle_beta 90.000000
_cell_angle_gamma 90.000000
_cell_volume 1594.543224
_symmetry_space_group_name_H-M "A M A 2"
_symmetry_group_IT_number 40
_symmetry_cell_setting 'orthorhombic'
loop_
_space_group_symop_operation_xyz
x,y,z
-x,-y,z
1/2-x,y,z
1/2+x,-y,z
x,1/2+y,1/2+z
-x,1/2-y,1/2+z
1/2-x,1/2+y,1/2+z
1/2+x,1/2-y,1/2+z
loop_
_atom_site_type_symbol
_atom_site_label
_atom_site_fract_x
_atom_site_fract_y
_atom_site_fract_z
Si Si1 0.361616 0.335765 0.545730
Si Si2 0.750000 0.703229 0.785120
Si Si3 0.087020 0.928522 0.538392
Si Si4 0.128991 0.123553 0.422376
Si Si5 0.012575 0.183184 0.364161
Si Si6 0.750000 0.839596 0.291652
O O1 0.301793 0.355399 0.672919
O O2 0.399365 0.410219 0.709264
O O3 0.366920 0.222417 0.598005
O O4 0.376899 0.353055 0.218953
O O5 0.750000 0.804496 0.617491
O O6 0.750000 0.741056 0.106981
O O7 0.023326 0.896481 0.532625
O O8 0.111650 0.031745 0.605780
O O9 0.188663 0.113353 0.265058
O O10 0.071168 0.143086 0.257828
O O11 0.017382 0.268173 0.596255
#
# Coordination Sequence:
#
# PCOD9365080 Si02
#       6
#     8   4   8   8   8   4
#     4  11  24  44  67 100 143 179 240 290 347 425
#     4  10  22  42  70  98 141 194 233 292 356 410
#     4  12  25  43  71 106 133 192 232 291 366 418
#     4  11  25  46  72 100 149 183 237 299 352 429
#     4  12  24  45  72 100 143 185 236 295 358 425
#     4  10  24  42  70 106 135 194 237 286 362 424
#
# _framework density 25.085554999999999
#
# number of rings (size 3 to 8) (size 9 to 14) (size 15 to 20)
#    0.000    0.800    4.000    3.000    0.000    8.000 
#    0.000    4.000    0.000    0.000    0.000    0.000 
#    0.000    0.000    0.000    0.000    0.000    0.000 
#
# Total GULP energy -111406.165305 kJ/mol
# GULP energy per Si atom -5570.308265 kJ/mol
# Density = 2.502846 g / cm^3
# Si number density = 25.085555 Si / 1000 Ang^3
#
#
#
# Elastic Constant Matrix: (Units=GPa)
#
#
# Indices 1 2 3 4 5 6 
#
# 1 215.2773 41.2213 13.1575 0.0000 0.0000 0.0000
# 2 41.2213 116.1763 14.7045 0.0000 0.0000 0.0000
# 3 13.1575 14.7045 65.4097 0.0000 0.0000 0.0000
# 4 0.0000 0.0000 0.0000 21.0097 0.0000 0.0000
# 5 0.0000 0.0000 0.0000 0.0000 26.3010 0.0000
# 6 0.0000 0.0000 0.0000 0.0000 0.0000 21.6771
#
#
#
# Elastic Compliance Matrix: (Units=1/GPa)
#
#
# Indices 1 2 3 4 5 6 
#
# 1 0.005009 -0.001698 -0.000626 0.000000 0.000000 0.000000
# 2 -0.001698 0.009435 -0.001780 0.000000 0.000000 0.000000
# 3 -0.000626 -0.001780 0.015814 0.000000 0.000000 0.000000
# 4 0.000000 0.000000 0.000000 0.047597 0.000000 0.000000
# 5 0.000000 0.000000 0.000000 0.000000 0.038021 0.000000
# 6 0.000000 0.000000 0.000000 0.000000 0.000000 0.046132
#
#
# Mechanical properties :
#
#
# Convention : Reuss Voigt Hill
#
# Bulk Modulus (GPa) = 45.34842 59.44777 52.39810
# Shear Modulus (GPa) = 28.15867 35.64955 31.90411
#
# Velocity S-wave (km/s) = 3.35402 3.77386 3.57012
# Velocity P-wave (km/s) = 5.75465 6.53750 6.15852
#
# Compressibility (1/GPa) = 0.02205148
#
# Stress axis : x y z
#
# Youngs Moduli (GPa) = 199.65927 105.98506 63.23430
#
# Poissons Ratio (x) = 0.17995 0.03957
# Poissons Ratio (y) = 0.33900 0.11253
# Poissons Ratio (z) = 0.12495 0.18861
#
# Static dielectric constant tensor:
#      x y z
#    x 2.133420 0.000000 0.000000 
#    y 0.000000 1.994720 0.000000 
#    z 0.000000 0.000000 1.900860 
# 
# From -- ./inp_files/2673.got.cif
#   From: 2010.05.17/outbox.cif.g08.bks.cpg/sg40_2_cif.got.tgz:2673.got - 2010.06.03 18:35:42.
