data_PCOD9365510
_publ_section_title
;
Structure prediction by ZEFSAII (Michael W. Deem and Ramdas Pophale) SiO2 
 PCOD9365510
Probable space group: A M A 2
;
_chemical_formula_sum "Si O2"
_cell_formula_units_Z 64
_cell_length_a 31.894076
_cell_length_b 10.053148
_cell_length_c 10.044812
_cell_angle_alpha 90.000000
_cell_angle_beta 90.000000
_cell_angle_gamma 90.000000
_cell_volume 3220.726998
_symmetry_space_group_name_H-M "A M A 2"
_symmetry_group_IT_number 40
_symmetry_cell_setting 'orthorhombic'
loop_
_space_group_symop_operation_xyz
x,y,z
-x,-y,z
1/2-x,y,z
1/2+x,-y,z
x,1/2+y,1/2+z
-x,1/2-y,1/2+z
1/2-x,1/2+y,1/2+z
1/2+x,1/2-y,1/2+z
loop_
_atom_site_type_symbol
_atom_site_label
_atom_site_fract_x
_atom_site_fract_y
_atom_site_fract_z
Si Si1 0.297154 0.473038 0.942750
Si Si2 0.297153 0.026962 0.128104
Si Si3 0.614243 0.353813 0.260468
Si Si4 0.326838 0.250000 0.535427
Si Si5 0.478556 0.858533 0.921974
Si Si6 0.385757 0.353813 0.310386
Si Si7 0.862527 0.750000 0.035427
Si Si8 0.521444 0.358533 0.148880
O O1 0.250000 0.419423 0.961749
O O2 0.303082 0.500000 0.785427
O O3 0.332202 0.372743 0.996896
O O4 0.301286 0.615286 0.014635
O O5 0.250000 0.080577 0.109105
O O6 0.301285 0.884714 0.056219
O O7 0.332202 0.127256 0.073958
O O8 0.643976 0.269481 0.164755
O O9 0.633013 0.500000 0.285427
O O10 0.610628 0.286343 0.405031
O O11 0.570311 0.375392 0.185338
O O12 0.356024 0.269481 0.406099
O O13 0.429689 0.875392 0.885515
O O14 0.500000 0.812155 0.785426
O O15 0.500000 0.000000 0.956154
O O16 0.483590 0.750000 0.035427
O O17 0.389372 0.286342 0.165823
O O18 0.500000 0.500000 0.114699
#
# Coordination Sequence:
#
# PCOD9365510 Si02
#       8
#     8   8   8   8   8   8   8   8
#     4  11  24  42  64  98 137 173 221 280 333 389
#     4  11  24  42  64  98 137 173 221 280 333 389
#     4  12  24  43  68  96 133 170 221 271 321 391
#     4  12  23  44  67  96 130 176 222 270 329 392
#     4  11  25  45  68  98 135 171 213 268 327 390
#     4  12  24  43  68  96 133 170 221 271 321 391
#     4  12  25  42  69  98 130 178 222 270 327 390
#     4  11  25  45  68  98 135 171 213 268 327 390
#
# _framework density 19.871290999999999
#
# number of rings (size 3 to 8) (size 9 to 14) (size 15 to 20)
#    0.000    0.500    8.750    0.750    1.750    0.500 
#    0.000    3.750    0.000    0.000    0.000    0.000 
#    0.000    0.000    0.000    0.000    0.000    0.000 
#
# Total GULP energy -178851.677091 kJ/mol
# GULP energy per Si atom -5589.114909 kJ/mol
# Density = 1.982606 g / cm^3
# Si number density = 19.871291 Si / 1000 Ang^3
#
#
#
# Elastic Constant Matrix: (Units=GPa)
#
#
# Indices 1 2 3 4 5 6 
#
# 1 71.9895 30.2705 17.1498 0.0000 0.0000 0.0000
# 2 30.2705 114.1956 55.8430 0.0000 0.0000 0.0000
# 3 17.1498 55.8430 126.3094 0.0000 0.0000 0.0000
# 4 0.0000 0.0000 0.0000 42.8756 0.0000 0.0000
# 5 0.0000 0.0000 0.0000 0.0000 14.8487 0.0000
# 6 0.0000 0.0000 0.0000 0.0000 0.0000 0.0226
#
#
#
# Elastic Compliance Matrix: (Units=1/GPa)
#
#
# Indices 1 2 3 4 5 6 
#
# 1 0.015647 -0.003966 -0.000371 0.000000 0.000000 0.000000
# 2 -0.003966 0.012178 -0.004845 0.000000 0.000000 0.000000
# 3 -0.000371 -0.004845 0.010110 0.000000 0.000000 0.000000
# 4 0.000000 0.000000 0.000000 0.023323 0.000000 0.000000
# 5 0.000000 0.000000 0.000000 0.000000 0.067346 0.000000
# 6 0.000000 0.000000 0.000000 0.000000 0.000000 44.226570
#
#
# Mechanical properties :
#
#
# Convention : Reuss Voigt Hill
#
# Bulk Modulus (GPa) = 51.10079 57.66902 54.38490
# Shear Modulus (GPa) = 0.11266 25.49812 12.80539
#
# Velocity S-wave (km/s) = 0.23837 3.58601 2.54129
# Velocity P-wave (km/s) = 5.08404 6.79928 6.00324
#
# Compressibility (1/GPa) = 0.01956917
#
# Stress axis : x y z
#
# Youngs Moduli (GPa) = 63.90988 82.11716 98.91545
#
# Poissons Ratio (x) = 0.32570 0.03669
# Poissons Ratio (y) = 0.25348 0.47929
# Poissons Ratio (z) = 0.02371 0.39789
#
# Static dielectric constant tensor:
#      x y z
#    x 1.708340 0.000000 0.000000 
#    y 0.000000 1.690810 0.000000 
#    z 0.000000 0.000000 1.691240 
# 
# From -- ./inp_files/9438.got.cif
#   From: 2010.05.17/outbox.cif.g08.bks.cpg/sg40_5_cif.got.tgz:9438.got - 2010.06.03 18:35:42.
