data_PCOD9365033
_publ_section_title
;
Structure prediction by ZEFSAII (Michael W. Deem and Ramdas Pophale) SiO2 
 PCOD9365033
Probable space group: A M A 2
;
_chemical_formula_sum "Si O2"
_cell_formula_units_Z 60
_cell_length_a 14.965237
_cell_length_b 7.600111
_cell_length_c 23.901126
_cell_angle_alpha 90.000000
_cell_angle_beta 90.000000
_cell_angle_gamma 90.000000
_cell_volume 2718.453418
_symmetry_space_group_name_H-M "A M A 2"
_symmetry_group_IT_number 40
_symmetry_cell_setting 'orthorhombic'
loop_
_space_group_symop_operation_xyz
x,y,z
-x,-y,z
1/2-x,y,z
1/2+x,-y,z
x,1/2+y,1/2+z
-x,1/2-y,1/2+z
1/2-x,1/2+y,1/2+z
1/2+x,1/2-y,1/2+z
loop_
_atom_site_type_symbol
_atom_site_label
_atom_site_fract_x
_atom_site_fract_y
_atom_site_fract_z
Si Si1 0.852059 0.212195 0.774100
Si Si2 0.750000 0.493002 0.112083
Si Si3 0.498599 0.787545 0.864319
Si Si4 0.853111 0.782617 0.778045
Si Si5 0.010245 0.204255 0.493482
Si Si6 0.002293 0.787859 0.687837
Si Si7 0.610598 0.189358 0.094553
Si Si8 0.155689 0.680671 0.562009
O O1 0.750000 0.273128 0.775660
O O2 0.906537 0.264015 0.718680
O O3 0.915067 0.268021 0.825536
O O4 0.849911 0.997398 0.775171
O O5 0.673564 0.340091 0.118372
O O6 0.827058 0.643952 0.098241
O O7 0.591151 0.732876 0.833883
O O8 0.486092 0.726173 0.927309
O O9 0.500000 0.000000 0.864281
O O10 0.750000 0.722543 0.775418
O O11 0.919261 0.728890 0.727652
O O12 0.924148 0.301650 0.518428
O O13 0.094334 0.273398 0.528770
O O14 0.000000 0.000000 0.507288
O O15 0.982301 0.711328 0.627325
O O16 0.000000 0.000000 0.686206
O O17 0.646633 0.994038 0.098468
O O18 0.250000 0.663578 0.529194
#
# Coordination Sequence:
#
# PCOD9365033 Si02
#       8
#     8   4   8   8   8   8   8   8
#     4   8  15  34  57  90 128 163 217 282 337 395
#     4  10  22  42  62  92 134 176 226 268 316 398
#     4   9  18  33  55  90 120 158 215 275 337 399
#     4   8  15  30  54  86 121 158 209 272 331 393
#     4  12  23  41  62  89 131 176 220 277 334 392
#     4   9  19  31  57  96 128 168 223 269 337 394
#     4  12  22  41  65  93 137 177 215 276 325 394
#     4  10  23  41  61  90 130 178 225 261 321 392
#
# _framework density 22.071373999999999
#
# number of rings (size 3 to 8) (size 9 to 14) (size 15 to 20)
#    0.400    1.867    2.000    3.200    0.933    0.533 
#    1.200    2.000    0.000    6.400    0.000    0.000 
#    0.000    0.000    0.000    0.000    0.000    0.000 
#
# Total GULP energy -167063.152824 kJ/mol
# GULP energy per Si atom -5568.771761 kJ/mol
# Density = 2.202114 g / cm^3
# Si number density = 22.071374 Si / 1000 Ang^3
#
#
#
# Elastic Constant Matrix: (Units=GPa)
#
#
# Indices 1 2 3 4 5 6 
#
# 1 141.5949 12.9657 39.5884 0.0000 0.0000 0.0000
# 2 12.9657 90.7554 5.1679 0.0000 0.0000 0.0000
# 3 39.5884 5.1679 111.3595 0.0000 0.0000 0.0000
# 4 0.0000 0.0000 0.0000 18.9254 0.0000 0.0000
# 5 0.0000 0.0000 0.0000 0.0000 10.3012 0.0000
# 6 0.0000 0.0000 0.0000 0.0000 0.0000 18.0012
#
#
#
# Elastic Compliance Matrix: (Units=1/GPa)
#
#
# Indices 1 2 3 4 5 6 
#
# 1 0.007927 -0.000975 -0.002773 0.000000 0.000000 0.000000
# 2 -0.000975 0.011168 -0.000172 0.000000 0.000000 0.000000
# 3 -0.002773 -0.000172 0.009974 0.000000 0.000000 0.000000
# 4 0.000000 0.000000 0.000000 0.052839 0.000000 0.000000
# 5 0.000000 0.000000 0.000000 0.000000 0.097076 0.000000
# 6 0.000000 0.000000 0.000000 0.000000 0.000000 0.055552
#
#
# Mechanical properties :
#
#
# Convention : Reuss Voigt Hill
#
# Bulk Modulus (GPa) = 47.10354 51.01709 49.06031
# Shear Modulus (GPa) = 20.04410 28.51141 24.27775
#
# Velocity S-wave (km/s) = 3.01682 3.59804 3.32017
# Velocity P-wave (km/s) = 5.78988 6.35814 6.08065
#
# Compressibility (1/GPa) = 0.02122983
#
# Stress axis : x y z
#
# Youngs Moduli (GPa) = 126.15296 89.54441 100.26446
#
# Poissons Ratio (x) = 0.08727 0.27801
# Poissons Ratio (y) = 0.12295 0.01723
# Poissons Ratio (z) = 0.34979 0.01538
#
# Static dielectric constant tensor:
#      x y z
#    x 1.834140 0.000000 0.000000 
#    y 0.000000 1.807280 0.000000 
#    z 0.000000 0.000000 1.798120 
# 
# From -- ./inp_files/24755.got.cif
#   From: 2010.05.17/outbox.cif.g08.bks.cpg/sg40_13_cif.got.tgz:24755.got - 2010.06.03 18:35:42.
