data_PCOD9365932
_publ_section_title
;
Structure prediction by ZEFSAII (Michael W. Deem and Ramdas Pophale) SiO2 
 PCOD9365932
Probable space group: A B A 2
;
_chemical_formula_sum "Si O2"
_cell_formula_units_Z 64
_cell_length_a 21.412770
_cell_length_b 13.107183
_cell_length_c 9.196813
_cell_angle_alpha 90.000000
_cell_angle_beta 90.000000
_cell_angle_gamma 90.000000
_cell_volume 2581.187606
_symmetry_space_group_name_H-M "A B A 2"
_symmetry_group_IT_number 41
_symmetry_cell_setting 'orthorhombic'
loop_
_space_group_symop_operation_xyz
x,y,z
-x,-y,z
1/2-x,y,1/2+z
1/2+x,-y,1/2+z
x,1/2+y,1/2+z
-x,1/2-y,1/2+z
1/2-x,1/2+y,z
1/2+x,1/2-y,z
loop_
_atom_site_type_symbol
_atom_site_label
_atom_site_fract_x
_atom_site_fract_y
_atom_site_fract_z
Si Si1 0.788570 0.141760 0.813190
Si Si2 0.936459 0.379198 0.822437
Si Si3 0.590706 0.051005 0.396610
Si Si4 0.342357 0.134285 0.574939
Si Si5 0.400274 0.076430 0.117882
Si Si6 0.333176 0.752107 0.797721
Si Si7 0.722024 0.497866 0.541188
Si Si8 0.558576 0.107419 0.692657
O O1 0.858445 0.141304 0.873959
O O2 0.741344 0.233490 0.781852
O O3 0.791284 0.070485 0.675006
O O4 0.750548 0.070797 0.923047
O O5 0.876890 0.342850 0.726420
O O6 0.939129 0.498140 0.772202
O O7 0.000359 0.330989 0.758204
O O8 0.943720 0.372467 0.997334
O O9 0.545054 0.094256 0.519945
O O10 0.622105 0.957499 0.487966
O O11 0.574205 0.004437 0.237523
O O12 0.344410 0.231433 0.468341
O O13 0.272111 0.089277 0.580012
O O14 0.360466 0.155156 0.213662
O O15 0.346868 0.038845 0.004405
O O16 0.374462 0.842421 0.729044
#
# Coordination Sequence:
#
# PCOD9365932 Si02
#       8
#     8   8   8   8   8   8   8   8
#     4  10  19  34  58  84 118 159 201 248 295 361
#     4  10  21  41  63  83 117 165 211 251 304 371
#     4   8  18  38  60  84 115 156 198 245 307 363
#     4   9  19  35  56  83 119 162 198 239 304 358
#     4  10  21  37  59  89 122 156 195 251 315 368
#     4  11  22  35  55  87 123 157 202 251 297 358
#     4  10  19  36  59  81 118 160 195 242 303 367
#     4  10  21  40  64  86 114 161 212 257 297 361
#
# _framework density 24.794789000000002
#
# number of rings (size 3 to 8) (size 9 to 14) (size 15 to 20)
#    0.000    2.250    0.000    4.500    0.000    3.000 
#    0.000   12.500    0.000    0.000    0.000    0.000 
#    0.000    0.000    0.000    0.000    0.000    0.000 
#
# Total GULP energy -178499.917755 kJ/mol
# GULP energy per Si atom -5578.122430 kJ/mol
# Density = 2.473835 g / cm^3
# Si number density = 24.794789 Si / 1000 Ang^3
#
#
#
# Elastic Constant Matrix: (Units=GPa)
#
#
# Indices 1 2 3 4 5 6 
#
# 1 82.5911 -0.3214 40.5884 0.0000 0.0000 0.0000
# 2 -0.3214 50.3086 15.7003 0.0000 0.0000 0.0000
# 3 40.5884 15.7003 152.3759 0.0000 0.0000 0.0000
# 4 0.0000 0.0000 0.0000 35.3191 0.0000 0.0000
# 5 0.0000 0.0000 0.0000 0.0000 29.7160 0.0000
# 6 0.0000 0.0000 0.0000 0.0000 0.0000 0.5510
#
#
#
# Elastic Compliance Matrix: (Units=1/GPa)
#
#
# Indices 1 2 3 4 5 6 
#
# 1 0.014013 0.001296 -0.003866 0.000000 0.000000 0.000000
# 2 0.001296 0.020658 -0.002474 0.000000 0.000000 0.000000
# 3 -0.003866 -0.002474 0.007847 0.000000 0.000000 0.000000
# 4 0.000000 0.000000 0.000000 0.028313 0.000000 0.000000
# 5 0.000000 0.000000 0.000000 0.000000 0.033652 0.000000
# 6 0.000000 0.000000 0.000000 0.000000 0.000000 1.814767
#
#
# Mechanical properties :
#
#
# Convention : Reuss Voigt Hill
#
# Bulk Modulus (GPa) = 30.83538 44.13445 37.48491
# Shear Modulus (GPa) = 2.57712 28.40445 15.49079
#
# Velocity S-wave (km/s) = 1.02061 3.38832 2.50223
# Velocity P-wave (km/s) = 3.72184 5.75727 4.84759
#
# Compressibility (1/GPa) = 0.03243028
#
# Stress axis : x y z
#
# Youngs Moduli (GPa) = 71.36305 48.40831 127.43032
#
# Poissons Ratio (x) = -0.06274 0.49266
# Poissons Ratio (y) = -0.09249 0.31523
# Poissons Ratio (z) = 0.27590 0.11975
#
# Static dielectric constant tensor:
#      x y z
#    x 2.468440 0.000000 0.000000 
#    y 0.000000 2.007210 0.000000 
#    z 0.000000 0.000000 1.987480 
# 
# From -- ./inp_files/3704.got.cif
#   From: 2010.05.17/outbox.cif.g08.bks.cpg/sg41_2_cif.got.tgz:3704.got - 2010.06.03 18:54:24.
