data_PCOD9365840
_publ_section_title
;
Structure prediction by ZEFSAII (Michael W. Deem and Ramdas Pophale) SiO2 
 PCOD9365840
Probable space group: A B A 2
;
_chemical_formula_sum "Si O2"
_cell_formula_units_Z 40
_cell_length_a 8.585970
_cell_length_b 23.966845
_cell_length_c 8.724524
_cell_angle_alpha 90.000000
_cell_angle_beta 90.000000
_cell_angle_gamma 90.000000
_cell_volume 1795.320441
_symmetry_space_group_name_H-M "A B A 2"
_symmetry_group_IT_number 41
_symmetry_cell_setting 'orthorhombic'
loop_
_space_group_symop_operation_xyz
x,y,z
-x,-y,z
1/2-x,y,1/2+z
1/2+x,-y,1/2+z
x,1/2+y,1/2+z
-x,1/2-y,1/2+z
1/2-x,1/2+y,z
1/2+x,1/2-y,z
loop_
_atom_site_type_symbol
_atom_site_label
_atom_site_fract_x
_atom_site_fract_y
_atom_site_fract_z
Si Si1 0.500000 0.000000 0.622660
Si Si2 0.028642 0.701243 0.410389
Si Si3 0.860972 0.805650 0.266536
Si Si4 0.168819 0.072439 0.366998
Si Si5 0.456072 0.419080 0.872320
Si Si6 0.000000 0.000000 0.617870
O O1 0.615522 0.965151 0.726662
O O2 0.408923 0.955609 0.517635
O O3 0.089703 0.698650 0.587186
O O4 0.175587 0.699088 0.294330
O O5 0.922322 0.646246 0.380795
O O6 0.938253 0.757109 0.367035
O O7 0.901470 0.866343 0.335664
O O8 0.354196 0.078567 0.376372
O O9 0.101657 0.040708 0.512918
O O10 0.410055 0.456117 0.727289
#
# Coordination Sequence:
#
# PCOD9365840 Si02
#       6
#     4   8   8   8   8   4
#     4  10  18  38  58  88 118 154 208 252 298 384
#     4  11  24  43  70  95 130 171 219 269 325 388
#     4  11  24  43  70  95 130 171 219 269 325 388
#     4  10  21  38  63  88 123 164 208 251 324 376
#     4  10  21  38  63  88 123 164 208 251 324 376
#     4  10  22  34  62  92 118 162 204 260 294 396
#
# _framework density 22.280145000000001
#
# number of rings (size 3 to 8) (size 9 to 14) (size 15 to 20)
#    0.000    1.600    2.000    2.400   11.200    0.000 
#    0.000   12.000    0.000    0.000    0.000    0.000 
#    0.000    0.000    0.000    0.000    0.000    0.000 
#
# Total GULP energy -111817.673234 kJ/mol
# GULP energy per Si atom -5590.883662 kJ/mol
# Density = 2.222943 g / cm^3
# Si number density = 22.280145 Si / 1000 Ang^3
#
#
#
# Elastic Constant Matrix: (Units=GPa)
#
#
# Indices 1 2 3 4 5 6 
#
# 1 16.2203 40.1961 9.0775 0.0000 0.0000 0.0000
# 2 40.1961 230.6012 72.0315 0.0000 0.0000 0.0000
# 3 9.0775 72.0315 132.1025 0.0000 0.0000 0.0000
# 4 0.0000 0.0000 0.0000 -60.5599 0.0000 0.0000
# 5 0.0000 0.0000 0.0000 0.0000 32.1905 0.0000
# 6 0.0000 0.0000 0.0000 0.0000 0.0000 36.6767
#
#
#
# Elastic Compliance Matrix: (Units=1/GPa)
#
#
# Indices 1 2 3 4 5 6 
#
# 1 0.109850 -0.020237 0.003486 0.000000 0.000000 0.000000
# 2 -0.020237 0.008955 -0.003492 0.000000 0.000000 0.000000
# 3 0.003486 -0.003492 0.009235 0.000000 0.000000 0.000000
# 4 0.000000 0.000000 0.000000 -0.016513 0.000000 0.000000
# 5 0.000000 0.000000 0.000000 0.000000 0.031065 0.000000
# 6 0.000000 0.000000 0.000000 0.000000 0.000000 0.027265
#
#
# Mechanical properties :
#
#
# Convention : Reuss Voigt Hill
#
# Bulk Modulus (GPa) = 11.42160 69.05936 40.24048
# Shear Modulus (GPa) = 20.87445 18.83605 19.85525
#
# Velocity S-wave (km/s) = 3.06422 2.91076 2.98847
# Velocity P-wave (km/s) = 4.20199 6.50845 5.47799
#
# Compressibility (1/GPa) = 0.08755338
#
# Stress axis : x y z
#
# Youngs Moduli (GPa) = 9.10333 111.67163 108.28938
#
# Poissons Ratio (x) = 2.25989 -0.37752
# Poissons Ratio (y) = 0.18422 0.37817
# Poissons Ratio (z) = -0.03174 0.38998
#
# Static dielectric constant tensor:
#      x y z
#    x 1.854630 0.000000 0.000000 
#    y 0.000000 1.834350 0.000000 
#    z 0.000000 0.000000 1.842270 
# 
# From -- ./inp_files/1721.got.cif
#   From: 2010.05.17/outbox.cif.g08.bks.cpg/sg41_1_cif.got.tgz:1721.got - 2010.06.03 18:54:24.
