data_PCOD9365814
_publ_section_title
;
Structure prediction by ZEFSAII (Michael W. Deem and Ramdas Pophale) SiO2 
 PCOD9365814
Probable space group: A B A 2
;
_chemical_formula_sum "Si O2"
_cell_formula_units_Z 56
_cell_length_a 13.341282
_cell_length_b 8.599697
_cell_length_c 22.248069
_cell_angle_alpha 90.000000
_cell_angle_beta 90.000000
_cell_angle_gamma 90.000000
_cell_volume 2552.542822
_symmetry_space_group_name_H-M "A B A 2"
_symmetry_group_IT_number 41
_symmetry_cell_setting 'orthorhombic'
loop_
_space_group_symop_operation_xyz
x,y,z
-x,-y,z
1/2-x,y,1/2+z
1/2+x,-y,1/2+z
x,1/2+y,1/2+z
-x,1/2-y,1/2+z
1/2-x,1/2+y,z
1/2+x,1/2-y,z
loop_
_atom_site_type_symbol
_atom_site_label
_atom_site_fract_x
_atom_site_fract_y
_atom_site_fract_z
Si Si1 0.520317 0.248940 0.813680
Si Si2 0.831488 0.930260 0.253362
Si Si3 0.500000 0.000000 0.007629
Si Si4 0.804373 0.206222 0.170723
Si Si5 0.500000 0.500000 0.718991
Si Si6 0.711219 0.073862 0.869119
Si Si7 0.138712 0.980518 0.616241
Si Si8 0.388429 0.231030 0.921785
O O1 0.431537 0.140963 0.783785
O O2 0.545887 0.373522 0.763186
O O3 0.620108 0.177682 0.842915
O O4 0.460899 0.307126 0.872212
O O5 0.770225 0.806540 0.213661
O O6 0.858933 0.079106 0.212303
O O7 0.756205 0.994272 0.305705
O O8 0.411230 0.951665 0.052962
O O9 0.461456 0.156829 0.973279
O O10 0.860692 0.336465 0.132318
O O11 0.744586 0.099856 0.123436
O O12 0.424090 0.417790 0.673288
O O13 0.790941 0.156266 0.912944
O O14 0.660002 0.933401 0.903512
#
# Coordination Sequence:
#
# PCOD9365814 Si02
#       8
#     8   8   4   8   4   8   8   8
#     4  11  22  38  62  99 143 175 221 278 354 426
#     4  10  18  35  62  99 150 169 213 289 346 448
#     4  11  24  50  66  86 140 177 246 296 344 393
#     4  10  20  37  64 103 131 180 229 269 366 423
#     4  11  22  36  60 102 138 177 208 274 352 433
#     4  11  23  37  64  98 126 180 220 272 362 413
#     4  10  23  40  67  96 129 184 223 287 344 418
#     4  11  24  44  65  94 130 181 231 294 347 411
#
# _framework density 21.938908000000001
#
# number of rings (size 3 to 8) (size 9 to 14) (size 15 to 20)
#    0.000    1.429    2.857    3.857    4.000    2.286 
#    0.000    0.000    0.000    3.429    0.000    0.000 
#    0.000    0.000    0.000    0.000    0.000    0.000 
#
# Total GULP energy -155873.795687 kJ/mol
# GULP energy per Si atom -5566.921275 kJ/mol
# Density = 2.188897 g / cm^3
# Si number density = 21.938908 Si / 1000 Ang^3
#
#
#
# Elastic Constant Matrix: (Units=GPa)
#
#
# Indices 1 2 3 4 5 6 
#
# 1 72.7000 23.2852 29.2281 0.0000 0.0000 0.0000
# 2 23.2852 58.6869 24.6171 0.0000 0.0000 0.0000
# 3 29.2281 24.6171 93.8056 0.0000 0.0000 0.0000
# 4 0.0000 0.0000 0.0000 9.5336 0.0000 0.0000
# 5 0.0000 0.0000 0.0000 0.0000 24.8954 0.0000
# 6 0.0000 0.0000 0.0000 0.0000 0.0000 36.0376
#
#
#
# Elastic Compliance Matrix: (Units=1/GPa)
#
#
# Indices 1 2 3 4 5 6 
#
# 1 0.016971 -0.005074 -0.003956 0.000000 0.000000 0.000000
# 2 -0.005074 0.020664 -0.003842 0.000000 0.000000 0.000000
# 3 -0.003956 -0.003842 0.012901 0.000000 0.000000 0.000000
# 4 0.000000 0.000000 0.000000 0.104892 0.000000 0.000000
# 5 0.000000 0.000000 0.000000 0.000000 0.040168 0.000000
# 6 0.000000 0.000000 0.000000 0.000000 0.000000 0.027749
#
#
# Mechanical properties :
#
#
# Convention : Reuss Voigt Hill
#
# Bulk Modulus (GPa) = 40.33540 42.16147 41.24843
# Shear Modulus (GPa) = 19.42853 23.96413 21.69633
#
# Velocity S-wave (km/s) = 2.97909 3.30860 3.14816
# Velocity P-wave (km/s) = 5.50077 5.81852 5.66188
#
# Compressibility (1/GPa) = 0.02479212
#
# Stress axis : x y z
#
# Youngs Moduli (GPa) = 58.92440 48.39255 77.51181
#
# Poissons Ratio (x) = 0.24555 0.30666
# Poissons Ratio (y) = 0.29898 0.29779
# Poissons Ratio (z) = 0.23312 0.18592
#
# Static dielectric constant tensor:
#      x y z
#    x 2.129840 0.000000 0.000000 
#    y 0.000000 1.876780 0.000000 
#    z 0.000000 0.000000 1.858890 
# 
# From -- ./inp_files/11589.got.cif
#   From: 2010.05.17/outbox.cif.g08.bks.cpg/sg41_6_cif.got.tgz:11589.got - 2010.06.03 18:54:24.
