data_PCOD9365006
_publ_section_title
;
Structure prediction by ZEFSAII (Michael W. Deem and Ramdas Pophale) SiO2 
 PCOD9365006
Probable space group: A M A 2
;
_chemical_formula_sum "Si O2"
_cell_formula_units_Z 48
_cell_length_a 32.265227
_cell_length_b 7.473973
_cell_length_c 7.787999
_cell_angle_alpha 90.000000
_cell_angle_beta 90.000000
_cell_angle_gamma 90.000000
_cell_volume 1878.071562
_symmetry_space_group_name_H-M "A M A 2"
_symmetry_group_IT_number 40
_symmetry_cell_setting 'orthorhombic'
loop_
_space_group_symop_operation_xyz
x,y,z
-x,-y,z
1/2-x,y,z
1/2+x,-y,z
x,1/2+y,1/2+z
-x,1/2-y,1/2+z
1/2-x,1/2+y,1/2+z
1/2+x,1/2-y,1/2+z
loop_
_atom_site_type_symbol
_atom_site_label
_atom_site_fract_x
_atom_site_fract_y
_atom_site_fract_z
Si Si1 0.067703 0.209324 0.193940
Si Si2 0.298790 0.027226 0.498202
Si Si3 0.008278 0.706317 0.993405
Si Si4 0.334250 0.664210 0.365330
Si Si5 0.641084 0.209148 0.879285
Si Si6 0.584576 0.710363 0.701904
O O1 0.036520 0.282506 0.341191
O O2 0.110633 0.317125 0.216210
O O3 0.036887 0.214107 0.032381
O O4 0.080102 0.003176 0.222042
O O5 0.250000 0.049112 0.479739
O O6 0.310996 0.820641 0.465883
O O7 0.313004 0.113002 0.681179
O O8 0.324975 0.138972 0.358571
O O9 0.038644 0.720223 0.158919
O O10 0.000000 0.500000 0.952657
O O11 0.336790 0.468616 0.447059
O O12 0.382599 0.719509 0.340605
O O13 0.609225 0.261013 0.027953
#
# Coordination Sequence:
#
# PCOD9365006 Si02
#       6
#     8   8   8   8   8   8
#     4  11  23  42  63  94 138 182 234 293 348 417
#     4  11  25  45  70 106 142 177 235 297 358 441
#     4  11  23  37  59  93 131 183 234 289 346 411
#     4  11  24  44  72 103 139 186 230 292 360 437
#     4  10  24  43  70  98 134 188 230 285 358 430
#     4  10  22  41  63  93 133 179 234 288 348 419
#
# _framework density 25.558132000000001
#
# number of rings (size 3 to 8) (size 9 to 14) (size 15 to 20)
#    0.000    1.333    1.667    3.000    2.333    6.667 
#    0.000    0.000    0.000    0.000    0.000    0.000 
#    0.000    0.000    0.000    0.000    0.000    0.000 
#
# Total GULP energy -134224.114577 kJ/mol
# GULP energy per Si atom -5592.671441 kJ/mol
# Density = 2.549996 g / cm^3
# Si number density = 25.558132 Si / 1000 Ang^3
#
#
#
# Elastic Constant Matrix: (Units=GPa)
#
#
# Indices 1 2 3 4 5 6 
#
# 1 212.9652 49.0673 34.6147 0.0000 0.0000 0.0000
# 2 49.0673 120.6588 -1.4961 0.0000 0.0000 0.0000
# 3 34.6147 -1.4961 90.2297 0.0000 0.0000 0.0000
# 4 0.0000 0.0000 0.0000 29.0693 0.0000 0.0000
# 5 0.0000 0.0000 0.0000 0.0000 15.8980 0.0000
# 6 0.0000 0.0000 0.0000 0.0000 0.0000 27.2925
#
#
#
# Elastic Compliance Matrix: (Units=1/GPa)
#
#
# Indices 1 2 3 4 5 6 
#
# 1 0.005579 -0.002296 -0.002178 0.000000 0.000000 0.000000
# 2 -0.002296 0.009234 0.001034 0.000000 0.000000 0.000000
# 3 -0.002178 0.001034 0.011936 0.000000 0.000000 0.000000
# 4 0.000000 0.000000 0.000000 0.034401 0.000000 0.000000
# 5 0.000000 0.000000 0.000000 0.000000 0.062901 0.000000
# 6 0.000000 0.000000 0.000000 0.000000 0.000000 0.036640
#
#
# Mechanical properties :
#
#
# Convention : Reuss Voigt Hill
#
# Bulk Modulus (GPa) = 50.33133 65.35839 57.84486
# Shear Modulus (GPa) = 28.70383 37.22982 32.96682
#
# Velocity S-wave (km/s) = 3.35487 3.82078 3.59538
# Velocity P-wave (km/s) = 5.89428 6.71509 6.31803
#
# Compressibility (1/GPa) = 0.01986834
#
# Stress axis : x y z
#
# Youngs Moduli (GPa) = 179.25851 108.29339 83.78319
#
# Poissons Ratio (x) = 0.24860 0.18249
# Poissons Ratio (y) = 0.41150 -0.08661
# Poissons Ratio (z) = 0.39045 -0.11195
#
# Static dielectric constant tensor:
#      x y z
#    x 1.952220 0.000000 0.000000 
#    y 0.000000 1.993070 0.000000 
#    z 0.000000 0.000000 2.276110 
# 
# From -- ./inp_files/9305.got.cif
#   From: 2010.05.17/outbox.cif.g08.bks.cpg/sg40_5_cif.got.tgz:9305.got - 2010.06.03 18:35:42.
