data_PCOD9365454
_publ_section_title
;
Structure prediction by ZEFSAII (Michael W. Deem and Ramdas Pophale) SiO2 
 PCOD9365454
Probable space group: A M A 2
;
_chemical_formula_sum "Si O2"
_cell_formula_units_Z 48
_cell_length_a 13.868027
_cell_length_b 26.719879
_cell_length_c 4.920989
_cell_angle_alpha 90.000000
_cell_angle_beta 90.000000
_cell_angle_gamma 90.000000
_cell_volume 1823.482333
_symmetry_space_group_name_H-M "A M A 2"
_symmetry_group_IT_number 40
_symmetry_cell_setting 'orthorhombic'
loop_
_space_group_symop_operation_xyz
x,y,z
-x,-y,z
1/2-x,y,z
1/2+x,-y,z
x,1/2+y,1/2+z
-x,1/2-y,1/2+z
1/2-x,1/2+y,1/2+z
1/2+x,1/2-y,1/2+z
loop_
_atom_site_type_symbol
_atom_site_label
_atom_site_fract_x
_atom_site_fract_y
_atom_site_fract_z
Si Si1 0.390171 0.941878 0.497810
Si Si2 0.355893 0.740129 0.660152
Si Si3 0.480849 0.814011 0.385600
Si Si4 0.354611 0.876442 0.008018
Si Si5 0.077311 0.035027 0.767471
Si Si6 0.859288 0.858245 0.775108
O O1 0.364533 0.897402 0.706124
O O2 0.505187 0.947159 0.527122
O O3 0.354865 0.994221 0.624995
O O4 0.357219 0.924868 0.205624
O O5 0.250000 0.742926 0.786121
O O6 0.448257 0.733314 0.848492
O O7 0.382726 0.790611 0.504287
O O8 0.357712 0.689084 0.480496
O O9 0.442560 0.843431 0.120874
O O10 0.554584 0.846598 0.565468
O O11 0.250000 0.852004 0.037880
O O12 0.120974 0.085461 0.889466
O O13 0.000000 0.000000 0.934824
O O14 0.750000 0.859789 0.654466
#
# Coordination Sequence:
#
# PCOD9365454 Si02
#       6
#     8   8   8   8   8   8
#     4   9  22  42  66  97 138 180 230 284 347 415
#     4  11  25  43  68 100 129 179 236 287 362 431
#     4  12  23  44  68  94 140 177 229 299 351 418
#     4  12  24  41  69 102 139 182 233 285 351 421
#     4   8  19  41  68  92 136 179 225 280 355 410
#     4  11  22  42  67  98 133 177 229 285 353 427
#
# _framework density 26.323262
#
# number of rings (size 3 to 8) (size 9 to 14) (size 15 to 20)
#    1.000    0.333    3.333    2.500    0.000    4.000 
#    3.000    0.000    0.000    0.000    0.000    0.000 
#    0.000    0.000    0.000    0.000    0.000    0.000 
#
# Total GULP energy -133899.240443 kJ/mol
# GULP energy per Si atom -5579.135018 kJ/mol
# Density = 2.626335 g / cm^3
# Si number density = 26.323262 Si / 1000 Ang^3
#
#
#
# Elastic Constant Matrix: (Units=GPa)
#
#
# Indices 1 2 3 4 5 6 
#
# 1 176.6153 33.9066 12.9939 0.0000 0.0000 0.0000
# 2 33.9066 181.5146 27.3574 0.0000 0.0000 0.0000
# 3 12.9939 27.3574 51.1483 0.0000 0.0000 0.0000
# 4 0.0000 0.0000 0.0000 40.8911 0.0000 0.0000
# 5 0.0000 0.0000 0.0000 0.0000 88.2705 0.0000
# 6 0.0000 0.0000 0.0000 0.0000 0.0000 2.4395
#
#
#
# Elastic Compliance Matrix: (Units=1/GPa)
#
#
# Indices 1 2 3 4 5 6 
#
# 1 0.005919 -0.000956 -0.000992 0.000000 0.000000 0.000000
# 2 -0.000956 0.006147 -0.003045 0.000000 0.000000 0.000000
# 3 -0.000992 -0.003045 0.021432 0.000000 0.000000 0.000000
# 4 0.000000 0.000000 0.000000 0.024455 0.000000 0.000000
# 5 0.000000 0.000000 0.000000 0.000000 0.011329 0.000000
# 6 0.000000 0.000000 0.000000 0.000000 0.000000 0.409913
#
#
# Mechanical properties :
#
#
# Convention : Reuss Voigt Hill
#
# Bulk Modulus (GPa) = 42.53366 61.97710 52.25538
# Shear Modulus (GPa) = 10.06001 48.65493 29.35747
#
# Velocity S-wave (km/s) = 1.95704 4.30392 3.34318
# Velocity P-wave (km/s) = 4.61519 6.94939 5.89890
#
# Compressibility (1/GPa) = 0.02351079
#
# Stress axis : x y z
#
# Youngs Moduli (GPa) = 168.95996 162.68941 46.66007
#
# Poissons Ratio (x) = 0.15554 0.04630
# Poissons Ratio (y) = 0.16153 0.14207
# Poissons Ratio (z) = 0.16765 0.49535
#
# Static dielectric constant tensor:
#      x y z
#    x 2.078900 0.000000 0.000000 
#    y 0.000000 2.104140 0.000000 
#    z 0.000000 0.000000 2.124210 
# 
# From -- ./inp_files/1346.got.cif
#   From: 2010.05.17/outbox.cif.g08.bks.cpg/sg40_1_cif.got.tgz:1346.got - 2010.06.03 18:35:42.
