data_PCOD9365978
_publ_section_title
;
Structure prediction by ZEFSAII (Michael W. Deem and Ramdas Pophale) SiO2 
 PCOD9365978
Probable space group: A B A 2
;
_chemical_formula_sum "Si O2"
_cell_formula_units_Z 48
_cell_length_a 17.828976
_cell_length_b 5.404194
_cell_length_c 22.275171
_cell_angle_alpha 90.000000
_cell_angle_beta 90.000000
_cell_angle_gamma 90.000000
_cell_volume 2146.240461
_symmetry_space_group_name_H-M "A B A 2"
_symmetry_group_IT_number 41
_symmetry_cell_setting 'orthorhombic'
loop_
_space_group_symop_operation_xyz
x,y,z
-x,-y,z
1/2-x,y,1/2+z
1/2+x,-y,1/2+z
x,1/2+y,1/2+z
-x,1/2-y,1/2+z
1/2-x,1/2+y,z
1/2+x,1/2-y,z
loop_
_atom_site_type_symbol
_atom_site_label
_atom_site_fract_x
_atom_site_fract_y
_atom_site_fract_z
Si Si1 0.132155 0.361290 0.288180
Si Si2 0.258762 0.858367 0.181772
Si Si3 0.000000 0.000000 0.578415
Si Si4 0.707464 0.649132 0.910416
Si Si5 0.605177 0.637829 0.253088
Si Si6 0.045622 0.738066 0.964570
Si Si7 0.500000 0.500000 0.146734
O O1 0.165712 0.359481 0.220445
O O2 0.195783 0.358805 0.338315
O O3 0.088244 0.616530 0.290039
O O4 0.088942 0.105365 0.291456
O O5 0.250065 0.608363 0.145977
O O6 0.193045 0.858010 0.232816
O O7 0.027693 0.751687 0.612931
O O8 0.941680 0.870694 0.532160
O O9 0.740200 0.381260 0.927414
O O10 0.624457 0.702877 0.934624
O O11 0.562186 0.613867 0.190803
O O12 0.000000 0.500000 0.937229
O O13 0.000000 0.000000 0.966430
#
# Coordination Sequence:
#
# PCOD9365978 Si02
#       7
#     8   8   4   8   8   8   4
#     4  10  19  36  55  83 130 171 193 243 321 384
#     4   8  14  27  48  66 101 151 181 217 283 351
#     4  10  22  44  69  80 117 172 220 280 360 402
#     4  12  23  38  70 104 131 176 228 263 323 417
#     4  10  20  33  52  84 121 154 208 257 294 370
#     4  10  22  45  68  96 128 179 214 284 357 406
#     4  12  22  38  63  90 113 168 234 272 320 392
#
# _framework density 22.364691000000001
#
# number of rings (size 3 to 8) (size 9 to 14) (size 15 to 20)
#    0.500    1.333    0.833    6.000    0.000    0.000 
#    4.500    0.000    0.000   18.000    0.000    0.000 
#    0.000    0.000    0.000    0.000    0.000    0.000 
#
# Total GULP energy -133610.453376 kJ/mol
# GULP energy per Si atom -5567.102224 kJ/mol
# Density = 2.231379 g / cm^3
# Si number density = 22.364691 Si / 1000 Ang^3
#
#
#
# Elastic Constant Matrix: (Units=GPa)
#
#
# Indices 1 2 3 4 5 6 
#
# 1 75.5743 36.8323 23.8366 0.0000 0.0000 0.0000
# 2 36.8323 267.5139 16.4168 0.0000 0.0000 0.0000
# 3 23.8366 16.4168 27.0747 0.0000 0.0000 0.0000
# 4 0.0000 0.0000 0.0000 16.0546 0.0000 0.0000
# 5 0.0000 0.0000 0.0000 0.0000 7.2254 0.0000
# 6 0.0000 0.0000 0.0000 0.0000 0.0000 30.2718
#
#
#
# Elastic Compliance Matrix: (Units=1/GPa)
#
#
# Indices 1 2 3 4 5 6 
#
# 1 0.018995 -0.001650 -0.015723 0.000000 0.000000 0.000000
# 2 -0.001650 0.004026 -0.000988 0.000000 0.000000 0.000000
# 3 -0.015723 -0.000988 0.051376 0.000000 0.000000 0.000000
# 4 0.000000 0.000000 0.000000 0.062287 0.000000 0.000000
# 5 0.000000 0.000000 0.000000 0.000000 0.138400 0.000000
# 6 0.000000 0.000000 0.000000 0.000000 0.000000 0.033034
#
#
# Mechanical properties :
#
#
# Convention : Reuss Voigt Hill
#
# Bulk Modulus (GPa) = 26.54282 58.25939 42.40110
# Shear Modulus (GPa) = 13.98989 30.24885 22.11937
#
# Velocity S-wave (km/s) = 2.50378 3.68166 3.14830
# Velocity P-wave (km/s) = 4.50028 6.64674 5.67590
#
# Compressibility (1/GPa) = 0.03767498
#
# Stress axis : x y z
#
# Youngs Moduli (GPa) = 52.64405 248.38518 19.46418
#
# Poissons Ratio (x) = 0.40996 0.30603
# Poissons Ratio (y) = 0.08689 0.01923
# Poissons Ratio (z) = 0.82772 0.24543
#
# Static dielectric constant tensor:
#      x y z
#    x 1.842150 0.000000 0.000000 
#    y 0.000000 1.759460 0.000000 
#    z 0.000000 0.000000 1.831030 
# 
# From -- ./inp_files/12586.got.cif
#   From: 2010.05.17/outbox.cif.g08.bks.cpg/sg41_7_cif.got.tgz:12586.got - 2010.06.03 18:54:24.
