data_PCOD9365388
_publ_section_title
;
Structure prediction by ZEFSAII (Michael W. Deem and Ramdas Pophale) SiO2 
 PCOD9365388
Probable space group: A M A 2
;
_chemical_formula_sum "Si O2"
_cell_formula_units_Z 64
_cell_length_a 8.695136
_cell_length_b 30.887324
_cell_length_c 14.709010
_cell_angle_alpha 90.000000
_cell_angle_beta 90.000000
_cell_angle_gamma 90.000000
_cell_volume 3950.391209
_symmetry_space_group_name_H-M "A M A 2"
_symmetry_group_IT_number 40
_symmetry_cell_setting 'orthorhombic'
loop_
_space_group_symop_operation_xyz
x,y,z
-x,-y,z
1/2-x,y,z
1/2+x,-y,z
x,1/2+y,1/2+z
-x,1/2-y,1/2+z
1/2-x,1/2+y,1/2+z
1/2+x,1/2-y,1/2+z
loop_
_atom_site_type_symbol
_atom_site_label
_atom_site_fract_x
_atom_site_fract_y
_atom_site_fract_z
Si Si1 0.932777 0.716587 0.786680
Si Si2 0.931680 0.362374 0.677115
Si Si3 0.572437 0.777077 0.487266
Si Si4 0.564359 0.953301 0.111486
Si Si5 0.934914 0.363803 0.317011
Si Si6 0.073142 0.825740 0.998884
Si Si7 0.566763 0.200655 0.676695
Si Si8 0.434723 0.046346 0.900637
O O1 0.750000 0.722080 0.784449
O O2 0.979723 0.671059 0.741069
O O3 0.005717 0.756356 0.729363
O O4 0.993532 0.716999 0.889757
O O5 0.750000 0.360087 0.696824
O O6 0.982076 0.412621 0.673683
O O7 0.964453 0.345914 0.575018
O O8 0.750000 0.791502 0.482769
O O9 0.572384 0.725816 0.507699
O O10 0.486660 0.798187 0.572370
O O11 0.750000 0.954623 0.111688
O O12 0.500000 0.000000 0.138920
O O13 0.515336 0.945607 0.005846
O O14 0.750000 0.360283 0.320444
O O15 0.978584 0.413664 0.336512
O O16 0.009257 0.337849 0.400664
O O17 0.997298 0.341094 0.227125
O O18 0.250000 0.840714 0.010214
O O19 0.750000 0.200554 0.683304
O O20 0.250000 0.044133 0.901735
O O21 0.500000 0.000000 0.872565
#
# Coordination Sequence:
#
# PCOD9365388 Si02
#       8
#     8   8   8   8   8   8   8   8
#     4  12  24  37  54  78 105 139 179 219 262 310
#     4  11  21  35  53  75 106 142 179 217 261 312
#     4  11  23  39  55  76 104 139 180 221 264 306
#     4   9  18  32  49  74 104 138 174 213 260 310
#     4  11  21  35  53  75 106 142 179 217 261 312
#     4  11  21  31  50  76 104 139 180 219 258 307
#     4  12  24  37  54  78 105 139 179 219 262 310
#     4   9  18  32  49  74 104 138 174 213 260 310
#
# _framework density 16.200928000000001
#
# number of rings (size 3 to 8) (size 9 to 14) (size 15 to 20)
#    0.000    1.250    3.750    3.750    0.000    3.000 
#    0.000    0.000    0.000    0.000    0.000    0.875 
#    0.000    0.000    0.000    0.000    0.000    0.000 
#
# Total GULP energy -178678.266440 kJ/mol
# GULP energy per Si atom -5583.695826 kJ/mol
# Density = 1.616405 g / cm^3
# Si number density = 16.200928 Si / 1000 Ang^3
#
#
#
# Elastic Constant Matrix: (Units=GPa)
#
#
# Indices 1 2 3 4 5 6 
#
# 1 60.8034 18.1848 -0.3403 0.0000 0.0000 0.0000
# 2 18.1848 83.8054 6.3397 0.0000 0.0000 0.0000
# 3 -0.3403 6.3397 42.5266 0.0000 0.0000 0.0000
# 4 0.0000 0.0000 0.0000 20.7885 0.0000 0.0000
# 5 0.0000 0.0000 0.0000 0.0000 25.1646 0.0000
# 6 0.0000 0.0000 0.0000 0.0000 0.0000 21.0037
#
#
#
# Elastic Compliance Matrix: (Units=1/GPa)
#
#
# Indices 1 2 3 4 5 6 
#
# 1 0.017610 -0.003875 0.000719 0.000000 0.000000 0.000000
# 2 -0.003875 0.012921 -0.001957 0.000000 0.000000 0.000000
# 3 0.000719 -0.001957 0.023812 0.000000 0.000000 0.000000
# 4 0.000000 0.000000 0.000000 0.048103 0.000000 0.000000
# 5 0.000000 0.000000 0.000000 0.000000 0.039738 0.000000
# 6 0.000000 0.000000 0.000000 0.000000 0.000000 0.047611
#
#
# Mechanical properties :
#
#
# Convention : Reuss Voigt Hill
#
# Bulk Modulus (GPa) = 22.66802 26.16708 24.41755
# Shear Modulus (GPa) = 23.28519 24.25478 23.76998
#
# Velocity S-wave (km/s) = 3.79525 3.87346 3.83456
# Velocity P-wave (km/s) = 5.76433 6.01595 5.89148
#
# Compressibility (1/GPa) = 0.04411501
#
# Stress axis : x y z
#
# Youngs Moduli (GPa) = 56.78742 77.39098 41.99526
#
# Poissons Ratio (x) = 0.29992 -0.03018
# Poissons Ratio (y) = 0.22008 0.08220
# Poissons Ratio (z) = -0.04081 0.15148
#
# Static dielectric constant tensor:
#      x y z
#    x 1.547420 0.000000 0.000000 
#    y 0.000000 1.551210 0.000000 
#    z 0.000000 0.000000 1.523830 
# 
# From -- ./inp_files/15858.got.cif
#   From: 2010.05.17/outbox.cif.g08.bks.cpg/sg40_8_cif.got.tgz:15858.got - 2010.06.03 18:35:42.
