data_PCOD9365361
_publ_section_title
;
Structure prediction by ZEFSAII (Michael W. Deem and Ramdas Pophale) SiO2 
 PCOD9365361
Probable space group: A M A 2
;
_chemical_formula_sum "Si O2"
_cell_formula_units_Z 56
_cell_length_a 14.698390
_cell_length_b 12.377578
_cell_length_c 15.359990
_cell_angle_alpha 90.000000
_cell_angle_beta 90.000000
_cell_angle_gamma 90.000000
_cell_volume 2794.450180
_symmetry_space_group_name_H-M "A M A 2"
_symmetry_group_IT_number 40
_symmetry_cell_setting 'orthorhombic'
loop_
_space_group_symop_operation_xyz
x,y,z
-x,-y,z
1/2-x,y,z
1/2+x,-y,z
x,1/2+y,1/2+z
-x,1/2-y,1/2+z
1/2-x,1/2+y,1/2+z
1/2+x,1/2-y,1/2+z
loop_
_atom_site_type_symbol
_atom_site_label
_atom_site_fract_x
_atom_site_fract_y
_atom_site_fract_z
Si Si1 0.855090 0.168503 0.313750
Si Si2 0.604687 0.656252 0.118918
Si Si3 0.150654 0.443922 0.288374
Si Si4 0.349346 0.056078 0.504271
Si Si5 0.855090 0.831497 0.978894
Si Si6 0.395313 0.156252 0.673726
Si Si7 0.000000 0.500000 0.876546
Si Si8 0.500000 0.000000 0.916098
O O1 0.750000 0.130882 0.313304
O O2 0.864193 0.250000 0.396322
O O3 0.873982 0.237067 0.227115
O O4 0.930534 0.076136 0.324964
O O5 0.652262 0.643455 0.211762
O O6 0.633218 0.557016 0.055786
O O7 0.500000 0.645080 0.146322
O O8 0.626018 0.762933 0.065530
O O9 0.250000 0.448882 0.330701
O O10 0.133218 0.557016 0.236858
O O11 0.067099 0.430593 0.353774
O O12 0.250000 0.051118 0.461943
O O13 0.347738 0.143455 0.580882
O O14 0.432901 0.069407 0.438870
O O15 0.750000 0.869119 0.979340
O O16 0.930534 0.923864 0.967680
#
# Coordination Sequence:
#
# PCOD9365361 Si02
#       8
#     8   8   8   8   8   8   4   4
#     4  11  22  38  61  91 128 169 209 256 321 383
#     4  11  19  35  59  91 123 155 203 255 314 373
#     4  11  19  33  60  93 124 155 203 262 316 373
#     4  11  19  33  60  93 124 155 203 262 316 373
#     4  11  22  38  61  91 128 169 209 256 321 383
#     4  11  19  35  59  91 123 155 203 255 314 373
#     4  12  22  37  59  96 126 164 212 260 309 376
#     4  12  22  37  59  96 126 164 212 260 309 376
#
# _framework density 20.039721
#
# number of rings (size 3 to 8) (size 9 to 14) (size 15 to 20)
#    0.000    0.857    5.714    5.143    0.000    0.000 
#    0.000    0.714    0.000   24.000    0.000    0.000 
#    0.000    0.000    0.000    0.000    0.000    0.000 
#
# Total GULP energy -156383.267004 kJ/mol
# GULP energy per Si atom -5585.116679 kJ/mol
# Density = 1.999411 g / cm^3
# Si number density = 20.039721 Si / 1000 Ang^3
#
#
#
# Elastic Constant Matrix: (Units=GPa)
#
#
# Indices 1 2 3 4 5 6 
#
# 1 193.1276 49.7172 37.7518 0.0000 0.0000 0.0000
# 2 49.7172 79.1248 54.4755 0.0000 0.0000 0.0000
# 3 37.7518 54.4755 75.1546 0.0000 0.0000 0.0000
# 4 0.0000 0.0000 0.0000 44.0750 0.0000 0.0000
# 5 0.0000 0.0000 0.0000 0.0000 1.9975 0.0000
# 6 0.0000 0.0000 0.0000 0.0000 0.0000 27.9919
#
#
#
# Elastic Compliance Matrix: (Units=1/GPa)
#
#
# Indices 1 2 3 4 5 6 
#
# 1 0.006190 -0.003491 -0.000579 0.000000 0.000000 0.000000
# 2 -0.003491 0.027196 -0.017960 0.000000 0.000000 0.000000
# 3 -0.000579 -0.017960 0.026615 0.000000 0.000000 0.000000
# 4 0.000000 0.000000 0.000000 0.022689 0.000000 0.000000
# 5 0.000000 0.000000 0.000000 0.000000 0.500633 0.000000
# 6 0.000000 0.000000 0.000000 0.000000 0.000000 0.035725
#
#
# Mechanical properties :
#
#
# Convention : Reuss Voigt Hill
#
# Bulk Modulus (GPa) = 62.72715 70.14400 66.43558
# Shear Modulus (GPa) = 7.48033 28.51037 17.99535
#
# Velocity S-wave (km/s) = 1.93413 3.77595 2.99989
# Velocity P-wave (km/s) = 6.02969 7.35451 6.72481
#
# Compressibility (1/GPa) = 0.01594206
#
# Stress axis : x y z
#
# Youngs Moduli (GPa) = 161.55872 36.76955 37.57285
#
# Poissons Ratio (x) = 0.12834 0.02176
# Poissons Ratio (y) = 0.56392 0.67480
# Poissons Ratio (z) = 0.09357 0.66038
#
# Static dielectric constant tensor:
#      x y z
#    x 1.760320 0.000000 0.000000 
#    y 0.000000 1.715700 0.000000 
#    z 0.000000 0.000000 1.709530 
# 
# From -- ./inp_files/17106.got.cif
#   From: 2010.05.17/outbox.cif.g08.bks.cpg/sg40_9_cif.got.tgz:17106.got - 2010.06.03 18:35:42.
