data_PCOD9365494
_publ_section_title
;
Structure prediction by ZEFSAII (Michael W. Deem and Ramdas Pophale) SiO2 
 PCOD9365494
Probable space group: A M A 2
;
_chemical_formula_sum "Si O2"
_cell_formula_units_Z 48
_cell_length_a 21.599955
_cell_length_b 12.187596
_cell_length_c 7.841920
_cell_angle_alpha 90.000000
_cell_angle_beta 90.000000
_cell_angle_gamma 90.000000
_cell_volume 2064.397400
_symmetry_space_group_name_H-M "A M A 2"
_symmetry_group_IT_number 40
_symmetry_cell_setting 'orthorhombic'
loop_
_space_group_symop_operation_xyz
x,y,z
-x,-y,z
1/2-x,y,z
1/2+x,-y,z
x,1/2+y,1/2+z
-x,1/2-y,1/2+z
1/2-x,1/2+y,1/2+z
1/2+x,1/2-y,1/2+z
loop_
_atom_site_type_symbol
_atom_site_label
_atom_site_fract_x
_atom_site_fract_y
_atom_site_fract_z
Si Si1 0.500000 0.000000 0.640161
Si Si2 0.954417 0.101764 0.087934
Si Si3 0.250000 0.370684 0.406368
Si Si4 0.869302 0.004913 0.841387
Si Si5 0.250000 0.392792 0.814704
Si Si6 0.973466 0.712168 0.940474
Si Si7 0.750000 0.358433 0.771441
Si Si8 0.157850 0.721577 0.484586
O O1 0.565983 0.007999 0.738448
O O2 0.495070 0.108111 0.525338
O O3 0.952403 0.176370 0.253764
O O4 0.890898 0.049715 0.026820
O O5 0.000000 0.000000 0.116597
O O6 0.983004 0.182256 0.944997
O O7 0.190112 0.419409 0.306751
O O8 0.250000 0.398971 0.607439
O O9 0.250000 0.240030 0.404147
O O10 0.848231 0.879230 0.852190
O O11 0.250000 0.522372 0.855918
O O12 0.193077 0.323331 0.896209
O O13 0.910897 0.744275 0.038307
O O14 0.806944 0.332083 0.644197
#
# Coordination Sequence:
#
# PCOD9365494 Si02
#       8
#     4   8   4   8   4   8   4   8
#     4  12  26  44  70 116 150 192 248 298 362 438
#     4  12  24  46  71 103 149 188 237 300 362 432
#     4  12  25  46  77 103 138 190 247 293 366 433
#     4  12  23  49  74 104 151 192 240 305 363 426
#     4  11  24  49  69 103 142 191 240 302 362 435
#     4  12  25  44  72 108 145 193 243 299 366 434
#     4  11  25  47  68 102 142 187 239 301 358 436
#     4  11  23  45  72  97 146 188 238 301 363 425
#
# _framework density 23.251338000000001
#
# number of rings (size 3 to 8) (size 9 to 14) (size 15 to 20)
#    0.000    0.333    5.000    4.500    0.000    0.000 
#   12.000    0.000    0.000    0.000    0.000    0.000 
#    0.000    0.000    0.000    0.000    0.000    0.000 
#
# Total GULP energy -134226.765465 kJ/mol
# GULP energy per Si atom -5592.781894 kJ/mol
# Density = 2.319842 g / cm^3
# Si number density = 23.251338 Si / 1000 Ang^3
#
#
#
# Elastic Constant Matrix: (Units=GPa)
#
#
# Indices 1 2 3 4 5 6 
#
# 1 111.3553 55.3156 12.2670 0.0000 0.0000 0.0000
# 2 55.3156 196.8297 14.2798 0.0000 0.0000 0.0000
# 3 12.2670 14.2798 41.5779 0.0000 0.0000 0.0000
# 4 0.0000 0.0000 0.0000 43.7796 0.0000 0.0000
# 5 0.0000 0.0000 0.0000 0.0000 13.9678 0.0000
# 6 0.0000 0.0000 0.0000 0.0000 0.0000 37.6124
#
#
#
# Elastic Compliance Matrix: (Units=1/GPa)
#
#
# Indices 1 2 3 4 5 6 
#
# 1 0.010624 -0.002829 -0.002163 0.000000 0.000000 0.000000
# 2 -0.002829 0.005964 -0.001214 0.000000 0.000000 0.000000
# 3 -0.002163 -0.001214 0.025106 0.000000 0.000000 0.000000
# 4 0.000000 0.000000 0.000000 0.022842 0.000000 0.000000
# 5 0.000000 0.000000 0.000000 0.000000 0.071593 0.000000
# 6 0.000000 0.000000 0.000000 0.000000 0.000000 0.026587
#
#
# Mechanical properties :
#
#
# Convention : Reuss Voigt Hill
#
# Bulk Modulus (GPa) = 34.14940 57.05419 45.60180
# Shear Modulus (GPa) = 27.04359 36.93198 31.98779
#
# Velocity S-wave (km/s) = 3.41412 3.98977 3.71312
# Velocity P-wave (km/s) = 5.50096 6.76873 6.16751
#
# Compressibility (1/GPa) = 0.02928309
#
# Stress axis : x y z
#
# Youngs Moduli (GPa) = 94.12934 167.68582 39.83084
#
# Poissons Ratio (x) = 0.47433 0.08615
# Poissons Ratio (y) = 0.26626 0.04834
# Poissons Ratio (z) = 0.20359 0.20350
#
# Static dielectric constant tensor:
#      x y z
#    x 1.902420 0.000000 0.000000 
#    y 0.000000 1.833970 0.000000 
#    z 0.000000 0.000000 1.937250 
# 
# From -- ./inp_files/8794.got.cif
#   From: 2010.05.17/outbox.cif.g08.bks.cpg/sg40_5_cif.got.tgz:8794.got - 2010.06.03 18:35:42.
