data_PCOD9365166
_publ_section_title
;
Structure prediction by ZEFSAII (Michael W. Deem and Ramdas Pophale) SiO2 
 PCOD9365166
Probable space group: A M A 2
;
_chemical_formula_sum "Si O2"
_cell_formula_units_Z 56
_cell_length_a 30.049661
_cell_length_b 14.192453
_cell_length_c 5.318968
_cell_angle_alpha 90.000000
_cell_angle_beta 90.000000
_cell_angle_gamma 90.000000
_cell_volume 2268.424970
_symmetry_space_group_name_H-M "A M A 2"
_symmetry_group_IT_number 40
_symmetry_cell_setting 'orthorhombic'
loop_
_space_group_symop_operation_xyz
x,y,z
-x,-y,z
1/2-x,y,z
1/2+x,-y,z
x,1/2+y,1/2+z
-x,1/2-y,1/2+z
1/2-x,1/2+y,1/2+z
1/2+x,1/2-y,1/2+z
loop_
_atom_site_type_symbol
_atom_site_label
_atom_site_fract_x
_atom_site_fract_y
_atom_site_fract_z
Si Si1 0.877125 0.618967 0.726240
Si Si2 0.493217 0.112725 0.881611
Si Si3 0.160187 0.163259 0.254352
Si Si4 0.200897 0.348455 0.115408
Si Si5 0.971185 0.093927 0.390596
Si Si6 0.798923 0.510461 0.514082
Si Si7 0.894841 0.827587 0.735588
O O1 0.920405 0.568517 0.833887
O O2 0.849102 0.551151 0.551477
O O3 0.896939 0.718966 0.642806
O O4 0.837196 0.645951 0.911890
O O5 0.526276 0.144240 0.659407
O O6 0.443839 0.132013 0.780614
O O7 0.500000 0.000000 0.916981
O O8 0.506545 0.148896 0.157651
O O9 0.183649 0.265097 0.300766
O O10 0.135773 0.129560 0.511011
O O11 0.126849 0.171092 0.014704
O O12 0.196207 0.091058 0.139168
O O13 0.250000 0.318566 0.032255
O O14 0.204618 0.453494 0.228306
O O15 0.000000 0.000000 0.423311
O O16 0.750000 0.547292 0.611065
#
# Coordination Sequence:
#
# PCOD9365166 Si02
#       7
#     8   8   8   8   8   8   8
#     4  11  25  43  72 100 143 188 242 301 367 442
#     4  10  23  40  63  96 135 181 230 293 352 425
#     4  11  25  44  73 105 142 188 239 298 364 443
#     4  10  23  47  70 105 148 190 242 309 372 445
#     4  10  24  40  66  98 135 181 232 293 356 422
#     4  11  25  43  71 105 139 189 240 297 367 443
#     4  11  25  45  70 105 140 189 240 297 367 436
#
# _framework density 24.686733
#
# number of rings (size 3 to 8) (size 9 to 14) (size 15 to 20)
#    0.000    1.429    1.429    1.714   12.000    1.143 
#    0.000    1.429    0.000    0.000    0.000    0.000 
#    0.000    0.000    0.000    0.000    0.000    0.000 
#
# Total GULP energy -155931.985181 kJ/mol
# GULP energy per Si atom -5568.999471 kJ/mol
# Density = 2.463054 g / cm^3
# Si number density = 24.686733 Si / 1000 Ang^3
#
#
#
# Elastic Constant Matrix: (Units=GPa)
#
#
# Indices 1 2 3 4 5 6 
#
# 1 138.7929 6.4389 -6.7864 0.0000 0.0000 0.0000
# 2 6.4389 65.8134 -14.0782 0.0000 0.0000 0.0000
# 3 -6.7864 -14.0782 89.0429 0.0000 0.0000 0.0000
# 4 0.0000 0.0000 0.0000 16.2912 0.0000 0.0000
# 5 0.0000 0.0000 0.0000 0.0000 30.4001 0.0000
# 6 0.0000 0.0000 0.0000 0.0000 0.0000 32.8788
#
#
#
# Elastic Compliance Matrix: (Units=1/GPa)
#
#
# Indices 1 2 3 4 5 6 
#
# 1 0.007256 -0.000612 0.000456 0.000000 0.000000 0.000000
# 2 -0.000612 0.015778 0.002448 0.000000 0.000000 0.000000
# 3 0.000456 0.002448 0.011652 0.000000 0.000000 0.000000
# 4 0.000000 0.000000 0.000000 0.061383 0.000000 0.000000
# 5 0.000000 0.000000 0.000000 0.000000 0.032895 0.000000
# 6 0.000000 0.000000 0.000000 0.000000 0.000000 0.030415
#
#
# Mechanical properties :
#
#
# Convention : Reuss Voigt Hill
#
# Bulk Modulus (GPa) = 25.46494 29.42200 27.44347
# Shear Modulus (GPa) = 29.78237 36.45235 33.11736
#
# Velocity S-wave (km/s) = 3.47711 3.84682 3.66663
# Velocity P-wave (km/s) = 5.14374 5.62803 5.39132
#
# Compressibility (1/GPa) = 0.03926968
#
# Stress axis : x y z
#
# Youngs Moduli (GPa) = 137.82288 63.37939 85.81971
#
# Poissons Ratio (x) = 0.03881 -0.03915
# Poissons Ratio (y) = 0.08439 -0.21008
# Poissons Ratio (z) = -0.06287 -0.15515
#
# Static dielectric constant tensor:
#      x y z
#    x 1.944410 0.000000 0.000000 
#    y 0.000000 1.921250 0.000000 
#    z 0.000000 0.000000 2.097840 
# 
# From -- ./inp_files/3396.got.cif
#   From: 2010.05.17/outbox.cif.g08.bks.cpg/sg40_2_cif.got.tgz:3396.got - 2010.06.03 18:35:42.
