data_PCOD9365172
_publ_section_title
;
Structure prediction by ZEFSAII (Michael W. Deem and Ramdas Pophale) SiO2 
 PCOD9365172
Probable space group: A M A 2
;
_chemical_formula_sum "Si O2"
_cell_formula_units_Z 48
_cell_length_a 8.638723
_cell_length_b 31.194111
_cell_length_c 9.276723
_cell_angle_alpha 90.000000
_cell_angle_beta 90.000000
_cell_angle_gamma 90.000000
_cell_volume 2499.866120
_symmetry_space_group_name_H-M "A M A 2"
_symmetry_group_IT_number 40
_symmetry_cell_setting 'orthorhombic'
loop_
_space_group_symop_operation_xyz
x,y,z
-x,-y,z
1/2-x,y,z
1/2+x,-y,z
x,1/2+y,1/2+z
-x,1/2-y,1/2+z
1/2-x,1/2+y,1/2+z
1/2+x,1/2-y,1/2+z
loop_
_atom_site_type_symbol
_atom_site_label
_atom_site_fract_x
_atom_site_fract_y
_atom_site_fract_z
Si Si1 0.934316 0.874367 0.335440
Si Si2 0.065359 0.793926 0.164021
Si Si3 0.563938 0.711844 0.327345
Si Si4 0.064552 0.374921 0.155711
Si Si5 0.065083 0.546620 0.335401
Si Si6 0.064696 0.453114 0.655688
O O1 0.750000 0.877579 0.344740
O O2 0.981880 0.833954 0.238014
O O3 0.004987 0.868756 0.493998
O O4 0.002850 0.916907 0.262122
O O5 0.250000 0.800680 0.172553
O O6 0.018839 0.750858 0.247395
O O7 0.022646 0.789910 0.995860
O O8 0.750000 0.718122 0.317050
O O9 0.525986 0.667012 0.250213
O O10 0.250000 0.379971 0.156065
O O11 0.988185 0.416593 0.226943
O O12 0.250000 0.544624 0.345217
O O13 0.000000 0.500000 0.292199
O O14 0.995875 0.556135 0.493920
O O15 0.250000 0.453816 0.654747
O O16 0.000000 0.500000 0.695142
#
# Coordination Sequence:
#
# PCOD9365172 Si02
#       6
#     8   8   8   8   8   8
#     4  12  25  41  61  89 123 159 203 253 306 363
#     4  11  23  40  63  90 121 158 200 247 301 361
#     4  10  23  41  62  89 121 157 199 247 299 359
#     4  11  23  41  63  89 123 162 204 251 304 361
#     4  11  22  39  63  92 124 161 204 250 302 358
#     4  11  22  40  64  91 122 159 203 250 304 362
#
# _framework density 19.201027
#
# number of rings (size 3 to 8) (size 9 to 14) (size 15 to 20)
#    0.000    1.000    0.000    8.500    0.000    7.333 
#    0.000    3.333    0.000    0.000    0.000    0.000 
#    0.000    0.000    0.000    0.000    0.000    0.000 
#
# Total GULP energy -134334.664488 kJ/mol
# GULP energy per Si atom -5597.277687 kJ/mol
# Density = 1.915732 g / cm^3
# Si number density = 19.201027 Si / 1000 Ang^3
#
#
#
# Elastic Constant Matrix: (Units=GPa)
#
#
# Indices 1 2 3 4 5 6 
#
# 1 107.5300 45.1140 43.6874 0.0000 0.0000 0.0000
# 2 45.1140 98.2128 76.5402 0.0000 0.0000 0.0000
# 3 43.6874 76.5402 130.6664 0.0000 0.0000 0.0000
# 4 0.0000 0.0000 0.0000 39.1734 0.0000 0.0000
# 5 0.0000 0.0000 0.0000 0.0000 33.2597 0.0000
# 6 0.0000 0.0000 0.0000 0.0000 0.0000 31.0343
#
#
#
# Elastic Compliance Matrix: (Units=1/GPa)
#
#
# Indices 1 2 3 4 5 6 
#
# 1 0.011657 -0.004264 -0.001400 0.000000 0.000000 0.000000
# 2 -0.004264 0.020294 -0.010462 0.000000 0.000000 0.000000
# 3 -0.001400 -0.010462 0.014249 0.000000 0.000000 0.000000
# 4 0.000000 0.000000 0.000000 0.025528 0.000000 0.000000
# 5 0.000000 0.000000 0.000000 0.000000 0.030066 0.000000
# 6 0.000000 0.000000 0.000000 0.000000 0.000000 0.032222
#
#
# Mechanical properties :
#
#
# Convention : Reuss Voigt Hill
#
# Bulk Modulus (GPa) = 71.68829 74.12138 72.90483
# Shear Modulus (GPa) = 29.25378 32.09797 30.67588
#
# Velocity S-wave (km/s) = 3.90751 4.09305 4.00136
# Velocity P-wave (km/s) = 7.60098 7.81179 7.70710
#
# Compressibility (1/GPa) = 0.01394928
#
# Stress axis : x y z
#
# Youngs Moduli (GPa) = 85.78264 49.27609 70.17833
#
# Poissons Ratio (x) = 0.21010 0.09825
# Poissons Ratio (y) = 0.36576 0.73420
# Poissons Ratio (z) = 0.12009 0.51552
#
# Static dielectric constant tensor:
#      x y z
#    x 1.641880 0.000000 0.000000 
#    y 0.000000 1.635070 0.000000 
#    z 0.000000 0.000000 1.638300 
# 
# From -- ./inp_files/4595.got.cif
#   From: 2010.05.17/outbox.cif.g08.bks.cpg/sg40_3_cif.got.tgz:4595.got - 2010.06.03 18:35:42.
