data_PCOD9365298
_publ_section_title
;
Structure prediction by ZEFSAII (Michael W. Deem and Ramdas Pophale) SiO2 
 PCOD9365298
Probable space group: A M A 2
;
_chemical_formula_sum "Si O2"
_cell_formula_units_Z 64
_cell_length_a 23.628263
_cell_length_b 13.963746
_cell_length_c 8.438223
_cell_angle_alpha 90.000000
_cell_angle_beta 90.000000
_cell_angle_gamma 90.000000
_cell_volume 2784.099390
_symmetry_space_group_name_H-M "A M A 2"
_symmetry_group_IT_number 40
_symmetry_cell_setting 'orthorhombic'
loop_
_space_group_symop_operation_xyz
x,y,z
-x,-y,z
1/2-x,y,z
1/2+x,-y,z
x,1/2+y,1/2+z
-x,1/2-y,1/2+z
1/2-x,1/2+y,1/2+z
1/2+x,1/2-y,1/2+z
loop_
_atom_site_type_symbol
_atom_site_label
_atom_site_fract_x
_atom_site_fract_y
_atom_site_fract_z
Si Si1 0.871460 0.455274 0.125000
Si Si2 0.687235 0.989742 0.923471
Si Si3 0.815573 0.777405 0.064571
Si Si4 0.118900 0.851024 0.078927
Si Si5 0.315216 0.696740 0.929399
Si Si6 0.026793 0.606464 0.339277
Si Si7 0.907100 0.132995 0.429875
Si Si8 0.000368 0.246546 0.563896
O O1 0.817776 0.474929 0.235582
O O2 0.915118 0.403951 0.243048
O O3 0.853855 0.391405 0.977531
O O4 0.898873 0.549729 0.055285
O O5 0.750000 0.028278 0.963223
O O6 0.681299 0.888260 0.011834
O O7 0.636400 0.061277 0.967672
O O8 0.750000 0.746765 0.035524
O O9 0.827248 0.767454 0.252168
O O10 0.861834 0.715102 0.974146
O O11 0.107499 0.893349 0.251190
O O12 0.170854 0.778049 0.058264
O O13 0.064283 0.784863 0.042563
O O14 0.250000 0.668925 0.933390
O O15 0.000000 0.500000 0.347187
O O16 0.032051 0.655064 0.512668
O O17 0.994716 0.686165 0.227752
O O18 0.971030 0.171310 0.444083
#
# Coordination Sequence:
#
# PCOD9365298 Si02
#       8
#     8   8   8   8   8   8   8   8
#     4  12  24  44  70  98 141 182 238 297 368 433
#     4  11  24  44  69 102 140 187 242 298 366 441
#     4  10  24  44  68 101 140 182 235 297 361 431
#     4  12  25  43  67 100 138 183 235 294 365 435
#     4  11  23  41  66  98 137 181 230 295 359 429
#     4  12  25  47  72 104 144 190 240 304 367 439
#     4  12  26  43  71 100 138 186 236 297 363 441
#     4  12  25  45  71 102 143 183 244 300 365 447
#
# _framework density 22.987684999999999
#
# number of rings (size 3 to 8) (size 9 to 14) (size 15 to 20)
#    0.000    0.500    3.750    4.500    1.750    4.000 
#    0.000    1.875    0.000    0.000    0.000    0.000 
#    0.000    0.000    0.000    0.000    0.000    0.000 
#
# Total GULP energy -178701.949578 kJ/mol
# GULP energy per Si atom -5584.435924 kJ/mol
# Density = 2.293536 g / cm^3
# Si number density = 22.987685 Si / 1000 Ang^3
#
#
#
# Elastic Constant Matrix: (Units=GPa)
#
#
# Indices 1 2 3 4 5 6 
#
# 1 68.7172 20.7981 20.0106 0.0000 0.0000 0.0000
# 2 20.7981 85.4763 21.6300 0.0000 0.0000 0.0000
# 3 20.0106 21.6300 73.2274 0.0000 0.0000 0.0000
# 4 0.0000 0.0000 0.0000 47.9052 0.0000 0.0000
# 5 0.0000 0.0000 0.0000 0.0000 28.9694 0.0000
# 6 0.0000 0.0000 0.0000 0.0000 0.0000 22.4650
#
#
#
# Elastic Compliance Matrix: (Units=1/GPa)
#
#
# Indices 1 2 3 4 5 6 
#
# 1 0.016544 -0.003114 -0.003601 0.000000 0.000000 0.000000
# 2 -0.003114 0.013230 -0.003057 0.000000 0.000000 0.000000
# 3 -0.003601 -0.003057 0.015543 0.000000 0.000000 0.000000
# 4 0.000000 0.000000 0.000000 0.020875 0.000000 0.000000
# 5 0.000000 0.000000 0.000000 0.000000 0.034519 0.000000
# 6 0.000000 0.000000 0.000000 0.000000 0.000000 0.044514
#
#
# Mechanical properties :
#
#
# Convention : Reuss Voigt Hill
#
# Bulk Modulus (GPa) = 38.80051 39.14426 38.97239
# Shear Modulus (GPa) = 28.84176 30.86672 29.85424
#
# Velocity S-wave (km/s) = 3.54596 3.66833 3.60767
# Velocity P-wave (km/s) = 5.80350 5.91672 5.86038
#
# Compressibility (1/GPa) = 0.02577286
#
# Stress axis : x y z
#
# Youngs Moduli (GPa) = 60.44651 75.58303 64.33725
#
# Poissons Ratio (x) = 0.23538 0.23167
# Poissons Ratio (y) = 0.18824 0.19668
# Poissons Ratio (z) = 0.21766 0.23106
#
# Static dielectric constant tensor:
#      x y z
#    x 1.890040 0.000000 0.000000 
#    y 0.000000 1.871630 0.000000 
#    z 0.000000 0.000000 1.847200 
# 
# From -- ./inp_files/8941.got.cif
#   From: 2010.05.17/outbox.cif.g08.bks.cpg/sg40_5_cif.got.tgz:8941.got - 2010.06.03 18:35:42.
