data_PCOD9365899
_publ_section_title
;
Structure prediction by ZEFSAII (Michael W. Deem and Ramdas Pophale) SiO2 
 PCOD9365899
Probable space group: A B A 2
;
_chemical_formula_sum "Si O2"
_cell_formula_units_Z 56
_cell_length_a 7.574710
_cell_length_b 18.435443
_cell_length_c 18.863045
_cell_angle_alpha 90.000000
_cell_angle_beta 90.000000
_cell_angle_gamma 90.000000
_cell_volume 2634.094729
_symmetry_space_group_name_H-M "A B A 2"
_symmetry_group_IT_number 41
_symmetry_cell_setting 'orthorhombic'
loop_
_space_group_symop_operation_xyz
x,y,z
-x,-y,z
1/2-x,y,1/2+z
1/2+x,-y,1/2+z
x,1/2+y,1/2+z
-x,1/2-y,1/2+z
1/2-x,1/2+y,z
1/2+x,1/2-y,z
loop_
_atom_site_type_symbol
_atom_site_label
_atom_site_fract_x
_atom_site_fract_y
_atom_site_fract_z
Si Si1 0.284773 0.381943 0.473210
Si Si2 0.603718 0.116540 0.818980
Si Si3 0.500000 0.500000 0.547313
Si Si4 0.265387 0.537277 0.810942
Si Si5 0.500000 0.000000 0.440177
Si Si6 0.203373 0.079832 0.656154
Si Si7 0.906708 0.189339 0.605174
Si Si8 0.453720 0.835348 0.673633
O O1 0.311067 0.358790 0.392301
O O2 0.443139 0.435492 0.496513
O O3 0.324676 0.315306 0.526021
O O4 0.111956 0.435416 0.478657
O O5 0.411354 0.081401 0.827526
O O6 0.575146 0.175000 0.757611
O O7 0.719045 0.046875 0.795027
O O8 0.339876 0.515840 0.601506
O O9 0.371112 0.539184 0.884032
O O10 0.349685 0.566818 0.738147
O O11 0.409569 0.099403 0.660838
O O12 0.081607 0.142940 0.622418
O O13 0.742849 0.154153 0.646385
O O14 0.954699 0.268109 0.634290
#
# Coordination Sequence:
#
# PCOD9365899 Si02
#       8
#     8   8   4   8   4   8   8   8
#     4  10  22  37  59  92 128 164 204 264 327 387
#     4   9  20  39  62  89 123 160 207 261 322 378
#     4  10  21  36  60  87 136 156 202 254 334 383
#     4   9  18  34  61  93 125 155 201 260 322 386
#     4  10  19  32  58  91 126 158 198 252 330 395
#     4  10  22  38  63  96 120 167 204 267 318 385
#     4  11  24  42  63  87 127 170 221 265 315 380
#     4  11  23  43  67  85 124 170 223 267 309 377
#
# _framework density 21.259675000000001
#
# number of rings (size 3 to 8) (size 9 to 14) (size 15 to 20)
#    0.000    2.000    1.429    2.143   10.000    0.000 
#    0.000    1.429    0.000    0.000    0.000    0.000 
#    0.000    0.000    0.000    0.000    0.000    0.000 
#
# Total GULP energy -155973.742558 kJ/mol
# GULP energy per Si atom -5570.490806 kJ/mol
# Density = 2.121129 g / cm^3
# Si number density = 21.259675 Si / 1000 Ang^3
#
#
#
# Elastic Constant Matrix: (Units=GPa)
#
#
# Indices 1 2 3 4 5 6 
#
# 1 65.8966 -6.9765 10.5158 0.0000 0.0000 0.0000
# 2 -6.9765 34.0597 23.8118 0.0000 0.0000 0.0000
# 3 10.5158 23.8118 93.7720 0.0000 0.0000 0.0000
# 4 0.0000 0.0000 0.0000 -104.9467 0.0000 0.0000
# 5 0.0000 0.0000 0.0000 0.0000 32.2193 0.0000
# 6 0.0000 0.0000 0.0000 0.0000 0.0000 15.3308
#
#
#
# Elastic Compliance Matrix: (Units=1/GPa)
#
#
# Indices 1 2 3 4 5 6 
#
# 1 0.016288 0.005609 -0.003251 0.000000 0.000000 0.000000
# 2 0.005609 0.037629 -0.010184 0.000000 0.000000 0.000000
# 3 -0.003251 -0.010184 0.013615 0.000000 0.000000 0.000000
# 4 0.000000 0.000000 0.000000 -0.009529 0.000000 0.000000
# 5 0.000000 0.000000 0.000000 0.000000 0.031037 0.000000
# 6 0.000000 0.000000 0.000000 0.000000 0.000000 0.065228
#
#
# Mechanical properties :
#
#
# Convention : Reuss Voigt Hill
#
# Bulk Modulus (GPa) = 19.27536 27.60337 23.43937
# Shear Modulus (GPa) = 26.70735 -0.38751 13.15992
#
# Velocity S-wave (km/s) = 3.54820 -0.42740 2.49069
# Velocity P-wave (km/s) = 5.08651 3.57331 4.39552
#
# Compressibility (1/GPa) = 0.05187969
#
# Stress axis : x y z
#
# Youngs Moduli (GPa) = 61.39527 26.57510 73.44912
#
# Poissons Ratio (x) = -0.14906 0.23877
# Poissons Ratio (y) = -0.34437 0.74803
# Poissons Ratio (z) = 0.19959 0.27065
#
# Static dielectric constant tensor:
#      x y z
#    x 1.816200 0.000000 0.000000 
#    y 0.000000 1.824860 0.000000 
#    z 0.000000 0.000000 1.834680 
# 
# From -- ./inp_files/9816.got.cif
#   From: 2010.05.17/outbox.cif.g08.bks.cpg/sg41_5_cif.got.tgz:9816.got - 2010.06.03 18:54:24.
