data_PCOD9365456
_publ_section_title
;
Structure prediction by ZEFSAII (Michael W. Deem and Ramdas Pophale) SiO2 
 PCOD9365456
Probable space group: A M A 2
;
_chemical_formula_sum "Si O2"
_cell_formula_units_Z 40
_cell_length_a 19.228021
_cell_length_b 18.170561
_cell_length_c 5.315038
_cell_angle_alpha 90.000000
_cell_angle_beta 90.000000
_cell_angle_gamma 90.000000
_cell_volume 1856.988857
_symmetry_space_group_name_H-M "A M A 2"
_symmetry_group_IT_number 40
_symmetry_cell_setting 'orthorhombic'
loop_
_space_group_symop_operation_xyz
x,y,z
-x,-y,z
1/2-x,y,z
1/2+x,-y,z
x,1/2+y,1/2+z
-x,1/2-y,1/2+z
1/2-x,1/2+y,1/2+z
1/2+x,1/2-y,1/2+z
loop_
_atom_site_type_symbol
_atom_site_label
_atom_site_fract_x
_atom_site_fract_y
_atom_site_fract_z
Si Si1 0.401079 0.313520 0.904560
Si Si2 0.442370 0.194666 0.571168
Si Si3 0.674401 0.810680 0.181354
Si Si4 0.582675 0.513506 0.883453
Si Si5 0.115056 0.071345 0.870959
O O1 0.404611 0.270626 0.641628
O O2 0.398087 0.400459 0.885421
O O3 0.478178 0.294043 0.005691
O O4 0.344513 0.268874 0.064975
O O5 0.391541 0.166324 0.352006
O O6 0.441950 0.133089 0.790107
O O7 0.750000 0.809806 0.306430
O O8 0.674465 0.872698 0.963133
O O9 0.500000 0.500000 0.932079
O O10 0.597160 0.480122 0.607222
O O11 0.623052 0.476245 0.118048
#
# Coordination Sequence:
#
# PCOD9365456 Si02
#       5
#     8   8   8   8   8
#     4  11  24  39  71 105 143 180 236 294 350 424
#     4  11  22  42  70 105 141 184 238 289 350 422
#     4  11  25  47  73 100 140 192 244 293 352 429
#     4  12  24  39  70 108 145 178 227 295 359 416
#     4  11  24  44  66 101 137 187 228 282 356 418
#
# _framework density 21.540247000000001
#
# number of rings (size 3 to 8) (size 9 to 14) (size 15 to 20)
#    0.000    0.800    6.000    0.600    5.600    3.200 
#    0.000    2.000    0.000    0.000    0.000    0.000 
#    0.000    0.000    0.000    0.000    0.000    0.000 
#
# Total GULP energy -111511.645499 kJ/mol
# GULP energy per Si atom -5575.582275 kJ/mol
# Density = 2.149122 g / cm^3
# Si number density = 21.540247 Si / 1000 Ang^3
#
#
#
# Elastic Constant Matrix: (Units=GPa)
#
#
# Indices 1 2 3 4 5 6 
#
# 1 52.5426 -4.9713 14.3436 0.0000 0.0000 0.0000
# 2 -4.9713 187.3778 59.3268 0.0000 0.0000 0.0000
# 3 14.3436 59.3268 113.3653 0.0000 0.0000 0.0000
# 4 0.0000 0.0000 0.0000 36.3362 0.0000 0.0000
# 5 0.0000 0.0000 0.0000 0.0000 13.6064 0.0000
# 6 0.0000 0.0000 0.0000 0.0000 0.0000 -9.3606
#
#
#
# Elastic Compliance Matrix: (Units=1/GPa)
#
#
# Indices 1 2 3 4 5 6 
#
# 1 0.020108 0.001605 -0.003384 0.000000 0.000000 0.000000
# 2 0.001605 0.006525 -0.003618 0.000000 0.000000 0.000000
# 3 -0.003384 -0.003618 0.011142 0.000000 0.000000 0.000000
# 4 0.000000 0.000000 0.000000 0.027521 0.000000 0.000000
# 5 0.000000 0.000000 0.000000 0.000000 0.073495 0.000000
# 6 0.000000 0.000000 0.000000 0.000000 0.000000 -0.106831
#
#
# Mechanical properties :
#
#
# Convention : Reuss Voigt Hill
#
# Bulk Modulus (GPa) = 37.06244 54.52044 45.79144
# Shear Modulus (GPa) = 96.62386 27.08883 61.85635
#
# Velocity S-wave (km/s) = 6.70483 3.55010 5.36460
# Velocity P-wave (km/s) = 8.78539 6.49386 7.72507
#
# Compressibility (1/GPa) = 0.02698149
#
# Stress axis : x y z
#
# Youngs Moduli (GPa) = 49.73189 153.26147 89.74712
#
# Poissons Ratio (x) = -0.24597 0.30371
# Poissons Ratio (y) = -0.07982 0.32467
# Poissons Ratio (z) = 0.16829 0.55445
#
# Static dielectric constant tensor:
#      x y z
#    x 1.752160 0.000000 0.000000 
#    y 0.000000 1.832270 0.000000 
#    z 0.000000 0.000000 1.892710 
# 
# From -- ./inp_files/1727.got.cif
#   From: 2010.05.17/outbox.cif.g08.bks.cpg/sg40_1_cif.got.tgz:1727.got - 2010.06.03 18:35:42.
