data_PCOD9365371
_publ_section_title
;
Structure prediction by ZEFSAII (Michael W. Deem and Ramdas Pophale) SiO2 
 PCOD9365371
Probable space group: A M A 2
;
_chemical_formula_sum "Si O2"
_cell_formula_units_Z 64
_cell_length_a 8.675642
_cell_length_b 21.202194
_cell_length_c 20.193916
_cell_angle_alpha 90.000000
_cell_angle_beta 90.000000
_cell_angle_gamma 90.000000
_cell_volume 3714.522317
_symmetry_space_group_name_H-M "A M A 2"
_symmetry_group_IT_number 40
_symmetry_cell_setting 'orthorhombic'
loop_
_space_group_symop_operation_xyz
x,y,z
-x,-y,z
1/2-x,y,z
1/2+x,-y,z
x,1/2+y,1/2+z
-x,1/2-y,1/2+z
1/2-x,1/2+y,1/2+z
1/2+x,1/2-y,1/2+z
loop_
_atom_site_type_symbol
_atom_site_label
_atom_site_fract_x
_atom_site_fract_y
_atom_site_fract_z
Si Si1 0.433915 0.433405 0.195740
Si Si2 0.936031 0.383049 0.912111
Si Si3 0.438025 0.811900 0.777547
Si Si4 0.065572 0.685720 0.698498
Si Si5 0.932915 0.567013 0.777145
Si Si6 0.434739 0.616369 0.061618
Si Si7 0.064569 0.266242 0.564052
Si Si8 0.937144 0.735097 0.416484
O O1 0.500000 0.500000 0.218457
O O2 0.250000 0.435000 0.198808
O O3 0.490569 0.374453 0.239804
O O4 0.484746 0.420689 0.120307
O O5 0.750000 0.387782 0.906526
O O6 0.976767 0.308736 0.905666
O O7 0.012237 0.420231 0.852449
O O8 0.980040 0.402464 0.986831
O O9 0.250000 0.812725 0.777325
O O10 0.484427 0.748809 0.738204
O O11 0.489670 0.804870 0.853517
O O12 0.250000 0.681700 0.703047
O O13 0.994805 0.624431 0.732716
O O14 0.014043 0.696165 0.623086
O O15 0.750000 0.565466 0.774742
O O16 0.000000 0.500000 0.755012
O O17 0.250000 0.608952 0.066860
O O18 0.468443 0.691174 0.070054
O O19 0.250000 0.273329 0.568620
O O20 0.012814 0.284823 0.489881
O O21 0.750000 0.733517 0.417583
#
# Coordination Sequence:
#
# PCOD9365371 Si02
#       8
#     8   8   8   8   8   8   8   8
#     4  11  22  35  51  75 106 145 185 225 271 320
#     4   9  17  33  55  78 107 143 179 217 266 318
#     4   9  17  31  55  80 102 136 181 222 269 318
#     4  11  20  35  58  81 109 142 178 224 270 321
#     4  12  25  39  55  79 109 144 183 224 270 323
#     4   9  18  32  52  78 109 144 181 221 263 316
#     4   9  17  30  53  83 110 136 174 221 267 317
#     4   8  14  29  54  80 106 137 174 216 265 322
#
# _framework density 17.229671
#
# number of rings (size 3 to 8) (size 9 to 14) (size 15 to 20)
#    0.000    2.250    2.500    3.375    0.000    1.000 
#    0.000    1.875    0.000    0.750    0.000    1.750 
#    0.000    0.000    0.000    0.000    0.000    0.000 
#
# Total GULP energy -178550.267115 kJ/mol
# GULP energy per Si atom -5579.695847 kJ/mol
# Density = 1.719046 g / cm^3
# Si number density = 17.229671 Si / 1000 Ang^3
#
#
#
# Elastic Constant Matrix: (Units=GPa)
#
#
# Indices 1 2 3 4 5 6 
#
# 1 40.4202 37.9168 30.4864 0.0000 0.0000 0.0000
# 2 37.9168 119.8238 70.4795 0.0000 0.0000 0.0000
# 3 30.4864 70.4795 122.2722 0.0000 0.0000 0.0000
# 4 0.0000 0.0000 0.0000 18.6938 0.0000 0.0000
# 5 0.0000 0.0000 0.0000 0.0000 25.3852 0.0000
# 6 0.0000 0.0000 0.0000 0.0000 0.0000 20.3282
#
#
#
# Elastic Compliance Matrix: (Units=1/GPa)
#
#
# Indices 1 2 3 4 5 6 
#
# 1 0.036241 -0.009309 -0.003670 0.000000 0.000000 0.000000
# 2 -0.009309 0.015018 -0.006335 0.000000 0.000000 0.000000
# 3 -0.003670 -0.006335 0.012745 0.000000 0.000000 0.000000
# 4 0.000000 0.000000 0.000000 0.053494 0.000000 0.000000
# 5 0.000000 0.000000 0.000000 0.000000 0.039393 0.000000
# 6 0.000000 0.000000 0.000000 0.000000 0.000000 0.049193
#
#
# Mechanical properties :
#
#
# Convention : Reuss Voigt Hill
#
# Bulk Modulus (GPa) = 39.40937 62.25352 50.83144
# Shear Modulus (GPa) = 19.74947 22.45700 21.10324
#
# Velocity S-wave (km/s) = 3.38930 3.61417 3.50354
# Velocity P-wave (km/s) = 6.18378 7.32300 6.77737
#
# Compressibility (1/GPa) = 0.02537468
#
# Stress axis : x y z
#
# Youngs Moduli (GPa) = 27.59308 66.58740 78.46009
#
# Poissons Ratio (x) = 0.61989 0.28795
# Poissons Ratio (y) = 0.25687 0.49708
# Poissons Ratio (z) = 0.10127 0.42186
#
# Static dielectric constant tensor:
#      x y z
#    x 1.581010 0.000000 0.000000 
#    y 0.000000 1.572950 0.000000 
#    z 0.000000 0.000000 1.594500 
# 
# From -- ./inp_files/22371.got.cif
#   From: 2010.05.17/outbox.cif.g08.bks.cpg/sg40_12_cif.got.tgz:22371.got - 2010.06.03 18:35:42.
