data_PCOD9365644
_publ_section_title
;
Structure prediction by ZEFSAII (Michael W. Deem and Ramdas Pophale) SiO2 
 PCOD9365644
Probable space group: A M A 2
;
_chemical_formula_sum "Si O2"
_cell_formula_units_Z 30
_cell_length_a 24.000000
_cell_length_b 9.000000
_cell_length_c 15.000000
_cell_angle_alpha 90.000000
_cell_angle_beta 90.000000
_cell_angle_gamma 90.000000
_cell_volume 3240.000000
_symmetry_space_group_name_H-M "A M A 2"
_symmetry_group_IT_number 40
_symmetry_cell_setting 'orthorhombic'
loop_
_space_group_symop_operation_xyz
x,y,z
-x,-y,z
1/2-x,y,z
1/2+x,-y,z
x,1/2+y,1/2+z
-x,1/2-y,1/2+z
1/2-x,1/2+y,1/2+z
1/2+x,1/2-y,1/2+z
loop_
_atom_site_type_symbol
_atom_site_label
_atom_site_fract_x
_atom_site_fract_y
_atom_site_fract_z
Si Si1 0.500000 0.000000 0.458431
Si Si2 0.009404 0.822746 0.853929
Si Si3 0.388616 0.478377 0.073192
Si Si4 0.815614 0.359000 0.932273
Si Si5 0.104192 0.169465 0.752957
Si Si6 0.815202 0.552396 0.753153
Si Si7 0.813987 0.255145 0.652807
Si Si8 0.864444 0.614697 0.326375
O O1 0.508212 0.836718 0.408665
O O2 0.554707 0.024898 0.518093
O O3 0.071444 0.832778 0.812802
O O4 0.958555 0.802222 0.785294
O O5 0.000000 0.000000 0.889608
O O6 0.397502 0.567950 0.164817
O O7 0.360776 0.318055 0.091099
O O8 0.343348 0.568177 0.016946
O O9 0.750000 0.343877 0.941409
O O10 0.826450 0.465739 0.846439
O O11 0.842858 0.199671 0.912641
O O12 0.141429 0.314970 0.741644
O O13 0.133346 0.062490 0.826386
O O14 0.750000 0.600134 0.754062
O O15 0.821360 0.427811 0.676416
O O16 0.750000 0.229947 0.623496
O O17 0.824413 0.170454 0.747022
#
# Coordination Sequence:
#
# PCOD9365644 Si02
#       8
#     4   8   8   8   8   8   8   8
#     4  12  24  42  66  86 124 168 204 256 320 370
#     4  10  22  41  63  87 122 162 211 257 298 374
#     4  11  23  37  59  90 122 156 204 252 321 369
#     4  10  19  36  60  87 118 155 204 250 303 370
#     4  10  22  36  60  85 123 157 205 260 304 364
#     4   9  19  37  59  86 118 161 213 250 299 377
#     4   9  19  36  58  84 119 158 198 247 301 367
#     4   9  18  35  58  84 113 157 203 244 297 361
#
# _framework density 9.2592590000000001
#
# number of rings (size 3 to 8) (size 9 to 14) (size 15 to 20)
#    0.000    2.133    1.333    2.400    6.533    3.200 
#    2.400    1.333    0.000    0.000    0.000    0.000 
#    0.000    0.000    0.000    0.000    0.000    0.000 
#
# Total GULP energy -167048.381011 kJ/mol
# GULP energy per Si atom -5568.279367 kJ/mol
# Density = 0.923818 g / cm^3
# Si number density = 9.259259 Si / 1000 Ang^3
#
#
#
# Elastic Constant Matrix: (Units=GPa)
#
#
# Indices 1 2 3 4 5 6 
#
# 1 126.6991 73.7293 35.3675 0.0000 0.0000 0.0000
# 2 73.7293 111.1375 38.0672 0.0000 0.0000 0.0000
# 3 35.3675 38.0672 50.9904 0.0000 0.0000 0.0000
# 4 0.0000 0.0000 0.0000 436.2381 0.0000 0.0000
# 5 0.0000 0.0000 0.0000 0.0000 35.2491 0.0000
# 6 0.0000 0.0000 0.0000 0.0000 0.0000 33.3708
#
#
#
# Elastic Compliance Matrix: (Units=1/GPa)
#
#
# Indices 1 2 3 4 5 6 
#
# 1 0.013317 -0.007619 -0.003549 0.000000 0.000000 0.000000
# 2 -0.007619 0.016448 -0.006995 0.000000 0.000000 0.000000
# 3 -0.003549 -0.006995 0.027295 0.000000 0.000000 0.000000
# 4 0.000000 0.000000 0.000000 0.002292 0.000000 0.000000
# 5 0.000000 0.000000 0.000000 0.000000 0.028370 0.000000
# 6 0.000000 0.000000 0.000000 0.000000 0.000000 0.029966
#
#
# Mechanical properties :
#
#
# Convention : Reuss Voigt Hill
#
# Bulk Modulus (GPa) = 48.22778 64.79497 56.51137
# Shear Modulus (GPa) = 31.07018 110.41581 70.74300
#
# Velocity S-wave (km/s) = 4.10053 7.73007 6.18742
# Velocity P-wave (km/s) = 6.96553 10.71155 9.03482
#
# Compressibility (1/GPa) = 0.02073494
#
# Stress axis : x y z
#
# Youngs Moduli (GPa) = 75.09158 60.79640 36.63656
#
# Poissons Ratio (x) = 0.46321 0.13002
# Poissons Ratio (y) = 0.57213 0.25627
# Poissons Ratio (z) = 0.26648 0.42527
#
# Static dielectric constant tensor:
#      x y z
#    x 1.616080 0.000000 0.000000 
#    y 0.000000 1.609860 0.000000 
#    z 0.000000 0.000000 1.659940 
# 
# From -- ./inp_files/18477.got.cif
#   From: 2010.05.17/outbox.ucp.g08.bks.cvg/sg40_10_cif.got.tgz:18477.got - 2010.06.11 16:26:39.
