data_PCOD9365349
_publ_section_title
;
Structure prediction by ZEFSAII (Michael W. Deem and Ramdas Pophale) SiO2 
 PCOD9365349
Probable space group: A M A 2
;
_chemical_formula_sum "Si O2"
_cell_formula_units_Z 40
_cell_length_a 12.908349
_cell_length_b 26.079714
_cell_length_c 5.744184
_cell_angle_alpha 90.000000
_cell_angle_beta 90.000000
_cell_angle_gamma 90.000000
_cell_volume 1933.756855
_symmetry_space_group_name_H-M "A M A 2"
_symmetry_group_IT_number 40
_symmetry_cell_setting 'orthorhombic'
loop_
_space_group_symop_operation_xyz
x,y,z
-x,-y,z
1/2-x,y,z
1/2+x,-y,z
x,1/2+y,1/2+z
-x,1/2-y,1/2+z
1/2-x,1/2+y,1/2+z
1/2+x,1/2-y,1/2+z
loop_
_atom_site_type_symbol
_atom_site_label
_atom_site_fract_x
_atom_site_fract_y
_atom_site_fract_z
Si Si1 0.250000 0.550234 0.835181
Si Si2 0.250000 0.991262 0.825846
Si Si3 0.555941 0.377393 0.782531
Si Si4 0.940262 0.187003 0.674804
Si Si5 0.136116 0.214213 0.954411
Si Si6 0.136474 0.401668 0.499683
O O1 0.250000 0.523491 0.573426
O O2 0.352083 0.585325 0.852547
O O3 0.250000 0.517399 0.074200
O O4 0.153467 0.951742 0.841976
O O5 0.607703 0.332709 0.625272
O O6 0.466579 0.407894 0.646818
O O7 0.491721 0.349600 0.983962
O O8 0.866857 0.231157 0.580123
O O9 0.882827 0.150416 0.857222
O O10 0.040336 0.215689 0.779452
O O11 0.250000 0.205209 0.850428
O O12 0.250000 0.397455 0.623626
#
# Coordination Sequence:
#
# PCOD9365349 Si02
#       6
#     4   4   8   8   8   8
#     4  12  28  50  77 106 149 190 248 310 372 438
#     4  10  28  52  75 110 137 194 252 306 378 420
#     4  11  25  43  72 102 147 188 238 297 367 438
#     4  11  23  43  67 104 140 192 232 298 362 442
#     4  11  23  41  66 101 145 185 237 286 367 446
#     4   9  24  47  70 103 140 179 248 300 366 432
#
# _framework density 20.685123000000001
#
# number of rings (size 3 to 8) (size 9 to 14) (size 15 to 20)
#    0.600    0.800    3.000    0.600    9.800    2.400 
#    0.000    0.000    0.000    0.000    0.000    0.000 
#    0.000    0.000    0.000    0.000    0.000    0.000 
#
# Total GULP energy -111499.836602 kJ/mol
# GULP energy per Si atom -5574.991830 kJ/mol
# Density = 2.063804 g / cm^3
# Si number density = 20.685123 Si / 1000 Ang^3
#
#
#
# Elastic Constant Matrix: (Units=GPa)
#
#
# Indices 1 2 3 4 5 6 
#
# 1 155.7700 57.8986 35.0330 0.0000 0.0000 0.0000
# 2 57.8986 79.8262 24.6326 0.0000 0.0000 0.0000
# 3 35.0330 24.6326 50.2697 0.0000 0.0000 0.0000
# 4 0.0000 0.0000 0.0000 33.7840 0.0000 0.0000
# 5 0.0000 0.0000 0.0000 0.0000 23.0524 0.0000
# 6 0.0000 0.0000 0.0000 0.0000 0.0000 -74.5655
#
#
#
# Elastic Compliance Matrix: (Units=1/GPa)
#
#
# Indices 1 2 3 4 5 6 
#
# 1 0.009357 -0.005625 -0.003765 0.000000 0.000000 0.000000
# 2 -0.005625 0.018140 -0.004969 0.000000 0.000000 0.000000
# 3 -0.003765 -0.004969 0.024951 0.000000 0.000000 0.000000
# 4 0.000000 0.000000 0.000000 0.029600 0.000000 0.000000
# 5 0.000000 0.000000 0.000000 0.000000 0.043380 0.000000
# 6 0.000000 0.000000 0.000000 0.000000 0.000000 -0.013411
#
#
# Mechanical properties :
#
#
# Convention : Reuss Voigt Hill
#
# Bulk Modulus (GPa) = 42.13815 57.88825 50.01320
# Shear Modulus (GPa) = 33.63722 7.67428 20.65575
#
# Velocity S-wave (km/s) = 4.03694 1.92824 3.16346
# Velocity P-wave (km/s) = 6.49189 5.74488 6.12977
#
# Compressibility (1/GPa) = 0.02373146
#
# Stress axis : x y z
#
# Youngs Moduli (GPa) = 106.86900 55.12539 40.07847
#
# Poissons Ratio (x) = 0.31009 0.15088
# Poissons Ratio (y) = 0.60116 0.19914
# Poissons Ratio (z) = 0.40233 0.27391
#
# Static dielectric constant tensor:
#      x y z
#    x 1.691520 0.000000 0.000000 
#    y 0.000000 1.774410 0.000000 
#    z 0.000000 0.000000 1.811720 
# 
# From -- ./inp_files/826.got.cif
#   From: 2010.05.17/outbox.cif.g08.bks.cpg/sg40_1_cif.got.tgz:826.got - 2010.06.03 18:35:42.
