data_PCOD9365153
_publ_section_title
;
Structure prediction by ZEFSAII (Michael W. Deem and Ramdas Pophale) SiO2 
 PCOD9365153
Probable space group: A M A 2
;
_chemical_formula_sum "Si O2"
_cell_formula_units_Z 28
_cell_length_a 17.959903
_cell_length_b 6.731102
_cell_length_c 7.637518
_cell_angle_alpha 90.000000
_cell_angle_beta 90.000000
_cell_angle_gamma 90.000000
_cell_volume 923.299085
_symmetry_space_group_name_H-M "A M A 2"
_symmetry_group_IT_number 40
_symmetry_cell_setting 'orthorhombic'
loop_
_space_group_symop_operation_xyz
x,y,z
-x,-y,z
1/2-x,y,z
1/2+x,-y,z
x,1/2+y,1/2+z
-x,1/2-y,1/2+z
1/2-x,1/2+y,1/2+z
1/2+x,1/2-y,1/2+z
loop_
_atom_site_type_symbol
_atom_site_label
_atom_site_fract_x
_atom_site_fract_y
_atom_site_fract_z
Si Si1 0.828788 0.652167 0.087020
Si Si2 0.118549 0.247003 0.642552
Si Si3 0.250000 0.969400 0.220483
Si Si4 0.480659 0.731105 0.458991
O O1 0.750000 0.773492 0.156354
O O2 0.835714 0.451068 0.196286
O O3 0.811104 0.581726 0.888922
O O4 0.909429 0.748737 0.088969
O O5 0.181061 0.399951 0.585733
O O6 0.054616 0.300979 0.778270
O O7 0.060314 0.171746 0.494873
O O8 0.500000 0.500000 0.440026
#
# Coordination Sequence:
#
# PCOD9365153 Si02
#       4
#     8   8   4   8
#     4  10  23  46  73 112 146 193 247 307 372 437
#     4  12  26  51  77 110 153 196 251 307 372 448
#     4  10  22  50  78 108 150 198 246 312 374 432
#     4  12  25  47  76 110 153 197 247 310 369 446
#
# _framework density 30.326032999999999
#
# number of rings (size 3 to 8) (size 9 to 14) (size 15 to 20)
#    0.857    0.000    4.286    2.571    2.000    2.286 
#   10.286    2.857    0.000    0.000    0.000    0.000 
#    0.000    0.000    0.000    0.000    0.000    0.000 
#
# Total GULP energy -77949.895130 kJ/mol
# GULP energy per Si atom -5567.849652 kJ/mol
# Density = 3.025701 g / cm^3
# Si number density = 30.326033 Si / 1000 Ang^3
#
#
#
# Elastic Constant Matrix: (Units=GPa)
#
#
# Indices 1 2 3 4 5 6 
#
# 1 373.5183 117.9739 48.7853 0.0000 0.0000 0.0000
# 2 117.9739 171.7413 33.4444 0.0000 0.0000 0.0000
# 3 48.7853 33.4444 108.4010 0.0000 0.0000 0.0000
# 4 0.0000 0.0000 0.0000 42.3187 0.0000 0.0000
# 5 0.0000 0.0000 0.0000 0.0000 34.0989 0.0000
# 6 0.0000 0.0000 0.0000 0.0000 0.0000 85.2470
#
#
#
# Elastic Compliance Matrix: (Units=1/GPa)
#
#
# Indices 1 2 3 4 5 6 
#
# 1 0.003497 -0.002230 -0.000886 0.000000 0.000000 0.000000
# 2 -0.002230 0.007617 -0.001346 0.000000 0.000000 0.000000
# 3 -0.000886 -0.001346 0.010039 0.000000 0.000000 0.000000
# 4 0.000000 0.000000 0.000000 0.023630 0.000000 0.000000
# 5 0.000000 0.000000 0.000000 0.000000 0.029326 0.000000
# 6 0.000000 0.000000 0.000000 0.000000 0.000000 0.011731
#
#
# Mechanical properties :
#
#
# Convention : Reuss Voigt Hill
#
# Bulk Modulus (GPa) = 81.77529 117.11866 99.44698
# Shear Modulus (GPa) = 50.58637 62.56339 56.57488
#
# Velocity S-wave (km/s) = 4.08865 4.54698 4.32389
# Velocity P-wave (km/s) = 7.02234 8.14066 7.60210
#
# Compressibility (1/GPa) = 0.01222863
#
# Stress axis : x y z
#
# Youngs Moduli (GPa) = 285.93989 131.29159 99.61029
#
# Poissons Ratio (x) = 0.29276 0.08825
# Poissons Ratio (y) = 0.63760 0.13412
# Poissons Ratio (z) = 0.25333 0.17677
#
# Static dielectric constant tensor:
#      x y z
#    x 2.293790 0.000000 0.000000 
#    y 0.000000 2.821590 0.000000 
#    z 0.000000 0.000000 2.808930 
# 
# From -- ./inp_files/7027.got.cif
#   From: 2010.05.17/outbox.cif.g08.bks.cpg/sg40_4_cif.got.tgz:7027.got - 2010.06.03 18:35:42.
