data_PCOD9365302
_publ_section_title
;
Structure prediction by ZEFSAII (Michael W. Deem and Ramdas Pophale) SiO2 
 PCOD9365302
Probable space group: A M A 2
;
_chemical_formula_sum "Si O2"
_cell_formula_units_Z 32
_cell_length_a 30.103952
_cell_length_b 5.112569
_cell_length_c 7.962581
_cell_angle_alpha 90.000000
_cell_angle_beta 90.000000
_cell_angle_gamma 90.000000
_cell_volume 1225.509151
_symmetry_space_group_name_H-M "A M A 2"
_symmetry_group_IT_number 40
_symmetry_cell_setting 'orthorhombic'
loop_
_space_group_symop_operation_xyz
x,y,z
-x,-y,z
1/2-x,y,z
1/2+x,-y,z
x,1/2+y,1/2+z
-x,1/2-y,1/2+z
1/2-x,1/2+y,1/2+z
1/2+x,1/2-y,1/2+z
loop_
_atom_site_type_symbol
_atom_site_label
_atom_site_fract_x
_atom_site_fract_y
_atom_site_fract_z
Si Si1 0.118489 0.532312 0.350760
Si Si2 0.500000 0.000000 0.427791
Si Si3 0.059520 0.689848 0.645658
Si Si4 0.680156 0.967461 0.342292
Si Si5 0.250000 0.756501 0.098269
O O1 0.092114 0.528069 0.526813
O O2 0.083500 0.457828 0.205838
O O3 0.143545 0.807235 0.354172
O O4 0.155393 0.808175 0.826329
O O5 0.484483 0.766965 0.544903
O O6 0.542718 0.945675 0.313822
O O7 0.711544 0.059722 0.189597
O O8 0.711540 0.923440 0.503932
#
# Coordination Sequence:
#
# PCOD9365302 Si02
#       5
#     8   4   8   8   4
#     4  12  26  46  74 108 148 196 250 310 376 448
#     4  12  26  48  74 110 148 198 248 310 378 452
#     4  12  26  46  75 107 150 194 250 309 377 452
#     4  11  25  44  71 105 146 194 248 307 375 446
#     4  10  24  44  70 104 148 194 248 308 374 446
#
# _framework density 26.111592999999999
#
# number of rings (size 3 to 8) (size 9 to 14) (size 15 to 20)
#    0.000    0.500    0.000    7.500    0.000   10.000 
#    0.000    0.000    0.000    0.000    0.000    0.000 
#    0.000    0.000    0.000    0.000    0.000    0.000 
#
# Total GULP energy -89194.936301 kJ/mol
# GULP energy per Si atom -5574.683519 kJ/mol
# Density = 2.605216 g / cm^3
# Si number density = 26.111593 Si / 1000 Ang^3
#
#
#
# Elastic Constant Matrix: (Units=GPa)
#
#
# Indices 1 2 3 4 5 6 
#
# 1 127.3258 35.9956 51.1350 0.0000 0.0000 0.0000
# 2 35.9956 107.4530 71.6736 0.0000 0.0000 0.0000
# 3 51.1350 71.6736 113.6599 0.0000 0.0000 0.0000
# 4 0.0000 0.0000 0.0000 36.7862 0.0000 0.0000
# 5 0.0000 0.0000 0.0000 0.0000 413.7913 0.0000
# 6 0.0000 0.0000 0.0000 0.0000 0.0000 104.5865
#
#
#
# Elastic Compliance Matrix: (Units=1/GPa)
#
#
# Indices 1 2 3 4 5 6 
#
# 1 0.009607 -0.000579 -0.003957 0.000000 0.000000 0.000000
# 2 -0.000579 0.016098 -0.009891 0.000000 0.000000 0.000000
# 3 -0.003957 -0.009891 0.016816 0.000000 0.000000 0.000000
# 4 0.000000 0.000000 0.000000 0.027184 0.000000 0.000000
# 5 0.000000 0.000000 0.000000 0.000000 0.002417 0.000000
# 6 0.000000 0.000000 0.000000 0.000000 0.000000 0.009561
#
#
# Mechanical properties :
#
#
# Convention : Reuss Voigt Hill
#
# Bulk Modulus (GPa) = 73.17015 74.00524 73.58770
# Shear Modulus (GPa) = 43.44404 123.67512 83.55958
#
# Velocity S-wave (km/s) = 4.08338 6.88962 5.66308
# Velocity P-wave (km/s) = 7.09330 9.57563 8.42637
#
# Compressibility (1/GPa) = 0.01366678
#
# Stress axis : x y z
#
# Youngs Moduli (GPa) = 104.09455 62.12106 59.46887
#
# Poissons Ratio (x) = 0.03595 0.23532
# Poissons Ratio (y) = 0.06024 0.58819
# Poissons Ratio (z) = 0.41191 0.61442
#
# Static dielectric constant tensor:
#      x y z
#    x 1.975770 0.000000 0.000000 
#    y 0.000000 2.000650 0.000000 
#    z 0.000000 0.000000 2.054750 
# 
# From -- ./inp_files/9255.got.cif
#   From: 2010.05.17/outbox.cif.g08.bks.cpg/sg40_5_cif.got.tgz:9255.got - 2010.06.03 18:35:42.
