data_PCOD9365256
_publ_section_title
;
Structure prediction by ZEFSAII (Michael W. Deem and Ramdas Pophale) SiO2 
 PCOD9365256
Probable space group: A M A 2
;
_chemical_formula_sum "Si O2"
_cell_formula_units_Z 40
_cell_length_a 9.969836
_cell_length_b 9.400123
_cell_length_c 14.850283
_cell_angle_alpha 90.000000
_cell_angle_beta 90.000000
_cell_angle_gamma 90.000000
_cell_volume 1391.734140
_symmetry_space_group_name_H-M "A M A 2"
_symmetry_group_IT_number 40
_symmetry_cell_setting 'orthorhombic'
loop_
_space_group_symop_operation_xyz
x,y,z
-x,-y,z
1/2-x,y,z
1/2+x,-y,z
x,1/2+y,1/2+z
-x,1/2-y,1/2+z
1/2-x,1/2+y,1/2+z
1/2+x,1/2-y,1/2+z
loop_
_atom_site_type_symbol
_atom_site_label
_atom_site_fract_x
_atom_site_fract_y
_atom_site_fract_z
Si Si1 0.250000 0.890555 0.573071
Si Si2 0.919220 0.115735 0.203992
Si Si3 0.250000 0.096358 0.163617
Si Si4 0.000000 0.500000 0.361948
Si Si5 0.082520 0.119610 0.563532
Si Si6 0.750000 0.369791 0.461964
Si Si7 0.403452 0.707291 0.852903
O O1 0.250000 0.769514 0.651020
O O2 0.417212 0.929429 0.571229
O O3 0.250000 0.796716 0.480809
O O4 0.750000 0.090047 0.208654
O O5 0.920270 0.251433 0.136738
O O6 0.088415 0.066972 0.183812
O O7 0.962086 0.145042 0.308014
O O8 0.250000 0.049598 0.057005
O O9 0.114591 0.581823 0.415640
O O10 0.083306 0.371150 0.319664
O O11 0.250000 0.075186 0.577219
O O12 0.090119 0.180604 0.460043
O O13 0.250000 0.657661 0.825610
#
# Coordination Sequence:
#
# PCOD9365256 Si02
#       7
#     4   8   4   4   8   4   8
#     4  10  23  47  85 126 159 221 311 369 452 535
#     4  12  29  51  83 126 176 228 292 373 457 543
#     4  10  25  48  80 121 167 225 298 362 456 539
#     4  12  24  50  82 132 176 232 290 388 446 546
#     4  12  25  50  85 121 165 224 294 372 445 538
#     4  10  24  43  87 125 174 218 309 359 460 532
#     4  12  29  54  84 123 181 228 306 366 461 544
#
# _framework density 28.741119999999999
#
# number of rings (size 3 to 8) (size 9 to 14) (size 15 to 20)
#    0.600    0.000    2.000    4.800    8.400    0.800 
#    1.800    0.000    0.000    0.000    0.000    0.000 
#    0.000    0.000    0.000    0.000    0.000    0.000 
#
# Total GULP energy -111730.862714 kJ/mol
# GULP energy per Si atom -5586.543136 kJ/mol
# Density = 2.867570 g / cm^3
# Si number density = 28.741120 Si / 1000 Ang^3
#
#
#
# Elastic Constant Matrix: (Units=GPa)
#
#
# Indices 1 2 3 4 5 6 
#
# 1 374.3907 136.5817 83.5571 0.0000 0.0000 0.0000
# 2 136.5817 230.8431 72.5329 0.0000 0.0000 0.0000
# 3 83.5571 72.5329 135.5603 0.0000 0.0000 0.0000
# 4 0.0000 0.0000 0.0000 -17.6567 0.0000 0.0000
# 5 0.0000 0.0000 0.0000 0.0000 79.0020 0.0000
# 6 0.0000 0.0000 0.0000 0.0000 0.0000 124.0003
#
#
#
# Elastic Compliance Matrix: (Units=1/GPa)
#
#
# Indices 1 2 3 4 5 6 
#
# 1 0.003585 -0.001715 -0.001292 0.000000 0.000000 0.000000
# 2 -0.001715 0.006028 -0.002168 0.000000 0.000000 0.000000
# 3 -0.001292 -0.002168 0.009333 0.000000 0.000000 0.000000
# 4 0.000000 0.000000 0.000000 -0.056636 0.000000 0.000000
# 5 0.000000 0.000000 0.000000 0.000000 0.012658 0.000000
# 6 0.000000 0.000000 0.000000 0.000000 0.000000 0.008064
#
#
# Mechanical properties :
#
#
# Convention : Reuss Voigt Hill
#
# Bulk Modulus (GPa) = 116.33848 147.34860 131.84354
# Shear Modulus (GPa) = -1333.00350 66.94396 -633.02977
#
# Velocity S-wave (km/s) = -21.55930 4.83142 -14.85700
# Velocity P-wave (km/s) = 24.06599 9.08308 15.75864
#
# Compressibility (1/GPa) = 0.00859561
#
# Stress axis : x y z
#
# Youngs Moduli (GPa) = 278.93296 165.89216 107.14354
#
# Poissons Ratio (x) = 0.28454 0.13844
# Poissons Ratio (y) = 0.47842 0.23230
# Poissons Ratio (z) = 0.36040 0.35968
#
# Static dielectric constant tensor:
#      x y z
#    x 2.239960 0.000000 0.000000 
#    y 0.000000 2.327080 0.000000 
#    z 0.000000 0.000000 2.105520 
# 
# From -- ./inp_files/14933.got.cif
#   From: 2010.05.17/outbox.cif.g08.bks.cpg/sg40_8_cif.got.tgz:14933.got - 2010.06.03 18:35:42.
