data_PCOD9365732
_publ_section_title
;
Structure prediction by ZEFSAII (Michael W. Deem and Ramdas Pophale) SiO2 
 PCOD9365732
Probable space group: A B A 2
;
_chemical_formula_sum "Si O2"
_cell_formula_units_Z 56
_cell_length_a 15.237427
_cell_length_b 21.051033
_cell_length_c 8.385744
_cell_angle_alpha 90.000000
_cell_angle_beta 90.000000
_cell_angle_gamma 90.000000
_cell_volume 2689.841255
_symmetry_space_group_name_H-M "A B A 2"
_symmetry_group_IT_number 41
_symmetry_cell_setting 'orthorhombic'
loop_
_space_group_symop_operation_xyz
x,y,z
-x,-y,z
1/2-x,y,1/2+z
1/2+x,-y,1/2+z
x,1/2+y,1/2+z
-x,1/2-y,1/2+z
1/2-x,1/2+y,z
1/2+x,1/2-y,z
loop_
_atom_site_type_symbol
_atom_site_label
_atom_site_fract_x
_atom_site_fract_y
_atom_site_fract_z
Si Si1 0.377197 0.155472 0.604990
Si Si2 0.623371 0.216375 0.572336
Si Si3 0.500000 0.500000 0.824730
Si Si4 0.452917 0.773500 0.935161
Si Si5 0.457353 0.604671 0.571594
Si Si6 0.433843 0.417878 0.076695
Si Si7 0.500000 0.000000 0.835628
Si Si8 0.294754 0.668073 0.457472
O O1 0.400594 0.226962 0.551128
O O2 0.466876 0.114306 0.586966
O O3 0.336260 0.157425 0.782754
O O4 0.298925 0.136480 0.485820
O O5 0.587261 0.226484 0.755696
O O6 0.548897 0.240331 0.446815
O O7 0.630715 0.140841 0.558915
O O8 0.705521 0.258158 0.515509
O O9 0.477494 0.562335 0.723876
O O10 0.427013 0.470512 0.940241
O O11 0.471533 0.843273 0.010051
O O12 0.449198 0.550870 0.438749
O O13 0.365914 0.640554 0.581770
O O14 0.431165 0.459455 0.234657
#
# Coordination Sequence:
#
# PCOD9365732 Si02
#       8
#     8   8   4   8   8   8   4   8
#     4  11  23  37  59  84 117 149 184 238 297 345
#     4  10  19  33  57  83 111 141 184 234 281 328
#     4  10  24  30  60  86 112 150 186 242 266 338
#     4  10  19  33  57  83 111 141 184 234 281 328
#     4  10  20  36  58  87 113 145 197 235 278 328
#     4  10  20  36  58  87 113 145 197 235 278 328
#     4  10  16  38  56  82 108 146 190 234 282 322
#     4  11  23  37  59  84 117 149 184 238 297 345
#
# _framework density 20.819071000000001
#
# number of rings (size 3 to 8) (size 9 to 14) (size 15 to 20)
#    0.000    1.714    2.857    3.429   12.000    0.000 
#    0.000    0.000    0.000   10.286    0.000    0.000 
#    0.000    0.000    0.000    0.000    0.000    0.000 
#
# Total GULP energy -155915.139276 kJ/mol
# GULP energy per Si atom -5568.397831 kJ/mol
# Density = 2.077169 g / cm^3
# Si number density = 20.819071 Si / 1000 Ang^3
#
#
#
# Elastic Constant Matrix: (Units=GPa)
#
#
# Indices 1 2 3 4 5 6 
#
# 1 45.3165 -13.9728 -4.3016 0.0000 0.0000 0.0000
# 2 -13.9728 96.9771 14.4867 0.0000 0.0000 0.0000
# 3 -4.3016 14.4867 80.9117 0.0000 0.0000 0.0000
# 4 0.0000 0.0000 0.0000 24.8600 0.0000 0.0000
# 5 0.0000 0.0000 0.0000 0.0000 9.6916 0.0000
# 6 0.0000 0.0000 0.0000 0.0000 0.0000 8.7448
#
#
#
# Elastic Compliance Matrix: (Units=1/GPa)
#
#
# Indices 1 2 3 4 5 6 
#
# 1 0.023126 0.003235 0.000650 0.000000 0.000000 0.000000
# 2 0.003235 0.011048 -0.001806 0.000000 0.000000 0.000000
# 3 0.000650 -0.001806 0.012717 0.000000 0.000000 0.000000
# 4 0.000000 0.000000 0.000000 0.040225 0.000000 0.000000
# 5 0.000000 0.000000 0.000000 0.000000 0.103182 0.000000
# 6 0.000000 0.000000 0.000000 0.000000 0.000000 0.114354
#
#
# Mechanical properties :
#
#
# Convention : Reuss Voigt Hill
#
# Bulk Modulus (GPa) = 19.58888 23.95887 21.77388
# Shear Modulus (GPa) = 15.74755 23.79216 19.76986
#
# Velocity S-wave (km/s) = 2.75326 3.38421 3.08491
# Velocity P-wave (km/s) = 4.42004 5.17722 4.81354
#
# Compressibility (1/GPa) = 0.05104937
#
# Stress axis : x y z
#
# Youngs Moduli (GPa) = 43.24095 90.51741 78.63438
#
# Poissons Ratio (x) = -0.29282 -0.05113
# Poissons Ratio (y) = -0.13988 0.14201
# Poissons Ratio (z) = -0.02812 0.16348
#
# Static dielectric constant tensor:
#      x y z
#    x 1.842960 0.000000 0.000000 
#    y 0.000000 2.020890 0.000000 
#    z 0.000000 0.000000 1.833750 
# 
# From -- ./inp_files/3204.got.cif
#   From: 2010.05.17/outbox.cif.g08.bks.cpg/sg41_2_cif.got.tgz:3204.got - 2010.06.03 18:54:24.
