data_PCOD9365264
_publ_section_title
;
Structure prediction by ZEFSAII (Michael W. Deem and Ramdas Pophale) SiO2 
 PCOD9365264
Probable space group: A M A 2
;
_chemical_formula_sum "Si O2"
_cell_formula_units_Z 60
_cell_length_a 27.319296
_cell_length_b 11.306156
_cell_length_c 9.674103
_cell_angle_alpha 90.000000
_cell_angle_beta 90.000000
_cell_angle_gamma 90.000000
_cell_volume 2988.100390
_symmetry_space_group_name_H-M "A M A 2"
_symmetry_group_IT_number 40
_symmetry_cell_setting 'orthorhombic'
loop_
_space_group_symop_operation_xyz
x,y,z
-x,-y,z
1/2-x,y,z
1/2+x,-y,z
x,1/2+y,1/2+z
-x,1/2-y,1/2+z
1/2-x,1/2+y,1/2+z
1/2+x,1/2-y,1/2+z
loop_
_atom_site_type_symbol
_atom_site_label
_atom_site_fract_x
_atom_site_fract_y
_atom_site_fract_z
Si Si1 0.547317 0.837432 0.061470
Si Si2 0.892608 0.699186 0.842493
Si Si3 0.932195 0.112362 0.056260
Si Si4 0.250000 0.556276 0.687140
Si Si5 0.386763 0.265882 0.296700
Si Si6 0.301797 0.633906 0.412524
Si Si7 0.695285 0.568426 0.190921
Si Si8 0.663247 0.467793 0.907134
O O1 0.489076 0.850478 0.063379
O O2 0.570371 0.775367 0.195175
O O3 0.569430 0.970093 0.064023
O O4 0.564273 0.761661 0.928652
O O5 0.905435 0.679038 0.682383
O O6 0.845977 0.781424 0.875498
O O7 0.877726 0.569131 0.893712
O O8 0.908586 0.148721 0.912068
O O9 0.292237 0.597997 0.570898
O O10 0.293267 0.518478 0.796892
O O11 0.345259 0.331587 0.207212
O O12 0.361639 0.157268 0.376412
O O13 0.250000 0.691400 0.366190
O O14 0.306810 0.513199 0.326290
O O15 0.750000 0.621629 0.180609
O O16 0.685267 0.485664 0.059749
#
# Coordination Sequence:
#
# PCOD9365264 Si02
#       8
#     8   8   8   4   8   8   8   8
#     4  11  24  48  69 101 133 173 233 291 349 410
#     4  12  23  43  70  99 137 179 226 286 341 408
#     4  11  26  45  74  97 132 180 229 289 351 411
#     4  10  24  40  66 100 132 184 228 268 328 396
#     4  12  25  44  70  99 137 179 223 284 341 405
#     4   9  23  42  65  96 138 179 226 272 328 403
#     4  11  24  43  63  96 140 182 221 275 331 401
#     4  12  25  39  66 100 137 179 228 268 337 403
#
# _framework density 20.079647000000001
#
# number of rings (size 3 to 8) (size 9 to 14) (size 15 to 20)
#    0.400    0.533    3.333    3.200    3.733    0.000 
#    0.000    0.667    0.000    0.000    0.000    0.000 
#    0.000    0.000    0.000    0.000    0.000    0.000 
#
# Total GULP energy -167159.155298 kJ/mol
# GULP energy per Si atom -5571.971843 kJ/mol
# Density = 2.003394 g / cm^3
# Si number density = 20.079647 Si / 1000 Ang^3
#
#
#
# Elastic Constant Matrix: (Units=GPa)
#
#
# Indices 1 2 3 4 5 6 
#
# 1 53.6538 13.5752 21.5843 0.0000 0.0000 0.0000
# 2 13.5752 46.5946 30.4395 0.0000 0.0000 0.0000
# 3 21.5843 30.4395 110.2278 0.0000 0.0000 0.0000
# 4 0.0000 0.0000 0.0000 21.4251 0.0000 0.0000
# 5 0.0000 0.0000 0.0000 0.0000 27.9587 0.0000
# 6 0.0000 0.0000 0.0000 0.0000 0.0000 27.9935
#
#
#
# Elastic Compliance Matrix: (Units=1/GPa)
#
#
# Indices 1 2 3 4 5 6 
#
# 1 0.020873 -0.004162 -0.002938 0.000000 0.000000 0.000000
# 2 -0.004162 0.027016 -0.006645 0.000000 0.000000 0.000000
# 3 -0.002938 -0.006645 0.011483 0.000000 0.000000 0.000000
# 4 0.000000 0.000000 0.000000 0.046674 0.000000 0.000000
# 5 0.000000 0.000000 0.000000 0.000000 0.035767 0.000000
# 6 0.000000 0.000000 0.000000 0.000000 0.000000 0.035723
#
#
# Mechanical properties :
#
#
# Convention : Reuss Voigt Hill
#
# Bulk Modulus (GPa) = 31.36711 37.96378 34.66544
# Shear Modulus (GPa) = 23.18545 25.13393 24.15969
#
# Velocity S-wave (km/s) = 3.40174 3.54179 3.47247
# Velocity P-wave (km/s) = 5.57533 5.97272 5.77744
#
# Compressibility (1/GPa) = 0.03188053
#
# Stress axis : x y z
#
# Youngs Moduli (GPa) = 47.90893 37.01563 87.08872
#
# Poissons Ratio (x) = 0.15406 0.25586
# Poissons Ratio (y) = 0.19940 0.57874
# Poissons Ratio (z) = 0.14075 0.24598
#
# Static dielectric constant tensor:
#      x y z
#    x 1.729830 0.000000 0.000000 
#    y 0.000000 1.712600 0.000000 
#    z 0.000000 0.000000 1.692990 
# 
# From -- ./inp_files/9174.got.cif
#   From: 2010.05.17/outbox.cif.g08.bks.cpg/sg40_5_cif.got.tgz:9174.got - 2010.06.03 18:35:42.
