data_PCOD9365201
_publ_section_title
;
Structure prediction by ZEFSAII (Michael W. Deem and Ramdas Pophale) SiO2 
 PCOD9365201
Probable space group: A M A 2
;
_chemical_formula_sum "Si O2"
_cell_formula_units_Z 64
_cell_length_a 13.746545
_cell_length_b 11.603625
_cell_length_c 17.700080
_cell_angle_alpha 90.000000
_cell_angle_beta 90.000000
_cell_angle_gamma 90.000000
_cell_volume 2823.335393
_symmetry_space_group_name_H-M "A M A 2"
_symmetry_group_IT_number 40
_symmetry_cell_setting 'orthorhombic'
loop_
_space_group_symop_operation_xyz
x,y,z
-x,-y,z
1/2-x,y,z
1/2+x,-y,z
x,1/2+y,1/2+z
-x,1/2-y,1/2+z
1/2-x,1/2+y,1/2+z
1/2+x,1/2-y,1/2+z
loop_
_atom_site_type_symbol
_atom_site_label
_atom_site_fract_x
_atom_site_fract_y
_atom_site_fract_z
Si Si1 0.505061 0.160637 0.000000
Si Si2 0.365398 0.823177 0.243028
Si Si3 0.541205 0.802775 0.154606
Si Si4 0.367553 0.616333 0.977689
Si Si5 0.365045 0.523483 0.420206
Si Si6 0.366476 0.571144 0.261730
Si Si7 0.633382 0.558078 0.111619
Si Si8 0.133672 0.574045 0.800627
O O1 0.559770 0.282448 0.003607
O O2 0.587799 0.072083 0.973307
O O3 0.419104 0.142860 0.939391
O O4 0.447715 0.129296 0.076852
O O5 0.250000 0.823448 0.231716
O O6 0.425492 0.816254 0.166328
O O7 0.396821 0.701683 0.278601
O O8 0.390989 0.939685 0.286409
O O9 0.582350 0.677483 0.133804
O O10 0.587195 0.852126 0.231942
O O11 0.250000 0.642280 0.985690
O O12 0.387871 0.601330 0.888101
O O13 0.385397 0.504668 0.031387
O O14 0.250000 0.531816 0.428375
O O15 0.390127 0.492150 0.333132
O O16 0.250000 0.573588 0.259531
O O17 0.395098 0.528533 0.179493
O O18 0.750000 0.577541 0.114820
O O19 0.250000 0.587188 0.792147
#
# Coordination Sequence:
#
# PCOD9365201 Si02
#       8
#     8   8   8   8   8   8   8   8
#     4  11  26  42  66 103 139 185 250 299 367 436
#     4  10  23  42  67  98 135 183 238 294 357 430
#     4  12  26  43  67 105 142 186 247 302 361 438
#     4  10  23  47  74 107 146 192 245 306 377 448
#     4  10  24  43  66  98 142 187 236 299 364 438
#     4   9  20  41  68  99 131 177 230 281 359 435
#     4  10  23  45  73 105 144 184 235 303 373 439
#     4  10  24  45  74 105 141 193 247 303 371 442
#
# _framework density 22.668223000000001
#
# number of rings (size 3 to 8) (size 9 to 14) (size 15 to 20)
#    0.000    1.750    0.000    1.875    7.000    7.000 
#    2.250    2.500    0.000    0.750    0.000    0.000 
#    0.000    0.000    0.000    0.000    0.000    0.000 
#
# Total GULP energy -178498.877365 kJ/mol
# GULP energy per Si atom -5578.089918 kJ/mol
# Density = 2.261663 g / cm^3
# Si number density = 22.668223 Si / 1000 Ang^3
#
#
#
# Elastic Constant Matrix: (Units=GPa)
#
#
# Indices 1 2 3 4 5 6 
#
# 1 99.4793 32.6152 35.0298 0.0000 0.0000 0.0000
# 2 32.6152 113.5483 64.9059 0.0000 0.0000 0.0000
# 3 35.0298 64.9059 184.9140 0.0000 0.0000 0.0000
# 4 0.0000 0.0000 0.0000 26.0061 0.0000 0.0000
# 5 0.0000 0.0000 0.0000 0.0000 49.4973 0.0000
# 6 0.0000 0.0000 0.0000 0.0000 0.0000 37.3634
#
#
#
# Elastic Compliance Matrix: (Units=1/GPa)
#
#
# Indices 1 2 3 4 5 6 
#
# 1 0.011326 -0.002535 -0.001256 0.000000 0.000000 0.000000
# 2 -0.002535 0.011585 -0.003586 0.000000 0.000000 0.000000
# 3 -0.001256 -0.003586 0.006905 0.000000 0.000000 0.000000
# 4 0.000000 0.000000 0.000000 0.038453 0.000000 0.000000
# 5 0.000000 0.000000 0.000000 0.000000 0.020203 0.000000
# 6 0.000000 0.000000 0.000000 0.000000 0.000000 0.026764
#
#
# Mechanical properties :
#
#
# Convention : Reuss Voigt Hill
#
# Bulk Modulus (GPa) = 66.39668 73.67149 70.03408
# Shear Modulus (GPa) = 37.03441 40.26607 38.65024
#
# Velocity S-wave (km/s) = 4.04636 4.21922 4.13369
# Velocity P-wave (km/s) = 7.15437 7.50374 7.33114
#
# Compressibility (1/GPa) = 0.01506099
#
# Stress axis : x y z
#
# Youngs Moduli (GPa) = 88.29446 86.31886 144.83302
#
# Poissons Ratio (x) = 0.21886 0.18185
# Poissons Ratio (y) = 0.22387 0.51938
# Poissons Ratio (z) = 0.11086 0.30955
#
# Static dielectric constant tensor:
#      x y z
#    x 1.838990 0.000000 0.000000 
#    y 0.000000 1.884720 0.000000 
#    z 0.000000 0.000000 1.867710 
# 
# From -- ./inp_files/20811.got.cif
#   From: 2010.05.17/outbox.cif.g08.bks.cpg/sg40_11_cif.got.tgz:20811.got - 2010.06.03 18:35:42.
