data_PCOD9365698
_publ_section_title
;
Structure prediction by ZEFSAII (Michael W. Deem and Ramdas Pophale) SiO2 
 PCOD9365698
Probable space group: A M A 2
;
_chemical_formula_sum "Si O2"
_cell_formula_units_Z 32
_cell_length_a 18.000000
_cell_length_b 15.000000
_cell_length_c 12.000000
_cell_angle_alpha 90.000000
_cell_angle_beta 90.000000
_cell_angle_gamma 90.000000
_cell_volume 3240.000000
_symmetry_space_group_name_H-M "A M A 2"
_symmetry_group_IT_number 40
_symmetry_cell_setting 'orthorhombic'
loop_
_space_group_symop_operation_xyz
x,y,z
-x,-y,z
1/2-x,y,z
1/2+x,-y,z
x,1/2+y,1/2+z
-x,1/2-y,1/2+z
1/2-x,1/2+y,1/2+z
1/2+x,1/2-y,1/2+z
loop_
_atom_site_type_symbol
_atom_site_label
_atom_site_fract_x
_atom_site_fract_y
_atom_site_fract_z
Si Si1 0.582921 0.037548 0.109460
Si Si2 0.158416 0.177092 0.610171
Si Si3 0.409539 0.488311 0.173878
Si Si4 0.914500 0.779025 0.371503
Si Si5 0.085267 0.307194 0.795282
Si Si6 0.338162 0.642042 0.671696
Si Si7 0.160214 0.323813 0.035861
Si Si8 0.159513 0.404491 0.383995
O O1 0.579400 0.104259 0.216326
O O2 0.500000 0.000000 0.087151
O O3 0.634747 0.951197 0.123154
O O4 0.620542 0.086604 0.004258
O O5 0.250000 0.186509 0.600434
O O6 0.112860 0.204825 0.498090
O O7 0.125558 0.234949 0.714042
O O8 0.132996 0.075337 0.628739
O O9 0.500000 0.500000 0.172987
O O10 0.383490 0.402863 0.100335
O O11 0.376738 0.474499 0.298436
O O12 0.879511 0.851616 0.289635
O O13 0.870511 0.689437 0.337863
O O14 0.002713 0.777726 0.341197
O O15 0.133797 0.322415 0.906995
O O16 0.250000 0.643260 0.686885
O O17 0.357281 0.727596 0.593553
O O18 0.250000 0.337267 0.044072
O O19 0.250000 0.408394 0.387885
#
# Coordination Sequence:
#
# PCOD9365698 Si02
#       8
#     8   8   8   8   8   8   8   8
#     4  12  27  46  69 106 142 188 239 297 360 432
#     4  12  27  47  73 107 146 190 241 296 361 430
#     4  12  26  46  74 107 144 188 237 296 359 430
#     4  12  25  45  74 103 140 191 240 293 354 433
#     4  12  28  46  73 105 149 186 236 300 363 427
#     4  11  25  46  73 102 139 187 240 293 359 428
#     4  11  26  47  73 104 143 187 238 297 360 428
#     4  12  25  46  74 103 142 188 240 297 356 425
#
# _framework density 9.8765429999999999
#
# number of rings (size 3 to 8) (size 9 to 14) (size 15 to 20)
#    0.000    0.250    3.750    4.875    7.000    2.000 
#    0.000    0.000    0.000    0.000    0.000    0.000 
#    0.000    0.000    0.000    0.000    0.000    0.000 
#
# Total GULP energy -178819.156589 kJ/mol
# GULP energy per Si atom -5588.098643 kJ/mol
# Density = 0.985406 g / cm^3
# Si number density = 9.876543 Si / 1000 Ang^3
#
#
#
# Elastic Constant Matrix: (Units=GPa)
#
#
# Indices 1 2 3 4 5 6 
#
# 1 158.2444 19.2728 41.4964 0.0000 0.0000 0.0000
# 2 19.2728 88.3270 23.8877 0.0000 0.0000 0.0000
# 3 41.4964 23.8877 136.3459 0.0000 0.0000 0.0000
# 4 0.0000 0.0000 0.0000 -16.4372 0.0000 0.0000
# 5 0.0000 0.0000 0.0000 0.0000 38.5893 0.0000
# 6 0.0000 0.0000 0.0000 0.0000 0.0000 36.6229
#
#
#
# Elastic Compliance Matrix: (Units=1/GPa)
#
#
# Indices 1 2 3 4 5 6 
#
# 1 0.006949 -0.000991 -0.001941 0.000000 0.000000 0.000000
# 2 -0.000991 0.012026 -0.001805 0.000000 0.000000 0.000000
# 3 -0.001941 -0.001805 0.008241 0.000000 0.000000 0.000000
# 4 0.000000 0.000000 0.000000 -0.060838 0.000000 0.000000
# 5 0.000000 0.000000 0.000000 0.000000 0.025914 0.000000
# 6 0.000000 0.000000 0.000000 0.000000 0.000000 0.027305
#
#
# Mechanical properties :
#
#
# Convention : Reuss Voigt Hill
#
# Bulk Modulus (GPa) = 56.36672 61.35901 58.86286
# Shear Modulus (GPa) = 142.90803 31.63903 87.27353
#
# Velocity S-wave (km/s) = 8.51494 4.00650 6.65418
# Velocity P-wave (km/s) = 11.19241 7.24797 9.42876
#
# Compressibility (1/GPa) = 0.01774097
#
# Stress axis : x y z
#
# Youngs Moduli (GPa) = 143.90291 83.15258 121.33875
#
# Poissons Ratio (x) = 0.08243 0.23555
# Poissons Ratio (y) = 0.14265 0.21905
# Poissons Ratio (z) = 0.27935 0.15011
#
# Static dielectric constant tensor:
#      x y z
#    x 1.669430 0.000000 0.000000 
#    y 0.000000 1.732820 0.000000 
#    z 0.000000 0.000000 1.700850 
# 
# From -- ./inp_files/13116.got.cif
#   From: 2010.05.17/outbox.ucp.g08.bks.cvg/sg40_7_cif.got.tgz:13116.got - 2010.06.11 16:26:39.
