data_PCOD9365383
_publ_section_title
;
Structure prediction by ZEFSAII (Michael W. Deem and Ramdas Pophale) SiO2 
 PCOD9365383
Probable space group: A M A 2
;
_chemical_formula_sum "Si O2"
_cell_formula_units_Z 32
_cell_length_a 18.291449
_cell_length_b 6.040051
_cell_length_c 12.766181
_cell_angle_alpha 90.000000
_cell_angle_beta 90.000000
_cell_angle_gamma 90.000000
_cell_volume 1410.424079
_symmetry_space_group_name_H-M "A M A 2"
_symmetry_group_IT_number 40
_symmetry_cell_setting 'orthorhombic'
loop_
_space_group_symop_operation_xyz
x,y,z
-x,-y,z
1/2-x,y,z
1/2+x,-y,z
x,1/2+y,1/2+z
-x,1/2-y,1/2+z
1/2-x,1/2+y,1/2+z
1/2+x,1/2-y,1/2+z
loop_
_atom_site_type_symbol
_atom_site_label
_atom_site_fract_x
_atom_site_fract_y
_atom_site_fract_z
Si Si1 0.163348 0.772962 0.455010
Si Si2 0.074032 0.107976 0.325336
Si Si3 0.588142 0.513560 0.156847
Si Si4 0.574180 0.127233 0.030832
O O1 0.250000 0.775869 0.449960
O O2 0.132395 0.879946 0.561511
O O3 0.132040 0.527446 0.471083
O O4 0.130513 0.915046 0.358689
O O5 0.099885 0.314988 0.253141
O O6 0.051103 0.207495 0.438132
O O7 0.000000 0.000000 0.281941
O O8 0.500000 0.500000 0.147480
O O9 0.606284 0.253856 0.132214
O O10 0.500000 0.000000 0.057447
#
# Coordination Sequence:
#
# PCOD9365383 Si02
#       4
#     8   8   8   8
#     4  11  25  45  67 100 150 194 233 299 382 446
#     4  11  24  42  74 104 136 184 247 308 362 435
#     4  11  24  40  72 107 135 180 246 307 357 432
#     4  11  20  43  68 103 140 185 243 301 362 435
#
# _framework density 22.688210999999999
#
# number of rings (size 3 to 8) (size 9 to 14) (size 15 to 20)
#    0.000    1.000    5.000    2.250    3.500    5.000 
#    0.000    0.000    0.000    0.000    0.000    0.000 
#    0.000    0.000    0.000    0.000    0.000    0.000 
#
# Total GULP energy -89168.175737 kJ/mol
# GULP energy per Si atom -5573.010984 kJ/mol
# Density = 2.263657 g / cm^3
# Si number density = 22.688211 Si / 1000 Ang^3
#
#
#
# Elastic Constant Matrix: (Units=GPa)
#
#
# Indices 1 2 3 4 5 6 
#
# 1 132.5615 52.4826 48.2487 0.0000 0.0000 0.0000
# 2 52.4826 144.5329 79.6701 0.0000 0.0000 0.0000
# 3 48.2487 79.6701 165.4671 0.0000 0.0000 0.0000
# 4 0.0000 0.0000 0.0000 112.8863 0.0000 0.0000
# 5 0.0000 0.0000 0.0000 0.0000 15.6848 0.0000
# 6 0.0000 0.0000 0.0000 0.0000 0.0000 21.9427
#
#
#
# Elastic Compliance Matrix: (Units=1/GPa)
#
#
# Indices 1 2 3 4 5 6 
#
# 1 0.009055 -0.002495 -0.001439 0.000000 0.000000 0.000000
# 2 -0.002495 0.010106 -0.004138 0.000000 0.000000 0.000000
# 3 -0.001439 -0.004138 0.008456 0.000000 0.000000 0.000000
# 4 0.000000 0.000000 0.000000 0.008858 0.000000 0.000000
# 5 0.000000 0.000000 0.000000 0.000000 0.063756 0.000000
# 6 0.000000 0.000000 0.000000 0.000000 0.000000 0.045573
#
#
# Mechanical properties :
#
#
# Convention : Reuss Voigt Hill
#
# Bulk Modulus (GPa) = 87.16817 89.26270 88.21543
# Shear Modulus (GPa) = 30.16162 47.58009 38.87085
#
# Velocity S-wave (km/s) = 3.65004 4.58441 4.14365
# Velocity P-wave (km/s) = 7.50115 8.21286 7.86506
#
# Compressibility (1/GPa) = 0.01147208
#
# Stress axis : x y z
#
# Youngs Moduli (GPa) = 110.43355 98.95178 118.26283
#
# Poissons Ratio (x) = 0.24686 0.17021
# Poissons Ratio (y) = 0.27551 0.48942
# Poissons Ratio (z) = 0.15894 0.40950
#
# Static dielectric constant tensor:
#      x y z
#    x 1.749550 0.000000 0.000000 
#    y 0.000000 2.094480 0.000000 
#    z 0.000000 0.000000 1.874350 
# 
# From -- ./inp_files/17332.got.cif
#   From: 2010.05.17/outbox.cif.g08.bks.cpg/sg40_9_cif.got.tgz:17332.got - 2010.06.03 18:35:42.
