data_PCOD9365976
_publ_section_title
;
Structure prediction by ZEFSAII (Michael W. Deem and Ramdas Pophale) SiO2 
 PCOD9365976
Probable space group: A B A 2
;
_chemical_formula_sum "Si O2"
_cell_formula_units_Z 48
_cell_length_a 14.288155
_cell_length_b 17.977208
_cell_length_c 6.672914
_cell_angle_alpha 90.000000
_cell_angle_beta 90.000000
_cell_angle_gamma 90.000000
_cell_volume 1714.012260
_symmetry_space_group_name_H-M "A B A 2"
_symmetry_group_IT_number 41
_symmetry_cell_setting 'orthorhombic'
loop_
_space_group_symop_operation_xyz
x,y,z
-x,-y,z
1/2-x,y,1/2+z
1/2+x,-y,1/2+z
x,1/2+y,1/2+z
-x,1/2-y,1/2+z
1/2-x,1/2+y,z
1/2+x,1/2-y,z
loop_
_atom_site_type_symbol
_atom_site_label
_atom_site_fract_x
_atom_site_fract_y
_atom_site_fract_z
Si Si1 0.517884 0.877690 0.982060
Si Si2 0.659696 0.989346 0.584527
Si Si3 0.443408 0.871143 0.512588
Si Si4 0.165259 0.741905 0.868243
Si Si5 0.135594 0.680428 0.452853
Si Si6 0.372300 0.480589 0.543528
O O1 0.486851 0.873975 0.740145
O O2 0.597109 0.814990 0.986847
O O3 0.571025 0.945664 0.101261
O O4 0.415328 0.898994 0.065182
O O5 0.661963 0.904381 0.515576
O O6 0.765405 0.016816 0.600860
O O7 0.593496 0.045878 0.463398
O O8 0.622502 0.997761 0.807181
O O9 0.353208 0.818991 0.480595
O O10 0.527387 0.831361 0.388002
O O11 0.128691 0.736089 0.641622
O O12 0.271814 0.712556 0.847219
#
# Coordination Sequence:
#
# PCOD9365976 Si02
#       6
#     8   8   8   8   8   8
#     4   9  19  40  60  90 126 176 212 266 332 397
#     4  11  19  39  65  96 120 174 217 276 327 400
#     4  10  23  37  64  92 128 168 222 271 333 398
#     4  11  23  39  63  93 126 176 214 271 343 397
#     4  11  22  42  63  88 128 171 217 269 334 401
#     4  10  19  35  69  90 123 164 226 268 327 394
#
# _framework density 28.004466000000001
#
# number of rings (size 3 to 8) (size 9 to 14) (size 15 to 20)
#    0.000    1.667    5.000    0.500    0.000    6.667 
#    0.000    3.333    3.667    0.000    0.000    0.000 
#    0.000    0.000    0.000    0.000    0.000    0.000 
#
# Total GULP energy -133939.654731 kJ/mol
# GULP energy per Si atom -5580.818947 kJ/mol
# Density = 2.794073 g / cm^3
# Si number density = 28.004466 Si / 1000 Ang^3
#
#
#
# Elastic Constant Matrix: (Units=GPa)
#
#
# Indices 1 2 3 4 5 6 
#
# 1 140.8695 67.8869 0.0341 0.0000 0.0000 0.0000
# 2 67.8869 167.1495 22.3609 0.0000 0.0000 0.0000
# 3 0.0341 22.3609 60.6493 0.0000 0.0000 0.0000
# 4 0.0000 0.0000 0.0000 28.7093 0.0000 0.0000
# 5 0.0000 0.0000 0.0000 0.0000 -156.7316 0.0000
# 6 0.0000 0.0000 0.0000 0.0000 0.0000 47.7323
#
#
#
# Elastic Compliance Matrix: (Units=1/GPa)
#
#
# Indices 1 2 3 4 5 6 
#
# 1 0.008938 -0.003818 0.001403 0.000000 0.000000 0.000000
# 2 -0.003818 0.007924 -0.002919 0.000000 0.000000 0.000000
# 3 0.001403 -0.002919 0.017564 0.000000 0.000000 0.000000
# 4 0.000000 0.000000 0.000000 0.034832 0.000000 0.000000
# 5 0.000000 0.000000 0.000000 0.000000 -0.006380 0.000000
# 6 0.000000 0.000000 0.000000 0.000000 0.000000 0.020950
#
#
# Mechanical properties :
#
#
# Convention : Reuss Voigt Hill
#
# Bulk Modulus (GPa) = 42.09334 61.02579 51.55956
# Shear Modulus (GPa) = 48.82060 2.50110 25.66085
#
# Velocity S-wave (km/s) = 4.17983 0.94607 3.03035
# Velocity P-wave (km/s) = 6.19340 4.79918 5.54032
#
# Compressibility (1/GPa) = 0.02375673
#
# Stress axis : x y z
#
# Youngs Moduli (GPa) = 111.87777 126.20170 56.93541
#
# Poissons Ratio (x) = 0.48182 -0.07986
# Poissons Ratio (y) = 0.42714 0.16621
# Poissons Ratio (z) = -0.15692 0.36842
#
# Static dielectric constant tensor:
#      x y z
#    x 2.202580 0.000000 0.000000 
#    y 0.000000 2.361950 0.000000 
#    z 0.000000 0.000000 2.422730 
# 
# From -- ./inp_files/2520.got.cif
#   From: 2010.05.17/outbox.cif.g08.bks.cpg/sg41_2_cif.got.tgz:2520.got - 2010.06.03 18:54:24.
