data_PCOD9365541
_publ_section_title
;
Structure prediction by ZEFSAII (Michael W. Deem and Ramdas Pophale) SiO2 
 PCOD9365541
Probable space group: A M A 2
;
_chemical_formula_sum "Si O2"
_cell_formula_units_Z 52
_cell_length_a 19.927235
_cell_length_b 18.210441
_cell_length_c 6.719811
_cell_angle_alpha 90.000000
_cell_angle_beta 90.000000
_cell_angle_gamma 90.000000
_cell_volume 2438.510129
_symmetry_space_group_name_H-M "A M A 2"
_symmetry_group_IT_number 40
_symmetry_cell_setting 'orthorhombic'
loop_
_space_group_symop_operation_xyz
x,y,z
-x,-y,z
1/2-x,y,z
1/2+x,-y,z
x,1/2+y,1/2+z
-x,1/2-y,1/2+z
1/2-x,1/2+y,1/2+z
1/2+x,1/2-y,1/2+z
loop_
_atom_site_type_symbol
_atom_site_label
_atom_site_fract_x
_atom_site_fract_y
_atom_site_fract_z
Si Si1 0.500510 0.665125 0.248190
Si Si2 0.329606 0.662987 0.701898
Si Si3 0.894612 0.426455 0.052502
Si Si4 0.415383 0.888120 0.094794
Si Si5 0.000000 0.000000 0.298705
Si Si6 0.098539 0.781884 0.421540
Si Si7 0.673614 0.480629 0.424945
O O1 0.554103 0.662649 0.423891
O O2 0.445790 0.726662 0.290972
O O3 0.453961 0.595565 0.205328
O O4 0.544168 0.676670 0.054085
O O5 0.250000 0.672434 0.742602
O O6 0.368106 0.638742 0.906259
O O7 0.356719 0.732816 0.573454
O O8 0.337993 0.592259 0.557481
O O9 0.931633 0.486184 0.917855
O O10 0.838110 0.459053 0.194919
O O11 0.375487 0.841988 0.262497
O O12 0.482836 0.926916 0.178706
O O13 0.373344 0.953344 0.995465
O O14 0.750000 0.503384 0.455803
#
# Coordination Sequence:
#
# PCOD9365541 Si02
#       7
#     8   8   8   8   4   8   8
#     4  12  23  40  67  99 132 169 220 277 353 407
#     4  11  25  45  69  95 133 186 235 278 338 424
#     4  12  22  42  68 100 131 175 227 280 353 409
#     4  12  25  41  66 102 139 175 227 288 352 415
#     4  12  22  40  64 104 130 164 216 284 350 396
#     4  12  24  42  64 101 136 176 222 283 349 415
#     4  11  25  45  68  95 133 185 235 282 336 416
#
# _framework density 21.324494999999999
#
# number of rings (size 3 to 8) (size 9 to 14) (size 15 to 20)
#    0.000    0.308    6.154    4.154    0.000    0.615 
#    0.000    0.769    0.000    0.000    0.000    0.000 
#    0.000    0.000    0.000    0.000    0.000    0.000 
#
# Total GULP energy -145120.845100 kJ/mol
# GULP energy per Si atom -5581.570965 kJ/mol
# Density = 2.127596 g / cm^3
# Si number density = 21.324495 Si / 1000 Ang^3
#
#
#
# Elastic Constant Matrix: (Units=GPa)
#
#
# Indices 1 2 3 4 5 6 
#
# 1 76.0495 16.7389 19.1295 0.0000 0.0000 0.0000
# 2 16.7389 63.4456 21.4280 0.0000 0.0000 0.0000
# 3 19.1295 21.4280 95.2624 0.0000 0.0000 0.0000
# 4 0.0000 0.0000 0.0000 38.4894 0.0000 0.0000
# 5 0.0000 0.0000 0.0000 0.0000 26.7039 0.0000
# 6 0.0000 0.0000 0.0000 0.0000 0.0000 6.3406
#
#
#
# Elastic Compliance Matrix: (Units=1/GPa)
#
#
# Indices 1 2 3 4 5 6 
#
# 1 0.014374 -0.003049 -0.002201 0.000000 0.000000 0.000000
# 2 -0.003049 0.017704 -0.003370 0.000000 0.000000 0.000000
# 3 -0.002201 -0.003370 0.011697 0.000000 0.000000 0.000000
# 4 0.000000 0.000000 0.000000 0.025981 0.000000 0.000000
# 5 0.000000 0.000000 0.000000 0.000000 0.037448 0.000000
# 6 0.000000 0.000000 0.000000 0.000000 0.000000 0.157713
#
#
# Mechanical properties :
#
#
# Convention : Reuss Voigt Hill
#
# Bulk Modulus (GPa) = 37.68460 38.81670 38.25065
# Shear Modulus (GPa) = 17.18201 26.13753 21.65977
#
# Velocity S-wave (km/s) = 2.84164 3.50480 3.19050
# Velocity P-wave (km/s) = 5.33637 5.88393 5.61683
#
# Compressibility (1/GPa) = 0.02653604
#
# Stress axis : x y z
#
# Youngs Moduli (GPa) = 69.57012 56.48384 85.49012
#
# Poissons Ratio (x) = 0.17222 0.18813
# Poissons Ratio (y) = 0.21212 0.28811
# Poissons Ratio (z) = 0.15309 0.19035
#
# Static dielectric constant tensor:
#      x y z
#    x 1.712430 0.000000 0.000000 
#    y 0.000000 1.806960 0.000000 
#    z 0.000000 0.000000 1.886700 
# 
# From -- ./inp_files/2340.got.cif
#   From: 2010.05.17/outbox.cif.g08.bks.cpg/sg40_2_cif.got.tgz:2340.got - 2010.06.03 18:35:42.
