data_PCOD9365435
_publ_section_title
;
Structure prediction by ZEFSAII (Michael W. Deem and Ramdas Pophale) SiO2 
 PCOD9365435
Probable space group: A M A 2
;
_chemical_formula_sum "Si O2"
_cell_formula_units_Z 64
_cell_length_a 17.535082
_cell_length_b 9.210742
_cell_length_c 20.782512
_cell_angle_alpha 90.000000
_cell_angle_beta 90.000000
_cell_angle_gamma 90.000000
_cell_volume 3356.606712
_symmetry_space_group_name_H-M "A M A 2"
_symmetry_group_IT_number 40
_symmetry_cell_setting 'orthorhombic'
loop_
_space_group_symop_operation_xyz
x,y,z
-x,-y,z
1/2-x,y,z
1/2+x,-y,z
x,1/2+y,1/2+z
-x,1/2-y,1/2+z
1/2-x,1/2+y,1/2+z
1/2+x,1/2-y,1/2+z
loop_
_atom_site_type_symbol
_atom_site_label
_atom_site_fract_x
_atom_site_fract_y
_atom_site_fract_z
Si Si1 0.573681 0.707420 0.773360
Si Si2 0.842485 0.221555 0.040002
Si Si3 0.921069 0.912228 0.648409
Si Si4 0.659880 0.216592 0.895181
Si Si5 0.342828 0.613478 0.383749
Si Si6 0.659778 0.707396 0.153595
Si Si7 0.341913 0.119490 0.030564
Si Si8 0.100342 0.120068 0.276274
O O1 0.573175 0.809674 0.710815
O O2 0.616208 0.788511 0.831185
O O3 0.486779 0.666114 0.789488
O O4 0.610644 0.549723 0.761772
O O5 0.750000 0.243811 0.048119
O O6 0.890939 0.314665 0.089832
O O7 0.857878 0.048922 0.046893
O O8 0.866369 0.258404 0.966649
O O9 0.859964 0.039277 0.659246
O O10 0.000000 0.000000 0.637616
O O11 0.750000 0.197839 0.903018
O O12 0.644222 0.331141 0.839977
O O13 0.632783 0.055346 0.875281
O O14 0.250000 0.624168 0.377874
O O15 0.365625 0.652269 0.457288
O O16 0.750000 0.728231 0.154247
O O17 0.629004 0.775262 0.086599
O O18 0.626118 0.791209 0.214143
O O19 0.250000 0.131319 0.029196
#
# Coordination Sequence:
#
# PCOD9365435 Si02
#       8
#     8   8   8   8   8   8   8   8
#     4  11  25  40  57  81 121 161 198 247 293 348
#     4   9  19  39  64  89 118 154 194 241 293 351
#     4  12  24  41  58  84 122 157 197 250 296 346
#     4   9  19  38  64  90 119 151 192 242 291 353
#     4   9  19  37  64  93 119 153 195 239 293 353
#     4  11  22  38  64  90 116 155 199 243 294 351
#     4   8  17  37  63  93 121 148 192 244 288 347
#     4  11  23  41  57  85 119 160 200 243 297 349
#
# _framework density 19.066876000000001
#
# number of rings (size 3 to 8) (size 9 to 14) (size 15 to 20)
#    0.000    2.000    1.250    3.750    0.000    4.000 
#    4.500    2.500    0.000    0.000    0.000    0.000 
#    0.000    0.000    0.000    0.000    0.000    0.000 
#
# Total GULP energy -178562.166342 kJ/mol
# GULP energy per Si atom -5580.067698 kJ/mol
# Density = 1.902348 g / cm^3
# Si number density = 19.066876 Si / 1000 Ang^3
#
#
#
# Elastic Constant Matrix: (Units=GPa)
#
#
# Indices 1 2 3 4 5 6 
#
# 1 35.7765 27.2448 40.2494 0.0000 0.0000 0.0000
# 2 27.2448 105.3265 80.6312 0.0000 0.0000 0.0000
# 3 40.2494 80.6312 121.0414 0.0000 0.0000 0.0000
# 4 0.0000 0.0000 0.0000 44.3365 0.0000 0.0000
# 5 0.0000 0.0000 0.0000 0.0000 -210.3982 0.0000
# 6 0.0000 0.0000 0.0000 0.0000 0.0000 30.6600
#
#
#
# Elastic Compliance Matrix: (Units=1/GPa)
#
#
# Indices 1 2 3 4 5 6 
#
# 1 0.044665 -0.000375 -0.014603 0.000000 0.000000 0.000000
# 2 -0.000375 0.019378 -0.012784 0.000000 0.000000 0.000000
# 3 -0.014603 -0.012784 0.021633 0.000000 0.000000 0.000000
# 4 0.000000 0.000000 0.000000 0.022555 0.000000 0.000000
# 5 0.000000 0.000000 0.000000 0.000000 -0.004753 0.000000
# 6 0.000000 0.000000 0.000000 0.000000 0.000000 0.032616
#
#
# Mechanical properties :
#
#
# Convention : Reuss Voigt Hill
#
# Bulk Modulus (GPa) = 33.16341 62.04390 47.60365
# Shear Modulus (GPa) = 24.79336 -19.47907 2.65715
#
# Velocity S-wave (km/s) = 3.60993 -3.19974 1.18179
# Velocity P-wave (km/s) = 5.89970 4.35427 5.18489
#
# Compressibility (1/GPa) = 0.03015371
#
# Stress axis : x y z
#
# Youngs Moduli (GPa) = 22.38895 51.60589 46.22505
#
# Poissons Ratio (x) = 0.01933 0.67501
# Poissons Ratio (y) = 0.00839 0.59093
# Poissons Ratio (z) = 0.32694 0.65972
#
# Static dielectric constant tensor:
#      x y z
#    x 1.676140 0.000000 0.000000 
#    y 0.000000 1.650260 0.000000 
#    z 0.000000 0.000000 1.651560 
# 
# From -- ./inp_files/23339.got.cif
#   From: 2010.05.17/outbox.cif.g08.bks.cpg/sg40_12_cif.got.tgz:23339.got - 2010.06.03 18:35:42.
