data_PCOD9365220
_publ_section_title
;
Structure prediction by ZEFSAII (Michael W. Deem and Ramdas Pophale) SiO2 
 PCOD9365220
Probable space group: A M A 2
;
_chemical_formula_sum "Si O2"
_cell_formula_units_Z 32
_cell_length_a 10.845048
_cell_length_b 16.948793
_cell_length_c 7.760963
_cell_angle_alpha 90.000000
_cell_angle_beta 90.000000
_cell_angle_gamma 90.000000
_cell_volume 1426.546285
_symmetry_space_group_name_H-M "A M A 2"
_symmetry_group_IT_number 40
_symmetry_cell_setting 'orthorhombic'
loop_
_space_group_symop_operation_xyz
x,y,z
-x,-y,z
1/2-x,y,z
1/2+x,-y,z
x,1/2+y,1/2+z
-x,1/2-y,1/2+z
1/2-x,1/2+y,1/2+z
1/2+x,1/2-y,1/2+z
loop_
_atom_site_type_symbol
_atom_site_label
_atom_site_fract_x
_atom_site_fract_y
_atom_site_fract_z
Si Si1 0.523976 0.151412 0.243420
Si Si2 0.961515 0.674476 0.127457
Si Si3 0.615626 0.059050 0.923347
Si Si4 0.616079 0.943240 0.481082
O O1 0.477301 0.235107 0.175870
O O2 0.586717 0.164950 0.430975
O O3 0.409333 0.094398 0.293748
O O4 0.602384 0.106276 0.102349
O O5 0.893128 0.624574 0.272339
O O6 0.094781 0.630914 0.107547
O O7 0.750000 0.019832 0.913297
O O8 0.500000 0.000000 0.908541
O O9 0.750000 0.979141 0.496733
O O10 0.500000 0.000000 0.512065
#
# Coordination Sequence:
#
# PCOD9365220 Si02
#       4
#     8   8   8   8
#     4  10  23  44  73 102 146 181 236 295 366 418
#     4  10  23  44  73 102 146 181 236 295 366 418
#     4  12  27  47  71 109 145 190 243 294 356 434
#     4  10  23  43  69 101 141 182 235 288 350 422
#
# _framework density 22.431802000000001
#
# number of rings (size 3 to 8) (size 9 to 14) (size 15 to 20)
#    1.500    0.000    2.500    1.500    0.000   13.000 
#    0.000    0.000    0.000    0.000    0.000    0.000 
#    0.000    0.000    0.000    0.000    0.000    0.000 
#
# Total GULP energy -89207.968868 kJ/mol
# GULP energy per Si atom -5575.498054 kJ/mol
# Density = 2.238075 g / cm^3
# Si number density = 22.431802 Si / 1000 Ang^3
#
#
#
# Elastic Constant Matrix: (Units=GPa)
#
#
# Indices 1 2 3 4 5 6 
#
# 1 159.2834 44.5253 31.7961 0.0000 0.0000 0.0000
# 2 44.5253 106.5735 37.1217 0.0000 0.0000 0.0000
# 3 31.7961 37.1217 162.0650 0.0000 0.0000 0.0000
# 4 0.0000 0.0000 0.0000 51.0920 0.0000 0.0000
# 5 0.0000 0.0000 0.0000 0.0000 19.3173 0.0000
# 6 0.0000 0.0000 0.0000 0.0000 0.0000 19.2337
#
#
#
# Elastic Compliance Matrix: (Units=1/GPa)
#
#
# Indices 1 2 3 4 5 6 
#
# 1 0.007199 -0.002734 -0.000786 0.000000 0.000000 0.000000
# 2 -0.002734 0.011235 -0.002037 0.000000 0.000000 0.000000
# 3 -0.000786 -0.002037 0.006791 0.000000 0.000000 0.000000
# 4 0.000000 0.000000 0.000000 0.019573 0.000000 0.000000
# 5 0.000000 0.000000 0.000000 0.000000 0.051767 0.000000
# 6 0.000000 0.000000 0.000000 0.000000 0.000000 0.051992
#
#
# Mechanical properties :
#
#
# Convention : Reuss Voigt Hill
#
# Bulk Modulus (GPa) = 70.86643 72.75643 71.81143
# Shear Modulus (GPa) = 30.41818 38.89384 34.65601
#
# Velocity S-wave (km/s) = 3.68643 4.16849 3.93485
# Velocity P-wave (km/s) = 7.05551 7.46146 7.26132
#
# Compressibility (1/GPa) = 0.01411105
#
# Stress axis : x y z
#
# Youngs Moduli (GPa) = 138.90250 89.00800 147.24919
#
# Poissons Ratio (x) = 0.24334 0.11577
# Poissons Ratio (y) = 0.37975 0.29995
# Poissons Ratio (z) = 0.10921 0.18131
#
# Static dielectric constant tensor:
#      x y z
#    x 1.826130 0.000000 0.000000 
#    y 0.000000 1.844850 0.000000 
#    z 0.000000 0.000000 1.886980 
# 
# From -- ./inp_files/5020.got.cif
#   From: 2010.05.17/outbox.cif.g08.bks.cpg/sg40_3_cif.got.tgz:5020.got - 2010.06.03 18:35:42.
