data_PCOD9365096
_publ_section_title
;
Structure prediction by ZEFSAII (Michael W. Deem and Ramdas Pophale) SiO2 
 PCOD9365096
Probable space group: A M A 2
;
_chemical_formula_sum "Si O2"
_cell_formula_units_Z 48
_cell_length_a 9.816927
_cell_length_b 7.854701
_cell_length_c 30.007081
_cell_angle_alpha 90.000000
_cell_angle_beta 90.000000
_cell_angle_gamma 90.000000
_cell_volume 2313.816799
_symmetry_space_group_name_H-M "A M A 2"
_symmetry_group_IT_number 40
_symmetry_cell_setting 'orthorhombic'
loop_
_space_group_symop_operation_xyz
x,y,z
-x,-y,z
1/2-x,y,z
1/2+x,-y,z
x,1/2+y,1/2+z
-x,1/2-y,1/2+z
1/2-x,1/2+y,1/2+z
1/2+x,1/2-y,1/2+z
loop_
_atom_site_type_symbol
_atom_site_label
_atom_site_fract_x
_atom_site_fract_y
_atom_site_fract_z
Si Si1 0.250000 0.797929 0.386091
Si Si2 0.911867 0.329578 0.587963
Si Si3 0.480359 0.803574 0.927635
Si Si4 0.500000 0.500000 0.248402
Si Si5 0.250000 0.011868 0.811294
Si Si6 0.908638 0.332476 0.694047
Si Si7 0.589418 0.348417 0.015988
Si Si8 0.250000 0.671338 0.862894
O O1 0.378039 0.788756 0.418644
O O2 0.250000 0.631700 0.354556
O O3 0.250000 0.968645 0.356037
O O4 0.750000 0.340935 0.575242
O O5 0.916133 0.297351 0.640863
O O6 0.000000 0.500000 0.580477
O O7 0.999595 0.197519 0.559218
O O8 0.377682 0.717158 0.893573
O O9 0.500000 0.000000 0.915619
O O10 0.423189 0.793853 0.977711
O O11 0.378804 0.550996 0.281040
O O12 0.542138 0.663397 0.219219
O O13 0.250000 0.810301 0.823569
O O14 0.750000 0.366436 0.704923
O O15 0.000000 0.500000 0.703493
O O16 0.500000 0.500000 0.995335
O O17 0.750000 0.381980 0.024766
#
# Coordination Sequence:
#
# PCOD9365096 Si02
#       8
#     4   8   8   4   4   8   8   4
#     4  12  26  44  76  99 135 189 232 296 353 428
#     4  10  22  43  69 101 141 185 235 289 354 421
#     4  12  24  44  70  99 140 184 235 288 354 420
#     4  12  26  46  74 104 146 184 238 304 358 436
#     4  12  26  46  72 106 140 180 244 300 362 426
#     4  10  24  46  74 108 143 189 238 292 361 432
#     4  12  26  42  64 102 142 185 239 297 349 423
#     4  12  24  48  68 101 137 183 234 286 353 428
#
# _framework density 20.744942999999999
#
# number of rings (size 3 to 8) (size 9 to 14) (size 15 to 20)
#    0.000    0.667    3.333    4.000    4.667    2.000 
#    0.000    0.000    0.000    0.000    0.000    0.000 
#    0.000    0.000    0.000    0.000    0.000    0.000 
#
# Total GULP energy -134049.261642 kJ/mol
# GULP energy per Si atom -5585.385902 kJ/mol
# Density = 2.069773 g / cm^3
# Si number density = 20.744943 Si / 1000 Ang^3
#
#
#
# Elastic Constant Matrix: (Units=GPa)
#
#
# Indices 1 2 3 4 5 6 
#
# 1 211.2499 40.5983 53.6657 0.0000 0.0000 0.0000
# 2 40.5983 100.7158 34.1595 0.0000 0.0000 0.0000
# 3 53.6657 34.1595 61.3374 0.0000 0.0000 0.0000
# 4 0.0000 0.0000 0.0000 34.0962 0.0000 0.0000
# 5 0.0000 0.0000 0.0000 0.0000 19.9043 0.0000
# 6 0.0000 0.0000 0.0000 0.0000 0.0000 1.3654
#
#
#
# Elastic Compliance Matrix: (Units=1/GPa)
#
#
# Indices 1 2 3 4 5 6 
#
# 1 0.006139 -0.000805 -0.004923 0.000000 0.000000 0.000000
# 2 -0.000805 0.012347 -0.006172 0.000000 0.000000 0.000000
# 3 -0.004923 -0.006172 0.024048 0.000000 0.000000 0.000000
# 4 0.000000 0.000000 0.000000 0.029329 0.000000 0.000000
# 5 0.000000 0.000000 0.000000 0.000000 0.050240 0.000000
# 6 0.000000 0.000000 0.000000 0.000000 0.000000 0.732406
#
#
# Mechanical properties :
#
#
# Convention : Reuss Voigt Hill
#
# Bulk Modulus (GPa) = 53.37868 70.01668 61.69768
# Shear Modulus (GPa) = 5.65258 27.39849 16.52553
#
# Velocity S-wave (km/s) = 1.65249 3.63813 2.82548
# Velocity P-wave (km/s) = 5.42473 7.17443 6.36004
#
# Compressibility (1/GPa) = 0.01873407
#
# Stress axis : x y z
#
# Youngs Moduli (GPa) = 162.89198 80.99369 41.58430
#
# Poissons Ratio (x) = 0.06520 0.20472
# Poissons Ratio (y) = 0.13112 0.25665
# Poissons Ratio (z) = 0.80190 0.49987
#
# Static dielectric constant tensor:
#      x y z
#    x 1.706230 0.000000 0.000000 
#    y 0.000000 1.818700 0.000000 
#    z 0.000000 0.000000 1.713700 
# 
# From -- ./inp_files/26250.got.cif
#   From: 2010.05.17/outbox.cif.g08.bks.cpg/sg40_14_cif.got.tgz:26250.got - 2010.06.03 18:35:42.
