data_PCOD9365019
_publ_section_title
;
Structure prediction by ZEFSAII (Michael W. Deem and Ramdas Pophale) SiO2 
 PCOD9365019
Probable space group: A M A 2
;
_chemical_formula_sum "Si O2"
_cell_formula_units_Z 28
_cell_length_a 9.615525
_cell_length_b 17.286740
_cell_length_c 7.822996
_cell_angle_alpha 90.000000
_cell_angle_beta 90.000000
_cell_angle_gamma 90.000000
_cell_volume 1300.346849
_symmetry_space_group_name_H-M "A M A 2"
_symmetry_group_IT_number 40
_symmetry_cell_setting 'orthorhombic'
loop_
_space_group_symop_operation_xyz
x,y,z
-x,-y,z
1/2-x,y,z
1/2+x,-y,z
x,1/2+y,1/2+z
-x,1/2-y,1/2+z
1/2-x,1/2+y,1/2+z
1/2+x,1/2-y,1/2+z
loop_
_atom_site_type_symbol
_atom_site_label
_atom_site_fract_x
_atom_site_fract_y
_atom_site_fract_z
Si Si1 0.000000 0.000000 0.680001
Si Si2 0.093576 0.568474 0.515963
Si Si3 0.410186 0.294166 0.639658
Si Si4 0.905452 0.657314 0.034927
O O1 0.069342 0.932731 0.570989
O O2 0.901040 0.957029 0.817520
O O3 0.250000 0.574147 0.584467
O O4 0.000000 0.500000 0.598810
O O5 0.007128 0.646688 0.535499
O O6 0.250000 0.294757 0.580412
O O7 0.479271 0.210364 0.624169
O O8 0.412614 0.323336 0.834538
O O9 0.750000 0.678189 0.096557
#
# Coordination Sequence:
#
# PCOD9365019 Si02
#       4
#     4   8   8   8
#     4  10  24  40  68  98 130 172 212 268 316 388
#     4  10  22  41  67  95 128 169 211 263 320 380
#     4  11  25  43  67  97 130 172 218 267 324 383
#     4  11  25  45  66  95 132 173 218 267 322 384
#
# _framework density 21.532717000000002
#
# number of rings (size 3 to 8) (size 9 to 14) (size 15 to 20)
#    0.857    0.571    0.000    4.286    2.000    9.143 
#    0.000    0.000    0.000    0.000    0.000    0.000 
#    0.000    0.000    0.000    0.000    0.000    0.000 
#
# Total GULP energy -78173.579318 kJ/mol
# GULP energy per Si atom -5583.827094 kJ/mol
# Density = 2.148371 g / cm^3
# Si number density = 21.532717 Si / 1000 Ang^3
#
#
#
# Elastic Constant Matrix: (Units=GPa)
#
#
# Indices 1 2 3 4 5 6 
#
# 1 202.3630 73.7748 33.4641 0.0000 0.0000 0.0000
# 2 73.7748 145.0578 35.7384 0.0000 0.0000 0.0000
# 3 33.4641 35.7384 55.7713 0.0000 0.0000 0.0000
# 4 0.0000 0.0000 0.0000 44.4109 0.0000 0.0000
# 5 0.0000 0.0000 0.0000 0.0000 12.6071 0.0000
# 6 0.0000 0.0000 0.0000 0.0000 0.0000 18.6998
#
#
#
# Elastic Compliance Matrix: (Units=1/GPa)
#
#
# Indices 1 2 3 4 5 6 
#
# 1 0.006255 -0.002680 -0.002036 0.000000 0.000000 0.000000
# 2 -0.002680 0.009334 -0.004373 0.000000 0.000000 0.000000
# 3 -0.002036 -0.004373 0.021955 0.000000 0.000000 0.000000
# 4 0.000000 0.000000 0.000000 0.022517 0.000000 0.000000
# 5 0.000000 0.000000 0.000000 0.000000 0.079320 0.000000
# 6 0.000000 0.000000 0.000000 0.000000 0.000000 0.053477
#
#
# Mechanical properties :
#
#
# Convention : Reuss Voigt Hill
#
# Bulk Modulus (GPa) = 51.63839 76.57184 64.10512
# Shear Modulus (GPa) = 22.98938 32.49121 27.74029
#
# Velocity S-wave (km/s) = 3.27103 3.88870 3.59316
# Velocity P-wave (km/s) = 6.18867 7.46998 6.85931
#
# Compressibility (1/GPa) = 0.01936544
#
# Stress axis : x y z
#
# Youngs Moduli (GPa) = 159.86556 107.13310 45.54842
#
# Poissons Ratio (x) = 0.28709 0.09274
# Poissons Ratio (y) = 0.42839 0.19921
# Poissons Ratio (z) = 0.32551 0.46855
#
# Static dielectric constant tensor:
#      x y z
#    x 1.776850 0.000000 0.000000 
#    y 0.000000 1.790090 0.000000 
#    z 0.000000 0.000000 1.799070 
# 
# From -- ./inp_files/3942.got.cif
#   From: 2010.05.17/outbox.cif.g08.bks.cpg/sg40_2_cif.got.tgz:3942.got - 2010.06.03 18:35:42.
