data_PCOD9365655
_publ_section_title
;
Structure prediction by ZEFSAII (Michael W. Deem and Ramdas Pophale) SiO2 
 PCOD9365655
Probable space group: A M A 2
;
_chemical_formula_sum "Si O2"
_cell_formula_units_Z 32
_cell_length_a 9.000000
_cell_length_b 21.000000
_cell_length_c 18.000000
_cell_angle_alpha 90.000000
_cell_angle_beta 90.000000
_cell_angle_gamma 90.000000
_cell_volume 3402.000000
_symmetry_space_group_name_H-M "A M A 2"
_symmetry_group_IT_number 40
_symmetry_cell_setting 'orthorhombic'
loop_
_space_group_symop_operation_xyz
x,y,z
-x,-y,z
1/2-x,y,z
1/2+x,-y,z
x,1/2+y,1/2+z
-x,1/2-y,1/2+z
1/2-x,1/2+y,1/2+z
1/2+x,1/2-y,1/2+z
loop_
_atom_site_type_symbol
_atom_site_label
_atom_site_fract_x
_atom_site_fract_y
_atom_site_fract_z
Si Si1 0.581217 0.319199 0.250000
Si Si2 0.570842 0.809773 0.259514
Si Si3 0.579024 0.936691 0.336141
Si Si4 0.926363 0.065177 0.820923
Si Si5 0.578464 0.437068 0.014638
Si Si6 0.926277 0.319022 0.585608
Si Si7 0.571048 0.934481 0.981936
Si Si8 0.080983 0.192589 0.572136
O O1 0.750000 0.330732 0.275981
O O2 0.513500 0.254177 0.281696
O O3 0.474585 0.376801 0.270021
O O4 0.584717 0.311705 0.161147
O O5 0.750000 0.801303 0.267524
O O6 0.518952 0.870444 0.305905
O O7 0.537619 0.823163 0.172835
O O8 0.750000 0.939665 0.312587
O O9 0.573877 0.936785 0.425378
O O10 0.500000 0.000000 0.308569
O O11 0.750000 0.058397 0.827332
O O12 0.999688 0.077457 0.901437
O O13 0.000000 0.000000 0.792802
O O14 0.500000 0.500000 0.042718
O O15 0.750000 0.438601 0.038751
O O16 0.509083 0.371727 0.042460
O O17 0.750000 0.313023 0.581020
O O18 0.971071 0.379916 0.539160
O O19 0.998059 0.256326 0.551784
O O20 0.750000 0.938844 0.975657
O O21 0.500000 0.000000 0.008687
O O22 0.250000 0.195855 0.543694
#
# Coordination Sequence:
#
# PCOD9365655 Si02
#       8
#     8   8   8   8   8   8   8   8
#     4  10  20  35  53  76 104 134 169 212 256 303
#     4   9  18  34  52  74 104 139 174 209 251 301
#     4   9  18  32  51  73 101 133 168 208 249 294
#     4  11  22  37  56  77 102 134 169 211 259 312
#     4   9  18  33  50  72  99 129 164 203 244 290
#     4   9  19  34  52  74 103 135 170 210 252 297
#     4  10  20  35  53  76 104 135 171 214 259 307
#     4   9  19  34  52  74 103 135 170 209 250 298
#
# _framework density 9.4062319999999993
#
# number of rings (size 3 to 8) (size 9 to 14) (size 15 to 20)
#    0.000    2.500    0.000    2.625    0.000    4.500 
#    0.000    2.500    0.000    0.000    0.000    0.000 
#    0.000    0.000    0.000    0.000    0.000    0.000 
#
# Total GULP energy -178358.018006 kJ/mol
# GULP energy per Si atom -5573.688063 kJ/mol
# Density = 0.938482 g / cm^3
# Si number density = 9.406232 Si / 1000 Ang^3
#
#
#
# Elastic Constant Matrix: (Units=GPa)
#
#
# Indices 1 2 3 4 5 6 
#
# 1 37.7577 37.6894 19.9990 0.0000 0.0000 0.0000
# 2 37.6894 20.9266 21.0885 0.0000 0.0000 0.0000
# 3 19.9990 21.0885 -11.8827 0.0000 0.0000 0.0000
# 4 0.0000 0.0000 0.0000 31.5153 0.0000 0.0000
# 5 0.0000 0.0000 0.0000 0.0000 20.5946 0.0000
# 6 0.0000 0.0000 0.0000 0.0000 0.0000 32.3912
#
#
#
# Elastic Compliance Matrix: (Units=1/GPa)
#
#
# Indices 1 2 3 4 5 6 
#
# 1 -0.049109 0.061588 0.026651 0.000000 0.000000 0.000000
# 2 0.061588 -0.060103 -0.003010 0.000000 0.000000 0.000000
# 3 0.026651 -0.003010 -0.044644 0.000000 0.000000 0.000000
# 4 0.000000 0.000000 0.000000 0.031731 0.000000 0.000000
# 5 0.000000 0.000000 0.000000 0.000000 0.048556 0.000000
# 6 0.000000 0.000000 0.000000 0.000000 0.000000 0.030873
#
#
# Mechanical properties :
#
#
# Convention : Reuss Voigt Hill
#
# Bulk Modulus (GPa) = 60.22806 22.70615 41.46710
# Shear Modulus (GPa) = -24.08250 14.76853 -4.65698
#
# Velocity S-wave (km/s) = -3.58178 2.80490 -1.57507
# Velocity P-wave (km/s) = 3.87027 4.75246 4.33387
#
# Compressibility (1/GPa) = 0.01660356
#
# Stress axis : x y z
#
# Youngs Moduli (GPa) = -20.36302 -16.63819 -22.39953
#
# Poissons Ratio (x) = 1.02472 0.59697
# Poissons Ratio (y) = 1.25413 -0.06743
# Poissons Ratio (z) = 0.54270 -0.05009
#
# Static dielectric constant tensor:
#      x y z
#    x 1.645060 0.000000 0.000000 
#    y 0.000000 1.676720 0.000000 
#    z 0.000000 0.000000 1.643070 
# 
# From -- ./inp_files/19590.got.cif
#   From: 2010.05.17/outbox.ucp.g08.bks.cvg/sg40_10_cif.got.tgz:19590.got - 2010.06.11 16:26:39.
