data_PCOD9365901
_publ_section_title
;
Structure prediction by ZEFSAII (Michael W. Deem and Ramdas Pophale) SiO2 
 PCOD9365901
Probable space group: A B A 2
;
_chemical_formula_sum "Si O2"
_cell_formula_units_Z 64
_cell_length_a 23.255636
_cell_length_b 27.545198
_cell_length_c 5.507651
_cell_angle_alpha 90.000000
_cell_angle_beta 90.000000
_cell_angle_gamma 90.000000
_cell_volume 3528.097126
_symmetry_space_group_name_H-M "A B A 2"
_symmetry_group_IT_number 41
_symmetry_cell_setting 'orthorhombic'
loop_
_space_group_symop_operation_xyz
x,y,z
-x,-y,z
1/2-x,y,1/2+z
1/2+x,-y,1/2+z
x,1/2+y,1/2+z
-x,1/2-y,1/2+z
1/2-x,1/2+y,z
1/2+x,1/2-y,z
loop_
_atom_site_type_symbol
_atom_site_label
_atom_site_fract_x
_atom_site_fract_y
_atom_site_fract_z
Si Si1 0.971403 0.232981 0.899070
Si Si2 0.430590 0.003378 0.785187
Si Si3 0.507972 0.368871 0.719860
Si Si4 0.265877 0.557495 0.001751
Si Si5 0.398204 0.681329 0.408122
Si Si6 0.557372 0.033739 0.273673
Si Si7 0.610420 0.402024 0.057133
Si Si8 0.778359 0.833601 0.582915
O O1 0.912292 0.262541 0.863549
O O2 0.008979 0.254723 0.674027
O O3 0.977461 0.175596 0.859699
O O4 0.414985 0.973455 0.540234
O O5 0.500000 0.000000 0.803010
O O6 0.413681 0.059066 0.748640
O O7 0.407237 0.985700 0.043627
O O8 0.541983 0.343985 0.495241
O O9 0.463167 0.412580 0.697634
O O10 0.560280 0.392919 0.867712
O O11 0.258950 0.532244 0.263144
O O12 0.331632 0.573493 0.964100
O O13 0.231863 0.608380 0.049326
O O14 0.377445 0.649518 0.181304
O O15 0.346269 0.676189 0.596719
O O16 0.500000 0.000000 0.293477
O O17 0.752432 0.814949 0.326688
#
# Coordination Sequence:
#
# PCOD9365901 Si02
#       8
#     8   8   8   8   8   8   8   8
#     4  10  22  34  47  73 103 134 181 203 238 311
#     4  10  20  32  45  74  94 127 174 207 236 309
#     4  11  21  33  51  72 102 149 170 210 250 299
#     4  10  20  32  45  73  98 128 167 203 240 311
#     4  11  21  32  52  71 104 141 171 199 259 302
#     4  10  19  33  46  67 100 125 172 210 237 287
#     4  12  20  31  56  68 103 147 161 203 269 292
#     4  10  19  33  47  70  99 127 163 213 243 299
#
# _framework density 18.140091000000002
#
# number of rings (size 3 to 8) (size 9 to 14) (size 15 to 20)
#    0.000    1.500    6.250    3.000    0.000    0.000 
#    0.000    0.000    0.000    0.000    0.000    0.000 
#    0.000    6.000    0.000    0.000    0.000    0.000 
#
# Total GULP energy -178218.239459 kJ/mol
# GULP energy per Si atom -5569.319983 kJ/mol
# Density = 1.809880 g / cm^3
# Si number density = 18.140091 Si / 1000 Ang^3
#
#
#
# Elastic Constant Matrix: (Units=GPa)
#
#
# Indices 1 2 3 4 5 6 
#
# 1 35.3326 15.8781 1.2902 0.0000 0.0000 0.0000
# 2 15.8781 45.4435 4.8601 0.0000 0.0000 0.0000
# 3 1.2902 4.8601 115.9156 0.0000 0.0000 0.0000
# 4 0.0000 0.0000 0.0000 16.7666 0.0000 0.0000
# 5 0.0000 0.0000 0.0000 0.0000 -15.6079 0.0000
# 6 0.0000 0.0000 0.0000 0.0000 0.0000 1.9121
#
#
#
# Elastic Compliance Matrix: (Units=1/GPa)
#
#
# Indices 1 2 3 4 5 6 
#
# 1 0.033576 -0.011744 0.000119 0.000000 0.000000 0.000000
# 2 -0.011744 0.026212 -0.000968 0.000000 0.000000 0.000000
# 3 0.000119 -0.000968 0.008666 0.000000 0.000000 0.000000
# 4 0.000000 0.000000 0.000000 0.059643 0.000000 0.000000
# 5 0.000000 0.000000 0.000000 0.000000 -0.064070 0.000000
# 6 0.000000 0.000000 0.000000 0.000000 0.000000 0.522997
#
#
# Mechanical properties :
#
#
# Convention : Reuss Voigt Hill
#
# Bulk Modulus (GPa) = 23.11239 26.74983 24.93111
# Shear Modulus (GPa) = 7.97914 12.25836 10.11875
#
# Velocity S-wave (km/s) = 2.09956 2.60236 2.36437
# Velocity P-wave (km/s) = 4.31813 4.87934 4.60729
#
# Compressibility (1/GPa) = 0.04326683
#
# Stress axis : x y z
#
# Youngs Moduli (GPa) = 29.78326 38.14986 115.39025
#
# Poissons Ratio (x) = 0.44804 -0.01370
# Poissons Ratio (y) = 0.34978 0.11173
# Poissons Ratio (z) = -0.00354 0.03694
#
# Static dielectric constant tensor:
#      x y z
#    x 1.652490 0.000000 0.000000 
#    y 0.000000 1.673170 0.000000 
#    z 0.000000 0.000000 1.774980 
# 
# From -- ./inp_files/1044.got.cif
#   From: 2010.05.17/outbox.cif.g08.bks.cpg/sg41_1_cif.got.tgz:1044.got - 2010.06.03 18:54:24.
