data_PCOD9365281
_publ_section_title
;
Structure prediction by ZEFSAII (Michael W. Deem and Ramdas Pophale) SiO2 
 PCOD9365281
Probable space group: A M A 2
;
_chemical_formula_sum "Si O2"
_cell_formula_units_Z 64
_cell_length_a 30.593597
_cell_length_b 5.165418
_cell_length_c 18.934001
_cell_angle_alpha 90.000000
_cell_angle_beta 90.000000
_cell_angle_gamma 90.000000
_cell_volume 2992.115879
_symmetry_space_group_name_H-M "A M A 2"
_symmetry_group_IT_number 40
_symmetry_cell_setting 'orthorhombic'
loop_
_space_group_symop_operation_xyz
x,y,z
-x,-y,z
1/2-x,y,z
1/2+x,-y,z
x,1/2+y,1/2+z
-x,1/2-y,1/2+z
1/2-x,1/2+y,1/2+z
1/2+x,1/2-y,1/2+z
loop_
_atom_site_type_symbol
_atom_site_label
_atom_site_fract_x
_atom_site_fract_y
_atom_site_fract_z
Si Si1 0.042955 0.172136 0.091710
Si Si2 0.570844 0.589608 0.948524
Si Si3 0.372416 0.408879 0.447209
Si Si4 0.663040 0.155603 0.794041
Si Si5 0.913366 0.529648 0.201525
Si Si6 0.367563 0.836722 0.101278
Si Si7 0.971889 0.738468 0.800933
Si Si8 0.800335 0.134108 0.222435
O O1 0.046161 0.339340 0.162597
O O2 0.087536 0.001668 0.096510
O O3 0.046255 0.347694 0.021508
O O4 0.000000 0.000000 0.088295
O O5 0.586933 0.294139 0.943960
O O6 0.544183 0.661678 0.878884
O O7 0.610976 0.795192 0.948569
O O8 0.344878 0.369182 0.376880
O O9 0.350534 0.333385 0.521475
O O10 0.616008 0.196098 0.754940
O O11 0.693391 0.394638 0.774948
O O12 0.681660 0.892041 0.760344
O O13 0.883407 0.431406 0.136628
O O14 0.931407 0.297177 0.249413
O O15 0.330529 0.930326 0.154820
O O16 0.000000 0.500000 0.773996
O O17 0.000000 0.000000 0.806236
O O18 0.750000 0.169557 0.202889
#
# Coordination Sequence:
#
# PCOD9365281 Si02
#       8
#     8   8   8   8   8   8   8   8
#     4  11  24  41  67  95 142 185 239 290 339 406
#     4  11  23  44  62  93 130 186 231 288 343 402
#     4  11  22  42  70  97 129 178 231 277 338 415
#     4  11  23  43  75 100 136 177 227 282 348 417
#     4  11  24  43  62  97 130 181 230 288 341 406
#     4  10  24  42  67  98 136 184 229 278 348 413
#     4  12  28  41  62  89 134 179 236 291 347 399
#     4  11  24  45  73 108 142 176 221 285 359 431
#
# _framework density 21.389544000000001
#
# number of rings (size 3 to 8) (size 9 to 14) (size 15 to 20)
#    0.000    1.000    3.750    2.250    5.250    1.000 
#    0.000    1.250    0.000    0.000    0.000    0.000 
#    0.000    0.000    0.000    0.000    0.000    0.000 
#
# Total GULP energy -179046.151909 kJ/mol
# GULP energy per Si atom -5595.192247 kJ/mol
# Density = 2.134086 g / cm^3
# Si number density = 21.389544 Si / 1000 Ang^3
#
#
#
# Elastic Constant Matrix: (Units=GPa)
#
#
# Indices 1 2 3 4 5 6 
#
# 1 93.5901 16.1338 47.1617 0.0000 0.0000 0.0000
# 2 16.1338 69.6697 12.6204 0.0000 0.0000 0.0000
# 3 47.1617 12.6204 152.0375 0.0000 0.0000 0.0000
# 4 0.0000 0.0000 0.0000 23.9377 0.0000 0.0000
# 5 0.0000 0.0000 0.0000 0.0000 18.7201 0.0000
# 6 0.0000 0.0000 0.0000 0.0000 0.0000 -43.6887
#
#
#
# Elastic Compliance Matrix: (Units=1/GPa)
#
#
# Indices 1 2 3 4 5 6 
#
# 1 0.013023 -0.002319 -0.003847 0.000000 0.000000 0.000000
# 2 -0.002319 0.014985 -0.000525 0.000000 0.000000 0.000000
# 3 -0.003847 -0.000525 0.007814 0.000000 0.000000 0.000000
# 4 0.000000 0.000000 0.000000 0.041775 0.000000 0.000000
# 5 0.000000 0.000000 0.000000 0.000000 0.053418 0.000000
# 6 0.000000 0.000000 0.000000 0.000000 0.000000 -0.022889
#
#
# Mechanical properties :
#
#
# Convention : Reuss Voigt Hill
#
# Bulk Modulus (GPa) = 44.56048 51.90323 48.23186
# Shear Modulus (GPa) = 38.76273 15.75257 27.25765
#
# Velocity S-wave (km/s) = 4.26165 2.71673 3.57367
# Velocity P-wave (km/s) = 6.71517 5.84459 6.29495
#
# Compressibility (1/GPa) = 0.02244141
#
# Stress axis : x y z
#
# Youngs Moduli (GPa) = 76.78486 66.73129 127.97039
#
# Poissons Ratio (x) = 0.15475 0.49235
# Poissons Ratio (y) = 0.17806 0.06713
# Poissons Ratio (z) = 0.29542 0.03501
#
# Static dielectric constant tensor:
#      x y z
#    x 1.774140 0.000000 0.000000 
#    y 0.000000 1.810310 0.000000 
#    z 0.000000 0.000000 1.781170 
# 
# From -- ./inp_files/21681.got.cif
#   From: 2010.05.17/outbox.cif.g08.bks.cpg/sg40_11_cif.got.tgz:21681.got - 2010.06.03 18:35:42.
