data_PCOD9365788
_publ_section_title
;
Structure prediction by ZEFSAII (Michael W. Deem and Ramdas Pophale) SiO2 
 PCOD9365788
Probable space group: A B A 2
;
_chemical_formula_sum "Si O2"
_cell_formula_units_Z 56
_cell_length_a 5.359003
_cell_length_b 14.026578
_cell_length_c 32.122547
_cell_angle_alpha 90.000000
_cell_angle_beta 90.000000
_cell_angle_gamma 90.000000
_cell_volume 2414.602826
_symmetry_space_group_name_H-M "A B A 2"
_symmetry_group_IT_number 41
_symmetry_cell_setting 'orthorhombic'
loop_
_space_group_symop_operation_xyz
x,y,z
-x,-y,z
1/2-x,y,1/2+z
1/2+x,-y,1/2+z
x,1/2+y,1/2+z
-x,1/2-y,1/2+z
1/2-x,1/2+y,z
1/2+x,1/2-y,z
loop_
_atom_site_type_symbol
_atom_site_label
_atom_site_fract_x
_atom_site_fract_y
_atom_site_fract_z
Si Si1 0.001151 0.114357 0.585480
Si Si2 0.593870 0.866391 0.904913
Si Si3 0.996244 0.384521 0.278252
Si Si4 0.539683 0.190565 0.992414
Si Si5 0.496346 0.884239 0.728789
Si Si6 0.000619 0.383670 0.633924
Si Si7 0.594307 0.649471 0.871774
O O1 0.990963 0.147239 0.537977
O O2 0.256238 0.144368 0.608016
O O3 0.755099 0.144240 0.610820
O O4 0.000000 0.000000 0.585546
O O5 0.620498 0.753275 0.893297
O O6 0.363026 0.899114 0.876821
O O7 0.866664 0.902987 0.894345
O O8 0.516679 0.876129 0.952842
O O9 0.236165 0.358963 0.250544
O O10 0.022038 0.340039 0.323766
O O11 0.000000 0.500000 0.283645
O O12 0.739049 0.358169 0.255593
O O13 0.820718 0.230126 0.988798
O O14 0.509706 0.848756 0.681397
O O15 0.500000 0.000000 0.726749
O O16 0.000000 0.500000 0.635435
#
# Coordination Sequence:
#
# PCOD9365788 Si02
#       7
#     8   8   8   8   8   8   8
#     4  10  21  35  56  88 115 141 184 237 281 317
#     4  10  19  35  55  71  95 130 190 218 247 319
#     4  10  19  30  48  81 113 135 170 221 274 314
#     4  12  21  38  60  84 108 146 195 228 270 341
#     4   9  17  30  50  77 109 144 176 210 260 329
#     4   9  17  33  54  80 113 145 181 221 271 332
#     4  10  18  33  52  75  97 131 175 227 249 308
#
# _framework density 23.192219999999999
#
# number of rings (size 3 to 8) (size 9 to 14) (size 15 to 20)
#    0.000    2.000    2.857    2.571    0.000    3.429 
#    0.000    1.429    0.000    0.000   74.286    0.000 
#    0.000    0.000    0.000    0.000    0.000    0.000 
#
# Total GULP energy -156651.586511 kJ/mol
# GULP energy per Si atom -5594.699518 kJ/mol
# Density = 2.313943 g / cm^3
# Si number density = 23.192220 Si / 1000 Ang^3
#
#
#
# Elastic Constant Matrix: (Units=GPa)
#
#
# Indices 1 2 3 4 5 6 
#
# 1 164.8399 -0.3453 49.4161 0.0000 0.0000 0.0000
# 2 -0.3453 79.9401 2.8822 0.0000 0.0000 0.0000
# 3 49.4161 2.8822 192.1629 0.0000 0.0000 0.0000
# 4 0.0000 0.0000 0.0000 17.1567 0.0000 0.0000
# 5 0.0000 0.0000 0.0000 0.0000 38.4547 0.0000
# 6 0.0000 0.0000 0.0000 0.0000 0.0000 -16.8500
#
#
#
# Elastic Compliance Matrix: (Units=1/GPa)
#
#
# Indices 1 2 3 4 5 6 
#
# 1 0.006574 0.000089 -0.001692 0.000000 0.000000 0.000000
# 2 0.000089 0.012517 -0.000211 0.000000 0.000000 0.000000
# 3 -0.001692 -0.000211 0.005642 0.000000 0.000000 0.000000
# 4 0.000000 0.000000 0.000000 0.058286 0.000000 0.000000
# 5 0.000000 0.000000 0.000000 0.000000 0.026005 0.000000
# 6 0.000000 0.000000 0.000000 0.000000 0.000000 -0.059347
#
#
# Mechanical properties :
#
#
# Convention : Reuss Voigt Hill
#
# Bulk Modulus (GPa) = 47.37772 60.09433 53.73603
# Shear Modulus (GPa) = 82.86486 33.41827 58.14157
#
# Velocity S-wave (km/s) = 5.98391 3.80007 5.01237
# Velocity P-wave (km/s) = 8.25927 6.72471 7.53118
#
# Compressibility (1/GPa) = 0.02110697
#
# Stress axis : x y z
#
# Youngs Moduli (GPa) = 152.11744 79.88916 177.23728
#
# Poissons Ratio (x) = -0.00714 0.29986
# Poissons Ratio (y) = -0.01360 0.03735
# Poissons Ratio (z) = 0.25736 0.01684
#
# Static dielectric constant tensor:
#      x y z
#    x 1.907990 0.000000 0.000000 
#    y 0.000000 1.989570 0.000000 
#    z 0.000000 0.000000 1.797620 
# 
# From -- ./inp_files/11870.got.cif
#   From: 2010.05.17/outbox.cif.g08.bks.cpg/sg41_6_cif.got.tgz:11870.got - 2010.06.03 18:54:24.
