data_PCOD9365215
_publ_section_title
;
Structure prediction by ZEFSAII (Michael W. Deem and Ramdas Pophale) SiO2 
 PCOD9365215
Probable space group: A M A 2
;
_chemical_formula_sum "Si O2"
_cell_formula_units_Z 52
_cell_length_a 16.912699
_cell_length_b 7.685898
_cell_length_c 19.428030
_cell_angle_alpha 90.000000
_cell_angle_beta 90.000000
_cell_angle_gamma 90.000000
_cell_volume 2525.435620
_symmetry_space_group_name_H-M "A M A 2"
_symmetry_group_IT_number 40
_symmetry_cell_setting 'orthorhombic'
loop_
_space_group_symop_operation_xyz
x,y,z
-x,-y,z
1/2-x,y,z
1/2+x,-y,z
x,1/2+y,1/2+z
-x,1/2-y,1/2+z
1/2-x,1/2+y,1/2+z
1/2+x,1/2-y,1/2+z
loop_
_atom_site_type_symbol
_atom_site_label
_atom_site_fract_x
_atom_site_fract_y
_atom_site_fract_z
Si Si1 0.000000 0.500000 0.527360
Si Si2 0.341965 0.941638 0.830681
Si Si3 0.339610 0.092212 0.241638
Si Si4 0.085525 0.794446 0.327353
Si Si5 0.160410 0.914032 0.465972
Si Si6 0.056526 0.736253 0.926812
Si Si7 0.839388 0.385412 0.580120
O O1 0.999798 0.330409 0.479952
O O2 0.084004 0.497243 0.564983
O O3 0.250000 0.989725 0.835938
O O4 0.347541 0.768988 0.784524
O O5 0.378727 0.877538 0.902896
O O6 0.393978 0.100586 0.802419
O O7 0.250000 0.025269 0.252880
O O8 0.346102 0.143175 0.161871
O O9 0.396043 0.941357 0.271104
O O10 0.144006 0.819492 0.393072
O O11 0.998506 0.803739 0.360876
O O12 0.250000 0.983893 0.465005
O O13 0.154835 0.785651 0.531435
O O14 0.098171 0.071463 0.460758
O O15 0.750000 0.456845 0.567210
#
# Coordination Sequence:
#
# PCOD9365215 Si02
#       7
#     4   8   8   8   8   8   8
#     4  12  24  42  66  94 136 180 216 284 346 406
#     4  11  22  38  64  95 130 170 220 277 339 409
#     4  10  23  43  66  96 134 178 228 284 338 409
#     4  12  22  39  68  97 131 169 217 280 345 398
#     4  11  22  40  68  92 125 177 222 279 346 403
#     4  12  23  39  62 100 134 165 225 285 340 406
#     4  10  24  45  65  93 135 181 233 284 344 416
#
# _framework density 20.590506000000001
#
# number of rings (size 3 to 8) (size 9 to 14) (size 15 to 20)
#    0.000    0.923    4.615    2.308    0.000    3.692 
#    2.769    0.000    0.000    0.000    0.000    0.000 
#    0.000    0.000    0.000    0.000    0.000    0.000 
#
# Total GULP energy -145123.852976 kJ/mol
# GULP energy per Si atom -5581.686653 kJ/mol
# Density = 2.054364 g / cm^3
# Si number density = 20.590506 Si / 1000 Ang^3
#
#
#
# Elastic Constant Matrix: (Units=GPa)
#
#
# Indices 1 2 3 4 5 6 
#
# 1 140.0218 30.2796 35.4558 0.0000 0.0000 0.0000
# 2 30.2796 68.0015 4.3080 0.0000 0.0000 0.0000
# 3 35.4558 4.3080 68.2063 0.0000 0.0000 0.0000
# 4 0.0000 0.0000 0.0000 19.0950 0.0000 0.0000
# 5 0.0000 0.0000 0.0000 0.0000 30.6410 0.0000
# 6 0.0000 0.0000 0.0000 0.0000 0.0000 40.3904
#
#
#
# Elastic Compliance Matrix: (Units=1/GPa)
#
#
# Indices 1 2 3 4 5 6 
#
# 1 0.009092 -0.003764 -0.004489 0.000000 0.000000 0.000000
# 2 -0.003764 0.016323 0.000926 0.000000 0.000000 0.000000
# 3 -0.004489 0.000926 0.016936 0.000000 0.000000 0.000000
# 4 0.000000 0.000000 0.000000 0.052370 0.000000 0.000000
# 5 0.000000 0.000000 0.000000 0.000000 0.032636 0.000000
# 6 0.000000 0.000000 0.000000 0.000000 0.000000 0.024758
#
#
# Mechanical properties :
#
#
# Convention : Reuss Voigt Hill
#
# Bulk Modulus (GPa) = 36.10461 46.25738 41.18099
# Shear Modulus (GPa) = 28.40865 31.77103 30.08984
#
# Velocity S-wave (km/s) = 3.71846 3.93236 3.82690
# Velocity P-wave (km/s) = 6.00071 6.56750 6.29049
#
# Compressibility (1/GPa) = 0.02769730
#
# Stress axis : x y z
#
# Youngs Moduli (GPa) = 109.98214 61.26308 59.04473
#
# Poissons Ratio (x) = 0.23061 0.26504
# Poissons Ratio (y) = 0.41400 -0.05466
# Poissons Ratio (z) = 0.49368 -0.05672
#
# Static dielectric constant tensor:
#      x y z
#    x 1.795550 0.000000 0.000000 
#    y 0.000000 1.765350 0.000000 
#    z 0.000000 0.000000 1.742900 
# 
# From -- ./inp_files/21092.got.cif
#   From: 2010.05.17/outbox.cif.g08.bks.cpg/sg40_11_cif.got.tgz:21092.got - 2010.06.03 18:35:42.
