data_PCOD9365905
_publ_section_title
;
Structure prediction by ZEFSAII (Michael W. Deem and Ramdas Pophale) SiO2 
 PCOD9365905
Probable space group: A B A 2
;
_chemical_formula_sum "Si O2"
_cell_formula_units_Z 52
_cell_length_a 13.402168
_cell_length_b 9.021587
_cell_length_c 20.150183
_cell_angle_alpha 90.000000
_cell_angle_beta 90.000000
_cell_angle_gamma 90.000000
_cell_volume 2436.334942
_symmetry_space_group_name_H-M "A B A 2"
_symmetry_group_IT_number 41
_symmetry_cell_setting 'orthorhombic'
loop_
_space_group_symop_operation_xyz
x,y,z
-x,-y,z
1/2-x,y,1/2+z
1/2+x,-y,1/2+z
x,1/2+y,1/2+z
-x,1/2-y,1/2+z
1/2-x,1/2+y,z
1/2+x,1/2-y,z
loop_
_atom_site_type_symbol
_atom_site_label
_atom_site_fract_x
_atom_site_fract_y
_atom_site_fract_z
Si Si1 0.665161 0.840659 0.371760
Si Si2 0.322611 0.556960 0.480330
Si Si3 0.000000 0.500000 0.429301
Si Si4 0.150754 0.367778 0.533635
Si Si5 0.000000 0.000000 0.139313
Si Si6 0.254306 0.403903 0.781124
Si Si7 0.000000 0.500000 0.877854
Si Si8 0.897062 0.356696 0.750490
O O1 0.743871 0.859286 0.431290
O O2 0.552278 0.863402 0.393095
O O3 0.688115 0.695493 0.330429
O O4 0.684943 0.979880 0.324482
O O5 0.261656 0.432370 0.521141
O O6 0.355805 0.689737 0.529471
O O7 0.408278 0.490403 0.432027
O O8 0.912411 0.572637 0.471274
O O9 0.091647 0.444395 0.594050
O O10 0.971427 0.867493 0.189336
O O11 0.179105 0.505057 0.739901
O O12 0.331489 0.290751 0.749045
O O13 0.950089 0.387447 0.821906
#
# Coordination Sequence:
#
# PCOD9365905 Si02
#       8
#     8   8   4   8   4   8   4   8
#     4  10  19  33  54  88 135 154 198 250 330 407
#     4  11  22  37  62  95 127 167 207 277 329 398
#     4   9  20  29  54  84 113 164 191 254 304 379
#     4  10  24  41  61  86 125 172 220 267 323 371
#     4  10  24  48  62  90 124 179 237 264 312 400
#     4  10  19  36  56  94 125 168 196 256 334 386
#     4  11  22  33  62 100 135 157 210 256 350 401
#     4  10  23  38  66  91 131 174 211 270 326 396
#
# _framework density 21.343533999999998
#
# number of rings (size 3 to 8) (size 9 to 14) (size 15 to 20)
#    0.000    1.846    3.077    1.846    2.154    4.923 
#    0.000    0.000    0.000    3.692    0.000    0.000 
#    0.000    0.000    0.000    0.000    0.000    0.000 
#
# Total GULP energy -144980.115367 kJ/mol
# GULP energy per Si atom -5576.158283 kJ/mol
# Density = 2.129496 g / cm^3
# Si number density = 21.343534 Si / 1000 Ang^3
#
#
#
# Elastic Constant Matrix: (Units=GPa)
#
#
# Indices 1 2 3 4 5 6 
#
# 1 99.8351 29.4449 46.9125 0.0000 0.0000 0.0000
# 2 29.4449 105.2915 21.8656 0.0000 0.0000 0.0000
# 3 46.9125 21.8656 84.6979 0.0000 0.0000 0.0000
# 4 0.0000 0.0000 0.0000 6.1005 0.0000 0.0000
# 5 0.0000 0.0000 0.0000 0.0000 -0.3520 0.0000
# 6 0.0000 0.0000 0.0000 0.0000 0.0000 21.5798
#
#
#
# Elastic Compliance Matrix: (Units=1/GPa)
#
#
# Indices 1 2 3 4 5 6 
#
# 1 0.014117 -0.002456 -0.007185 0.000000 0.000000 0.000000
# 2 -0.002456 0.010463 -0.001341 0.000000 0.000000 0.000000
# 3 -0.007185 -0.001341 0.016133 0.000000 0.000000 0.000000
# 4 0.000000 0.000000 0.000000 0.163920 0.000000 0.000000
# 5 0.000000 0.000000 0.000000 0.000000 -2.841085 0.000000
# 6 0.000000 0.000000 0.000000 0.000000 0.000000 0.046340
#
#
# Mechanical properties :
#
#
# Convention : Reuss Voigt Hill
#
# Bulk Modulus (GPa) = 53.33697 54.03006 53.68352
# Shear Modulus (GPa) = -1.95168 18.23912 8.14372
#
# Velocity S-wave (km/s) = -0.95729 2.92644 1.95546
# Velocity P-wave (km/s) = 4.88079 6.06533 5.50501
#
# Compressibility (1/GPa) = 0.01874872
#
# Stress axis : x y z
#
# Youngs Moduli (GPa) = 70.83589 95.57819 61.98638
#
# Poissons Ratio (x) = 0.23471 0.44539
# Poissons Ratio (y) = 0.17395 0.08311
# Poissons Ratio (z) = 0.50897 0.12816
#
# Static dielectric constant tensor:
#      x y z
#    x 1.958260 0.000000 0.000000 
#    y 0.000000 1.835520 0.000000 
#    z 0.000000 0.000000 1.783300 
# 
# From -- ./inp_files/11537.got.cif
#   From: 2010.05.17/outbox.cif.g08.bks.cpg/sg41_6_cif.got.tgz:11537.got - 2010.06.03 18:54:24.
