data_PCOD9365213
_publ_section_title
;
Structure prediction by ZEFSAII (Michael W. Deem and Ramdas Pophale) SiO2 
 PCOD9365213
Probable space group: A M A 2
;
_chemical_formula_sum "Si O2"
_cell_formula_units_Z 64
_cell_length_a 25.141271
_cell_length_b 10.853997
_cell_length_c 11.305635
_cell_angle_alpha 90.000000
_cell_angle_beta 90.000000
_cell_angle_gamma 90.000000
_cell_volume 3085.118761
_symmetry_space_group_name_H-M "A M A 2"
_symmetry_group_IT_number 40
_symmetry_cell_setting 'orthorhombic'
loop_
_space_group_symop_operation_xyz
x,y,z
-x,-y,z
1/2-x,y,z
1/2+x,-y,z
x,1/2+y,1/2+z
-x,1/2-y,1/2+z
1/2-x,1/2+y,1/2+z
1/2+x,1/2-y,1/2+z
loop_
_atom_site_type_symbol
_atom_site_label
_atom_site_fract_x
_atom_site_fract_y
_atom_site_fract_z
Si Si1 0.057479 0.965222 0.191640
Si Si2 0.921705 0.699478 0.344978
Si Si3 0.189929 0.704791 0.479158
Si Si4 0.691436 0.292570 0.766598
Si Si5 0.581942 0.926155 0.943728
Si Si6 0.027658 0.200079 0.734539
Si Si7 0.650320 0.533095 0.884958
Si Si8 0.944812 0.932414 0.514622
O O1 0.050928 0.820381 0.171932
O O2 0.107110 0.967614 0.278762
O O3 0.000000 0.000000 0.242502
O O4 0.066450 0.053846 0.080387
O O5 0.860841 0.721076 0.309152
O O6 0.927536 0.562582 0.394341
O O7 0.938092 0.808342 0.435995
O O8 0.964255 0.709647 0.239505
O O9 0.250000 0.667767 0.446583
O O10 0.187409 0.700679 0.623248
O O11 0.142897 0.616193 0.435659
O O12 0.178294 0.839487 0.421233
O O13 0.750000 0.238374 0.792256
O O14 0.687863 0.422838 0.838414
O O15 0.548108 0.827685 0.867580
O O16 0.049087 0.092758 0.652847
O O17 0.610423 0.502491 0.992683
O O18 0.000000 0.000000 0.483057
#
# Coordination Sequence:
#
# PCOD9365213 Si02
#       8
#     8   8   8   8   8   8   8   8
#     4  12  23  41  65  97 137 177 221 269 339 418
#     4  11  24  42  64  98 132 177 219 272 340 405
#     4  11  25  43  68  95 126 177 232 284 343 400
#     4  10  23  43  66  91 126 172 225 281 331 394
#     4  12  25  43  66  96 137 177 218 277 342 409
#     4  12  25  41  64 101 140 176 220 272 342 419
#     4  11  22  42  67  93 128 171 221 283 332 411
#     4  11  24  39  62  97 137 176 218 267 340 412
#
# _framework density 20.744745999999999
#
# number of rings (size 3 to 8) (size 9 to 14) (size 15 to 20)
#    0.000    0.750    3.750    4.875    3.500    0.500 
#    0.000    0.000    0.000    0.750    0.000    0.000 
#    0.000    0.000    0.000    0.000    0.000    0.000 
#
# Total GULP energy -178546.858553 kJ/mol
# GULP energy per Si atom -5579.589330 kJ/mol
# Density = 2.069753 g / cm^3
# Si number density = 20.744746 Si / 1000 Ang^3
#
#
#
# Elastic Constant Matrix: (Units=GPa)
#
#
# Indices 1 2 3 4 5 6 
#
# 1 139.2393 12.3109 27.8970 0.0000 0.0000 0.0000
# 2 12.3109 49.9421 7.9764 0.0000 0.0000 0.0000
# 3 27.8970 7.9764 78.5944 0.0000 0.0000 0.0000
# 4 0.0000 0.0000 0.0000 24.8434 0.0000 0.0000
# 5 0.0000 0.0000 0.0000 0.0000 21.1215 0.0000
# 6 0.0000 0.0000 0.0000 0.0000 0.0000 27.6381
#
#
#
# Elastic Compliance Matrix: (Units=1/GPa)
#
#
# Indices 1 2 3 4 5 6 
#
# 1 0.007843 -0.001513 -0.002630 0.000000 0.000000 0.000000
# 2 -0.001513 0.020645 -0.001558 0.000000 0.000000 0.000000
# 3 -0.002630 -0.001558 0.013815 0.000000 0.000000 0.000000
# 4 0.000000 0.000000 0.000000 0.040252 0.000000 0.000000
# 5 0.000000 0.000000 0.000000 0.000000 0.047345 0.000000
# 6 0.000000 0.000000 0.000000 0.000000 0.000000 0.036182
#
#
# Mechanical properties :
#
#
# Convention : Reuss Voigt Hill
#
# Bulk Modulus (GPa) = 32.36244 40.46048 36.41146
# Shear Modulus (GPa) = 26.62621 29.36005 27.99313
#
# Velocity S-wave (km/s) = 3.58651 3.76613 3.67741
# Velocity P-wave (km/s) = 5.72581 6.20145 5.96837
#
# Compressibility (1/GPa) = 0.03090002
#
# Stress axis : x y z
#
# Youngs Moduli (GPa) = 127.50824 48.43777 72.38370
#
# Poissons Ratio (x) = 0.07329 0.19038
# Poissons Ratio (y) = 0.19294 0.11278
# Poissons Ratio (z) = 0.33537 0.07547
#
# Static dielectric constant tensor:
#      x y z
#    x 1.712230 0.000000 0.000000 
#    y 0.000000 1.796170 0.000000 
#    z 0.000000 0.000000 1.791380 
# 
# From -- ./inp_files/14047.got.cif
#   From: 2010.05.17/outbox.cif.g08.bks.cpg/sg40_8_cif.got.tgz:14047.got - 2010.06.03 18:35:42.
