data_PCOD9365670
_publ_section_title
;
Structure prediction by ZEFSAII (Michael W. Deem and Ramdas Pophale) SiO2 
 PCOD9365670
Probable space group: A M A 2
;
_chemical_formula_sum "Si O2"
_cell_formula_units_Z 32
_cell_length_a 21.000000
_cell_length_b 18.000000
_cell_length_c 9.000000
_cell_angle_alpha 90.000000
_cell_angle_beta 90.000000
_cell_angle_gamma 90.000000
_cell_volume 3402.000000
_symmetry_space_group_name_H-M "A M A 2"
_symmetry_group_IT_number 40
_symmetry_cell_setting 'orthorhombic'
loop_
_space_group_symop_operation_xyz
x,y,z
-x,-y,z
1/2-x,y,z
1/2+x,-y,z
x,1/2+y,1/2+z
-x,1/2-y,1/2+z
1/2-x,1/2+y,1/2+z
1/2+x,1/2-y,1/2+z
loop_
_atom_site_type_symbol
_atom_site_label
_atom_site_fract_x
_atom_site_fract_y
_atom_site_fract_z
Si Si1 0.677626 0.223632 0.990070
Si Si2 0.950253 0.721113 0.937709
Si Si3 0.321173 0.049984 0.875267
Si Si4 0.930547 0.029757 0.703661
Si Si5 0.062851 0.800142 0.783212
Si Si6 0.555172 0.055650 0.358126
Si Si7 0.822740 0.561592 0.645710
Si Si8 0.678361 0.778926 0.811896
O O1 0.750000 0.231815 0.932809
O O2 0.623226 0.234702 0.868225
O O3 0.671706 0.139832 0.056732
O O4 0.669746 0.277043 0.133213
O O5 0.970883 0.639616 0.879763
O O6 0.878649 0.732251 0.879996
O O7 0.999121 0.780923 0.873216
O O8 0.948211 0.725869 0.114954
O O9 0.250000 0.031384 0.819315
O O10 0.325403 0.138792 0.879230
O O11 0.375477 0.020575 0.768422
O O12 0.328084 0.006826 0.030684
O O13 0.924376 0.112307 0.768424
O O14 0.927300 0.031484 0.525533
O O15 0.000000 0.000000 0.745636
O O16 0.618693 0.056688 0.259154
O O17 0.500000 0.000000 0.302007
O O18 0.750000 0.560294 0.708181
O O19 0.750000 0.749274 0.839106
#
# Coordination Sequence:
#
# PCOD9365670 Si02
#       8
#     8   8   8   8   8   8   8   8
#     4  10  20  38  61  85 117 158 203 250 307 376
#     4  11  23  38  59  88 120 159 206 253 310 373
#     4  10  21  37  60  88 117 153 199 251 300 360
#     4  10  21  38  57  83 117 155 198 245 302 365
#     4  11  23  37  60  86 115 158 202 251 306 371
#     4  10  23  39  58  87 122 157 199 254 308 367
#     4  10  20  38  62  89 121 157 204 254 305 370
#     4  10  21  39  62  88 122 160 200 251 309 368
#
# _framework density 9.4062319999999993
#
# number of rings (size 3 to 8) (size 9 to 14) (size 15 to 20)
#    0.000    1.750    2.500    1.500    0.000    4.500 
#    0.000    2.500    0.000    5.250    0.000    0.000 
#    0.000    0.000    0.000    0.000    0.000    0.000 
#
# Total GULP energy -178596.633304 kJ/mol
# GULP energy per Si atom -5581.144791 kJ/mol
# Density = 0.938482 g / cm^3
# Si number density = 9.406232 Si / 1000 Ang^3
#
#
#
# Elastic Constant Matrix: (Units=GPa)
#
#
# Indices 1 2 3 4 5 6 
#
# 1 93.4900 16.5702 29.3699 0.0000 0.0000 0.0000
# 2 16.5702 45.8282 21.0958 0.0000 0.0000 0.0000
# 3 29.3699 21.0958 34.6199 0.0000 0.0000 0.0000
# 4 0.0000 0.0000 0.0000 22.5450 0.0000 0.0000
# 5 0.0000 0.0000 0.0000 0.0000 29.9694 0.0000
# 6 0.0000 0.0000 0.0000 0.0000 0.0000 19.3117
#
#
#
# Elastic Compliance Matrix: (Units=1/GPa)
#
#
# Indices 1 2 3 4 5 6 
#
# 1 0.014594 0.000587 -0.012739 0.000000 0.000000 0.000000
# 2 0.000587 0.030351 -0.018993 0.000000 0.000000 0.000000
# 3 -0.012739 -0.018993 0.051265 0.000000 0.000000 0.000000
# 4 0.000000 0.000000 0.000000 0.044356 0.000000 0.000000
# 5 0.000000 0.000000 0.000000 0.000000 0.033367 0.000000
# 6 0.000000 0.000000 0.000000 0.000000 0.000000 0.051782
#
#
# Mechanical properties :
#
#
# Convention : Reuss Voigt Hill
#
# Bulk Modulus (GPa) = 29.47938 34.22332 31.85135
# Shear Modulus (GPa) = 16.70497 21.49202 19.09850
#
# Velocity S-wave (km/s) = 2.98312 3.38366 3.18968
# Velocity P-wave (km/s) = 5.25067 5.78765 5.52568
#
# Compressibility (1/GPa) = 0.03392202
#
# Stress axis : x y z
#
# Youngs Moduli (GPa) = 68.52054 32.94771 19.50631
#
# Poissons Ratio (x) = -0.01934 0.24849
# Poissons Ratio (y) = -0.04023 0.37048
# Poissons Ratio (z) = 0.87287 0.62577
#
# Static dielectric constant tensor:
#      x y z
#    x 1.640280 0.000000 0.000000 
#    y 0.000000 1.655140 0.000000 
#    z 0.000000 0.000000 1.637820 
# 
# From -- ./inp_files/8453.got.cif
#   From: 2010.05.17/outbox.ucp.g08.bks.cvg/sg40_5_cif.got.tgz:8453.got - 2010.06.11 16:26:39.
