data_PCOD9365581
_publ_section_title
;
Structure prediction by ZEFSAII (Michael W. Deem and Ramdas Pophale) SiO2 
 PCOD9365581
Probable space group: A M A 2
;
_chemical_formula_sum "Si O2"
_cell_formula_units_Z 56
_cell_length_a 21.859949
_cell_length_b 9.402900
_cell_length_c 13.125198
_cell_angle_alpha 90.000000
_cell_angle_beta 90.000000
_cell_angle_gamma 90.000000
_cell_volume 2697.843950
_symmetry_space_group_name_H-M "A M A 2"
_symmetry_group_IT_number 40
_symmetry_cell_setting 'orthorhombic'
loop_
_space_group_symop_operation_xyz
x,y,z
-x,-y,z
1/2-x,y,z
1/2+x,-y,z
x,1/2+y,1/2+z
-x,1/2-y,1/2+z
1/2-x,1/2+y,1/2+z
1/2+x,1/2-y,1/2+z
loop_
_atom_site_type_symbol
_atom_site_label
_atom_site_fract_x
_atom_site_fract_y
_atom_site_fract_z
Si Si1 0.406295 0.500006 0.473480
Si Si2 0.319406 0.760071 0.448904
Si Si3 0.556917 0.089559 0.757857
Si Si4 0.180113 0.034234 0.305263
Si Si5 0.680594 0.260059 0.998054
Si Si6 0.680113 0.034222 0.641696
Si Si7 0.443083 0.089562 0.189104
O O1 0.365017 0.630924 0.434285
O O2 0.441968 0.433153 0.378835
O O3 0.365016 0.369090 0.512675
O O4 0.441969 0.566858 0.568124
O O5 0.250000 0.706255 0.445009
O O6 0.324997 0.885240 0.365672
O O7 0.327459 0.840239 0.557637
O O8 0.547570 0.249999 0.723482
O O9 0.500000 0.000000 0.714825
O O10 0.624234 0.045247 0.718729
O O11 0.250000 0.044885 0.264209
O O12 0.172537 0.159773 0.389321
O O13 0.124234 0.045252 0.228229
O O14 0.750000 0.206246 0.001946
O O15 0.675003 0.385228 0.081288
O O16 0.750000 0.044869 0.682754
O O17 0.500000 0.000000 0.232134
#
# Coordination Sequence:
#
# PCOD9365581 Si02
#       7
#     8   8   8   8   8   8   8
#     4  12  24  42  68 100 135 176 231 286 333 408
#     4   9  19  38  67 105 139 173 223 283 343 408
#     4  12  28  48  68  99 138 181 229 284 342 411
#     4   9  20  43  71  99 136 181 225 276 347 412
#     4   9  19  38  67 105 139 173 223 283 343 408
#     4   9  20  43  71  99 136 181 225 276 347 412
#     4  12  28  48  68  99 138 181 229 284 342 411
#
# _framework density 20.757318000000001
#
# number of rings (size 3 to 8) (size 9 to 14) (size 15 to 20)
#    0.000    1.714    2.857    2.571    4.000    2.857 
#    0.000    5.714    0.000    0.000    0.000    0.000 
#    0.000    0.000    0.000    0.000    0.000    0.000 
#
# Total GULP energy -156452.277331 kJ/mol
# GULP energy per Si atom -5587.581333 kJ/mol
# Density = 2.071007 g / cm^3
# Si number density = 20.757318 Si / 1000 Ang^3
#
#
#
# Elastic Constant Matrix: (Units=GPa)
#
#
# Indices 1 2 3 4 5 6 
#
# 1 129.5347 67.8407 53.4027 0.0000 0.0000 0.0000
# 2 67.8407 120.4243 33.1976 0.0000 0.0000 0.0000
# 3 53.4027 33.1976 86.6570 0.0000 0.0000 0.0000
# 4 0.0000 0.0000 0.0000 19.3226 0.0000 0.0000
# 5 0.0000 0.0000 0.0000 0.0000 -40.3404 0.0000
# 6 0.0000 0.0000 0.0000 0.0000 0.0000 12.7798
#
#
#
# Elastic Compliance Matrix: (Units=1/GPa)
#
#
# Indices 1 2 3 4 5 6 
#
# 1 0.013196 -0.005805 -0.005908 0.000000 0.000000 0.000000
# 2 -0.005805 0.011838 -0.000958 0.000000 0.000000 0.000000
# 3 -0.005908 -0.000958 0.015548 0.000000 0.000000 0.000000
# 4 0.000000 0.000000 0.000000 0.051753 0.000000 0.000000
# 5 0.000000 0.000000 0.000000 0.000000 -0.024789 0.000000
# 6 0.000000 0.000000 0.000000 0.000000 0.000000 0.078249
#
#
# Mechanical properties :
#
#
# Convention : Reuss Voigt Hill
#
# Bulk Modulus (GPa) = 65.61775 71.72200 68.66988
# Shear Modulus (GPa) = 28.37421 10.49740 19.43580
#
# Velocity S-wave (km/s) = 3.70124 2.25126 3.06328
# Velocity P-wave (km/s) = 7.06725 6.43313 6.75764
#
# Compressibility (1/GPa) = 0.01523978
#
# Stress axis : x y z
#
# Youngs Moduli (GPa) = 75.78044 84.47135 64.31881
#
# Poissons Ratio (x) = 0.49038 0.38001
# Poissons Ratio (y) = 0.43992 0.06160
# Poissons Ratio (z) = 0.44772 0.08090
#
# Static dielectric constant tensor:
#      x y z
#    x 1.747310 0.000000 0.000000 
#    y 0.000000 1.720070 0.000000 
#    z 0.000000 0.000000 1.759810 
# 
# From -- ./inp_files/18205.got.cif
#   From: 2010.05.17/outbox.cif.g08.bks.cpg/sg40_10_cif.got.tgz:18205.got - 2010.06.03 18:35:42.
