data_PCOD9365253
_publ_section_title
;
Structure prediction by ZEFSAII (Michael W. Deem and Ramdas Pophale) SiO2 
 PCOD9365253
Probable space group: A M A 2
;
_chemical_formula_sum "Si O2"
_cell_formula_units_Z 52
_cell_length_a 13.971074
_cell_length_b 19.071052
_cell_length_c 8.765464
_cell_angle_alpha 90.000000
_cell_angle_beta 90.000000
_cell_angle_gamma 90.000000
_cell_volume 2335.497215
_symmetry_space_group_name_H-M "A M A 2"
_symmetry_group_IT_number 40
_symmetry_cell_setting 'orthorhombic'
loop_
_space_group_symop_operation_xyz
x,y,z
-x,-y,z
1/2-x,y,z
1/2+x,-y,z
x,1/2+y,1/2+z
-x,1/2-y,1/2+z
1/2-x,1/2+y,1/2+z
1/2+x,1/2-y,1/2+z
loop_
_atom_site_type_symbol
_atom_site_label
_atom_site_fract_x
_atom_site_fract_y
_atom_site_fract_z
Si Si1 0.250000 0.749422 0.363750
Si Si2 0.136512 0.972254 0.663384
Si Si3 0.038227 0.101988 0.524761
Si Si4 0.051155 0.216899 0.749985
Si Si5 0.939231 0.605387 0.441511
Si Si6 0.061476 0.142991 0.202118
Si Si7 0.250000 0.324140 0.531121
Si Si8 0.750000 0.762008 0.203846
O O1 0.149034 0.709822 0.344164
O O2 0.250000 0.788351 0.197854
O O3 0.250000 0.779694 0.538794
O O4 0.250000 0.960392 0.655561
O O5 0.070855 0.922523 0.555147
O O6 0.106561 0.050791 0.620351
O O7 0.094085 0.955579 0.829601
O O8 0.057298 0.180525 0.584328
O O9 0.064215 0.095200 0.350210
O O10 0.018084 0.296398 0.733297
O O11 0.971864 0.170490 0.834787
O O12 0.844075 0.629141 0.525823
O O13 0.026169 0.598362 0.558518
O O14 0.158253 0.187389 0.193283
O O15 0.250000 0.279088 0.368392
#
# Coordination Sequence:
#
# PCOD9365253 Si02
#       8
#     4   8   8   8   8   8   4   4
#     4  12  24  36  61 105 147 191 236 280 378 444
#     4  10  23  47  72  98 132 189 250 292 353 427
#     4  10  25  44  72 101 136 189 235 298 359 433
#     4  11  22  40  63 100 147 177 224 293 360 437
#     4  11  22  41  64  98 143 184 239 296 353 423
#     4  12  23  42  67 106 149 178 237 300 366 434
#     4  12  22  38  64 102 146 196 236 289 361 431
#     4  12  26  38  67 109 149 201 232 287 379 447
#
# _framework density 22.265067999999999
#
# number of rings (size 3 to 8) (size 9 to 14) (size 15 to 20)
#    0.000    0.923    5.385    1.846    2.154    0.000 
#    2.769    6.154    0.000    0.000    0.000    0.000 
#    0.000    0.000    0.000    0.000    0.000    0.000 
#
# Total GULP energy -145158.161875 kJ/mol
# GULP energy per Si atom -5583.006226 kJ/mol
# Density = 2.221439 g / cm^3
# Si number density = 22.265068 Si / 1000 Ang^3
#
#
#
# Elastic Constant Matrix: (Units=GPa)
#
#
# Indices 1 2 3 4 5 6 
#
# 1 127.2387 18.5475 8.9665 0.0000 0.0000 0.0000
# 2 18.5475 51.4095 32.0089 0.0000 0.0000 0.0000
# 3 8.9665 32.0089 143.5058 0.0000 0.0000 0.0000
# 4 0.0000 0.0000 0.0000 15.1206 0.0000 0.0000
# 5 0.0000 0.0000 0.0000 0.0000 23.7525 0.0000
# 6 0.0000 0.0000 0.0000 0.0000 0.0000 7.2956
#
#
#
# Elastic Compliance Matrix: (Units=1/GPa)
#
#
# Indices 1 2 3 4 5 6 
#
# 1 0.008299 -0.003102 0.000173 0.000000 0.000000 0.000000
# 2 -0.003102 0.023748 -0.005103 0.000000 0.000000 0.000000
# 3 0.000173 -0.005103 0.008096 0.000000 0.000000 0.000000
# 4 0.000000 0.000000 0.000000 0.066135 0.000000 0.000000
# 5 0.000000 0.000000 0.000000 0.000000 0.042101 0.000000
# 6 0.000000 0.000000 0.000000 0.000000 0.000000 0.137069
#
#
# Mechanical properties :
#
#
# Convention : Reuss Voigt Hill
#
# Bulk Modulus (GPa) = 41.52938 49.02220 45.27579
# Shear Modulus (GPa) = 16.15310 26.74249 21.44780
#
# Velocity S-wave (km/s) = 2.69642 3.46944 3.10706
# Velocity P-wave (km/s) = 5.32794 6.17371 5.76635
#
# Compressibility (1/GPa) = 0.02407934
#
# Stress axis : x y z
#
# Youngs Moduli (GPa) = 120.49325 42.10835 123.52094
#
# Poissons Ratio (x) = 0.13063 -0.02142
# Poissons Ratio (y) = 0.37379 0.63035
# Poissons Ratio (z) = -0.02089 0.21489
#
# Static dielectric constant tensor:
#      x y z
#    x 1.811810 0.000000 0.000000 
#    y 0.000000 1.833880 0.000000 
#    z 0.000000 0.000000 1.899700 
# 
# From -- ./inp_files/6689.got.cif
#   From: 2010.05.17/outbox.cif.g08.bks.cpg/sg40_4_cif.got.tgz:6689.got - 2010.06.03 18:35:42.
