data_PCOD9365652
_publ_section_title
;
Structure prediction by ZEFSAII (Michael W. Deem and Ramdas Pophale) SiO2 
 PCOD9365652
Probable space group: A M A 2
;
_chemical_formula_sum "Si O2"
_cell_formula_units_Z 28
_cell_length_a 9.000000
_cell_length_b 15.000000
_cell_length_c 21.000000
_cell_angle_alpha 90.000000
_cell_angle_beta 90.000000
_cell_angle_gamma 90.000000
_cell_volume 2835.000000
_symmetry_space_group_name_H-M "A M A 2"
_symmetry_group_IT_number 40
_symmetry_cell_setting 'orthorhombic'
loop_
_space_group_symop_operation_xyz
x,y,z
-x,-y,z
1/2-x,y,z
1/2+x,-y,z
x,1/2+y,1/2+z
-x,1/2-y,1/2+z
1/2-x,1/2+y,1/2+z
1/2+x,1/2-y,1/2+z
loop_
_atom_site_type_symbol
_atom_site_label
_atom_site_fract_x
_atom_site_fract_y
_atom_site_fract_z
Si Si1 0.575913 0.905121 0.905060
Si Si2 0.573408 0.906040 0.119167
Si Si3 0.423550 0.728127 0.286486
Si Si4 0.075579 0.091910 0.271522
Si Si5 0.427444 0.091596 0.531743
Si Si6 0.428552 0.592408 0.182062
Si Si7 0.428755 0.289447 0.515268
O O1 0.750000 0.917115 0.920653
O O2 0.565433 0.843158 0.842931
O O3 0.500000 0.000000 0.894097
O O4 0.493412 0.853823 0.961665
O O5 0.750000 0.907248 0.106817
O O6 0.550130 0.899156 0.195097
O O7 0.495379 0.826390 0.081293
O O8 0.500000 0.000000 0.098394
O O9 0.250000 0.750888 0.276842
O O10 0.509553 0.818505 0.300938
O O11 0.479448 0.676648 0.223385
O O12 0.250000 0.086241 0.282895
O O13 0.000000 0.000000 0.292606
O O14 0.250000 0.083085 0.525961
O O15 0.463222 0.100432 0.607272
O O16 0.472889 0.186546 0.502566
O O17 0.500000 0.000000 0.507951
O O18 0.500000 0.500000 0.205302
O O19 0.250000 0.586646 0.188848
O O20 0.250000 0.293253 0.517996
#
# Coordination Sequence:
#
# PCOD9365652 Si02
#       7
#     8   8   8   8   8   8   8
#     4  11  24  41  60  83 111 145 184 229 276 325
#     4  10  20  34  54  83 115 147 182 225 277 332
#     4  10  21  37  57  80 110 147 185 225 273 326
#     4  10  21  36  57  84 114 146 182 226 276 329
#     4   9  19  34  54  80 109 140 175 218 269 322
#     4   9  17  31  52  80 111 141 174 216 267 325
#     4  11  22  37  57  80 109 148 189 231 278 329
#
# _framework density 9.8765429999999999
#
# number of rings (size 3 to 8) (size 9 to 14) (size 15 to 20)
#    0.000    2.000    0.000    3.429    0.000    5.714 
#    0.000    3.571    0.000    1.714    0.000    0.000 
#    0.000    0.000    0.000    0.000    0.000    0.000 
#
# Total GULP energy -156428.394353 kJ/mol
# GULP energy per Si atom -5586.728370 kJ/mol
# Density = 0.985406 g / cm^3
# Si number density = 9.876543 Si / 1000 Ang^3
#
#
#
# Elastic Constant Matrix: (Units=GPa)
#
#
# Indices 1 2 3 4 5 6 
#
# 1 62.6061 58.6720 20.3930 0.0000 0.0000 0.0000
# 2 58.6720 165.9369 12.0027 0.0000 0.0000 0.0000
# 3 20.3930 12.0027 7.9053 0.0000 0.0000 0.0000
# 4 0.0000 0.0000 0.0000 17.0523 0.0000 0.0000
# 5 0.0000 0.0000 0.0000 0.0000 94.1777 0.0000
# 6 0.0000 0.0000 0.0000 0.0000 0.0000 39.3755
#
#
#
# Elastic Compliance Matrix: (Units=1/GPa)
#
#
# Indices 1 2 3 4 5 6 
#
# 1 0.208278 -0.039070 -0.477966 0.000000 0.000000 0.000000
# 2 -0.039070 0.014099 0.079382 0.000000 0.000000 0.000000
# 3 -0.477966 0.079382 1.238960 0.000000 0.000000 0.000000
# 4 0.000000 0.000000 0.000000 0.058643 0.000000 0.000000
# 5 0.000000 0.000000 0.000000 0.000000 0.010618 0.000000
# 6 0.000000 0.000000 0.000000 0.000000 0.000000 0.025396
#
#
# Mechanical properties :
#
#
# Convention : Reuss Voigt Hill
#
# Bulk Modulus (GPa) = 1.70640 46.50930 24.10785
# Shear Modulus (GPa) = 1.90357 39.81315 20.85836
#
# Velocity S-wave (km/s) = 0.98274 4.49435 3.25307
# Velocity P-wave (km/s) = 1.46746 7.10835 5.13235
#
# Compressibility (1/GPa) = 0.58602811
#
# Stress axis : x y z
#
# Youngs Moduli (GPa) = 4.80127 70.92699 0.80713
#
# Poissons Ratio (x) = 2.77115 0.38578
# Poissons Ratio (y) = 0.18759 -0.06407
# Poissons Ratio (z) = 2.29484 -5.63031
#
# Static dielectric constant tensor:
#      x y z
#    x 1.658820 0.000000 0.000000 
#    y 0.000000 1.683810 0.000000 
#    z 0.000000 0.000000 1.713020 
# 
# From -- ./inp_files/22122.got.cif
#   From: 2010.05.17/outbox.ucp.g08.bks.cvg/sg40_12_cif.got.tgz:22122.got - 2010.06.11 16:26:39.
