data_PCOD9365212
_publ_section_title
;
Structure prediction by ZEFSAII (Michael W. Deem and Ramdas Pophale) SiO2 
 PCOD9365212
Probable space group: A M A 2
;
_chemical_formula_sum "Si O2"
_cell_formula_units_Z 60
_cell_length_a 9.309523
_cell_length_b 19.744158
_cell_length_c 16.268343
_cell_angle_alpha 90.000000
_cell_angle_beta 90.000000
_cell_angle_gamma 90.000000
_cell_volume 2990.262864
_symmetry_space_group_name_H-M "A M A 2"
_symmetry_group_IT_number 40
_symmetry_cell_setting 'orthorhombic'
loop_
_space_group_symop_operation_xyz
x,y,z
-x,-y,z
1/2-x,y,z
1/2+x,-y,z
x,1/2+y,1/2+z
-x,1/2-y,1/2+z
1/2-x,1/2+y,1/2+z
1/2+x,1/2-y,1/2+z
loop_
_atom_site_type_symbol
_atom_site_label
_atom_site_fract_x
_atom_site_fract_y
_atom_site_fract_z
Si Si1 0.080296 0.429907 0.398500
Si Si2 0.577642 0.932176 0.559173
Si Si3 0.083235 0.336994 0.935193
Si Si4 0.920299 0.210623 0.974382
Si Si5 0.750000 0.478533 0.735763
Si Si6 0.579299 0.624829 0.214018
Si Si7 0.536317 0.601990 0.758479
Si Si8 0.084750 0.257273 0.666386
O O1 0.250000 0.441734 0.408665
O O2 0.039340 0.367103 0.456922
O O3 0.056391 0.403354 0.305535
O O4 0.000000 0.500000 0.413754
O O5 0.750000 0.937047 0.557836
O O6 0.518568 0.872089 0.502435
O O7 0.514814 0.917882 0.649504
O O8 0.500000 0.000000 0.527858
O O9 0.250000 0.333914 0.961778
O O10 0.073110 0.381344 0.853200
O O11 0.017837 0.262261 0.922655
O O12 0.750000 0.218098 0.953775
O O13 0.939864 0.229852 0.069637
O O14 0.629900 0.539302 0.728869
O O15 0.625569 0.421248 0.749105
O O16 0.750000 0.620136 0.195375
O O17 0.522756 0.701359 0.202532
O O18 0.568711 0.670850 0.710165
O O19 0.250000 0.232773 0.676215
#
# Coordination Sequence:
#
# PCOD9365212 Si02
#       8
#     8   8   8   8   4   8   8   8
#     4  10  23  43  66  95 128 168 215 269 326 383
#     4  12  26  41  62  93 131 172 212 264 323 383
#     4  12  24  40  65  95 131 167 213 261 315 388
#     4  10  23  43  65  95 132 168 212 266 320 384
#     4  10  24  44  62  92 130 162 216 266 316 390
#     4  11  23  41  66  94 128 166 219 270 321 386
#     4  11  24  42  65  93 125 172 213 263 323 379
#     4  11  22  42  65  94 130 170 215 265 324 385
#
# _framework density 20.065127
#
# number of rings (size 3 to 8) (size 9 to 14) (size 15 to 20)
#    0.000    1.067    2.667    3.200    4.667    2.667 
#    2.400    0.000    0.000    0.000    0.000    0.000 
#    0.000    0.000    0.000    0.000    0.000    0.000 
#
# Total GULP energy -167146.256554 kJ/mol
# GULP energy per Si atom -5571.541885 kJ/mol
# Density = 2.001946 g / cm^3
# Si number density = 20.065127 Si / 1000 Ang^3
#
#
#
# Elastic Constant Matrix: (Units=GPa)
#
#
# Indices 1 2 3 4 5 6 
#
# 1 153.5092 44.5859 11.2039 0.0000 0.0000 0.0000
# 2 44.5859 124.1445 11.2816 0.0000 0.0000 0.0000
# 3 11.2039 11.2816 15.3990 0.0000 0.0000 0.0000
# 4 0.0000 0.0000 0.0000 5.7653 0.0000 0.0000
# 5 0.0000 0.0000 0.0000 0.0000 18.4722 0.0000
# 6 0.0000 0.0000 0.0000 0.0000 0.0000 37.0324
#
#
#
# Elastic Compliance Matrix: (Units=1/GPa)
#
#
# Indices 1 2 3 4 5 6 
#
# 1 0.007466 -0.002344 -0.003715 0.000000 0.000000 0.000000
# 2 -0.002344 0.009365 -0.005156 0.000000 0.000000 0.000000
# 3 -0.003715 -0.005156 0.071420 0.000000 0.000000 0.000000
# 4 0.000000 0.000000 0.000000 0.173452 0.000000 0.000000
# 5 0.000000 0.000000 0.000000 0.000000 0.054136 0.000000
# 6 0.000000 0.000000 0.000000 0.000000 0.000000 0.027003
#
#
# Mechanical properties :
#
#
# Convention : Reuss Voigt Hill
#
# Bulk Modulus (GPa) = 15.19256 47.46617 31.32937
# Shear Modulus (GPa) = 12.91281 27.31939 20.11610
#
# Velocity S-wave (km/s) = 2.53957 3.69390 3.16973
# Velocity P-wave (km/s) = 4.02334 6.47307 5.38924
#
# Compressibility (1/GPa) = 0.06582168
#
# Stress axis : x y z
#
# Youngs Moduli (GPa) = 133.93753 106.77544 14.00170
#
# Poissons Ratio (x) = 0.25026 0.05202
# Poissons Ratio (y) = 0.31393 0.07219
# Poissons Ratio (z) = 0.49759 0.55053
#
# Static dielectric constant tensor:
#      x y z
#    x 1.679420 0.000000 0.000000 
#    y 0.000000 1.734660 0.000000 
#    z 0.000000 0.000000 1.734530 
# 
# From -- ./inp_files/19428.got.cif
#   From: 2010.05.17/outbox.cif.g08.bks.cpg/sg40_10_cif.got.tgz:19428.got - 2010.06.03 18:35:42.
