data_PCOD9365366
_publ_section_title
;
Structure prediction by ZEFSAII (Michael W. Deem and Ramdas Pophale) SiO2 
 PCOD9365366
Probable space group: A M A 2
;
_chemical_formula_sum "Si O2"
_cell_formula_units_Z 56
_cell_length_a 8.493766
_cell_length_b 19.552593
_cell_length_c 18.646533
_cell_angle_alpha 90.000000
_cell_angle_beta 90.000000
_cell_angle_gamma 90.000000
_cell_volume 3096.725758
_symmetry_space_group_name_H-M "A M A 2"
_symmetry_group_IT_number 40
_symmetry_cell_setting 'orthorhombic'
loop_
_space_group_symop_operation_xyz
x,y,z
-x,-y,z
1/2-x,y,z
1/2+x,-y,z
x,1/2+y,1/2+z
-x,1/2-y,1/2+z
1/2-x,1/2+y,1/2+z
1/2+x,1/2-y,1/2+z
loop_
_atom_site_type_symbol
_atom_site_label
_atom_site_fract_x
_atom_site_fract_y
_atom_site_fract_z
Si Si1 0.932475 0.205311 0.454590
Si Si2 0.565700 0.432041 0.950626
Si Si3 0.436547 0.197859 0.202023
Si Si4 0.560052 0.291874 0.319029
Si Si5 0.936418 0.072332 0.290010
Si Si6 0.441213 0.076513 0.909831
Si Si7 0.066769 0.157656 0.047150
O O1 0.750000 0.184317 0.445649
O O2 0.991827 0.235752 0.378755
O O3 0.934859 0.270050 0.506434
O O4 0.028470 0.141284 0.484168
O O5 0.500000 0.500000 0.988317
O O6 0.750000 0.440226 0.937915
O O7 0.476276 0.427479 0.874391
O O8 0.250000 0.208199 0.194152
O O9 0.503587 0.264951 0.242087
O O10 0.474348 0.134335 0.253305
O O11 0.504040 0.173747 0.124931
O O12 0.750000 0.290957 0.319817
O O13 0.511073 0.366042 0.350541
O O14 0.750000 0.078686 0.279737
O O15 0.000000 0.000000 0.261319
O O16 0.250000 0.077028 0.911111
O O17 0.500000 0.000000 0.895819
O O18 0.497448 0.103779 0.988454
O O19 0.250000 0.137443 0.058929
#
# Coordination Sequence:
#
# PCOD9365366 Si02
#       7
#     8   8   8   8   8   8   8
#     4   9  16  32  53  70  95 132 170 208 252 303
#     4  11  20  30  47  73  99 126 162 204 248 294
#     4  11  20  32  51  77 107 137 174 213 255 310
#     4   9  18  32  52  74 100 135 173 214 263 308
#     4  11  21  33  47  68 100 136 169 202 245 293
#     4   9  18  35  56  78 104 137 176 217 263 314
#     4   8  18  34  52  74 103 139 170 204 259 316
#
# _framework density 18.083615000000002
#
# number of rings (size 3 to 8) (size 9 to 14) (size 15 to 20)
#    0.000    2.286    1.429    5.571    0.000    1.143 
#    0.000    6.429    0.000    0.857    0.000    2.000 
#    0.000    0.000    0.000    0.000    0.000    0.000 
#
# Total GULP energy -155953.593736 kJ/mol
# GULP energy per Si atom -5569.771205 kJ/mol
# Density = 1.804246 g / cm^3
# Si number density = 18.083615 Si / 1000 Ang^3
#
#
#
# Elastic Constant Matrix: (Units=GPa)
#
#
# Indices 1 2 3 4 5 6 
#
# 1 27.4909 17.0619 -1.7758 0.0000 0.0000 0.0000
# 2 17.0619 121.1482 19.1038 0.0000 0.0000 0.0000
# 3 -1.7758 19.1038 46.1820 0.0000 0.0000 0.0000
# 4 0.0000 0.0000 0.0000 7.5718 0.0000 0.0000
# 5 0.0000 0.0000 0.0000 0.0000 -3.3362 0.0000
# 6 0.0000 0.0000 0.0000 0.0000 0.0000 27.5528
#
#
#
# Elastic Compliance Matrix: (Units=1/GPa)
#
#
# Indices 1 2 3 4 5 6 
#
# 1 0.040608 -0.006381 0.004201 0.000000 0.000000 0.000000
# 2 -0.006381 0.009833 -0.004313 0.000000 0.000000 0.000000
# 3 0.004201 -0.004313 0.023599 0.000000 0.000000 0.000000
# 4 0.000000 0.000000 0.000000 0.132070 0.000000 0.000000
# 5 0.000000 0.000000 0.000000 0.000000 -0.299738 0.000000
# 6 0.000000 0.000000 0.000000 0.000000 0.000000 0.036294
#
#
# Mechanical properties :
#
#
# Convention : Reuss Voigt Hill
#
# Bulk Modulus (GPa) = 16.37909 29.28899 22.83404
# Shear Modulus (GPa) = -208.35950 17.05306 -95.65322
#
# Velocity S-wave (km/s) = -10.74571 3.07418 -7.28078
# Velocity P-wave (km/s) = 12.03674 5.36958 7.61744
#
# Compressibility (1/GPa) = 0.06105345
#
# Stress axis : x y z
#
# Youngs Moduli (GPa) = 24.62590 101.69625 42.37444
#
# Poissons Ratio (x) = 0.64897 -0.17802
# Poissons Ratio (y) = 0.15715 0.18276
# Poissons Ratio (z) = -0.10346 0.43862
#
# Static dielectric constant tensor:
#      x y z
#    x 1.757630 0.000000 0.000000 
#    y 0.000000 1.662340 0.000000 
#    z 0.000000 0.000000 1.650380 
# 
# From -- ./inp_files/22485.got.cif
#   From: 2010.05.17/outbox.cif.g08.bks.cpg/sg40_12_cif.got.tgz:22485.got - 2010.06.03 18:35:42.
