data_PCOD9365165
_publ_section_title
;
Structure prediction by ZEFSAII (Michael W. Deem and Ramdas Pophale) SiO2 
 PCOD9365165
Probable space group: A M A 2
;
_chemical_formula_sum "Si O2"
_cell_formula_units_Z 64
_cell_length_a 8.711151
_cell_length_b 15.786045
_cell_length_c 24.196852
_cell_angle_alpha 90.000000
_cell_angle_beta 90.000000
_cell_angle_gamma 90.000000
_cell_volume 3327.420949
_symmetry_space_group_name_H-M "A M A 2"
_symmetry_group_IT_number 40
_symmetry_cell_setting 'orthorhombic'
loop_
_space_group_symop_operation_xyz
x,y,z
-x,-y,z
1/2-x,y,z
1/2+x,-y,z
x,1/2+y,1/2+z
-x,1/2-y,1/2+z
1/2-x,1/2+y,1/2+z
1/2+x,1/2-y,1/2+z
loop_
_atom_site_type_symbol
_atom_site_label
_atom_site_fract_x
_atom_site_fract_y
_atom_site_fract_z
Si Si1 0.567080 0.089588 0.636190
Si Si2 0.066237 0.411328 0.640690
Si Si3 0.434723 0.752613 0.444821
Si Si4 0.434135 0.746871 0.067818
Si Si5 0.566412 0.407866 0.874743
Si Si6 0.434578 0.090156 0.872714
Si Si7 0.565531 0.849498 0.750945
Si Si8 0.933869 0.340084 0.752751
O O1 0.750000 0.088173 0.634251
O O2 0.503372 0.166915 0.600063
O O3 0.510981 0.105325 0.698853
O O4 0.500000 0.000000 0.616723
O O5 0.250000 0.416153 0.645191
O O6 0.026573 0.332389 0.601330
O O7 0.000000 0.500000 0.619577
O O8 0.995320 0.392477 0.700775
O O9 0.250000 0.754861 0.446254
O O10 0.500701 0.749615 0.506270
O O11 0.495481 0.835091 0.412969
O O12 0.483313 0.668852 0.410731
O O13 0.250000 0.739260 0.066804
O O14 0.500000 0.500000 0.887971
O O15 0.750000 0.408109 0.880865
O O16 0.529942 0.384504 0.810984
O O17 0.250000 0.086701 0.873981
O O18 0.480588 0.109568 0.809381
O O19 0.500000 0.000000 0.890607
O O20 0.750000 0.853381 0.745471
O O21 0.512485 0.751940 0.751308
O O22 0.750000 0.330259 0.748604
#
# Coordination Sequence:
#
# PCOD9365165 Si02
#       8
#     8   8   8   8   8   8   8   8
#     4  12  25  42  66  96 129 167 209 259 312 377
#     4  11  24  41  65  93 129 167 208 259 313 375
#     4  11  24  44  66  91 123 165 212 264 315 369
#     4  11  25  45  66  92 124 165 212 264 316 371
#     4  11  24  41  64  95 128 166 208 257 312 374
#     4  10  23  40  63  93 127 166 207 255 310 368
#     4  11  21  38  63  94 131 169 206 255 313 374
#     4  11  22  37  63  96 129 167 208 254 314 377
#
# _framework density 19.234114999999999
#
# number of rings (size 3 to 8) (size 9 to 14) (size 15 to 20)
#    0.000    1.000    2.500    4.125    0.000    8.000 
#    0.000    5.000    0.000    0.000    0.000    0.000 
#    0.000    0.000    0.000    0.000    0.000    0.000 
#
# Total GULP energy -179063.712189 kJ/mol
# GULP energy per Si atom -5595.741006 kJ/mol
# Density = 1.919034 g / cm^3
# Si number density = 19.234115 Si / 1000 Ang^3
#
#
#
# Elastic Constant Matrix: (Units=GPa)
#
#
# Indices 1 2 3 4 5 6 
#
# 1 78.7149 63.8733 60.1712 0.0000 0.0000 0.0000
# 2 63.8733 190.9551 80.9789 0.0000 0.0000 0.0000
# 3 60.1712 80.9789 151.2397 0.0000 0.0000 0.0000
# 4 0.0000 0.0000 0.0000 -5.9324 0.0000 0.0000
# 5 0.0000 0.0000 0.0000 0.0000 45.3619 0.0000
# 6 0.0000 0.0000 0.0000 0.0000 0.0000 36.1691
#
#
#
# Elastic Compliance Matrix: (Units=1/GPa)
#
#
# Indices 1 2 3 4 5 6 
#
# 1 0.020839 -0.004469 -0.005898 0.000000 0.000000 0.000000
# 2 -0.004469 0.007734 -0.002363 0.000000 0.000000 0.000000
# 3 -0.005898 -0.002363 0.010224 0.000000 0.000000 0.000000
# 4 0.000000 0.000000 0.000000 -0.168565 0.000000 0.000000
# 5 0.000000 0.000000 0.000000 0.000000 0.022045 0.000000
# 6 0.000000 0.000000 0.000000 0.000000 0.000000 0.027648
#
#
# Mechanical properties :
#
#
# Convention : Reuss Voigt Hill
#
# Bulk Modulus (GPa) = 74.98214 92.32850 83.65532
# Shear Modulus (GPa) = -99.66251 29.51213 -35.07519
#
# Velocity S-wave (km/s) = -7.20611 3.92134 -4.27499
# Velocity P-wave (km/s) = 5.49261 8.28307 4.38409
#
# Compressibility (1/GPa) = 0.01333651
#
# Stress axis : x y z
#
# Youngs Moduli (GPa) = 47.98628 129.30200 97.81287
#
# Poissons Ratio (x) = 0.57791 0.57689
# Poissons Ratio (y) = 0.21447 0.23111
# Poissons Ratio (z) = 0.28302 0.30551
#
# Static dielectric constant tensor:
#      x y z
#    x 1.642850 0.000000 0.000000 
#    y 0.000000 1.656940 0.000000 
#    z 0.000000 0.000000 1.645710 
# 
# From -- ./inp_files/24227.got.cif
#   From: 2010.05.17/outbox.cif.g08.bks.cpg/sg40_13_cif.got.tgz:24227.got - 2010.06.03 18:35:42.
