data_PCOD9365847
_publ_section_title
;
Structure prediction by ZEFSAII (Michael W. Deem and Ramdas Pophale) SiO2 
 PCOD9365847
Probable space group: A B A 2
;
_chemical_formula_sum "Si O2"
_cell_formula_units_Z 60
_cell_length_a 11.261432
_cell_length_b 19.349840
_cell_length_c 12.705309
_cell_angle_alpha 90.000000
_cell_angle_beta 90.000000
_cell_angle_gamma 90.000000
_cell_volume 2768.574591
_symmetry_space_group_name_H-M "A B A 2"
_symmetry_group_IT_number 41
_symmetry_cell_setting 'orthorhombic'
loop_
_space_group_symop_operation_xyz
x,y,z
-x,-y,z
1/2-x,y,1/2+z
1/2+x,-y,1/2+z
x,1/2+y,1/2+z
-x,1/2-y,1/2+z
1/2-x,1/2+y,z
1/2+x,1/2-y,z
loop_
_atom_site_type_symbol
_atom_site_label
_atom_site_fract_x
_atom_site_fract_y
_atom_site_fract_z
Si Si1 0.000000 0.500000 0.040730
Si Si2 0.230880 0.325674 0.077532
Si Si3 0.613442 0.917238 0.390059
Si Si4 0.824635 0.090995 0.255714
Si Si5 0.723738 0.460698 0.668392
Si Si6 0.229044 0.173100 0.517509
Si Si7 0.352350 0.434075 0.938743
Si Si8 0.486311 0.359596 0.421999
O O1 0.117164 0.495941 0.112697
O O2 0.986429 0.435667 0.965112
O O3 0.260067 0.245382 0.075715
O O4 0.330995 0.375691 0.025289
O O5 0.114162 0.332662 0.004060
O O6 0.236646 0.356922 0.194246
O O7 0.676717 0.934974 0.281409
O O8 0.663845 0.847829 0.440060
O O9 0.472777 0.916519 0.377954
O O10 0.638666 0.984429 0.465232
O O11 0.759946 0.071195 0.363721
O O12 0.940051 0.131078 0.301783
O O13 0.827010 0.017453 0.193447
O O14 0.732064 0.390723 0.600063
O O15 0.110312 0.177757 0.445831
#
# Coordination Sequence:
#
# PCOD9365847 Si02
#       8
#     4   8   8   8   8   8   8   8
#     4  10  18  38  68  96 128 166 216 268 324 392
#     4  11  23  43  64  90 134 174 214 256 333 406
#     4  10  21  41  64  92 127 161 223 268 321 383
#     4  10  20  41  68  96 123 169 221 264 323 389
#     4  10  20  36  66  96 121 167 213 268 320 386
#     4  11  26  41  63  96 135 174 208 274 333 396
#     4   9  21  39  67  93 118 172 212 272 315 388
#     4  10  24  40  67  95 129 169 218 274 324 390
#
# _framework density 21.671802
#
# number of rings (size 3 to 8) (size 9 to 14) (size 15 to 20)
#    0.000    1.867    1.333    2.400   13.067    2.133 
#    2.400    1.333    0.000    0.000    0.000    0.000 
#    0.000    0.000    0.000    0.000    0.000    0.000 
#
# Total GULP energy -167173.315262 kJ/mol
# GULP energy per Si atom -5572.443842 kJ/mol
# Density = 2.162248 g / cm^3
# Si number density = 21.671802 Si / 1000 Ang^3
#
#
#
# Elastic Constant Matrix: (Units=GPa)
#
#
# Indices 1 2 3 4 5 6 
#
# 1 43.1628 16.2407 5.6055 0.0000 0.0000 0.0000
# 2 16.2407 74.9403 0.4200 0.0000 0.0000 0.0000
# 3 5.6055 0.4200 41.4161 0.0000 0.0000 0.0000
# 4 0.0000 0.0000 0.0000 18.5834 0.0000 0.0000
# 5 0.0000 0.0000 0.0000 0.0000 6.8884 0.0000
# 6 0.0000 0.0000 0.0000 0.0000 0.0000 19.9348
#
#
#
# Elastic Compliance Matrix: (Units=1/GPa)
#
#
# Indices 1 2 3 4 5 6 
#
# 1 0.025701 -0.005551 -0.003422 0.000000 0.000000 0.000000
# 2 -0.005551 0.014543 0.000604 0.000000 0.000000 0.000000
# 3 -0.003422 0.000604 0.024602 0.000000 0.000000 0.000000
# 4 0.000000 0.000000 0.000000 0.053811 0.000000 0.000000
# 5 0.000000 0.000000 0.000000 0.000000 0.145172 0.000000
# 6 0.000000 0.000000 0.000000 0.000000 0.000000 0.050164
#
#
# Mechanical properties :
#
#
# Convention : Reuss Voigt Hill
#
# Bulk Modulus (GPa) = 20.78629 22.67238 21.72933
# Shear Modulus (GPa) = 14.41885 18.23153 16.32519
#
# Velocity S-wave (km/s) = 2.58219 2.90359 2.74759
# Velocity P-wave (km/s) = 4.30146 4.66106 4.48486
#
# Compressibility (1/GPa) = 0.04810864
#
# Stress axis : x y z
#
# Youngs Moduli (GPa) = 38.90890 68.75942 40.64665
#
# Poissons Ratio (x) = 0.38166 0.13910
# Poissons Ratio (y) = 0.21597 -0.02454
# Poissons Ratio (z) = 0.13316 -0.04152
#
# Static dielectric constant tensor:
#      x y z
#    x 1.832330 0.000000 0.000000 
#    y 0.000000 1.789060 0.000000 
#    z 0.000000 0.000000 1.860880 
# 
# From -- ./inp_files/8082.got.cif
#   From: 2010.05.17/outbox.cif.g08.bks.cpg/sg41_5_cif.got.tgz:8082.got - 2010.06.03 18:54:24.
