data_PCOD9365420
_publ_section_title
;
Structure prediction by ZEFSAII (Michael W. Deem and Ramdas Pophale) SiO2 
 PCOD9365420
Probable space group: A M A 2
;
_chemical_formula_sum "Si O2"
_cell_formula_units_Z 48
_cell_length_a 15.739311
_cell_length_b 18.684623
_cell_length_c 8.689569
_cell_angle_alpha 90.000000
_cell_angle_beta 90.000000
_cell_angle_gamma 90.000000
_cell_volume 2555.455322
_symmetry_space_group_name_H-M "A M A 2"
_symmetry_group_IT_number 40
_symmetry_cell_setting 'orthorhombic'
loop_
_space_group_symop_operation_xyz
x,y,z
-x,-y,z
1/2-x,y,z
1/2+x,-y,z
x,1/2+y,1/2+z
-x,1/2-y,1/2+z
1/2-x,1/2+y,1/2+z
1/2+x,1/2-y,1/2+z
loop_
_atom_site_type_symbol
_atom_site_label
_atom_site_fract_x
_atom_site_fract_y
_atom_site_fract_z
Si Si1 0.418890 0.800476 0.052710
Si Si2 0.250000 0.768267 0.503623
Si Si3 0.582902 0.038067 0.166363
Si Si4 0.750000 0.177322 0.853270
Si Si5 0.750000 0.522244 0.208246
Si Si6 0.750000 0.074851 0.361436
Si Si7 0.918359 0.290157 0.362560
Si Si8 0.915135 0.458690 0.345086
O O1 0.438987 0.882469 0.103105
O O2 0.409004 0.753385 0.205068
O O3 0.333409 0.803381 0.951256
O O4 0.496437 0.769154 0.953524
O O5 0.250000 0.787894 0.683836
O O6 0.250000 0.839752 0.395794
O O7 0.165102 0.725435 0.462659
O O8 0.665784 0.050114 0.270488
O O9 0.500000 0.000000 0.241350
O O10 0.601527 0.987764 0.018586
O O11 0.750000 0.092720 0.816283
O O12 0.834381 0.479462 0.246083
O O13 0.750000 0.542939 0.031123
O O14 0.927160 0.374441 0.335423
O O15 0.000000 0.500000 0.293585
#
# Coordination Sequence:
#
# PCOD9365420 Si02
#       8
#     8   4   8   4   4   4   8   8
#     4  12  23  43  67  97 131 175 228 278 337 403
#     4  11  24  41  66 101 134 173 222 278 346 399
#     4  11  21  44  70  95 128 180 228 266 332 411
#     4  11  22  42  68  92 132 180 217 274 343 410
#     4  11  22  39  66  95 128 171 222 270 337 398
#     4  11  24  42  66 100 134 174 217 286 344 393
#     4  12  24  42  66  99 133 171 229 282 336 406
#     4  11  22  42  67  92 127 176 223 269 331 407
#
# _framework density 18.783344
#
# number of rings (size 3 to 8) (size 9 to 14) (size 15 to 20)
#    0.000    0.667    6.667    3.000    0.000    2.000 
#    3.000    1.667    0.000    0.000    0.000    0.000 
#    0.000    0.000    0.000    0.000    0.000    0.000 
#
# Total GULP energy -134108.803000 kJ/mol
# GULP energy per Si atom -5587.866792 kJ/mol
# Density = 1.874059 g / cm^3
# Si number density = 18.783344 Si / 1000 Ang^3
#
#
#
# Elastic Constant Matrix: (Units=GPa)
#
#
# Indices 1 2 3 4 5 6 
#
# 1 170.3397 30.6857 50.4705 0.0000 0.0000 0.0000
# 2 30.6857 100.5112 37.8486 0.0000 0.0000 0.0000
# 3 50.4705 37.8486 78.3423 0.0000 0.0000 0.0000
# 4 0.0000 0.0000 0.0000 27.2805 0.0000 0.0000
# 5 0.0000 0.0000 0.0000 0.0000 14.2344 0.0000
# 6 0.0000 0.0000 0.0000 0.0000 0.0000 39.5885
#
#
#
# Elastic Compliance Matrix: (Units=1/GPa)
#
#
# Indices 1 2 3 4 5 6 
#
# 1 0.007281 -0.000558 -0.004421 0.000000 0.000000 0.000000
# 2 -0.000558 0.012204 -0.005537 0.000000 0.000000 0.000000
# 3 -0.004421 -0.005537 0.018288 0.000000 0.000000 0.000000
# 4 0.000000 0.000000 0.000000 0.036656 0.000000 0.000000
# 5 0.000000 0.000000 0.000000 0.000000 0.070252 0.000000
# 6 0.000000 0.000000 0.000000 0.000000 0.000000 0.025260
#
#
# Mechanical properties :
#
#
# Convention : Reuss Voigt Hill
#
# Bulk Modulus (GPa) = 59.73203 65.24476 62.48839
# Shear Modulus (GPa) = 25.43835 31.56658 28.50246
#
# Velocity S-wave (km/s) = 3.68408 4.10391 3.89965
# Velocity P-wave (km/s) = 7.06867 7.56749 7.32233
#
# Compressibility (1/GPa) = 0.01674144
#
# Stress axis : x y z
#
# Youngs Moduli (GPa) = 137.34192 81.93769 54.68198
#
# Poissons Ratio (x) = 0.04573 0.24175
# Poissons Ratio (y) = 0.07665 0.30275
# Poissons Ratio (z) = 0.60720 0.45366
#
# Static dielectric constant tensor:
#      x y z
#    x 1.649150 0.000000 0.000000 
#    y 0.000000 1.635220 0.000000 
#    z 0.000000 0.000000 1.633080 
# 
# From -- ./inp_files/6537.got.cif
#   From: 2010.05.17/outbox.cif.g08.bks.cpg/sg40_4_cif.got.tgz:6537.got - 2010.06.03 18:35:42.
