data_PCOD9365546
_publ_section_title
;
Structure prediction by ZEFSAII (Michael W. Deem and Ramdas Pophale) SiO2 
 PCOD9365546
Probable space group: A M A 2
;
_chemical_formula_sum "Si O2"
_cell_formula_units_Z 40
_cell_length_a 20.262503
_cell_length_b 11.996699
_cell_length_c 7.531499
_cell_angle_alpha 90.000000
_cell_angle_beta 90.000000
_cell_angle_gamma 90.000000
_cell_volume 1830.780497
_symmetry_space_group_name_H-M "A M A 2"
_symmetry_group_IT_number 40
_symmetry_cell_setting 'orthorhombic'
loop_
_space_group_symop_operation_xyz
x,y,z
-x,-y,z
1/2-x,y,z
1/2+x,-y,z
x,1/2+y,1/2+z
-x,1/2-y,1/2+z
1/2-x,1/2+y,1/2+z
1/2+x,1/2-y,1/2+z
loop_
_atom_site_type_symbol
_atom_site_label
_atom_site_fract_x
_atom_site_fract_y
_atom_site_fract_z
Si Si1 0.922858 0.755691 0.489670
Si Si2 0.176776 0.583052 0.783725
Si Si3 0.174489 0.891923 0.570746
Si Si4 0.379103 0.994423 0.927139
Si Si5 0.429609 0.226679 0.905409
O O1 0.876281 0.831524 0.366368
O O2 0.909281 0.625681 0.462883
O O3 0.910741 0.770126 0.698615
O O4 0.999080 0.779468 0.442422
O O5 0.250000 0.630515 0.809545
O O6 0.170954 0.472210 0.901723
O O7 0.168315 0.539188 0.583101
O O8 0.250000 0.852625 0.592348
O O9 0.155312 0.470196 0.237986
O O10 0.123981 0.791697 0.525702
O O11 0.431932 0.094049 0.934880
#
# Coordination Sequence:
#
# PCOD9365546 Si02
#       5
#     8   8   8   8   8
#     4  12  26  46  71 105 143 186 239 295 351 423
#     4  11  25  46  73 106 143 187 236 290 353 420
#     4  11  25  46  73 106 143 187 236 290 353 420
#     4  12  24  46  72 106 139 189 232 294 356 414
#     4  12  26  46  71 105 143 186 239 295 351 423
#
# _framework density 21.848604000000002
#
# number of rings (size 3 to 8) (size 9 to 14) (size 15 to 20)
#    0.000    0.400    4.000    4.800    0.000    6.400 
#    0.000    0.000    0.000    0.000    0.000    0.000 
#    0.000    0.000    0.000    0.000    0.000    0.000 
#
# Total GULP energy -111730.977983 kJ/mol
# GULP energy per Si atom -5586.548899 kJ/mol
# Density = 2.179888 g / cm^3
# Si number density = 21.848604 Si / 1000 Ang^3
#
#
#
# Elastic Constant Matrix: (Units=GPa)
#
#
# Indices 1 2 3 4 5 6 
#
# 1 141.6941 38.0283 5.7853 0.0000 0.0000 0.0000
# 2 38.0283 110.8571 5.5845 0.0000 0.0000 0.0000
# 3 5.7853 5.5845 104.5588 0.0000 0.0000 0.0000
# 4 0.0000 0.0000 0.0000 30.2653 0.0000 0.0000
# 5 0.0000 0.0000 0.0000 0.0000 -2.0883 0.0000
# 6 0.0000 0.0000 0.0000 0.0000 0.0000 35.4745
#
#
#
# Elastic Compliance Matrix: (Units=1/GPa)
#
#
# Indices 1 2 3 4 5 6 
#
# 1 0.007782 -0.002655 -0.000289 0.000000 0.000000 0.000000
# 2 -0.002655 0.009951 -0.000385 0.000000 0.000000 0.000000
# 3 -0.000289 -0.000385 0.009601 0.000000 0.000000 0.000000
# 4 0.000000 0.000000 0.000000 0.033041 0.000000 0.000000
# 5 0.000000 0.000000 0.000000 0.000000 -0.478867 0.000000
# 6 0.000000 0.000000 0.000000 0.000000 0.000000 0.028189
#
#
# Mechanical properties :
#
#
# Convention : Reuss Voigt Hill
#
# Bulk Modulus (GPa) = 48.36403 50.65624 49.51013
# Shear Modulus (GPa) = -13.27123 33.24441 9.98659
#
# Velocity S-wave (km/s) = -2.46726 3.90498 2.14027
# Velocity P-wave (km/s) = 3.75067 6.60055 5.36818
#
# Compressibility (1/GPa) = 0.02067653
#
# Stress axis : x y z
#
# Youngs Moduli (GPa) = 128.50530 100.49509 104.16103
#
# Poissons Ratio (x) = 0.26681 0.03008
# Poissons Ratio (y) = 0.34117 0.04006
# Poissons Ratio (z) = 0.03711 0.03865
#
# Static dielectric constant tensor:
#      x y z
#    x 1.815330 0.000000 0.000000 
#    y 0.000000 1.771640 0.000000 
#    z 0.000000 0.000000 1.847870 
# 
# From -- ./inp_files/8088.got.cif
#   From: 2010.05.17/outbox.cif.g08.bks.cpg/sg40_5_cif.got.tgz:8088.got - 2010.06.03 18:35:42.
