data_PCOD9365593
_publ_section_title
;
Structure prediction by ZEFSAII (Michael W. Deem and Ramdas Pophale) SiO2 
 PCOD9365593
Probable space group: A M A 2
;
_chemical_formula_sum "Si O2"
_cell_formula_units_Z 20
_cell_length_a 18.675017
_cell_length_b 7.908626
_cell_length_c 4.835217
_cell_angle_alpha 90.000000
_cell_angle_beta 90.000000
_cell_angle_gamma 90.000000
_cell_volume 714.131210
_symmetry_space_group_name_H-M "A M A 2"
_symmetry_group_IT_number 40
_symmetry_cell_setting 'orthorhombic'
loop_
_space_group_symop_operation_xyz
x,y,z
-x,-y,z
1/2-x,y,z
1/2+x,-y,z
x,1/2+y,1/2+z
-x,1/2-y,1/2+z
1/2-x,1/2+y,1/2+z
1/2+x,1/2-y,1/2+z
loop_
_atom_site_type_symbol
_atom_site_label
_atom_site_fract_x
_atom_site_fract_y
_atom_site_fract_z
Si Si1 0.750000 0.625186 0.790010
Si Si2 0.029090 0.167727 0.016647
Si Si3 0.675156 0.466076 0.308084
O O1 0.688841 0.611133 0.529579
O O2 0.688218 0.539227 0.009418
O O3 0.106156 0.135825 0.887213
O O4 0.975564 0.197888 0.760173
O O5 0.000000 0.000000 0.163238
O O6 0.750000 0.340726 0.355397
#
# Coordination Sequence:
#
# PCOD9365593 Si02
#       3
#     4   8   8
#     4   6  14  28  64  82 130 156 232 262 326 382
#     4  12  26  45  71 102 145 182 230 287 354 408
#     4   8  16  36  63  95 128 179 225 278 330 410
#
# _framework density 28.006060999999999
#
# number of rings (size 3 to 8) (size 9 to 14) (size 15 to 20)
#    2.400    0.000    0.000    3.600    0.000    0.000 
#    0.000    4.000    0.000    0.000    0.000    0.000 
#    0.000    0.000    0.000    0.000    0.000    0.000 
#
# Total GULP energy -55734.087001 kJ/mol
# GULP energy per Si atom -5573.408700 kJ/mol
# Density = 2.794232 g / cm^3
# Si number density = 28.006061 Si / 1000 Ang^3
#
#
#
# Elastic Constant Matrix: (Units=GPa)
#
#
# Indices 1 2 3 4 5 6 
#
# 1 108.9617 28.2807 -9.0898 0.0000 0.0000 0.0000
# 2 28.2807 119.0815 -8.9374 0.0000 0.0000 0.0000
# 3 -9.0898 -8.9374 134.8153 0.0000 0.0000 0.0000
# 4 0.0000 0.0000 0.0000 38.9074 0.0000 0.0000
# 5 0.0000 0.0000 0.0000 0.0000 29.1656 0.0000
# 6 0.0000 0.0000 0.0000 0.0000 0.0000 43.5580
#
#
#
# Elastic Compliance Matrix: (Units=1/GPa)
#
#
# Indices 1 2 3 4 5 6 
#
# 1 0.009815 -0.002293 0.000510 0.000000 0.000000 0.000000
# 2 -0.002293 0.008975 0.000440 0.000000 0.000000 0.000000
# 3 0.000510 0.000440 0.007481 0.000000 0.000000 0.000000
# 4 0.000000 0.000000 0.000000 0.025702 0.000000 0.000000
# 5 0.000000 0.000000 0.000000 0.000000 0.034287 0.000000
# 6 0.000000 0.000000 0.000000 0.000000 0.000000 0.022958
#
#
# Mechanical properties :
#
#
# Convention : Reuss Voigt Hill
#
# Bulk Modulus (GPa) = 42.39742 42.59616 42.49679
# Shear Modulus (GPa) = 41.74825 45.83321 43.79073
#
# Velocity S-wave (km/s) = 3.86513 4.04981 3.95855
# Velocity P-wave (km/s) = 5.92372 6.09185 6.00837
#
# Compressibility (1/GPa) = 0.02358634
#
# Stress axis : x y z
#
# Youngs Moduli (GPa) = 101.88338 111.41851 133.66972
#
# Poissons Ratio (x) = 0.25545 -0.06814
# Poissons Ratio (y) = 0.23359 -0.05887
# Poissons Ratio (z) = -0.05194 -0.04907
#
# Static dielectric constant tensor:
#      x y z
#    x 2.442890 0.000000 0.000000 
#    y 0.000000 2.177740 0.000000 
#    z 0.000000 0.000000 1.884260 
# 
# From -- ./inp_files/23.got.cif
#   From: 2010.05.17/outbox.cif.g08.bks.cpg/sg40_1_cif.got.tgz:23.got - 2010.06.03 18:35:42.
