data_PCOD9365378
_publ_section_title
;
Structure prediction by ZEFSAII (Michael W. Deem and Ramdas Pophale) SiO2 
 PCOD9365378
Probable space group: A M A 2
;
_chemical_formula_sum "Si O2"
_cell_formula_units_Z 48
_cell_length_a 22.071829
_cell_length_b 12.191368
_cell_length_c 8.705467
_cell_angle_alpha 90.000000
_cell_angle_beta 90.000000
_cell_angle_gamma 90.000000
_cell_volume 2342.517463
_symmetry_space_group_name_H-M "A M A 2"
_symmetry_group_IT_number 40
_symmetry_cell_setting 'orthorhombic'
loop_
_space_group_symop_operation_xyz
x,y,z
-x,-y,z
1/2-x,y,z
1/2+x,-y,z
x,1/2+y,1/2+z
-x,1/2-y,1/2+z
1/2-x,1/2+y,1/2+z
1/2+x,1/2-y,1/2+z
loop_
_atom_site_type_symbol
_atom_site_label
_atom_site_fract_x
_atom_site_fract_y
_atom_site_fract_z
Si Si1 0.511474 0.655324 0.678780
Si Si2 0.894836 0.582247 0.901150
Si Si3 0.105459 0.659032 0.474245
Si Si4 0.320739 0.602472 0.771193
Si Si5 0.082379 0.765014 0.906050
Si Si6 0.072554 0.990874 0.738444
O O1 0.552517 0.570569 0.773036
O O2 0.459063 0.628008 0.555695
O O3 0.474313 0.720262 0.807324
O O4 0.559571 0.724846 0.579436
O O5 0.889636 0.711132 0.941861
O O6 0.837881 0.519304 0.829580
O O7 0.912852 0.525185 0.060242
O O8 0.155496 0.621939 0.597572
O O9 0.105363 0.592794 0.317090
O O10 0.250000 0.623744 0.784111
O O11 0.361592 0.685897 0.872284
O O12 0.093840 0.884837 0.835479
O O13 0.000000 0.000000 0.752276
#
# Coordination Sequence:
#
# PCOD9365378 Si02
#       6
#     8   8   8   8   8   8
#     4  11  20  41  63 114 143 171 224 292 372 431
#     4  12  26  42  72 103 143 185 230 295 357 433
#     4  11  25  44  71 103 147 179 232 295 360 433
#     4  11  28  49  69  97 141 199 251 291 344 426
#     4  11  22  40  70 103 148 179 227 293 363 430
#     4  12  23  41  70 109 145 176 216 287 373 438
#
# _framework density 20.490777000000001
#
# number of rings (size 3 to 8) (size 9 to 14) (size 15 to 20)
#    0.000    0.667    6.667    1.000    9.333    0.667 
#    0.000    4.167    0.000    0.000    0.000    0.000 
#    0.000    0.000    0.000    0.000    0.000    0.000 
#
# Total GULP energy -134199.086177 kJ/mol
# GULP energy per Si atom -5591.628591 kJ/mol
# Density = 2.044414 g / cm^3
# Si number density = 20.490777 Si / 1000 Ang^3
#
#
#
# Elastic Constant Matrix: (Units=GPa)
#
#
# Indices 1 2 3 4 5 6 
#
# 1 129.8642 51.3224 69.1003 0.0000 0.0000 0.0000
# 2 51.3224 105.4320 51.0339 0.0000 0.0000 0.0000
# 3 69.1003 51.0339 98.1824 0.0000 0.0000 0.0000
# 4 0.0000 0.0000 0.0000 45.1330 0.0000 0.0000
# 5 0.0000 0.0000 0.0000 0.0000 11.9902 0.0000
# 6 0.0000 0.0000 0.0000 0.0000 0.0000 19.9851
#
#
#
# Elastic Compliance Matrix: (Units=1/GPa)
#
#
# Indices 1 2 3 4 5 6 
#
# 1 0.012784 -0.002496 -0.007700 0.000000 0.000000 0.000000
# 2 -0.002496 0.013161 -0.005084 0.000000 0.000000 0.000000
# 3 -0.007700 -0.005084 0.018247 0.000000 0.000000 0.000000
# 4 0.000000 0.000000 0.000000 0.022157 0.000000 0.000000
# 5 0.000000 0.000000 0.000000 0.000000 0.083401 0.000000
# 6 0.000000 0.000000 0.000000 0.000000 0.000000 0.050037
#
#
# Mechanical properties :
#
#
# Convention : Reuss Voigt Hill
#
# Bulk Modulus (GPa) = 73.35874 75.15464 74.25669
# Shear Modulus (GPa) = 21.28653 26.22314 23.75484
#
# Velocity S-wave (km/s) = 3.22659 3.58124 3.40853
# Velocity P-wave (km/s) = 7.05406 7.33876 7.19782
#
# Compressibility (1/GPa) = 0.01363164
#
# Stress axis : x y z
#
# Youngs Moduli (GPa) = 78.22410 75.98383 54.80371
#
# Poissons Ratio (x) = 0.18964 0.42198
# Poissons Ratio (y) = 0.19523 0.27863
# Poissons Ratio (z) = 0.60232 0.38632
#
# Static dielectric constant tensor:
#      x y z
#    x 1.679620 0.000000 0.000000 
#    y 0.000000 1.816070 0.000000 
#    z 0.000000 0.000000 1.752790 
# 
# From -- ./inp_files/8764.got.cif
#   From: 2010.05.17/outbox.cif.g08.bks.cpg/sg40_5_cif.got.tgz:8764.got - 2010.06.03 18:35:42.
