data_PCOD9365377
_publ_section_title
;
Structure prediction by ZEFSAII (Michael W. Deem and Ramdas Pophale) SiO2 
 PCOD9365377
Probable space group: A M A 2
;
_chemical_formula_sum "Si O2"
_cell_formula_units_Z 48
_cell_length_a 19.522892
_cell_length_b 9.103745
_cell_length_c 13.837738
_cell_angle_alpha 90.000000
_cell_angle_beta 90.000000
_cell_angle_gamma 90.000000
_cell_volume 2459.400969
_symmetry_space_group_name_H-M "A M A 2"
_symmetry_group_IT_number 40
_symmetry_cell_setting 'orthorhombic'
loop_
_space_group_symop_operation_xyz
x,y,z
-x,-y,z
1/2-x,y,z
1/2+x,-y,z
x,1/2+y,1/2+z
-x,1/2-y,1/2+z
1/2-x,1/2+y,1/2+z
1/2+x,1/2-y,1/2+z
loop_
_atom_site_type_symbol
_atom_site_label
_atom_site_fract_x
_atom_site_fract_y
_atom_site_fract_z
Si Si1 0.459250 0.855704 0.420510
Si Si2 0.830051 0.018065 0.510439
Si Si3 0.670475 0.690403 0.417394
Si Si4 0.462898 0.717148 0.223977
Si Si5 0.049323 0.872238 0.034841
Si Si6 0.890310 0.078123 0.721850
O O1 0.461568 0.838644 0.306056
O O2 0.501513 0.719895 0.462325
O O3 0.500000 0.000000 0.454150
O O4 0.382283 0.872842 0.457004
O O5 0.750000 0.051752 0.498552
O O6 0.840859 0.856345 0.460211
O O7 0.849867 0.036693 0.623896
O O8 0.750000 0.655612 0.431549
O O9 0.617894 0.589203 0.477364
O O10 0.650787 0.664900 0.304962
O O11 0.430556 0.774500 0.125836
O O12 0.540710 0.670196 0.199234
O O13 0.421045 0.575816 0.260805
O O14 0.000000 0.000000 0.070759
#
# Coordination Sequence:
#
# PCOD9365377 Si02
#       6
#     8   8   8   8   8   8
#     4  12  21  40  63  93 130 171 220 273 328 396
#     4  11  23  41  66  95 131 176 221 272 336 402
#     4  11  23  40  64  97 134 174 221 275 338 403
#     4  11  22  36  67  98 126 165 226 274 328 393
#     4  12  23  40  64  97 132 170 222 282 329 391
#     4  11  20  40  66  97 125 172 220 272 332 397
#
# _framework density 19.516947999999999
#
# number of rings (size 3 to 8) (size 9 to 14) (size 15 to 20)
#    0.000    0.667    6.667    2.000    0.000    0.000 
#    0.000    5.000    0.000    0.000    0.000    0.000 
#    0.000    0.000    0.000    0.000    0.000    0.000 
#
# Total GULP energy -133943.449042 kJ/mol
# GULP energy per Si atom -5580.977043 kJ/mol
# Density = 1.947253 g / cm^3
# Si number density = 19.516948 Si / 1000 Ang^3
#
#
#
# Elastic Constant Matrix: (Units=GPa)
#
#
# Indices 1 2 3 4 5 6 
#
# 1 116.5282 37.1007 35.1200 0.0000 0.0000 0.0000
# 2 37.1007 29.4124 24.2892 0.0000 0.0000 0.0000
# 3 35.1200 24.2892 113.7531 0.0000 0.0000 0.0000
# 4 0.0000 0.0000 0.0000 38.0504 0.0000 0.0000
# 5 0.0000 0.0000 0.0000 0.0000 28.3858 0.0000
# 6 0.0000 0.0000 0.0000 0.0000 0.0000 17.1724
#
#
#
# Elastic Compliance Matrix: (Units=1/GPa)
#
#
# Indices 1 2 3 4 5 6 
#
# 1 0.014385 -0.017577 -0.000688 0.000000 0.000000 0.000000
# 2 -0.017577 0.062756 -0.007973 0.000000 0.000000 0.000000
# 3 -0.000688 -0.007973 0.010706 0.000000 0.000000 0.000000
# 4 0.000000 0.000000 0.000000 0.026281 0.000000 0.000000
# 5 0.000000 0.000000 0.000000 0.000000 0.035229 0.000000
# 6 0.000000 0.000000 0.000000 0.000000 0.000000 0.058233
#
#
# Mechanical properties :
#
#
# Convention : Reuss Voigt Hill
#
# Bulk Modulus (GPa) = 28.27282 50.30152 39.28717
# Shear Modulus (GPa) = 18.39203 27.60064 22.99634
#
# Velocity S-wave (km/s) = 3.07312 3.76465 3.43633
# Velocity P-wave (km/s) = 5.20671 6.68775 5.99316
#
# Compressibility (1/GPa) = 0.03536966
#
# Stress axis : x y z
#
# Youngs Moduli (GPa) = 69.51508 15.93480 93.40664
#
# Poissons Ratio (x) = 0.28009 0.06427
# Poissons Ratio (y) = 1.22190 0.74474
# Poissons Ratio (z) = 0.04783 0.12705
#
# Static dielectric constant tensor:
#      x y z
#    x 1.654230 0.000000 0.000000 
#    y 0.000000 1.700220 0.000000 
#    z 0.000000 0.000000 1.691790 
# 
# From -- ./inp_files/17621.got.cif
#   From: 2010.05.17/outbox.cif.g08.bks.cpg/sg40_9_cif.got.tgz:17621.got - 2010.06.03 18:35:42.
