data_PCOD9365327
_publ_section_title
;
Structure prediction by ZEFSAII (Michael W. Deem and Ramdas Pophale) SiO2 
 PCOD9365327
Probable space group: A M A 2
;
_chemical_formula_sum "Si O2"
_cell_formula_units_Z 60
_cell_length_a 29.813385
_cell_length_b 12.352877
_cell_length_c 7.588969
_cell_angle_alpha 90.000000
_cell_angle_beta 90.000000
_cell_angle_gamma 90.000000
_cell_volume 2794.873683
_symmetry_space_group_name_H-M "A M A 2"
_symmetry_group_IT_number 40
_symmetry_cell_setting 'orthorhombic'
loop_
_space_group_symop_operation_xyz
x,y,z
-x,-y,z
1/2-x,y,z
1/2+x,-y,z
x,1/2+y,1/2+z
-x,1/2-y,1/2+z
1/2-x,1/2+y,1/2+z
1/2+x,1/2-y,1/2+z
loop_
_atom_site_type_symbol
_atom_site_label
_atom_site_fract_x
_atom_site_fract_y
_atom_site_fract_z
Si Si1 0.831865 0.006824 0.029430
Si Si2 0.949049 0.970786 0.500101
Si Si3 0.056989 0.215707 0.972471
Si Si4 0.372613 0.866457 0.361447
Si Si5 0.956691 0.736819 0.365862
Si Si6 0.199770 0.238301 0.083194
Si Si7 0.750000 0.645311 0.378278
Si Si8 0.425224 0.489167 0.396342
O O1 0.850582 0.077094 0.193092
O O2 0.788656 0.065927 0.957627
O O3 0.871768 0.008046 0.886961
O O4 0.820891 0.881846 0.077740
O O5 0.939368 0.847594 0.446927
O O6 0.909850 0.047991 0.428554
O O7 0.947530 0.983377 0.710530
O O8 0.000000 0.000000 0.441029
O O9 0.097297 0.257230 0.850523
O O10 0.010289 0.239367 0.878865
O O11 0.060651 0.089019 0.017477
O O12 0.058038 0.272897 0.162497
O O13 0.332575 0.825790 0.489921
O O14 0.940750 0.627702 0.460031
O O15 0.250000 0.237066 0.995315
O O16 0.211259 0.278675 0.279234
#
# Coordination Sequence:
#
# PCOD9365327 Si02
#       8
#     8   8   8   8   8   8   4   8
#     4  12  26  46  76 111 144 184 248 301 378 456
#     4  12  25  47  71 105 156 203 251 305 364 435
#     4  12  25  46  68 102 151 194 253 303 363 423
#     4  12  26  47  74 109 146 194 242 304 370 438
#     4  12  26  44  69 100 152 202 248 304 355 430
#     4  10  25  51  76 101 147 179 232 313 368 448
#     4  10  24  48  78 100 136 182 234 298 382 452
#     4  12  26  44  71 106 144 194 250 306 358 441
#
# _framework density 21.467876
#
# number of rings (size 3 to 8) (size 9 to 14) (size 15 to 20)
#    0.400    0.000    4.667    3.600    4.667    1.067 
#    0.000    1.333    0.000    0.000    0.000    0.000 
#    0.000    0.000    0.000    0.000    0.000    0.000 
#
# Total GULP energy -167098.438543 kJ/mol
# GULP energy per Si atom -5569.947951 kJ/mol
# Density = 2.141901 g / cm^3
# Si number density = 21.467876 Si / 1000 Ang^3
#
#
#
# Elastic Constant Matrix: (Units=GPa)
#
#
# Indices 1 2 3 4 5 6 
#
# 1 138.4754 58.1719 25.8122 0.0000 0.0000 0.0000
# 2 58.1719 168.8618 40.0278 0.0000 0.0000 0.0000
# 3 25.8122 40.0278 36.4038 0.0000 0.0000 0.0000
# 4 0.0000 0.0000 0.0000 -43.8231 0.0000 0.0000
# 5 0.0000 0.0000 0.0000 0.0000 13.0786 0.0000
# 6 0.0000 0.0000 0.0000 0.0000 0.0000 36.0096
#
#
#
# Elastic Compliance Matrix: (Units=1/GPa)
#
#
# Indices 1 2 3 4 5 6 
#
# 1 0.008844 -0.002110 -0.003951 0.000000 0.000000 0.000000
# 2 -0.002110 0.008513 -0.007864 0.000000 0.000000 0.000000
# 3 -0.003951 -0.007864 0.038918 0.000000 0.000000 0.000000
# 4 0.000000 0.000000 0.000000 -0.022819 0.000000 0.000000
# 5 0.000000 0.000000 0.000000 0.000000 0.076461 0.000000
# 6 0.000000 0.000000 0.000000 0.000000 0.000000 0.027770
#
#
# Mechanical properties :
#
#
# Convention : Reuss Voigt Hill
#
# Bulk Modulus (GPa) = 35.18038 65.75166 50.46602
# Shear Modulus (GPa) = 28.56916 15.70164 22.13540
#
# Velocity S-wave (km/s) = 3.65195 2.70738 3.21455
# Velocity P-wave (km/s) = 5.84854 6.36142 6.11036
#
# Compressibility (1/GPa) = 0.02842493
#
# Stress axis : x y z
#
# Youngs Moduli (GPa) = 113.06503 117.46450 25.69496
#
# Poissons Ratio (x) = 0.24789 0.10151
# Poissons Ratio (y) = 0.23861 0.20207
# Poissons Ratio (z) = 0.44669 0.92378
#
# Static dielectric constant tensor:
#      x y z
#    x 1.772970 0.000000 0.000000 
#    y 0.000000 1.871380 0.000000 
#    z 0.000000 0.000000 1.778820 
# 
# From -- ./inp_files/9162.got.cif
#   From: 2010.05.17/outbox.cif.g08.bks.cpg/sg40_5_cif.got.tgz:9162.got - 2010.06.03 18:35:42.
