data_PCOD9365770
_publ_section_title
;
Structure prediction by ZEFSAII (Michael W. Deem and Ramdas Pophale) SiO2 
 PCOD9365770
Probable space group: A B A 2
;
_chemical_formula_sum "Si O2"
_cell_formula_units_Z 64
_cell_length_a 9.187787
_cell_length_b 15.433056
_cell_length_c 22.599696
_cell_angle_alpha 90.000000
_cell_angle_beta 90.000000
_cell_angle_gamma 90.000000
_cell_volume 3204.538161
_symmetry_space_group_name_H-M "A B A 2"
_symmetry_group_IT_number 41
_symmetry_cell_setting 'orthorhombic'
loop_
_space_group_symop_operation_xyz
x,y,z
-x,-y,z
1/2-x,y,1/2+z
1/2+x,-y,1/2+z
x,1/2+y,1/2+z
-x,1/2-y,1/2+z
1/2-x,1/2+y,z
1/2+x,1/2-y,z
loop_
_atom_site_type_symbol
_atom_site_label
_atom_site_fract_x
_atom_site_fract_y
_atom_site_fract_z
Si Si1 0.042194 0.623542 0.409260
Si Si2 0.931536 0.402307 0.727010
Si Si3 0.143340 0.038223 0.787716
Si Si4 0.214180 0.083651 0.503905
Si Si5 0.196576 0.891274 0.000329
Si Si6 0.948320 0.685075 0.949676
Si Si7 0.107038 0.418533 0.832647
Si Si8 0.458849 0.102786 0.594930
O O1 0.079716 0.593568 0.343015
O O2 0.184559 0.602345 0.447273
O O3 0.008164 0.724541 0.420680
O O4 0.905940 0.582901 0.444447
O O5 0.764123 0.411344 0.748591
O O6 0.949813 0.363979 0.661883
O O7 0.000000 0.500000 0.722458
O O8 0.030123 0.363968 0.779923
O O9 0.239386 0.958116 0.813180
O O10 0.000000 0.000000 0.755972
O O11 0.306615 0.113725 0.560915
O O12 0.068818 0.134839 0.487676
O O13 0.209718 0.978826 0.511594
O O14 0.303680 0.811762 0.988941
O O15 0.086899 0.864191 0.052472
O O16 0.894700 0.629533 0.893881
O O17 0.000000 0.500000 0.842247
O O18 0.500000 0.000000 0.596417
#
# Coordination Sequence:
#
# PCOD9365770 Si02
#       8
#     8   8   8   8   8   8   8   8
#     4  11  21  32  49  75 110 140 165 205 265 320
#     4   8  16  32  53  75  97 131 175 218 258 304
#     4  10  18  31  51  74 103 138 174 211 256 312
#     4  10  19  33  52  74 101 136 174 212 254 307
#     4  10  20  33  53  75 103 140 171 208 259 318
#     4  12  21  31  49  81 111 130 169 221 260 304
#     4   9  18  31  51  73  99 133 167 208 258 313
#     4   8  16  33  53  73  97 132 177 215 259 312
#
# _framework density 19.971677
#
# number of rings (size 3 to 8) (size 9 to 14) (size 15 to 20)
#    0.000    2.500    0.000    6.750    0.000    0.000 
#    0.000    5.000    0.000    6.000    0.000    7.000 
#    0.000    0.000    0.000    0.000    0.000    0.000 
#
# Total GULP energy -178253.436788 kJ/mol
# GULP energy per Si atom -5570.419900 kJ/mol
# Density = 1.992622 g / cm^3
# Si number density = 19.971677 Si / 1000 Ang^3
#
#
#
# Elastic Constant Matrix: (Units=GPa)
#
#
# Indices 1 2 3 4 5 6 
#
# 1 137.7041 24.7120 48.0747 0.0000 0.0000 0.0000
# 2 24.7120 43.0707 11.4015 0.0000 0.0000 0.0000
# 3 48.0747 11.4015 118.5513 0.0000 0.0000 0.0000
# 4 0.0000 0.0000 0.0000 3.3682 0.0000 0.0000
# 5 0.0000 0.0000 0.0000 0.0000 7.9649 0.0000
# 6 0.0000 0.0000 0.0000 0.0000 0.0000 15.7213
#
#
#
# Elastic Compliance Matrix: (Units=1/GPa)
#
#
# Indices 1 2 3 4 5 6 
#
# 1 0.009209 -0.004407 -0.003310 0.000000 0.000000 0.000000
# 2 -0.004407 0.025933 -0.000707 0.000000 0.000000 0.000000
# 3 -0.003310 -0.000707 0.009846 0.000000 0.000000 0.000000
# 4 0.000000 0.000000 0.000000 0.296897 0.000000 0.000000
# 5 0.000000 0.000000 0.000000 0.000000 0.125551 0.000000
# 6 0.000000 0.000000 0.000000 0.000000 0.000000 0.063608
#
#
# Mechanical properties :
#
#
# Convention : Reuss Voigt Hill
#
# Bulk Modulus (GPa) = 35.53834 51.96693 43.75263
# Shear Modulus (GPa) = 8.97229 19.75342 14.36285
#
# Velocity S-wave (km/s) = 2.12185 3.14836 2.68463
# Velocity P-wave (km/s) = 4.88221 6.26842 5.61823
#
# Compressibility (1/GPa) = 0.02813863
#
# Stress axis : x y z
#
# Youngs Moduli (GPa) = 108.59478 38.56031 101.56854
#
# Poissons Ratio (x) = 0.16994 0.33623
# Poissons Ratio (y) = 0.47859 0.07180
# Poissons Ratio (z) = 0.35949 0.02726
#
# Static dielectric constant tensor:
#      x y z
#    x 1.741110 0.000000 0.000000 
#    y 0.000000 1.777180 0.000000 
#    z 0.000000 0.000000 1.759380 
# 
# From -- ./inp_files/12075.got.cif
#   From: 2010.05.17/outbox.cif.g08.bks.cpg/sg41_7_cif.got.tgz:12075.got - 2010.06.03 18:54:24.
