data_PCOD9365549
_publ_section_title
;
Structure prediction by ZEFSAII (Michael W. Deem and Ramdas Pophale) SiO2 
 PCOD9365549
Probable space group: A M A 2
;
_chemical_formula_sum "Si O2"
_cell_formula_units_Z 60
_cell_length_a 27.277737
_cell_length_b 13.535140
_cell_length_c 6.548536
_cell_angle_alpha 90.000000
_cell_angle_beta 90.000000
_cell_angle_gamma 90.000000
_cell_volume 2417.771809
_symmetry_space_group_name_H-M "A M A 2"
_symmetry_group_IT_number 40
_symmetry_cell_setting 'orthorhombic'
loop_
_space_group_symop_operation_xyz
x,y,z
-x,-y,z
1/2-x,y,z
1/2+x,-y,z
x,1/2+y,1/2+z
-x,1/2-y,1/2+z
1/2-x,1/2+y,1/2+z
1/2+x,1/2-y,1/2+z
loop_
_atom_site_type_symbol
_atom_site_label
_atom_site_fract_x
_atom_site_fract_y
_atom_site_fract_z
Si Si1 0.395173 0.545455 0.436320
Si Si2 0.194026 0.237519 0.620769
Si Si3 0.694872 0.990890 0.730677
Si Si4 0.137465 0.881658 0.429819
Si Si5 0.053258 0.676408 0.135665
Si Si6 0.880435 0.783279 0.265886
Si Si7 0.968331 0.133862 0.376144
Si Si8 0.000000 0.000000 0.047106
O O1 0.346181 0.483115 0.399833
O O2 0.405457 0.605713 0.226492
O O3 0.386024 0.619904 0.623875
O O4 0.447268 0.491276 0.446359
O O5 0.250000 0.272623 0.602723
O O6 0.196313 0.128432 0.723239
O O7 0.162261 0.313442 0.757321
O O8 0.168436 0.220299 0.402924
O O9 0.750000 0.026438 0.769750
O O10 0.674415 0.037846 0.520665
O O11 0.122542 0.808509 0.614048
O O12 0.083664 0.922711 0.369685
O O13 0.043754 0.754735 0.313758
O O14 0.075618 0.723258 0.930630
O O15 0.001608 0.627544 0.075964
O O16 0.002112 0.093436 0.195672
#
# Coordination Sequence:
#
# PCOD9365549 Si02
#       8
#     8   8   8   8   8   8   8   4
#     4  12  26  49  72 106 148 192 246 304 376 452
#     4  11  25  49  77 105 145 194 249 310 374 441
#     4  11  26  48  75 104 145 194 246 311 372 438
#     4  12  26  46  75 107 147 195 245 314 369 452
#     4  12  24  47  68 104 141 196 246 292 366 444
#     4  12  22  48  73 104 142 193 244 302 369 443
#     4  12  25  43  71 101 145 191 238 302 362 442
#     4  12  30  40  68 112 142 188 238 296 368 446
#
# _framework density 24.816240000000001
#
# number of rings (size 3 to 8) (size 9 to 14) (size 15 to 20)
#    0.000    0.267    6.667    2.000    7.467    1.600 
#    0.000    0.000    0.000    0.000    0.000    0.000 
#    0.000    0.000    0.000    0.000    0.000    0.000 
#
# Total GULP energy -167926.499862 kJ/mol
# GULP energy per Si atom -5597.549995 kJ/mol
# Density = 2.475976 g / cm^3
# Si number density = 24.816240 Si / 1000 Ang^3
#
#
#
# Elastic Constant Matrix: (Units=GPa)
#
#
# Indices 1 2 3 4 5 6 
#
# 1 233.5013 24.3119 57.5571 0.0000 0.0000 0.0000
# 2 24.3119 56.5103 28.9066 0.0000 0.0000 0.0000
# 3 57.5571 28.9066 97.5297 0.0000 0.0000 0.0000
# 4 0.0000 0.0000 0.0000 41.8166 0.0000 0.0000
# 5 0.0000 0.0000 0.0000 0.0000 30.6089 0.0000
# 6 0.0000 0.0000 0.0000 0.0000 0.0000 27.5760
#
#
#
# Elastic Compliance Matrix: (Units=1/GPa)
#
#
# Indices 1 2 3 4 5 6 
#
# 1 0.005039 -0.000762 -0.002748 0.000000 0.000000 0.000000
# 2 -0.000762 0.020974 -0.005766 0.000000 0.000000 0.000000
# 3 -0.002748 -0.005766 0.013584 0.000000 0.000000 0.000000
# 4 0.000000 0.000000 0.000000 0.023914 0.000000 0.000000
# 5 0.000000 0.000000 0.000000 0.000000 0.032670 0.000000
# 6 0.000000 0.000000 0.000000 0.000000 0.000000 0.036263
#
#
# Mechanical properties :
#
#
# Convention : Reuss Voigt Hill
#
# Bulk Modulus (GPa) = 47.52065 67.67694 57.59880
# Shear Modulus (GPa) = 31.64304 38.45136 35.04720
#
# Velocity S-wave (km/s) = 3.57472 3.94057 3.76209
# Velocity P-wave (km/s) = 6.01903 6.93069 6.49089
#
# Compressibility (1/GPa) = 0.02104348
#
# Stress axis : x y z
#
# Youngs Moduli (GPa) = 198.43681 47.67916 73.61531
#
# Poissons Ratio (x) = 0.03635 0.20230
# Poissons Ratio (y) = 0.15128 0.42449
# Poissons Ratio (z) = 0.54531 0.27494
#
# Static dielectric constant tensor:
#      x y z
#    x 2.190980 0.000000 0.000000 
#    y 0.000000 2.133870 0.000000 
#    z 0.000000 0.000000 1.978520 
# 
# From -- ./inp_files/3181.got.cif
#   From: 2010.05.17/outbox.cif.g08.bks.cpg/sg40_2_cif.got.tgz:3181.got - 2010.06.03 18:35:42.
