data_PCOD9365798
_publ_section_title
;
Structure prediction by ZEFSAII (Michael W. Deem and Ramdas Pophale) SiO2 
 PCOD9365798
Probable space group: A B A 2
;
_chemical_formula_sum "Si O2"
_cell_formula_units_Z 64
_cell_length_a 17.941624
_cell_length_b 10.754264
_cell_length_c 17.563467
_cell_angle_alpha 90.000000
_cell_angle_beta 90.000000
_cell_angle_gamma 90.000000
_cell_volume 3388.852711
_symmetry_space_group_name_H-M "A B A 2"
_symmetry_group_IT_number 41
_symmetry_cell_setting 'orthorhombic'
loop_
_space_group_symop_operation_xyz
x,y,z
-x,-y,z
1/2-x,y,1/2+z
1/2+x,-y,1/2+z
x,1/2+y,1/2+z
-x,1/2-y,1/2+z
1/2-x,1/2+y,z
1/2+x,1/2-y,z
loop_
_atom_site_type_symbol
_atom_site_label
_atom_site_fract_x
_atom_site_fract_y
_atom_site_fract_z
Si Si1 0.958104 0.373405 0.572100
Si Si2 0.162881 0.490120 0.330822
Si Si3 0.807713 0.335682 0.197277
Si Si4 0.959870 0.869463 0.635111
Si Si5 0.861219 0.375449 0.719582
Si Si6 0.316600 0.886674 0.817300
Si Si7 0.970234 0.677528 0.299305
Si Si8 0.602825 0.283912 0.915745
O O1 0.909605 0.410759 0.645941
O O2 0.911604 0.318543 0.502069
O O3 0.000000 0.500000 0.547983
O O4 0.008087 0.255132 0.596742
O O5 0.179063 0.540384 0.246579
O O6 0.231188 0.398456 0.344177
O O7 0.082451 0.429267 0.332088
O O8 0.158959 0.610096 0.384145
O O9 0.869774 0.354503 0.132017
O O10 0.718519 0.326954 0.187095
O O11 0.826467 0.218402 0.251835
O O12 0.982330 0.859260 0.724696
O O13 0.000000 0.000000 0.609427
O O14 0.843532 0.487432 0.777264
O O15 0.910957 0.277849 0.767032
O O16 0.362156 0.846864 0.891606
O O17 0.027053 0.713315 0.365714
#
# Coordination Sequence:
#
# PCOD9365798 Si02
#       8
#     8   8   8   8   8   8   8   8
#     4  11  25  42  60  90 133 171 212 260 327 387
#     4  10  18  33  62  86 116 151 210 253 312 369
#     4  10  18  35  60  90 121 154 205 265 314 374
#     4  11  20  37  64  93 123 166 212 262 310 384
#     4  10  23  35  60  93 123 161 206 267 315 378
#     4  10  20  37  59  93 120 155 211 270 316 379
#     4  11  18  34  62  90 116 155 211 254 307 368
#     4  11  23  40  61  85 123 169 205 264 316 384
#
# _framework density 18.885446999999999
#
# number of rings (size 3 to 8) (size 9 to 14) (size 15 to 20)
#    0.000    1.500    5.000    1.875    1.750    0.000 
#    2.250    5.000    0.000    0.000    0.000    0.000 
#    0.000    0.000    0.000    0.000    0.000    0.000 
#
# Total GULP energy -178231.632326 kJ/mol
# GULP energy per Si atom -5569.738510 kJ/mol
# Density = 1.884246 g / cm^3
# Si number density = 18.885447 Si / 1000 Ang^3
#
#
#
# Elastic Constant Matrix: (Units=GPa)
#
#
# Indices 1 2 3 4 5 6 
#
# 1 92.5335 29.7981 3.4878 0.0000 0.0000 0.0000
# 2 29.7981 68.8338 8.8288 0.0000 0.0000 0.0000
# 3 3.4878 8.8288 50.4764 0.0000 0.0000 0.0000
# 4 0.0000 0.0000 0.0000 16.7600 0.0000 0.0000
# 5 0.0000 0.0000 0.0000 0.0000 17.6949 0.0000
# 6 0.0000 0.0000 0.0000 0.0000 0.0000 37.1729
#
#
#
# Elastic Compliance Matrix: (Units=1/GPa)
#
#
# Indices 1 2 3 4 5 6 
#
# 1 0.012558 -0.005447 0.000085 0.000000 0.000000 0.000000
# 2 -0.005447 0.017224 -0.002636 0.000000 0.000000 0.000000
# 3 0.000085 -0.002636 0.020266 0.000000 0.000000 0.000000
# 4 0.000000 0.000000 0.000000 0.059666 0.000000 0.000000
# 5 0.000000 0.000000 0.000000 0.000000 0.056513 0.000000
# 6 0.000000 0.000000 0.000000 0.000000 0.000000 0.026901
#
#
# Mechanical properties :
#
#
# Convention : Reuss Voigt Hill
#
# Bulk Modulus (GPa) = 29.36729 32.89701 31.13215
# Shear Modulus (GPa) = 22.67821 25.64084 24.15953
#
# Velocity S-wave (km/s) = 3.46906 3.68870 3.58056
# Velocity P-wave (km/s) = 5.62404 5.96650 5.79780
#
# Compressibility (1/GPa) = 0.03405149
#
# Stress axis : x y z
#
# Youngs Moduli (GPa) = 79.63161 58.05869 49.34265
#
# Poissons Ratio (x) = 0.31626 -0.00420
# Poissons Ratio (y) = 0.43377 0.13008
# Poissons Ratio (z) = -0.00677 0.15306
#
# Static dielectric constant tensor:
#      x y z
#    x 1.728830 0.000000 0.000000 
#    y 0.000000 1.688830 0.000000 
#    z 0.000000 0.000000 1.623320 
# 
# From -- ./inp_files/10620.got.cif
#   From: 2010.05.17/outbox.cif.g08.bks.cpg/sg41_6_cif.got.tgz:10620.got - 2010.06.03 18:54:24.
