data_PCOD9365231
_publ_section_title
;
Structure prediction by ZEFSAII (Michael W. Deem and Ramdas Pophale) SiO2 
 PCOD9365231
Probable space group: A M A 2
;
_chemical_formula_sum "Si O2"
_cell_formula_units_Z 40
_cell_length_a 28.048027
_cell_length_b 7.952633
_cell_length_c 7.066457
_cell_angle_alpha 90.000000
_cell_angle_beta 90.000000
_cell_angle_gamma 90.000000
_cell_volume 1576.213266
_symmetry_space_group_name_H-M "A M A 2"
_symmetry_group_IT_number 40
_symmetry_cell_setting 'orthorhombic'
loop_
_space_group_symop_operation_xyz
x,y,z
-x,-y,z
1/2-x,y,z
1/2+x,-y,z
x,1/2+y,1/2+z
-x,1/2-y,1/2+z
1/2-x,1/2+y,1/2+z
1/2+x,1/2-y,1/2+z
loop_
_atom_site_type_symbol
_atom_site_label
_atom_site_fract_x
_atom_site_fract_y
_atom_site_fract_z
Si Si1 0.250000 0.514106 0.285700
Si Si2 0.349242 0.949986 0.815981
Si Si3 0.048238 0.904748 0.235480
Si Si4 0.250000 0.401151 0.719323
Si Si5 0.348346 0.080057 0.219634
Si Si6 0.950942 0.970922 0.643666
O O1 0.300719 0.467667 0.195757
O O2 0.250000 0.416023 0.487974
O O3 0.250000 0.713700 0.294858
O O4 0.350882 0.748806 0.843372
O O5 0.400214 0.987260 0.729724
O O6 0.342836 0.079985 0.989861
O O7 0.051023 0.730498 0.123720
O O8 0.099830 0.993087 0.225857
O O9 0.042947 0.904495 0.464506
O O10 0.000000 0.000000 0.176031
O O11 0.299747 0.486815 0.776003
O O12 0.000000 0.000000 0.757621
#
# Coordination Sequence:
#
# PCOD9365231 Si02
#       6
#     4   8   8   4   8   8
#     4  10  23  44  68 100 136 178 224 278 336 400
#     4  11  23  42  67 100 136 178 225 278 336 401
#     4  11  24  43  67 100 136 178 225 279 337 401
#     4  10  23  44  68 100 136 178 224 278 336 400
#     4  11  23  42  67 100 136 178 225 278 336 401
#     4  11  24  43  67 100 136 178 225 279 337 401
#
# _framework density 25.377276999999999
#
# number of rings (size 3 to 8) (size 9 to 14) (size 15 to 20)
#    0.000    1.200    0.000    5.400    0.000    7.200 
#    0.000    9.000    0.000    0.000    0.000    0.000 
#    0.000    0.000    0.000    0.000    0.000    0.000 
#
# Total GULP energy -111562.638096 kJ/mol
# GULP energy per Si atom -5578.131905 kJ/mol
# Density = 2.531952 g / cm^3
# Si number density = 25.377277 Si / 1000 Ang^3
#
#
#
# Elastic Constant Matrix: (Units=GPa)
#
#
# Indices 1 2 3 4 5 6 
#
# 1 294.3101 49.4717 1.7824 0.0000 0.0000 0.0000
# 2 49.4717 100.4897 -14.4785 0.0000 0.0000 0.0000
# 3 1.7824 -14.4785 105.9628 0.0000 0.0000 0.0000
# 4 0.0000 0.0000 0.0000 12.0747 0.0000 0.0000
# 5 0.0000 0.0000 0.0000 0.0000 40.7473 0.0000
# 6 0.0000 0.0000 0.0000 0.0000 0.0000 64.0064
#
#
#
# Elastic Compliance Matrix: (Units=1/GPa)
#
#
# Indices 1 2 3 4 5 6 
#
# 1 0.003715 -0.001875 -0.000319 0.000000 0.000000 0.000000
# 2 -0.001875 0.011097 0.001548 0.000000 0.000000 0.000000
# 3 -0.000319 0.001548 0.009654 0.000000 0.000000 0.000000
# 4 0.000000 0.000000 0.000000 0.082818 0.000000 0.000000
# 5 0.000000 0.000000 0.000000 0.000000 0.024542 0.000000
# 6 0.000000 0.000000 0.000000 0.000000 0.000000 0.015623
#
#
# Mechanical properties :
#
#
# Convention : Reuss Voigt Hill
#
# Bulk Modulus (GPa) = 43.14984 63.81266 53.48125
# Shear Modulus (GPa) = 31.95602 54.29813 43.12708
#
# Velocity S-wave (km/s) = 3.55242 4.63064 4.12689
# Velocity P-wave (km/s) = 5.81950 7.33421 6.62031
#
# Compressibility (1/GPa) = 0.02317506
#
# Stress axis : x y z
#
# Youngs Moduli (GPa) = 269.19055 90.11260 103.58261
#
# Poissons Ratio (x) = 0.16894 0.03301
# Poissons Ratio (y) = 0.50466 -0.16033
# Poissons Ratio (z) = 0.08578 -0.13948
#
# Static dielectric constant tensor:
#      x y z
#    x 2.052240 0.000000 0.000000 
#    y 0.000000 2.024110 0.000000 
#    z 0.000000 0.000000 2.165470 
# 
# From -- ./inp_files/9056.got.cif
#   From: 2010.05.17/outbox.cif.g08.bks.cpg/sg40_5_cif.got.tgz:9056.got - 2010.06.03 18:35:42.
