data_PCOD9365960
_publ_section_title
;
Structure prediction by ZEFSAII (Michael W. Deem and Ramdas Pophale) SiO2 
 PCOD9365960
Probable space group: A B A 2
;
_chemical_formula_sum "Si O2"
_cell_formula_units_Z 64
_cell_length_a 7.456629
_cell_length_b 15.507107
_cell_length_c 24.573498
_cell_angle_alpha 90.000000
_cell_angle_beta 90.000000
_cell_angle_gamma 90.000000
_cell_volume 2841.451851
_symmetry_space_group_name_H-M "A B A 2"
_symmetry_group_IT_number 41
_symmetry_cell_setting 'orthorhombic'
loop_
_space_group_symop_operation_xyz
x,y,z
-x,-y,z
1/2-x,y,1/2+z
1/2+x,-y,1/2+z
x,1/2+y,1/2+z
-x,1/2-y,1/2+z
1/2-x,1/2+y,z
1/2+x,1/2-y,z
loop_
_atom_site_type_symbol
_atom_site_label
_atom_site_fract_x
_atom_site_fract_y
_atom_site_fract_z
Si Si1 0.772901 0.627956 0.145380
Si Si2 0.212346 0.528099 0.450621
Si Si3 0.821190 0.811912 0.647165
Si Si4 0.830148 0.372959 0.262953
Si Si5 0.246548 0.428430 0.761469
Si Si6 0.703585 0.967357 0.574313
Si Si7 0.116938 0.684223 0.379576
Si Si8 0.201913 0.871517 0.378199
O O1 0.680175 0.714987 0.124890
O O2 0.681359 0.601822 0.202445
O O3 0.790277 0.544844 0.107921
O O4 0.975616 0.658086 0.152186
O O5 0.271893 0.539224 0.512754
O O6 0.220172 0.617942 0.418413
O O7 0.314178 0.453122 0.417725
O O8 0.000000 0.500000 0.451216
O O9 0.761135 0.820467 0.710416
O O10 0.722434 0.879420 0.608081
O O11 0.744207 0.467995 0.263443
O O12 0.800282 0.322661 0.319062
O O13 0.044543 0.396036 0.262126
O O14 0.152959 0.393653 0.815798
O O15 0.500000 0.000000 0.571457
O O16 0.113652 0.783071 0.397464
O O17 0.914426 0.649779 0.377041
#
# Coordination Sequence:
#
# PCOD9365960 Si02
#       8
#     8   8   8   8   8   8   8   8
#     4  11  22  38  60  87 117 151 189 233 286 341
#     4   9  20  38  59  79 107 149 190 227 274 332
#     4  11  22  38  60  87 117 151 189 233 286 341
#     4   9  16  31  58  85 111 145 182 223 279 342
#     4   9  16  31  58  85 111 145 182 223 279 342
#     4  11  23  40  59  83 113 151 198 241 282 332
#     4  10  19  35  59  84 111 144 181 225 278 335
#     4  10  19  35  59  84 111 144 181 225 278 335
#
# _framework density 22.523698
#
# number of rings (size 3 to 8) (size 9 to 14) (size 15 to 20)
#    0.000    2.000    2.500    1.875    0.000    1.000 
#    0.000    6.875    0.000    0.000    0.000    0.000 
#    0.000    0.000    0.000    0.000    0.000    0.000 
#
# Total GULP energy -178864.101001 kJ/mol
# GULP energy per Si atom -5589.503156 kJ/mol
# Density = 2.247243 g / cm^3
# Si number density = 22.523698 Si / 1000 Ang^3
#
#
#
# Elastic Constant Matrix: (Units=GPa)
#
#
# Indices 1 2 3 4 5 6 
#
# 1 31.1559 11.1483 12.7294 0.0000 0.0000 0.0000
# 2 11.1483 123.9611 49.5835 0.0000 0.0000 0.0000
# 3 12.7294 49.5835 140.6036 0.0000 0.0000 0.0000
# 4 0.0000 0.0000 0.0000 -7.7386 0.0000 0.0000
# 5 0.0000 0.0000 0.0000 0.0000 16.8949 0.0000
# 6 0.0000 0.0000 0.0000 0.0000 0.0000 36.3770
#
#
#
# Elastic Compliance Matrix: (Units=1/GPa)
#
#
# Indices 1 2 3 4 5 6 
#
# 1 0.033799 -0.002114 -0.002314 0.000000 0.000000 0.000000
# 2 -0.002114 0.009524 -0.003167 0.000000 0.000000 0.000000
# 3 -0.002314 -0.003167 0.008439 0.000000 0.000000 0.000000
# 4 0.000000 0.000000 0.000000 -0.129222 0.000000 0.000000
# 5 0.000000 0.000000 0.000000 0.000000 0.059189 0.000000
# 6 0.000000 0.000000 0.000000 0.000000 0.000000 0.027490
#
#
# Mechanical properties :
#
#
# Convention : Reuss Voigt Hill
#
# Bulk Modulus (GPa) = 27.34466 49.18254 38.26360
# Shear Modulus (GPa) = 136.61178 23.92396 80.26787
#
# Velocity S-wave (km/s) = 7.79642 3.26263 5.97616
# Velocity P-wave (km/s) = 9.65465 6.00636 8.04017
#
# Compressibility (1/GPa) = 0.03657021
#
# Stress axis : x y z
#
# Youngs Moduli (GPa) = 29.58693 104.99758 118.50234
#
# Poissons Ratio (x) = 0.22195 0.27427
# Poissons Ratio (y) = 0.06254 0.37533
# Poissons Ratio (z) = 0.06848 0.33255
#
# Static dielectric constant tensor:
#      x y z
#    x 1.919160 0.000000 0.000000 
#    y 0.000000 1.975870 0.000000 
#    z 0.000000 0.000000 1.826560 
# 
# From -- ./inp_files/12017.got.cif
#   From: 2010.05.17/outbox.cif.g08.bks.cpg/sg41_7_cif.got.tgz:12017.got - 2010.06.03 18:54:24.
