data_PCOD9365469
_publ_section_title
;
Structure prediction by ZEFSAII (Michael W. Deem and Ramdas Pophale) SiO2 
 PCOD9365469
Probable space group: A M A 2
;
_chemical_formula_sum "Si O2"
_cell_formula_units_Z 32
_cell_length_a 14.520014
_cell_length_b 12.543823
_cell_length_c 6.990090
_cell_angle_alpha 90.000000
_cell_angle_beta 90.000000
_cell_angle_gamma 90.000000
_cell_volume 1273.150426
_symmetry_space_group_name_H-M "A M A 2"
_symmetry_group_IT_number 40
_symmetry_cell_setting 'orthorhombic'
loop_
_space_group_symop_operation_xyz
x,y,z
-x,-y,z
1/2-x,y,z
1/2+x,-y,z
x,1/2+y,1/2+z
-x,1/2-y,1/2+z
1/2-x,1/2+y,1/2+z
1/2+x,1/2-y,1/2+z
loop_
_atom_site_type_symbol
_atom_site_label
_atom_site_fract_x
_atom_site_fract_y
_atom_site_fract_z
Si Si1 0.974983 0.606231 0.382170
Si Si2 0.645056 0.762210 0.856020
Si Si3 0.140385 0.468030 0.747714
Si Si4 0.642485 0.800661 0.398180
O O1 0.915584 0.559162 0.557130
O O2 0.915588 0.705084 0.304928
O O3 0.000000 0.500000 0.262992
O O4 0.069136 0.662894 0.446815
O O5 0.750000 0.788071 0.909729
O O6 0.628007 0.636473 0.879681
O O7 0.635143 0.785523 0.627615
O O8 0.250000 0.470995 0.703488
O O9 0.114440 0.579888 0.842272
O O10 0.750000 0.786905 0.351231
#
# Coordination Sequence:
#
# PCOD9365469 Si02
#       4
#     8   8   8   8
#     4  11  23  36  61  99 136 171 216 278 327 397
#     4   9  20  40  62  93 133 174 222 275 329 394
#     4   9  20  42  69  94 129 177 226 274 334 398
#     4   9  20  41  68  93 131 180 225 275 331 394
#
# _framework density 25.134498000000001
#
# number of rings (size 3 to 8) (size 9 to 14) (size 15 to 20)
#    0.000    2.500    0.000    2.250    7.000    2.000 
#    9.000    0.000    0.000    0.000    0.000    0.000 
#    0.000    0.000    0.000    0.000    0.000    0.000 
#
# Total GULP energy -89558.171938 kJ/mol
# GULP energy per Si atom -5597.385746 kJ/mol
# Density = 2.507729 g / cm^3
# Si number density = 25.134498 Si / 1000 Ang^3
#
#
#
# Elastic Constant Matrix: (Units=GPa)
#
#
# Indices 1 2 3 4 5 6 
#
# 1 115.9453 116.9841 18.9579 0.0000 0.0000 0.0000
# 2 116.9841 295.7066 49.4567 0.0000 0.0000 0.0000
# 3 18.9579 49.4567 94.2778 0.0000 0.0000 0.0000
# 4 0.0000 0.0000 0.0000 38.3527 0.0000 0.0000
# 5 0.0000 0.0000 0.0000 0.0000 13.2515 0.0000
# 6 0.0000 0.0000 0.0000 0.0000 0.0000 60.7182
#
#
#
# Elastic Compliance Matrix: (Units=1/GPa)
#
#
# Indices 1 2 3 4 5 6 
#
# 1 0.014355 -0.005696 0.000101 0.000000 0.000000 0.000000
# 2 -0.005696 0.005967 -0.001985 0.000000 0.000000 0.000000
# 3 0.000101 -0.001985 0.011628 0.000000 0.000000 0.000000
# 4 0.000000 0.000000 0.000000 0.026074 0.000000 0.000000
# 5 0.000000 0.000000 0.000000 0.000000 0.075463 0.000000
# 6 0.000000 0.000000 0.000000 0.000000 0.000000 0.016470
#
#
# Mechanical properties :
#
#
# Convention : Reuss Voigt Hill
#
# Bulk Modulus (GPa) = 59.55504 97.41411 78.48458
# Shear Modulus (GPa) = 29.28897 43.83321 36.56109
#
# Velocity S-wave (km/s) = 3.41734 4.18059 3.81808
# Velocity P-wave (km/s) = 6.27032 7.88317 7.12254
#
# Compressibility (1/GPa) = 0.01679119
#
# Stress axis : x y z
#
# Youngs Moduli (GPa) = 69.66107 167.58595 86.00088
#
# Poissons Ratio (x) = 0.95457 -0.00872
# Poissons Ratio (y) = 0.39679 0.17070
# Poissons Ratio (z) = -0.00706 0.33263
#
# Static dielectric constant tensor:
#      x y z
#    x 1.971010 0.000000 0.000000 
#    y 0.000000 1.992480 0.000000 
#    z 0.000000 0.000000 2.072940 
# 
# From -- ./inp_files/5884.got.cif
#   From: 2010.05.17/outbox.cif.g08.bks.cpg/sg40_3_cif.got.tgz:5884.got - 2010.06.03 18:35:42.
