data_PCOD9365914
_publ_section_title
;
Structure prediction by ZEFSAII (Michael W. Deem and Ramdas Pophale) SiO2 
 PCOD9365914
Probable space group: A B A 2
;
_chemical_formula_sum "Si O2"
_cell_formula_units_Z 40
_cell_length_a 17.850124
_cell_length_b 18.072389
_cell_length_c 5.312841
_cell_angle_alpha 90.000000
_cell_angle_beta 90.000000
_cell_angle_gamma 90.000000
_cell_volume 1713.892673
_symmetry_space_group_name_H-M "A B A 2"
_symmetry_group_IT_number 41
_symmetry_cell_setting 'orthorhombic'
loop_
_space_group_symop_operation_xyz
x,y,z
-x,-y,z
1/2-x,y,1/2+z
1/2+x,-y,1/2+z
x,1/2+y,1/2+z
-x,1/2-y,1/2+z
1/2-x,1/2+y,z
1/2+x,1/2-y,z
loop_
_atom_site_type_symbol
_atom_site_label
_atom_site_fract_x
_atom_site_fract_y
_atom_site_fract_z
Si Si1 0.540301 0.775134 0.080610
Si Si2 0.418423 0.462174 0.938971
Si Si3 0.464148 0.918537 0.944923
Si Si4 0.285202 0.058649 0.276393
Si Si5 0.789388 0.263282 0.224951
O O1 0.498312 0.769229 0.350622
O O2 0.625351 0.753328 0.136016
O O3 0.529640 0.858760 0.976564
O O4 0.500000 0.500000 0.940800
O O5 0.413196 0.412844 0.690595
O O6 0.360157 0.528021 0.903068
O O7 0.416554 0.414646 0.191355
O O8 0.500000 0.000000 0.944117
O O9 0.224704 0.033223 0.487365
O O10 0.282742 0.147242 0.257834
O O11 0.764805 0.235548 0.500684
#
# Coordination Sequence:
#
# PCOD9365914 Si02
#       5
#     8   8   8   8   8
#     4  12  25  42  66  98 130 166 219 273 322 389
#     4  10  19  33  57  85 119 157 195 244 309 371
#     4  10  21  37  62  90 121 159 202 252 309 368
#     4  10  20  34  57  91 125 157 204 263 312 363
#     4  10  21  38  63  92 125 167 215 270 327 381
#
# _framework density 23.338685000000002
#
# number of rings (size 3 to 8) (size 9 to 14) (size 15 to 20)
#    0.000    1.600    0.000    6.000    0.000    9.600 
#    0.000    0.000    0.000   24.000    0.000    0.000 
#    0.000    0.000    0.000    0.000    0.000    0.000 
#
# Total GULP energy -111608.676756 kJ/mol
# GULP energy per Si atom -5580.433838 kJ/mol
# Density = 2.328557 g / cm^3
# Si number density = 23.338685 Si / 1000 Ang^3
#
#
#
# Elastic Constant Matrix: (Units=GPa)
#
#
# Indices 1 2 3 4 5 6 
#
# 1 68.6531 6.1413 48.9795 0.0000 0.0000 0.0000
# 2 6.1413 49.8588 13.7707 0.0000 0.0000 0.0000
# 3 48.9795 13.7707 227.2035 0.0000 0.0000 0.0000
# 4 0.0000 0.0000 0.0000 21.0428 0.0000 0.0000
# 5 0.0000 0.0000 0.0000 0.0000 29.2119 0.0000
# 6 0.0000 0.0000 0.0000 0.0000 0.0000 22.6433
#
#
#
# Elastic Compliance Matrix: (Units=1/GPa)
#
#
# Indices 1 2 3 4 5 6 
#
# 1 0.017274 -0.001118 -0.003656 0.000000 0.000000 0.000000
# 2 -0.001118 0.020470 -0.001000 0.000000 0.000000 0.000000
# 3 -0.003656 -0.001000 0.005250 0.000000 0.000000 0.000000
# 4 0.000000 0.000000 0.000000 0.047522 0.000000 0.000000
# 5 0.000000 0.000000 0.000000 0.000000 0.034233 0.000000
# 6 0.000000 0.000000 0.000000 0.000000 0.000000 0.044163
#
#
# Mechanical properties :
#
#
# Convention : Reuss Voigt Hill
#
# Bulk Modulus (GPa) = 31.79918 53.72207 42.76062
# Shear Modulus (GPa) = 26.18584 33.03455 29.61019
#
# Velocity S-wave (km/s) = 3.35325 3.76632 3.56577
# Velocity P-wave (km/s) = 5.35229 6.47935 5.94260
#
# Compressibility (1/GPa) = 0.03144735
#
# Stress axis : x y z
#
# Youngs Moduli (GPa) = 57.88900 48.85086 190.47191
#
# Poissons Ratio (x) = 0.05461 0.69640
# Poissons Ratio (y) = 0.06472 0.19042
# Poissons Ratio (z) = 0.21165 0.04884
#
# Static dielectric constant tensor:
#      x y z
#    x 1.860030 0.000000 0.000000 
#    y 0.000000 1.873430 0.000000 
#    z 0.000000 0.000000 2.019050 
# 
# From -- ./inp_files/244.got.cif
#   From: 2010.05.17/outbox.cif.g08.bks.cpg/sg41_1_cif.got.tgz:244.got - 2010.06.03 18:54:24.
