data_PCOD9365157
_publ_section_title
;
Structure prediction by ZEFSAII (Michael W. Deem and Ramdas Pophale) SiO2 
 PCOD9365157
Probable space group: A M A 2
;
_chemical_formula_sum "Si O2"
_cell_formula_units_Z 52
_cell_length_a 25.878920
_cell_length_b 5.447398
_cell_length_c 19.263578
_cell_angle_alpha 90.000000
_cell_angle_beta 90.000000
_cell_angle_gamma 90.000000
_cell_volume 2715.640087
_symmetry_space_group_name_H-M "A M A 2"
_symmetry_group_IT_number 40
_symmetry_cell_setting 'orthorhombic'
loop_
_space_group_symop_operation_xyz
x,y,z
-x,-y,z
1/2-x,y,z
1/2+x,-y,z
x,1/2+y,1/2+z
-x,1/2-y,1/2+z
1/2-x,1/2+y,1/2+z
1/2+x,1/2-y,1/2+z
loop_
_atom_site_type_symbol
_atom_site_label
_atom_site_fract_x
_atom_site_fract_y
_atom_site_fract_z
Si Si1 0.000000 0.500000 0.601190
Si Si2 0.417780 0.351662 0.041813
Si Si3 0.806189 0.217726 0.153797
Si Si4 0.194273 0.778630 0.562960
Si Si5 0.919052 0.838726 0.681162
Si Si6 0.439400 0.515087 0.335665
Si Si7 0.439052 0.019619 0.398304
O O1 0.037698 0.652352 0.550934
O O2 0.038091 0.348607 0.651943
O O3 0.360204 0.261161 0.024046
O O4 0.415532 0.469011 0.118160
O O5 0.432996 0.536544 0.980985
O O6 0.750000 0.229773 0.191111
O O7 0.806318 0.458875 0.103509
O O8 0.861481 0.229419 0.191545
O O9 0.806441 0.959075 0.113078
O O10 0.250000 0.769668 0.525389
O O11 0.935641 0.956681 0.753187
O O12 0.500000 0.500000 0.354944
O O13 0.417220 0.759953 0.371316
O O14 0.416298 0.258748 0.361655
O O15 0.500000 0.000000 0.381378
#
# Coordination Sequence:
#
# PCOD9365157 Si02
#       7
#     4   8   8   8   8   8   8
#     4  12  22  32  58  94 120 152 188 258 302 348
#     4  11  23  36  58  87 120 149 196 245 296 345
#     4   9  18  34  55  82 113 149 191 237 289 344
#     4   9  18  34  55  82 113 149 191 237 289 344
#     4  11  23  36  58  87 120 149 196 245 296 345
#     4  10  23  38  55  77 114 160 191 226 283 356
#     4  10  23  38  55  77 114 160 191 226 283 356
#
# _framework density 19.148339
#
# number of rings (size 3 to 8) (size 9 to 14) (size 15 to 20)
#    0.000    1.846    1.538    2.308   10.769    0.000 
#    0.000    0.000    0.000    1.846    0.000    0.000 
#    0.000    0.000    0.000    0.000    0.000    0.308 
#
# Total GULP energy -144805.284050 kJ/mol
# GULP energy per Si atom -5569.434002 kJ/mol
# Density = 1.910476 g / cm^3
# Si number density = 19.148339 Si / 1000 Ang^3
#
#
#
# Elastic Constant Matrix: (Units=GPa)
#
#
# Indices 1 2 3 4 5 6 
#
# 1 127.6005 33.5687 -7.3262 0.0000 0.0000 0.0000
# 2 33.5687 88.5912 20.5641 0.0000 0.0000 0.0000
# 3 -7.3262 20.5641 47.3711 0.0000 0.0000 0.0000
# 4 0.0000 0.0000 0.0000 28.8960 0.0000 0.0000
# 5 0.0000 0.0000 0.0000 0.0000 -49.6089 0.0000
# 6 0.0000 0.0000 0.0000 0.0000 0.0000 -10.0952
#
#
#
# Elastic Compliance Matrix: (Units=1/GPa)
#
#
# Indices 1 2 3 4 5 6 
#
# 1 0.009131 -0.004212 0.003241 0.000000 0.000000 0.000000
# 2 -0.004212 0.014496 -0.006944 0.000000 0.000000 0.000000
# 3 0.003241 -0.006944 0.024626 0.000000 0.000000 0.000000
# 4 0.000000 0.000000 0.000000 0.034607 0.000000 0.000000
# 5 0.000000 0.000000 0.000000 0.000000 -0.020158 0.000000
# 6 0.000000 0.000000 0.000000 0.000000 0.000000 -0.099057
#
#
# Mechanical properties :
#
#
# Convention : Reuss Voigt Hill
#
# Bulk Modulus (GPa) = 30.84394 39.68623 35.26508
# Shear Modulus (GPa) = -514.58413 8.28877 -253.14768
#
# Velocity S-wave (km/s) = -16.41094 2.08281 -11.51045
# Velocity P-wave (km/s) = 18.51889 5.15314 12.57765
#
# Compressibility (1/GPa) = 0.03242128
#
# Stress axis : x y z
#
# Youngs Moduli (GPa) = 109.51522 68.98566 40.60818
#
# Poissons Ratio (x) = 0.29058 -0.13160
# Poissons Ratio (y) = 0.46130 0.28199
# Poissons Ratio (z) = -0.35491 0.47905
#
# Static dielectric constant tensor:
#      x y z
#    x 1.730060 0.000000 0.000000 
#    y 0.000000 1.741480 0.000000 
#    z 0.000000 0.000000 1.639680 
# 
# From -- ./inp_files/21577.got.cif
#   From: 2010.05.17/outbox.cif.g08.bks.cpg/sg40_11_cif.got.tgz:21577.got - 2010.06.03 18:35:42.
