data_PCOD9365809
_publ_section_title
;
Structure prediction by ZEFSAII (Michael W. Deem and Ramdas Pophale) SiO2 
 PCOD9365809
Probable space group: A B A 2
;
_chemical_formula_sum "Si O2"
_cell_formula_units_Z 44
_cell_length_a 21.242072
_cell_length_b 14.061546
_cell_length_c 5.548556
_cell_angle_alpha 90.000000
_cell_angle_beta 90.000000
_cell_angle_gamma 90.000000
_cell_volume 1657.333550
_symmetry_space_group_name_H-M "A B A 2"
_symmetry_group_IT_number 41
_symmetry_cell_setting 'orthorhombic'
loop_
_space_group_symop_operation_xyz
x,y,z
-x,-y,z
1/2-x,y,1/2+z
1/2+x,-y,1/2+z
x,1/2+y,1/2+z
-x,1/2-y,1/2+z
1/2-x,1/2+y,z
1/2+x,1/2-y,z
loop_
_atom_site_type_symbol
_atom_site_label
_atom_site_fract_x
_atom_site_fract_y
_atom_site_fract_z
Si Si1 0.872171 0.953226 0.510370
Si Si2 0.500000 0.500000 0.288431
Si Si3 0.841057 0.445285 0.517562
Si Si4 0.078370 0.246567 0.050177
Si Si5 0.729941 0.797379 0.010821
Si Si6 0.561554 0.177326 0.553077
O O1 0.855775 0.996040 0.768475
O O2 0.892380 0.859273 0.045449
O O3 0.946832 0.953652 0.460937
O O4 0.843385 0.999689 0.269498
O O5 0.535024 0.573273 0.113347
O O6 0.775942 0.389722 0.499957
O O7 0.838157 0.348929 0.019479
O O8 0.093121 0.303532 0.295055
O O9 0.002623 0.239764 0.043361
O O10 0.097412 0.295022 0.799194
O O11 0.747223 0.747663 0.757403
#
# Coordination Sequence:
#
# PCOD9365809 Si02
#       6
#     8   4   8   8   8   8
#     4  10  21  32  54  87 118 152 198 252 304 357
#     4  12  24  38  56  90 134 166 202 242 308 386
#     4  10  18  35  59  81 110 149 207 256 298 350
#     4  10  20  38  54  80 112 154 195 245 299 353
#     4   8  16  31  51  82 107 138 197 261 293 333
#     4  10  23  34  54  80 122 154 192 237 294 368
#
# _framework density 26.548669
#
# number of rings (size 3 to 8) (size 9 to 14) (size 15 to 20)
#    0.000    2.182    1.818    1.091    5.091    2.909 
#    0.000    0.000    0.000    0.000    0.000   68.727 
#    0.000    0.000    0.000    0.000    0.000    0.000 
#
# Total GULP energy -122877.318641 kJ/mol
# GULP energy per Si atom -5585.332666 kJ/mol
# Density = 2.648824 g / cm^3
# Si number density = 26.548669 Si / 1000 Ang^3
#
#
#
# Elastic Constant Matrix: (Units=GPa)
#
#
# Indices 1 2 3 4 5 6 
#
# 1 97.7466 13.0448 32.9682 0.0000 0.0000 0.0000
# 2 13.0448 65.4764 36.4060 0.0000 0.0000 0.0000
# 3 32.9682 36.4060 293.4224 0.0000 0.0000 0.0000
# 4 0.0000 0.0000 0.0000 4.1944 0.0000 0.0000
# 5 0.0000 0.0000 0.0000 0.0000 38.4022 0.0000
# 6 0.0000 0.0000 0.0000 0.0000 0.0000 21.8082
#
#
#
# Elastic Compliance Matrix: (Units=1/GPa)
#
#
# Indices 1 2 3 4 5 6 
#
# 1 0.010784 -0.001584 -0.001015 0.000000 0.000000 0.000000
# 2 -0.001584 0.016637 -0.001886 0.000000 0.000000 0.000000
# 3 -0.001015 -0.001886 0.003756 0.000000 0.000000 0.000000
# 4 0.000000 0.000000 0.000000 0.238411 0.000000 0.000000
# 5 0.000000 0.000000 0.000000 0.000000 0.026040 0.000000
# 6 0.000000 0.000000 0.000000 0.000000 0.000000 0.045854
#
#
# Mechanical properties :
#
#
# Convention : Reuss Voigt Hill
#
# Bulk Modulus (GPa) = 45.03178 69.05371 57.04274
# Shear Modulus (GPa) = 13.97207 37.82939 25.90073
#
# Velocity S-wave (km/s) = 2.29657 3.77889 3.12684
# Velocity P-wave (km/s) = 4.90215 6.71615 5.87953
#
# Compressibility (1/GPa) = 0.02220654
#
# Stress axis : x y z
#
# Youngs Moduli (GPa) = 92.72711 60.10678 266.23018
#
# Poissons Ratio (x) = 0.09522 0.27026
# Poissons Ratio (y) = 0.14689 0.50217
# Poissons Ratio (z) = 0.09413 0.11338
#
# Static dielectric constant tensor:
#      x y z
#    x 2.112100 0.000000 0.000000 
#    y 0.000000 2.036110 0.000000 
#    z 0.000000 0.000000 2.223010 
# 
# From -- ./inp_files/1308.got.cif
#   From: 2010.05.17/outbox.cif.g08.bks.cpg/sg41_1_cif.got.tgz:1308.got - 2010.06.03 18:54:24.
