data_PCOD9365800
_publ_section_title
;
Structure prediction by ZEFSAII (Michael W. Deem and Ramdas Pophale) SiO2 
 PCOD9365800
Probable space group: A B A 2
;
_chemical_formula_sum "Si O2"
_cell_formula_units_Z 52
_cell_length_a 18.730446
_cell_length_b 8.484653
_cell_length_c 16.383307
_cell_angle_alpha 90.000000
_cell_angle_beta 90.000000
_cell_angle_gamma 90.000000
_cell_volume 2603.657018
_symmetry_space_group_name_H-M "A B A 2"
_symmetry_group_IT_number 41
_symmetry_cell_setting 'orthorhombic'
loop_
_space_group_symop_operation_xyz
x,y,z
-x,-y,z
1/2-x,y,1/2+z
1/2+x,-y,1/2+z
x,1/2+y,1/2+z
-x,1/2-y,1/2+z
1/2-x,1/2+y,z
1/2+x,1/2-y,z
loop_
_atom_site_type_symbol
_atom_site_label
_atom_site_fract_x
_atom_site_fract_y
_atom_site_fract_z
Si Si1 0.420116 0.533429 0.995000
Si Si2 0.000000 0.500000 0.030067
Si Si3 0.350399 0.659575 0.142133
Si Si4 0.632721 0.653865 0.433381
Si Si5 0.786075 0.021743 0.580909
Si Si6 0.101150 0.747698 0.101409
Si Si7 0.916893 0.539166 0.762703
O O1 0.500000 0.500000 0.964292
O O2 0.374434 0.655809 0.941598
O O3 0.417397 0.628463 0.081577
O O4 0.393988 0.361666 0.022277
O O5 0.964081 0.368885 0.085577
O O6 0.937859 0.577868 0.975661
O O7 0.317709 0.831563 0.131653
O O8 0.292150 0.532830 0.108518
O O9 0.376714 0.617233 0.231302
O O10 0.697673 0.582204 0.487935
O O11 0.625244 0.605856 0.340006
O O12 0.831050 0.865514 0.599854
O O13 0.089715 0.842675 0.185172
O O14 0.000000 0.500000 0.779577
#
# Coordination Sequence:
#
# PCOD9365800 Si02
#       7
#     8   4   8   8   8   8   8
#     4  10  18  34  59  86 118 166 199 249 294 376
#     4  10  18  34  56  84 122 154 206 240 286 376
#     4  10  20  38  62  88 119 158 216 247 310 373
#     4  10  21  38  59  90 125 158 201 258 317 357
#     4  10  22  40  65  86 114 169 213 254 301 384
#     4  10  20  34  60  87 120 161 212 242 303 370
#     4  11  23  38  60  95 132 160 195 265 323 356
#
# _framework density 19.971907999999999
#
# number of rings (size 3 to 8) (size 9 to 14) (size 15 to 20)
#    0.000    1.846    2.308    3.692    4.308    0.000 
#    1.385    9.231    0.000    0.000    0.000    0.000 
#    0.000    0.000    0.000    0.000    0.000    0.000 
#
# Total GULP energy -144868.836783 kJ/mol
# GULP energy per Si atom -5571.878338 kJ/mol
# Density = 1.992645 g / cm^3
# Si number density = 19.971908 Si / 1000 Ang^3
#
#
#
# Elastic Constant Matrix: (Units=GPa)
#
#
# Indices 1 2 3 4 5 6 
#
# 1 60.8564 12.8404 5.8534 0.0000 0.0000 0.0000
# 2 12.8404 105.6920 23.9457 0.0000 0.0000 0.0000
# 3 5.8534 23.9457 94.1521 0.0000 0.0000 0.0000
# 4 0.0000 0.0000 0.0000 25.9293 0.0000 0.0000
# 5 0.0000 0.0000 0.0000 0.0000 12.6665 0.0000
# 6 0.0000 0.0000 0.0000 0.0000 0.0000 38.8106
#
#
#
# Elastic Compliance Matrix: (Units=1/GPa)
#
#
# Indices 1 2 3 4 5 6 
#
# 1 0.016892 -0.001925 -0.000561 0.000000 0.000000 0.000000
# 2 -0.001925 0.010259 -0.002490 0.000000 0.000000 0.000000
# 3 -0.000561 -0.002490 0.011289 0.000000 0.000000 0.000000
# 4 0.000000 0.000000 0.000000 0.038566 0.000000 0.000000
# 5 0.000000 0.000000 0.000000 0.000000 0.078948 0.000000
# 6 0.000000 0.000000 0.000000 0.000000 0.000000 0.025766
#
#
# Mechanical properties :
#
#
# Convention : Reuss Voigt Hill
#
# Bulk Modulus (GPa) = 35.09992 38.44216 36.77104
# Shear Modulus (GPa) = 24.85472 30.01869 27.43671
#
# Velocity S-wave (km/s) = 3.53155 3.88112 3.71045
# Velocity P-wave (km/s) = 5.85166 6.27487 6.06696
#
# Compressibility (1/GPa) = 0.02849009
#
# Stress axis : x y z
#
# Youngs Moduli (GPa) = 59.19869 97.47170 88.58076
#
# Poissons Ratio (x) = 0.18765 0.04965
# Poissons Ratio (y) = 0.11397 0.22053
# Poissons Ratio (z) = 0.03318 0.24266
#
# Static dielectric constant tensor:
#      x y z
#    x 1.794670 0.000000 0.000000 
#    y 0.000000 1.761510 0.000000 
#    z 0.000000 0.000000 1.697610 
# 
# From -- ./inp_files/8961.got.cif
#   From: 2010.05.17/outbox.cif.g08.bks.cpg/sg41_5_cif.got.tgz:8961.got - 2010.06.03 18:54:24.
