data_PCOD9365739
_publ_section_title
;
Structure prediction by ZEFSAII (Michael W. Deem and Ramdas Pophale) SiO2 
 PCOD9365739
Probable space group: A B A 2
;
_chemical_formula_sum "Si O2"
_cell_formula_units_Z 56
_cell_length_a 18.173845
_cell_length_b 5.442914
_cell_length_c 28.051033
_cell_angle_alpha 90.000000
_cell_angle_beta 90.000000
_cell_angle_gamma 90.000000
_cell_volume 2774.771028
_symmetry_space_group_name_H-M "A B A 2"
_symmetry_group_IT_number 41
_symmetry_cell_setting 'orthorhombic'
loop_
_space_group_symop_operation_xyz
x,y,z
-x,-y,z
1/2-x,y,1/2+z
1/2+x,-y,1/2+z
x,1/2+y,1/2+z
-x,1/2-y,1/2+z
1/2-x,1/2+y,z
1/2+x,1/2-y,z
loop_
_atom_site_type_symbol
_atom_site_label
_atom_site_fract_x
_atom_site_fract_y
_atom_site_fract_z
Si Si1 0.796456 0.727598 0.751230
Si Si2 0.049472 0.748105 0.195424
Si Si3 0.045755 0.748940 0.086873
Si Si4 0.901722 0.143276 0.983877
Si Si5 0.705243 0.220033 0.864966
Si Si6 0.754263 0.609953 0.016607
Si Si7 0.603298 0.139672 0.949490
O O1 0.751099 0.475405 0.739806
O O2 0.876658 0.736756 0.726765
O O3 0.808856 0.724092 0.808445
O O4 0.076376 0.726110 0.140222
O O5 0.000000 0.500000 0.204789
O O6 0.000000 0.000000 0.200439
O O7 0.092398 0.786574 0.039368
O O8 0.000000 0.500000 0.078485
O O9 0.000000 0.000000 0.088698
O O10 0.813101 0.111552 0.979038
O O11 0.929463 0.367365 0.951751
O O12 0.934327 0.876905 0.972491
O O13 0.749951 0.469534 0.875758
O O14 0.633017 0.208311 0.897665
O O15 0.746191 0.360820 0.045475
O O16 0.827558 0.605455 0.985642
#
# Coordination Sequence:
#
# PCOD9365739 Si02
#       7
#     8   8   8   8   8   8   8
#     4  10  21  37  60  92 123 149 190 254 312 347
#     4  10  21  40  65  86 113 159 204 240 294 374
#     4  10  21  37  55  74  97 137 193 237 278 343
#     4  10  18  29  47  69  97 129 168 217 258 301
#     4  10  18  30  51  79 111 146 181 223 283 350
#     4   8  14  23  37  60  90 118 150 187 233 294
#     4  10  17  28  47  74 105 138 172 208 260 333
#
# _framework density 20.181846
#
# number of rings (size 3 to 8) (size 9 to 14) (size 15 to 20)
#    0.000    2.286    0.000    5.143    0.000    0.000 
#    0.000    4.286    0.000    5.143    0.000    0.000 
#    0.000    0.000    0.000    0.000    0.000    0.000 
#
# Total GULP energy -155927.226302 kJ/mol
# GULP energy per Si atom -5568.829511 kJ/mol
# Density = 2.013591 g / cm^3
# Si number density = 20.181846 Si / 1000 Ang^3
#
#
#
# Elastic Constant Matrix: (Units=GPa)
#
#
# Indices 1 2 3 4 5 6 
#
# 1 75.3527 41.2646 46.6502 0.0000 0.0000 0.0000
# 2 41.2646 207.7116 42.5950 0.0000 0.0000 0.0000
# 3 46.6502 42.5950 90.6355 0.0000 0.0000 0.0000
# 4 0.0000 0.0000 0.0000 22.2110 0.0000 0.0000
# 5 0.0000 0.0000 0.0000 0.0000 32.5313 0.0000
# 6 0.0000 0.0000 0.0000 0.0000 0.0000 33.4396
#
#
#
# Elastic Compliance Matrix: (Units=1/GPa)
#
#
# Indices 1 2 3 4 5 6 
#
# 1 0.020264 -0.002088 -0.009449 0.000000 0.000000 0.000000
# 2 -0.002088 0.005543 -0.001530 0.000000 0.000000 0.000000
# 3 -0.009449 -0.001530 0.016616 0.000000 0.000000 0.000000
# 4 0.000000 0.000000 0.000000 0.045023 0.000000 0.000000
# 5 0.000000 0.000000 0.000000 0.000000 0.030740 0.000000
# 6 0.000000 0.000000 0.000000 0.000000 0.000000 0.029905
#
#
# Mechanical properties :
#
#
# Convention : Reuss Voigt Hill
#
# Bulk Modulus (GPa) = 61.39230 70.52439 65.95835
# Shear Modulus (GPa) = 27.83149 33.84906 30.84027
#
# Velocity S-wave (km/s) = 3.71757 4.09981 3.91336
# Velocity P-wave (km/s) = 6.99376 7.57836 7.29192
#
# Compressibility (1/GPa) = 0.01628869
#
# Stress axis : x y z
#
# Youngs Moduli (GPa) = 49.34888 180.40775 60.18473
#
# Poissons Ratio (x) = 0.37671 0.56866
# Poissons Ratio (y) = 0.10305 0.09210
# Poissons Ratio (z) = 0.46627 0.27607
#
# Static dielectric constant tensor:
#      x y z
#    x 1.765270 0.000000 0.000000 
#    y 0.000000 1.826600 0.000000 
#    z 0.000000 0.000000 1.688690 
# 
# From -- ./inp_files/12308.got.cif
#   From: 2010.05.17/outbox.cif.g08.bks.cpg/sg41_7_cif.got.tgz:12308.got - 2010.06.03 18:54:24.
