data_PCOD9365099
_publ_section_title
;
Structure prediction by ZEFSAII (Michael W. Deem and Ramdas Pophale) SiO2 
 PCOD9365099
Probable space group: A M A 2
;
_chemical_formula_sum "Si O2"
_cell_formula_units_Z 64
_cell_length_a 33.028866
_cell_length_b 9.898507
_cell_length_c 9.997392
_cell_angle_alpha 90.000000
_cell_angle_beta 90.000000
_cell_angle_gamma 90.000000
_cell_volume 3268.511963
_symmetry_space_group_name_H-M "A M A 2"
_symmetry_group_IT_number 40
_symmetry_cell_setting 'orthorhombic'
loop_
_space_group_symop_operation_xyz
x,y,z
-x,-y,z
1/2-x,y,z
1/2+x,-y,z
x,1/2+y,1/2+z
-x,1/2-y,1/2+z
1/2-x,1/2+y,1/2+z
1/2+x,1/2-y,1/2+z
loop_
_atom_site_type_symbol
_atom_site_label
_atom_site_fract_x
_atom_site_fract_y
_atom_site_fract_z
Si Si1 0.164529 0.353026 0.987860
Si Si2 0.920733 0.750650 0.396575
Si Si3 0.515621 0.648107 0.181570
Si Si4 0.429739 0.285780 0.681069
Si Si5 0.426294 0.940995 0.451525
Si Si6 0.664362 0.181492 0.787674
Si Si7 0.703246 0.865688 0.500469
Si Si8 0.851070 0.866275 0.763125
O O1 0.118137 0.403919 0.005585
O O2 0.190146 0.485336 0.948407
O O3 0.163381 0.236985 0.877295
O O4 0.177696 0.301976 0.133959
O O5 0.954578 0.699530 0.296267
O O6 0.916540 0.665578 0.533684
O O7 0.878407 0.753211 0.319053
O O8 0.931704 0.898916 0.451113
O O9 0.500000 0.500000 0.218315
O O10 0.476075 0.739772 0.170782
O O11 0.540431 0.631929 0.043176
O O12 0.427578 0.394804 0.798217
O O13 0.397943 0.169459 0.728907
O O14 0.694824 0.251094 0.890612
O O15 0.656385 0.021088 0.805079
O O16 0.750000 0.867687 0.539740
O O17 0.674580 0.841622 0.628465
#
# Coordination Sequence:
#
# PCOD9365099 Si02
#       8
#     8   8   8   8   8   8   8   8
#     4  10  22  43  69  95 128 171 213 263 323 387
#     4  12  22  42  63  90 126 168 214 266 319 378
#     4  12  24  40  61  87 129 167 212 269 313 369
#     4  11  23  40  62  92 126 168 214 262 316 372
#     4  11  23  43  64  89 126 171 218 262 319 381
#     4  11  21  39  68  97 127 171 213 262 323 388
#     4  11  24  43  68  97 128 166 213 266 324 388
#     4  10  23  43  67  95 131 169 211 263 322 388
#
# _framework density 19.580777000000001
#
# number of rings (size 3 to 8) (size 9 to 14) (size 15 to 20)
#    0.000    1.000    5.000    2.250    0.000    4.500 
#    4.500    0.000    0.000    0.000    0.000    0.000 
#    0.000    0.000    0.000    0.000    0.000    0.000 
#
# Total GULP energy -178808.814711 kJ/mol
# GULP energy per Si atom -5587.775460 kJ/mol
# Density = 1.953621 g / cm^3
# Si number density = 19.580777 Si / 1000 Ang^3
#
#
#
# Elastic Constant Matrix: (Units=GPa)
#
#
# Indices 1 2 3 4 5 6 
#
# 1 76.1598 9.2781 9.2059 0.0000 0.0000 0.0000
# 2 9.2781 34.1668 46.6612 0.0000 0.0000 0.0000
# 3 9.2059 46.6612 109.5559 0.0000 0.0000 0.0000
# 4 0.0000 0.0000 0.0000 29.3440 0.0000 0.0000
# 5 0.0000 0.0000 0.0000 0.0000 17.8476 0.0000
# 6 0.0000 0.0000 0.0000 0.0000 0.0000 18.5103
#
#
#
# Elastic Compliance Matrix: (Units=1/GPa)
#
#
# Indices 1 2 3 4 5 6 
#
# 1 0.013628 -0.005108 0.001030 0.000000 0.000000 0.000000
# 2 -0.005108 0.071878 -0.030185 0.000000 0.000000 0.000000
# 3 0.001030 -0.030185 0.021897 0.000000 0.000000 0.000000
# 4 0.000000 0.000000 0.000000 0.034079 0.000000 0.000000
# 5 0.000000 0.000000 0.000000 0.000000 0.056030 0.000000
# 6 0.000000 0.000000 0.000000 0.000000 0.000000 0.054024
#
#
# Mechanical properties :
#
#
# Convention : Reuss Voigt Hill
#
# Bulk Modulus (GPa) = 25.72079 38.90808 32.31443
# Shear Modulus (GPa) = 15.01415 23.45620 19.23517
#
# Velocity S-wave (km/s) = 2.77208 3.46485 3.13765
# Velocity P-wave (km/s) = 4.83841 5.99338 5.44660
#
# Compressibility (1/GPa) = 0.03887906
#
# Stress axis : x y z
#
# Youngs Moduli (GPa) = 73.37839 13.91246 45.66801
#
# Poissons Ratio (x) = 0.07106 -0.04705
# Poissons Ratio (y) = 0.37481 1.37847
# Poissons Ratio (z) = -0.07561 0.41994
#
# Static dielectric constant tensor:
#      x y z
#    x 1.676040 0.000000 0.000000 
#    y 0.000000 1.690590 0.000000 
#    z 0.000000 0.000000 1.685780 
# 
# From -- ./inp_files/9434.got.cif
#   From: 2010.05.17/outbox.cif.g08.bks.cpg/sg40_5_cif.got.tgz:9434.got - 2010.06.03 18:35:42.
