data_PCOD9365703
_publ_section_title
;
Structure prediction by ZEFSAII (Michael W. Deem and Ramdas Pophale) SiO2 
 PCOD9365703
Probable space group: A B A 2
;
_chemical_formula_sum "Si O2"
_cell_formula_units_Z 44
_cell_length_a 26.240498
_cell_length_b 13.957363
_cell_length_c 5.417067
_cell_angle_alpha 90.000000
_cell_angle_beta 90.000000
_cell_angle_gamma 90.000000
_cell_volume 1983.990799
_symmetry_space_group_name_H-M "A B A 2"
_symmetry_group_IT_number 41
_symmetry_cell_setting 'orthorhombic'
loop_
_space_group_symop_operation_xyz
x,y,z
-x,-y,z
1/2-x,y,1/2+z
1/2+x,-y,1/2+z
x,1/2+y,1/2+z
-x,1/2-y,1/2+z
1/2-x,1/2+y,z
1/2+x,1/2-y,z
loop_
_atom_site_type_symbol
_atom_site_label
_atom_site_fract_x
_atom_site_fract_y
_atom_site_fract_z
Si Si1 0.237997 0.804058 0.539070
Si Si2 0.000000 0.000000 0.227850
Si Si3 0.521128 0.206408 0.943166
Si Si4 0.278894 0.018574 0.524357
Si Si5 0.877600 0.132633 0.527595
Si Si6 0.608820 0.011809 0.524136
O O1 0.246797 0.751089 0.285216
O O2 0.272867 0.900864 0.526900
O O3 0.179605 0.833070 0.553979
O O4 0.989508 0.093959 0.391815
O O5 0.949116 0.976115 0.068150
O O6 0.507897 0.257841 0.685907
O O7 0.580934 0.215857 0.001285
O O8 0.247160 0.045507 0.281861
O O9 0.338275 0.047910 0.506372
O O10 0.881279 0.072459 0.274687
O O11 0.891587 0.072508 0.771698
#
# Coordination Sequence:
#
# PCOD9365703 Si02
#       6
#     8   4   8   8   8   8
#     4  10  15  25  46  80 118 143 195 259 300 364
#     4  10  26  42  66  96 128 172 224 260 318 390
#     4  11  25  44  64  91 130 169 216 266 320 378
#     4  10  15  26  45  78 120 145 195 260 304 362
#     4  11  19  32  55  84 121 158 203 258 309 373
#     4  11  19  32  53  85 125 156 203 266 304 371
#
# _framework density 22.177522
#
# number of rings (size 3 to 8) (size 9 to 14) (size 15 to 20)
#    0.000    1.455    7.273    2.182    0.000    6.545 
#    0.000    0.000    0.000    0.000    0.000    7.636 
#    0.000    0.000    0.000    0.000    0.000    0.000 
#
# Total GULP energy -122758.233802 kJ/mol
# GULP energy per Si atom -5579.919718 kJ/mol
# Density = 2.212704 g / cm^3
# Si number density = 22.177522 Si / 1000 Ang^3
#
#
#
# Elastic Constant Matrix: (Units=GPa)
#
#
# Indices 1 2 3 4 5 6 
#
# 1 181.6825 6.0165 44.9808 0.0000 0.0000 0.0000
# 2 6.0165 62.1979 16.3705 0.0000 0.0000 0.0000
# 3 44.9808 16.3705 208.1282 0.0000 0.0000 0.0000
# 4 0.0000 0.0000 0.0000 -18.8242 0.0000 0.0000
# 5 0.0000 0.0000 0.0000 0.0000 41.5885 0.0000
# 6 0.0000 0.0000 0.0000 0.0000 0.0000 -0.9738
#
#
#
# Elastic Compliance Matrix: (Units=1/GPa)
#
#
# Indices 1 2 3 4 5 6 
#
# 1 0.005819 -0.000237 -0.001239 0.000000 0.000000 0.000000
# 2 -0.000237 0.016427 -0.001241 0.000000 0.000000 0.000000
# 3 -0.001239 -0.001241 0.005170 0.000000 0.000000 0.000000
# 4 0.000000 0.000000 0.000000 -0.053123 0.000000 0.000000
# 5 0.000000 0.000000 0.000000 0.000000 0.024045 0.000000
# 6 0.000000 0.000000 0.000000 0.000000 0.000000 -1.026890
#
#
# Mechanical properties :
#
#
# Convention : Reuss Voigt Hill
#
# Bulk Modulus (GPa) = 45.49014 65.19380 55.34197
# Shear Modulus (GPa) = -4.92227 30.00081 12.53927
#
# Velocity S-wave (km/s) = -1.49141 3.68198 2.38040
# Velocity P-wave (km/s) = 4.19412 6.89464 5.70643
#
# Compressibility (1/GPa) = 0.02198278
#
# Stress axis : x y z
#
# Youngs Moduli (GPa) = 171.86037 60.87452 193.42021
#
# Poissons Ratio (x) = 0.01441 0.23963
# Poissons Ratio (y) = 0.04069 0.24002
# Poissons Ratio (z) = 0.21292 0.07554
#
# Static dielectric constant tensor:
#      x y z
#    x 1.846070 0.000000 0.000000 
#    y 0.000000 1.835070 0.000000 
#    z 0.000000 0.000000 1.858760 
# 
# From -- ./inp_files/1102.got.cif
#   From: 2010.05.17/outbox.cif.g08.bks.cpg/sg41_1_cif.got.tgz:1102.got - 2010.06.03 18:54:24.
