data_PCOD9365382
_publ_section_title
;
Structure prediction by ZEFSAII (Michael W. Deem and Ramdas Pophale) SiO2 
 PCOD9365382
Probable space group: A M A 2
;
_chemical_formula_sum "Si O2"
_cell_formula_units_Z 64
_cell_length_a 16.698421
_cell_length_b 11.887423
_cell_length_c 15.736240
_cell_angle_alpha 90.000000
_cell_angle_beta 90.000000
_cell_angle_gamma 90.000000
_cell_volume 3123.662427
_symmetry_space_group_name_H-M "A M A 2"
_symmetry_group_IT_number 40
_symmetry_cell_setting 'orthorhombic'
loop_
_space_group_symop_operation_xyz
x,y,z
-x,-y,z
1/2-x,y,z
1/2+x,-y,z
x,1/2+y,1/2+z
-x,1/2-y,1/2+z
1/2-x,1/2+y,1/2+z
1/2+x,1/2-y,1/2+z
loop_
_atom_site_type_symbol
_atom_site_label
_atom_site_fract_x
_atom_site_fract_y
_atom_site_fract_z
Si Si1 0.595649 0.020590 0.356820
Si Si2 0.916403 0.677491 0.698247
Si Si3 0.589593 0.049075 0.862900
Si Si4 0.660489 0.272845 0.823089
Si Si5 0.913979 0.561816 0.047957
Si Si6 0.157479 0.577438 0.200446
Si Si7 0.097591 0.989186 0.051367
Si Si8 0.903277 0.790837 0.146459
O O1 0.638372 0.901119 0.342921
O O2 0.500000 0.000000 0.354946
O O3 0.612185 0.107234 0.280276
O O4 0.616384 0.063402 0.451223
O O5 0.891963 0.806929 0.702569
O O6 0.885196 0.616166 0.612648
O O7 0.013036 0.673662 0.691355
O O8 0.596146 0.184195 0.858794
O O9 0.500000 0.000000 0.857760
O O10 0.634628 0.997742 0.782031
O O11 0.625029 0.018320 0.954656
O O12 0.750000 0.246039 0.853842
O O13 0.655654 0.258280 0.721718
O O14 0.861683 0.491056 0.114728
O O15 0.920892 0.687095 0.084876
O O16 0.000000 0.500000 0.047949
O O17 0.250000 0.606587 0.203740
O O18 0.127622 0.101805 0.095856
O O19 0.000000 0.000000 0.047818
#
# Coordination Sequence:
#
# PCOD9365382 Si02
#       8
#     8   8   8   8   8   8   8   8
#     4  11  24  41  71 100 130 172 225 278 330 401
#     4  11  21  43  68  96 128 169 221 275 334 392
#     4  11  24  42  70  97 127 173 224 277 328 403
#     4  12  25  43  67  96 135 180 223 275 339 401
#     4  11  24  40  67 100 128 172 226 269 328 401
#     4  12  26  42  60  91 135 174 211 271 338 399
#     4   9  21  38  68  99 121 158 218 274 325 381
#     4  11  20  42  69  93 128 171 217 276 321 397
#
# _framework density 20.488769000000001
#
# number of rings (size 3 to 8) (size 9 to 14) (size 15 to 20)
#    0.000    1.000    5.000    1.875    3.500    3.000 
#    0.000    1.875    0.000    0.000    0.000    0.000 
#    0.000    0.000    0.000    0.000    0.000    0.000 
#
# Total GULP energy -178838.403559 kJ/mol
# GULP energy per Si atom -5588.700111 kJ/mol
# Density = 2.044214 g / cm^3
# Si number density = 20.488769 Si / 1000 Ang^3
#
#
#
# Elastic Constant Matrix: (Units=GPa)
#
#
# Indices 1 2 3 4 5 6 
#
# 1 37.5073 -4.0662 9.4371 0.0000 0.0000 0.0000
# 2 -4.0662 109.0816 38.8289 0.0000 0.0000 0.0000
# 3 9.4371 38.8289 144.8916 0.0000 0.0000 0.0000
# 4 0.0000 0.0000 0.0000 24.1141 0.0000 0.0000
# 5 0.0000 0.0000 0.0000 0.0000 -16.9378 0.0000
# 6 0.0000 0.0000 0.0000 0.0000 0.0000 2.5181
#
#
#
# Elastic Compliance Matrix: (Units=1/GPa)
#
#
# Indices 1 2 3 4 5 6 
#
# 1 0.027433 0.001834 -0.002278 0.000000 0.000000 0.000000
# 2 0.001834 0.010257 -0.002868 0.000000 0.000000 0.000000
# 3 -0.002278 -0.002868 0.007819 0.000000 0.000000 0.000000
# 4 0.000000 0.000000 0.000000 0.041470 0.000000 0.000000
# 5 0.000000 0.000000 0.000000 0.000000 -0.059039 0.000000
# 6 0.000000 0.000000 0.000000 0.000000 0.000000 0.397118
#
#
# Mechanical properties :
#
#
# Convention : Reuss Voigt Hill
#
# Bulk Modulus (GPa) = 25.71786 42.20891 33.96338
# Shear Modulus (GPa) = 11.24497 18.42426 14.83461
#
# Velocity S-wave (km/s) = 2.34527 3.00198 2.69371
# Velocity P-wave (km/s) = 4.46241 5.71503 5.12712
#
# Compressibility (1/GPa) = 0.03888348
#
# Stress axis : x y z
#
# Youngs Moduli (GPa) = 36.45187 97.49704 127.89852
#
# Poissons Ratio (x) = -0.17877 0.29138
# Poissons Ratio (y) = -0.06684 0.36682
# Poissons Ratio (z) = 0.08304 0.27963
#
# Static dielectric constant tensor:
#      x y z
#    x 1.807060 0.000000 0.000000 
#    y 0.000000 1.720470 0.000000 
#    z 0.000000 0.000000 1.732570 
# 
# From -- ./inp_files/17898.got.cif
#   From: 2010.05.17/outbox.cif.g08.bks.cpg/sg40_9_cif.got.tgz:17898.got - 2010.06.03 18:35:42.
