data_PCOD9365318
_publ_section_title
;
Structure prediction by ZEFSAII (Michael W. Deem and Ramdas Pophale) SiO2 
 PCOD9365318
Probable space group: A M A 2
;
_chemical_formula_sum "Si O2"
_cell_formula_units_Z 56
_cell_length_a 31.382894
_cell_length_b 14.317914
_cell_length_c 5.749947
_cell_angle_alpha 90.000000
_cell_angle_beta 90.000000
_cell_angle_gamma 90.000000
_cell_volume 2583.667255
_symmetry_space_group_name_H-M "A M A 2"
_symmetry_group_IT_number 40
_symmetry_cell_setting 'orthorhombic'
loop_
_space_group_symop_operation_xyz
x,y,z
-x,-y,z
1/2-x,y,z
1/2+x,-y,z
x,1/2+y,1/2+z
-x,1/2-y,1/2+z
1/2-x,1/2+y,1/2+z
1/2+x,1/2-y,1/2+z
loop_
_atom_site_type_symbol
_atom_site_label
_atom_site_fract_x
_atom_site_fract_y
_atom_site_fract_z
Si Si1 0.835913 0.106272 0.768240
Si Si2 0.163557 0.603126 0.460022
Si Si3 0.498717 0.304036 0.837911
Si Si4 0.910692 0.391692 0.791292
Si Si5 0.750000 0.435792 0.620431
Si Si6 0.250000 0.955528 0.604719
Si Si7 0.644638 0.256137 0.099354
Si Si8 0.906804 0.609374 0.908768
O O1 0.795038 0.098018 0.603110
O O2 0.881767 0.122615 0.650161
O O3 0.839248 0.005578 0.891579
O O4 0.827528 0.194495 0.928137
O O5 0.117472 0.629302 0.563244
O O6 0.204263 0.614377 0.624506
O O7 0.171875 0.673322 0.251436
O O8 0.492549 0.249895 0.587115
O O9 0.539732 0.368062 0.784114
O O10 0.455679 0.360205 0.895551
O O11 0.903257 0.500124 0.848598
O O12 0.889343 0.323980 0.978530
O O13 0.750000 0.489166 0.360850
O O14 0.750000 0.491790 0.860365
O O15 0.618996 0.176972 0.238460
#
# Coordination Sequence:
#
# PCOD9365318 Si02
#       8
#     8   8   8   8   4   4   8   8
#     4  11  24  45  77 107 154 200 255 312 384 448
#     4  11  24  45  77 107 154 200 255 312 384 448
#     4  12  27  48  75 114 152 192 253 316 371 456
#     4  12  25  47  74 108 151 198 250 310 383 446
#     4  10  24  45  75 113 151 199 258 314 377 453
#     4  10  24  45  75 113 151 199 258 314 377 453
#     4  12  24  45  72 110 148 198 244 315 374 450
#     4  12  25  47  74 108 151 198 250 310 383 446
#
# _framework density 21.674620000000001
#
# number of rings (size 3 to 8) (size 9 to 14) (size 15 to 20)
#    0.000    0.571    4.286    3.857    4.000    0.571 
#    0.000    4.286    0.000    0.000    0.000    0.000 
#    0.000    0.000    0.000    0.000    0.000    0.000 
#
# Total GULP energy -156246.557080 kJ/mol
# GULP energy per Si atom -5580.234181 kJ/mol
# Density = 2.162529 g / cm^3
# Si number density = 21.674620 Si / 1000 Ang^3
#
#
#
# Elastic Constant Matrix: (Units=GPa)
#
#
# Indices 1 2 3 4 5 6 
#
# 1 105.1986 1.3362 15.4572 0.0000 0.0000 0.0000
# 2 1.3362 109.4452 25.9641 0.0000 0.0000 0.0000
# 3 15.4572 25.9641 75.8551 0.0000 0.0000 0.0000
# 4 0.0000 0.0000 0.0000 48.5249 0.0000 0.0000
# 5 0.0000 0.0000 0.0000 0.0000 25.8218 0.0000
# 6 0.0000 0.0000 0.0000 0.0000 0.0000 29.6955
#
#
#
# Elastic Compliance Matrix: (Units=1/GPa)
#
#
# Indices 1 2 3 4 5 6 
#
# 1 0.009814 0.000386 -0.002132 0.000000 0.000000 0.000000
# 2 0.000386 0.009960 -0.003488 0.000000 0.000000 0.000000
# 3 -0.002132 -0.003488 0.014811 0.000000 0.000000 0.000000
# 4 0.000000 0.000000 0.000000 0.020608 0.000000 0.000000
# 5 0.000000 0.000000 0.000000 0.000000 0.038727 0.000000
# 6 0.000000 0.000000 0.000000 0.000000 0.000000 0.033675
#
#
# Mechanical properties :
#
#
# Convention : Reuss Voigt Hill
#
# Bulk Modulus (GPa) = 41.46333 41.77932 41.62133
# Shear Modulus (GPa) = 34.22270 37.32454 35.77362
#
# Velocity S-wave (km/s) = 3.97789 4.15425 4.06702
# Velocity P-wave (km/s) = 6.34583 6.50599 6.42641
#
# Compressibility (1/GPa) = 0.02411769
#
# Stress axis : x y z
#
# Youngs Moduli (GPa) = 101.89333 100.40486 67.51624
#
# Poissons Ratio (x) = -0.03875 0.14394
# Poissons Ratio (y) = -0.03933 0.23548
# Poissons Ratio (z) = 0.21723 0.35018
#
# Static dielectric constant tensor:
#      x y z
#    x 1.769270 0.000000 0.000000 
#    y 0.000000 1.798640 0.000000 
#    z 0.000000 0.000000 1.910190 
# 
# From -- ./inp_files/3426.got.cif
#   From: 2010.05.17/outbox.cif.g08.bks.cpg/sg40_2_cif.got.tgz:3426.got - 2010.06.03 18:35:42.
