data_PCOD9365191
_publ_section_title
;
Structure prediction by ZEFSAII (Michael W. Deem and Ramdas Pophale) SiO2 
 PCOD9365191
Probable space group: A M A 2
;
_chemical_formula_sum "Si O2"
_cell_formula_units_Z 48
_cell_length_a 22.473751
_cell_length_b 8.266317
_cell_length_c 11.594265
_cell_angle_alpha 90.000000
_cell_angle_beta 90.000000
_cell_angle_gamma 90.000000
_cell_volume 2153.926319
_symmetry_space_group_name_H-M "A M A 2"
_symmetry_group_IT_number 40
_symmetry_cell_setting 'orthorhombic'
loop_
_space_group_symop_operation_xyz
x,y,z
-x,-y,z
1/2-x,y,z
1/2+x,-y,z
x,1/2+y,1/2+z
-x,1/2-y,1/2+z
1/2-x,1/2+y,1/2+z
1/2+x,1/2-y,1/2+z
loop_
_atom_site_type_symbol
_atom_site_label
_atom_site_fract_x
_atom_site_fract_y
_atom_site_fract_z
Si Si1 0.907238 0.568334 0.165570
Si Si2 0.407766 0.800306 0.911592
Si Si3 0.478160 0.761996 0.124298
Si Si4 0.182089 0.313254 0.987555
Si Si5 0.183042 0.948993 0.072992
Si Si6 0.099394 0.953635 0.293941
O O1 0.903686 0.581054 0.303046
O O2 0.938264 0.401034 0.131246
O O3 0.845717 0.599517 0.100418
O O4 0.953686 0.709421 0.128841
O O5 0.413951 0.621652 0.858153
O O6 0.460452 0.837518 0.001633
O O7 0.349018 0.821793 0.989234
O O8 0.456463 0.866576 0.233212
O O9 0.250000 0.367391 0.963359
O O10 0.183850 0.122437 0.011120
O O11 0.135346 0.348334 0.886531
O O12 0.250000 0.899547 0.101151
O O13 0.144471 0.974863 0.187350
#
# Coordination Sequence:
#
# PCOD9365191 Si02
#       6
#     8   8   8   8   8   8
#     4  11  23  43  64  98 131 172 220 270 335 388
#     4  11  23  42  65  96 127 171 216 269 333 384
#     4  10  25  42  65  96 133 169 220 278 326 398
#     4  11  23  41  66  94 131 175 217 267 330 398
#     4  10  23  42  63  93 130 171 219 267 322 392
#     4  11  22  43  67  94 129 169 222 267 330 382
#
# _framework density 22.284884000000002
#
# number of rings (size 3 to 8) (size 9 to 14) (size 15 to 20)
#    0.000    1.333    3.333    1.500    2.333    2.667 
#    0.000    0.833    0.000    0.000    0.000    0.000 
#    0.000    0.000    0.000    0.000    0.000    0.000 
#
# Total GULP energy -134284.455848 kJ/mol
# GULP energy per Si atom -5595.185660 kJ/mol
# Density = 2.223416 g / cm^3
# Si number density = 22.284884 Si / 1000 Ang^3
#
#
#
# Elastic Constant Matrix: (Units=GPa)
#
#
# Indices 1 2 3 4 5 6 
#
# 1 98.8529 23.0995 28.3555 0.0000 0.0000 0.0000
# 2 23.0995 64.4285 23.8947 0.0000 0.0000 0.0000
# 3 28.3555 23.8947 136.1210 0.0000 0.0000 0.0000
# 4 0.0000 0.0000 0.0000 28.2457 0.0000 0.0000
# 5 0.0000 0.0000 0.0000 0.0000 -5.7303 0.0000
# 6 0.0000 0.0000 0.0000 0.0000 0.0000 24.4655
#
#
#
# Elastic Compliance Matrix: (Units=1/GPa)
#
#
# Indices 1 2 3 4 5 6 
#
# 1 0.011429 -0.003439 -0.001777 0.000000 0.000000 0.000000
# 2 -0.003439 0.017636 -0.002380 0.000000 0.000000 0.000000
# 3 -0.001777 -0.002380 0.008134 0.000000 0.000000 0.000000
# 4 0.000000 0.000000 0.000000 0.035404 0.000000 0.000000
# 5 0.000000 0.000000 0.000000 0.000000 -0.174512 0.000000
# 6 0.000000 0.000000 0.000000 0.000000 0.000000 0.040874
#
#
# Mechanical properties :
#
#
# Convention : Reuss Voigt Hill
#
# Bulk Modulus (GPa) = 45.43555 50.01132 47.72343
# Shear Modulus (GPa) = -129.84752 24.33303 -52.75724
#
# Velocity S-wave (km/s) = -7.64157 3.30799 -4.87087
# Velocity P-wave (km/s) = 7.57795 6.08941 3.18939
#
# Compressibility (1/GPa) = 0.02200920
#
# Stress axis : x y z
#
# Youngs Moduli (GPa) = 87.49396 56.70077 122.93563
#
# Poissons Ratio (x) = 0.19497 0.21849
# Poissons Ratio (y) = 0.30086 0.29254
# Poissons Ratio (z) = 0.15550 0.13492
#
# Static dielectric constant tensor:
#      x y z
#    x 1.796350 0.000000 0.000000 
#    y 0.000000 1.844270 0.000000 
#    z 0.000000 0.000000 1.815650 
# 
# From -- ./inp_files/13903.got.cif
#   From: 2010.05.17/outbox.cif.g08.bks.cpg/sg40_7_cif.got.tgz:13903.got - 2010.06.03 18:35:42.
