data_PCOD9365975
_publ_section_title
;
Structure prediction by ZEFSAII (Michael W. Deem and Ramdas Pophale) SiO2 
 PCOD9365975
Probable space group: A B A 2
;
_chemical_formula_sum "Si O2"
_cell_formula_units_Z 64
_cell_length_a 9.406513
_cell_length_b 17.251740
_cell_length_c 19.436411
_cell_angle_alpha 90.000000
_cell_angle_beta 90.000000
_cell_angle_gamma 90.000000
_cell_volume 3154.115832
_symmetry_space_group_name_H-M "A B A 2"
_symmetry_group_IT_number 41
_symmetry_cell_setting 'orthorhombic'
loop_
_space_group_symop_operation_xyz
x,y,z
-x,-y,z
1/2-x,y,1/2+z
1/2+x,-y,1/2+z
x,1/2+y,1/2+z
-x,1/2-y,1/2+z
1/2-x,1/2+y,z
1/2+x,1/2-y,z
loop_
_atom_site_type_symbol
_atom_site_label
_atom_site_fract_x
_atom_site_fract_y
_atom_site_fract_z
Si Si1 0.348911 0.043796 0.363950
Si Si2 0.989508 0.294614 0.398824
Si Si3 0.310223 0.110765 0.743758
Si Si4 0.263109 0.777734 0.808894
Si Si5 0.778114 0.991110 0.008630
Si Si6 0.027960 0.365626 0.538256
Si Si7 0.379330 0.383672 0.188574
Si Si8 0.156609 0.518298 0.146063
O O1 0.395359 0.130087 0.383920
O O2 0.257096 0.048017 0.295779
O O3 0.254980 0.016651 0.427961
O O4 0.500000 0.000000 0.358625
O O5 0.135617 0.304764 0.357751
O O6 0.012161 0.297685 0.481378
O O7 0.900067 0.228807 0.359321
O O8 0.284847 0.194825 0.776870
O O9 0.472760 0.094609 0.725443
O O10 0.214643 0.098804 0.676010
O O11 0.296760 0.830870 0.743330
O O12 0.892919 0.924560 0.031980
O O13 0.846860 0.075990 0.015851
O O14 0.655623 0.981327 0.063660
O O15 0.066176 0.344225 0.616779
O O16 0.275864 0.454194 0.166793
O O17 0.000000 0.500000 0.173244
#
# Coordination Sequence:
#
# PCOD9365975 Si02
#       8
#     8   8   8   8   8   8   8   8
#     4  10  19  35  65  94 121 161 209 259 317 378
#     4  10  21  40  62  84 124 166 209 254 316 381
#     4  11  23  39  61  93 122 168 207 258 323 376
#     4  11  24  41  60  89 129 165 211 266 311 377
#     4   9  16  36  62  89 122 156 200 259 317 368
#     4   9  17  37  65  86 115 168 207 244 320 384
#     4  11  23  42  64  92 129 169 208 266 325 382
#     4  11  24  38  65  96 125 161 217 267 313 382
#
# _framework density 20.290948
#
# number of rings (size 3 to 8) (size 9 to 14) (size 15 to 20)
#    0.000    1.750    5.000    0.750    5.250    0.000 
#    2.250    3.750    0.000    0.000    0.000    0.000 
#    0.000    0.000    0.000    0.000    0.000    0.000 
#
# Total GULP energy -178295.402845 kJ/mol
# GULP energy per Si atom -5571.731339 kJ/mol
# Density = 2.024476 g / cm^3
# Si number density = 20.290948 Si / 1000 Ang^3
#
#
#
# Elastic Constant Matrix: (Units=GPa)
#
#
# Indices 1 2 3 4 5 6 
#
# 1 87.5202 0.6950 42.1587 0.0000 0.0000 0.0000
# 2 0.6950 26.3060 23.9445 0.0000 0.0000 0.0000
# 3 42.1587 23.9445 147.9372 0.0000 0.0000 0.0000
# 4 0.0000 0.0000 0.0000 25.9548 0.0000 0.0000
# 5 0.0000 0.0000 0.0000 0.0000 28.9036 0.0000
# 6 0.0000 0.0000 0.0000 0.0000 0.0000 11.5537
#
#
#
# Elastic Compliance Matrix: (Units=1/GPa)
#
#
# Indices 1 2 3 4 5 6 
#
# 1 0.013544 0.003701 -0.004459 0.000000 0.000000 0.000000
# 2 0.003701 0.045594 -0.008434 0.000000 0.000000 0.000000
# 3 -0.004459 -0.008434 0.009395 0.000000 0.000000 0.000000
# 4 0.000000 0.000000 0.000000 0.038528 0.000000 0.000000
# 5 0.000000 0.000000 0.000000 0.000000 0.034598 0.000000
# 6 0.000000 0.000000 0.000000 0.000000 0.000000 0.086552
#
#
# Mechanical properties :
#
#
# Convention : Reuss Voigt Hill
#
# Bulk Modulus (GPa) = 19.94070 43.92887 31.93478
# Shear Modulus (GPa) = 18.98883 26.28010 22.63446
#
# Velocity S-wave (km/s) = 3.06245 3.60274 3.34353
# Velocity P-wave (km/s) = 4.72795 6.24522 5.53879
#
# Compressibility (1/GPa) = 0.05014869
#
# Stress axis : x y z
#
# Youngs Moduli (GPa) = 73.83137 21.93294 106.43485
#
# Poissons Ratio (x) = -0.08117 0.47457
# Poissons Ratio (y) = -0.27323 0.89769
# Poissons Ratio (z) = 0.32920 0.18499
#
# Static dielectric constant tensor:
#      x y z
#    x 1.709030 0.000000 0.000000 
#    y 0.000000 1.738590 0.000000 
#    z 0.000000 0.000000 1.780580 
# 
# From -- ./inp_files/11285.got.cif
#   From: 2010.05.17/outbox.cif.g08.bks.cpg/sg41_6_cif.got.tgz:11285.got - 2010.06.03 18:54:24.
