data_PCOD9365608
_publ_section_title
;
Structure prediction by ZEFSAII (Michael W. Deem and Ramdas Pophale) SiO2 
 PCOD9365608
Probable space group: A M A 2
;
_chemical_formula_sum "Si O2"
_cell_formula_units_Z 64
_cell_length_a 14.505960
_cell_length_b 6.955517
_cell_length_c 25.382653
_cell_angle_alpha 90.000000
_cell_angle_beta 90.000000
_cell_angle_gamma 90.000000
_cell_volume 2561.019614
_symmetry_space_group_name_H-M "A M A 2"
_symmetry_group_IT_number 40
_symmetry_cell_setting 'orthorhombic'
loop_
_space_group_symop_operation_xyz
x,y,z
-x,-y,z
1/2-x,y,z
1/2+x,-y,z
x,1/2+y,1/2+z
-x,1/2-y,1/2+z
1/2-x,1/2+y,1/2+z
1/2+x,1/2-y,1/2+z
loop_
_atom_site_type_symbol
_atom_site_label
_atom_site_fract_x
_atom_site_fract_y
_atom_site_fract_z
Si Si1 0.522373 0.768781 0.446720
Si Si2 0.645831 0.334225 0.388392
Si Si3 0.357380 0.201603 0.130039
Si Si4 0.858528 0.416394 0.271358
Si Si5 0.521103 0.270618 0.063196
Si Si6 0.641431 0.866103 0.243812
Si Si7 0.646194 0.897013 0.357153
Si Si8 0.642522 0.340455 0.159324
O O1 0.430356 0.648797 0.433339
O O2 0.555934 0.719757 0.505213
O O3 0.590387 0.760326 0.396408
O O4 0.500000 0.000000 0.448549
O O5 0.750000 0.408725 0.397416
O O6 0.607626 0.390850 0.330511
O O7 0.654376 0.103037 0.383994
O O8 0.250000 0.156843 0.119890
O O9 0.424950 0.175205 0.081029
O O10 0.391361 0.102969 0.184388
O O11 0.360701 0.430644 0.145221
O O12 0.750000 0.363283 0.274709
O O13 0.864758 0.638906 0.256216
O O14 0.896612 0.313079 0.218846
O O15 0.500000 0.500000 0.061801
O O16 0.590382 0.241615 0.111591
O O17 0.750000 0.918180 0.241138
O O18 0.605097 0.944484 0.299315
O O19 0.750000 0.819813 0.349081
O O20 0.750000 0.288387 0.160313
#
# Coordination Sequence:
#
# PCOD9365608 Si02
#       8
#     8   8   8   8   8   8   8   8
#     4   9  18  29  39  57  85 113 144 177 204 240
#     4   9  17  29  44  62  86 114 140 169 207 248
#     4   8  14  24  38  58  83 106 130 166 208 246
#     4   8  14  26  44  66  89 109 134 171 211 251
#     4   9  16  25  38  57  81 109 138 167 204 246
#     4   8  14  26  44  66  89 109 134 171 211 251
#     4   9  17  29  44  62  86 114 140 169 207 248
#     4   8  14  24  38  58  83 106 130 166 208 246
#
# _framework density 24.990046
#
# number of rings (size 3 to 8) (size 9 to 14) (size 15 to 20)
#    0.000    3.500    0.000    1.500    0.000    2.000 
#    0.000    6.875    0.000    0.000    0.000    3.500 
#    0.000    8.000    0.000    0.000    0.000    0.000 
#
# Total GULP energy -178713.930054 kJ/mol
# GULP energy per Si atom -5584.810314 kJ/mol
# Density = 2.493317 g / cm^3
# Si number density = 24.990046 Si / 1000 Ang^3
#
#
#
# Elastic Constant Matrix: (Units=GPa)
#
#
# Indices 1 2 3 4 5 6 
#
# 1 86.5508 0.2678 65.2162 0.0000 0.0000 0.0000
# 2 0.2678 74.7998 3.4425 0.0000 0.0000 0.0000
# 3 65.2162 3.4425 184.2230 0.0000 0.0000 0.0000
# 4 0.0000 0.0000 0.0000 33.3237 0.0000 0.0000
# 5 0.0000 0.0000 0.0000 0.0000 36.6699 0.0000
# 6 0.0000 0.0000 0.0000 0.0000 0.0000 14.0526
#
#
#
# Elastic Compliance Matrix: (Units=1/GPa)
#
#
# Indices 1 2 3 4 5 6 
#
# 1 0.015760 0.000201 -0.005583 0.000000 0.000000 0.000000
# 2 0.000201 0.013383 -0.000321 0.000000 0.000000 0.000000
# 3 -0.005583 -0.000321 0.007411 0.000000 0.000000 0.000000
# 4 0.000000 0.000000 0.000000 0.030009 0.000000 0.000000
# 5 0.000000 0.000000 0.000000 0.000000 0.027270 0.000000
# 6 0.000000 0.000000 0.000000 0.000000 0.000000 0.071161
#
#
# Mechanical properties :
#
#
# Convention : Reuss Voigt Hill
#
# Bulk Modulus (GPa) = 39.76655 53.71407 46.74031
# Shear Modulus (GPa) = 27.05877 35.25237 31.15557
#
# Velocity S-wave (km/s) = 3.29414 3.75995 3.53472
# Velocity P-wave (km/s) = 5.51506 6.35535 5.95006
#
# Compressibility (1/GPa) = 0.02514677
#
# Stress axis : x y z
#
# Youngs Moduli (GPa) = 63.45177 74.72124 134.94208
#
# Poissons Ratio (x) = -0.01498 0.75337
# Poissons Ratio (y) = -0.01272 0.04333
# Poissons Ratio (z) = 0.35424 0.02399
#
# Static dielectric constant tensor:
#      x y z
#    x 1.987160 0.000000 0.000000 
#    y 0.000000 2.108490 0.000000 
#    z 0.000000 0.000000 1.948260 
# 
# From -- ./inp_files/23419.got.cif
#   From: 2010.05.17/outbox.cif.g08.bks.cpg/sg40_12_cif.got.tgz:23419.got - 2010.06.03 18:35:42.
