data_PCOD9365277
_publ_section_title
;
Structure prediction by ZEFSAII (Michael W. Deem and Ramdas Pophale) SiO2 
 PCOD9365277
Probable space group: A M A 2
;
_chemical_formula_sum "Si O2"
_cell_formula_units_Z 48
_cell_length_a 15.444671
_cell_length_b 10.062708
_cell_length_c 15.510448
_cell_angle_alpha 90.000000
_cell_angle_beta 90.000000
_cell_angle_gamma 90.000000
_cell_volume 2410.559602
_symmetry_space_group_name_H-M "A M A 2"
_symmetry_group_IT_number 40
_symmetry_cell_setting 'orthorhombic'
loop_
_space_group_symop_operation_xyz
x,y,z
-x,-y,z
1/2-x,y,z
1/2+x,-y,z
x,1/2+y,1/2+z
-x,1/2-y,1/2+z
1/2-x,1/2+y,1/2+z
1/2+x,1/2-y,1/2+z
loop_
_atom_site_type_symbol
_atom_site_label
_atom_site_fract_x
_atom_site_fract_y
_atom_site_fract_z
Si Si1 0.033933 0.851139 0.727030
Si Si2 0.082269 0.401044 0.722269
Si Si3 0.148664 0.788624 0.893340
Si Si4 0.395629 0.488162 0.908592
Si Si5 0.148025 0.487292 0.540315
Si Si6 0.147543 0.287182 0.060540
O O1 0.092657 0.809176 0.807923
O O2 0.091488 0.836271 0.641214
O O3 0.954741 0.747432 0.723414
O O4 0.000000 0.000000 0.736157
O O5 0.127691 0.437064 0.812493
O O6 0.134257 0.429907 0.635697
O O7 0.000000 0.500000 0.717509
O O8 0.250000 0.815782 0.875874
O O9 0.140292 0.635787 0.922165
O O10 0.114219 0.887279 0.967647
O O11 0.500000 0.500000 0.912342
O O12 0.364773 0.385577 0.980478
O O13 0.250000 0.496357 0.524163
O O14 0.115058 0.638434 0.537442
O O15 0.250000 0.280404 0.082784
#
# Coordination Sequence:
#
# PCOD9365277 Si02
#       6
#     8   8   8   8   8   8
#     4  12  26  42  65  96 127 169 214 270 321 376
#     4  11  22  43  64  92 122 164 215 254 319 381
#     4  11  24  44  67  94 131 172 213 262 325 386
#     4  11  23  41  65  98 127 165 215 263 319 381
#     4  10  24  42  65  92 125 169 211 260 317 381
#     4  11  24  43  65  93 128 168 214 263 321 381
#
# _framework density 19.912389000000001
#
# number of rings (size 3 to 8) (size 9 to 14) (size 15 to 20)
#    0.000    1.000    5.000    1.500    7.000    3.333 
#    0.000    0.833    0.000    0.000    0.000    0.000 
#    0.000    0.000    0.000    0.000    0.000    0.000 
#
# Total GULP energy -134191.462816 kJ/mol
# GULP energy per Si atom -5591.310951 kJ/mol
# Density = 1.986707 g / cm^3
# Si number density = 19.912389 Si / 1000 Ang^3
#
#
#
# Elastic Constant Matrix: (Units=GPa)
#
#
# Indices 1 2 3 4 5 6 
#
# 1 29.2506 16.3253 0.1550 0.0000 0.0000 0.0000
# 2 16.3253 172.3570 55.8433 0.0000 0.0000 0.0000
# 3 0.1550 55.8433 127.2733 0.0000 0.0000 0.0000
# 4 0.0000 0.0000 0.0000 32.7147 0.0000 0.0000
# 5 0.0000 0.0000 0.0000 0.0000 26.5027 0.0000
# 6 0.0000 0.0000 0.0000 0.0000 0.0000 29.9096
#
#
#
# Elastic Compliance Matrix: (Units=1/GPa)
#
#
# Indices 1 2 3 4 5 6 
#
# 1 0.036413 -0.004004 0.001712 0.000000 0.000000 0.000000
# 2 -0.004004 0.007204 -0.003156 0.000000 0.000000 0.000000
# 3 0.001712 -0.003156 0.009240 0.000000 0.000000 0.000000
# 4 0.000000 0.000000 0.000000 0.030567 0.000000 0.000000
# 5 0.000000 0.000000 0.000000 0.000000 0.037732 0.000000
# 6 0.000000 0.000000 0.000000 0.000000 0.000000 0.033434
#
#
# Mechanical properties :
#
#
# Convention : Reuss Voigt Hill
#
# Bulk Modulus (GPa) = 23.83128 52.61424 38.22276
# Shear Modulus (GPa) = 27.85963 34.92922 31.39442
#
# Velocity S-wave (km/s) = 3.74453 4.19280 3.97498
# Velocity P-wave (km/s) = 5.53980 7.06538 6.34858
#
# Compressibility (1/GPa) = 0.04196165
#
# Stress axis : x y z
#
# Youngs Moduli (GPa) = 27.46290 138.81913 108.22873
#
# Poissons Ratio (x) = 0.55580 -0.18533
# Poissons Ratio (y) = 0.10995 0.34155
# Poissons Ratio (z) = -0.04703 0.43809
#
# Static dielectric constant tensor:
#      x y z
#    x 1.711880 0.000000 0.000000 
#    y 0.000000 1.700150 0.000000 
#    z 0.000000 0.000000 1.679850 
# 
# From -- ./inp_files/17627.got.cif
#   From: 2010.05.17/outbox.cif.g08.bks.cpg/sg40_9_cif.got.tgz:17627.got - 2010.06.03 18:35:42.
