data_PCOD9365116
_publ_section_title
;
Structure prediction by ZEFSAII (Michael W. Deem and Ramdas Pophale) SiO2 
 PCOD9365116
Probable space group: A M A 2
;
_chemical_formula_sum "Si O2"
_cell_formula_units_Z 52
_cell_length_a 25.823394
_cell_length_b 12.771582
_cell_length_c 7.377866
_cell_angle_alpha 90.000000
_cell_angle_beta 90.000000
_cell_angle_gamma 90.000000
_cell_volume 2433.261479
_symmetry_space_group_name_H-M "A M A 2"
_symmetry_group_IT_number 40
_symmetry_cell_setting 'orthorhombic'
loop_
_space_group_symop_operation_xyz
x,y,z
-x,-y,z
1/2-x,y,z
1/2+x,-y,z
x,1/2+y,1/2+z
-x,1/2-y,1/2+z
1/2-x,1/2+y,1/2+z
1/2+x,1/2-y,1/2+z
loop_
_atom_site_type_symbol
_atom_site_label
_atom_site_fract_x
_atom_site_fract_y
_atom_site_fract_z
Si Si1 0.750000 0.660274 0.441941
Si Si2 0.306024 0.038801 0.078555
Si Si3 0.166926 0.670476 0.900158
Si Si4 0.558137 0.041724 0.564774
Si Si5 0.947324 0.672126 0.745275
Si Si6 0.943485 0.728892 0.340367
Si Si7 0.627300 0.869749 0.764581
O O1 0.705032 0.582171 0.533785
O O2 0.795217 0.734802 0.353110
O O3 0.250000 0.089378 0.031383
O O4 0.349170 0.087153 0.948838
O O5 0.317996 0.069091 0.284441
O O6 0.107813 0.701779 0.859108
O O7 0.171675 0.656022 0.116869
O O8 0.569870 0.070320 0.356389
O O9 0.561434 0.149849 0.674608
O O10 0.500000 0.000000 0.577601
O O11 0.594467 0.958863 0.662642
O O12 0.948396 0.664549 0.528418
O O13 0.908912 0.768661 0.789210
O O14 0.004848 0.703012 0.812710
#
# Coordination Sequence:
#
# PCOD9365116 Si02
#       7
#     4   8   8   8   8   8   8
#     4  10  22  44  64  94 126 162 230 278 334 400
#     4  10  24  43  66  95 125 166 223 273 340 399
#     4  11  23  44  67  91 132 174 215 283 333 401
#     4  12  23  41  64  99 138 172 225 269 322 413
#     4  11  23  43  65 102 133 178 220 272 333 403
#     4  11  22  40  69  94 137 178 219 269 336 399
#     4  11  25  42  67  97 132 174 221 274 338 406
#
# _framework density 21.370494999999998
#
# number of rings (size 3 to 8) (size 9 to 14) (size 15 to 20)
#    0.462    0.615    3.846    2.769    1.077    4.308 
#    0.000    1.538    0.000    0.000    0.000    0.000 
#    0.000    0.000    0.000    0.000    0.000    0.000 
#
# Total GULP energy -144753.581266 kJ/mol
# GULP energy per Si atom -5567.445433 kJ/mol
# Density = 2.132186 g / cm^3
# Si number density = 21.370495 Si / 1000 Ang^3
#
#
#
# Elastic Constant Matrix: (Units=GPa)
#
#
# Indices 1 2 3 4 5 6 
#
# 1 82.6350 8.9120 14.7740 0.0000 0.0000 0.0000
# 2 8.9120 42.4127 1.3177 0.0000 0.0000 0.0000
# 3 14.7740 1.3177 67.9891 0.0000 0.0000 0.0000
# 4 0.0000 0.0000 0.0000 32.4057 0.0000 0.0000
# 5 0.0000 0.0000 0.0000 0.0000 16.2656 0.0000
# 6 0.0000 0.0000 0.0000 0.0000 0.0000 23.8284
#
#
#
# Elastic Compliance Matrix: (Units=1/GPa)
#
#
# Indices 1 2 3 4 5 6 
#
# 1 0.012875 -0.002620 -0.002747 0.000000 0.000000 0.000000
# 2 -0.002620 0.024125 0.000102 0.000000 0.000000 0.000000
# 3 -0.002747 0.000102 0.015303 0.000000 0.000000 0.000000
# 4 0.000000 0.000000 0.000000 0.030859 0.000000 0.000000
# 5 0.000000 0.000000 0.000000 0.000000 0.061479 0.000000
# 6 0.000000 0.000000 0.000000 0.000000 0.000000 0.041967
#
#
# Mechanical properties :
#
#
# Convention : Reuss Voigt Hill
#
# Bulk Modulus (GPa) = 23.93891 27.00491 25.47191
# Shear Modulus (GPa) = 23.68958 25.70216 24.69587
#
# Velocity S-wave (km/s) = 3.33305 3.47175 3.40311
# Velocity P-wave (km/s) = 5.10279 5.36048 5.23322
#
# Compressibility (1/GPa) = 0.04177300
#
# Stress axis : x y z
#
# Youngs Moduli (GPa) = 77.66933 41.45036 65.34592
#
# Poissons Ratio (x) = 0.10860 0.17950
# Poissons Ratio (y) = 0.20350 -0.00665
# Poissons Ratio (z) = 0.21336 -0.00422
#
# Static dielectric constant tensor:
#      x y z
#    x 1.788450 0.000000 0.000000 
#    y 0.000000 1.801950 0.000000 
#    z 0.000000 0.000000 1.797340 
# 
# From -- ./inp_files/9123.got.cif
#   From: 2010.05.17/outbox.cif.g08.bks.cpg/sg40_5_cif.got.tgz:9123.got - 2010.06.03 18:35:42.
