data_PCOD9365794
_publ_section_title
;
Structure prediction by ZEFSAII (Michael W. Deem and Ramdas Pophale) SiO2 
 PCOD9365794
Probable space group: A B A 2
;
_chemical_formula_sum "Si O2"
_cell_formula_units_Z 64
_cell_length_a 11.986879
_cell_length_b 15.419577
_cell_length_c 17.433811
_cell_angle_alpha 90.000000
_cell_angle_beta 90.000000
_cell_angle_gamma 90.000000
_cell_volume 3222.336680
_symmetry_space_group_name_H-M "A B A 2"
_symmetry_group_IT_number 41
_symmetry_cell_setting 'orthorhombic'
loop_
_space_group_symop_operation_xyz
x,y,z
-x,-y,z
1/2-x,y,1/2+z
1/2+x,-y,1/2+z
x,1/2+y,1/2+z
-x,1/2-y,1/2+z
1/2-x,1/2+y,z
1/2+x,1/2-y,z
loop_
_atom_site_type_symbol
_atom_site_label
_atom_site_fract_x
_atom_site_fract_y
_atom_site_fract_z
Si Si1 0.048449 0.797982 0.930430
Si Si2 0.899780 0.374453 0.707085
Si Si3 0.594378 0.928617 0.348027
Si Si4 0.424724 0.290720 0.106482
Si Si5 0.823737 0.792753 0.740432
Si Si6 0.560269 0.146376 0.837087
Si Si7 0.256340 0.440356 0.922024
Si Si8 0.129153 0.983870 0.078042
O O1 0.158100 0.857555 0.914136
O O2 0.944231 0.863074 0.915278
O O3 0.022304 0.713861 0.879883
O O4 0.054855 0.770830 0.018548
O O5 0.799912 0.326621 0.748968
O O6 0.858601 0.448648 0.647983
O O7 0.962133 0.303385 0.654146
O O8 0.988243 0.402207 0.772142
O O9 0.600384 0.869047 0.273891
O O10 0.500000 0.000000 0.340754
O O11 0.705179 0.982306 0.365904
O O12 0.348537 0.224600 0.151921
O O13 0.370464 0.386354 0.109782
O O14 0.853837 0.707133 0.788606
O O15 0.634002 0.091489 0.897134
O O16 0.285499 0.479780 0.006582
O O17 0.000000 0.000000 0.049531
#
# Coordination Sequence:
#
# PCOD9365794 Si02
#       8
#     8   8   8   8   8   8   8   8
#     4   9  18  36  57  82 113 141 184 245 294 337
#     4  10  20  36  54  79 116 152 189 237 291 354
#     4   9  18  34  56  79 106 142 185 231 280 341
#     4   9  19  34  56  80 105 143 191 236 285 348
#     4  10  21  35  53  79 110 150 189 230 293 349
#     4  10  21  35  56  86 113 145 193 245 293 343
#     4  10  18  33  58  83 107 145 192 234 284 346
#     4   9  18  35  57  80 109 148 192 236 290 354
#
# _framework density 19.861363999999998
#
# number of rings (size 3 to 8) (size 9 to 14) (size 15 to 20)
#    0.000    2.500    0.000    3.375    0.000    7.000 
#    0.000    2.500    0.000    1.500    0.000    0.000 
#    0.000    0.000    0.000    0.000    0.000    0.000 
#
# Total GULP energy -178312.577298 kJ/mol
# GULP energy per Si atom -5572.268041 kJ/mol
# Density = 1.981616 g / cm^3
# Si number density = 19.861364 Si / 1000 Ang^3
#
#
#
# Elastic Constant Matrix: (Units=GPa)
#
#
# Indices 1 2 3 4 5 6 
#
# 1 52.7965 29.1085 53.1808 0.0000 0.0000 0.0000
# 2 29.1085 75.5985 49.1324 0.0000 0.0000 0.0000
# 3 53.1808 49.1324 104.9205 0.0000 0.0000 0.0000
# 4 0.0000 0.0000 0.0000 27.9121 0.0000 0.0000
# 5 0.0000 0.0000 0.0000 0.0000 21.3751 0.0000
# 6 0.0000 0.0000 0.0000 0.0000 0.0000 13.1687
#
#
#
# Elastic Compliance Matrix: (Units=1/GPa)
#
#
# Indices 1 2 3 4 5 6 
#
# 1 0.039208 -0.003135 -0.018405 0.000000 0.000000 0.000000
# 2 -0.003135 0.019265 -0.007433 0.000000 0.000000 0.000000
# 3 -0.018405 -0.007433 0.022341 0.000000 0.000000 0.000000
# 4 0.000000 0.000000 0.000000 0.035827 0.000000 0.000000
# 5 0.000000 0.000000 0.000000 0.000000 0.046784 0.000000
# 6 0.000000 0.000000 0.000000 0.000000 0.000000 0.075938
#
#
# Mechanical properties :
#
#
# Convention : Reuss Voigt Hill
#
# Bulk Modulus (GPa) = 43.72820 55.12876 49.42848
# Shear Modulus (GPa) = 16.39714 19.28411 17.84062
#
# Velocity S-wave (km/s) = 2.87641 3.11936 3.00035
# Velocity P-wave (km/s) = 5.75292 6.38678 6.07812
#
# Compressibility (1/GPa) = 0.02286854
#
# Stress axis : x y z
#
# Youngs Moduli (GPa) = 25.50468 51.90652 44.76130
#
# Poissons Ratio (x) = 0.16272 0.82385
# Poissons Ratio (y) = 0.07996 0.33269
# Poissons Ratio (z) = 0.46943 0.38580
#
# Static dielectric constant tensor:
#      x y z
#    x 1.736370 0.000000 0.000000 
#    y 0.000000 1.703420 0.000000 
#    z 0.000000 0.000000 1.730130 
# 
# From -- ./inp_files/10133.got.cif
#   From: 2010.05.17/outbox.cif.g08.bks.cpg/sg41_6_cif.got.tgz:10133.got - 2010.06.03 18:54:24.
