data_PCOD9365301
_publ_section_title
;
Structure prediction by ZEFSAII (Michael W. Deem and Ramdas Pophale) SiO2 
 PCOD9365301
Probable space group: A M A 2
;
_chemical_formula_sum "Si O2"
_cell_formula_units_Z 48
_cell_length_a 18.270284
_cell_length_b 8.714988
_cell_length_c 15.111943
_cell_angle_alpha 90.000000
_cell_angle_beta 90.000000
_cell_angle_gamma 90.000000
_cell_volume 2406.203746
_symmetry_space_group_name_H-M "A M A 2"
_symmetry_group_IT_number 40
_symmetry_cell_setting 'orthorhombic'
loop_
_space_group_symop_operation_xyz
x,y,z
-x,-y,z
1/2-x,y,z
1/2+x,-y,z
x,1/2+y,1/2+z
-x,1/2-y,1/2+z
1/2-x,1/2+y,1/2+z
1/2+x,1/2-y,1/2+z
loop_
_atom_site_type_symbol
_atom_site_label
_atom_site_fract_x
_atom_site_fract_y
_atom_site_fract_z
Si Si1 0.897950 0.627000 0.162840
Si Si2 0.835644 0.123455 0.022140
Si Si3 0.560373 0.272501 0.165864
Si Si4 0.925464 0.089485 0.348324
Si Si5 0.336743 0.714994 0.835354
Si Si6 0.667311 0.260340 0.492295
O O1 0.907843 0.444680 0.167426
O O2 0.873404 0.686687 0.258160
O O3 0.975656 0.706202 0.139559
O O4 0.842591 0.677859 0.086559
O O5 0.750000 0.154622 0.045506
O O6 0.852946 0.215173 0.932004
O O7 0.841961 0.942181 0.004668
O O8 0.891177 0.175649 0.097811
O O9 0.562085 0.191805 0.261406
O O10 0.892685 0.192145 0.426305
O O11 0.867029 0.956358 0.328857
O O12 0.000000 0.000000 0.372686
O O13 0.250000 0.718466 0.823489
O O14 0.750000 0.232550 0.458402
#
# Coordination Sequence:
#
# PCOD9365301 Si02
#       6
#     8   8   8   8   8   8
#     4  11  24  42  67  96 133 173 216 271 321 388
#     4  10  24  44  69  98 131 173 218 269 327 386
#     4  11  25  42  64  97 133 171 222 263 327 383
#     4  12  25  43  65  98 130 175 216 267 321 386
#     4  11  23  43  68  96 130 170 216 266 324 383
#     4  11  25  44  67  98 131 171 218 268 328 386
#
# _framework density 19.948436000000001
#
# number of rings (size 3 to 8) (size 9 to 14) (size 15 to 20)
#    0.000    1.000    1.667    4.000    4.667    5.333 
#    0.000    0.000    0.000    0.000    0.000    0.000 
#    0.000    0.000    0.000    0.000    0.000    0.000 
#
# Total GULP energy -134284.131049 kJ/mol
# GULP energy per Si atom -5595.172127 kJ/mol
# Density = 1.990303 g / cm^3
# Si number density = 19.948436 Si / 1000 Ang^3
#
#
#
# Elastic Constant Matrix: (Units=GPa)
#
#
# Indices 1 2 3 4 5 6 
#
# 1 92.2108 50.7458 59.1595 0.0000 0.0000 0.0000
# 2 50.7458 81.1014 28.8583 0.0000 0.0000 0.0000
# 3 59.1595 28.8583 79.9156 0.0000 0.0000 0.0000
# 4 0.0000 0.0000 0.0000 29.6987 0.0000 0.0000
# 5 0.0000 0.0000 0.0000 0.0000 34.8513 0.0000
# 6 0.0000 0.0000 0.0000 0.0000 0.0000 66.9828
#
#
#
# Elastic Compliance Matrix: (Units=1/GPa)
#
#
# Indices 1 2 3 4 5 6 
#
# 1 0.027623 -0.011483 -0.016302 0.000000 0.000000 0.000000
# 2 -0.011483 0.018922 0.001668 0.000000 0.000000 0.000000
# 3 -0.016302 0.001668 0.023979 0.000000 0.000000 0.000000
# 4 0.000000 0.000000 0.000000 0.033672 0.000000 0.000000
# 5 0.000000 0.000000 0.000000 0.000000 0.028693 0.000000
# 6 0.000000 0.000000 0.000000 0.000000 0.000000 0.014929
#
#
# Mechanical properties :
#
#
# Convention : Reuss Voigt Hill
#
# Bulk Modulus (GPa) = 54.67715 58.97276 56.82495
# Shear Modulus (GPa) = 24.25435 33.93751 29.09593
#
# Velocity S-wave (km/s) = 3.49069 4.12911 3.82325
# Velocity P-wave (km/s) = 6.61175 7.23599 6.93090
#
# Compressibility (1/GPa) = 0.01828918
#
# Stress axis : x y z
#
# Youngs Moduli (GPa) = 36.20176 52.84880 41.70357
#
# Poissons Ratio (x) = 0.60687 0.67985
# Poissons Ratio (y) = 0.41571 -0.06956
# Poissons Ratio (z) = 0.59016 -0.08814
#
# Static dielectric constant tensor:
#      x y z
#    x 1.704900 0.000000 0.000000 
#    y 0.000000 1.666990 0.000000 
#    z 0.000000 0.000000 1.669240 
# 
# From -- ./inp_files/17617.got.cif
#   From: 2010.05.17/outbox.cif.g08.bks.cpg/sg40_9_cif.got.tgz:17617.got - 2010.06.03 18:35:42.
