data_PCOD9365250
_publ_section_title
;
Structure prediction by ZEFSAII (Michael W. Deem and Ramdas Pophale) SiO2 
 PCOD9365250
Probable space group: A M A 2
;
_chemical_formula_sum "Si O2"
_cell_formula_units_Z 48
_cell_length_a 19.164987
_cell_length_b 11.772850
_cell_length_c 8.660255
_cell_angle_alpha 90.000000
_cell_angle_beta 90.000000
_cell_angle_gamma 90.000000
_cell_volume 1953.983174
_symmetry_space_group_name_H-M "A M A 2"
_symmetry_group_IT_number 40
_symmetry_cell_setting 'orthorhombic'
loop_
_space_group_symop_operation_xyz
x,y,z
-x,-y,z
1/2-x,y,z
1/2+x,-y,z
x,1/2+y,1/2+z
-x,1/2-y,1/2+z
1/2-x,1/2+y,1/2+z
1/2+x,1/2-y,1/2+z
loop_
_atom_site_type_symbol
_atom_site_label
_atom_site_fract_x
_atom_site_fract_y
_atom_site_fract_z
Si Si1 0.500000 0.000000 0.984280
Si Si2 0.047658 0.603170 0.976013
Si Si3 0.750000 0.567266 0.255798
Si Si4 0.750000 0.134125 0.094692
Si Si5 0.133822 0.536458 0.705959
Si Si6 0.997523 0.207239 0.745195
Si Si7 0.351096 0.277831 0.086003
Si Si8 0.250000 0.695734 0.331640
O O1 0.491334 0.891605 0.872178
O O2 0.566886 0.979851 0.093171
O O3 0.110388 0.544696 0.883373
O O4 0.008962 0.677100 0.842046
O O5 0.000000 0.500000 0.031484
O O6 0.060623 0.680934 0.126734
O O7 0.750000 0.638016 0.412610
O O8 0.684867 0.611123 0.156715
O O9 0.750000 0.439436 0.318312
O O10 0.750000 0.258568 0.160684
O O11 0.815065 0.063312 0.159976
O O12 0.167090 0.659594 0.672533
O O13 0.932220 0.209568 0.626305
O O14 0.317519 0.248189 0.920684
#
# Coordination Sequence:
#
# PCOD9365250 Si02
#       8
#     4   8   4   4   8   8   8   4
#     4  12  24  44  78 108 144 204 240 306 380 438
#     4  11  24  45  68 105 145 187 235 298 357 434
#     4  11  22  51  67 101 144 189 244 306 362 441
#     4  12  25  46  77 103 138 194 241 301 368 435
#     4  11  24  47  75 102 151 191 242 303 370 438
#     4  11  24  43  70 107 143 189 243 295 367 443
#     4  10  23  46  71  99 148 188 238 308 363 428
#     4  11  25  43  72 104 140 195 243 303 368 438
#
# _framework density 24.565206
#
# number of rings (size 3 to 8) (size 9 to 14) (size 15 to 20)
#    0.000    1.000    3.333    3.500    2.333    0.000 
#    6.000    1.667    0.000    0.000    0.000    0.000 
#    0.000    0.000    0.000    0.000    0.000    0.000 
#
# Total GULP energy -134233.015406 kJ/mol
# GULP energy per Si atom -5593.042309 kJ/mol
# Density = 2.450929 g / cm^3
# Si number density = 24.565206 Si / 1000 Ang^3
#
#
#
# Elastic Constant Matrix: (Units=GPa)
#
#
# Indices 1 2 3 4 5 6 
#
# 1 79.1507 9.9653 35.4632 0.0000 0.0000 0.0000
# 2 9.9653 67.0772 49.8455 0.0000 0.0000 0.0000
# 3 35.4632 49.8455 139.0459 0.0000 0.0000 0.0000
# 4 0.0000 0.0000 0.0000 57.1572 0.0000 0.0000
# 5 0.0000 0.0000 0.0000 0.0000 33.1445 0.0000
# 6 0.0000 0.0000 0.0000 0.0000 0.0000 122.0490
#
#
#
# Elastic Compliance Matrix: (Units=1/GPa)
#
#
# Indices 1 2 3 4 5 6 
#
# 1 0.014295 0.000798 -0.003932 0.000000 0.000000 0.000000
# 2 0.000798 0.020366 -0.007505 0.000000 0.000000 0.000000
# 3 -0.003932 -0.007505 0.010885 0.000000 0.000000 0.000000
# 4 0.000000 0.000000 0.000000 0.017496 0.000000 0.000000
# 5 0.000000 0.000000 0.000000 0.000000 0.030171 0.000000
# 6 0.000000 0.000000 0.000000 0.000000 0.000000 0.008193
#
#
# Mechanical properties :
#
#
# Convention : Reuss Voigt Hill
#
# Bulk Modulus (GPa) = 41.20356 52.86908 47.03632
# Shear Modulus (GPa) = 38.23405 55.13679 46.68542
#
# Velocity S-wave (km/s) = 3.94944 4.74276 4.36417
# Velocity P-wave (km/s) = 6.13246 7.18056 6.67710
#
# Compressibility (1/GPa) = 0.02426975
#
# Stress axis : x y z
#
# Youngs Moduli (GPa) = 69.95254 49.10079 91.86958
#
# Poissons Ratio (x) = -0.03919 0.36124
# Poissons Ratio (y) = -0.05584 0.68944
# Poissons Ratio (z) = 0.27506 0.36848
#
# Static dielectric constant tensor:
#      x y z
#    x 2.007820 0.000000 0.000000 
#    y 0.000000 1.926210 0.000000 
#    z 0.000000 0.000000 1.920910 
# 
# From -- ./inp_files/8793.got.cif
#   From: 2010.05.17/outbox.cif.g08.bks.cpg/sg40_5_cif.got.tgz:8793.got - 2010.06.03 18:35:42.
