data_PCOD9365400
_publ_section_title
;
Structure prediction by ZEFSAII (Michael W. Deem and Ramdas Pophale) SiO2 
 PCOD9365400
Probable space group: A M A 2
;
_chemical_formula_sum "Si O2"
_cell_formula_units_Z 64
_cell_length_a 19.596081
_cell_length_b 16.374489
_cell_length_c 9.783040
_cell_angle_alpha 90.000000
_cell_angle_beta 90.000000
_cell_angle_gamma 90.000000
_cell_volume 3139.140911
_symmetry_space_group_name_H-M "A M A 2"
_symmetry_group_IT_number 40
_symmetry_cell_setting 'orthorhombic'
loop_
_space_group_symop_operation_xyz
x,y,z
-x,-y,z
1/2-x,y,z
1/2+x,-y,z
x,1/2+y,1/2+z
-x,1/2-y,1/2+z
1/2-x,1/2+y,1/2+z
1/2+x,1/2-y,1/2+z
loop_
_atom_site_type_symbol
_atom_site_label
_atom_site_fract_x
_atom_site_fract_y
_atom_site_fract_z
Si Si1 0.020692 0.201328 0.365440
Si Si2 0.173193 0.289732 0.709547
Si Si3 0.921503 0.969541 0.303331
Si Si4 0.876698 0.707282 0.011920
Si Si5 0.831018 0.395440 0.247378
Si Si6 0.830414 0.041325 0.537818
Si Si7 0.955802 0.173127 0.078110
Si Si8 0.402283 0.607046 0.535084
O O1 0.067036 0.121686 0.361917
O O2 0.057111 0.274549 0.442587
O O3 0.953386 0.190453 0.458940
O O4 0.991527 0.215984 0.212474
O O5 0.250000 0.304494 0.663971
O O6 0.168153 0.294976 0.873501
O O7 0.153062 0.194260 0.684890
O O8 0.117407 0.347853 0.640278
O O9 0.876897 0.023192 0.405318
O O10 0.886324 0.954716 0.156860
O O11 0.000000 0.000000 0.290202
O O12 0.850985 0.630155 0.096693
O O13 0.876577 0.799708 0.067581
O O14 0.750000 0.393290 0.278940
O O15 0.872611 0.409183 0.386350
O O16 0.844030 0.468305 0.143009
O O17 0.750000 0.040301 0.504779
O O18 0.014942 0.110768 0.034997
#
# Coordination Sequence:
#
# PCOD9365400 Si02
#       8
#     8   8   8   8   8   8   8   8
#     4   9  17  32  53  80 112 149 187 241 283 340
#     4   9  16  29  52  84 116 151 193 234 292 360
#     4  11  21  36  59  86 125 154 194 244 296 354
#     4   9  17  34  57  83 112 153 199 239 288 347
#     4   9  19  36  59  84 115 156 197 240 294 362
#     4  11  22  36  60  92 121 149 194 251 302 348
#     4   9  17  29  54  83 110 145 197 244 281 334
#     4   9  20  37  60  81 118 161 202 240 287 354
#
# _framework density 20.387741999999999
#
# number of rings (size 3 to 8) (size 9 to 14) (size 15 to 20)
#    0.000    2.500    1.250    1.875    0.000    1.000 
#    0.000    0.625   30.250    0.750    0.000    5.250 
#    0.000    0.000    0.000    0.000    0.000    0.000 
#
# Total GULP energy -178326.320480 kJ/mol
# GULP energy per Si atom -5572.697515 kJ/mol
# Density = 2.034134 g / cm^3
# Si number density = 20.387742 Si / 1000 Ang^3
#
#
#
# Elastic Constant Matrix: (Units=GPa)
#
#
# Indices 1 2 3 4 5 6 
#
# 1 83.9598 20.3964 44.5646 0.0000 0.0000 0.0000
# 2 20.3964 88.9071 32.4742 0.0000 0.0000 0.0000
# 3 44.5646 32.4742 59.5343 0.0000 0.0000 0.0000
# 4 0.0000 0.0000 0.0000 28.8050 0.0000 0.0000
# 5 0.0000 0.0000 0.0000 0.0000 20.4904 0.0000
# 6 0.0000 0.0000 0.0000 0.0000 0.0000 13.3650
#
#
#
# Elastic Compliance Matrix: (Units=1/GPa)
#
#
# Indices 1 2 3 4 5 6 
#
# 1 0.019847 0.001091 -0.015451 0.000000 0.000000 0.000000
# 2 0.001091 0.014106 -0.008511 0.000000 0.000000 0.000000
# 3 -0.015451 -0.008511 0.033006 0.000000 0.000000 0.000000
# 4 0.000000 0.000000 0.000000 0.034716 0.000000 0.000000
# 5 0.000000 0.000000 0.000000 0.000000 0.048803 0.000000
# 6 0.000000 0.000000 0.000000 0.000000 0.000000 0.074823
#
#
# Mechanical properties :
#
#
# Convention : Reuss Voigt Hill
#
# Bulk Modulus (GPa) = 47.13541 47.47460 47.30501
# Shear Modulus (GPa) = 17.97812 21.52980 19.75396
#
# Velocity S-wave (km/s) = 2.97275 3.25317 3.11611
# Velocity P-wave (km/s) = 5.91208 6.11941 6.01664
#
# Compressibility (1/GPa) = 0.02121547
#
# Stress axis : x y z
#
# Youngs Moduli (GPa) = 50.38585 70.89090 30.29786
#
# Poissons Ratio (x) = -0.07732 0.46814
# Poissons Ratio (y) = -0.05495 0.25786
# Poissons Ratio (z) = 0.77853 0.60335
#
# Static dielectric constant tensor:
#      x y z
#    x 1.738060 0.000000 0.000000 
#    y 0.000000 1.815930 0.000000 
#    z 0.000000 0.000000 1.732360 
# 
# From -- ./inp_files/8442.got.cif
#   From: 2010.05.17/outbox.cif.g08.bks.cpg/sg40_5_cif.got.tgz:8442.got - 2010.06.03 18:35:42.
