data_PCOD9365838
_publ_section_title
;
Structure prediction by ZEFSAII (Michael W. Deem and Ramdas Pophale) SiO2 
 PCOD9365838
Probable space group: A B A 2
;
_chemical_formula_sum "Si O2"
_cell_formula_units_Z 64
_cell_length_a 15.912478
_cell_length_b 9.381226
_cell_length_c 22.767197
_cell_angle_alpha 90.000000
_cell_angle_beta 90.000000
_cell_angle_gamma 90.000000
_cell_volume 3398.654209
_symmetry_space_group_name_H-M "A B A 2"
_symmetry_group_IT_number 41
_symmetry_cell_setting 'orthorhombic'
loop_
_space_group_symop_operation_xyz
x,y,z
-x,-y,z
1/2-x,y,1/2+z
1/2+x,-y,1/2+z
x,1/2+y,1/2+z
-x,1/2-y,1/2+z
1/2-x,1/2+y,z
1/2+x,1/2-y,z
loop_
_atom_site_type_symbol
_atom_site_label
_atom_site_fract_x
_atom_site_fract_y
_atom_site_fract_z
Si Si1 0.494989 0.168366 0.309660
Si Si2 0.484199 0.166351 0.601957
Si Si3 0.584439 0.597037 0.520748
Si Si4 0.671277 0.864191 0.245447
Si Si5 0.787830 0.570613 0.784445
Si Si6 0.921038 0.608951 0.888461
Si Si7 0.575735 0.884428 0.729946
Si Si8 0.592824 0.925308 0.127492
O O1 0.420719 0.191366 0.262574
O O2 0.463341 0.242406 0.368999
O O3 0.568040 0.260883 0.279074
O O4 0.500000 0.000000 0.315666
O O5 0.437582 0.251262 0.549961
O O6 0.434741 0.173235 0.664052
O O7 0.567776 0.262190 0.612766
O O8 0.500000 0.000000 0.589874
O O9 0.500000 0.500000 0.515198
O O10 0.614734 0.609488 0.454343
O O11 0.630953 0.507782 0.571529
O O12 0.726282 0.724118 0.255946
O O13 0.656227 0.928016 0.181505
O O14 0.702140 0.983934 0.290762
O O15 0.846471 0.578469 0.842064
O O16 0.840179 0.474033 0.738769
O O17 0.000000 0.500000 0.883185
O O18 0.500000 0.000000 0.739206
O O19 0.500000 0.000000 0.140723
#
# Coordination Sequence:
#
# PCOD9365838 Si02
#       8
#     8   8   8   8   8   8   8   8
#     4  11  21  31  56  82 109 148 182 234 273 328
#     4   9  16  26  51  79 110 136 174 224 275 315
#     4   8  18  30  53  79 103 145 185 223 263 323
#     4  11  22  34  50  80 116 138 182 229 283 337
#     4  11  23  34  54  81 111 147 179 231 283 336
#     4  10  18  38  55  75 110 150 191 216 272 335
#     4  11  17  35  54  77 111 149 180 221 289 330
#     4   9  17  33  53  81 108 140 180 223 270 328
#
# _framework density 18.830981999999999
#
# number of rings (size 3 to 8) (size 9 to 14) (size 15 to 20)
#    0.000    2.250    5.000    1.125    3.500    0.500 
#    0.000    0.000    0.000    6.000    0.000    0.000 
#    0.000    0.000    0.000    0.000    0.000    0.000 
#
# Total GULP energy -178151.536558 kJ/mol
# GULP energy per Si atom -5567.235517 kJ/mol
# Density = 1.878812 g / cm^3
# Si number density = 18.830982 Si / 1000 Ang^3
#
#
#
# Elastic Constant Matrix: (Units=GPa)
#
#
# Indices 1 2 3 4 5 6 
#
# 1 28.8998 14.7805 15.7958 0.0000 0.0000 0.0000
# 2 14.7805 144.8411 44.9335 0.0000 0.0000 0.0000
# 3 15.7958 44.9335 144.9105 0.0000 0.0000 0.0000
# 4 0.0000 0.0000 0.0000 20.2629 0.0000 0.0000
# 5 0.0000 0.0000 0.0000 0.0000 10.5368 0.0000
# 6 0.0000 0.0000 0.0000 0.0000 0.0000 22.1978
#
#
#
# Elastic Compliance Matrix: (Units=1/GPa)
#
#
# Indices 1 2 3 4 5 6 
#
# 1 0.037833 -0.002856 -0.003238 0.000000 0.000000 0.000000
# 2 -0.002856 0.007855 -0.002124 0.000000 0.000000 0.000000
# 3 -0.003238 -0.002124 0.007912 0.000000 0.000000 0.000000
# 4 0.000000 0.000000 0.000000 0.049351 0.000000 0.000000
# 5 0.000000 0.000000 0.000000 0.000000 0.094906 0.000000
# 6 0.000000 0.000000 0.000000 0.000000 0.000000 0.045050
#
#
# Mechanical properties :
#
#
# Convention : Reuss Voigt Hill
#
# Bulk Modulus (GPa) = 26.90863 52.18566 39.54715
# Shear Modulus (GPa) = 18.40052 26.80893 22.60472
#
# Velocity S-wave (km/s) = 3.12932 3.77724 3.46844
# Velocity P-wave (km/s) = 5.23234 6.84077 6.08989
#
# Compressibility (1/GPa) = 0.03716280
#
# Stress axis : x y z
#
# Youngs Moduli (GPa) = 26.43192 127.31466 126.38277
#
# Poissons Ratio (x) = 0.36362 0.40927
# Poissons Ratio (y) = 0.07549 0.26846
# Poissons Ratio (z) = 0.08560 0.27044
#
# Static dielectric constant tensor:
#      x y z
#    x 1.705070 0.000000 0.000000 
#    y 0.000000 1.696450 0.000000 
#    z 0.000000 0.000000 1.676850 
# 
# From -- ./inp_files/12297.got.cif
#   From: 2010.05.17/outbox.cif.g08.bks.cpg/sg41_7_cif.got.tgz:12297.got - 2010.06.03 18:54:24.
