data_PCOD9365622
_publ_section_title
;
Structure prediction by ZEFSAII (Michael W. Deem and Ramdas Pophale) SiO2 
 PCOD9365622
Probable space group: A M A 2
;
_chemical_formula_sum "Si O2"
_cell_formula_units_Z 32
_cell_length_a 9.000000
_cell_length_b 30.000000
_cell_length_c 15.000000
_cell_angle_alpha 90.000000
_cell_angle_beta 90.000000
_cell_angle_gamma 90.000000
_cell_volume 4050.000000
_symmetry_space_group_name_H-M "A M A 2"
_symmetry_group_IT_number 40
_symmetry_cell_setting 'orthorhombic'
loop_
_space_group_symop_operation_xyz
x,y,z
-x,-y,z
1/2-x,y,z
1/2+x,-y,z
x,1/2+y,1/2+z
-x,1/2-y,1/2+z
1/2-x,1/2+y,1/2+z
1/2+x,1/2-y,1/2+z
loop_
_atom_site_type_symbol
_atom_site_label
_atom_site_fract_x
_atom_site_fract_y
_atom_site_fract_z
Si Si1 0.071865 0.780343 0.515510
Si Si2 0.428400 0.278832 0.805320
Si Si3 0.928912 0.861611 0.198449
Si Si4 0.431525 0.951123 0.510983
Si Si5 0.070115 0.318347 0.313889
Si Si6 0.430944 0.048982 0.313832
Si Si7 0.430110 0.178651 0.009412
Si Si8 0.069667 0.364672 0.130968
O O1 0.250000 0.780020 0.528367
O O2 0.044053 0.787885 0.410636
O O3 0.023097 0.729538 0.536399
O O4 0.014765 0.821743 0.573728
O O5 0.250000 0.275166 0.792293
O O6 0.494005 0.320287 0.749977
O O7 0.505510 0.230730 0.787652
O O8 0.750000 0.856478 0.205944
O O9 0.964819 0.909620 0.245568
O O10 0.965150 0.854198 0.092672
O O11 0.250000 0.953858 0.505718
O O12 0.498802 0.940856 0.412054
O O13 0.471794 0.911256 0.581141
O O14 0.500000 0.000000 0.535138
O O15 0.250000 0.315691 0.319146
O O16 0.030367 0.353352 0.234319
O O17 0.003862 0.329970 0.412215
O O18 0.250000 0.045240 0.320224
O O19 0.500000 0.000000 0.288537
O O20 0.250000 0.178738 0.997459
O O21 0.250000 0.364573 0.128288
#
# Coordination Sequence:
#
# PCOD9365622 Si02
#       8
#     8   8   8   8   8   8   8   8
#     4   8  14  26  44  66  93 125 156 186 227 281
#     4  10  19  30  47  73 103 133 164 197 239 290
#     4  10  20  33  51  72  96 129 167 204 243 289
#     4  10  19  33  52  74 100 129 159 194 241 293
#     4  10  19  32  49  70  97 130 168 206 242 284
#     4  10  20  34  52  76 102 127 156 193 241 293
#     4   9  18  33  49  67  95 129 163 202 247 287
#     4   9  17  29  48  70  93 126 163 196 237 287
#
# _framework density 7.9012349999999998
#
# number of rings (size 3 to 8) (size 9 to 14) (size 15 to 20)
#    0.000    2.500    0.000    4.500    0.000    4.500 
#    0.000    2.500    0.000    5.250    0.000    5.250 
#    0.000    0.000    0.000    0.000    0.000    0.000 
#
# Total GULP energy -178267.657917 kJ/mol
# GULP energy per Si atom -5570.864310 kJ/mol
# Density = 0.788325 g / cm^3
# Si number density = 7.901235 Si / 1000 Ang^3
#
#
#
# Elastic Constant Matrix: (Units=GPa)
#
#
# Indices 1 2 3 4 5 6 
#
# 1 58.2845 33.7218 35.1194 0.0000 0.0000 0.0000
# 2 33.7218 128.1668 88.2370 0.0000 0.0000 0.0000
# 3 35.1194 88.2370 122.2385 0.0000 0.0000 0.0000
# 4 0.0000 0.0000 0.0000 38.1315 0.0000 0.0000
# 5 0.0000 0.0000 0.0000 0.0000 26.2767 0.0000
# 6 0.0000 0.0000 0.0000 0.0000 0.0000 23.5054
#
#
#
# Elastic Compliance Matrix: (Units=1/GPa)
#
#
# Indices 1 2 3 4 5 6 
#
# 1 0.021228 -0.002756 -0.004109 0.000000 0.000000 0.000000
# 2 -0.002756 0.015868 -0.010662 0.000000 0.000000 0.000000
# 3 -0.004109 -0.010662 0.017058 0.000000 0.000000 0.000000
# 4 0.000000 0.000000 0.000000 0.026225 0.000000 0.000000
# 5 0.000000 0.000000 0.000000 0.000000 0.038056 0.000000
# 6 0.000000 0.000000 0.000000 0.000000 0.000000 0.042543
#
#
# Mechanical properties :
#
#
# Convention : Reuss Voigt Hill
#
# Bulk Modulus (GPa) = 52.36107 69.20515 60.78311
# Shear Modulus (GPa) = 24.70347 27.69017 26.19682
#
# Velocity S-wave (km/s) = 3.95811 4.19055 4.07599
# Velocity P-wave (km/s) = 7.35496 8.20386 7.79098
#
# Compressibility (1/GPa) = 0.01909816
#
# Stress axis : x y z
#
# Youngs Moduli (GPa) = 47.10767 63.01958 58.62379
#
# Poissons Ratio (x) = 0.17369 0.24090
# Poissons Ratio (y) = 0.12984 0.62507
# Poissons Ratio (z) = 0.19358 0.67194
#
# Static dielectric constant tensor:
#      x y z
#    x 1.534590 0.000000 0.000000 
#    y 0.000000 1.531730 0.000000 
#    z 0.000000 0.000000 1.545670 
# 
# From -- ./inp_files/15928.got.cif
#   From: 2010.05.17/outbox.ucp.g08.bks.cvg/sg40_8_cif.got.tgz:15928.got - 2010.06.11 16:26:39.
