data_PCOD9365226
_publ_section_title
;
Structure prediction by ZEFSAII (Michael W. Deem and Ramdas Pophale) SiO2 
 PCOD9365226
Probable space group: A M A 2
;
_chemical_formula_sum "Si O2"
_cell_formula_units_Z 40
_cell_length_a 22.746090
_cell_length_b 14.356326
_cell_length_c 5.117523
_cell_angle_alpha 90.000000
_cell_angle_beta 90.000000
_cell_angle_gamma 90.000000
_cell_volume 1671.128585
_symmetry_space_group_name_H-M "A M A 2"
_symmetry_group_IT_number 40
_symmetry_cell_setting 'orthorhombic'
loop_
_space_group_symop_operation_xyz
x,y,z
-x,-y,z
1/2-x,y,z
1/2+x,-y,z
x,1/2+y,1/2+z
-x,1/2-y,1/2+z
1/2-x,1/2+y,1/2+z
1/2+x,1/2-y,1/2+z
loop_
_atom_site_type_symbol
_atom_site_label
_atom_site_fract_x
_atom_site_fract_y
_atom_site_fract_z
Si Si1 0.568661 0.071228 0.295120
Si Si2 0.750000 0.051958 0.650648
Si Si3 0.374943 0.732398 0.172386
Si Si4 0.473531 0.201361 0.318147
Si Si5 0.750000 0.183079 0.144801
Si Si6 0.377850 0.525266 0.290696
O O1 0.598506 0.174320 0.296850
O O2 0.500273 0.100141 0.251882
O O3 0.582263 0.018797 0.562363
O O4 0.602410 0.022628 0.057454
O O5 0.750000 0.102588 0.368391
O O6 0.689637 0.995557 0.704953
O O7 0.750000 0.132769 0.866727
O O8 0.306704 0.752634 0.162298
O O9 0.387533 0.635365 0.313629
O O10 0.405609 0.716449 0.888870
O O11 0.503221 0.230653 0.594482
#
# Coordination Sequence:
#
# PCOD9365226 Si02
#       6
#     8   4   8   8   4   8
#     4  11  24  46  68 104 143 187 230 298 341 421
#     4  12  23  46  67 106 140 186 229 304 347 428
#     4  11  25  47  72 107 138 192 231 293 348 429
#     4  10  23  43  73 101 143 186 234 287 354 414
#     4  12  25  44  77  98 148 186 231 290 371 402
#     4  12  25  43  74 101 143 182 241 283 357 418
#
# _framework density 23.935918999999998
#
# number of rings (size 3 to 8) (size 9 to 14) (size 15 to 20)
#    0.000    0.800    4.000    3.000    0.000    7.200 
#    0.000    8.000    0.000    0.000    0.000    0.000 
#    0.000    0.000    0.000    0.000    0.000    0.000 
#
# Total GULP energy -112002.343446 kJ/mol
# GULP energy per Si atom -5600.117172 kJ/mol
# Density = 2.388144 g / cm^3
# Si number density = 23.935919 Si / 1000 Ang^3
#
#
#
# Elastic Constant Matrix: (Units=GPa)
#
#
# Indices 1 2 3 4 5 6 
#
# 1 103.1224 33.0122 42.1309 0.0000 0.0000 0.0000
# 2 33.0122 146.1229 15.3662 0.0000 0.0000 0.0000
# 3 42.1309 15.3662 73.0179 0.0000 0.0000 0.0000
# 4 0.0000 0.0000 0.0000 29.9719 0.0000 0.0000
# 5 0.0000 0.0000 0.0000 0.0000 36.8102 0.0000
# 6 0.0000 0.0000 0.0000 0.0000 0.0000 45.6826
#
#
#
# Elastic Compliance Matrix: (Units=1/GPa)
#
#
# Indices 1 2 3 4 5 6 
#
# 1 0.013381 -0.002261 -0.007245 0.000000 0.000000 0.000000
# 2 -0.002261 0.007381 -0.000249 0.000000 0.000000 0.000000
# 3 -0.007245 -0.000249 0.017928 0.000000 0.000000 0.000000
# 4 0.000000 0.000000 0.000000 0.033365 0.000000 0.000000
# 5 0.000000 0.000000 0.000000 0.000000 0.027166 0.000000
# 6 0.000000 0.000000 0.000000 0.000000 0.000000 0.021890
#
#
# Mechanical properties :
#
#
# Convention : Reuss Voigt Hill
#
# Bulk Modulus (GPa) = 52.13711 55.92019 54.02865
# Shear Modulus (GPa) = 34.01058 37.94320 35.97689
#
# Velocity S-wave (km/s) = 3.77357 3.98578 3.88113
# Velocity P-wave (km/s) = 6.38872 6.67795 6.53494
#
# Compressibility (1/GPa) = 0.01918020
#
# Stress axis : x y z
#
# Youngs Moduli (GPa) = 74.73289 135.49155 55.77919
#
# Poissons Ratio (x) = 0.30637 0.40411
# Poissons Ratio (y) = 0.16898 0.01386
# Poissons Ratio (z) = 0.54143 0.03367
#
# Static dielectric constant tensor:
#      x y z
#    x 2.058430 0.000000 0.000000 
#    y 0.000000 1.925370 0.000000 
#    z 0.000000 0.000000 1.848720 
# 
# From -- ./inp_files/2674.got.cif
#   From: 2010.05.17/outbox.cif.g08.bks.cpg/sg40_2_cif.got.tgz:2674.got - 2010.06.03 18:35:42.
