data_PCOD9365730
_publ_section_title
;
Structure prediction by ZEFSAII (Michael W. Deem and Ramdas Pophale) SiO2 
 PCOD9365730
Probable space group: A B A 2
;
_chemical_formula_sum "Si O2"
_cell_formula_units_Z 64
_cell_length_a 8.884619
_cell_length_b 14.658997
_cell_length_c 20.632874
_cell_angle_alpha 90.000000
_cell_angle_beta 90.000000
_cell_angle_gamma 90.000000
_cell_volume 2687.217324
_symmetry_space_group_name_H-M "A B A 2"
_symmetry_group_IT_number 41
_symmetry_cell_setting 'orthorhombic'
loop_
_space_group_symop_operation_xyz
x,y,z
-x,-y,z
1/2-x,y,1/2+z
1/2+x,-y,1/2+z
x,1/2+y,1/2+z
-x,1/2-y,1/2+z
1/2-x,1/2+y,z
1/2+x,1/2-y,z
loop_
_atom_site_type_symbol
_atom_site_label
_atom_site_fract_x
_atom_site_fract_y
_atom_site_fract_z
Si Si1 0.878591 0.133277 0.271970
Si Si2 0.085225 0.743995 0.930868
Si Si3 0.618988 0.576030 0.410778
Si Si4 0.694280 0.340144 0.111530
Si Si5 0.647329 0.165353 0.571407
Si Si6 0.147760 0.180570 0.835636
Si Si7 0.286023 0.056127 0.740986
Si Si8 0.681095 0.992950 0.033380
O O1 0.820132 0.112211 0.344511
O O2 0.861237 0.242547 0.277115
O O3 0.053531 0.103696 0.262199
O O4 0.797608 0.052993 0.231989
O O5 0.968375 0.660431 0.944770
O O6 0.998197 0.808968 0.880287
O O7 0.218700 0.700913 0.887564
O O8 0.127572 0.795520 0.997371
O O9 0.500000 0.500000 0.390608
O O10 0.721390 0.523152 0.460614
O O11 0.753910 0.238369 0.109836
O O12 0.515441 0.342151 0.103992
O O13 0.749604 0.396226 0.173268
O O14 0.762980 0.393484 0.050260
O O15 0.730602 0.069003 0.573243
O O16 0.175686 0.086824 0.798290
O O17 0.500000 0.000000 0.039863
#
# Coordination Sequence:
#
# PCOD9365730 Si02
#       8
#     8   8   8   8   8   8   8   8
#     4  10  21  40  67  96 129 177 224 278 349 410
#     4  11  22  38  68 100 138 168 229 286 353 422
#     4  10  16  35  65  95 127 168 217 278 347 414
#     4  12  28  44  69  99 142 191 241 287 351 438
#     4  12  25  46  67 102 139 186 235 300 362 424
#     4  11  21  41  68 104 132 176 221 288 355 416
#     4  11  24  42  67  97 134 186 233 276 345 429
#     4  11  25  44  71 100 136 182 237 295 362 426
#
# _framework density 23.816458000000001
#
# number of rings (size 3 to 8) (size 9 to 14) (size 15 to 20)
#    0.000    1.000    3.750    5.625    5.250    1.000 
#    0.000    3.125    0.000    0.000    0.000    0.000 
#    0.000    0.000    0.000    0.000    0.000    0.000 
#
# Total GULP energy -178793.318235 kJ/mol
# GULP energy per Si atom -5587.291195 kJ/mol
# Density = 2.376225 g / cm^3
# Si number density = 23.816458 Si / 1000 Ang^3
#
#
#
# Elastic Constant Matrix: (Units=GPa)
#
#
# Indices 1 2 3 4 5 6 
#
# 1 51.0275 -9.2808 -1.7369 0.0000 0.0000 0.0000
# 2 -9.2808 72.8373 -12.9300 0.0000 0.0000 0.0000
# 3 -1.7369 -12.9300 71.3795 0.0000 0.0000 0.0000
# 4 0.0000 0.0000 0.0000 17.2503 0.0000 0.0000
# 5 0.0000 0.0000 0.0000 0.0000 -34.8705 0.0000
# 6 0.0000 0.0000 0.0000 0.0000 0.0000 42.7553
#
#
#
# Elastic Compliance Matrix: (Units=1/GPa)
#
#
# Indices 1 2 3 4 5 6 
#
# 1 0.020129 0.002740 0.000986 0.000000 0.000000 0.000000
# 2 0.002740 0.014558 0.002704 0.000000 0.000000 0.000000
# 3 0.000986 0.002704 0.014523 0.000000 0.000000 0.000000
# 4 0.000000 0.000000 0.000000 0.057970 0.000000 0.000000
# 5 0.000000 0.000000 0.000000 0.000000 -0.028678 0.000000
# 6 0.000000 0.000000 0.000000 0.000000 0.000000 0.023389
#
#
# Mechanical properties :
#
#
# Convention : Reuss Voigt Hill
#
# Bulk Modulus (GPa) = 16.11071 16.37211 16.24141
# Shear Modulus (GPa) = 45.56938 19.63982 32.60460
#
# Velocity S-wave (km/s) = 4.37894 2.87476 3.70401
# Velocity P-wave (km/s) = 5.68736 4.23181 5.01269
#
# Compressibility (1/GPa) = 0.06207052
#
# Stress axis : x y z
#
# Youngs Moduli (GPa) = 49.67916 68.68927 68.85442
#
# Poissons Ratio (x) = -0.18820 -0.06790
# Poissons Ratio (y) = -0.13611 -0.18617
# Poissons Ratio (z) = -0.04899 -0.18572
#
# Static dielectric constant tensor:
#      x y z
#    x 1.936380 0.000000 0.000000 
#    y 0.000000 1.931300 0.000000 
#    z 0.000000 0.000000 1.968270 
# 
# From -- ./inp_files/12050.got.cif
#   From: 2010.05.17/outbox.cif.g08.bks.cpg/sg41_7_cif.got.tgz:12050.got - 2010.06.03 18:54:24.
