data_PCOD9365179
_publ_section_title
;
Structure prediction by ZEFSAII (Michael W. Deem and Ramdas Pophale) SiO2 
 PCOD9365179
Probable space group: A M A 2
;
_chemical_formula_sum "Si O2"
_cell_formula_units_Z 64
_cell_length_a 17.725774
_cell_length_b 11.877719
_cell_length_c 14.541108
_cell_angle_alpha 90.000000
_cell_angle_beta 90.000000
_cell_angle_gamma 90.000000
_cell_volume 3061.510509
_symmetry_space_group_name_H-M "A M A 2"
_symmetry_group_IT_number 40
_symmetry_cell_setting 'orthorhombic'
loop_
_space_group_symop_operation_xyz
x,y,z
-x,-y,z
1/2-x,y,z
1/2+x,-y,z
x,1/2+y,1/2+z
-x,1/2-y,1/2+z
1/2-x,1/2+y,1/2+z
1/2+x,1/2-y,1/2+z
loop_
_atom_site_type_symbol
_atom_site_label
_atom_site_fract_x
_atom_site_fract_y
_atom_site_fract_z
Si Si1 0.441775 0.150732 0.872510
Si Si2 0.838901 0.589146 0.633042
Si Si3 0.162232 0.852820 0.336159
Si Si4 0.554808 0.905100 0.079279
Si Si5 0.089313 0.496947 0.211094
Si Si6 0.159218 0.661776 0.060044
Si Si7 0.926470 0.747662 0.243011
Si Si8 0.582656 0.438513 0.888259
O O1 0.378399 0.245389 0.876775
O O2 0.506645 0.202831 0.808302
O O3 0.411546 0.045334 0.814752
O O4 0.466048 0.121737 0.974950
O O5 0.750000 0.576588 0.643622
O O6 0.869750 0.613776 0.735590
O O7 0.867969 0.475485 0.585875
O O8 0.852941 0.705990 0.580651
O O9 0.250000 0.830413 0.328304
O O10 0.142990 0.961423 0.394924
O O11 0.551313 0.798638 0.144863
O O12 0.500000 0.000000 0.118645
O O13 0.136083 0.581432 0.146088
O O14 0.117240 0.367918 0.218157
O O15 0.000000 0.500000 0.180703
O O16 0.250000 0.647646 0.040788
O O17 0.100467 0.631628 0.979463
O O18 0.898884 0.855613 0.302321
O O19 0.500000 0.500000 0.882499
#
# Coordination Sequence:
#
# PCOD9365179 Si02
#       8
#     8   8   8   8   8   8   8   8
#     4  11  24  41  65  97 132 174 217 272 331 390
#     4  10  23  44  68  95 132 177 222 270 328 390
#     4  11  22  42  67  94 131 177 224 273 328 394
#     4  12  25  40  70  98 130 168 219 279 329 391
#     4  10  23  41  64  96 134 170 217 270 326 396
#     4  11  25  44  67  97 134 179 221 268 331 401
#     4  11  24  42  64 100 131 167 218 274 336 386
#     4  12  24  41  69  98 133 172 220 278 332 393
#
# _framework density 20.904713999999998
#
# number of rings (size 3 to 8) (size 9 to 14) (size 15 to 20)
#    0.000    1.000    3.750    3.000    7.000    0.500 
#    0.000    1.875    0.000    0.000    0.000    0.000 
#    0.000    0.000    0.000    0.000    0.000    0.000 
#
# Total GULP energy -178545.068246 kJ/mol
# GULP energy per Si atom -5579.533383 kJ/mol
# Density = 2.085713 g / cm^3
# Si number density = 20.904714 Si / 1000 Ang^3
#
#
#
# Elastic Constant Matrix: (Units=GPa)
#
#
# Indices 1 2 3 4 5 6 
#
# 1 27.5552 4.5730 -5.1448 0.0000 0.0000 0.0000
# 2 4.5730 107.0031 17.8312 0.0000 0.0000 0.0000
# 3 -5.1448 17.8312 79.0541 0.0000 0.0000 0.0000
# 4 0.0000 0.0000 0.0000 20.9101 0.0000 0.0000
# 5 0.0000 0.0000 0.0000 0.0000 11.6429 0.0000
# 6 0.0000 0.0000 0.0000 0.0000 0.0000 21.5422
#
#
#
# Elastic Compliance Matrix: (Units=1/GPa)
#
#
# Indices 1 2 3 4 5 6 
#
# 1 0.037173 -0.002070 0.002886 0.000000 0.000000 0.000000
# 2 -0.002070 0.009826 -0.002351 0.000000 0.000000 0.000000
# 3 0.002886 -0.002351 0.013368 0.000000 0.000000 0.000000
# 4 0.000000 0.000000 0.000000 0.047824 0.000000 0.000000
# 5 0.000000 0.000000 0.000000 0.000000 0.085889 0.000000
# 6 0.000000 0.000000 0.000000 0.000000 0.000000 0.046420
#
#
# Mechanical properties :
#
#
# Convention : Reuss Voigt Hill
#
# Bulk Modulus (GPa) = 17.45280 27.57014 22.51147
# Shear Modulus (GPa) = 19.03543 23.90925 21.47234
#
# Velocity S-wave (km/s) = 3.02086 3.38557 3.20840
# Velocity P-wave (km/s) = 4.53148 5.33853 4.95147
#
# Compressibility (1/GPa) = 0.05729739
#
# Stress axis : x y z
#
# Youngs Moduli (GPa) = 26.90118 101.77355 74.80747
#
# Poissons Ratio (x) = 0.21063 -0.21589
# Poissons Ratio (y) = 0.05567 0.17587
# Poissons Ratio (z) = -0.07764 0.23926
#
# Static dielectric constant tensor:
#      x y z
#    x 1.819190 0.000000 0.000000 
#    y 0.000000 1.805970 0.000000 
#    z 0.000000 0.000000 1.774160 
# 
# From -- ./inp_files/17895.got.cif
#   From: 2010.05.17/outbox.cif.g08.bks.cpg/sg40_9_cif.got.tgz:17895.got - 2010.06.03 18:35:42.
