data_PCOD9365416
_publ_section_title
;
Structure prediction by ZEFSAII (Michael W. Deem and Ramdas Pophale) SiO2 
 PCOD9365416
Probable space group: A M A 2
;
_chemical_formula_sum "Si O2"
_cell_formula_units_Z 40
_cell_length_a 16.714121
_cell_length_b 17.929174
_cell_length_c 5.834641
_cell_angle_alpha 90.000000
_cell_angle_beta 90.000000
_cell_angle_gamma 90.000000
_cell_volume 1748.469107
_symmetry_space_group_name_H-M "A M A 2"
_symmetry_group_IT_number 40
_symmetry_cell_setting 'orthorhombic'
loop_
_space_group_symop_operation_xyz
x,y,z
-x,-y,z
1/2-x,y,z
1/2+x,-y,z
x,1/2+y,1/2+z
-x,1/2-y,1/2+z
1/2-x,1/2+y,1/2+z
1/2+x,1/2-y,1/2+z
loop_
_atom_site_type_symbol
_atom_site_label
_atom_site_fract_x
_atom_site_fract_y
_atom_site_fract_z
Si Si1 0.453729 0.933393 0.569280
Si Si2 0.382212 0.615415 0.675990
Si Si3 0.843706 0.036286 0.956817
Si Si4 0.392990 0.160891 0.680983
Si Si5 0.430845 0.334462 0.688197
O O1 0.393941 0.978507 0.729477
O O2 0.524040 0.886080 0.689274
O O3 0.406394 0.871563 0.429146
O O4 0.500000 0.000000 0.437037
O O5 0.366669 0.527391 0.639547
O O6 0.350776 0.647278 0.428542
O O7 0.475224 0.643076 0.676489
O O8 0.353915 0.639675 0.932508
O O9 0.750000 0.035790 0.923238
O O10 0.877105 0.117779 0.017812
O O11 0.416948 0.247645 0.668680
#
# Coordination Sequence:
#
# PCOD9365416 Si02
#       5
#     8   8   8   8   8
#     4  11  21  41  69 103 133 180 236 294 339 417
#     4  11  22  44  68 103 129 181 227 286 335 413
#     4  12  26  43  64  97 145 190 230 281 354 429
#     4  11  23  40  77 101 136 163 233 297 348 391
#     4  11  23  40  72 104 130 174 233 297 349 400
#
# _framework density 22.877154999999998
#
# number of rings (size 3 to 8) (size 9 to 14) (size 15 to 20)
#    0.000    0.800    4.000    5.400    2.800    0.800 
#    0.000    2.000    0.000    0.000    0.000    0.000 
#    0.000    0.000    0.000    0.000    0.000    0.000 
#
# Total GULP energy -111477.710211 kJ/mol
# GULP energy per Si atom -5573.885511 kJ/mol
# Density = 2.282509 g / cm^3
# Si number density = 22.877155 Si / 1000 Ang^3
#
#
#
# Elastic Constant Matrix: (Units=GPa)
#
#
# Indices 1 2 3 4 5 6 
#
# 1 79.0271 60.9670 28.8896 0.0000 0.0000 0.0000
# 2 60.9670 141.2001 34.4614 0.0000 0.0000 0.0000
# 3 28.8896 34.4614 156.2184 0.0000 0.0000 0.0000
# 4 0.0000 0.0000 0.0000 11.8895 0.0000 0.0000
# 5 0.0000 0.0000 0.0000 0.0000 -32.7277 0.0000
# 6 0.0000 0.0000 0.0000 0.0000 0.0000 9.4746
#
#
#
# Elastic Compliance Matrix: (Units=1/GPa)
#
#
# Indices 1 2 3 4 5 6 
#
# 1 0.019465 -0.007954 -0.001845 0.000000 0.000000 0.000000
# 2 -0.007954 0.010736 -0.000897 0.000000 0.000000 0.000000
# 3 -0.001845 -0.000897 0.006940 0.000000 0.000000 0.000000
# 4 0.000000 0.000000 0.000000 0.084108 0.000000 0.000000
# 5 0.000000 0.000000 0.000000 0.000000 -0.030555 0.000000
# 6 0.000000 0.000000 0.000000 0.000000 0.000000 0.105545
#
#
# Mechanical properties :
#
#
# Convention : Reuss Voigt Hill
#
# Bulk Modulus (GPa) = 63.50033 69.45352 66.47693
# Shear Modulus (GPa) = 22.43357 14.53579 18.48468
#
# Velocity S-wave (km/s) = 3.13487 2.52342 2.84561
# Velocity P-wave (km/s) = 6.39692 6.23822 6.31807
#
# Compressibility (1/GPa) = 0.01574795
#
# Stress axis : x y z
#
# Youngs Moduli (GPa) = 51.37493 93.14835 144.08351
#
# Poissons Ratio (x) = 0.74092 0.26583
# Poissons Ratio (y) = 0.40864 0.12928
# Poissons Ratio (z) = 0.09478 0.08358
#
# Static dielectric constant tensor:
#      x y z
#    x 1.801960 0.000000 0.000000 
#    y 0.000000 1.911420 0.000000 
#    z 0.000000 0.000000 2.099690 
# 
# From -- ./inp_files/1741.got.cif
#   From: 2010.05.17/outbox.cif.g08.bks.cpg/sg40_1_cif.got.tgz:1741.got - 2010.06.03 18:35:42.
