data_PCOD9365957
_publ_section_title
;
Structure prediction by ZEFSAII (Michael W. Deem and Ramdas Pophale) SiO2 
 PCOD9365957
Probable space group: A B A 2
;
_chemical_formula_sum "Si O2"
_cell_formula_units_Z 52
_cell_length_a 25.443342
_cell_length_b 5.419607
_cell_length_c 15.470251
_cell_angle_alpha 90.000000
_cell_angle_beta 90.000000
_cell_angle_gamma 90.000000
_cell_volume 2133.237997
_symmetry_space_group_name_H-M "A B A 2"
_symmetry_group_IT_number 41
_symmetry_cell_setting 'orthorhombic'
loop_
_space_group_symop_operation_xyz
x,y,z
-x,-y,z
1/2-x,y,1/2+z
1/2+x,-y,1/2+z
x,1/2+y,1/2+z
-x,1/2-y,1/2+z
1/2-x,1/2+y,z
1/2+x,1/2-y,z
loop_
_atom_site_type_symbol
_atom_site_label
_atom_site_fract_x
_atom_site_fract_y
_atom_site_fract_z
Si Si1 0.000000 0.000000 0.164011
Si Si2 0.464243 0.186024 0.013229
Si Si3 0.759844 0.597100 0.980903
Si Si4 0.103263 0.001310 0.285321
Si Si5 0.673362 0.610559 0.139914
Si Si6 0.135327 0.894707 0.572609
Si Si7 0.938660 0.997769 0.860930
O O1 0.993907 0.228893 0.099006
O O2 0.053295 0.000056 0.218807
O O3 0.416684 0.015062 0.039227
O O4 0.500000 0.000000 0.956741
O O5 0.446002 0.424374 0.960697
O O6 0.746918 0.350051 0.932757
O O7 0.724524 0.603194 0.072899
O O8 0.820429 0.580446 0.001211
O O9 0.137775 0.108568 0.097685
O O10 0.095442 0.271164 0.326360
O O11 0.160247 0.968578 0.239000
O O12 0.654969 0.895724 0.140651
O O13 0.589723 0.739927 0.342737
O O14 0.000000 0.000000 0.826262
#
# Coordination Sequence:
#
# PCOD9365957 Si02
#       7
#     4   8   8   8   8   8   8
#     4  12  24  36  64  90 124 154 220 278 300 364
#     4  12  26  40  60  91 132 174 217 261 316 380
#     4   8  16  31  54  86 119 146 185 262 328 365
#     4  12  24  39  61  87 122 167 211 256 313 375
#     4  10  19  35  58  93 118 148 204 271 320 361
#     4  10  20  35  59  90 122 151 205 263 320 362
#     4  12  25  43  55  81 131 181 206 243 314 388
#
# _framework density 24.376090999999999
#
# number of rings (size 3 to 8) (size 9 to 14) (size 15 to 20)
#    0.000    1.231    3.846    2.769    2.154    0.000 
#    0.000    0.000    0.000    0.000    0.000   58.154 
#    0.000    0.000    0.000    0.000    0.000    0.000 
#
# Total GULP energy -144799.157456 kJ/mol
# GULP energy per Si atom -5569.198364 kJ/mol
# Density = 2.432061 g / cm^3
# Si number density = 24.376091 Si / 1000 Ang^3
#
#
#
# Elastic Constant Matrix: (Units=GPa)
#
#
# Indices 1 2 3 4 5 6 
#
# 1 60.9975 12.9784 -2.6696 0.0000 0.0000 0.0000
# 2 12.9784 147.3890 18.8350 0.0000 0.0000 0.0000
# 3 -2.6696 18.8350 23.4593 0.0000 0.0000 0.0000
# 4 0.0000 0.0000 0.0000 50.5598 0.0000 0.0000
# 5 0.0000 0.0000 0.0000 0.0000 3.2101 0.0000
# 6 0.0000 0.0000 0.0000 0.0000 0.0000 34.2446
#
#
#
# Elastic Compliance Matrix: (Units=1/GPa)
#
#
# Indices 1 2 3 4 5 6 
#
# 1 0.016959 -0.001939 0.003487 0.000000 0.000000 0.000000
# 2 -0.001939 0.007782 -0.006469 0.000000 0.000000 0.000000
# 3 0.003487 -0.006469 0.048217 0.000000 0.000000 0.000000
# 4 0.000000 0.000000 0.000000 0.019779 0.000000 0.000000
# 5 0.000000 0.000000 0.000000 0.000000 0.311514 0.000000
# 6 0.000000 0.000000 0.000000 0.000000 0.000000 0.029202
#
#
# Mechanical properties :
#
#
# Convention : Reuss Voigt Hill
#
# Bulk Modulus (GPa) = 15.84365 32.23702 24.04034
# Shear Modulus (GPa) = 10.76812 31.11638 20.94225
#
# Velocity S-wave (km/s) = 2.10406 3.57671 2.93427
# Velocity P-wave (km/s) = 3.52371 5.50551 4.62208
#
# Compressibility (1/GPa) = 0.06311675
#
# Stress axis : x y z
#
# Youngs Moduli (GPa) = 58.96485 128.49922 20.73939
#
# Poissons Ratio (x) = 0.24915 -0.07231
# Poissons Ratio (y) = 0.11433 0.13416
# Poissons Ratio (z) = -0.20559 0.83123
#
# Static dielectric constant tensor:
#      x y z
#    x 1.973500 0.000000 0.000000 
#    y 0.000000 2.169390 0.000000 
#    z 0.000000 0.000000 2.087870 
# 
# From -- ./inp_files/10774.got.cif
#   From: 2010.05.17/outbox.cif.g08.bks.cpg/sg41_6_cif.got.tgz:10774.got - 2010.06.03 18:54:24.
