data_PCOD9365481
_publ_section_title
;
Structure prediction by ZEFSAII (Michael W. Deem and Ramdas Pophale) SiO2 
 PCOD9365481
Probable space group: A M A 2
;
_chemical_formula_sum "Si O2"
_cell_formula_units_Z 44
_cell_length_a 20.889111
_cell_length_b 8.939220
_cell_length_c 10.511712
_cell_angle_alpha 90.000000
_cell_angle_beta 90.000000
_cell_angle_gamma 90.000000
_cell_volume 1962.876777
_symmetry_space_group_name_H-M "A M A 2"
_symmetry_group_IT_number 40
_symmetry_cell_setting 'orthorhombic'
loop_
_space_group_symop_operation_xyz
x,y,z
-x,-y,z
1/2-x,y,z
1/2+x,-y,z
x,1/2+y,1/2+z
-x,1/2-y,1/2+z
1/2-x,1/2+y,1/2+z
1/2+x,1/2-y,1/2+z
loop_
_atom_site_type_symbol
_atom_site_label
_atom_site_fract_x
_atom_site_fract_y
_atom_site_fract_z
Si Si1 0.605443 0.415798 0.075160
Si Si2 0.365263 0.040489 0.837623
Si Si3 0.750000 0.172961 0.772125
Si Si4 0.437249 0.901917 0.069600
Si Si5 0.250000 0.019811 0.213668
Si Si6 0.250000 0.218857 0.551824
Si Si7 0.627858 0.612403 0.840598
O O1 0.585782 0.461153 0.218180
O O2 0.563625 0.273083 0.033171
O O3 0.680953 0.357921 0.084107
O O4 0.601796 0.545159 0.971385
O O5 0.350472 0.215763 0.856292
O O6 0.310355 0.933932 0.782478
O O7 0.386983 0.976090 0.972400
O O8 0.750000 0.306706 0.668985
O O9 0.750000 0.263671 0.902374
O O10 0.418285 0.900679 0.218330
O O11 0.500000 0.000000 0.052242
O O12 0.250000 0.886178 0.110357
O O13 0.312278 0.986060 0.296835
#
# Coordination Sequence:
#
# PCOD9365481 Si02
#       7
#     8   8   4   8   4   4   8
#     4  11  23  42  65  94 133 166 215 273 326 391
#     4  11  23  41  65 100 127 168 219 268 323 392
#     4  12  22  36  66 100 132 172 206 257 330 403
#     4  11  25  45  65  90 130 174 225 278 325 379
#     4  12  19  37  67  92 131 172 200 251 329 395
#     4  12  19  39  63  92 133 170 202 256 325 402
#     4  11  23  42  69  96 130 175 213 269 330 394
#
# _framework density 22.416079
#
# number of rings (size 3 to 8) (size 9 to 14) (size 15 to 20)
#    0.000    0.727    7.273    1.091    0.000    7.273 
#    0.000    0.909    0.000    0.000    0.000    0.000 
#    0.000    0.000    0.000    0.000    0.000    0.000 
#
# Total GULP energy -122800.612406 kJ/mol
# GULP energy per Si atom -5581.846018 kJ/mol
# Density = 2.236506 g / cm^3
# Si number density = 22.416079 Si / 1000 Ang^3
#
#
#
# Elastic Constant Matrix: (Units=GPa)
#
#
# Indices 1 2 3 4 5 6 
#
# 1 14.9791 1.1831 -5.5862 0.0000 0.0000 0.0000
# 2 1.1831 140.5318 55.3387 0.0000 0.0000 0.0000
# 3 -5.5862 55.3387 83.6023 0.0000 0.0000 0.0000
# 4 0.0000 0.0000 0.0000 38.3630 0.0000 0.0000
# 5 0.0000 0.0000 0.0000 0.0000 2.7610 0.0000
# 6 0.0000 0.0000 0.0000 0.0000 0.0000 -7.5339
#
#
#
# Elastic Compliance Matrix: (Units=1/GPa)
#
#
# Indices 1 2 3 4 5 6 
#
# 1 0.069557 -0.003267 0.006811 0.000000 0.000000 0.000000
# 2 -0.003267 0.009778 -0.006691 0.000000 0.000000 0.000000
# 3 0.006811 -0.006691 0.016845 0.000000 0.000000 0.000000
# 4 0.000000 0.000000 0.000000 0.026067 0.000000 0.000000
# 5 0.000000 0.000000 0.000000 0.000000 0.362188 0.000000
# 6 0.000000 0.000000 0.000000 0.000000 0.000000 -0.132734
#
#
# Mechanical properties :
#
#
# Convention : Reuss Voigt Hill
#
# Bulk Modulus (GPa) = 11.12525 37.88717 24.50621
# Shear Modulus (GPa) = 12.88797 19.26320 16.07558
#
# Velocity S-wave (km/s) = 2.40040 2.93464 2.68086
# Velocity P-wave (km/s) = 3.55758 5.33116 4.53198
#
# Compressibility (1/GPa) = 0.08988558
#
# Stress axis : x y z
#
# Youngs Moduli (GPa) = 14.37660 102.27053 59.36410
#
# Poissons Ratio (x) = 0.33417 -0.40431
# Poissons Ratio (y) = 0.04698 0.39718
# Poissons Ratio (z) = -0.09791 0.68426
#
# Static dielectric constant tensor:
#      x y z
#    x 1.893980 0.000000 0.000000 
#    y 0.000000 1.901800 0.000000 
#    z 0.000000 0.000000 1.870440 
# 
# From -- ./inp_files/13878.got.cif
#   From: 2010.05.17/outbox.cif.g08.bks.cpg/sg40_7_cif.got.tgz:13878.got - 2010.06.03 18:35:42.
