data_PCOD9365285
_publ_section_title
;
Structure prediction by ZEFSAII (Michael W. Deem and Ramdas Pophale) SiO2 
 PCOD9365285
Probable space group: A M A 2
;
_chemical_formula_sum "Si O2"
_cell_formula_units_Z 64
_cell_length_a 25.838896
_cell_length_b 14.092236
_cell_length_c 8.362331
_cell_angle_alpha 90.000000
_cell_angle_beta 90.000000
_cell_angle_gamma 90.000000
_cell_volume 3044.957361
_symmetry_space_group_name_H-M "A M A 2"
_symmetry_group_IT_number 40
_symmetry_cell_setting 'orthorhombic'
loop_
_space_group_symop_operation_xyz
x,y,z
-x,-y,z
1/2-x,y,z
1/2+x,-y,z
x,1/2+y,1/2+z
-x,1/2-y,1/2+z
1/2-x,1/2+y,1/2+z
1/2+x,1/2-y,1/2+z
loop_
_atom_site_type_symbol
_atom_site_label
_atom_site_fract_x
_atom_site_fract_y
_atom_site_fract_z
Si Si1 0.856280 0.628399 0.160530
Si Si2 0.691707 0.154474 0.995312
Si Si3 0.806595 0.945061 0.122825
Si Si4 0.115730 0.711134 0.131342
Si Si5 0.308306 0.551252 0.001380
Si Si6 0.972535 0.601246 0.175591
Si Si7 0.896320 0.314526 0.498632
Si Si8 0.006201 0.262708 0.477675
O O1 0.832592 0.672034 0.321540
O O2 0.911909 0.582411 0.196343
O O3 0.820031 0.547793 0.088588
O O4 0.871158 0.713410 0.042728
O O5 0.750000 0.190662 0.999710
O O6 0.656768 0.203866 0.127721
O O7 0.692441 0.042877 0.026618
O O8 0.750000 0.898194 0.089582
O O9 0.808478 0.963933 0.311499
O O10 0.857252 0.888389 0.074327
O O11 0.103259 0.676621 0.308244
O O12 0.146598 0.626641 0.042332
O O13 0.063455 0.752526 0.051937
O O14 0.250000 0.583316 0.047689
O O15 0.986778 0.680582 0.310763
O O16 0.000000 0.500000 0.191599
O O17 0.985923 0.653763 0.006146
O O18 0.956351 0.317601 0.554662
#
# Coordination Sequence:
#
# PCOD9365285 Si02
#       8
#     8   8   8   8   8   8   8   8
#     4  11  23  41  64  96 130 172 224 275 342 407
#     4  11  23  40  63  92 129 172 221 275 333 409
#     4  10  24  43  64  95 133 173 225 279 344 418
#     4  12  23  41  65  93 132 174 221 278 339 408
#     4  11  24  42  66  97 134 178 225 284 345 412
#     4  11  24  45  68 101 137 185 227 289 355 414
#     4  11  25  41  67  95 130 178 218 282 342 403
#     4  11  24  43  68  97 140 174 233 290 342 423
#
# _framework density 21.018355
#
# number of rings (size 3 to 8) (size 9 to 14) (size 15 to 20)
#    0.000    1.000    2.500    3.750    3.500    4.000 
#    0.000    0.625    0.000    0.000    0.000    0.000 
#    0.000    0.000    0.000    0.000    0.000    0.000 
#
# Total GULP energy -178520.964437 kJ/mol
# GULP energy per Si atom -5578.780139 kJ/mol
# Density = 2.097052 g / cm^3
# Si number density = 21.018355 Si / 1000 Ang^3
#
#
#
# Elastic Constant Matrix: (Units=GPa)
#
#
# Indices 1 2 3 4 5 6 
#
# 1 150.1227 20.3080 21.2306 0.0000 0.0000 0.0000
# 2 20.3080 59.9971 15.4162 0.0000 0.0000 0.0000
# 3 21.2306 15.4162 68.0626 0.0000 0.0000 0.0000
# 4 0.0000 0.0000 0.0000 32.9782 0.0000 0.0000
# 5 0.0000 0.0000 0.0000 0.0000 24.8375 0.0000
# 6 0.0000 0.0000 0.0000 0.0000 0.0000 31.5746
#
#
#
# Elastic Compliance Matrix: (Units=1/GPa)
#
#
# Indices 1 2 3 4 5 6 
#
# 1 0.007181 -0.001970 -0.001794 0.000000 0.000000 0.000000
# 2 -0.001970 0.018238 -0.003516 0.000000 0.000000 0.000000
# 3 -0.001794 -0.003516 0.016048 0.000000 0.000000 0.000000
# 4 0.000000 0.000000 0.000000 0.030323 0.000000 0.000000
# 5 0.000000 0.000000 0.000000 0.000000 0.040262 0.000000
# 6 0.000000 0.000000 0.000000 0.000000 0.000000 0.031671
#
#
# Mechanical properties :
#
#
# Convention : Reuss Voigt Hill
#
# Bulk Modulus (GPa) = 37.16472 43.56577 40.36525
# Shear Modulus (GPa) = 29.89487 32.62656 31.26071
#
# Velocity S-wave (km/s) = 3.77546 3.94418 3.86074
# Velocity P-wave (km/s) = 6.06019 6.44318 6.25462
#
# Compressibility (1/GPa) = 0.02690724
#
# Stress axis : x y z
#
# Youngs Moduli (GPa) = 139.24891 54.83123 62.31154
#
# Poissons Ratio (x) = 0.10801 0.11178
# Poissons Ratio (y) = 0.27430 0.21911
# Poissons Ratio (z) = 0.24980 0.19281
#
# Static dielectric constant tensor:
#      x y z
#    x 1.790530 0.000000 0.000000 
#    y 0.000000 1.742490 0.000000 
#    z 0.000000 0.000000 1.741770 
# 
# From -- ./inp_files/8942.got.cif
#   From: 2010.05.17/outbox.cif.g08.bks.cpg/sg40_5_cif.got.tgz:8942.got - 2010.06.03 18:35:42.
