data_PCOD9365528
_publ_section_title
;
Structure prediction by ZEFSAII (Michael W. Deem and Ramdas Pophale) SiO2 
 PCOD9365528
Probable space group: A M A 2
;
_chemical_formula_sum "Si O2"
_cell_formula_units_Z 48
_cell_length_a 23.127300
_cell_length_b 8.841937
_cell_length_c 11.209735
_cell_angle_alpha 90.000000
_cell_angle_beta 90.000000
_cell_angle_gamma 90.000000
_cell_volume 2292.280163
_symmetry_space_group_name_H-M "A M A 2"
_symmetry_group_IT_number 40
_symmetry_cell_setting 'orthorhombic'
loop_
_space_group_symop_operation_xyz
x,y,z
-x,-y,z
1/2-x,y,z
1/2+x,-y,z
x,1/2+y,1/2+z
-x,1/2-y,1/2+z
1/2-x,1/2+y,1/2+z
1/2+x,1/2-y,1/2+z
loop_
_atom_site_type_symbol
_atom_site_label
_atom_site_fract_x
_atom_site_fract_y
_atom_site_fract_z
Si Si1 0.750000 0.412384 0.580471
Si Si2 0.346989 0.937015 0.399240
Si Si3 0.474574 0.332124 0.921837
Si Si4 0.480370 0.825581 0.683236
Si Si5 0.250000 0.878968 0.869149
Si Si6 0.349084 0.231942 0.227248
Si Si7 0.750000 0.414579 0.043859
Si Si8 0.750000 0.707149 0.752811
O O1 0.750000 0.470682 0.446599
O O2 0.691875 0.324975 0.618945
O O3 0.750000 0.562526 0.663123
O O4 0.406322 0.859168 0.431704
O O5 0.306847 0.819938 0.329200
O O6 0.357138 0.084272 0.313811
O O7 0.307509 0.995910 0.507724
O O8 0.500000 0.500000 0.911017
O O9 0.490349 0.246873 0.800138
O O10 0.495803 0.264509 0.049432
O O11 0.411701 0.798048 0.698769
O O12 0.500000 0.000000 0.681193
O O13 0.308082 0.851534 0.794595
O O14 0.250000 0.733447 0.958849
O O15 0.750000 0.357896 0.177348
#
# Coordination Sequence:
#
# PCOD9365528 Si02
#       8
#     4   8   8   8   4   8   4   4
#     4   8  15  29  54  91 120 162 205 251 317 394
#     4   9  17  34  61  88 122 164 213 256 319 392
#     4  11  24  45  66  89 125 174 221 271 324 379
#     4  11  26  44  63  94 129 170 226 275 323 380
#     4   8  15  29  56  94 130 157 197 256 332 376
#     4   9  17  35  59  88 126 162 208 264 316 386
#     4   8  15  29  56  95 126 160 197 261 321 384
#     4   8  15  27  52  96 126 151 203 258 322 388
#
# _framework density 20.939848000000001
#
# number of rings (size 3 to 8) (size 9 to 14) (size 15 to 20)
#    0.000    2.667    1.667    2.000    0.000    4.667 
#    6.000    3.333    0.000    6.000    0.000    0.000 
#    0.000    0.000    0.000    0.000    0.000    0.000 
#
# Total GULP energy -134037.652534 kJ/mol
# GULP energy per Si atom -5584.902189 kJ/mol
# Density = 2.089219 g / cm^3
# Si number density = 20.939848 Si / 1000 Ang^3
#
#
#
# Elastic Constant Matrix: (Units=GPa)
#
#
# Indices 1 2 3 4 5 6 
#
# 1 131.9045 43.7768 53.3552 0.0000 0.0000 0.0000
# 2 43.7768 75.1181 68.8091 0.0000 0.0000 0.0000
# 3 53.3552 68.8091 162.1239 0.0000 0.0000 0.0000
# 4 0.0000 0.0000 0.0000 39.4684 0.0000 0.0000
# 5 0.0000 0.0000 0.0000 0.0000 5.7768 0.0000
# 6 0.0000 0.0000 0.0000 0.0000 0.0000 67.1668
#
#
#
# Elastic Compliance Matrix: (Units=1/GPa)
#
#
# Indices 1 2 3 4 5 6 
#
# 1 0.009558 -0.004399 -0.001279 0.000000 0.000000 0.000000
# 2 -0.004399 0.023805 -0.008655 0.000000 0.000000 0.000000
# 3 -0.001279 -0.008655 0.010262 0.000000 0.000000 0.000000
# 4 0.000000 0.000000 0.000000 0.025337 0.000000 0.000000
# 5 0.000000 0.000000 0.000000 0.000000 0.173108 0.000000
# 6 0.000000 0.000000 0.000000 0.000000 0.000000 0.014888
#
#
# Mechanical properties :
#
#
# Convention : Reuss Voigt Hill
#
# Bulk Modulus (GPa) = 66.84908 77.89207 72.37057
# Shear Modulus (GPa) = 17.20515 36.02945 26.61730
#
# Velocity S-wave (km/s) = 2.86955 4.15253 3.56916
# Velocity P-wave (km/s) = 6.55536 7.76338 7.18480
#
# Compressibility (1/GPa) = 0.01495907
#
# Stress axis : x y z
#
# Youngs Moduli (GPa) = 104.61957 42.00878 97.44267
#
# Poissons Ratio (x) = 0.18481 0.12459
# Poissons Ratio (y) = 0.46024 0.84341
# Poissons Ratio (z) = 0.13376 0.36360
#
# Static dielectric constant tensor:
#      x y z
#    x 0.558650 0.000000 0.000000 
#    y 0.000000 1.764620 0.000000 
#    z 0.000000 0.000000 1.827570 
# 
# From -- ./inp_files/13974.got.cif
#   From: 2010.05.17/outbox.cif.g08.bks.cpg/sg40_7_cif.got.tgz:13974.got - 2010.06.03 18:35:42.
