data_PCOD9365373
_publ_section_title
;
Structure prediction by ZEFSAII (Michael W. Deem and Ramdas Pophale) SiO2 
 PCOD9365373
Probable space group: A M A 2
;
_chemical_formula_sum "Si O2"
_cell_formula_units_Z 64
_cell_length_a 8.369446
_cell_length_b 24.487685
_cell_length_c 15.998110
_cell_angle_alpha 90.000000
_cell_angle_beta 90.000000
_cell_angle_gamma 90.000000
_cell_volume 3278.786364
_symmetry_space_group_name_H-M "A M A 2"
_symmetry_group_IT_number 40
_symmetry_cell_setting 'orthorhombic'
loop_
_space_group_symop_operation_xyz
x,y,z
-x,-y,z
1/2-x,y,z
1/2+x,-y,z
x,1/2+y,1/2+z
-x,1/2-y,1/2+z
1/2-x,1/2+y,1/2+z
1/2+x,1/2-y,1/2+z
loop_
_atom_site_type_symbol
_atom_site_label
_atom_site_fract_x
_atom_site_fract_y
_atom_site_fract_z
Si Si1 0.059116 0.438236 0.630440
Si Si2 0.444210 0.749985 0.226334
Si Si3 0.940790 0.938254 0.630569
Si Si4 0.558962 0.132405 0.474830
Si Si5 0.058816 0.632667 0.474866
Si Si6 0.445354 0.368050 0.788871
Si Si7 0.945336 0.868073 0.788878
Si Si8 0.442074 0.749808 0.030700
O O1 0.250000 0.438215 0.633534
O O2 0.000198 0.407230 0.714059
O O3 0.000000 0.500000 0.626935
O O4 0.007968 0.404348 0.549042
O O5 0.250000 0.750015 0.229256
O O6 0.497902 0.806027 0.269158
O O7 0.497823 0.693968 0.269254
O O8 0.488825 0.749914 0.128739
O O9 0.750000 0.938365 0.634055
O O10 0.000121 0.907236 0.714102
O O11 0.991063 0.904299 0.549082
O O12 0.000000 0.000000 0.626849
O O13 0.750000 0.128935 0.477648
O O14 0.504322 0.115341 0.381912
O O15 0.508656 0.195038 0.489498
O O16 0.250000 0.629897 0.477585
O O17 0.004619 0.615365 0.381975
O O18 0.006670 0.695103 0.489624
O O19 0.250000 0.367866 0.787784
O O20 0.750000 0.867914 0.787626
O O21 0.250000 0.749383 0.026582
#
# Coordination Sequence:
#
# PCOD9365373 Si02
#       8
#     8   8   8   8   8   8   8   8
#     4  11  23  42  63  85 116 157 201 246 297 351
#     4   9  15  31  59  86 113 151 190 230 285 348
#     4  11  23  42  63  85 116 157 201 246 297 351
#     4  11  22  38  62  92 121 153 197 246 295 349
#     4  11  22  38  62  92 121 153 197 246 295 349
#     4   9  19  36  61  87 116 156 195 237 294 353
#     4   9  19  36  61  87 116 156 195 237 294 353
#     4  11  20  35  61  90 123 161 196 236 293 354
#
# _framework density 19.519418000000002
#
# number of rings (size 3 to 8) (size 9 to 14) (size 15 to 20)
#    0.000    1.750    2.500    2.625    0.000    3.000 
#    0.000    7.500    0.000    0.000    0.000    0.000 
#    0.000    0.000    0.000    0.000    0.000    0.000 
#
# Total GULP energy -178781.816304 kJ/mol
# GULP energy per Si atom -5586.931759 kJ/mol
# Density = 1.947499 g / cm^3
# Si number density = 19.519418 Si / 1000 Ang^3
#
#
#
# Elastic Constant Matrix: (Units=GPa)
#
#
# Indices 1 2 3 4 5 6 
#
# 1 32.2972 19.0108 27.1257 0.0000 0.0000 0.0000
# 2 19.0108 160.3713 94.3492 0.0000 0.0000 0.0000
# 3 27.1257 94.3492 200.1863 0.0000 0.0000 0.0000
# 4 0.0000 0.0000 0.0000 -0.1828 0.0000 0.0000
# 5 0.0000 0.0000 0.0000 0.0000 22.4632 0.0000
# 6 0.0000 0.0000 0.0000 0.0000 0.0000 19.7127
#
#
#
# Elastic Compliance Matrix: (Units=1/GPa)
#
#
# Indices 1 2 3 4 5 6 
#
# 1 0.035352 -0.001899 -0.003895 0.000000 0.000000 0.000000
# 2 -0.001899 0.008730 -0.003857 0.000000 0.000000 0.000000
# 3 -0.003895 -0.003857 0.007341 0.000000 0.000000 0.000000
# 4 0.000000 0.000000 0.000000 -5.471407 0.000000 0.000000
# 5 0.000000 0.000000 0.000000 0.000000 0.044517 0.000000
# 6 0.000000 0.000000 0.000000 0.000000 0.000000 0.050729
#
#
# Mechanical properties :
#
#
# Convention : Reuss Voigt Hill
#
# Bulk Modulus (GPa) = 31.13339 74.86959 53.00149
# Shear Modulus (GPa) = -0.94434 25.22324 12.13945
#
# Velocity S-wave (km/s) = -0.69631 3.59864 2.49653
# Velocity P-wave (km/s) = 3.91639 7.46369 5.96007
#
# Compressibility (1/GPa) = 0.03211985
#
# Stress axis : x y z
#
# Youngs Moduli (GPa) = 28.28718 114.54940 136.22049
#
# Poissons Ratio (x) = 0.21754 0.53060
# Poissons Ratio (y) = 0.05372 0.52542
# Poissons Ratio (z) = 0.11018 0.44183
#
# Static dielectric constant tensor:
#      x y z
#    x 1.674540 0.000000 0.000000 
#    y 0.000000 1.639280 0.000000 
#    z 0.000000 0.000000 1.693100 
# 
# From -- ./inp_files/15638.got.cif
#   From: 2010.05.17/outbox.cif.g08.bks.cpg/sg40_8_cif.got.tgz:15638.got - 2010.06.03 18:35:42.
