data_PCOD9365474
_publ_section_title
;
Structure prediction by ZEFSAII (Michael W. Deem and Ramdas Pophale) SiO2 
 PCOD9365474
Probable space group: A M A 2
;
_chemical_formula_sum "Si O2"
_cell_formula_units_Z 48
_cell_length_a 8.875355
_cell_length_b 27.608040
_cell_length_c 9.662659
_cell_angle_alpha 90.000000
_cell_angle_beta 90.000000
_cell_angle_gamma 90.000000
_cell_volume 2367.652503
_symmetry_space_group_name_H-M "A M A 2"
_symmetry_group_IT_number 40
_symmetry_cell_setting 'orthorhombic'
loop_
_space_group_symop_operation_xyz
x,y,z
-x,-y,z
1/2-x,y,z
1/2+x,-y,z
x,1/2+y,1/2+z
-x,1/2-y,1/2+z
1/2-x,1/2+y,1/2+z
1/2+x,1/2-y,1/2+z
loop_
_atom_site_type_symbol
_atom_site_label
_atom_site_fract_x
_atom_site_fract_y
_atom_site_fract_z
Si Si1 0.070524 0.127775 0.659940
Si Si2 0.075705 0.910784 0.151526
Si Si3 0.424525 0.949731 0.849850
Si Si4 0.570570 0.948713 0.426982
Si Si5 0.069799 0.192209 0.076598
Si Si6 0.929398 0.220834 0.782639
O O1 0.250000 0.135380 0.659468
O O2 0.027380 0.095961 0.526493
O O3 0.019782 0.093977 0.786656
O O4 0.987299 0.178278 0.681607
O O5 0.250000 0.905088 0.193652
O O6 0.983882 0.935229 0.274289
O O7 0.007575 0.858846 0.110209
O O8 0.072097 0.943576 0.014646
O O9 0.250000 0.946970 0.804424
O O10 0.500000 0.000000 0.808554
O O11 0.750000 0.953363 0.432286
O O12 0.500000 0.000000 0.469738
O O13 0.250000 0.186003 0.064795
O O14 0.039322 0.229049 0.203315
O O15 0.008091 0.213498 0.931386
O O16 0.750000 0.216312 0.802558
#
# Coordination Sequence:
#
# PCOD9365474 Si02
#       6
#     8   8   8   8   8   8
#     4  11  24  42  66  94 128 170 214 267 322 381
#     4  11  24  42  66  95 129 170 214 267 321 381
#     4  11  23  39  63  94 126 165 211 263 318 382
#     4  11  25  43  64  95 131 173 220 267 320 383
#     4  11  25  44  68  98 131 170 214 266 322 383
#     4  11  25  44  67  98 131 168 215 266 321 386
#
# _framework density 20.273244999999999
#
# number of rings (size 3 to 8) (size 9 to 14) (size 15 to 20)
#    0.000    1.000    1.667    4.000    2.333   10.000 
#    0.000    0.000    0.000    0.000    0.000    0.000 
#    0.000    0.000    0.000    0.000    0.000    0.000 
#
# Total GULP energy -134273.640263 kJ/mol
# GULP energy per Si atom -5594.735011 kJ/mol
# Density = 2.022710 g / cm^3
# Si number density = 20.273245 Si / 1000 Ang^3
#
#
#
# Elastic Constant Matrix: (Units=GPa)
#
#
# Indices 1 2 3 4 5 6 
#
# 1 30.2387 14.0733 4.8158 0.0000 0.0000 0.0000
# 2 14.0733 74.8639 -9.7346 0.0000 0.0000 0.0000
# 3 4.8158 -9.7346 56.5083 0.0000 0.0000 0.0000
# 4 0.0000 0.0000 0.0000 32.9014 0.0000 0.0000
# 5 0.0000 0.0000 0.0000 0.0000 214.5640 0.0000
# 6 0.0000 0.0000 0.0000 0.0000 0.0000 31.1781
#
#
#
# Elastic Compliance Matrix: (Units=1/GPa)
#
#
# Indices 1 2 3 4 5 6 
#
# 1 0.037322 -0.007600 -0.004490 0.000000 0.000000 0.000000
# 2 -0.007600 0.015211 0.003268 0.000000 0.000000 0.000000
# 3 -0.004490 0.003268 0.018642 0.000000 0.000000 0.000000
# 4 0.000000 0.000000 0.000000 0.030394 0.000000 0.000000
# 5 0.000000 0.000000 0.000000 0.000000 0.004661 0.000000
# 6 0.000000 0.000000 0.000000 0.000000 0.000000 0.032074
#
#
# Mechanical properties :
#
#
# Convention : Reuss Voigt Hill
#
# Bulk Modulus (GPa) = 18.68035 19.99110 19.33572
# Shear Modulus (GPa) = 28.77016 65.89248 47.33132
#
# Velocity S-wave (km/s) = 3.77121 5.70725 4.83708
# Velocity P-wave (km/s) = 5.31008 7.30155 6.38395
#
# Compressibility (1/GPa) = 0.05353219
#
# Stress axis : x y z
#
# Youngs Moduli (GPa) = 26.79368 65.74111 53.64191
#
# Poissons Ratio (x) = 0.49962 0.24085
# Poissons Ratio (y) = 0.20363 -0.17531
# Poissons Ratio (z) = 0.12030 -0.21485
#
# Static dielectric constant tensor:
#      x y z
#    x 1.678590 0.000000 0.000000 
#    y 0.000000 1.664530 0.000000 
#    z 0.000000 0.000000 1.718680 
# 
# From -- ./inp_files/4616.got.cif
#   From: 2010.05.17/outbox.cif.g08.bks.cpg/sg40_3_cif.got.tgz:4616.got - 2010.06.03 18:35:42.
