data_PCOD9365690
_publ_section_title
;
Structure prediction by ZEFSAII (Michael W. Deem and Ramdas Pophale) SiO2 
 PCOD9365690
Probable space group: A M A 2
;
_chemical_formula_sum "Si O2"
_cell_formula_units_Z 32
_cell_length_a 9.000000
_cell_length_b 30.000000
_cell_length_c 12.000000
_cell_angle_alpha 90.000000
_cell_angle_beta 90.000000
_cell_angle_gamma 90.000000
_cell_volume 3240.000000
_symmetry_space_group_name_H-M "A M A 2"
_symmetry_group_IT_number 40
_symmetry_cell_setting 'orthorhombic'
loop_
_space_group_symop_operation_xyz
x,y,z
-x,-y,z
1/2-x,y,z
1/2+x,-y,z
x,1/2+y,1/2+z
-x,1/2-y,1/2+z
1/2-x,1/2+y,1/2+z
1/2+x,1/2-y,1/2+z
loop_
_atom_site_type_symbol
_atom_site_label
_atom_site_fract_x
_atom_site_fract_y
_atom_site_fract_z
Si Si1 0.919975 0.206228 0.702980
Si Si2 0.571223 0.046118 0.140034
Si Si3 0.924859 0.569209 0.385792
Si Si4 0.572700 0.127373 0.290981
Si Si5 0.580664 0.805626 0.139738
Si Si6 0.578616 0.338974 0.389716
Si Si7 0.923534 0.957645 0.665810
Si Si8 0.074762 0.377250 0.043870
O O1 0.750000 0.203597 0.746412
O O2 0.938616 0.253225 0.644780
O O3 0.938969 0.168149 0.611587
O O4 0.034748 0.198696 0.802208
O O5 0.750000 0.043794 0.145755
O O6 0.516597 0.085851 0.218311
O O7 0.500000 0.000000 0.174783
O O8 0.533253 0.055860 0.011133
O O9 0.750000 0.561220 0.368289
O O10 0.964575 0.620942 0.370938
O O11 0.020918 0.545553 0.292538
O O12 0.750000 0.124262 0.293292
O O13 0.526855 0.171054 0.225659
O O14 0.522014 0.127235 0.417590
O O15 0.750000 0.816497 0.172840
O O16 0.559690 0.822961 0.015364
O O17 0.750000 0.353487 0.373513
O O18 0.750000 0.962322 0.662296
O O19 0.979920 0.913843 0.606073
O O20 0.000000 0.000000 0.610522
O O21 0.250000 0.389955 0.045562
#
# Coordination Sequence:
#
# PCOD9365690 Si02
#       8
#     8   8   8   8   8   8   8   8
#     4  10  22  40  61  87 122 162 201 248 304 357
#     4  10  22  38  59  88 119 154 199 244 298 358
#     4  11  21  38  62  90 125 158 197 248 304 359
#     4  10  22  41  63  88 119 162 205 247 301 360
#     4  10  23  40  60  91 125 160 202 250 303 357
#     4  11  22  37  62  93 123 157 201 251 304 358
#     4  12  25  41  63  91 123 158 203 249 301 362
#     4  10  22  41  64  86 119 161 204 252 303 357
#
# _framework density 9.8765429999999999
#
# number of rings (size 3 to 8) (size 9 to 14) (size 15 to 20)
#    0.000    1.500    2.500    2.250    1.750    4.500 
#    0.000    1.250    0.000    0.000    0.000    0.000 
#    0.000    0.000    0.000    0.000    0.000    0.000 
#
# Total GULP energy -178663.469905 kJ/mol
# GULP energy per Si atom -5583.233435 kJ/mol
# Density = 0.985406 g / cm^3
# Si number density = 9.876543 Si / 1000 Ang^3
#
#
#
# Elastic Constant Matrix: (Units=GPa)
#
#
# Indices 1 2 3 4 5 6 
#
# 1 36.7922 36.7341 49.0288 0.0000 0.0000 0.0000
# 2 36.7341 74.4692 21.2352 0.0000 0.0000 0.0000
# 3 49.0288 21.2352 80.3389 0.0000 0.0000 0.0000
# 4 0.0000 0.0000 0.0000 342.3254 0.0000 0.0000
# 5 0.0000 0.0000 0.0000 0.0000 10.2205 0.0000
# 6 0.0000 0.0000 0.0000 0.0000 0.0000 15.1793
#
#
#
# Elastic Compliance Matrix: (Units=1/GPa)
#
#
# Indices 1 2 3 4 5 6 
#
# 1 -0.747426 0.258072 0.387922 0.000000 0.000000 0.000000
# 2 0.258072 -0.074585 -0.137781 0.000000 0.000000 0.000000
# 3 0.387922 -0.137781 -0.187874 0.000000 0.000000 0.000000
# 4 0.000000 0.000000 0.000000 0.002921 0.000000 0.000000
# 5 0.000000 0.000000 0.000000 0.000000 0.097843 0.000000
# 6 0.000000 0.000000 0.000000 0.000000 0.000000 0.065879
#
#
# Mechanical properties :
#
#
# Convention : Reuss Voigt Hill
#
# Bulk Modulus (GPa) = 152.84925 45.06629 98.95777
# Shear Modulus (GPa) = -2.69181 79.18518 38.24668
#
# Velocity S-wave (km/s) = -1.16863 6.33834 4.40504
# Velocity P-wave (km/s) = 8.70213 8.74245 8.72231
#
# Compressibility (1/GPa) = 0.00654239
#
# Stress axis : x y z
#
# Youngs Moduli (GPa) = -1.33793 -13.40759 -5.32273
#
# Poissons Ratio (x) = 3.46013 2.06480
# Poissons Ratio (y) = 0.34528 -0.73337
# Poissons Ratio (z) = 0.51901 -1.84731
#
# Static dielectric constant tensor:
#      x y z
#    x 1.681660 0.000000 0.000000 
#    y 0.000000 1.372520 0.000000 
#    z 0.000000 0.000000 1.686550 
# 
# From -- ./inp_files/10676.got.cif
#   From: 2010.05.17/outbox.ucp.g08.bks.cvg/sg40_6_cif.got.tgz:10676.got - 2010.06.11 16:26:39.
