data_PCOD9365648
_publ_section_title
;
Structure prediction by ZEFSAII (Michael W. Deem and Ramdas Pophale) SiO2 
 PCOD9365648
Probable space group: A M A 2
;
_chemical_formula_sum "Si O2"
_cell_formula_units_Z 32
_cell_length_a 9.000000
_cell_length_b 30.000000
_cell_length_c 12.000000
_cell_angle_alpha 90.000000
_cell_angle_beta 90.000000
_cell_angle_gamma 90.000000
_cell_volume 3240.000000
_symmetry_space_group_name_H-M "A M A 2"
_symmetry_group_IT_number 40
_symmetry_cell_setting 'orthorhombic'
loop_
_space_group_symop_operation_xyz
x,y,z
-x,-y,z
1/2-x,y,z
1/2+x,-y,z
x,1/2+y,1/2+z
-x,1/2-y,1/2+z
1/2-x,1/2+y,1/2+z
1/2+x,1/2-y,1/2+z
loop_
_atom_site_type_symbol
_atom_site_label
_atom_site_fract_x
_atom_site_fract_y
_atom_site_fract_z
Si Si1 0.930560 0.208020 0.660670
Si Si2 0.571531 0.045309 0.113908
Si Si3 0.920341 0.564101 0.360324
Si Si4 0.577206 0.129825 0.259266
Si Si5 0.574003 0.804754 0.108633
Si Si6 0.420561 0.331452 0.386919
Si Si7 0.922040 0.957931 0.636908
Si Si8 0.077762 0.377903 0.022229
O O1 0.750000 0.209357 0.668709
O O2 0.983815 0.254615 0.614729
O O3 0.984159 0.197126 0.785033
O O4 0.965299 0.168949 0.575665
O O5 0.750000 0.042416 0.116245
O O6 0.527761 0.086664 0.190167
O O7 0.500000 0.000000 0.154852
O O8 0.528303 0.052926 0.985004
O O9 0.750000 0.548253 0.346544
O O10 0.918467 0.617428 0.348772
O O11 0.022499 0.546244 0.263475
O O12 0.750000 0.138400 0.229189
O O13 0.479098 0.170353 0.218426
O O14 0.569024 0.122708 0.389975
O O15 0.750000 0.804663 0.101618
O O16 0.508850 0.828054 0.000326
O O17 0.250000 0.318222 0.408740
O O18 0.750000 0.964398 0.634333
O O19 0.973137 0.914474 0.573621
O O20 0.000000 0.000000 0.582225
O O21 0.250000 0.387311 0.054568
#
# Coordination Sequence:
#
# PCOD9365648 Si02
#       8
#     8   8   8   8   8   8   8   8
#     4   9  20  38  60  87 119 156 194 244 304 353
#     4  10  21  37  57  86 115 148 194 240 292 349
#     4  10  19  37  63  87 118 155 197 244 293 352
#     4  10  22  41  63  85 115 161 204 239 293 362
#     4  11  23  37  58  92 126 154 196 248 296 352
#     4  10  19  38  64  85 116 159 198 240 298 356
#     4  12  25  40  61  90 123 155 197 244 297 357
#     4  10  21  42  66  84 113 158 205 249 296 351
#
# _framework density 9.8765429999999999
#
# number of rings (size 3 to 8) (size 9 to 14) (size 15 to 20)
#    0.000    1.750    2.500    1.875    1.750    3.500 
#    0.000    3.125    0.000    0.000    0.000    0.000 
#    0.000    0.000    0.000    0.000    0.000    0.000 
#
# Total GULP energy -178595.580728 kJ/mol
# GULP energy per Si atom -5581.111898 kJ/mol
# Density = 0.985406 g / cm^3
# Si number density = 9.876543 Si / 1000 Ang^3
#
#
#
# Elastic Constant Matrix: (Units=GPa)
#
#
# Indices 1 2 3 4 5 6 
#
# 1 52.0768 37.8145 30.6574 0.0000 0.0000 0.0000
# 2 37.8145 73.3711 8.1294 0.0000 0.0000 0.0000
# 3 30.6574 8.1294 42.0405 0.0000 0.0000 0.0000
# 4 0.0000 0.0000 0.0000 10.0578 0.0000 0.0000
# 5 0.0000 0.0000 0.0000 0.0000 1.4150 0.0000
# 6 0.0000 0.0000 0.0000 0.0000 0.0000 11.6602
#
#
#
# Elastic Compliance Matrix: (Units=1/GPa)
#
#
# Indices 1 2 3 4 5 6 
#
# 1 0.064269 -0.028542 -0.041348 0.000000 0.000000 0.000000
# 2 -0.028542 0.026603 0.015670 0.000000 0.000000 0.000000
# 3 -0.041348 0.015670 0.050909 0.000000 0.000000 0.000000
# 4 0.000000 0.000000 0.000000 0.099426 0.000000 0.000000
# 5 0.000000 0.000000 0.000000 0.000000 0.706732 0.000000
# 6 0.000000 0.000000 0.000000 0.000000 0.000000 0.085762
#
#
# Mechanical properties :
#
#
# Convention : Reuss Voigt Hill
#
# Bulk Modulus (GPa) = 29.99367 35.63231 32.81299
# Shear Modulus (GPa) = 4.33555 10.68573 7.51064
#
# Velocity S-wave (km/s) = 1.48312 2.32839 1.95205
# Velocity P-wave (km/s) = 4.26029 5.03056 4.66137
#
# Compressibility (1/GPa) = 0.03334036
#
# Stress axis : x y z
#
# Youngs Moduli (GPa) = 15.55958 37.58916 19.64286
#
# Poissons Ratio (x) = 1.07287 0.81220
# Poissons Ratio (y) = 0.44410 -0.30780
# Poissons Ratio (z) = 0.64336 -0.58901
#
# Static dielectric constant tensor:
#      x y z
#    x 1.676700 0.000000 0.000000 
#    y 0.000000 1.585640 0.000000 
#    z 0.000000 0.000000 1.669310 
# 
# From -- ./inp_files/10644.got.cif
#   From: 2010.05.17/outbox.ucp.g08.bks.cvg/sg40_6_cif.got.tgz:10644.got - 2010.06.11 16:26:39.
