data_PCOD9365482
_publ_section_title
;
Structure prediction by ZEFSAII (Michael W. Deem and Ramdas Pophale) SiO2 
 PCOD9365482
Probable space group: A M A 2
;
_chemical_formula_sum "Si O2"
_cell_formula_units_Z 24
_cell_length_a 16.985806
_cell_length_b 5.025341
_cell_length_c 13.755080
_cell_angle_alpha 90.000000
_cell_angle_beta 90.000000
_cell_angle_gamma 90.000000
_cell_volume 1174.126302
_symmetry_space_group_name_H-M "A M A 2"
_symmetry_group_IT_number 40
_symmetry_cell_setting 'orthorhombic'
loop_
_space_group_symop_operation_xyz
x,y,z
-x,-y,z
1/2-x,y,z
1/2+x,-y,z
x,1/2+y,1/2+z
-x,1/2-y,1/2+z
1/2-x,1/2+y,1/2+z
1/2+x,1/2-y,1/2+z
loop_
_atom_site_type_symbol
_atom_site_label
_atom_site_fract_x
_atom_site_fract_y
_atom_site_fract_z
Si Si1 0.841718 0.626595 0.640210
Si Si2 0.443161 0.752740 0.958091
Si Si3 0.411946 0.387775 0.238709
O O1 0.750000 0.562593 0.631960
O O2 0.876758 0.741901 0.540022
O O3 0.888752 0.362578 0.672415
O O4 0.856141 0.861504 0.718030
O O5 0.500000 0.500000 0.961600
O O6 0.409441 0.789531 0.849775
O O7 0.500000 0.000000 0.976895
O O8 0.500000 0.500000 0.219259
#
# Coordination Sequence:
#
# PCOD9365482 Si02
#       3
#     8   8   8
#     4  12  25  40  63  95 131 165 202 261 325 375
#     4  11  23  41  66  91 119 163 213 256 302 366
#     4  11  23  43  66  90 123 168 216 259 306 371
#
# _framework density 20.440732000000001
#
# number of rings (size 3 to 8) (size 9 to 14) (size 15 to 20)
#    0.000    0.667    0.000   11.000    0.000    2.667 
#    0.000    0.000    0.000    0.000    0.000    0.000 
#    0.000    0.000    0.000    0.000    0.000    0.000 
#
# Total GULP energy -67161.812178 kJ/mol
# GULP energy per Si atom -5596.817682 kJ/mol
# Density = 2.039421 g / cm^3
# Si number density = 20.440732 Si / 1000 Ang^3
#
#
#
# Elastic Constant Matrix: (Units=GPa)
#
#
# Indices 1 2 3 4 5 6 
#
# 1 103.4142 44.1501 87.6580 0.0000 0.0000 0.0000
# 2 44.1501 161.6472 54.5907 0.0000 0.0000 0.0000
# 3 87.6580 54.5907 127.2073 0.0000 0.0000 0.0000
# 4 0.0000 0.0000 0.0000 33.3152 0.0000 0.0000
# 5 0.0000 0.0000 0.0000 0.0000 14.6328 0.0000
# 6 0.0000 0.0000 0.0000 0.0000 0.0000 26.8152
#
#
#
# Elastic Compliance Matrix: (Units=1/GPa)
#
#
# Indices 1 2 3 4 5 6 
#
# 1 0.023419 -0.001107 -0.015663 0.000000 0.000000 0.000000
# 2 -0.001107 0.007287 -0.002365 0.000000 0.000000 0.000000
# 3 -0.015663 -0.002365 0.019669 0.000000 0.000000 0.000000
# 4 0.000000 0.000000 0.000000 0.030016 0.000000 0.000000
# 5 0.000000 0.000000 0.000000 0.000000 0.068340 0.000000
# 6 0.000000 0.000000 0.000000 0.000000 0.000000 0.037292
#
#
# Mechanical properties :
#
#
# Convention : Reuss Voigt Hill
#
# Bulk Modulus (GPa) = 82.59873 85.00736 83.80305
# Shear Modulus (GPa) = 21.89840 28.67731 25.28785
#
# Velocity S-wave (km/s) = 3.27664 3.74966 3.52110
# Velocity P-wave (km/s) = 7.40350 7.77330 7.59065
#
# Compressibility (1/GPa) = 0.01210672
#
# Stress axis : x y z
#
# Youngs Moduli (GPa) = 42.70087 137.22775 50.84115
#
# Poissons Ratio (x) = 0.15187 0.79631
# Poissons Ratio (y) = 0.04726 0.12022
# Poissons Ratio (z) = 0.66881 0.32449
#
# Static dielectric constant tensor:
#      x y z
#    x 1.690570 0.000000 0.000000 
#    y 0.000000 1.694870 0.000000 
#    z 0.000000 0.000000 1.759240 
# 
# From -- ./inp_files/12585.got.cif
#   From: 2010.05.17/outbox.cif.g08.bks.cpg/sg40_7_cif.got.tgz:12585.got - 2010.06.03 18:35:42.
