data_PCOD9365169
_publ_section_title
;
Structure prediction by ZEFSAII (Michael W. Deem and Ramdas Pophale) SiO2 
 PCOD9365169
Probable space group: A M A 2
;
_chemical_formula_sum "Si O2"
_cell_formula_units_Z 40
_cell_length_a 14.846522
_cell_length_b 14.823224
_cell_length_c 8.171677
_cell_angle_alpha 90.000000
_cell_angle_beta 90.000000
_cell_angle_gamma 90.000000
_cell_volume 1798.368097
_symmetry_space_group_name_H-M "A M A 2"
_symmetry_group_IT_number 40
_symmetry_cell_setting 'orthorhombic'
loop_
_space_group_symop_operation_xyz
x,y,z
-x,-y,z
1/2-x,y,z
1/2+x,-y,z
x,1/2+y,1/2+z
-x,1/2-y,1/2+z
1/2-x,1/2+y,1/2+z
1/2+x,1/2-y,1/2+z
loop_
_atom_site_type_symbol
_atom_site_label
_atom_site_fract_x
_atom_site_fract_y
_atom_site_fract_z
Si Si1 0.250000 0.706577 0.820760
Si Si2 0.908677 0.274929 0.078511
Si Si3 0.750000 0.960222 0.097083
Si Si4 0.750000 0.143335 0.534364
Si Si5 0.074979 0.927441 0.025154
Si Si6 0.439932 0.414158 0.130084
Si Si7 0.750000 0.310786 0.314087
O O1 0.250000 0.604952 0.753187
O O2 0.250000 0.782751 0.681205
O O3 0.158696 0.721139 0.923703
O O4 0.843327 0.318569 0.215193
O O5 0.001581 0.328777 0.071892
O O6 0.932372 0.170448 0.105905
O O7 0.750000 0.887374 0.950175
O O8 0.833838 0.025409 0.078553
O O9 0.658958 0.086801 0.552090
O O10 0.750000 0.208017 0.378117
O O11 0.070776 0.913771 0.827801
O O12 0.000000 0.000000 0.070530
O O13 0.500000 0.500000 0.085546
#
# Coordination Sequence:
#
# PCOD9365169 Si02
#       7
#     4   8   4   4   8   8   4
#     4  10  23  44  73  99 140 182 230 304 346 419
#     4  11  24  46  67 104 142 183 232 300 361 418
#     4  11  23  46  72 101 135 187 240 280 364 430
#     4  11  23  42  70  99 135 181 236 286 352 414
#     4  11  24  42  71  99 136 186 233 285 353 441
#     4  11  25  44  73 100 138 190 237 290 354 431
#     4  10  23  40  71  99 136 184 230 290 356 433
#
# _framework density 22.242387000000001
#
# number of rings (size 3 to 8) (size 9 to 14) (size 15 to 20)
#    0.000    1.200    2.000    4.200    8.400    1.600 
#    7.200    0.000    0.000    0.000    0.000    0.000 
#    0.000    0.000    0.000    0.000    0.000    0.000 
#
# Total GULP energy -111944.128991 kJ/mol
# GULP energy per Si atom -5597.206450 kJ/mol
# Density = 2.219176 g / cm^3
# Si number density = 22.242387 Si / 1000 Ang^3
#
#
#
# Elastic Constant Matrix: (Units=GPa)
#
#
# Indices 1 2 3 4 5 6 
#
# 1 194.0245 72.2090 2.7862 0.0000 0.0000 0.0000
# 2 72.2090 158.8137 -3.2831 0.0000 0.0000 0.0000
# 3 2.7862 -3.2831 10.0005 0.0000 0.0000 0.0000
# 4 0.0000 0.0000 0.0000 22.7145 0.0000 0.0000
# 5 0.0000 0.0000 0.0000 0.0000 7.7286 0.0000
# 6 0.0000 0.0000 0.0000 0.0000 0.0000 36.4482
#
#
#
# Elastic Compliance Matrix: (Units=1/GPa)
#
#
# Indices 1 2 3 4 5 6 
#
# 1 0.006276 -0.002909 -0.002704 0.000000 0.000000 0.000000
# 2 -0.002909 0.007688 0.003335 0.000000 0.000000 0.000000
# 3 -0.002704 0.003335 0.101843 0.000000 0.000000 0.000000
# 4 0.000000 0.000000 0.000000 0.044025 0.000000 0.000000
# 5 0.000000 0.000000 0.000000 0.000000 0.129389 0.000000
# 6 0.000000 0.000000 0.000000 0.000000 0.000000 0.027436
#
#
# Mechanical properties :
#
#
# Convention : Reuss Voigt Hill
#
# Bulk Modulus (GPa) = 8.98869 56.25144 32.62006
# Shear Modulus (GPa) = 13.95492 32.78672 23.37082
#
# Velocity S-wave (km/s) = 2.50752 3.84352 3.24502
# Velocity P-wave (km/s) = 3.52612 6.71133 5.36076
#
# Compressibility (1/GPa) = 0.11125089
#
# Stress axis : x y z
#
# Youngs Moduli (GPa) = 159.34929 130.06639 9.81901
#
# Poissons Ratio (x) = 0.37839 0.02655
# Poissons Ratio (y) = 0.46358 -0.03274
# Poissons Ratio (z) = 0.43080 -0.43372
#
# Static dielectric constant tensor:
#      x y z
#    x 1.746010 0.000000 0.000000 
#    y 0.000000 1.776620 0.000000 
#    z 0.000000 0.000000 1.854300 
# 
# From -- ./inp_files/6190.got.cif
#   From: 2010.05.17/outbox.cif.g08.bks.cpg/sg40_4_cif.got.tgz:6190.got - 2010.06.03 18:35:42.
