data_PCOD9365127
_publ_section_title
;
Structure prediction by ZEFSAII (Michael W. Deem and Ramdas Pophale) SiO2 
 PCOD9365127
Probable space group: A M A 2
;
_chemical_formula_sum "Si O2"
_cell_formula_units_Z 32
_cell_length_a 11.121764
_cell_length_b 23.686014
_cell_length_c 4.680615
_cell_angle_alpha 90.000000
_cell_angle_beta 90.000000
_cell_angle_gamma 90.000000
_cell_volume 1233.015616
_symmetry_space_group_name_H-M "A M A 2"
_symmetry_group_IT_number 40
_symmetry_cell_setting 'orthorhombic'
loop_
_space_group_symop_operation_xyz
x,y,z
-x,-y,z
1/2-x,y,z
1/2+x,-y,z
x,1/2+y,1/2+z
-x,1/2-y,1/2+z
1/2-x,1/2+y,1/2+z
1/2+x,1/2-y,1/2+z
loop_
_atom_site_type_symbol
_atom_site_label
_atom_site_fract_x
_atom_site_fract_y
_atom_site_fract_z
Si Si1 0.876985 0.999212 0.594100
Si Si2 0.000806 0.210155 0.441745
Si Si3 0.120120 0.118952 0.766175
Si Si4 0.614490 0.605822 0.669975
O O1 0.750000 0.009922 0.743471
O O2 0.886317 0.046481 0.348486
O O3 0.875480 0.932406 0.534338
O O4 0.000000 0.000000 0.770919
O O5 0.106612 0.176774 0.598048
O O6 0.042859 0.242230 0.159795
O O7 0.906608 0.160472 0.371198
O O8 0.250000 0.116310 0.917723
O O9 0.999329 0.111432 0.955851
O O10 0.750000 0.611892 0.547667
#
# Coordination Sequence:
#
# PCOD9365127 Si02
#       4
#     8   8   8   8
#     4  10  22  44  74 108 146 192 246 316 388 460
#     4  12  26  51  78 119 154 210 266 328 386 460
#     4  11  26  50  80 113 157 205 261 326 396 470
#     4  11  26  50  80 113 157 205 261 326 396 470
#
# _framework density 25.952631
#
# number of rings (size 3 to 8) (size 9 to 14) (size 15 to 20)
#    0.000    1.000    5.000    0.000    0.000    7.000 
#    4.500    5.000    0.000    0.000    0.000    0.000 
#    0.000    0.000    0.000    0.000    0.000    0.000 
#
# Total GULP energy -89205.694128 kJ/mol
# GULP energy per Si atom -5575.355883 kJ/mol
# Density = 2.589356 g / cm^3
# Si number density = 25.952631 Si / 1000 Ang^3
#
#
#
# Elastic Constant Matrix: (Units=GPa)
#
#
# Indices 1 2 3 4 5 6 
#
# 1 279.0748 28.1404 50.9018 0.0000 0.0000 0.0000
# 2 28.1404 191.0196 81.4725 0.0000 0.0000 0.0000
# 3 50.9018 81.4725 101.7963 0.0000 0.0000 0.0000
# 4 0.0000 0.0000 0.0000 57.1832 0.0000 0.0000
# 5 0.0000 0.0000 0.0000 0.0000 22.7073 0.0000
# 6 0.0000 0.0000 0.0000 0.0000 0.0000 -10.5187
#
#
#
# Elastic Compliance Matrix: (Units=1/GPa)
#
#
# Indices 1 2 3 4 5 6 
#
# 1 0.003963 0.000397 -0.002299 0.000000 0.000000 0.000000
# 2 0.000397 0.007988 -0.006592 0.000000 0.000000 0.000000
# 3 -0.002299 -0.006592 0.016249 0.000000 0.000000 0.000000
# 4 0.000000 0.000000 0.000000 0.017488 0.000000 0.000000
# 5 0.000000 0.000000 0.000000 0.000000 0.044039 0.000000
# 6 0.000000 0.000000 0.000000 0.000000 0.000000 -0.095069
#
#
# Mechanical properties :
#
#
# Convention : Reuss Voigt Hill
#
# Bulk Modulus (GPa) = 89.19278 99.21334 94.20306
# Shear Modulus (GPa) = 325.06351 41.29943 183.18147
#
# Velocity S-wave (km/s) = 11.20377 3.99349 8.41048
# Velocity P-wave (km/s) = 14.20592 7.71852 11.43205
#
# Compressibility (1/GPa) = 0.01121167
#
# Stress axis : x y z
#
# Youngs Moduli (GPa) = 252.36043 125.18736 61.54331
#
# Poissons Ratio (x) = -0.04968 0.14149
# Poissons Ratio (y) = -0.10014 0.40567
# Poissons Ratio (z) = 0.58018 0.82519
#
# Static dielectric constant tensor:
#      x y z
#    x 2.078440 0.000000 0.000000 
#    y 0.000000 2.053590 0.000000 
#    z 0.000000 0.000000 2.070270 
# 
# From -- ./inp_files/636.got.cif
#   From: 2010.05.17/outbox.cif.g08.bks.cpg/sg40_1_cif.got.tgz:636.got - 2010.06.03 18:35:42.
