data_PCOD9365263
_publ_section_title
;
Structure prediction by ZEFSAII (Michael W. Deem and Ramdas Pophale) SiO2 
 PCOD9365263
Probable space group: A M A 2
;
_chemical_formula_sum "Si O2"
_cell_formula_units_Z 60
_cell_length_a 24.559061
_cell_length_b 17.923227
_cell_length_c 6.731066
_cell_angle_alpha 90.000000
_cell_angle_beta 90.000000
_cell_angle_gamma 90.000000
_cell_volume 2962.864647
_symmetry_space_group_name_H-M "A M A 2"
_symmetry_group_IT_number 40
_symmetry_cell_setting 'orthorhombic'
loop_
_space_group_symop_operation_xyz
x,y,z
-x,-y,z
1/2-x,y,z
1/2+x,-y,z
x,1/2+y,1/2+z
-x,1/2-y,1/2+z
1/2-x,1/2+y,1/2+z
1/2+x,1/2-y,1/2+z
loop_
_atom_site_type_symbol
_atom_site_label
_atom_site_fract_x
_atom_site_fract_y
_atom_site_fract_z
Si Si1 0.533547 0.924266 0.918670
Si Si2 0.313301 0.690805 0.401941
Si Si3 0.600912 0.340645 0.740911
Si Si4 0.434783 0.324445 0.306042
Si Si5 0.136504 0.572346 0.134276
Si Si6 0.845975 0.170266 0.135532
Si Si7 0.250000 0.842524 0.805926
Si Si8 0.652889 0.097002 0.536027
O O1 0.493510 0.860213 0.836761
O O2 0.581259 0.935944 0.759891
O O3 0.500000 0.000000 0.946622
O O4 0.562879 0.896967 0.118793
O O5 0.250000 0.706228 0.441343
O O6 0.347437 0.681030 0.603051
O O7 0.320965 0.616141 0.272652
O O8 0.340323 0.755133 0.267635
O O9 0.567858 0.264111 0.772512
O O10 0.622805 0.378659 0.940501
O O11 0.400663 0.336122 0.508536
O O12 0.401990 0.366982 0.130141
O O13 0.156554 0.489918 0.086146
O O14 0.844193 0.106146 0.299979
O O15 0.797438 0.168847 0.977821
O O16 0.297775 0.859878 0.640296
#
# Coordination Sequence:
#
# PCOD9365263 Si02
#       8
#     8   8   8   8   8   8   4   8
#     4  11  26  46  68  97 136 178 228 284 334 400
#     4  11  24  44  68  98 138 175 222 276 327 399
#     4  11  26  43  70 101 133 176 230 268 341 406
#     4  11  24  44  68 101 134 173 225 282 331 397
#     4  11  26  47  63  99 140 176 220 279 344 397
#     4  11  22  41  72  98 131 175 227 273 332 400
#     4  10  24  40  66 100 132 174 226 272 332 396
#     4  11  24  43  68  95 136 174 224 274 335 405
#
# _framework density 20.250672999999999
#
# number of rings (size 3 to 8) (size 9 to 14) (size 15 to 20)
#    0.000    1.067    4.667    0.400    4.667    3.200 
#    0.000    0.000    0.000    0.000    0.000    0.000 
#    0.000    0.000    0.000    0.000    0.000    0.000 
#
# Total GULP energy -167287.484866 kJ/mol
# GULP energy per Si atom -5576.249496 kJ/mol
# Density = 2.020458 g / cm^3
# Si number density = 20.250673 Si / 1000 Ang^3
#
#
#
# Elastic Constant Matrix: (Units=GPa)
#
#
# Indices 1 2 3 4 5 6 
#
# 1 47.1339 -1.2790 -2.7369 0.0000 0.0000 0.0000
# 2 -1.2790 80.0251 23.5241 0.0000 0.0000 0.0000
# 3 -2.7369 23.5241 69.1732 0.0000 0.0000 0.0000
# 4 0.0000 0.0000 0.0000 20.2131 0.0000 0.0000
# 5 0.0000 0.0000 0.0000 0.0000 5.5655 0.0000
# 6 0.0000 0.0000 0.0000 0.0000 0.0000 10.0175
#
#
#
# Elastic Compliance Matrix: (Units=1/GPa)
#
#
# Indices 1 2 3 4 5 6 
#
# 1 0.021266 0.000103 0.000806 0.000000 0.000000 0.000000
# 2 0.000103 0.013885 -0.004718 0.000000 0.000000 0.000000
# 3 0.000806 -0.004718 0.016093 0.000000 0.000000 0.000000
# 4 0.000000 0.000000 0.000000 0.049473 0.000000 0.000000
# 5 0.000000 0.000000 0.000000 0.000000 0.179678 0.000000
# 6 0.000000 0.000000 0.000000 0.000000 0.000000 0.099825
#
#
# Mechanical properties :
#
#
# Convention : Reuss Voigt Hill
#
# Bulk Modulus (GPa) = 22.92204 26.14984 24.53594
# Shear Modulus (GPa) = 12.42611 18.94748 15.68680
#
# Velocity S-wave (km/s) = 2.47981 3.06215 2.78624
# Velocity P-wave (km/s) = 4.42075 5.04415 4.74270
#
# Compressibility (1/GPa) = 0.04362613
#
# Stress axis : x y z
#
# Youngs Moduli (GPa) = 47.02392 72.02249 62.13971
#
# Poissons Ratio (x) = -0.00741 -0.05011
# Poissons Ratio (y) = -0.00484 0.29316
# Poissons Ratio (z) = -0.03792 0.33978
#
# Static dielectric constant tensor:
#      x y z
#    x 1.690360 0.000000 0.000000 
#    y 0.000000 1.741170 0.000000 
#    z 0.000000 0.000000 1.709450 
# 
# From -- ./inp_files/2820.got.cif
#   From: 2010.05.17/outbox.cif.g08.bks.cpg/sg40_2_cif.got.tgz:2820.got - 2010.06.03 18:35:42.
