data_PCOD9365004
_publ_section_title
;
Structure prediction by ZEFSAII (Michael W. Deem and Ramdas Pophale) SiO2 
 PCOD9365004
Probable space group: A M A 2
;
_chemical_formula_sum "Si O2"
_cell_formula_units_Z 40
_cell_length_a 25.591374
_cell_length_b 14.198968
_cell_length_c 5.285873
_cell_angle_alpha 90.000000
_cell_angle_beta 90.000000
_cell_angle_gamma 90.000000
_cell_volume 1920.733489
_symmetry_space_group_name_H-M "A M A 2"
_symmetry_group_IT_number 40
_symmetry_cell_setting 'orthorhombic'
loop_
_space_group_symop_operation_xyz
x,y,z
-x,-y,z
1/2-x,y,z
1/2+x,-y,z
x,1/2+y,1/2+z
-x,1/2-y,1/2+z
1/2-x,1/2+y,1/2+z
1/2+x,1/2-y,1/2+z
loop_
_atom_site_type_symbol
_atom_site_label
_atom_site_fract_x
_atom_site_fract_y
_atom_site_fract_z
Si Si1 0.871810 0.540642 0.263780
Si Si2 0.616461 0.199688 0.098600
Si Si3 0.055132 0.626642 0.235313
Si Si4 0.993396 0.111985 0.236515
Si Si5 0.188449 0.445952 0.757850
O O1 0.881045 0.652402 0.317941
O O2 0.924387 0.480633 0.240586
O O3 0.841455 0.508207 0.518507
O O4 0.836478 0.523321 0.021077
O O5 0.603475 0.306589 0.157123
O O6 0.566369 0.143310 0.210061
O O7 0.669787 0.162692 0.222823
O O8 0.028159 0.649755 0.502037
O O9 0.015262 0.641670 0.007008
O O10 0.000000 0.000000 0.222020
O O11 0.250000 0.457757 0.747150
#
# Coordination Sequence:
#
# PCOD9365004 Si02
#       5
#     8   8   8   8   8
#     4  10  22  41  63  88 122 163 204 258 316 373
#     4  10  25  39  65  92 128 160 219 253 322 379
#     4  12  24  39  64  93 132 164 208 256 316 387
#     4  12  23  39  62  94 130 171 206 251 316 386
#     4  10  22  43  67  86 122 163 211 268 323 369
#
# _framework density 20.825375999999999
#
# number of rings (size 3 to 8) (size 9 to 14) (size 15 to 20)
#    1.200    0.000    2.000    4.800    5.600    0.000 
#    0.000    2.000    0.000    0.000    0.000    0.000 
#    0.000    0.000    0.000    0.000    0.000    0.000 
#
# Total GULP energy -111552.993516 kJ/mol
# GULP energy per Si atom -5577.649676 kJ/mol
# Density = 2.077798 g / cm^3
# Si number density = 20.825376 Si / 1000 Ang^3
#
#
#
# Elastic Constant Matrix: (Units=GPa)
#
#
# Indices 1 2 3 4 5 6 
#
# 1 68.9869 -21.0571 34.5513 0.0000 0.0000 0.0000
# 2 -21.0571 52.0855 4.6223 0.0000 0.0000 0.0000
# 3 34.5513 4.6223 146.2423 0.0000 0.0000 0.0000
# 4 0.0000 0.0000 0.0000 8.3167 0.0000 0.0000
# 5 0.0000 0.0000 0.0000 0.0000 24.2437 0.0000
# 6 0.0000 0.0000 0.0000 0.0000 0.0000 19.7710
#
#
#
# Elastic Compliance Matrix: (Units=1/GPa)
#
#
# Indices 1 2 3 4 5 6 
#
# 1 0.019463 0.008300 -0.004861 0.000000 0.000000 0.000000
# 2 0.008300 0.022793 -0.002681 0.000000 0.000000 0.000000
# 3 -0.004861 -0.002681 0.008071 0.000000 0.000000 0.000000
# 4 0.000000 0.000000 0.000000 0.120241 0.000000 0.000000
# 5 0.000000 0.000000 0.000000 0.000000 0.041248 0.000000
# 6 0.000000 0.000000 0.000000 0.000000 0.000000 0.050579
#
#
# Mechanical properties :
#
#
# Convention : Reuss Voigt Hill
#
# Bulk Modulus (GPa) = 19.28902 33.72751 26.50826
# Shear Modulus (GPa) = 17.97527 27.07949 22.52738
#
# Velocity S-wave (km/s) = 2.94112 3.60990 3.29253
# Velocity P-wave (km/s) = 4.56245 5.79704 5.21640
#
# Compressibility (1/GPa) = 0.05184297
#
# Stress axis : x y z
#
# Youngs Moduli (GPa) = 51.37845 43.87374 123.89841
#
# Poissons Ratio (x) = -0.36415 0.60224
# Poissons Ratio (y) = -0.42644 0.33222
# Poissons Ratio (z) = 0.24974 0.11764
#
# Static dielectric constant tensor:
#      x y z
#    x 1.703010 0.000000 0.000000 
#    y 0.000000 1.801130 0.000000 
#    z 0.000000 0.000000 1.785390 
# 
# From -- ./inp_files/3006.got.cif
#   From: 2010.05.17/outbox.cif.g08.bks.cpg/sg40_2_cif.got.tgz:3006.got - 2010.06.03 18:35:42.
