data_PCOD9365821
_publ_section_title
;
Structure prediction by ZEFSAII (Michael W. Deem and Ramdas Pophale) SiO2 
 PCOD9365821
Probable space group: A B A 2
;
_chemical_formula_sum "Si O2"
_cell_formula_units_Z 60
_cell_length_a 15.025186
_cell_length_b 16.352818
_cell_length_c 11.530788
_cell_angle_alpha 90.000000
_cell_angle_beta 90.000000
_cell_angle_gamma 90.000000
_cell_volume 2833.162258
_symmetry_space_group_name_H-M "A B A 2"
_symmetry_group_IT_number 41
_symmetry_cell_setting 'orthorhombic'
loop_
_space_group_symop_operation_xyz
x,y,z
-x,-y,z
1/2-x,y,1/2+z
1/2+x,-y,1/2+z
x,1/2+y,1/2+z
-x,1/2-y,1/2+z
1/2-x,1/2+y,z
1/2+x,1/2-y,z
loop_
_atom_site_type_symbol
_atom_site_label
_atom_site_fract_x
_atom_site_fract_y
_atom_site_fract_z
Si Si1 0.916296 0.645743 0.657730
Si Si2 0.078048 0.866805 0.651142
Si Si3 0.742879 0.406618 0.138187
Si Si4 0.418576 0.687874 0.033881
Si Si5 0.899730 0.319196 0.263454
Si Si6 0.749519 0.580352 0.256917
Si Si7 0.846866 0.511383 0.962649
Si Si8 0.000000 0.500000 0.801595
O O1 0.924875 0.726179 0.735228
O O2 0.812308 0.623897 0.659424
O O3 0.977786 0.661584 0.547007
O O4 0.960193 0.570283 0.723461
O O5 0.087090 0.780684 0.582341
O O6 0.154614 0.878711 0.748054
O O7 0.100640 0.939007 0.561505
O O8 0.981144 0.871344 0.709539
O O9 0.647061 0.367758 0.112369
O O10 0.810541 0.342003 0.194249
O O11 0.746724 0.484817 0.222740
O O12 0.782650 0.445080 0.019972
O O13 0.390586 0.675142 0.901182
O O14 0.705322 0.577915 0.383561
O O15 0.920554 0.468969 0.882669
#
# Coordination Sequence:
#
# PCOD9365821 Si02
#       8
#     8   8   8   8   8   8   8   4
#     4  10  22  39  60  87 118 154 205 248 294 364
#     4  10  23  40  61  90 122 159 204 248 304 372
#     4  11  23  38  59  90 121 156 205 250 302 370
#     4  11  22  39  61  88 123 159 194 250 311 356
#     4  11  24  41  60  90 124 157 199 251 305 365
#     4  10  21  40  61  87 120 160 207 252 300 364
#     4  10  20  37  60  85 118 161 203 254 304 354
#     4  10  18  36  60  82 112 160 206 246 296 360
#
# _framework density 21.177748999999999
#
# number of rings (size 3 to 8) (size 9 to 14) (size 15 to 20)
#    0.000    1.600    0.000    5.600    0.000    4.800 
#    0.000   13.333    0.000    0.000    0.000    0.000 
#    0.000    0.000    0.000    0.000    0.000    0.000 
#
# Total GULP energy -167492.380730 kJ/mol
# GULP energy per Si atom -5583.079358 kJ/mol
# Density = 2.112955 g / cm^3
# Si number density = 21.177749 Si / 1000 Ang^3
#
#
#
# Elastic Constant Matrix: (Units=GPa)
#
#
# Indices 1 2 3 4 5 6 
#
# 1 68.8461 -4.2779 9.7038 0.0000 0.0000 0.0000
# 2 -4.2779 50.8395 1.9828 0.0000 0.0000 0.0000
# 3 9.7038 1.9828 61.6855 0.0000 0.0000 0.0000
# 4 0.0000 0.0000 0.0000 15.4672 0.0000 0.0000
# 5 0.0000 0.0000 0.0000 0.0000 27.9664 0.0000
# 6 0.0000 0.0000 0.0000 0.0000 0.0000 22.4351
#
#
#
# Elastic Compliance Matrix: (Units=1/GPa)
#
#
# Indices 1 2 3 4 5 6 
#
# 1 0.014947 0.001351 -0.002395 0.000000 0.000000 0.000000
# 2 0.001351 0.019817 -0.000850 0.000000 0.000000 0.000000
# 3 -0.002395 -0.000850 0.016615 0.000000 0.000000 0.000000
# 4 0.000000 0.000000 0.000000 0.064653 0.000000 0.000000
# 5 0.000000 0.000000 0.000000 0.000000 0.035757 0.000000
# 6 0.000000 0.000000 0.000000 0.000000 0.000000 0.044573
#
#
# Mechanical properties :
#
#
# Convention : Reuss Voigt Hill
#
# Bulk Modulus (GPa) = 21.01182 21.79870 21.40526
# Shear Modulus (GPa) = 23.14688 24.77124 23.95906
#
# Velocity S-wave (km/s) = 3.30961 3.42377 3.36718
# Velocity P-wave (km/s) = 4.95458 5.09364 5.02459
#
# Compressibility (1/GPa) = 0.04759226
#
# Stress axis : x y z
#
# Youngs Moduli (GPa) = 66.90467 50.46280 60.18554
#
# Poissons Ratio (x) = -0.06818 0.14413
# Poissons Ratio (y) = -0.09039 0.05113
# Poissons Ratio (z) = 0.16022 0.04287
#
# Static dielectric constant tensor:
#      x y z
#    x 1.813550 0.000000 0.000000 
#    y 0.000000 1.744820 0.000000 
#    z 0.000000 0.000000 1.778010 
# 
# From -- ./inp_files/5701.got.cif
#   From: 2010.05.17/outbox.cif.g08.bks.cpg/sg41_3_cif.got.tgz:5701.got - 2010.06.03 18:54:24.
