data_PCOD9365097
_publ_section_title
;
Structure prediction by ZEFSAII (Michael W. Deem and Ramdas Pophale) SiO2 
 PCOD9365097
Probable space group: A M A 2
;
_chemical_formula_sum "Si O2"
_cell_formula_units_Z 56
_cell_length_a 29.296837
_cell_length_b 4.919026
_cell_length_c 14.316108
_cell_angle_alpha 90.000000
_cell_angle_beta 90.000000
_cell_angle_gamma 90.000000
_cell_volume 2063.121566
_symmetry_space_group_name_H-M "A M A 2"
_symmetry_group_IT_number 40
_symmetry_cell_setting 'orthorhombic'
loop_
_space_group_symop_operation_xyz
x,y,z
-x,-y,z
1/2-x,y,z
1/2+x,-y,z
x,1/2+y,1/2+z
-x,1/2-y,1/2+z
1/2-x,1/2+y,1/2+z
1/2+x,1/2-y,1/2+z
loop_
_atom_site_type_symbol
_atom_site_label
_atom_site_fract_x
_atom_site_fract_y
_atom_site_fract_z
Si Si1 0.699647 0.522560 0.172220
Si Si2 0.197594 0.589427 0.833040
Si Si3 0.126762 0.823307 0.057402
Si Si4 0.799711 0.835368 0.990467
Si Si5 0.029834 0.271387 0.496514
Si Si6 0.896386 0.572681 0.740745
Si Si7 0.951165 0.077731 0.794021
O O1 0.750000 0.396618 0.161747
O O2 0.694074 0.616019 0.279755
O O3 0.701333 0.779603 0.101329
O O4 0.660863 0.348342 0.122556
O O5 0.250000 0.517277 0.805623
O O6 0.152100 0.460501 0.789870
O O7 0.064807 0.615034 0.784304
O O8 0.196016 0.451368 0.936590
O O9 0.107643 0.032136 0.134591
O O10 0.156732 0.970314 0.978021
O O11 0.080402 0.677401 0.028300
O O12 0.750000 0.957495 0.963427
O O13 0.043982 0.449239 0.405270
O O14 0.000000 0.500000 0.552767
O O15 0.000000 0.000000 0.481762
O O16 0.914128 0.877063 0.752003
O O17 0.000000 0.000000 0.751414
#
# Coordination Sequence:
#
# PCOD9365097 Si02
#       7
#     8   8   8   8   8   8   8
#     4  10  22  43  69 103 149 197 249 310 379 457
#     4  10  22  43  69 102 149 197 251 305 372 458
#     4  12  26  42  72 105 150 188 252 318 389 463
#     4  10  22  43  70 103 145 199 252 310 381 462
#     4  11  27  48  74 106 144 194 250 315 388 465
#     4  12  25  42  74 107 142 191 244 303 383 452
#     4  11  25  49  73 102 140 188 245 311 376 457
#
# _framework density 27.143333999999999
#
# number of rings (size 3 to 8) (size 9 to 14) (size 15 to 20)
#    0.000    1.143    1.429    4.286    4.000    2.286 
#    2.571    0.714    0.000    0.000    0.000    0.000 
#    0.000    0.000    0.000    0.000    0.000    0.000 
#
# Total GULP energy -156318.737423 kJ/mol
# GULP energy per Si atom -5582.812051 kJ/mol
# Density = 2.708155 g / cm^3
# Si number density = 27.143334 Si / 1000 Ang^3
#
#
#
# Elastic Constant Matrix: (Units=GPa)
#
#
# Indices 1 2 3 4 5 6 
#
# 1 188.2232 46.9686 49.3441 0.0000 0.0000 0.0000
# 2 46.9686 104.4823 19.3423 0.0000 0.0000 0.0000
# 3 49.3441 19.3423 92.5523 0.0000 0.0000 0.0000
# 4 0.0000 0.0000 0.0000 32.4882 0.0000 0.0000
# 5 0.0000 0.0000 0.0000 0.0000 15.3631 0.0000
# 6 0.0000 0.0000 0.0000 0.0000 0.0000 33.7365
#
#
#
# Elastic Compliance Matrix: (Units=1/GPa)
#
#
# Indices 1 2 3 4 5 6 
#
# 1 0.006732 -0.002457 -0.003076 0.000000 0.000000 0.000000
# 2 -0.002457 0.010853 -0.000958 0.000000 0.000000 0.000000
# 3 -0.003076 -0.000958 0.012645 0.000000 0.000000 0.000000
# 4 0.000000 0.000000 0.000000 0.030780 0.000000 0.000000
# 5 0.000000 0.000000 0.000000 0.000000 0.065091 0.000000
# 6 0.000000 0.000000 0.000000 0.000000 0.000000 0.029641
#
#
# Mechanical properties :
#
#
# Convention : Reuss Voigt Hill
#
# Bulk Modulus (GPa) = 57.97770 68.50752 63.24261
# Shear Modulus (GPa) = 28.65749 34.29108 31.47428
#
# Velocity S-wave (km/s) = 3.25281 3.55820 3.40892
# Velocity P-wave (km/s) = 5.95935 6.49423 6.23253
#
# Compressibility (1/GPa) = 0.01724801
#
# Stress axis : x y z
#
# Youngs Moduli (GPa) = 148.53751 92.14127 79.08372
#
# Poissons Ratio (x) = 0.22639 0.24325
# Poissons Ratio (y) = 0.36496 0.07578
# Poissons Ratio (z) = 0.45688 0.08829
#
# Static dielectric constant tensor:
#      x y z
#    x 2.205100 0.000000 0.000000 
#    y 0.000000 2.145440 0.000000 
#    z 0.000000 0.000000 2.273010 
# 
# From -- ./inp_files/23627.got.cif
#   From: 2010.05.17/outbox.cif.g08.bks.cpg/sg40_12_cif.got.tgz:23627.got - 2010.06.03 18:35:42.
