data_PCOD9365251
_publ_section_title
;
Structure prediction by ZEFSAII (Michael W. Deem and Ramdas Pophale) SiO2 
 PCOD9365251
Probable space group: A M A 2
;
_chemical_formula_sum "Si O2"
_cell_formula_units_Z 40
_cell_length_a 19.094551
_cell_length_b 17.474650
_cell_length_c 5.216506
_cell_angle_alpha 90.000000
_cell_angle_beta 90.000000
_cell_angle_gamma 90.000000
_cell_volume 1740.594664
_symmetry_space_group_name_H-M "A M A 2"
_symmetry_group_IT_number 40
_symmetry_cell_setting 'orthorhombic'
loop_
_space_group_symop_operation_xyz
x,y,z
-x,-y,z
1/2-x,y,z
1/2+x,-y,z
x,1/2+y,1/2+z
-x,1/2-y,1/2+z
1/2-x,1/2+y,1/2+z
1/2+x,1/2-y,1/2+z
loop_
_atom_site_type_symbol
_atom_site_label
_atom_site_fract_x
_atom_site_fract_y
_atom_site_fract_z
Si Si1 0.408531 0.891121 0.508430
Si Si2 0.557839 0.369478 0.198041
Si Si3 0.599137 0.006081 0.005282
Si Si4 0.329038 0.739831 0.434539
Si Si5 0.324405 0.604136 0.814147
O O1 0.482864 0.851640 0.580019
O O2 0.349725 0.827188 0.472068
O O3 0.390916 0.942049 0.756261
O O4 0.417684 0.941455 0.251559
O O5 0.549212 0.434631 0.417509
O O6 0.605921 0.298990 0.285552
O O7 0.608148 0.407111 0.987050
O O8 0.667463 0.957176 0.087036
O O9 0.250000 0.733173 0.323857
O O10 0.327257 0.688686 0.692616
O O11 0.250000 0.592918 0.946882
#
# Coordination Sequence:
#
# PCOD9365251 Si02
#       5
#     8   8   8   8   8
#     4  12  28  43  77 109 149 181 245 307 367 411
#     4  11  25  44  77 102 147 195 248 287 365 438
#     4  11  26  46  70 107 143 187 236 304 358 430
#     4  10  26  48  71 106 150 194 243 301 365 437
#     4  10  23  46  73 101 143 198 243 285 356 441
#
# _framework density 22.980650000000001
#
# number of rings (size 3 to 8) (size 9 to 14) (size 15 to 20)
#    0.000    1.200    2.000    1.200   14.000    2.400 
#    0.000    0.000    0.000    0.000    0.000    0.000 
#    0.000    0.000    0.000    0.000    0.000    0.000 
#
# Total GULP energy -111671.933799 kJ/mol
# GULP energy per Si atom -5583.596690 kJ/mol
# Density = 2.292835 g / cm^3
# Si number density = 22.980650 Si / 1000 Ang^3
#
#
#
# Elastic Constant Matrix: (Units=GPa)
#
#
# Indices 1 2 3 4 5 6 
#
# 1 97.1613 31.7429 24.1262 0.0000 0.0000 0.0000
# 2 31.7429 100.2143 44.7708 0.0000 0.0000 0.0000
# 3 24.1262 44.7708 119.6076 0.0000 0.0000 0.0000
# 4 0.0000 0.0000 0.0000 27.9834 0.0000 0.0000
# 5 0.0000 0.0000 0.0000 0.0000 7.4661 0.0000
# 6 0.0000 0.0000 0.0000 0.0000 0.0000 -35.7375
#
#
#
# Elastic Compliance Matrix: (Units=1/GPa)
#
#
# Indices 1 2 3 4 5 6 
#
# 1 0.011613 -0.003160 -0.001159 0.000000 0.000000 0.000000
# 2 -0.003160 0.012842 -0.004170 0.000000 0.000000 0.000000
# 3 -0.001159 -0.004170 0.010155 0.000000 0.000000 0.000000
# 4 0.000000 0.000000 0.000000 0.035735 0.000000 0.000000
# 5 0.000000 0.000000 0.000000 0.000000 0.133938 0.000000
# 6 0.000000 0.000000 0.000000 0.000000 0.000000 -0.027982
#
#
# Mechanical properties :
#
#
# Convention : Reuss Voigt Hill
#
# Bulk Modulus (GPa) = 56.71660 57.58481 57.15070
# Shear Modulus (GPa) = 25.10572 14.36531 19.73552
#
# Velocity S-wave (km/s) = 3.30884 2.50292 2.93369
# Velocity P-wave (km/s) = 6.27150 5.78491 6.03311
#
# Compressibility (1/GPa) = 0.01763152
#
# Stress axis : x y z
#
# Youngs Moduli (GPa) = 86.11380 77.86692 98.47078
#
# Poissons Ratio (x) = 0.24608 0.11417
# Poissons Ratio (y) = 0.27215 0.41059
# Poissons Ratio (z) = 0.09984 0.32468
#
# Static dielectric constant tensor:
#      x y z
#    x 1.376990 0.000000 0.000000 
#    y 0.000000 1.864240 0.000000 
#    z 0.000000 0.000000 1.925670 
# 
# From -- ./inp_files/2246.got.cif
#   From: 2010.05.17/outbox.cif.g08.bks.cpg/sg40_2_cif.got.tgz:2246.got - 2010.06.03 18:35:42.
