data_PCOD9365596
_publ_section_title
;
Structure prediction by ZEFSAII (Michael W. Deem and Ramdas Pophale) SiO2 
 PCOD9365596
Probable space group: A M A 2
;
_chemical_formula_sum "Si O2"
_cell_formula_units_Z 36
_cell_length_a 14.915035
_cell_length_b 5.031955
_cell_length_c 19.275246
_cell_angle_alpha 90.000000
_cell_angle_beta 90.000000
_cell_angle_gamma 90.000000
_cell_volume 1446.641618
_symmetry_space_group_name_H-M "A M A 2"
_symmetry_group_IT_number 40
_symmetry_cell_setting 'orthorhombic'
loop_
_space_group_symop_operation_xyz
x,y,z
-x,-y,z
1/2-x,y,z
1/2+x,-y,z
x,1/2+y,1/2+z
-x,1/2-y,1/2+z
1/2-x,1/2+y,1/2+z
1/2+x,1/2-y,1/2+z
loop_
_atom_site_type_symbol
_atom_site_label
_atom_site_fract_x
_atom_site_fract_y
_atom_site_fract_z
Si Si1 0.097837 0.108175 0.382750
Si Si2 0.647208 0.898559 0.967779
Si Si3 0.606556 0.552235 0.253343
Si Si4 0.101454 0.088811 0.121763
Si Si5 0.750000 0.720607 0.693449
O O1 0.093518 0.348398 0.438379
O O2 0.135833 0.254443 0.315197
O O3 0.143323 0.854014 0.417176
O O4 0.000000 0.000000 0.363461
O O5 0.750000 0.986212 0.973642
O O6 0.611797 0.815438 0.043329
O O7 0.500000 0.500000 0.259005
O O8 0.626862 0.696964 0.180312
O O9 0.670172 0.299114 0.249733
O O10 0.171626 0.857115 0.136548
O O11 0.000000 0.000000 0.134589
#
# Coordination Sequence:
#
# PCOD9365596 Si02
#       5
#     8   8   8   8   4
#     4  12  28  52  78 114 160 213 271 336 412 488
#     4  12  29  49  79 117 161 213 272 338 410 488
#     4  12  28  49  82 115 161 212 274 338 413 492
#     4  12  26  50  80 114 162 210 273 333 412 495
#     4  12  28  48  80 122 158 212 266 348 402 494
#
# _framework density 24.885221999999999
#
# number of rings (size 3 to 8) (size 9 to 14) (size 15 to 20)
#    0.000    0.000    3.333    5.333    9.333    0.889 
#    0.000    0.000    0.000    0.000    0.000    0.000 
#    0.000    0.000    0.000    0.000    0.000    0.000 
#
# Total GULP energy -100366.508358 kJ/mol
# GULP energy per Si atom -5575.917131 kJ/mol
# Density = 2.482858 g / cm^3
# Si number density = 24.885222 Si / 1000 Ang^3
#
#
#
# Elastic Constant Matrix: (Units=GPa)
#
#
# Indices 1 2 3 4 5 6 
#
# 1 131.5557 -20.7142 3.9763 0.0000 0.0000 0.0000
# 2 -20.7142 51.4407 52.8188 0.0000 0.0000 0.0000
# 3 3.9763 52.8188 142.7540 0.0000 0.0000 0.0000
# 4 0.0000 0.0000 0.0000 14.1769 0.0000 0.0000
# 5 0.0000 0.0000 0.0000 0.0000 -9.3777 0.0000
# 6 0.0000 0.0000 0.0000 0.0000 0.0000 -14.8839
#
#
#
# Elastic Compliance Matrix: (Units=1/GPa)
#
#
# Indices 1 2 3 4 5 6 
#
# 1 0.008620 0.005995 -0.002458 0.000000 0.000000 0.000000
# 2 0.005995 0.035520 -0.013309 0.000000 0.000000 0.000000
# 3 -0.002458 -0.013309 0.011998 0.000000 0.000000 0.000000
# 4 0.000000 0.000000 0.000000 0.070537 0.000000 0.000000
# 5 0.000000 0.000000 0.000000 0.000000 -0.106636 0.000000
# 6 0.000000 0.000000 0.000000 0.000000 0.000000 -0.067187
#
#
# Mechanical properties :
#
#
# Convention : Reuss Voigt Hill
#
# Bulk Modulus (GPa) = 27.32809 44.21247 35.77028
# Shear Modulus (GPa) = -324.54869 17.29437 -153.62716
#
# Velocity S-wave (km/s) = -11.43247 2.63908 -7.86564
# Velocity P-wave (km/s) = 12.77744 5.20494 8.25141
#
# Compressibility (1/GPa) = 0.03659238
#
# Stress axis : x y z
#
# Youngs Moduli (GPa) = 116.01468 28.15337 83.34766
#
# Poissons Ratio (x) = -0.16878 0.20489
# Poissons Ratio (y) = -0.69552 1.10929
# Poissons Ratio (z) = 0.28519 0.37470
#
# Static dielectric constant tensor:
#      x y z
#    x 2.001930 0.000000 0.000000 
#    y 0.000000 2.041800 0.000000 
#    z 0.000000 0.000000 1.953150 
# 
# From -- ./inp_files/22939.got.cif
#   From: 2010.05.17/outbox.cif.g08.bks.cpg/sg40_12_cif.got.tgz:22939.got - 2010.06.03 18:35:42.
