data_PCOD9365825
_publ_section_title
;
Structure prediction by ZEFSAII (Michael W. Deem and Ramdas Pophale) SiO2 
 PCOD9365825
Probable space group: A B A 2
;
_chemical_formula_sum "Si O2"
_cell_formula_units_Z 60
_cell_length_a 18.970743
_cell_length_b 12.154637
_cell_length_c 12.509977
_cell_angle_alpha 90.000000
_cell_angle_beta 90.000000
_cell_angle_gamma 90.000000
_cell_volume 2884.581706
_symmetry_space_group_name_H-M "A B A 2"
_symmetry_group_IT_number 41
_symmetry_cell_setting 'orthorhombic'
loop_
_space_group_symop_operation_xyz
x,y,z
-x,-y,z
1/2-x,y,1/2+z
1/2+x,-y,1/2+z
x,1/2+y,1/2+z
-x,1/2-y,1/2+z
1/2-x,1/2+y,z
1/2+x,1/2-y,z
loop_
_atom_site_type_symbol
_atom_site_label
_atom_site_fract_x
_atom_site_fract_y
_atom_site_fract_z
Si Si1 0.619968 0.157092 0.438690
Si Si2 0.985099 0.793589 0.834468
Si Si3 0.380714 0.305193 0.186894
Si Si4 0.000000 0.000000 0.676407
Si Si5 0.216284 0.162982 0.392727
Si Si6 0.349453 0.566448 0.605090
Si Si7 0.867978 0.908687 0.964415
Si Si8 0.799615 0.980215 0.186652
O O1 0.561630 0.229480 0.379709
O O2 0.602364 0.165970 0.564018
O O3 0.694238 0.210578 0.408925
O O4 0.618996 0.028603 0.411746
O O5 0.945648 0.700521 0.767773
O O6 0.935029 0.836113 0.931100
O O7 0.997475 0.893182 0.751427
O O8 0.352623 0.180101 0.174693
O O9 0.328143 0.400919 0.221580
O O10 0.925481 0.991888 0.613314
O O11 0.171915 0.101158 0.485554
O O12 0.298336 0.145827 0.416031
O O13 0.198712 0.108636 0.280275
O O14 0.281098 0.503087 0.648526
O O15 0.846660 0.934024 0.087338
#
# Coordination Sequence:
#
# PCOD9365825 Si02
#       8
#     8   8   8   4   8   8   8   8
#     4  10  21  39  61  86 121 157 201 251 297 360
#     4  11  20  38  63  89 110 164 204 249 293 359
#     4   9  21  39  59  85 124 152 196 254 300 349
#     4  10  18  36  62  86 110 156 206 238 286 354
#     4  10  21  38  60  89 121 156 193 251 305 346
#     4   9  20  39  61  86 120 154 200 247 292 357
#     4  10  21  39  64  86 119 158 210 242 295 366
#     4  10  21  39  61  90 120 160 194 252 304 355
#
# _framework density 20.800242999999998
#
# number of rings (size 3 to 8) (size 9 to 14) (size 15 to 20)
#    0.000    2.133    1.333    1.600    0.000    3.200 
#    7.200    2.667    0.000    0.000    0.000    0.000 
#    0.000    0.000    0.000    0.000    0.000    0.000 
#
# Total GULP energy -167385.273708 kJ/mol
# GULP energy per Si atom -5579.509124 kJ/mol
# Density = 2.075290 g / cm^3
# Si number density = 20.800243 Si / 1000 Ang^3
#
#
#
# Elastic Constant Matrix: (Units=GPa)
#
#
# Indices 1 2 3 4 5 6 
#
# 1 64.8847 -2.1792 8.9029 0.0000 0.0000 0.0000
# 2 -2.1792 25.2223 -4.6405 0.0000 0.0000 0.0000
# 3 8.9029 -4.6405 45.8314 0.0000 0.0000 0.0000
# 4 0.0000 0.0000 0.0000 10.1274 0.0000 0.0000
# 5 0.0000 0.0000 0.0000 0.0000 36.8492 0.0000
# 6 0.0000 0.0000 0.0000 0.0000 0.0000 24.8010
#
#
#
# Elastic Compliance Matrix: (Units=1/GPa)
#
#
# Indices 1 2 3 4 5 6 
#
# 1 0.015851 0.000818 -0.002996 0.000000 0.000000 0.000000
# 2 0.000818 0.040442 0.003936 0.000000 0.000000 0.000000
# 3 -0.002996 0.003936 0.022800 0.000000 0.000000 0.000000
# 4 0.000000 0.000000 0.000000 0.098742 0.000000 0.000000
# 5 0.000000 0.000000 0.000000 0.000000 0.027138 0.000000
# 6 0.000000 0.000000 0.000000 0.000000 0.000000 0.040321
#
#
# Mechanical properties :
#
#
# Convention : Reuss Voigt Hill
#
# Bulk Modulus (GPa) = 12.10528 15.56717 13.83622
# Shear Modulus (GPa) = 18.56571 23.27919 20.92245
#
# Velocity S-wave (km/s) = 2.99084 3.34904 3.17499
# Velocity P-wave (km/s) = 4.21417 4.73869 4.48410
#
# Compressibility (1/GPa) = 0.08260860
#
# Stress axis : x y z
#
# Youngs Moduli (GPa) = 63.08929 24.72656 43.86034
#
# Poissons Ratio (x) = -0.02023 0.13141
# Poissons Ratio (y) = -0.05162 -0.17263
# Poissons Ratio (z) = 0.18903 -0.09732
#
# Static dielectric constant tensor:
#      x y z
#    x 1.750240 0.000000 0.000000 
#    y 0.000000 1.750680 0.000000 
#    z 0.000000 0.000000 1.772320 
# 
# From -- ./inp_files/6280.got.cif
#   From: 2010.05.17/outbox.cif.g08.bks.cpg/sg41_4_cif.got.tgz:6280.got - 2010.06.03 18:54:24.
