data_PCOD9365554
_publ_section_title
;
Structure prediction by ZEFSAII (Michael W. Deem and Ramdas Pophale) SiO2 
 PCOD9365554
Probable space group: A M A 2
;
_chemical_formula_sum "Si O2"
_cell_formula_units_Z 28
_cell_length_a 23.630369
_cell_length_b 8.979225
_cell_length_c 4.919734
_cell_angle_alpha 90.000000
_cell_angle_beta 90.000000
_cell_angle_gamma 90.000000
_cell_volume 1043.880968
_symmetry_space_group_name_H-M "A M A 2"
_symmetry_group_IT_number 40
_symmetry_cell_setting 'orthorhombic'
loop_
_space_group_symop_operation_xyz
x,y,z
-x,-y,z
1/2-x,y,z
1/2+x,-y,z
x,1/2+y,1/2+z
-x,1/2-y,1/2+z
1/2-x,1/2+y,1/2+z
1/2+x,1/2-y,1/2+z
loop_
_atom_site_type_symbol
_atom_site_label
_atom_site_fract_x
_atom_site_fract_y
_atom_site_fract_z
Si Si1 0.000000 0.000000 0.872290
Si Si2 0.250000 0.501463 0.384155
Si Si3 0.750000 0.734776 0.929483
Si Si4 0.075820 0.762472 0.575951
Si Si5 0.346487 0.772992 0.067418
O O1 0.966936 0.874540 0.040881
O O2 0.044225 0.907518 0.690332
O O3 0.250000 0.632398 0.638762
O O4 0.306471 0.409920 0.493685
O O5 0.250000 0.417742 0.076543
O O6 0.699815 0.814643 0.749371
O O7 0.104327 0.799344 0.287891
O O8 0.123260 0.719352 0.797063
#
# Coordination Sequence:
#
# PCOD9365554 Si02
#       5
#     4   4   4   8   8
#     4  12  32  56  80 120 160 212 288 338 400 478
#     4  11  26  48  75 121 155 200 256 319 386 505
#     4  11  26  48  75 121 155 200 256 319 386 505
#     4  12  29  53  83 112 159 211 265 340 398 472
#     4  11  27  50  81 114 157 206 257 321 410 470
#
# _framework density 26.822984000000002
#
# number of rings (size 3 to 8) (size 9 to 14) (size 15 to 20)
#    0.000    0.571    2.857    1.714    4.000   19.429 
#    0.000    0.000    0.000    0.000    0.000    0.000 
#    0.000    0.000    0.000    0.000    0.000    0.000 
#
# Total GULP energy -77996.925236 kJ/mol
# GULP energy per Si atom -5571.208945 kJ/mol
# Density = 2.676193 g / cm^3
# Si number density = 26.822984 Si / 1000 Ang^3
#
#
#
# Elastic Constant Matrix: (Units=GPa)
#
#
# Indices 1 2 3 4 5 6 
#
# 1 113.1957 1.2111 26.0072 0.0000 0.0000 0.0000
# 2 1.2111 128.4646 20.9333 0.0000 0.0000 0.0000
# 3 26.0072 20.9333 145.2749 0.0000 0.0000 0.0000
# 4 0.0000 0.0000 0.0000 26.8535 0.0000 0.0000
# 5 0.0000 0.0000 0.0000 0.0000 51.1074 0.0000
# 6 0.0000 0.0000 0.0000 0.0000 0.0000 1058.2811
#
#
#
# Elastic Compliance Matrix: (Units=1/GPa)
#
#
# Indices 1 2 3 4 5 6 
#
# 1 0.009218 0.000186 -0.001677 0.000000 0.000000 0.000000
# 2 0.000186 0.007975 -0.001183 0.000000 0.000000 0.000000
# 3 -0.001677 -0.001183 0.007354 0.000000 0.000000 0.000000
# 4 0.000000 0.000000 0.000000 0.037239 0.000000 0.000000
# 5 0.000000 0.000000 0.000000 0.000000 0.019567 0.000000
# 6 0.000000 0.000000 0.000000 0.000000 0.000000 0.000945
#
#
# Mechanical properties :
#
#
# Convention : Reuss Voigt Hill
#
# Bulk Modulus (GPa) = 52.08189 53.69316 52.88753
# Shear Modulus (GPa) = 53.16661 249.83397 151.50029
#
# Velocity S-wave (km/s) = 4.45694 9.66147 7.52357
# Velocity P-wave (km/s) = 6.77826 12.02163 9.75870
#
# Compressibility (1/GPa) = 0.01920053
#
# Stress axis : x y z
#
# Youngs Moduli (GPa) = 108.48855 125.38898 135.97824
#
# Poissons Ratio (x) = -0.02337 0.22803
# Poissons Ratio (y) = -0.02022 0.16080
# Poissons Ratio (z) = 0.18193 0.14828
#
# Static dielectric constant tensor:
#      x y z
#    x 1.791950 0.000000 0.000000 
#    y 0.000000 2.293740 0.000000 
#    z 0.000000 0.000000 2.504120 
# 
# From -- ./inp_files/2935.got.cif
#   From: 2010.05.17/outbox.cif.g08.bks.cpg/sg40_2_cif.got.tgz:2935.got - 2010.06.03 18:35:42.
