data_PCOD9365729
_publ_section_title
;
Structure prediction by ZEFSAII (Michael W. Deem and Ramdas Pophale) SiO2 
 PCOD9365729
Probable space group: A B A 2
;
_chemical_formula_sum "Si O2"
_cell_formula_units_Z 52
_cell_length_a 16.900612
_cell_length_b 10.683219
_cell_length_c 16.015414
_cell_angle_alpha 90.000000
_cell_angle_beta 90.000000
_cell_angle_gamma 90.000000
_cell_volume 2891.630071
_symmetry_space_group_name_H-M "A B A 2"
_symmetry_group_IT_number 41
_symmetry_cell_setting 'orthorhombic'
loop_
_space_group_symop_operation_xyz
x,y,z
-x,-y,z
1/2-x,y,1/2+z
1/2+x,-y,1/2+z
x,1/2+y,1/2+z
-x,1/2-y,1/2+z
1/2-x,1/2+y,z
1/2+x,1/2-y,z
loop_
_atom_site_type_symbol
_atom_site_label
_atom_site_fract_x
_atom_site_fract_y
_atom_site_fract_z
Si Si1 0.874119 0.143935 0.637320
Si Si2 0.067618 0.254776 0.812513
Si Si3 0.743542 0.178535 0.771225
Si Si4 0.000000 0.500000 0.254587
Si Si5 0.818704 0.929656 0.322468
Si Si6 0.084588 0.941919 0.461810
Si Si7 0.052465 0.108276 0.187674
O O1 0.791395 0.163548 0.685138
O O2 0.868583 0.086653 0.545958
O O3 0.917323 0.278808 0.631116
O O4 0.931564 0.060088 0.696034
O O5 0.152739 0.275192 0.768425
O O6 0.038829 0.112028 0.807874
O O7 0.074345 0.319173 0.903178
O O8 0.003299 0.332362 0.759502
O O9 0.786575 0.289648 0.821382
O O10 0.743808 0.042762 0.815078
O O11 0.872418 0.942921 0.239036
O O12 0.871072 0.959890 0.402445
O O13 0.000000 0.000000 0.484437
O O14 0.000000 0.000000 0.146794
#
# Coordination Sequence:
#
# PCOD9365729 Si02
#       7
#     8   8   8   4   8   8   8
#     4  10  22  33  58  85 118 143 194 243 299 335
#     4  10  19  35  63  82 114 152 198 233 286 354
#     4  10  20  35  55  86 115 158 190 237 286 356
#     4  10  20  36  56  88 112 148 200 240 278 346
#     4  10  19  35  61  82 116 153 201 228 286 353
#     4  11  19  38  59  85 111 153 194 245 289 342
#     4  10  16  35  60  85 100 157 197 232 267 360
#
# _framework density 17.982935999999999
#
# number of rings (size 3 to 8) (size 9 to 14) (size 15 to 20)
#    0.000    1.846    5.385    0.923    0.000    0.000 
#    1.385    9.231    0.000    0.000    0.000    0.000 
#    0.000    0.000    0.000    0.000    0.000    0.000 
#
# Total GULP energy -144905.650621 kJ/mol
# GULP energy per Si atom -5573.294255 kJ/mol
# Density = 1.794201 g / cm^3
# Si number density = 17.982936 Si / 1000 Ang^3
#
#
#
# Elastic Constant Matrix: (Units=GPa)
#
#
# Indices 1 2 3 4 5 6 
#
# 1 54.0801 25.0144 16.2536 0.0000 0.0000 0.0000
# 2 25.0144 99.8293 20.8418 0.0000 0.0000 0.0000
# 3 16.2536 20.8418 56.1483 0.0000 0.0000 0.0000
# 4 0.0000 0.0000 0.0000 17.1716 0.0000 0.0000
# 5 0.0000 0.0000 0.0000 0.0000 17.1889 0.0000
# 6 0.0000 0.0000 0.0000 0.0000 0.0000 36.2980
#
#
#
# Elastic Compliance Matrix: (Units=1/GPa)
#
#
# Indices 1 2 3 4 5 6 
#
# 1 0.021996 -0.004534 -0.004684 0.000000 0.000000 0.000000
# 2 -0.004534 0.011793 -0.003065 0.000000 0.000000 0.000000
# 3 -0.004684 -0.003065 0.020304 0.000000 0.000000 0.000000
# 4 0.000000 0.000000 0.000000 0.058236 0.000000 0.000000
# 5 0.000000 0.000000 0.000000 0.000000 0.058177 0.000000
# 6 0.000000 0.000000 0.000000 0.000000 0.000000 0.027550
#
#
# Mechanical properties :
#
#
# Convention : Reuss Voigt Hill
#
# Bulk Modulus (GPa) = 33.86798 37.14194 35.50496
# Shear Modulus (GPa) = 21.50872 23.99487 22.75179
#
# Velocity S-wave (km/s) = 3.46217 3.65679 3.56081
# Velocity P-wave (km/s) = 5.90393 6.20712 6.05742
#
# Compressibility (1/GPa) = 0.02952641
#
# Stress axis : x y z
#
# Youngs Moduli (GPa) = 45.46283 84.79602 49.25195
#
# Poissons Ratio (x) = 0.38443 0.23072
# Poissons Ratio (y) = 0.20611 0.15096
# Poissons Ratio (z) = 0.21297 0.25991
#
# Static dielectric constant tensor:
#      x y z
#    x 1.639810 0.000000 0.000000 
#    y 0.000000 1.662050 0.000000 
#    z 0.000000 0.000000 1.568060 
# 
# From -- ./inp_files/8767.got.cif
#   From: 2010.05.17/outbox.cif.g08.bks.cpg/sg41_5_cif.got.tgz:8767.got - 2010.06.03 18:54:24.
