data_PCOD9365188
_publ_section_title
;
Structure prediction by ZEFSAII (Michael W. Deem and Ramdas Pophale) SiO2 
 PCOD9365188
Probable space group: A M A 2
;
_chemical_formula_sum "Si O2"
_cell_formula_units_Z 60
_cell_length_a 19.487722
_cell_length_b 24.118441
_cell_length_c 5.229621
_cell_angle_alpha 90.000000
_cell_angle_beta 90.000000
_cell_angle_gamma 90.000000
_cell_volume 2457.992330
_symmetry_space_group_name_H-M "A M A 2"
_symmetry_group_IT_number 40
_symmetry_cell_setting 'orthorhombic'
loop_
_space_group_symop_operation_xyz
x,y,z
-x,-y,z
1/2-x,y,z
1/2+x,-y,z
x,1/2+y,1/2+z
-x,1/2-y,1/2+z
1/2-x,1/2+y,1/2+z
1/2+x,1/2-y,1/2+z
loop_
_atom_site_type_symbol
_atom_site_label
_atom_site_fract_x
_atom_site_fract_y
_atom_site_fract_z
Si Si1 0.750000 0.274411 0.593120
Si Si2 0.409696 0.090265 0.352506
Si Si3 0.640215 0.183868 0.775711
Si Si4 0.003898 0.283853 0.480787
Si Si5 0.563754 0.117652 0.400037
Si Si6 0.630289 0.852730 0.860497
Si Si7 0.928377 0.012733 0.719996
Si Si8 0.174493 0.929233 0.017104
O O1 0.690102 0.235403 0.735996
O O2 0.689829 0.310692 0.442787
O O3 0.485497 0.116952 0.310017
O O4 0.367683 0.123051 0.573564
O O5 0.421358 0.029711 0.481653
O O6 0.373830 0.099405 0.079314
O O7 0.579707 0.189709 0.983617
O O8 0.598772 0.171966 0.515406
O O9 0.678355 0.126701 0.845437
O O10 0.986172 0.261831 0.759301
O O11 0.942519 0.321061 0.373903
O O12 0.557907 0.075916 0.640724
O O13 0.618186 0.086017 0.225991
O O14 0.857056 0.018848 0.866298
O O15 0.000000 0.000000 0.866561
O O16 0.250000 0.940352 0.122342
#
# Coordination Sequence:
#
# PCOD9365188 Si02
#       8
#     4   8   8   8   8   8   8   8
#     4  12  28  48  70 102 154 194 260 314 392 444
#     4  11  25  49  77 104 149 193 256 313 363 450
#     4  11  24  45  68 103 145 195 239 316 381 445
#     4  12  25  45  73 105 141 195 254 313 377 447
#     4  10  23  41  73 112 139 189 246 311 377 454
#     4  12  27  48  71 106 145 200 256 308 371 458
#     4   9  23  44  72 107 142 191 241 310 368 456
#     4  11  24  42  72 113 154 189 244 307 393 464
#
# _framework density 24.410163000000001
#
# number of rings (size 3 to 8) (size 9 to 14) (size 15 to 20)
#    0.000    1.067    3.333    1.600    8.400    1.600 
#    4.800    0.000    0.000    0.000    0.000    0.000 
#    0.000    0.000    0.000    0.000    0.000    0.000 
#
# Total GULP energy -167103.318427 kJ/mol
# GULP energy per Si atom -5570.110614 kJ/mol
# Density = 2.435460 g / cm^3
# Si number density = 24.410163 Si / 1000 Ang^3
#
#
#
# Elastic Constant Matrix: (Units=GPa)
#
#
# Indices 1 2 3 4 5 6 
#
# 1 157.0286 40.0167 27.2197 0.0000 0.0000 0.0000
# 2 40.0167 61.8898 -4.8819 0.0000 0.0000 0.0000
# 3 27.2197 -4.8819 76.1485 0.0000 0.0000 0.0000
# 4 0.0000 0.0000 0.0000 20.2157 0.0000 0.0000
# 5 0.0000 0.0000 0.0000 0.0000 -9.4201 0.0000
# 6 0.0000 0.0000 0.0000 0.0000 0.0000 292.3290
#
#
#
# Elastic Compliance Matrix: (Units=1/GPa)
#
#
# Indices 1 2 3 4 5 6 
#
# 1 0.008405 -0.005700 -0.003370 0.000000 0.000000 0.000000
# 2 -0.005700 0.020106 0.003327 0.000000 0.000000 0.000000
# 3 -0.003370 0.003327 0.014550 0.000000 0.000000 0.000000
# 4 0.000000 0.000000 0.000000 0.049467 0.000000 0.000000
# 5 0.000000 0.000000 0.000000 0.000000 -0.106156 0.000000
# 6 0.000000 0.000000 0.000000 0.000000 0.000000 0.003421
#
#
# Mechanical properties :
#
#
# Convention : Reuss Voigt Hill
#
# Bulk Modulus (GPa) = 31.67184 46.64176 39.15680
# Shear Modulus (GPa) = 423.58416 76.13908 249.86162
#
# Velocity S-wave (km/s) = 13.18729 5.59100 10.12827
# Velocity P-wave (km/s) = 15.64850 7.79923 12.36333
#
# Compressibility (1/GPa) = 0.03157379
#
# Stress axis : x y z
#
# Youngs Moduli (GPa) = 118.97567 49.73664 68.72808
#
# Poissons Ratio (x) = 0.28352 0.23161
# Poissons Ratio (y) = 0.67821 -0.22863
# Poissons Ratio (z) = 0.40094 -0.16545
#
# Static dielectric constant tensor:
#      x y z
#    x 1.966360 0.000000 0.000000 
#    y 0.000000 2.057240 0.000000 
#    z 0.000000 0.000000 2.024540 
# 
# From -- ./inp_files/1965.got.cif
#   From: 2010.05.17/outbox.cif.g08.bks.cpg/sg40_1_cif.got.tgz:1965.got - 2010.06.03 18:35:42.
