data_PCOD9365795
_publ_section_title
;
Structure prediction by ZEFSAII (Michael W. Deem and Ramdas Pophale) SiO2 
 PCOD9365795
Probable space group: A B A 2
;
_chemical_formula_sum "Si O2"
_cell_formula_units_Z 48
_cell_length_a 19.025964
_cell_length_b 16.559596
_cell_length_c 8.198684
_cell_angle_alpha 90.000000
_cell_angle_beta 90.000000
_cell_angle_gamma 90.000000
_cell_volume 2583.096052
_symmetry_space_group_name_H-M "A B A 2"
_symmetry_group_IT_number 41
_symmetry_cell_setting 'orthorhombic'
loop_
_space_group_symop_operation_xyz
x,y,z
-x,-y,z
1/2-x,y,1/2+z
1/2+x,-y,1/2+z
x,1/2+y,1/2+z
-x,1/2-y,1/2+z
1/2-x,1/2+y,z
1/2+x,1/2-y,z
loop_
_atom_site_type_symbol
_atom_site_label
_atom_site_fract_x
_atom_site_fract_y
_atom_site_fract_z
Si Si1 0.043364 0.827058 0.000000
Si Si2 0.425897 0.177034 0.238914
Si Si3 0.419178 0.413718 0.304835
Si Si4 0.814730 0.725579 0.913713
Si Si5 0.840713 0.252065 0.793659
Si Si6 0.076326 0.094264 0.422223
O O1 0.101028 0.808354 0.863644
O O2 0.971970 0.836437 0.899861
O O3 0.042485 0.750174 0.125507
O O4 0.067700 0.900740 0.112639
O O5 0.350678 0.207940 0.297759
O O6 0.419375 0.102306 0.117302
O O7 0.355984 0.356476 0.364423
O O8 0.407905 0.505602 0.356098
O O9 0.494713 0.387118 0.379538
O O10 0.732267 0.729191 0.880249
O O11 0.830816 0.744226 0.101323
O O12 0.871623 0.339558 0.844528
#
# Coordination Sequence:
#
# PCOD9365795 Si02
#       6
#     8   8   8   8   8   8
#     4  10  18  33  58  85 111 150 195 236 279 337
#     4  10  18  33  58  85 111 150 195 236 279 337
#     4  10  21  38  58  85 118 148 184 238 288 334
#     4  11  21  37  58  83 112 151 196 234 278 341
#     4  11  21  37  58  83 112 151 196 234 278 341
#     4  10  21  38  58  85 118 148 184 238 288 334
#
# _framework density 18.582350999999999
#
# number of rings (size 3 to 8) (size 9 to 14) (size 15 to 20)
#    0.000    1.667    0.000   10.000    0.000    0.000 
#    0.000   18.333    0.000    0.000    0.000    0.000 
#    0.000    0.000    0.000    0.000    0.000    0.000 
#
# Total GULP energy -133950.214456 kJ/mol
# GULP energy per Si atom -5581.258936 kJ/mol
# Density = 1.854006 g / cm^3
# Si number density = 18.582351 Si / 1000 Ang^3
#
#
#
# Elastic Constant Matrix: (Units=GPa)
#
#
# Indices 1 2 3 4 5 6 
#
# 1 73.9648 18.8217 -25.1050 0.0000 0.0000 0.0000
# 2 18.8217 67.8702 10.5526 0.0000 0.0000 0.0000
# 3 -25.1050 10.5526 69.3444 0.0000 0.0000 0.0000
# 4 0.0000 0.0000 0.0000 30.4525 0.0000 0.0000
# 5 0.0000 0.0000 0.0000 0.0000 38.1685 0.0000
# 6 0.0000 0.0000 0.0000 0.0000 0.0000 19.9122
#
#
#
# Elastic Compliance Matrix: (Units=1/GPa)
#
#
# Indices 1 2 3 4 5 6 
#
# 1 0.017501 -0.005980 0.007246 0.000000 0.000000 0.000000
# 2 -0.005980 0.017134 -0.004772 0.000000 0.000000 0.000000
# 3 0.007246 -0.004772 0.017770 0.000000 0.000000 0.000000
# 4 0.000000 0.000000 0.000000 0.032838 0.000000 0.000000
# 5 0.000000 0.000000 0.000000 0.000000 0.026200 0.000000
# 6 0.000000 0.000000 0.000000 0.000000 0.000000 0.050221
#
#
# Mechanical properties :
#
#
# Convention : Reuss Voigt Hill
#
# Bulk Modulus (GPa) = 22.02987 24.41312 23.22149
# Shear Modulus (GPa) = 27.20232 31.50063 29.35147
#
# Velocity S-wave (km/s) = 3.83022 4.12174 3.97865
# Velocity P-wave (km/s) = 5.60730 5.98481 5.79912
#
# Compressibility (1/GPa) = 0.04539291
#
# Stress axis : x y z
#
# Youngs Moduli (GPa) = 57.13938 58.36211 56.27366
#
# Poissons Ratio (x) = 0.34901 -0.40776
# Poissons Ratio (y) = 0.34169 0.26856
# Poissons Ratio (z) = -0.41403 0.27853
#
# Static dielectric constant tensor:
#      x y z
#    x 1.663200 0.000000 0.000000 
#    y 0.000000 1.658980 0.000000 
#    z 0.000000 0.000000 1.655640 
# 
# From -- ./inp_files/3090.got.cif
#   From: 2010.05.17/outbox.cif.g08.bks.cpg/sg41_2_cif.got.tgz:3090.got - 2010.06.03 18:54:24.
