data_PCOD9365323
_publ_section_title
;
Structure prediction by ZEFSAII (Michael W. Deem and Ramdas Pophale) SiO2 
 PCOD9365323
Probable space group: A M A 2
;
_chemical_formula_sum "Si O2"
_cell_formula_units_Z 48
_cell_length_a 22.938402
_cell_length_b 10.506510
_cell_length_c 9.351749
_cell_angle_alpha 90.000000
_cell_angle_beta 90.000000
_cell_angle_gamma 90.000000
_cell_volume 2253.795356
_symmetry_space_group_name_H-M "A M A 2"
_symmetry_group_IT_number 40
_symmetry_cell_setting 'orthorhombic'
loop_
_space_group_symop_operation_xyz
x,y,z
-x,-y,z
1/2-x,y,z
1/2+x,-y,z
x,1/2+y,1/2+z
-x,1/2-y,1/2+z
1/2-x,1/2+y,1/2+z
1/2+x,1/2-y,1/2+z
loop_
_atom_site_type_symbol
_atom_site_label
_atom_site_fract_x
_atom_site_fract_y
_atom_site_fract_z
Si Si1 0.378838 0.096408 0.156620
Si Si2 0.750000 0.777930 0.485861
Si Si3 0.750000 0.076356 0.422204
Si Si4 0.000000 0.000000 0.660757
Si Si5 0.567990 0.352120 0.352917
Si Si6 0.844253 0.173709 0.199323
Si Si7 0.525562 0.865172 0.374196
Si Si8 0.250000 0.216518 0.166660
O O1 0.410745 0.142744 0.302211
O O2 0.310558 0.137535 0.149705
O O3 0.382395 0.943963 0.147779
O O4 0.413435 0.144345 0.017925
O O5 0.804809 0.727940 0.573908
O O6 0.750000 0.727643 0.325512
O O7 0.750000 0.930482 0.469612
O O8 0.804952 0.110733 0.323715
O O9 0.750000 0.170943 0.554128
O O10 0.947192 0.984722 0.774060
O O11 0.983057 0.890023 0.544847
O O12 0.619972 0.286237 0.268513
O O13 0.512724 0.257384 0.337954
O O14 0.500000 0.000000 0.314362
#
# Coordination Sequence:
#
# PCOD9365323 Si02
#       8
#     8   4   4   4   8   8   8   4
#     4  12  25  47  79 102 150 194 245 307 372 446
#     4  11  26  43  73 105 148 197 242 296 372 441
#     4  11  23  49  70 100 152 187 237 307 362 434
#     4  10  26  42  66 104 142 178 244 288 364 428
#     4  12  25  45  73 106 144 191 245 305 364 442
#     4  11  24  46  72 103 146 192 239 303 367 436
#     4  10  24  47  71 101 146 193 236 300 366 434
#     4  12  25  46  75 111 140 194 249 299 374 445
#
# _framework density 21.297409999999999
#
# number of rings (size 3 to 8) (size 9 to 14) (size 15 to 20)
#    0.500    0.333    5.000    1.500    3.500    4.000 
#    6.000    0.000    0.000    0.000    0.000    0.000 
#    0.000    0.000    0.000    0.000    0.000    0.000 
#
# Total GULP energy -133872.971231 kJ/mol
# GULP energy per Si atom -5578.040468 kJ/mol
# Density = 2.124894 g / cm^3
# Si number density = 21.297410 Si / 1000 Ang^3
#
#
#
# Elastic Constant Matrix: (Units=GPa)
#
#
# Indices 1 2 3 4 5 6 
#
# 1 92.5440 31.5525 41.9881 0.0000 0.0000 0.0000
# 2 31.5525 64.5940 52.4757 0.0000 0.0000 0.0000
# 3 41.9881 52.4757 128.8847 0.0000 0.0000 0.0000
# 4 0.0000 0.0000 0.0000 36.8896 0.0000 0.0000
# 5 0.0000 0.0000 0.0000 0.0000 52.3565 0.0000
# 6 0.0000 0.0000 0.0000 0.0000 0.0000 73.5068
#
#
#
# Elastic Compliance Matrix: (Units=1/GPa)
#
#
# Indices 1 2 3 4 5 6 
#
# 1 0.013508 -0.004518 -0.002561 0.000000 0.000000 0.000000
# 2 -0.004518 0.024644 -0.008562 0.000000 0.000000 0.000000
# 3 -0.002561 -0.008562 0.012079 0.000000 0.000000 0.000000
# 4 0.000000 0.000000 0.000000 0.027108 0.000000 0.000000
# 5 0.000000 0.000000 0.000000 0.000000 0.019100 0.000000
# 6 0.000000 0.000000 0.000000 0.000000 0.000000 0.013604
#
#
# Mechanical properties :
#
#
# Convention : Reuss Voigt Hill
#
# Bulk Modulus (GPa) = 52.77227 59.78392 56.27810
# Shear Modulus (GPa) = 33.86590 43.21767 38.54178
#
# Velocity S-wave (km/s) = 3.99198 4.50960 4.25866
# Velocity P-wave (km/s) = 6.78826 7.43285 7.11785
#
# Compressibility (1/GPa) = 0.01894935
#
# Stress axis : x y z
#
# Youngs Moduli (GPa) = 74.03026 40.57829 82.78592
#
# Poissons Ratio (x) = 0.18331 0.21204
# Poissons Ratio (y) = 0.33443 0.70882
# Poissons Ratio (z) = 0.18962 0.34743
#
# Static dielectric constant tensor:
#      x y z
#    x 1.761490 0.000000 0.000000 
#    y 0.000000 1.766750 0.000000 
#    z 0.000000 0.000000 1.763550 
# 
# From -- ./inp_files/8789.got.cif
#   From: 2010.05.17/outbox.cif.g08.bks.cpg/sg40_5_cif.got.tgz:8789.got - 2010.06.03 18:35:42.
