data_PCOD9365442
_publ_section_title
;
Structure prediction by ZEFSAII (Michael W. Deem and Ramdas Pophale) SiO2 
 PCOD9365442
Probable space group: A M A 2
;
_chemical_formula_sum "Si O2"
_cell_formula_units_Z 64
_cell_length_a 24.314066
_cell_length_b 11.716405
_cell_length_c 10.537798
_cell_angle_alpha 90.000000
_cell_angle_beta 90.000000
_cell_angle_gamma 90.000000
_cell_volume 3001.938813
_symmetry_space_group_name_H-M "A M A 2"
_symmetry_group_IT_number 40
_symmetry_cell_setting 'orthorhombic'
loop_
_space_group_symop_operation_xyz
x,y,z
-x,-y,z
1/2-x,y,z
1/2+x,-y,z
x,1/2+y,1/2+z
-x,1/2-y,1/2+z
1/2-x,1/2+y,1/2+z
1/2+x,1/2-y,1/2+z
loop_
_atom_site_type_symbol
_atom_site_label
_atom_site_fract_x
_atom_site_fract_y
_atom_site_fract_z
Si Si1 0.563740 0.982511 0.337340
Si Si2 0.364650 0.328304 0.955675
Si Si3 0.480329 0.611035 0.357084
Si Si4 0.117692 0.727463 0.207460
Si Si5 0.186619 0.413262 0.406261
Si Si6 0.310907 0.019471 0.625443
Si Si7 0.412657 0.759639 0.947514
Si Si8 0.391150 0.082067 0.064311
O O1 0.575280 0.873224 0.425841
O O2 0.597400 0.953645 0.208640
O O3 0.500000 0.000000 0.306547
O O4 0.583136 0.095955 0.411387
O O5 0.344971 0.283553 0.816886
O O6 0.328173 0.419337 0.029937
O O7 0.376084 0.216577 0.041655
O O8 0.500000 0.500000 0.281945
O O9 0.434044 0.676638 0.281010
O O10 0.534737 0.681170 0.385032
O O11 0.447323 0.569710 0.482334
O O12 0.150446 0.628785 0.135421
O O13 0.091589 0.799206 0.094087
O O14 0.250000 0.389127 0.444916
O O15 0.188179 0.468161 0.266991
O O16 0.145743 0.304908 0.395612
O O17 0.156110 0.504716 0.498369
O O18 0.250000 0.058333 0.592212
#
# Coordination Sequence:
#
# PCOD9365442 Si02
#       8
#     8   8   8   8   8   8   8   8
#     4  12  26  44  69 108 152 185 235 304 364 439
#     4  11  24  45  68 107 140 186 242 292 360 442
#     4  11  22  40  67 101 139 186 234 288 362 431
#     4  11  24  45  67 102 146 183 239 295 369 431
#     4  11  24  46  73 102 139 191 248 300 356 432
#     4  11  23  46  72  98 139 187 242 306 362 424
#     4  12  25  44  70 104 146 195 238 302 364 443
#     4  11  23  43  72 102 149 189 236 295 370 427
#
# _framework density 21.319555000000001
#
# number of rings (size 3 to 8) (size 9 to 14) (size 15 to 20)
#    0.000    0.750    5.000    3.375    3.500    2.000 
#    4.500    2.500    0.000    0.000    0.000    0.000 
#    0.000    0.000    0.000    0.000    0.000    0.000 
#
# Total GULP energy -178633.487379 kJ/mol
# GULP energy per Si atom -5582.296481 kJ/mol
# Density = 2.127103 g / cm^3
# Si number density = 21.319555 Si / 1000 Ang^3
#
#
#
# Elastic Constant Matrix: (Units=GPa)
#
#
# Indices 1 2 3 4 5 6 
#
# 1 140.3707 45.0230 37.2033 0.0000 0.0000 0.0000
# 2 45.0230 117.2972 14.9668 0.0000 0.0000 0.0000
# 3 37.2033 14.9668 88.0352 0.0000 0.0000 0.0000
# 4 0.0000 0.0000 0.0000 26.7960 0.0000 0.0000
# 5 0.0000 0.0000 0.0000 0.0000 14.9088 0.0000
# 6 0.0000 0.0000 0.0000 0.0000 0.0000 -25.9929
#
#
#
# Elastic Compliance Matrix: (Units=1/GPa)
#
#
# Indices 1 2 3 4 5 6 
#
# 1 0.008961 -0.003022 -0.003273 0.000000 0.000000 0.000000
# 2 -0.003022 0.009733 -0.000378 0.000000 0.000000 0.000000
# 3 -0.003273 -0.000378 0.012806 0.000000 0.000000 0.000000
# 4 0.000000 0.000000 0.000000 0.037319 0.000000 0.000000
# 5 0.000000 0.000000 0.000000 0.000000 0.067074 0.000000
# 6 0.000000 0.000000 0.000000 0.000000 0.000000 -0.038472
#
#
# Mechanical properties :
#
#
# Convention : Reuss Voigt Hill
#
# Bulk Modulus (GPa) = 55.07998 60.00991 57.54495
# Shear Modulus (GPa) = 42.80119 19.70970 31.25544
#
# Velocity S-wave (km/s) = 4.48549 3.04384 3.83305
# Velocity P-wave (km/s) = 7.26069 6.36885 6.82934
#
# Compressibility (1/GPa) = 0.01815542
#
# Stress axis : x y z
#
# Youngs Moduli (GPa) = 111.59851 102.73864 78.08545
#
# Poissons Ratio (x) = 0.31046 0.25558
# Poissons Ratio (y) = 0.33723 0.02950
# Poissons Ratio (z) = 0.36526 0.03881
#
# Static dielectric constant tensor:
#      x y z
#    x 1.757920 0.000000 0.000000 
#    y 0.000000 1.847970 0.000000 
#    z 0.000000 0.000000 1.797680 
# 
# From -- ./inp_files/14041.got.cif
#   From: 2010.05.17/outbox.cif.g08.bks.cpg/sg40_8_cif.got.tgz:14041.got - 2010.06.03 18:35:42.
