data_PCOD9365289
_publ_section_title
;
Structure prediction by ZEFSAII (Michael W. Deem and Ramdas Pophale) SiO2 
 PCOD9365289
Probable space group: A M A 2
;
_chemical_formula_sum "Si O2"
_cell_formula_units_Z 56
_cell_length_a 14.681072
_cell_length_b 5.414047
_cell_length_c 27.963045
_cell_angle_alpha 90.000000
_cell_angle_beta 90.000000
_cell_angle_gamma 90.000000
_cell_volume 2222.615055
_symmetry_space_group_name_H-M "A M A 2"
_symmetry_group_IT_number 40
_symmetry_cell_setting 'orthorhombic'
loop_
_space_group_symop_operation_xyz
x,y,z
-x,-y,z
1/2-x,y,z
1/2+x,-y,z
x,1/2+y,1/2+z
-x,1/2-y,1/2+z
1/2-x,1/2+y,1/2+z
1/2+x,1/2-y,1/2+z
loop_
_atom_site_type_symbol
_atom_site_label
_atom_site_fract_x
_atom_site_fract_y
_atom_site_fract_z
Si Si1 0.890999 0.461384 0.228310
Si Si2 0.360461 0.589471 0.395817
Si Si3 0.890999 0.961385 0.616023
Si Si4 0.598610 0.612391 0.536278
Si Si5 0.139539 0.089471 0.448516
Si Si6 0.750000 0.781445 0.289253
Si Si7 0.098610 0.387609 0.808055
Si Si8 0.750000 0.781446 0.055081
O O1 0.871843 0.451396 0.172167
O O2 0.830064 0.662488 0.254851
O O3 0.869289 0.207695 0.256025
O O4 0.000000 0.500000 0.234413
O O5 0.250000 0.584550 0.392713
O O6 0.390185 0.330840 0.418248
O O7 0.395197 0.652553 0.342811
O O8 0.390185 0.830840 0.426085
O O9 0.869288 0.707696 0.588308
O O10 0.830064 0.162489 0.589482
O O11 0.000000 0.000000 0.609920
O O12 0.500000 0.500000 0.537520
O O13 0.604803 0.847447 0.501522
O O14 0.671784 0.411809 0.521108
O O15 0.250000 0.084550 0.451620
O O16 0.828216 0.911809 0.323225
O O17 0.000000 0.500000 0.806813
#
# Coordination Sequence:
#
# PCOD9365289 Si02
#       8
#     8   8   8   8   8   4   8   4
#     4  11  26  46  72 107 148 193 250 309 373 450
#     4  10  24  43  72 108 148 195 249 311 379 453
#     4  11  26  46  72 107 148 193 250 309 373 450
#     4  12  26  45  76 107 147 193 249 309 379 457
#     4  10  24  43  72 108 148 195 249 311 379 453
#     4  12  25  46  72 104 144 200 236 310 371 446
#     4  12  26  45  76 107 147 193 249 309 379 457
#     4  12  25  46  72 104 144 200 236 310 371 446
#
# _framework density 25.195547000000001
#
# number of rings (size 3 to 8) (size 9 to 14) (size 15 to 20)
#    0.000    0.857    4.286    1.286    4.000    4.000 
#    0.000    0.000    0.000    0.000    0.000    0.000 
#    0.000    0.000    0.000    0.000    0.000    0.000 
#
# Total GULP energy -156024.707982 kJ/mol
# GULP energy per Si atom -5572.310999 kJ/mol
# Density = 2.513820 g / cm^3
# Si number density = 25.195547 Si / 1000 Ang^3
#
#
#
# Elastic Constant Matrix: (Units=GPa)
#
#
# Indices 1 2 3 4 5 6 
#
# 1 138.8059 31.1996 14.5651 0.0000 0.0000 0.0000
# 2 31.1996 105.0187 38.5142 0.0000 0.0000 0.0000
# 3 14.5651 38.5142 93.4701 0.0000 0.0000 0.0000
# 4 0.0000 0.0000 0.0000 38.2647 0.0000 0.0000
# 5 0.0000 0.0000 0.0000 0.0000 -14.8125 0.0000
# 6 0.0000 0.0000 0.0000 0.0000 0.0000 23.8468
#
#
#
# Elastic Compliance Matrix: (Units=1/GPa)
#
#
# Indices 1 2 3 4 5 6 
#
# 1 0.007727 -0.002184 -0.000304 0.000000 0.000000 0.000000
# 2 -0.002184 0.011835 -0.004536 0.000000 0.000000 0.000000
# 3 -0.000304 -0.004536 0.012615 0.000000 0.000000 0.000000
# 4 0.000000 0.000000 0.000000 0.026134 0.000000 0.000000
# 5 0.000000 0.000000 0.000000 0.000000 -0.067511 0.000000
# 6 0.000000 0.000000 0.000000 0.000000 0.000000 0.041934
#
#
# Mechanical properties :
#
#
# Convention : Reuss Voigt Hill
#
# Bulk Modulus (GPa) = 55.16279 56.20583 55.68431
# Shear Modulus (GPa) = 94.65148 26.32753 60.48951
#
# Velocity S-wave (km/s) = 6.13582 3.23604 4.90511
# Velocity P-wave (km/s) = 8.49348 6.02652 7.36403
#
# Compressibility (1/GPa) = 0.01812816
#
# Stress axis : x y z
#
# Youngs Moduli (GPa) = 129.41402 84.49860 79.27028
#
# Poissons Ratio (x) = 0.18455 0.02411
# Poissons Ratio (y) = 0.28265 0.35957
# Poissons Ratio (z) = 0.03936 0.38329
#
# Static dielectric constant tensor:
#      x y z
#    x 1.928290 0.000000 0.000000 
#    y 0.000000 2.150450 0.000000 
#    z 0.000000 0.000000 1.976180 
# 
# From -- ./inp_files/26621.got.cif
#   From: 2010.05.17/outbox.cif.g08.bks.cpg/sg40_14_cif.got.tgz:26621.got - 2010.06.03 18:35:42.
