data_PCOD9365966
_publ_section_title
;
Structure prediction by ZEFSAII (Michael W. Deem and Ramdas Pophale) SiO2 
 PCOD9365966
Probable space group: A B A 2
;
_chemical_formula_sum "Si O2"
_cell_formula_units_Z 48
_cell_length_a 5.158846
_cell_length_b 18.391222
_cell_length_c 24.200353
_cell_angle_alpha 90.000000
_cell_angle_beta 90.000000
_cell_angle_gamma 90.000000
_cell_volume 2296.068557
_symmetry_space_group_name_H-M "A B A 2"
_symmetry_group_IT_number 41
_symmetry_cell_setting 'orthorhombic'
loop_
_space_group_symop_operation_xyz
x,y,z
-x,-y,z
1/2-x,y,1/2+z
1/2+x,-y,1/2+z
x,1/2+y,1/2+z
-x,1/2-y,1/2+z
1/2-x,1/2+y,z
1/2+x,1/2-y,z
loop_
_atom_site_type_symbol
_atom_site_label
_atom_site_fract_x
_atom_site_fract_y
_atom_site_fract_z
Si Si1 0.335763 0.293950 0.137270
Si Si2 0.260371 0.859440 0.256719
Si Si3 0.742726 0.138065 0.019856
Si Si4 0.724947 0.853580 0.451001
Si Si5 0.000000 0.000000 0.791961
Si Si6 0.257355 0.644878 0.825805
Si Si7 0.000000 0.000000 0.981849
O O1 0.639507 0.274557 0.135575
O O2 0.277245 0.332092 0.195221
O O3 0.258451 0.337619 0.082602
O O4 0.321283 0.945873 0.256779
O O5 0.509679 0.824669 0.287705
O O6 0.011962 0.846895 0.294749
O O7 0.477021 0.153987 0.988591
O O8 0.810515 0.052225 0.016265
O O9 0.974469 0.175007 0.984147
O O10 0.748011 0.827008 0.388354
O O11 0.663561 0.940646 0.448383
O O12 0.830851 0.941710 0.825829
#
# Coordination Sequence:
#
# PCOD9365966 Si02
#       7
#     8   8   8   8   4   8   4
#     4  12  26  48  68  78 114 170 220 258 290 350
#     4  10  22  38  59  94 117 162 201 248 300 356
#     4  10  22  38  59  94 117 162 201 248 300 356
#     4  10  19  35  60  96 132 156 185 234 311 382
#     4   8  21  34  58  98 130 156 185 240 310 368
#     4  10  19  35  60  96 132 156 185 234 311 382
#     4   8  21  34  58  98 130 156 185 240 310 368
#
# _framework density 20.905297999999998
#
# number of rings (size 3 to 8) (size 9 to 14) (size 15 to 20)
#    2.000    0.000    0.000    4.500    0.000    1.333 
#    6.000    0.000    0.000   20.000    0.000    0.000 
#    0.000    0.000    0.000    0.000    0.000    0.000 
#
# Total GULP energy -133801.335975 kJ/mol
# GULP energy per Si atom -5575.055666 kJ/mol
# Density = 2.085772 g / cm^3
# Si number density = 20.905298 Si / 1000 Ang^3
#
#
#
# Elastic Constant Matrix: (Units=GPa)
#
#
# Indices 1 2 3 4 5 6 
#
# 1 125.0819 -4.4687 31.4995 0.0000 0.0000 0.0000
# 2 -4.4687 58.5056 11.5596 0.0000 0.0000 0.0000
# 3 31.4995 11.5596 162.5536 0.0000 0.0000 0.0000
# 4 0.0000 0.0000 0.0000 465.7572 0.0000 0.0000
# 5 0.0000 0.0000 0.0000 0.0000 21.6844 0.0000
# 6 0.0000 0.0000 0.0000 0.0000 0.0000 -5.9555
#
#
#
# Elastic Compliance Matrix: (Units=1/GPa)
#
#
# Indices 1 2 3 4 5 6 
#
# 1 0.008460 0.000984 -0.001709 0.000000 0.000000 0.000000
# 2 0.000984 0.017450 -0.001432 0.000000 0.000000 0.000000
# 3 -0.001709 -0.001432 0.006585 0.000000 0.000000 0.000000
# 4 0.000000 0.000000 0.000000 0.002147 0.000000 0.000000
# 5 0.000000 0.000000 0.000000 0.000000 0.046116 0.000000
# 6 0.000000 0.000000 0.000000 0.000000 0.000000 -0.167912
#
#
# Mechanical properties :
#
#
# Convention : Reuss Voigt Hill
#
# Bulk Modulus (GPa) = 35.48426 47.03577 41.26001
# Shear Modulus (GPa) = -68.07756 116.80061 24.36153
#
# Velocity S-wave (km/s) = -5.71274 7.48282 3.41739
# Velocity P-wave (km/s) = 5.14813 9.85926 5.94566
#
# Compressibility (1/GPa) = 0.02818151
#
# Stress axis : x y z
#
# Youngs Moduli (GPa) = 118.19769 57.30533 151.86323
#
# Poissons Ratio (x) = -0.05639 0.25960
# Poissons Ratio (y) = -0.11630 0.21741
# Poissons Ratio (z) = 0.20205 0.08204
#
# Static dielectric constant tensor:
#      x y z
#    x 1.749080 0.000000 0.000000 
#    y 0.000000 1.773990 0.000000 
#    z 0.000000 0.000000 1.698560 
# 
# From -- ./inp_files/11853.got.cif
#   From: 2010.05.17/outbox.cif.g08.bks.cpg/sg41_6_cif.got.tgz:11853.got - 2010.06.03 18:54:24.
