data_PCOD9365758
_publ_section_title
;
Structure prediction by ZEFSAII (Michael W. Deem and Ramdas Pophale) SiO2 
 PCOD9365758
Probable space group: A B A 2
;
_chemical_formula_sum "Si O2"
_cell_formula_units_Z 40
_cell_length_a 14.367126
_cell_length_b 8.775549
_cell_length_c 12.413209
_cell_angle_alpha 90.000000
_cell_angle_beta 90.000000
_cell_angle_gamma 90.000000
_cell_volume 1565.050169
_symmetry_space_group_name_H-M "A B A 2"
_symmetry_group_IT_number 41
_symmetry_cell_setting 'orthorhombic'
loop_
_space_group_symop_operation_xyz
x,y,z
-x,-y,z
1/2-x,y,1/2+z
1/2+x,-y,1/2+z
x,1/2+y,1/2+z
-x,1/2-y,1/2+z
1/2-x,1/2+y,z
1/2+x,1/2-y,z
loop_
_atom_site_type_symbol
_atom_site_label
_atom_site_fract_x
_atom_site_fract_y
_atom_site_fract_z
Si Si1 0.127716 0.451306 0.425510
Si Si2 0.328405 0.907246 0.855176
Si Si3 0.385133 0.420435 0.668971
Si Si4 0.975984 0.741514 0.997245
Si Si5 0.247485 0.656214 0.704103
O O1 0.238890 0.444378 0.429289
O O2 0.103230 0.441803 0.297346
O O3 0.083796 0.600572 0.481806
O O4 0.078427 0.300736 0.471460
O O5 0.423286 0.876088 0.917475
O O6 0.301486 0.749917 0.796365
O O7 0.322152 0.037023 0.763275
O O8 0.473220 0.348139 0.610207
O O9 0.324608 0.566615 0.637598
O O10 0.312905 0.282263 0.646849
#
# Coordination Sequence:
#
# PCOD9365758 Si02
#       5
#     8   8   8   8   8
#     4   9  22  42  57  95 129 162 218 262 321 381
#     4  10  17  39  64  84 127 170 192 271 321 370
#     4  10  20  38  64  95 123 166 217 259 321 393
#     4  11  21  38  69  86 127 179 201 267 329 377
#     4   8  18  35  60  91 125 159 208 261 314 375
#
# _framework density 25.558285000000001
#
# number of rings (size 3 to 8) (size 9 to 14) (size 15 to 20)
#    0.000    2.800    4.000    0.000    2.800    0.000 
#    7.200    3.000   17.600    0.000    0.000    0.000 
#    0.000    0.000    0.000    0.000    0.000    0.000 
#
# Total GULP energy -111740.675932 kJ/mol
# GULP energy per Si atom -5587.033797 kJ/mol
# Density = 2.550011 g / cm^3
# Si number density = 25.558285 Si / 1000 Ang^3
#
#
#
# Elastic Constant Matrix: (Units=GPa)
#
#
# Indices 1 2 3 4 5 6 
#
# 1 81.9923 41.7629 -3.4517 0.0000 0.0000 0.0000
# 2 41.7629 134.5901 27.8083 0.0000 0.0000 0.0000
# 3 -3.4517 27.8083 80.6472 0.0000 0.0000 0.0000
# 4 0.0000 0.0000 0.0000 34.9385 0.0000 0.0000
# 5 0.0000 0.0000 0.0000 0.0000 -157.1882 0.0000
# 6 0.0000 0.0000 0.0000 0.0000 0.0000 47.9359
#
#
#
# Elastic Compliance Matrix: (Units=1/GPa)
#
#
# Indices 1 2 3 4 5 6 
#
# 1 0.014906 -0.005122 0.002404 0.000000 0.000000 0.000000
# 2 -0.005122 0.009760 -0.003585 0.000000 0.000000 0.000000
# 3 0.002404 -0.003585 0.013739 0.000000 0.000000 0.000000
# 4 0.000000 0.000000 0.000000 0.028622 0.000000 0.000000
# 5 0.000000 0.000000 0.000000 0.000000 -0.006362 0.000000
# 6 0.000000 0.000000 0.000000 0.000000 0.000000 0.020861
#
#
# Mechanical properties :
#
#
# Convention : Reuss Voigt Hill
#
# Bulk Modulus (GPa) = 38.75985 47.71872 43.23929
# Shear Modulus (GPa) = 48.67063 0.54458 24.60761
#
# Velocity S-wave (km/s) = 4.36856 0.46210 3.10627
# Velocity P-wave (km/s) = 6.37526 4.35842 5.46076
#
# Compressibility (1/GPa) = 0.02579989
#
# Stress axis : x y z
#
# Youngs Moduli (GPa) = 67.08497 102.45913 72.78758
#
# Poissons Ratio (x) = 0.52481 -0.17500
# Poissons Ratio (y) = 0.34362 0.26091
# Poissons Ratio (z) = -0.16129 0.36728
#
# Static dielectric constant tensor:
#      x y z
#    x 3.552940 0.000000 0.000000 
#    y 0.000000 2.007230 0.000000 
#    z 0.000000 0.000000 2.050260 
# 
# From -- ./inp_files/8653.got.cif
#   From: 2010.05.17/outbox.cif.g08.bks.cpg/sg41_5_cif.got.tgz:8653.got - 2010.06.03 18:54:24.
