data_PCOD9365674
_publ_section_title
;
Structure prediction by ZEFSAII (Michael W. Deem and Ramdas Pophale) SiO2 
 PCOD9365674
Probable space group: A M A 2
;
_chemical_formula_sum "Si O2"
_cell_formula_units_Z 28
_cell_length_a 30.000000
_cell_length_b 15.000000
_cell_length_c 6.000000
_cell_angle_alpha 90.000000
_cell_angle_beta 90.000000
_cell_angle_gamma 90.000000
_cell_volume 2700.000000
_symmetry_space_group_name_H-M "A M A 2"
_symmetry_group_IT_number 40
_symmetry_cell_setting 'orthorhombic'
loop_
_space_group_symop_operation_xyz
x,y,z
-x,-y,z
1/2-x,y,z
1/2+x,-y,z
x,1/2+y,1/2+z
-x,1/2-y,1/2+z
1/2-x,1/2+y,1/2+z
1/2+x,1/2-y,1/2+z
loop_
_atom_site_type_symbol
_atom_site_label
_atom_site_fract_x
_atom_site_fract_y
_atom_site_fract_z
Si Si1 0.885008 0.110284 0.640750
Si Si2 0.493321 0.108598 0.105240
Si Si3 0.802023 0.643119 0.473017
Si Si4 0.154499 0.500460 0.770213
Si Si5 0.058890 0.754768 0.864715
Si Si6 0.404853 0.569229 0.388105
Si Si7 0.150711 0.674997 0.063600
O O1 0.920452 0.189688 0.655744
O O2 0.867120 0.081329 0.404504
O O3 0.906464 0.019193 0.737174
O O4 0.840297 0.131188 0.784118
O O5 0.473288 0.172244 0.301189
O O6 0.500000 0.000000 0.150748
O O7 0.534716 0.167392 0.010359
O O8 0.453612 0.109400 0.920637
O O9 0.750000 0.646234 0.403351
O O10 0.809117 0.553523 0.624128
O O11 0.815700 0.740866 0.574199
O O12 0.114125 0.537163 0.622506
O O13 0.167433 0.587419 0.920898
O O14 0.103679 0.712790 0.968952
O O15 0.366376 0.633894 0.295458
#
# Coordination Sequence:
#
# PCOD9365674 Si02
#       7
#     8   8   8   8   8   8   8
#     4   9  21  41  66  88 125 169 213 260 328 398
#     4  12  24  39  60  93 135 167 226 281 312 380
#     4  10  23  40  64  97 125 157 212 272 326 396
#     4  10  21  40  66  91 119 174 208 257 328 393
#     4  11  23  40  59  93 127 178 220 268 331 384
#     4  10  20  41  62  87 127 166 218 261 319 385
#     4  10  22  40  64  90 126 170 211 264 329 400
#
# _framework density 10.370369999999999
#
# number of rings (size 3 to 8) (size 9 to 14) (size 15 to 20)
#    0.000    1.714    2.857    0.857    2.000    2.286 
#    0.000    5.714    0.000    0.000    0.000    0.000 
#    0.000    0.000    0.000    0.000    0.000    0.000 
#
# Total GULP energy -156055.508003 kJ/mol
# GULP energy per Si atom -5573.411000 kJ/mol
# Density = 1.034677 g / cm^3
# Si number density = 10.370370 Si / 1000 Ang^3
#
#
#
# Elastic Constant Matrix: (Units=GPa)
#
#
# Indices 1 2 3 4 5 6 
#
# 1 77.2358 36.3380 8.0108 0.0000 0.0000 0.0000
# 2 36.3380 134.1156 14.3019 0.0000 0.0000 0.0000
# 3 8.0108 14.3019 34.2858 0.0000 0.0000 0.0000
# 4 0.0000 0.0000 0.0000 32.2643 0.0000 0.0000
# 5 0.0000 0.0000 0.0000 0.0000 7.7386 0.0000
# 6 0.0000 0.0000 0.0000 0.0000 0.0000 40.7962
#
#
#
# Elastic Compliance Matrix: (Units=1/GPa)
#
#
# Indices 1 2 3 4 5 6 
#
# 1 0.014955 -0.003851 -0.001888 0.000000 0.000000 0.000000
# 2 -0.003851 0.008795 -0.002769 0.000000 0.000000 0.000000
# 3 -0.001888 -0.002769 0.030763 0.000000 0.000000 0.000000
# 4 0.000000 0.000000 0.000000 0.030994 0.000000 0.000000
# 5 0.000000 0.000000 0.000000 0.000000 0.129223 0.000000
# 6 0.000000 0.000000 0.000000 0.000000 0.000000 0.024512
#
#
# Mechanical properties :
#
#
# Convention : Reuss Voigt Hill
#
# Bulk Modulus (GPa) = 26.66853 40.32650 33.49751
# Shear Modulus (GPa) = 18.60429 28.62559 23.61494
#
# Velocity S-wave (km/s) = 2.99823 3.71908 3.37794
# Velocity P-wave (km/s) = 4.98717 6.15853 5.60354
#
# Compressibility (1/GPa) = 0.03749739
#
# Stress axis : x y z
#
# Youngs Moduli (GPa) = 66.86811 113.70305 32.50686
#
# Poissons Ratio (x) = 0.43783 0.06137
# Poissons Ratio (y) = 0.25748 0.09001
# Poissons Ratio (z) = 0.12624 0.31484
#
# Static dielectric constant tensor:
#      x y z
#    x 1.716090 0.000000 0.000000 
#    y 0.000000 1.778150 0.000000 
#    z 0.000000 0.000000 1.854880 
# 
# From -- ./inp_files/3409.got.cif
#   From: 2010.05.17/outbox.ucp.g08.bks.cvg/sg40_2_cif.got.tgz:3409.got - 2010.06.11 16:26:39.
