data_PCOD9365682
_publ_section_title
;
Structure prediction by ZEFSAII (Michael W. Deem and Ramdas Pophale) SiO2 
 PCOD9365682
Probable space group: A M A 2
;
_chemical_formula_sum "Si O2"
_cell_formula_units_Z 32
_cell_length_a 9.000000
_cell_length_b 30.000000
_cell_length_c 12.000000
_cell_angle_alpha 90.000000
_cell_angle_beta 90.000000
_cell_angle_gamma 90.000000
_cell_volume 3240.000000
_symmetry_space_group_name_H-M "A M A 2"
_symmetry_group_IT_number 40
_symmetry_cell_setting 'orthorhombic'
loop_
_space_group_symop_operation_xyz
x,y,z
-x,-y,z
1/2-x,y,z
1/2+x,-y,z
x,1/2+y,1/2+z
-x,1/2-y,1/2+z
1/2-x,1/2+y,1/2+z
1/2+x,1/2-y,1/2+z
loop_
_atom_site_type_symbol
_atom_site_label
_atom_site_fract_x
_atom_site_fract_y
_atom_site_fract_z
Si Si1 0.081392 0.704319 0.668560
Si Si2 0.569386 0.869554 0.761096
Si Si3 0.925821 0.456269 0.128950
Si Si4 0.420580 0.328666 0.883717
Si Si5 0.426636 0.455085 0.651763
Si Si6 0.074220 0.208745 0.599348
Si Si7 0.078322 0.620624 0.511099
Si Si8 0.578815 0.565291 0.904520
O O1 0.250000 0.721629 0.679668
O O2 0.079587 0.667809 0.571994
O O3 0.027684 0.681109 0.781077
O O4 0.966315 0.742557 0.639575
O O5 0.750000 0.869489 0.764033
O O6 0.520505 0.912125 0.690917
O O7 0.526427 0.825328 0.696098
O O8 0.518325 0.873418 0.887087
O O9 0.750000 0.459075 0.137987
O O10 0.000000 0.500000 0.178405
O O11 0.973911 0.452141 0.000931
O O12 0.250000 0.316158 0.858230
O O13 0.423396 0.381192 0.908228
O O14 0.481892 0.302650 0.989694
O O15 0.500000 0.500000 0.608165
O O16 0.250000 0.457800 0.647683
O O17 0.483648 0.413500 0.582390
O O18 0.469507 0.448759 0.781310
O O19 0.250000 0.203098 0.578400
O O20 0.250000 0.604559 0.506578
O O21 0.750000 0.550650 0.923316
#
# Coordination Sequence:
#
# PCOD9365682 Si02
#       8
#     8   8   8   8   8   8   8   8
#     4  11  24  40  63  95 126 163 208 254 310 372
#     4   9  21  41  62  86 119 161 202 249 304 358
#     4  11  22  38  61  88 121 157 202 249 304 366
#     4  11  22  40  65  92 127 163 203 258 309 362
#     4  11  23  40  61  90 122 157 201 249 306 363
#     4  11  23  41  65  93 126 164 207 255 309 368
#     4  10  22  42  64  86 120 161 204 251 303 362
#     4  10  21  38  61  90 123 157 199 250 305 358
#
# _framework density 9.8765429999999999
#
# number of rings (size 3 to 8) (size 9 to 14) (size 15 to 20)
#    0.000    1.500    2.500    2.250    1.750    3.500 
#    0.000    3.750    0.000    0.000    0.000    0.000 
#    0.000    0.000    0.000    0.000    0.000    0.000 
#
# Total GULP energy -178727.316006 kJ/mol
# GULP energy per Si atom -5585.228625 kJ/mol
# Density = 0.985406 g / cm^3
# Si number density = 9.876543 Si / 1000 Ang^3
#
#
#
# Elastic Constant Matrix: (Units=GPa)
#
#
# Indices 1 2 3 4 5 6 
#
# 1 26.8313 13.0397 22.1880 0.0000 0.0000 0.0000
# 2 13.0397 75.9760 22.1150 0.0000 0.0000 0.0000
# 3 22.1880 22.1150 88.4294 0.0000 0.0000 0.0000
# 4 0.0000 0.0000 0.0000 -0.0180 0.0000 0.0000
# 5 0.0000 0.0000 0.0000 0.0000 12.9401 0.0000
# 6 0.0000 0.0000 0.0000 0.0000 0.0000 29.2013
#
#
#
# Elastic Compliance Matrix: (Units=1/GPa)
#
#
# Indices 1 2 3 4 5 6 
#
# 1 0.048858 -0.005195 -0.010960 0.000000 0.000000 0.000000
# 2 -0.005195 0.014748 -0.002385 0.000000 0.000000 0.000000
# 3 -0.010960 -0.002385 0.014655 0.000000 0.000000 0.000000
# 4 0.000000 0.000000 0.000000-55.621825 0.000000 0.000000
# 5 0.000000 0.000000 0.000000 0.000000 0.077279 0.000000
# 6 0.000000 0.000000 0.000000 0.000000 0.000000 0.034245
#
#
# Mechanical properties :
#
#
# Convention : Reuss Voigt Hill
#
# Bulk Modulus (GPa) = 24.28298 33.99133 29.13715
# Shear Modulus (GPa) = -0.09028 17.35096 8.63034
#
# Velocity S-wave (km/s) = -0.21402 2.96698 2.09251
# Velocity P-wave (km/s) = 3.50127 5.38357 4.54102
#
# Compressibility (1/GPa) = 0.04118111
#
# Stress axis : x y z
#
# Youngs Moduli (GPa) = 20.46750 67.80655 68.23723
#
# Poissons Ratio (x) = 0.35227 0.74786
# Poissons Ratio (y) = 0.10633 0.16272
# Poissons Ratio (z) = 0.22432 0.16170
#
# Static dielectric constant tensor:
#      x y z
#    x 1.665030 0.000000 0.000000 
#    y 0.000000 1.705940 0.000000 
#    z 0.000000 0.000000 1.671450 
# 
# From -- ./inp_files/10553.got.cif
#   From: 2010.05.17/outbox.ucp.g08.bks.cvg/sg40_6_cif.got.tgz:10553.got - 2010.06.11 16:26:39.
