data_PCOD9365567
_publ_section_title
;
Structure prediction by ZEFSAII (Michael W. Deem and Ramdas Pophale) SiO2 
 PCOD9365567
Probable space group: A M A 2
;
_chemical_formula_sum "Si O2"
_cell_formula_units_Z 32
_cell_length_a 17.636168
_cell_length_b 16.780589
_cell_length_c 4.742801
_cell_angle_alpha 90.000000
_cell_angle_beta 90.000000
_cell_angle_gamma 90.000000
_cell_volume 1403.609602
_symmetry_space_group_name_H-M "A M A 2"
_symmetry_group_IT_number 40
_symmetry_cell_setting 'orthorhombic'
loop_
_space_group_symop_operation_xyz
x,y,z
-x,-y,z
1/2-x,y,z
1/2+x,-y,z
x,1/2+y,1/2+z
-x,1/2-y,1/2+z
1/2-x,1/2+y,1/2+z
1/2+x,1/2-y,1/2+z
loop_
_atom_site_type_symbol
_atom_site_label
_atom_site_fract_x
_atom_site_fract_y
_atom_site_fract_z
Si Si1 0.568070 0.347063 0.290570
Si Si2 0.096942 0.299725 0.141644
Si Si3 0.838971 0.608083 0.648036
Si Si4 0.927267 0.455947 0.795585
O O1 0.494121 0.308769 0.143537
O O2 0.613822 0.282109 0.475282
O O3 0.539528 0.404432 0.539217
O O4 0.606172 0.398851 0.040658
O O5 0.124526 0.322550 0.453082
O O6 0.138672 0.366933 0.962561
O O7 0.750000 0.607158 0.598293
O O8 0.872556 0.518930 0.642244
O O9 0.000000 0.500000 0.929734
#
# Coordination Sequence:
#
# PCOD9365567 Si02
#       4
#     8   8   8   8
#     4  12  23  40  70 103 131 168 233 300 344 391
#     4  12  23  43  67 102 136 175 232 292 349 417
#     4  12  26  44  66  96 141 191 229 277 358 437
#     4  12  22  42  68 102 135 173 231 297 347 402
#
# _framework density 22.798361
#
# number of rings (size 3 to 8) (size 9 to 14) (size 15 to 20)
#    0.000    0.000    5.000    7.500    0.000    0.000 
#    0.000    7.500    0.000    0.000    0.000    0.000 
#    0.000    0.000    0.000    0.000    0.000    0.000 
#
# Total GULP energy -89301.777649 kJ/mol
# GULP energy per Si atom -5581.361103 kJ/mol
# Density = 2.274647 g / cm^3
# Si number density = 22.798361 Si / 1000 Ang^3
#
#
#
# Elastic Constant Matrix: (Units=GPa)
#
#
# Indices 1 2 3 4 5 6 
#
# 1 79.6870 30.3842 -1.9266 0.0000 0.0000 0.0000
# 2 30.3842 97.5222 37.0128 0.0000 0.0000 0.0000
# 3 -1.9266 37.0128 105.6341 0.0000 0.0000 0.0000
# 4 0.0000 0.0000 0.0000 61.4459 0.0000 0.0000
# 5 0.0000 0.0000 0.0000 0.0000 12.4315 0.0000
# 6 0.0000 0.0000 0.0000 0.0000 0.0000 14.4036
#
#
#
# Elastic Compliance Matrix: (Units=1/GPa)
#
#
# Indices 1 2 3 4 5 6 
#
# 1 0.014654 -0.005383 0.002153 0.000000 0.000000 0.000000
# 2 -0.005383 0.013804 -0.004935 0.000000 0.000000 0.000000
# 3 0.002153 -0.004935 0.011235 0.000000 0.000000 0.000000
# 4 0.000000 0.000000 0.000000 0.016274 0.000000 0.000000
# 5 0.000000 0.000000 0.000000 0.000000 0.080441 0.000000
# 6 0.000000 0.000000 0.000000 0.000000 0.000000 0.069427
#
#
# Mechanical properties :
#
#
# Convention : Reuss Voigt Hill
#
# Bulk Modulus (GPa) = 42.80097 45.97600 44.38848
# Shear Modulus (GPa) = 21.74365 32.14771 26.94568
#
# Velocity S-wave (km/s) = 3.09161 3.75919 3.44163
# Velocity P-wave (km/s) = 5.61770 6.24917 5.94183
#
# Compressibility (1/GPa) = 0.02336396
#
# Stress axis : x y z
#
# Youngs Moduli (GPa) = 68.24270 72.44218 89.00713
#
# Poissons Ratio (x) = 0.38994 -0.19166
# Poissons Ratio (y) = 0.36733 0.43925
# Poissons Ratio (z) = -0.14695 0.35750
#
# Static dielectric constant tensor:
#      x y z
#    x 1.770100 0.000000 0.000000 
#    y 0.000000 2.020180 0.000000 
#    z 0.000000 0.000000 1.835000 
# 
# From -- ./inp_files/1675.got.cif
#   From: 2010.05.17/outbox.cif.g08.bks.cpg/sg40_1_cif.got.tgz:1675.got - 2010.06.03 18:35:42.
