data_PCOD9365103
_publ_section_title
;
Structure prediction by ZEFSAII (Michael W. Deem and Ramdas Pophale) SiO2 
 PCOD9365103
Probable space group: A M A 2
;
_chemical_formula_sum "Si O2"
_cell_formula_units_Z 36
_cell_length_a 14.198081
_cell_length_b 9.346328
_cell_length_c 11.344057
_cell_angle_alpha 90.000000
_cell_angle_beta 90.000000
_cell_angle_gamma 90.000000
_cell_volume 1505.355479
_symmetry_space_group_name_H-M "A M A 2"
_symmetry_group_IT_number 40
_symmetry_cell_setting 'orthorhombic'
loop_
_space_group_symop_operation_xyz
x,y,z
-x,-y,z
1/2-x,y,z
1/2+x,-y,z
x,1/2+y,1/2+z
-x,1/2-y,1/2+z
1/2-x,1/2+y,1/2+z
1/2+x,1/2-y,1/2+z
loop_
_atom_site_type_symbol
_atom_site_label
_atom_site_fract_x
_atom_site_fract_y
_atom_site_fract_z
Si Si1 0.250000 0.700901 0.965971
Si Si2 0.750000 0.626055 0.957939
Si Si3 0.431652 0.878212 0.614232
Si Si4 0.750000 0.220272 0.217857
Si Si5 0.438801 0.868445 0.883084
Si Si6 0.956662 0.650949 0.735266
O O1 0.250000 0.540640 0.910615
O O2 0.344630 0.792602 0.935143
O O3 0.250000 0.672781 0.107913
O O4 0.750000 0.748576 0.857470
O O5 0.659073 0.640755 0.037658
O O6 0.406891 0.921298 0.750297
O O7 0.515878 0.748148 0.847331
O O8 0.500000 0.000000 0.566118
O O9 0.847675 0.137443 0.207095
O O10 0.500000 0.000000 0.936222
O O11 0.507762 0.765039 0.129754
O O12 0.000000 0.500000 0.755220
#
# Coordination Sequence:
#
# PCOD9365103 Si02
#       6
#     4   4   8   4   8   8
#     4  12  25  44  76 104 152 193 249 316 380 453
#     4  12  25  44  78 104 146 201 255 304 378 463
#     4   9  21  44  74 102 136 191 246 302 376 449
#     4  12  28  40  64 112 138 186 248 298 368 462
#     4   9  22  45  74 104 139 192 241 309 379 440
#     4  10  22  43  70 102 147 182 247 307 371 446
#
# _framework density 23.914618000000001
#
# number of rings (size 3 to 8) (size 9 to 14) (size 15 to 20)
#    1.333    0.444    0.000    3.333    0.000    7.111 
#    0.000    2.222    0.000    0.000    0.000    0.000 
#    0.000    0.000    0.000    0.000    0.000    0.000 
#
# Total GULP energy -100466.814898 kJ/mol
# GULP energy per Si atom -5581.489717 kJ/mol
# Density = 2.386019 g / cm^3
# Si number density = 23.914618 Si / 1000 Ang^3
#
#
#
# Elastic Constant Matrix: (Units=GPa)
#
#
# Indices 1 2 3 4 5 6 
#
# 1 194.9738 61.8365 49.8973 0.0000 0.0000 0.0000
# 2 61.8365 141.4379 17.7202 0.0000 0.0000 0.0000
# 3 49.8973 17.7202 101.1093 0.0000 0.0000 0.0000
# 4 0.0000 0.0000 0.0000 32.7982 0.0000 0.0000
# 5 0.0000 0.0000 0.0000 0.0000 42.7678 0.0000
# 6 0.0000 0.0000 0.0000 0.0000 0.0000 17.2449
#
#
#
# Elastic Compliance Matrix: (Units=1/GPa)
#
#
# Indices 1 2 3 4 5 6 
#
# 1 0.006668 -0.002559 -0.002842 0.000000 0.000000 0.000000
# 2 -0.002559 0.008211 -0.000176 0.000000 0.000000 0.000000
# 3 -0.002842 -0.000176 0.011324 0.000000 0.000000 0.000000
# 4 0.000000 0.000000 0.000000 0.030490 0.000000 0.000000
# 5 0.000000 0.000000 0.000000 0.000000 0.023382 0.000000
# 6 0.000000 0.000000 0.000000 0.000000 0.000000 0.057988
#
#
# Mechanical properties :
#
#
# Convention : Reuss Voigt Hill
#
# Bulk Modulus (GPa) = 66.45376 77.38100 71.91738
# Shear Modulus (GPa) = 32.41847 39.09999 35.75923
#
# Velocity S-wave (km/s) = 3.68583 4.04788 3.87109
# Velocity P-wave (km/s) = 6.77953 7.36713 7.07943
#
# Compressibility (1/GPa) = 0.01504806
#
# Stress axis : x y z
#
# Youngs Moduli (GPa) = 149.97315 121.78560 88.31025
#
# Poissons Ratio (x) = 0.31166 0.25098
# Poissons Ratio (y) = 0.38380 0.01556
# Poissons Ratio (z) = 0.42623 0.02145
#
# Static dielectric constant tensor:
#      x y z
#    x 1.848690 0.000000 0.000000 
#    y 0.000000 1.891960 0.000000 
#    z 0.000000 0.000000 2.101520 
# 
# From -- ./inp_files/10960.got.cif
#   From: 2010.05.17/outbox.cif.g08.bks.cpg/sg40_6_cif.got.tgz:10960.got - 2010.06.03 18:35:42.
