data_PCOD9365518
_publ_section_title
;
Structure prediction by ZEFSAII (Michael W. Deem and Ramdas Pophale) SiO2 
 PCOD9365518
Probable space group: A M A 2
;
_chemical_formula_sum "Si O2"
_cell_formula_units_Z 56
_cell_length_a 29.943455
_cell_length_b 13.513927
_cell_length_c 5.533101
_cell_angle_alpha 90.000000
_cell_angle_beta 90.000000
_cell_angle_gamma 90.000000
_cell_volume 2238.989598
_symmetry_space_group_name_H-M "A M A 2"
_symmetry_group_IT_number 40
_symmetry_cell_setting 'orthorhombic'
loop_
_space_group_symop_operation_xyz
x,y,z
-x,-y,z
1/2-x,y,z
1/2+x,-y,z
x,1/2+y,1/2+z
-x,1/2-y,1/2+z
1/2-x,1/2+y,1/2+z
1/2+x,1/2-y,1/2+z
loop_
_atom_site_type_symbol
_atom_site_label
_atom_site_fract_x
_atom_site_fract_y
_atom_site_fract_z
Si Si1 0.701766 0.142273 0.462910
Si Si2 0.798433 0.853105 0.692699
Si Si3 0.177213 0.980294 0.053628
Si Si4 0.525473 0.132882 0.978260
Si Si5 0.879823 0.652827 0.274248
Si Si6 0.521739 0.872016 0.484191
Si Si7 0.618412 0.876933 0.333030
O O1 0.750000 0.142624 0.604808
O O2 0.699102 0.254449 0.359037
O O3 0.706300 0.053006 0.275576
O O4 0.650821 0.119042 0.552097
O O5 0.750000 0.846274 0.565315
O O6 0.841413 0.860912 0.522178
O O7 0.799523 0.952582 0.853656
O O8 0.136312 0.048929 0.134822
O O9 0.157671 0.874664 0.970278
O O10 0.574875 0.106993 0.878991
O O11 0.494045 0.102457 0.754402
O O12 0.524246 0.252516 0.987499
O O13 0.509556 0.103201 0.249606
O O14 0.889766 0.767382 0.228300
O O15 0.571655 0.911347 0.442316
#
# Coordination Sequence:
#
# PCOD9365518 Si02
#       7
#     8   8   8   8   8   8   8
#     4  11  25  45  72 105 142 190 243 298 363 435
#     4  11  25  45  72 105 142 190 243 298 363 435
#     4  12  25  44  71 102 140 192 234 301 361 434
#     4   9  20  38  69 104 139 188 242 299 369 436
#     4  11  24  43  72 102 142 186 242 299 362 436
#     4   9  20  38  69 104 139 188 242 299 369 436
#     4  11  24  43  72 102 142 186 242 299 362 436
#
# _framework density 25.011284
#
# number of rings (size 3 to 8) (size 9 to 14) (size 15 to 20)
#    0.000    1.429    2.857    1.286    4.000    5.143 
#    0.000    0.714    0.000    0.000    0.000    0.000 
#    0.000    0.000    0.000    0.000    0.000    0.000 
#
# Total GULP energy -156127.423939 kJ/mol
# GULP energy per Si atom -5575.979426 kJ/mol
# Density = 2.495436 g / cm^3
# Si number density = 25.011284 Si / 1000 Ang^3
#
#
#
# Elastic Constant Matrix: (Units=GPa)
#
#
# Indices 1 2 3 4 5 6 
#
# 1 88.0181 -17.7361 -17.0548 0.0000 0.0000 0.0000
# 2 -17.7361 91.3409 -18.1802 0.0000 0.0000 0.0000
# 3 -17.0548 -18.1802 36.4699 0.0000 0.0000 0.0000
# 4 0.0000 0.0000 0.0000 11.5328 0.0000 0.0000
# 5 0.0000 0.0000 0.0000 0.0000 44.1651 0.0000
# 6 0.0000 0.0000 0.0000 0.0000 0.0000 151.3901
#
#
#
# Elastic Compliance Matrix: (Units=1/GPa)
#
#
# Indices 1 2 3 4 5 6 
#
# 1 0.013952 0.004449 0.008742 0.000000 0.000000 0.000000
# 2 0.004449 0.013573 0.008847 0.000000 0.000000 0.000000
# 3 0.008742 0.008847 0.035918 0.000000 0.000000 0.000000
# 4 0.000000 0.000000 0.000000 0.086709 0.000000 0.000000
# 5 0.000000 0.000000 0.000000 0.000000 0.022642 0.000000
# 6 0.000000 0.000000 0.000000 0.000000 0.000000 0.006605
#
#
# Mechanical properties :
#
#
# Convention : Reuss Voigt Hill
#
# Bulk Modulus (GPa) = 9.30073 12.20964 10.75519
# Shear Modulus (GPa) = 29.21195 59.33760 44.27477
#
# Velocity S-wave (km/s) = 3.42124 4.87605 4.21193
# Velocity P-wave (km/s) = 4.39695 6.04924 5.28803
#
# Compressibility (1/GPa) = 0.10751839
#
# Stress axis : x y z
#
# Youngs Moduli (GPa) = 71.67553 73.67738 27.84112
#
# Poissons Ratio (x) = -0.32780 -0.24339
# Poissons Ratio (y) = -0.31889 -0.24630
# Poissons Ratio (z) = -0.62661 -0.65179
#
# Static dielectric constant tensor:
#      x y z
#    x 1.992990 0.000000 0.000000 
#    y 0.000000 1.964020 0.000000 
#    z 0.000000 0.000000 2.126680 
# 
# From -- ./inp_files/3387.got.cif
#   From: 2010.05.17/outbox.cif.g08.bks.cpg/sg40_2_cif.got.tgz:3387.got - 2010.06.03 18:35:42.
