data_PCOD9365965
_publ_section_title
;
Structure prediction by ZEFSAII (Michael W. Deem and Ramdas Pophale) SiO2 
 PCOD9365965
Probable space group: A B A 2
;
_chemical_formula_sum "Si O2"
_cell_formula_units_Z 60
_cell_length_a 26.077956
_cell_length_b 5.637730
_cell_length_c 17.970932
_cell_angle_alpha 90.000000
_cell_angle_beta 90.000000
_cell_angle_gamma 90.000000
_cell_volume 2642.094957
_symmetry_space_group_name_H-M "A B A 2"
_symmetry_group_IT_number 41
_symmetry_cell_setting 'orthorhombic'
loop_
_space_group_symop_operation_xyz
x,y,z
-x,-y,z
1/2-x,y,1/2+z
1/2+x,-y,1/2+z
x,1/2+y,1/2+z
-x,1/2-y,1/2+z
1/2-x,1/2+y,z
1/2+x,1/2-y,z
loop_
_atom_site_type_symbol
_atom_site_label
_atom_site_fract_x
_atom_site_fract_y
_atom_site_fract_z
Si Si1 0.943990 0.383372 0.030410
Si Si2 0.123505 0.497552 0.285219
Si Si3 0.554961 0.378455 0.241721
Si Si4 0.374244 0.821060 0.648826
Si Si5 0.725934 0.219767 0.256343
Si Si6 0.500000 0.500000 0.948711
Si Si7 0.763429 0.668457 0.586294
Si Si8 0.421357 0.333515 0.389211
O O1 0.909827 0.355177 0.102162
O O2 0.000000 0.500000 0.044503
O O3 0.956762 0.121177 0.999012
O O4 0.914814 0.527890 0.965867
O O5 0.068201 0.395662 0.258364
O O6 0.141438 0.689705 0.224704
O O7 0.166839 0.298806 0.280370
O O8 0.116936 0.625901 0.364035
O O9 0.500000 0.500000 0.226793
O O10 0.591396 0.457788 0.173830
O O11 0.573560 0.497078 0.318867
O O12 0.323139 0.873221 0.603939
O O13 0.748211 0.472097 0.282629
O O14 0.733955 0.203548 0.166309
O O15 0.476229 0.706331 0.899885
O O16 0.742680 0.427587 0.549373
#
# Coordination Sequence:
#
# PCOD9365965 Si02
#       8
#     8   8   8   8   8   4   8   8
#     4  10  23  40  60  85 128 171 221 252 323 395
#     4  11  22  36  62  91 125 161 215 267 334 387
#     4  11  23  35  58  91 130 160 207 266 326 384
#     4  11  24  35  59  96 123 164 208 268 326 393
#     4  10  19  35  60  91 125 165 209 270 331 404
#     4  10  20  42  62  82 112 180 208 258 296 384
#     4  10  19  38  61  88 124 167 210 265 330 400
#     4  10  21  39  60  84 116 168 215 256 308 393
#
# _framework density 22.709251999999999
#
# number of rings (size 3 to 8) (size 9 to 14) (size 15 to 20)
#    0.000    1.600    2.667    4.400    4.667    2.133 
#    0.000    0.000    0.000    1.600    0.000    0.000 
#    0.000    0.000    0.000    0.000    0.000    0.000 
#
# Total GULP energy -167493.917197 kJ/mol
# GULP energy per Si atom -5583.130573 kJ/mol
# Density = 2.265756 g / cm^3
# Si number density = 22.709252 Si / 1000 Ang^3
#
#
#
# Elastic Constant Matrix: (Units=GPa)
#
#
# Indices 1 2 3 4 5 6 
#
# 1 84.7802 22.4388 14.4518 0.0000 0.0000 0.0000
# 2 22.4388 113.2236 14.8091 0.0000 0.0000 0.0000
# 3 14.4518 14.8091 56.4909 0.0000 0.0000 0.0000
# 4 0.0000 0.0000 0.0000 13.9664 0.0000 0.0000
# 5 0.0000 0.0000 0.0000 0.0000 7.4475 0.0000
# 6 0.0000 0.0000 0.0000 0.0000 0.0000 10.7612
#
#
#
# Elastic Compliance Matrix: (Units=1/GPa)
#
#
# Indices 1 2 3 4 5 6 
#
# 1 0.012837 -0.002190 -0.002710 0.000000 0.000000 0.000000
# 2 -0.002190 0.009519 -0.001935 0.000000 0.000000 0.000000
# 3 -0.002710 -0.001935 0.018903 0.000000 0.000000 0.000000
# 4 0.000000 0.000000 0.000000 0.071601 0.000000 0.000000
# 5 0.000000 0.000000 0.000000 0.000000 0.134274 0.000000
# 6 0.000000 0.000000 0.000000 0.000000 0.000000 0.092927
#
#
# Mechanical properties :
#
#
# Convention : Reuss Voigt Hill
#
# Bulk Modulus (GPa) = 36.24662 39.76602 38.00632
# Shear Modulus (GPa) = 13.77693 19.95466 16.86579
#
# Velocity S-wave (km/s) = 2.46573 2.96751 2.72818
# Velocity P-wave (km/s) = 4.90940 5.41206 5.16685
#
# Compressibility (1/GPa) = 0.02758878
#
# Stress axis : x y z
#
# Youngs Moduli (GPa) = 77.90187 105.05158 52.90281
#
# Poissons Ratio (x) = 0.23001 0.14336
# Poissons Ratio (y) = 0.17057 0.10238
# Poissons Ratio (z) = 0.21111 0.20331
#
# Static dielectric constant tensor:
#      x y z
#    x 1.884390 0.000000 0.000000 
#    y 0.000000 1.969440 0.000000 
#    z 0.000000 0.000000 1.799060 
# 
# From -- ./inp_files/10799.got.cif
#   From: 2010.05.17/outbox.cif.g08.bks.cpg/sg41_6_cif.got.tgz:10799.got - 2010.06.03 18:54:24.
