data_PCOD9365078
_publ_section_title
;
Structure prediction by ZEFSAII (Michael W. Deem and Ramdas Pophale) SiO2 
 PCOD9365078
Probable space group: A M A 2
;
_chemical_formula_sum "Si O2"
_cell_formula_units_Z 44
_cell_length_a 29.020291
_cell_length_b 6.408290
_cell_length_c 7.494935
_cell_angle_alpha 90.000000
_cell_angle_beta 90.000000
_cell_angle_gamma 90.000000
_cell_volume 1393.836364
_symmetry_space_group_name_H-M "A M A 2"
_symmetry_group_IT_number 40
_symmetry_cell_setting 'orthorhombic'
loop_
_space_group_symop_operation_xyz
x,y,z
-x,-y,z
1/2-x,y,z
1/2+x,-y,z
x,1/2+y,1/2+z
-x,1/2-y,1/2+z
1/2-x,1/2+y,1/2+z
1/2+x,1/2-y,1/2+z
loop_
_atom_site_type_symbol
_atom_site_label
_atom_site_fract_x
_atom_site_fract_y
_atom_site_fract_z
Si Si1 0.894512 0.155941 0.732480
Si Si2 0.482947 0.767045 0.571639
Si Si3 0.250000 0.553782 0.519301
Si Si4 0.835982 0.617008 0.588334
Si Si5 0.926611 0.190653 0.206633
Si Si6 0.800275 0.571450 0.149460
O O1 0.940347 0.291074 0.704491
O O2 0.874515 0.120913 0.929337
O O3 0.909190 0.926990 0.668405
O O4 0.847349 0.196955 0.621634
O O5 0.456904 0.791412 0.385754
O O6 0.531605 0.645064 0.567172
O O7 0.500000 0.000000 0.622727
O O8 0.208241 0.508620 0.661933
O O9 0.210338 0.486909 0.358198
O O10 0.876217 0.590091 0.740290
O O11 0.810694 0.845256 0.573444
O O12 0.750000 0.669510 0.068262
#
# Coordination Sequence:
#
# PCOD9365078 Si02
#       6
#     8   8   4   8   8   8
#     4  10  23  41  67  98 147 180 237 304 352 419
#     4  10  22  44  67 106 144 185 235 302 357 429
#     4  10  22  42  70 102 140 190 242 292 364 428
#     4  11  22  45  71 105 140 192 240 297 363 426
#     4  10  23  42  71 103 142 189 239 295 360 438
#     4   9  22  43  60 100 140 185 233 302 347 418
#
# _framework density 31.567547000000001
#
# number of rings (size 3 to 8) (size 9 to 14) (size 15 to 20)
#    0.545    1.455    0.909    1.091    3.818    1.455 
#    9.818    3.636    0.000    0.000    0.000    0.000 
#    0.000    0.000    0.000    0.000    0.000    0.000 
#
# Total GULP energy -122656.947927 kJ/mol
# GULP energy per Si atom -5575.315815 kJ/mol
# Density = 3.149570 g / cm^3
# Si number density = 31.567547 Si / 1000 Ang^3
#
#
#
# Elastic Constant Matrix: (Units=GPa)
#
#
# Indices 1 2 3 4 5 6 
#
# 1 438.9503 111.0417 35.2975 0.0000 0.0000 0.0000
# 2 111.0417 71.9362 -4.5778 0.0000 0.0000 0.0000
# 3 35.2975 -4.5778 73.7138 0.0000 0.0000 0.0000
# 4 0.0000 0.0000 0.0000 36.5682 0.0000 0.0000
# 5 0.0000 0.0000 0.0000 0.0000 28.1392 0.0000
# 6 0.0000 0.0000 0.0000 0.0000 0.0000 74.2364
#
#
#
# Elastic Compliance Matrix: (Units=1/GPa)
#
#
# Indices 1 2 3 4 5 6 
#
# 1 0.004114 -0.006501 -0.002373 0.000000 0.000000 0.000000
# 2 -0.006501 0.024230 0.004618 0.000000 0.000000 0.000000
# 3 -0.002373 0.004618 0.014989 0.000000 0.000000 0.000000
# 4 0.000000 0.000000 0.000000 0.027346 0.000000 0.000000
# 5 0.000000 0.000000 0.000000 0.000000 0.035538 0.000000
# 6 0.000000 0.000000 0.000000 0.000000 0.000000 0.013470
#
#
# Mechanical properties :
#
#
# Convention : Reuss Voigt Hill
#
# Bulk Modulus (GPa) = 28.71979 96.45813 62.58896
# Shear Modulus (GPa) = 35.76378 57.31135 46.53757
#
# Velocity S-wave (km/s) = 3.36955 4.26551 3.84373
# Velocity P-wave (km/s) = 4.92505 7.40823 6.29039
#
# Compressibility (1/GPa) = 0.03481920
#
# Stress axis : x y z
#
# Youngs Moduli (GPa) = 243.10129 41.27176 66.71443
#
# Poissons Ratio (x) = 0.26830 0.15834
# Poissons Ratio (y) = 1.58033 -0.30806
# Poissons Ratio (z) = 0.57699 -0.19057
#
# Static dielectric constant tensor:
#      x y z
#    x 2.774940 0.000000 0.000000 
#    y 0.000000 3.167270 0.000000 
#    z 0.000000 0.000000 2.776720 
# 
# From -- ./inp_files/8660.got.cif
#   From: 2010.05.17/outbox.cif.g08.bks.cpg/sg40_5_cif.got.tgz:8660.got - 2010.06.03 18:35:42.
