data_PCOD9365990
_publ_section_title
;
Structure prediction by ZEFSAII (Michael W. Deem and Ramdas Pophale) SiO2 
 PCOD9365990
Probable space group: A B A 2
;
_chemical_formula_sum "Si O2"
_cell_formula_units_Z 52
_cell_length_a 17.437666
_cell_length_b 8.702126
_cell_length_c 16.737705
_cell_angle_alpha 90.000000
_cell_angle_beta 90.000000
_cell_angle_gamma 90.000000
_cell_volume 2539.859140
_symmetry_space_group_name_H-M "A B A 2"
_symmetry_group_IT_number 41
_symmetry_cell_setting 'orthorhombic'
loop_
_space_group_symop_operation_xyz
x,y,z
-x,-y,z
1/2-x,y,1/2+z
1/2+x,-y,1/2+z
x,1/2+y,1/2+z
-x,1/2-y,1/2+z
1/2-x,1/2+y,z
1/2+x,1/2-y,z
loop_
_atom_site_type_symbol
_atom_site_label
_atom_site_fract_x
_atom_site_fract_y
_atom_site_fract_z
Si Si1 0.023972 0.242703 0.043170
Si Si2 0.739723 0.276840 0.464683
Si Si3 0.826530 0.499787 0.366563
Si Si4 0.614486 0.444317 0.556731
Si Si5 0.720994 0.082248 0.192307
Si Si6 0.166435 0.124042 0.121572
Si Si7 0.500000 0.000000 0.405212
O O1 0.071225 0.400616 0.030645
O O2 0.077346 0.138420 0.100268
O O3 0.944176 0.307259 0.076125
O O4 0.008633 0.146851 0.963520
O O5 0.796438 0.335850 0.396335
O O6 0.703050 0.116786 0.436206
O O7 0.668501 0.387838 0.485105
O O8 0.789940 0.299938 0.544967
O O9 0.786338 0.533665 0.283164
O O10 0.918753 0.511028 0.359768
O O11 0.662270 0.488334 0.635392
O O12 0.801406 0.040355 0.148942
O O13 0.693778 0.257803 0.189120
#
# Coordination Sequence:
#
# PCOD9365990 Si02
#       7
#     8   8   8   8   8   8   4
#     4  10  19  36  60  90 112 153 207 256 297 360
#     4  11  21  38  61  89 116 162 206 254 296 370
#     4  12  24  38  58  92 129 158 203 257 316 368
#     4   9  20  38  62  85 113 159 206 247 306 369
#     4  10  22  37  57  89 119 157 193 250 308 362
#     4  10  20  38  62  84 113 156 206 246 292 363
#     4  12  24  36  58  96 126 158 202 268 308 360
#
# _framework density 20.473576999999999
#
# number of rings (size 3 to 8) (size 9 to 14) (size 15 to 20)
#    0.000    1.538    3.077    3.692    0.000    2.462 
#    0.000    0.000    0.000    0.000    8.000    0.000 
#    0.000    0.000    0.000    0.000    0.000    0.000 
#
# Total GULP energy -145014.274802 kJ/mol
# GULP energy per Si atom -5577.472108 kJ/mol
# Density = 2.042698 g / cm^3
# Si number density = 20.473577 Si / 1000 Ang^3
#
#
#
# Elastic Constant Matrix: (Units=GPa)
#
#
# Indices 1 2 3 4 5 6 
#
# 1 105.2285 15.5249 4.9744 0.0000 0.0000 0.0000
# 2 15.5249 23.3520 3.6658 0.0000 0.0000 0.0000
# 3 4.9744 3.6658 51.8772 0.0000 0.0000 0.0000
# 4 0.0000 0.0000 0.0000 23.6182 0.0000 0.0000
# 5 0.0000 0.0000 0.0000 0.0000 16.0276 0.0000
# 6 0.0000 0.0000 0.0000 0.0000 0.0000 34.9785
#
#
#
# Elastic Compliance Matrix: (Units=1/GPa)
#
#
# Indices 1 2 3 4 5 6 
#
# 1 0.010551 -0.006932 -0.000522 0.000000 0.000000 0.000000
# 2 -0.006932 0.047858 -0.002717 0.000000 0.000000 0.000000
# 3 -0.000522 -0.002717 0.019518 0.000000 0.000000 0.000000
# 4 0.000000 0.000000 0.000000 0.042340 0.000000 0.000000
# 5 0.000000 0.000000 0.000000 0.000000 0.062392 0.000000
# 6 0.000000 0.000000 0.000000 0.000000 0.000000 0.028589
#
#
# Mechanical properties :
#
#
# Convention : Reuss Voigt Hill
#
# Bulk Modulus (GPa) = 17.36575 25.42088 21.39331
# Shear Modulus (GPa) = 19.93735 25.34438 22.64086
#
# Velocity S-wave (km/s) = 3.12398 3.52221 3.32905
# Velocity P-wave (km/s) = 4.63818 5.38374 5.02481
#
# Compressibility (1/GPa) = 0.05758463
#
# Stress axis : x y z
#
# Youngs Moduli (GPa) = 94.78179 20.89513 51.23397
#
# Poissons Ratio (x) = 0.14485 0.02674
# Poissons Ratio (y) = 0.65705 0.13920
# Poissons Ratio (z) = 0.04946 0.05677
#
# Static dielectric constant tensor:
#      x y z
#    x 1.786490 0.000000 0.000000 
#    y 0.000000 1.829910 0.000000 
#    z 0.000000 0.000000 1.696330 
# 
# From -- ./inp_files/10541.got.cif
#   From: 2010.05.17/outbox.cif.g08.bks.cpg/sg41_6_cif.got.tgz:10541.got - 2010.06.03 18:54:24.
