data_PCOD9365661
_publ_section_title
;
Structure prediction by ZEFSAII (Michael W. Deem and Ramdas Pophale) SiO2 
 PCOD9365661
Probable space group: A M A 2
;
_chemical_formula_sum "Si O2"
_cell_formula_units_Z 32
_cell_length_a 18.000000
_cell_length_b 30.000000
_cell_length_c 6.000000
_cell_angle_alpha 90.000000
_cell_angle_beta 90.000000
_cell_angle_gamma 90.000000
_cell_volume 3240.000000
_symmetry_space_group_name_H-M "A M A 2"
_symmetry_group_IT_number 40
_symmetry_cell_setting 'orthorhombic'
loop_
_space_group_symop_operation_xyz
x,y,z
-x,-y,z
1/2-x,y,z
1/2+x,-y,z
x,1/2+y,1/2+z
-x,1/2-y,1/2+z
1/2-x,1/2+y,1/2+z
1/2+x,1/2-y,1/2+z
loop_
_atom_site_type_symbol
_atom_site_label
_atom_site_fract_x
_atom_site_fract_y
_atom_site_fract_z
Si Si1 0.047604 0.537565 0.197960
Si Si2 0.840191 0.482300 0.562274
Si Si3 0.428286 0.429932 0.564347
Si Si4 0.566253 0.714745 0.077202
Si Si5 0.834568 0.650653 0.356512
Si Si6 0.670118 0.735647 0.683052
Si Si7 0.910435 0.800340 0.393209
Si Si8 0.573130 0.901315 0.308313
O O1 0.123015 0.520377 0.314931
O O2 0.000000 0.500000 0.062535
O O3 0.986316 0.550365 0.383083
O O4 0.069891 0.580615 0.059189
O O5 0.750000 0.483361 0.567819
O O6 0.878284 0.528444 0.652242
O O7 0.874452 0.438093 0.683264
O O8 0.374913 0.392573 0.457558
O O9 0.487297 0.406420 0.728686
O O10 0.601945 0.729723 0.846270
O O11 0.483032 0.697620 0.049484
O O12 0.616072 0.674037 0.167337
O O13 0.571353 0.759493 0.225454
O O14 0.750000 0.640188 0.285885
O O15 0.829973 0.690964 0.535047
O O16 0.750000 0.738574 0.801176
O O17 0.657149 0.779607 0.534212
O O18 0.901143 0.849833 0.292355
#
# Coordination Sequence:
#
# PCOD9365661 Si02
#       8
#     8   8   8   8   8   8   8   8
#     4   9  19  37  58  82 111 150 194 241 287 348
#     4  10  22  39  58  84 120 157 197 249 303 356
#     4  10  20  36  61  87 118 151 197 245 301 358
#     4  11  21  38  59  85 118 154 198 249 298 364
#     4  10  21  36  59  89 119 149 187 239 305 366
#     4  10  22  39  56  82 119 154 193 247 301 357
#     4  11  23  36  61  86 115 154 204 244 300 359
#     4  11  22  37  60  87 115 156 201 247 294 360
#
# _framework density 9.8765429999999999
#
# number of rings (size 3 to 8) (size 9 to 14) (size 15 to 20)
#    0.000    1.750    1.250    4.125    1.750    3.500 
#    0.000    1.250    0.000    6.000    0.000    0.000 
#    0.000    0.000    0.000    0.000    0.000    0.000 
#
# Total GULP energy -178346.776841 kJ/mol
# GULP energy per Si atom -5573.336776 kJ/mol
# Density = 0.985406 g / cm^3
# Si number density = 9.876543 Si / 1000 Ang^3
#
#
#
# Elastic Constant Matrix: (Units=GPa)
#
#
# Indices 1 2 3 4 5 6 
#
# 1 129.7898 36.4464 11.1230 0.0000 0.0000 0.0000
# 2 36.4464 139.9384 3.9029 0.0000 0.0000 0.0000
# 3 11.1230 3.9029 17.5224 0.0000 0.0000 0.0000
# 4 0.0000 0.0000 0.0000 28.0429 0.0000 0.0000
# 5 0.0000 0.0000 0.0000 0.0000 16.0379 0.0000
# 6 0.0000 0.0000 0.0000 0.0000 0.0000 24.3812
#
#
#
# Elastic Compliance Matrix: (Units=1/GPa)
#
#
# Indices 1 2 3 4 5 6 
#
# 1 0.008739 -0.002135 -0.005072 0.000000 0.000000 0.000000
# 2 -0.002135 0.007712 -0.000363 0.000000 0.000000 0.000000
# 3 -0.005072 -0.000363 0.060370 0.000000 0.000000 0.000000
# 4 0.000000 0.000000 0.000000 0.035660 0.000000 0.000000
# 5 0.000000 0.000000 0.000000 0.000000 0.062352 0.000000
# 6 0.000000 0.000000 0.000000 0.000000 0.000000 0.041015
#
#
# Mechanical properties :
#
#
# Convention : Reuss Voigt Hill
#
# Bulk Modulus (GPa) = 16.21200 43.35502 29.78351
# Shear Modulus (GPa) = 19.87695 29.41094 24.64394
#
# Velocity S-wave (km/s) = 3.17562 3.86285 3.53597
# Velocity P-wave (km/s) = 4.65523 6.47237 5.63750
#
# Compressibility (1/GPa) = 0.06168271
#
# Stress axis : x y z
#
# Youngs Moduli (GPa) = 114.43182 129.66722 16.56446
#
# Poissons Ratio (x) = 0.27678 0.08401
# Poissons Ratio (y) = 0.24426 0.00601
# Poissons Ratio (z) = 0.58038 0.04704
#
# Static dielectric constant tensor:
#      x y z
#    x 1.675780 0.000000 0.000000 
#    y 0.000000 1.698060 0.000000 
#    z 0.000000 0.000000 1.772780 
# 
# From -- ./inp_files/2028.got.cif
#   From: 2010.05.17/outbox.ucp.g08.bks.cvg/sg40_2_cif.got.tgz:2028.got - 2010.06.11 16:26:39.
