data_PCOD9365071
_publ_section_title
;
Structure prediction by ZEFSAII (Michael W. Deem and Ramdas Pophale) SiO2 
 PCOD9365071
Probable space group: A M A 2
;
_chemical_formula_sum "Si O2"
_cell_formula_units_Z 52
_cell_length_a 21.448463
_cell_length_b 13.008793
_cell_length_c 6.782622
_cell_angle_alpha 90.000000
_cell_angle_beta 90.000000
_cell_angle_gamma 90.000000
_cell_volume 1892.477799
_symmetry_space_group_name_H-M "A M A 2"
_symmetry_group_IT_number 40
_symmetry_cell_setting 'orthorhombic'
loop_
_space_group_symop_operation_xyz
x,y,z
-x,-y,z
1/2-x,y,z
1/2+x,-y,z
x,1/2+y,1/2+z
-x,1/2-y,1/2+z
1/2-x,1/2+y,1/2+z
1/2+x,1/2-y,1/2+z
loop_
_atom_site_type_symbol
_atom_site_label
_atom_site_fract_x
_atom_site_fract_y
_atom_site_fract_z
Si Si1 0.380014 0.877168 0.346400
Si Si2 0.478144 0.618047 0.217601
Si Si3 0.480571 0.650517 0.713710
Si Si4 0.116201 0.108117 0.461470
Si Si5 0.750000 0.592245 0.666955
Si Si6 0.882735 0.349675 0.470551
Si Si7 0.250000 0.050493 0.876223
Si Si8 0.250000 0.109812 0.436038
O O1 0.445005 0.884058 0.222591
O O2 0.316269 0.863347 0.225665
O O3 0.381422 0.774007 0.471442
O O4 0.375233 0.983349 0.465918
O O5 0.500000 0.500000 0.214799
O O6 0.516040 0.724762 0.221034
O O7 0.399079 0.632320 0.212015
O O8 0.464599 0.623723 0.957983
O O9 0.399204 0.622592 0.712538
O O10 0.463876 0.622472 0.472154
O O11 0.183611 0.165402 0.441486
O O12 0.750000 0.567587 0.438830
O O13 0.750000 0.479248 0.772538
O O14 0.813652 0.397579 0.452680
O O15 0.250000 0.054484 0.644896
#
# Coordination Sequence:
#
# PCOD9365071 Si02
#       8
#     8   8   8   8   4   8   4   4
#     4  10  22  42  70  95 135 179 226 276 348 414
#     4  11  22  38  62  90 132 171 213 280 345 397
#     4  11  23  39  64 100 128 172 231 277 338 418
#     4  11  21  42  66  92 131 180 219 280 347 404
#     4  10  23  43  75  97 133 191 224 272 355 406
#     4  11  23  39  65  94 132 175 219 281 343 396
#     4  12  23  43  67 101 138 177 233 286 333 408
#     4  10  22  42  68  98 135 176 231 276 334 412
#
# _framework density 27.477202999999999
#
# number of rings (size 3 to 8) (size 9 to 14) (size 15 to 20)
#    0.000    1.231    1.538    6.462    0.000    2.462 
#    0.000    0.000    0.000    4.615    0.000    0.000 
#    0.000    0.000    0.000    0.000    0.000    0.000 
#
# Total GULP energy -145108.321236 kJ/mol
# GULP energy per Si atom -5581.089278 kJ/mol
# Density = 2.741466 g / cm^3
# Si number density = 27.477203 Si / 1000 Ang^3
#
#
#
# Elastic Constant Matrix: (Units=GPa)
#
#
# Indices 1 2 3 4 5 6 
#
# 1 281.6495 32.5714 96.8412 0.0000 0.0000 0.0000
# 2 32.5714 177.7505 53.6610 0.0000 0.0000 0.0000
# 3 96.8412 53.6610 236.4132 0.0000 0.0000 0.0000
# 4 0.0000 0.0000 0.0000 47.9143 0.0000 0.0000
# 5 0.0000 0.0000 0.0000 0.0000 63.7488 0.0000
# 6 0.0000 0.0000 0.0000 0.0000 0.0000 35.1592
#
#
#
# Elastic Compliance Matrix: (Units=1/GPa)
#
#
# Indices 1 2 3 4 5 6 
#
# 1 0.004144 -0.000265 -0.001637 0.000000 0.000000 0.000000
# 2 -0.000265 0.006057 -0.001266 0.000000 0.000000 0.000000
# 3 -0.001637 -0.001266 0.005188 0.000000 0.000000 0.000000
# 4 0.000000 0.000000 0.000000 0.020871 0.000000 0.000000
# 5 0.000000 0.000000 0.000000 0.000000 0.015687 0.000000
# 6 0.000000 0.000000 0.000000 0.000000 0.000000 0.028442
#
#
# Mechanical properties :
#
#
# Convention : Reuss Voigt Hill
#
# Bulk Modulus (GPa) = 110.47797 117.99558 114.23678
# Shear Modulus (GPa) = 55.71493 63.54709 59.63101
#
# Velocity S-wave (km/s) = 4.50786 4.81429 4.66359
# Velocity P-wave (km/s) = 8.20907 8.59881 8.40620
#
# Compressibility (1/GPa) = 0.00905158
#
# Stress axis : x y z
#
# Youngs Moduli (GPa) = 241.30341 165.10706 192.75275
#
# Poissons Ratio (x) = 0.04377 0.31561
# Poissons Ratio (y) = 0.06396 0.24406
# Poissons Ratio (z) = 0.39511 0.20905
#
# Static dielectric constant tensor:
#      x y z
#    x 2.224630 0.000000 0.000000 
#    y 0.000000 1.920890 0.000000 
#    z 0.000000 0.000000 2.402420 
# 
# From -- ./inp_files/8267.got.cif
#   From: 2010.05.17/outbox.cif.g08.bks.cpg/sg40_5_cif.got.tgz:8267.got - 2010.06.03 18:35:42.
