data_PCOD9365606
_publ_section_title
;
Structure prediction by ZEFSAII (Michael W. Deem and Ramdas Pophale) SiO2 
 PCOD9365606
Probable space group: A M A 2
;
_chemical_formula_sum "Si O2"
_cell_formula_units_Z 64
_cell_length_a 14.905750
_cell_length_b 6.867833
_cell_length_c 25.219925
_cell_angle_alpha 90.000000
_cell_angle_beta 90.000000
_cell_angle_gamma 90.000000
_cell_volume 2581.768810
_symmetry_space_group_name_H-M "A M A 2"
_symmetry_group_IT_number 40
_symmetry_cell_setting 'orthorhombic'
loop_
_space_group_symop_operation_xyz
x,y,z
-x,-y,z
1/2-x,y,z
1/2+x,-y,z
x,1/2+y,1/2+z
-x,1/2-y,1/2+z
1/2-x,1/2+y,1/2+z
1/2+x,1/2-y,1/2+z
loop_
_atom_site_type_symbol
_atom_site_label
_atom_site_fract_x
_atom_site_fract_y
_atom_site_fract_z
Si Si1 0.478048 0.265837 0.453150
Si Si2 0.355565 0.864201 0.155576
Si Si3 0.148020 0.310511 0.771093
Si Si4 0.851417 0.607462 0.540875
Si Si5 0.147817 0.333302 0.008570
Si Si6 0.853276 0.090832 0.625539
Si Si7 0.480047 0.266662 0.335873
Si Si8 0.095505 0.394639 0.236598
O O1 0.500000 0.500000 0.452117
O O2 0.408534 0.255621 0.502250
O O3 0.569508 0.149089 0.465607
O O4 0.446532 0.214845 0.394005
O O5 0.250000 0.915112 0.158915
O O6 0.389869 0.892016 0.214991
O O7 0.391026 0.941478 0.099301
O O8 0.361696 0.632734 0.143158
O O9 0.250000 0.377123 0.782081
O O10 0.074590 0.327057 0.817507
O O11 0.154440 0.077091 0.756802
O O12 0.750000 0.685841 0.548983
O O13 0.843023 0.400551 0.513035
O O14 0.250000 0.407333 0.998655
O O15 0.109209 0.389201 0.066815
O O16 0.750000 0.144325 0.617511
O O17 0.882387 0.196799 0.679506
O O18 0.500000 0.500000 0.337995
O O19 0.413203 0.249364 0.286008
O O20 0.000000 0.500000 0.228215
#
# Coordination Sequence:
#
# PCOD9365606 Si02
#       8
#     8   8   8   8   8   8   8   8
#     4   9  17  29  41  57  84 114 143 175 207 241
#     4   8  14  25  43  65  87 107 135 173 210 248
#     4   8  13  22  37  58  80 103 130 166 207 245
#     4   9  17  30  45  62  84 112 142 173 206 245
#     4   9  18  29  42  62  89 115 139 167 206 251
#     4   9  16  27  42  64  89 109 132 168 209 252
#     4   8  15  25  36  55  82 107 134 168 205 244
#     4   8  14  23  36  57  84 107 131 166 208 246
#
# _framework density 24.789207999999999
#
# number of rings (size 3 to 8) (size 9 to 14) (size 15 to 20)
#    0.000    3.750    0.000    1.125    0.000    3.500 
#    0.000    6.875    0.000    0.000    0.000    3.500 
#    0.000    8.000    0.000    0.000    0.000    0.000 
#
# Total GULP energy -178450.510449 kJ/mol
# GULP energy per Si atom -5576.578452 kJ/mol
# Density = 2.473279 g / cm^3
# Si number density = 24.789208 Si / 1000 Ang^3
#
#
#
# Elastic Constant Matrix: (Units=GPa)
#
#
# Indices 1 2 3 4 5 6 
#
# 1 74.2363 -7.2738 45.0245 0.0000 0.0000 0.0000
# 2 -7.2738 66.1407 0.1313 0.0000 0.0000 0.0000
# 3 45.0245 0.1313 187.7186 0.0000 0.0000 0.0000
# 4 0.0000 0.0000 0.0000 32.6867 0.0000 0.0000
# 5 0.0000 0.0000 0.0000 0.0000 17.4799 0.0000
# 6 0.0000 0.0000 0.0000 0.0000 0.0000 16.4780
#
#
#
# Elastic Compliance Matrix: (Units=1/GPa)
#
#
# Indices 1 2 3 4 5 6 
#
# 1 0.015967 0.001764 -0.003831 0.000000 0.000000 0.000000
# 2 0.001764 0.015314 -0.000434 0.000000 0.000000 0.000000
# 3 -0.003831 -0.000434 0.006246 0.000000 0.000000 0.000000
# 4 0.000000 0.000000 0.000000 0.030593 0.000000 0.000000
# 5 0.000000 0.000000 0.000000 0.000000 0.057208 0.000000
# 6 0.000000 0.000000 0.000000 0.000000 0.000000 0.060687
#
#
# Mechanical properties :
#
#
# Convention : Reuss Voigt Hill
#
# Bulk Modulus (GPa) = 30.74554 44.87328 37.80941
# Shear Modulus (GPa) = 24.76969 32.67651 28.72310
#
# Velocity S-wave (km/s) = 3.16446 3.63461 3.40765
# Velocity P-wave (km/s) = 5.07755 5.97955 5.54692
#
# Compressibility (1/GPa) = 0.03252504
#
# Stress axis : x y z
#
# Youngs Moduli (GPa) = 62.63021 65.29933 160.09573
#
# Poissons Ratio (x) = -0.11516 0.61331
# Poissons Ratio (y) = -0.11045 0.06943
# Poissons Ratio (z) = 0.23993 0.02832
#
# Static dielectric constant tensor:
#      x y z
#    x 1.965960 0.000000 0.000000 
#    y 0.000000 2.112650 0.000000 
#    z 0.000000 0.000000 2.005580 
# 
# From -- ./inp_files/23418.got.cif
#   From: 2010.05.17/outbox.cif.g08.bks.cpg/sg40_12_cif.got.tgz:23418.got - 2010.06.03 18:35:42.
