data_PCOD9365268
_publ_section_title
;
Structure prediction by ZEFSAII (Michael W. Deem and Ramdas Pophale) SiO2 
 PCOD9365268
Probable space group: A M A 2
;
_chemical_formula_sum "Si O2"
_cell_formula_units_Z 32
_cell_length_a 27.323071
_cell_length_b 9.345794
_cell_length_c 5.221984
_cell_angle_alpha 90.000000
_cell_angle_beta 90.000000
_cell_angle_gamma 90.000000
_cell_volume 1333.463865
_symmetry_space_group_name_H-M "A M A 2"
_symmetry_group_IT_number 40
_symmetry_cell_setting 'orthorhombic'
loop_
_space_group_symop_operation_xyz
x,y,z
-x,-y,z
1/2-x,y,z
1/2+x,-y,z
x,1/2+y,1/2+z
-x,1/2-y,1/2+z
1/2-x,1/2+y,1/2+z
1/2+x,1/2-y,1/2+z
loop_
_atom_site_type_symbol
_atom_site_label
_atom_site_fract_x
_atom_site_fract_y
_atom_site_fract_z
Si Si1 0.692435 0.620713 0.599250
Si Si2 0.610189 0.288702 0.963517
Si Si3 0.635972 0.570912 0.107894
Si Si4 0.981959 0.164021 0.167914
O O1 0.750000 0.616109 0.568426
O O2 0.667004 0.773969 0.546362
O O3 0.663702 0.534950 0.376042
O O4 0.675013 0.582065 0.881807
O O5 0.611157 0.223750 0.678832
O O6 0.597283 0.450177 0.027531
O O7 0.576182 0.181239 0.121545
O O8 0.997481 0.244797 0.426331
O O9 0.000000 0.000000 0.159861
#
# Coordination Sequence:
#
# PCOD9365268 Si02
#       4
#     8   8   8   8
#     4  10  24  42  66  97 134 177 229 280 345 413
#     4  10  26  44  70  95 141 174 232 282 354 413
#     4  10  24  40  67  93 134 174 222 277 345 406
#     4  12  28  46  77 107 144 187 243 296 363 429
#
# _framework density 23.997653
#
# number of rings (size 3 to 8) (size 9 to 14) (size 15 to 20)
#    1.500    0.000    0.000    3.000   10.500    2.000 
#    0.000    0.000    0.000    0.000    0.000    0.000 
#    0.000    0.000    0.000    0.000    0.000    0.000 
#
# Total GULP energy -89228.334974 kJ/mol
# GULP energy per Si atom -5576.770936 kJ/mol
# Density = 2.394303 g / cm^3
# Si number density = 23.997653 Si / 1000 Ang^3
#
#
#
# Elastic Constant Matrix: (Units=GPa)
#
#
# Indices 1 2 3 4 5 6 
#
# 1 92.6133 12.1183 44.8792 0.0000 0.0000 0.0000
# 2 12.1183 128.8765 69.8637 0.0000 0.0000 0.0000
# 3 44.8792 69.8637 176.9257 0.0000 0.0000 0.0000
# 4 0.0000 0.0000 0.0000 37.7740 0.0000 0.0000
# 5 0.0000 0.0000 0.0000 0.0000 32.5083 0.0000
# 6 0.0000 0.0000 0.0000 0.0000 0.0000 21.2682
#
#
#
# Elastic Compliance Matrix: (Units=1/GPa)
#
#
# Indices 1 2 3 4 5 6 
#
# 1 0.012358 0.000684 -0.003405 0.000000 0.000000 0.000000
# 2 0.000684 0.009911 -0.004087 0.000000 0.000000 0.000000
# 3 -0.003405 -0.004087 0.008130 0.000000 0.000000 0.000000
# 4 0.000000 0.000000 0.000000 0.026473 0.000000 0.000000
# 5 0.000000 0.000000 0.000000 0.000000 0.030761 0.000000
# 6 0.000000 0.000000 0.000000 0.000000 0.000000 0.047019
#
#
# Mechanical properties :
#
#
# Convention : Reuss Voigt Hill
#
# Bulk Modulus (GPa) = 59.58666 72.45976 66.02321
# Shear Modulus (GPa) = 32.49682 36.41371 34.45526
#
# Velocity S-wave (km/s) = 3.68389 3.89959 3.79327
# Velocity P-wave (km/s) = 6.55583 7.10885 6.83793
#
# Compressibility (1/GPa) = 0.01678228
#
# Stress axis : x y z
#
# Youngs Moduli (GPa) = 80.91927 100.90252 123.00838
#
# Poissons Ratio (x) = -0.06898 0.41881
# Poissons Ratio (y) = -0.05532 0.50272
# Poissons Ratio (z) = 0.27551 0.41237
#
# Static dielectric constant tensor:
#      x y z
#    x 1.951470 0.000000 0.000000 
#    y 0.000000 2.025960 0.000000 
#    z 0.000000 0.000000 1.927440 
# 
# From -- ./inp_files/3262.got.cif
#   From: 2010.05.17/outbox.cif.g08.bks.cpg/sg40_2_cif.got.tgz:3262.got - 2010.06.03 18:35:42.
