data_PCOD9365479
_publ_section_title
;
Structure prediction by ZEFSAII (Michael W. Deem and Ramdas Pophale) SiO2 
 PCOD9365479
Probable space group: A M A 2
;
_chemical_formula_sum "Si O2"
_cell_formula_units_Z 48
_cell_length_a 13.617519
_cell_length_b 12.794968
_cell_length_c 12.572494
_cell_angle_alpha 90.000000
_cell_angle_beta 90.000000
_cell_angle_gamma 90.000000
_cell_volume 2190.577542
_symmetry_space_group_name_H-M "A M A 2"
_symmetry_group_IT_number 40
_symmetry_cell_setting 'orthorhombic'
loop_
_space_group_symop_operation_xyz
x,y,z
-x,-y,z
1/2-x,y,z
1/2+x,-y,z
x,1/2+y,1/2+z
-x,1/2-y,1/2+z
1/2-x,1/2+y,1/2+z
1/2+x,1/2-y,1/2+z
loop_
_atom_site_type_symbol
_atom_site_label
_atom_site_fract_x
_atom_site_fract_y
_atom_site_fract_z
Si Si1 0.250000 0.660123 0.226820
Si Si2 0.050415 0.831432 0.633176
Si Si3 0.530441 0.609728 0.554363
Si Si4 0.535523 0.395114 0.914193
Si Si5 0.250000 0.875491 0.964018
Si Si6 0.250000 0.415315 0.223398
Si Si7 0.750000 0.848127 0.484914
Si Si8 0.548213 0.820135 0.834197
O O1 0.250000 0.537411 0.192282
O O2 0.250000 0.700513 0.105020
O O3 0.340547 0.695526 0.299558
O O4 0.159049 0.851686 0.674588
O O5 0.007127 0.713597 0.615327
O O6 0.029768 0.884572 0.521015
O O7 0.989839 0.878701 0.730290
O O8 0.500000 0.500000 0.604912
O O9 0.647096 0.609079 0.526685
O O10 0.471928 0.618083 0.441957
O O11 0.500000 0.500000 0.857837
O O12 0.511679 0.288218 0.851767
O O13 0.648160 0.401940 0.953602
O O14 0.250000 0.933978 0.851283
O O15 0.250000 0.758081 0.918150
#
# Coordination Sequence:
#
# PCOD9365479 Si02
#       8
#     4   8   8   8   4   4   4   8
#     4  12  24  38  69  97 131 174 221 283 351 393
#     4  11  23  41  62  96 128 167 225 277 323 407
#     4  11  24  40  66  94 132 173 223 278 336 398
#     4  11  24  40  66  94 132 173 223 278 336 398
#     4  12  20  43  65  89 127 183 214 259 341 409
#     4  12  24  38  69  97 131 174 221 283 351 393
#     4  12  20  43  65  89 127 183 214 259 341 409
#     4  11  23  41  62  96 128 167 225 277 323 407
#
# _framework density 21.912030000000001
#
# number of rings (size 3 to 8) (size 9 to 14) (size 15 to 20)
#    0.000    0.667    6.667    2.000    0.000    4.667 
#    0.000    0.000    0.000    6.000    0.000    0.000 
#    0.000    0.000    0.000    0.000    0.000    0.000 
#
# Total GULP energy -133819.899305 kJ/mol
# GULP energy per Si atom -5575.829138 kJ/mol
# Density = 2.186216 g / cm^3
# Si number density = 21.912030 Si / 1000 Ang^3
#
#
#
# Elastic Constant Matrix: (Units=GPa)
#
#
# Indices 1 2 3 4 5 6 
#
# 1 189.2756 19.7425 18.3222 0.0000 0.0000 0.0000
# 2 19.7425 110.5646 3.2857 0.0000 0.0000 0.0000
# 3 18.3222 3.2857 93.3490 0.0000 0.0000 0.0000
# 4 0.0000 0.0000 0.0000 -1.0890 0.0000 0.0000
# 5 0.0000 0.0000 0.0000 0.0000 29.6028 0.0000
# 6 0.0000 0.0000 0.0000 0.0000 0.0000 22.9466
#
#
#
# Elastic Compliance Matrix: (Units=1/GPa)
#
#
# Indices 1 2 3 4 5 6 
#
# 1 0.005483 -0.000948 -0.001043 0.000000 0.000000 0.000000
# 2 -0.000948 0.009218 -0.000138 0.000000 0.000000 0.000000
# 3 -0.001043 -0.000138 0.010922 0.000000 0.000000 0.000000
# 4 0.000000 0.000000 0.000000 -0.918285 0.000000 0.000000
# 5 0.000000 0.000000 0.000000 0.000000 0.033781 0.000000
# 6 0.000000 0.000000 0.000000 0.000000 0.000000 0.043579
#
#
# Mechanical properties :
#
#
# Convention : Reuss Voigt Hill
#
# Bulk Modulus (GPa) = 46.80665 52.87668 49.84167
# Shear Modulus (GPa) = -6.21951 33.74801 13.76425
#
# Velocity S-wave (km/s) = -1.68658 3.92874 2.50903
# Velocity P-wave (km/s) = 4.19700 6.69057 5.58474
#
# Compressibility (1/GPa) = 0.02136449
#
# Stress axis : x y z
#
# Youngs Moduli (GPa) = 182.37721 108.48476 91.55795
#
# Poissons Ratio (x) = 0.10285 0.09548
# Poissons Ratio (y) = 0.17291 0.01267
# Poissons Ratio (z) = 0.19019 0.01501
#
# Static dielectric constant tensor:
#      x y z
#    x 2.102370 0.000000 0.000000 
#    y 0.000000 1.818380 0.000000 
#    z 0.000000 0.000000 1.764200 
# 
# From -- ./inp_files/16368.got.cif
#   From: 2010.05.17/outbox.cif.g08.bks.cpg/sg40_9_cif.got.tgz:16368.got - 2010.06.03 18:35:42.
