data_PCOD9365098
_publ_section_title
;
Structure prediction by ZEFSAII (Michael W. Deem and Ramdas Pophale) SiO2 
 PCOD9365098
Probable space group: A M A 2
;
_chemical_formula_sum "Si O2"
_cell_formula_units_Z 48
_cell_length_a 16.878849
_cell_length_b 11.582273
_cell_length_c 10.135859
_cell_angle_alpha 90.000000
_cell_angle_beta 90.000000
_cell_angle_gamma 90.000000
_cell_volume 1981.514185
_symmetry_space_group_name_H-M "A M A 2"
_symmetry_group_IT_number 40
_symmetry_cell_setting 'orthorhombic'
loop_
_space_group_symop_operation_xyz
x,y,z
-x,-y,z
1/2-x,y,z
1/2+x,-y,z
x,1/2+y,1/2+z
-x,1/2-y,1/2+z
1/2-x,1/2+y,1/2+z
1/2+x,1/2-y,1/2+z
loop_
_atom_site_type_symbol
_atom_site_label
_atom_site_fract_x
_atom_site_fract_y
_atom_site_fract_z
Si Si1 0.841889 0.007517 0.666880
Si Si2 0.086655 0.817895 0.305228
Si Si3 0.841845 0.380921 0.449592
Si Si4 0.657546 0.768819 0.540746
Si Si5 0.413031 0.271908 0.278675
Si Si6 0.158392 0.034379 0.224731
O O1 0.750000 0.041680 0.643680
O O2 0.896423 0.118801 0.686734
O O3 0.846238 0.947583 0.811225
O O4 0.861289 0.905118 0.564175
O O5 0.110121 0.737138 0.427938
O O6 0.999534 0.780973 0.261862
O O7 0.102533 0.953600 0.313045
O O8 0.144715 0.785138 0.184502
O O9 0.750000 0.351081 0.473398
O O10 0.865975 0.462745 0.570336
O O11 0.750000 0.756814 0.505510
O O12 0.602526 0.706928 0.433882
O O13 0.351054 0.169072 0.256118
O O14 0.250000 0.000577 0.241613
#
# Coordination Sequence:
#
# PCOD9365098 Si02
#       6
#     8   8   8   8   8   8
#     4   9  19  40  66  92 122 166 223 270 320 400
#     4  11  24  42  64  98 135 167 218 282 338 394
#     4   9  20  40  69  94 120 169 224 267 322 399
#     4  10  22  43  69  93 128 180 228 268 332 413
#     4  12  25  39  62  99 135 169 217 276 341 398
#     4  11  23  41  64  91 130 175 219 266 328 408
#
# _framework density 24.223898999999999
#
# number of rings (size 3 to 8) (size 9 to 14) (size 15 to 20)
#    0.000    1.667    0.000    5.500    2.333    5.333 
#    6.000    1.667    0.000    0.000    0.000    0.000 
#    0.000    0.000    0.000    0.000    0.000    0.000 
#
# Total GULP energy -134198.822419 kJ/mol
# GULP energy per Si atom -5591.617601 kJ/mol
# Density = 2.416876 g / cm^3
# Si number density = 24.223899 Si / 1000 Ang^3
#
#
#
# Elastic Constant Matrix: (Units=GPa)
#
#
# Indices 1 2 3 4 5 6 
#
# 1 55.9453 13.5668 13.2939 0.0000 0.0000 0.0000
# 2 13.5668 68.6101 1.0285 0.0000 0.0000 0.0000
# 3 13.2939 1.0285 24.1210 0.0000 0.0000 0.0000
# 4 0.0000 0.0000 0.0000 32.2330 0.0000 0.0000
# 5 0.0000 0.0000 0.0000 0.0000 18.0057 0.0000
# 6 0.0000 0.0000 0.0000 0.0000 0.0000 17.8749
#
#
#
# Elastic Compliance Matrix: (Units=1/GPa)
#
#
# Indices 1 2 3 4 5 6 
#
# 1 0.021667 -0.004108 -0.011766 0.000000 0.000000 0.000000
# 2 -0.004108 0.015363 0.001609 0.000000 0.000000 0.000000
# 3 -0.011766 0.001609 0.047874 0.000000 0.000000 0.000000
# 4 0.000000 0.000000 0.000000 0.031024 0.000000 0.000000
# 5 0.000000 0.000000 0.000000 0.000000 0.055538 0.000000
# 6 0.000000 0.000000 0.000000 0.000000 0.000000 0.055945
#
#
# Mechanical properties :
#
#
# Convention : Reuss Voigt Hill
#
# Bulk Modulus (GPa) = 17.73882 22.71721 20.22802
# Shear Modulus (GPa) = 18.19957 21.67519 19.93738
#
# Velocity S-wave (km/s) = 2.74397 2.99454 2.87199
# Velocity P-wave (km/s) = 4.16868 4.62112 4.40072
#
# Compressibility (1/GPa) = 0.05637354
#
# Stress axis : x y z
#
# Youngs Moduli (GPa) = 46.15377 65.09023 20.88828
#
# Poissons Ratio (x) = 0.26739 0.24577
# Poissons Ratio (y) = 0.18960 -0.03361
# Poissons Ratio (z) = 0.54305 -0.10473
#
# Static dielectric constant tensor:
#      x y z
#    x 1.848330 0.000000 0.000000 
#    y 0.000000 2.017820 0.000000 
#    z 0.000000 0.000000 2.082200 
# 
# From -- ./inp_files/12914.got.cif
#   From: 2010.05.17/outbox.cif.g08.bks.cpg/sg40_7_cif.got.tgz:12914.got - 2010.06.03 18:35:42.
