data_PCOD9365717
_publ_section_title
;
Structure prediction by ZEFSAII (Michael W. Deem and Ramdas Pophale) SiO2 
 PCOD9365717
Probable space group: A B A 2
;
_chemical_formula_sum "Si O2"
_cell_formula_units_Z 56
_cell_length_a 5.430188
_cell_length_b 28.816003
_cell_length_c 16.082367
_cell_angle_alpha 90.000000
_cell_angle_beta 90.000000
_cell_angle_gamma 90.000000
_cell_volume 2516.509504
_symmetry_space_group_name_H-M "A B A 2"
_symmetry_group_IT_number 41
_symmetry_cell_setting 'orthorhombic'
loop_
_space_group_symop_operation_xyz
x,y,z
-x,-y,z
1/2-x,y,1/2+z
1/2+x,-y,1/2+z
x,1/2+y,1/2+z
-x,1/2-y,1/2+z
1/2-x,1/2+y,z
1/2+x,1/2-y,z
loop_
_atom_site_type_symbol
_atom_site_label
_atom_site_fract_x
_atom_site_fract_y
_atom_site_fract_z
Si Si1 0.088525 0.408532 0.709050
Si Si2 0.500000 0.500000 0.598928
Si Si3 0.500000 0.500000 0.098126
Si Si4 0.755731 0.120141 0.374756
Si Si5 0.238134 0.274569 0.841066
Si Si6 0.237800 0.130383 0.975617
Si Si7 0.589510 0.900040 0.154364
Si Si8 0.712622 0.762640 0.526937
O O1 0.201540 0.415762 0.800092
O O2 0.311289 0.380616 0.662961
O O3 0.030745 0.455200 0.657307
O O4 0.813892 0.385931 0.715086
O O5 0.749292 0.501082 0.547019
O O6 0.530952 0.455012 0.656323
O O7 0.731040 0.170666 0.330390
O O8 0.511072 0.113360 0.430093
O O9 0.010737 0.122553 0.425146
O O10 0.478386 0.246452 0.811195
O O11 0.225646 0.267798 0.942083
O O12 0.291997 0.108485 0.064773
O O13 0.204557 0.184850 0.995340
O O14 0.465746 0.748031 0.573326
#
# Coordination Sequence:
#
# PCOD9365717 Si02
#       8
#     8   4   4   8   8   8   8   8
#     4  10  21  38  58  82 112 147 186 231 281 340
#     4   8  16  34  59  76  99 148 188 202 256 356
#     4   8  16  34  59  76  99 148 188 202 256 356
#     4  12  21  33  57  88 111 142 191 241 279 327
#     4  10  16  30  49  76 100 144 191 223 253 334
#     4  12  21  33  57  88 111 142 191 241 279 327
#     4  10  21  38  58  82 112 147 186 231 281 340
#     4  10  16  30  49  76 100 144 191 223 253 334
#
# _framework density 22.253045
#
# number of rings (size 3 to 8) (size 9 to 14) (size 15 to 20)
#    0.000    1.714    5.714    1.714    0.000    0.000 
#    0.000    0.714    0.000    6.857    0.000    0.000 
#    0.000    0.000    0.000    0.000    0.000    0.000 
#
# Total GULP energy -155914.476475 kJ/mol
# GULP energy per Si atom -5568.374160 kJ/mol
# Density = 2.220240 g / cm^3
# Si number density = 22.253045 Si / 1000 Ang^3
#
#
#
# Elastic Constant Matrix: (Units=GPa)
#
#
# Indices 1 2 3 4 5 6 
#
# 1 268.2637 2.0444 29.6833 0.0000 0.0000 0.0000
# 2 2.0444 32.6067 17.7191 0.0000 0.0000 0.0000
# 3 29.6833 17.7191 52.6071 0.0000 0.0000 0.0000
# 4 0.0000 0.0000 0.0000 7.9405 0.0000 0.0000
# 5 0.0000 0.0000 0.0000 0.0000 16.7777 0.0000
# 6 0.0000 0.0000 0.0000 0.0000 0.0000 16.0636
#
#
#
# Elastic Compliance Matrix: (Units=1/GPa)
#
#
# Indices 1 2 3 4 5 6 
#
# 1 0.004014 0.001198 -0.002668 0.000000 0.000000 0.000000
# 2 0.001198 0.037897 -0.013441 0.000000 0.000000 0.000000
# 3 -0.002668 -0.013441 0.025042 0.000000 0.000000 0.000000
# 4 0.000000 0.000000 0.000000 0.125937 0.000000 0.000000
# 5 0.000000 0.000000 0.000000 0.000000 0.059603 0.000000
# 6 0.000000 0.000000 0.000000 0.000000 0.000000 0.062253
#
#
# Mechanical properties :
#
#
# Convention : Reuss Voigt Hill
#
# Bulk Modulus (GPa) = 26.93148 50.26343 38.59745
# Shear Modulus (GPa) = 14.00782 28.42506 21.21644
#
# Velocity S-wave (km/s) = 2.51166 3.57789 3.09110
# Velocity P-wave (km/s) = 4.53210 6.30116 5.48838
#
# Compressibility (1/GPa) = 0.03713127
#
# Stress axis : x y z
#
# Youngs Moduli (GPa) = 249.14035 26.38703 39.93357
#
# Poissons Ratio (x) = -0.03162 0.10656
# Poissons Ratio (y) = -0.29857 0.53674
# Poissons Ratio (z) = 0.66481 0.35466
#
# Static dielectric constant tensor:
#      x y z
#    x 2.058540 0.000000 0.000000 
#    y 0.000000 1.839990 0.000000 
#    z 0.000000 0.000000 1.803380 
# 
# From -- ./inp_files/7013.got.cif
#   From: 2010.05.17/outbox.cif.g08.bks.cpg/sg41_4_cif.got.tgz:7013.got - 2010.06.03 18:54:24.
