data_PCOD9365671
_publ_section_title
;
Structure prediction by ZEFSAII (Michael W. Deem and Ramdas Pophale) SiO2 
 PCOD9365671
Probable space group: A M A 2
;
_chemical_formula_sum "Si O2"
_cell_formula_units_Z 24
_cell_length_a 24.000000
_cell_length_b 12.000000
_cell_length_c 9.000000
_cell_angle_alpha 90.000000
_cell_angle_beta 90.000000
_cell_angle_gamma 90.000000
_cell_volume 2592.000000
_symmetry_space_group_name_H-M "A M A 2"
_symmetry_group_IT_number 40
_symmetry_cell_setting 'orthorhombic'
loop_
_space_group_symop_operation_xyz
x,y,z
-x,-y,z
1/2-x,y,z
1/2+x,-y,z
x,1/2+y,1/2+z
-x,1/2-y,1/2+z
1/2-x,1/2+y,1/2+z
1/2+x,1/2-y,1/2+z
loop_
_atom_site_type_symbol
_atom_site_label
_atom_site_fract_x
_atom_site_fract_y
_atom_site_fract_z
Si Si1 0.569259 0.701914 0.939230
Si Si2 0.815482 0.549468 0.261233
Si Si3 0.186497 0.694864 0.815158
Si Si4 0.813720 0.331625 0.464544
Si Si5 0.011467 0.631346 0.200389
Si Si6 0.606176 0.466563 0.994929
O O1 0.631764 0.755290 0.934349
O O2 0.532774 0.782504 0.828848
O O3 0.538732 0.687824 0.102276
O O4 0.578397 0.569594 0.903971
O O5 0.750000 0.552729 0.216738
O O6 0.828478 0.673453 0.321465
O O7 0.821730 0.449844 0.380903
O O8 0.854588 0.521763 0.121840
O O9 0.250000 0.682947 0.873372
O O10 0.187010 0.659870 0.642460
O O11 0.144087 0.615634 0.899549
O O12 0.750000 0.291517 0.422505
O O13 0.059956 0.606665 0.079979
O O14 0.000000 0.500000 0.252515
#
# Coordination Sequence:
#
# PCOD9365671 Si02
#       6
#     8   8   8   8   8   8
#     4  11  23  44  65  92 127 163 211 263 314 376
#     4  10  20  38  61  88 127 167 205 257 313 371
#     4  10  22  38  61  95 130 166 206 257 316 374
#     4  10  21  39  64  92 124 164 207 254 316 376
#     4  10  25  44  62  92 125 166 213 261 315 376
#     4  11  22  39  65  91 123 162 215 257 312 373
#
# _framework density 9.2592590000000001
#
# number of rings (size 3 to 8) (size 9 to 14) (size 15 to 20)
#    0.000    1.667    3.333    0.500    2.333    2.000 
#    3.000    0.000    0.000    0.000    0.000    0.000 
#    0.000    0.000    0.000    0.000    0.000    0.000 
#
# Total GULP energy -133786.718456 kJ/mol
# GULP energy per Si atom -5574.446602 kJ/mol
# Density = 0.923818 g / cm^3
# Si number density = 9.259259 Si / 1000 Ang^3
#
#
#
# Elastic Constant Matrix: (Units=GPa)
#
#
# Indices 1 2 3 4 5 6 
#
# 1 94.1401 41.0501 29.1674 0.0000 0.0000 0.0000
# 2 41.0501 121.9064 46.2573 0.0000 0.0000 0.0000
# 3 29.1674 46.2573 47.9500 0.0000 0.0000 0.0000
# 4 0.0000 0.0000 0.0000 37.9410 0.0000 0.0000
# 5 0.0000 0.0000 0.0000 0.0000 39.2241 0.0000
# 6 0.0000 0.0000 0.0000 0.0000 0.0000 40.4851
#
#
#
# Elastic Compliance Matrix: (Units=1/GPa)
#
#
# Indices 1 2 3 4 5 6 
#
# 1 0.013470 -0.002251 -0.006022 0.000000 0.000000 0.000000
# 2 -0.002251 0.013316 -0.011477 0.000000 0.000000 0.000000
# 3 -0.006022 -0.011477 0.035590 0.000000 0.000000 0.000000
# 4 0.000000 0.000000 0.000000 0.026357 0.000000 0.000000
# 5 0.000000 0.000000 0.000000 0.000000 0.025495 0.000000
# 6 0.000000 0.000000 0.000000 0.000000 0.000000 0.024700
#
#
# Mechanical properties :
#
#
# Convention : Reuss Voigt Hill
#
# Bulk Modulus (GPa) = 43.71358 55.21622 49.46490
# Shear Modulus (GPa) = 26.87429 33.36482 30.11956
#
# Velocity S-wave (km/s) = 3.81361 4.24925 4.03731
# Velocity P-wave (km/s) = 6.56110 7.34550 6.96435
#
# Compressibility (1/GPa) = 0.02287619
#
# Stress axis : x y z
#
# Youngs Moduli (GPa) = 74.24052 75.09969 28.09788
#
# Poissons Ratio (x) = 0.16901 0.16922
# Poissons Ratio (y) = 0.16708 0.32247
# Poissons Ratio (z) = 0.44711 0.86189
#
# Static dielectric constant tensor:
#      x y z
#    x 1.695620 0.000000 0.000000 
#    y 0.000000 1.643210 0.000000 
#    z 0.000000 0.000000 1.621630 
# 
# From -- ./inp_files/8717.got.cif
#   From: 2010.05.17/outbox.ucp.g08.bks.cvg/sg40_5_cif.got.tgz:8717.got - 2010.06.11 16:26:39.
