data_PCOD9365295
_publ_section_title
;
Structure prediction by ZEFSAII (Michael W. Deem and Ramdas Pophale) SiO2 
 PCOD9365295
Probable space group: A M A 2
;
_chemical_formula_sum "Si O2"
_cell_formula_units_Z 24
_cell_length_a 19.742976
_cell_length_b 7.029283
_cell_length_c 7.489209
_cell_angle_alpha 90.000000
_cell_angle_beta 90.000000
_cell_angle_gamma 90.000000
_cell_volume 1039.344678
_symmetry_space_group_name_H-M "A M A 2"
_symmetry_group_IT_number 40
_symmetry_cell_setting 'orthorhombic'
loop_
_space_group_symop_operation_xyz
x,y,z
-x,-y,z
1/2-x,y,z
1/2+x,-y,z
x,1/2+y,1/2+z
-x,1/2-y,1/2+z
1/2-x,1/2+y,1/2+z
1/2+x,1/2-y,1/2+z
loop_
_atom_site_type_symbol
_atom_site_label
_atom_site_fract_x
_atom_site_fract_y
_atom_site_fract_z
Si Si1 0.063190 0.864116 0.831900
Si Si2 0.827285 0.664715 0.062814
Si Si3 0.892447 0.018954 0.205039
O O1 0.127829 0.934208 0.717036
O O2 0.055334 0.647602 0.765694
O O3 0.080129 0.861893 0.040573
O O4 0.000000 0.000000 0.801002
O O5 0.750000 0.600844 0.055309
O O6 0.833061 0.885433 0.120972
O O7 0.865355 0.628055 0.876725
#
# Coordination Sequence:
#
# PCOD9365295 Si02
#       3
#     8   8   8
#     4  10  26  42  69  94 131 166 216 262 320 376
#     4  10  24  44  67  96 129 168 214 264 318 378
#     4  10  25  40  64  96 127 170 208 262 317 380
#
# _framework density 23.091472
#
# number of rings (size 3 to 8) (size 9 to 14) (size 15 to 20)
#    2.000    0.000    0.000    1.000    9.333    4.000 
#    0.000    0.000    0.000    0.000    0.000    0.000 
#    0.000    0.000    0.000    0.000    0.000    0.000 
#
# Total GULP energy -66993.634064 kJ/mol
# GULP energy per Si atom -5582.802839 kJ/mol
# Density = 2.303891 g / cm^3
# Si number density = 23.091472 Si / 1000 Ang^3
#
#
#
# Elastic Constant Matrix: (Units=GPa)
#
#
# Indices 1 2 3 4 5 6 
#
# 1 93.3040 11.8978 44.9573 0.0000 0.0000 0.0000
# 2 11.8978 56.5808 41.6434 0.0000 0.0000 0.0000
# 3 44.9573 41.6434 193.3362 0.0000 0.0000 0.0000
# 4 0.0000 0.0000 0.0000 34.3731 0.0000 0.0000
# 5 0.0000 0.0000 0.0000 0.0000 10.4038 0.0000
# 6 0.0000 0.0000 0.0000 0.0000 0.0000 10.5749
#
#
#
# Elastic Compliance Matrix: (Units=1/GPa)
#
#
# Indices 1 2 3 4 5 6 
#
# 1 0.012085 -0.000562 -0.002689 0.000000 0.000000 0.000000
# 2 -0.000562 0.021030 -0.004399 0.000000 0.000000 0.000000
# 3 -0.002689 -0.004399 0.006745 0.000000 0.000000 0.000000
# 4 0.000000 0.000000 0.000000 0.029092 0.000000 0.000000
# 5 0.000000 0.000000 0.000000 0.000000 0.096119 0.000000
# 6 0.000000 0.000000 0.000000 0.000000 0.000000 0.094564
#
#
# Mechanical properties :
#
#
# Convention : Reuss Voigt Hill
#
# Bulk Modulus (GPa) = 40.71728 60.02423 50.37076
# Shear Modulus (GPa) = 17.66022 27.38518 22.52270
#
# Velocity S-wave (km/s) = 2.76849 3.44749 3.12648
# Velocity P-wave (km/s) = 5.28117 6.47282 5.90712
#
# Compressibility (1/GPa) = 0.02455960
#
# Stress axis : x y z
#
# Youngs Moduli (GPa) = 82.74692 47.55188 148.25440
#
# Poissons Ratio (x) = 0.02673 0.39867
# Poissons Ratio (y) = 0.04651 0.65217
# Poissons Ratio (z) = 0.22252 0.20918
#
# Static dielectric constant tensor:
#      x y z
#    x 1.880880 0.000000 0.000000 
#    y 0.000000 1.897100 0.000000 
#    z 0.000000 0.000000 1.797490 
# 
# From -- ./inp_files/2046.got.cif
#   From: 2010.05.17/outbox.cif.g08.bks.cpg/sg40_2_cif.got.tgz:2046.got - 2010.06.03 18:35:42.
