data_PCOD9365362
_publ_section_title
;
Structure prediction by ZEFSAII (Michael W. Deem and Ramdas Pophale) SiO2 
 PCOD9365362
Probable space group: A M A 2
;
_chemical_formula_sum "Si O2"
_cell_formula_units_Z 48
_cell_length_a 16.173229
_cell_length_b 23.866692
_cell_length_c 5.749025
_cell_angle_alpha 90.000000
_cell_angle_beta 90.000000
_cell_angle_gamma 90.000000
_cell_volume 2219.132131
_symmetry_space_group_name_H-M "A M A 2"
_symmetry_group_IT_number 40
_symmetry_cell_setting 'orthorhombic'
loop_
_space_group_symop_operation_xyz
x,y,z
-x,-y,z
1/2-x,y,z
1/2+x,-y,z
x,1/2+y,1/2+z
-x,1/2-y,1/2+z
1/2-x,1/2+y,1/2+z
1/2+x,1/2-y,1/2+z
loop_
_atom_site_type_symbol
_atom_site_label
_atom_site_fract_x
_atom_site_fract_y
_atom_site_fract_z
Si Si1 0.078438 0.621815 0.726290
Si Si2 0.617363 0.629487 0.247613
Si Si3 0.451551 0.248260 0.256930
Si Si4 0.156708 0.022971 0.471684
Si Si5 0.537380 0.448304 0.346489
Si Si6 0.880100 0.589895 0.749471
O O1 0.090267 0.687388 0.746701
O O2 0.134127 0.585681 0.896251
O O3 0.098200 0.593243 0.480077
O O4 0.978936 0.607168 0.747341
O O5 0.602506 0.695716 0.258432
O O6 0.530524 0.594748 0.248827
O O7 0.652959 0.610914 0.499338
O O8 0.653700 0.615296 0.993441
O O9 0.498738 0.249012 0.508700
O O10 0.250000 0.017931 0.553783
O O11 0.088160 0.014480 0.666366
O O12 0.140638 0.975583 0.279336
O O13 0.500000 0.500000 0.496729
#
# Coordination Sequence:
#
# PCOD9365362 Si02
#       6
#     8   8   8   8   8   8
#     4  11  22  37  64  91 128 155 209 264 322 366
#     4  11  20  37  62  95 119 154 202 259 307 366
#     4  12  20  35  60 101 125 152 196 263 315 370
#     4  12  25  39  58  89 127 171 210 255 318 388
#     4  11  19  37  62  89 125 161 205 264 318 367
#     4  11  21  39  63  89 123 155 206 257 312 360
#
# _framework density 21.630078999999999
#
# number of rings (size 3 to 8) (size 9 to 14) (size 15 to 20)
#    0.000    0.667    8.333    2.500    0.000    0.667 
#    0.000    0.000    0.000    2.000    0.000    0.000 
#    0.000    0.000    0.000    0.000    0.000    0.000 
#
# Total GULP energy -133614.205327 kJ/mol
# GULP energy per Si atom -5567.258555 kJ/mol
# Density = 2.158085 g / cm^3
# Si number density = 21.630079 Si / 1000 Ang^3
#
#
#
# Elastic Constant Matrix: (Units=GPa)
#
#
# Indices 1 2 3 4 5 6 
#
# 1 67.7819 16.9604 4.3260 0.0000 0.0000 0.0000
# 2 16.9604 197.8804 38.2879 0.0000 0.0000 0.0000
# 3 4.3260 38.2879 158.3086 0.0000 0.0000 0.0000
# 4 0.0000 0.0000 0.0000 38.7981 0.0000 0.0000
# 5 0.0000 0.0000 0.0000 0.0000 -23.7188 0.0000
# 6 0.0000 0.0000 0.0000 0.0000 0.0000 3.7221
#
#
#
# Elastic Compliance Matrix: (Units=1/GPa)
#
#
# Indices 1 2 3 4 5 6 
#
# 1 0.015078 -0.001272 -0.000104 0.000000 0.000000 0.000000
# 2 -0.001272 0.005409 -0.001273 0.000000 0.000000 0.000000
# 3 -0.000104 -0.001273 0.006628 0.000000 0.000000 0.000000
# 4 0.000000 0.000000 0.000000 0.025774 0.000000 0.000000
# 5 0.000000 0.000000 0.000000 0.000000 -0.042161 0.000000
# 6 0.000000 0.000000 0.000000 0.000000 0.000000 0.268667
#
#
# Mechanical properties :
#
#
# Convention : Reuss Voigt Hill
#
# Bulk Modulus (GPa) = 45.84025 60.34661 53.09343
# Shear Modulus (GPa) = 17.12524 28.05338 22.58931
#
# Velocity S-wave (km/s) = 2.81683 3.60524 3.23514
# Velocity P-wave (km/s) = 5.64076 6.72981 6.20921
#
# Compressibility (1/GPa) = 0.02181489
#
# Stress axis : x y z
#
# Youngs Moduli (GPa) = 66.32101 184.87733 150.88379
#
# Poissons Ratio (x) = 0.23519 0.01574
# Poissons Ratio (y) = 0.08437 0.19214
# Poissons Ratio (z) = 0.00692 0.23543
#
# Static dielectric constant tensor:
#      x y z
#    x 1.689910 0.000000 0.000000 
#    y 0.000000 1.792790 0.000000 
#    z 0.000000 0.000000 1.994980 
# 
# From -- ./inp_files/1881.got.cif
#   From: 2010.05.17/outbox.cif.g08.bks.cpg/sg40_1_cif.got.tgz:1881.got - 2010.06.03 18:35:42.
