data_PCOD9365063
_publ_section_title
;
Structure prediction by ZEFSAII (Michael W. Deem and Ramdas Pophale) SiO2 
 PCOD9365063
Probable space group: A M A 2
;
_chemical_formula_sum "Si O2"
_cell_formula_units_Z 48
_cell_length_a 13.435271
_cell_length_b 28.306051
_cell_length_c 5.682861
_cell_angle_alpha 90.000000
_cell_angle_beta 90.000000
_cell_angle_gamma 90.000000
_cell_volume 2161.189004
_symmetry_space_group_name_H-M "A M A 2"
_symmetry_group_IT_number 40
_symmetry_cell_setting 'orthorhombic'
loop_
_space_group_symop_operation_xyz
x,y,z
-x,-y,z
1/2-x,y,z
1/2+x,-y,z
x,1/2+y,1/2+z
-x,1/2-y,1/2+z
1/2-x,1/2+y,1/2+z
1/2+x,1/2-y,1/2+z
loop_
_atom_site_type_symbol
_atom_site_label
_atom_site_fract_x
_atom_site_fract_y
_atom_site_fract_z
Si Si1 0.056622 0.302693 0.474190
Si Si2 0.635894 0.609975 0.179956
Si Si3 0.130357 0.044655 0.207087
Si Si4 0.366549 0.501127 0.215325
Si Si5 0.359377 0.711805 0.169517
Si Si6 0.544364 0.860654 0.360012
O O1 0.111833 0.348646 0.367201
O O2 0.128674 0.258440 0.509241
O O3 0.959295 0.288442 0.324985
O O4 0.008439 0.319347 0.716752
O O5 0.750000 0.616607 0.094008
O O6 0.627413 0.555287 0.252223
O O7 0.547765 0.616288 0.995329
O O8 0.250000 0.041152 0.205689
O O9 0.095298 0.098674 0.210930
O O10 0.098349 0.019911 0.456921
O O11 0.094332 0.024330 0.956205
O O12 0.250000 0.513109 0.209710
O O13 0.250000 0.712712 0.284817
O O14 0.373516 0.663677 0.023697
#
# Coordination Sequence:
#
# PCOD9365063 Si02
#       6
#     8   8   8   8   8   8
#     4  11  24  46  65 104 135 172 239 283 347 438
#     4  10  24  44  68  98 136 181 229 289 353 420
#     4  10  22  42  68 101 141 182 232 288 349 420
#     4   9  21  42  68 100 139 185 233 283 350 426
#     4  11  24  45  71  98 140 181 224 294 356 417
#     4  11  25  43  66 101 134 176 237 285 348 430
#
# _framework density 22.209994999999999
#
# number of rings (size 3 to 8) (size 9 to 14) (size 15 to 20)
#    0.000    1.667    1.667    1.000    7.000    3.333 
#    0.000    0.000    0.000    0.000    0.000    0.000 
#    0.000    0.000    0.000    0.000    0.000    0.000 
#
# Total GULP energy -133897.266168 kJ/mol
# GULP energy per Si atom -5579.052757 kJ/mol
# Density = 2.215944 g / cm^3
# Si number density = 22.209995 Si / 1000 Ang^3
#
#
#
# Elastic Constant Matrix: (Units=GPa)
#
#
# Indices 1 2 3 4 5 6 
#
# 1 95.0488 -1.2862 1.0745 0.0000 0.0000 0.0000
# 2 -1.2862 62.1833 9.8043 0.0000 0.0000 0.0000
# 3 1.0745 9.8043 62.2268 0.0000 0.0000 0.0000
# 4 0.0000 0.0000 0.0000 28.6834 0.0000 0.0000
# 5 0.0000 0.0000 0.0000 0.0000 -12.8442 0.0000
# 6 0.0000 0.0000 0.0000 0.0000 0.0000 29.1107
#
#
#
# Elastic Compliance Matrix: (Units=1/GPa)
#
#
# Indices 1 2 3 4 5 6 
#
# 1 0.010527 0.000253 -0.000222 0.000000 0.000000 0.000000
# 2 0.000253 0.016497 -0.002604 0.000000 0.000000 0.000000
# 3 -0.000222 -0.002604 0.016484 0.000000 0.000000 0.000000
# 4 0.000000 0.000000 0.000000 0.034863 0.000000 0.000000
# 5 0.000000 0.000000 0.000000 0.000000 -0.077856 0.000000
# 6 0.000000 0.000000 0.000000 0.000000 0.000000 0.034352
#
#
# Mechanical properties :
#
#
# Convention : Reuss Voigt Hill
#
# Bulk Modulus (GPa) = 26.06656 26.51598 26.29127
# Shear Modulus (GPa) = 94.69691 22.98107 58.83899
#
# Velocity S-wave (km/s) = 6.53679 3.22019 5.15263
# Velocity P-wave (km/s) = 8.29064 5.07847 6.87479
#
# Compressibility (1/GPa) = 0.03836333
#
# Stress axis : x y z
#
# Youngs Moduli (GPa) = 94.99531 60.61628 60.66378
#
# Poissons Ratio (x) = -0.01532 0.01344
# Poissons Ratio (y) = -0.02400 0.15795
# Poissons Ratio (z) = 0.02105 0.15782
#
# Static dielectric constant tensor:
#      x y z
#    x 1.804460 0.000000 0.000000 
#    y 0.000000 1.840710 0.000000 
#    z 0.000000 0.000000 1.880210 
# 
# From -- ./inp_files/1337.got.cif
#   From: 2010.05.17/outbox.cif.g08.bks.cpg/sg40_1_cif.got.tgz:1337.got - 2010.06.03 18:35:42.
