data_PCOD9365718
_publ_section_title
;
Structure prediction by ZEFSAII (Michael W. Deem and Ramdas Pophale) SiO2 
 PCOD9365718
Probable space group: A B A 2
;
_chemical_formula_sum "Si O2"
_cell_formula_units_Z 56
_cell_length_a 33.903193
_cell_length_b 13.909876
_cell_length_c 5.073724
_cell_angle_alpha 90.000000
_cell_angle_beta 90.000000
_cell_angle_gamma 90.000000
_cell_volume 2392.713496
_symmetry_space_group_name_H-M "A B A 2"
_symmetry_group_IT_number 41
_symmetry_cell_setting 'orthorhombic'
loop_
_space_group_symop_operation_xyz
x,y,z
-x,-y,z
1/2-x,y,1/2+z
1/2+x,-y,1/2+z
x,1/2+y,1/2+z
-x,1/2-y,1/2+z
1/2-x,1/2+y,z
1/2+x,1/2-y,z
loop_
_atom_site_type_symbol
_atom_site_label
_atom_site_fract_x
_atom_site_fract_y
_atom_site_fract_z
Si Si1 0.236166 0.677767 0.235660
Si Si2 0.424129 0.364142 0.092219
Si Si3 0.770537 0.039344 0.310264
Si Si4 0.585982 0.762606 0.583645
Si Si5 0.349680 0.626294 0.744833
Si Si6 0.994542 0.313807 0.470233
Si Si7 0.645012 0.494788 0.241233
O O1 0.236980 0.725482 0.518756
O O2 0.257859 0.574882 0.299187
O O3 0.190915 0.673205 0.150766
O O4 0.409643 0.284778 0.872597
O O5 0.468931 0.386540 0.001710
O O6 0.427307 0.321943 0.386410
O O7 0.391675 0.445833 0.129191
O O8 0.742079 0.078608 0.531996
O O9 0.816978 0.049341 0.361626
O O10 0.622285 0.806742 0.421920
O O11 0.549488 0.838012 0.567450
O O12 0.367511 0.576509 0.481617
O O13 0.337313 0.551670 0.974506
O O14 0.005845 0.226037 0.671827
#
# Coordination Sequence:
#
# PCOD9365718 Si02
#       7
#     8   8   8   8   8   8   8
#     4  10  16  30  49  76 100 144 191 223 253 335
#     4  10  21  38  58  82 112 147 187 234 285 344
#     4  10  16  30  49  76 100 144 191 223 253 335
#     4  10  21  38  58  82 112 147 187 234 285 344
#     4  12  21  33  57  88 111 142 191 241 280 330
#     4   8  16  34  59  76  99 148 190 208 262 360
#     4  12  21  33  57  88 111 142 191 241 280 330
#
# _framework density 23.404392999999999
#
# number of rings (size 3 to 8) (size 9 to 14) (size 15 to 20)
#    0.000    1.714    5.714    1.714    0.000    0.000 
#    0.000    0.714    0.000    6.857    0.000    0.000 
#    0.000    0.000    0.000    0.000    0.000    0.000 
#
# Total GULP energy -155899.957801 kJ/mol
# GULP energy per Si atom -5567.855636 kJ/mol
# Density = 2.335112 g / cm^3
# Si number density = 23.404393 Si / 1000 Ang^3
#
#
#
# Elastic Constant Matrix: (Units=GPa)
#
#
# Indices 1 2 3 4 5 6 
#
# 1 88.8938 12.9586 -0.8869 0.0000 0.0000 0.0000
# 2 12.9586 39.4079 2.4643 0.0000 0.0000 0.0000
# 3 -0.8869 2.4643 143.6815 0.0000 0.0000 0.0000
# 4 0.0000 0.0000 0.0000 4.7454 0.0000 0.0000
# 5 0.0000 0.0000 0.0000 0.0000 29.4135 0.0000
# 6 0.0000 0.0000 0.0000 0.0000 0.0000 17.6705
#
#
#
# Elastic Compliance Matrix: (Units=1/GPa)
#
#
# Indices 1 2 3 4 5 6 
#
# 1 0.011819 -0.003895 0.000140 0.000000 0.000000 0.000000
# 2 -0.003895 0.026687 -0.000482 0.000000 0.000000 0.000000
# 3 0.000140 -0.000482 0.006969 0.000000 0.000000 0.000000
# 4 0.000000 0.000000 0.000000 0.210729 0.000000 0.000000
# 5 0.000000 0.000000 0.000000 0.000000 0.033998 0.000000
# 6 0.000000 0.000000 0.000000 0.000000 0.000000 0.056592
#
#
# Mechanical properties :
#
#
# Convention : Reuss Voigt Hill
#
# Bulk Modulus (GPa) = 27.02704 33.45057 30.23881
# Shear Modulus (GPa) = 13.60173 27.52903 20.56538
#
# Velocity S-wave (km/s) = 2.41334 3.43335 2.96750
# Velocity P-wave (km/s) = 4.39756 5.48093 4.96886
#
# Compressibility (1/GPa) = 0.03699998
#
# Stress axis : x y z
#
# Youngs Moduli (GPa) = 84.61247 37.47204 143.49334
#
# Poissons Ratio (x) = 0.14596 -0.02005
# Poissons Ratio (y) = 0.32957 0.06913
# Poissons Ratio (z) = -0.01183 0.01805
#
# Static dielectric constant tensor:
#      x y z
#    x 1.958340 0.000000 0.000000 
#    y 0.000000 2.042010 0.000000 
#    z 0.000000 0.000000 1.979170 
# 
# From -- ./inp_files/1351.got.cif
#   From: 2010.05.17/outbox.cif.g08.bks.cpg/sg41_1_cif.got.tgz:1351.got - 2010.06.03 18:54:24.
