data_PCOD9365086
_publ_section_title
;
Structure prediction by ZEFSAII (Michael W. Deem and Ramdas Pophale) SiO2 
 PCOD9365086
Probable space group: A M A 2
;
_chemical_formula_sum "Si O2"
_cell_formula_units_Z 48
_cell_length_a 22.510465
_cell_length_b 12.180262
_cell_length_c 8.013496
_cell_angle_alpha 90.000000
_cell_angle_beta 90.000000
_cell_angle_gamma 90.000000
_cell_volume 2197.167270
_symmetry_space_group_name_H-M "A M A 2"
_symmetry_group_IT_number 40
_symmetry_cell_setting 'orthorhombic'
loop_
_space_group_symop_operation_xyz
x,y,z
-x,-y,z
1/2-x,y,z
1/2+x,-y,z
x,1/2+y,1/2+z
-x,1/2-y,1/2+z
1/2-x,1/2+y,1/2+z
1/2+x,1/2-y,1/2+z
loop_
_atom_site_type_symbol
_atom_site_label
_atom_site_fract_x
_atom_site_fract_y
_atom_site_fract_z
Si Si1 0.820181 0.501549 0.395760
Si Si2 0.925430 0.140240 0.394989
Si Si3 0.874408 0.218534 0.897245
Si Si4 0.004177 0.283735 0.210700
Si Si5 0.180688 0.239489 0.034385
Si Si6 0.098923 0.570041 0.097643
O O1 0.750000 0.515602 0.369125
O O2 0.847899 0.609386 0.479234
O O3 0.829467 0.389014 0.495835
O O4 0.855498 0.488207 0.221729
O O5 0.960237 0.208675 0.538439
O O6 0.859652 0.190240 0.407117
O O7 0.964930 0.174197 0.237562
O O8 0.923042 0.015519 0.457277
O O9 0.943079 0.204467 0.843900
O O10 0.838853 0.236661 0.724001
O O11 0.871066 0.325771 0.010433
O O12 0.956674 0.382559 0.202164
O O13 0.250000 0.263746 0.012569
#
# Coordination Sequence:
#
# PCOD9365086 Si02
#       6
#     8   8   8   8   8   8
#     4  11  24  43  67  91 126 174 222 272 321 382
#     4  11  23  40  68  96 132 168 212 266 324 389
#     4  11  25  40  65  95 132 172 211 272 327 390
#     4  11  22  39  63  99 129 165 209 263 325 392
#     4  10  22  43  64  90 128 171 217 264 323 380
#     4  12  24  41  68  96 130 168 218 264 329 392
#
# _framework density 21.846312000000001
#
# number of rings (size 3 to 8) (size 9 to 14) (size 15 to 20)
#    0.000    1.000    6.667    1.000    0.000    2.667 
#    0.000    1.667    0.000    0.000    0.000    0.000 
#    0.000    0.000    0.000    0.000    0.000    0.000 
#
# Total GULP energy -134159.669478 kJ/mol
# GULP energy per Si atom -5589.986228 kJ/mol
# Density = 2.179659 g / cm^3
# Si number density = 21.846312 Si / 1000 Ang^3
#
#
#
# Elastic Constant Matrix: (Units=GPa)
#
#
# Indices 1 2 3 4 5 6 
#
# 1 116.0302 48.5240 5.1504 0.0000 0.0000 0.0000
# 2 48.5240 134.4320 14.7891 0.0000 0.0000 0.0000
# 3 5.1504 14.7891 33.8744 0.0000 0.0000 0.0000
# 4 0.0000 0.0000 0.0000 35.3055 0.0000 0.0000
# 5 0.0000 0.0000 0.0000 0.0000 14.9598 0.0000
# 6 0.0000 0.0000 0.0000 0.0000 0.0000 27.9546
#
#
#
# Elastic Compliance Matrix: (Units=1/GPa)
#
#
# Indices 1 2 3 4 5 6 
#
# 1 0.010151 -0.003671 0.000059 0.000000 0.000000 0.000000
# 2 -0.003671 0.009141 -0.003433 0.000000 0.000000 0.000000
# 3 0.000059 -0.003433 0.031011 0.000000 0.000000 0.000000
# 4 0.000000 0.000000 0.000000 0.028324 0.000000 0.000000
# 5 0.000000 0.000000 0.000000 0.000000 0.066846 0.000000
# 6 0.000000 0.000000 0.000000 0.000000 0.000000 0.035772
#
#
# Mechanical properties :
#
#
# Convention : Reuss Voigt Hill
#
# Bulk Modulus (GPa) = 27.61351 46.80705 37.21028
# Shear Modulus (GPa) = 24.10743 30.03551 27.07147
#
# Velocity S-wave (km/s) = 3.32550 3.71193 3.52401
# Velocity P-wave (km/s) = 5.23571 6.31216 5.79896
#
# Compressibility (1/GPa) = 0.03621415
#
# Stress axis : x y z
#
# Youngs Moduli (GPa) = 98.51407 109.39427 32.24708
#
# Poissons Ratio (x) = 0.40153 -0.00191
# Poissons Ratio (y) = 0.36160 0.11070
# Poissons Ratio (z) = -0.00582 0.37553
#
# Static dielectric constant tensor:
#      x y z
#    x 1.788720 0.000000 0.000000 
#    y 0.000000 1.798220 0.000000 
#    z 0.000000 0.000000 1.870890 
# 
# From -- ./inp_files/8729.got.cif
#   From: 2010.05.17/outbox.cif.g08.bks.cpg/sg40_5_cif.got.tgz:8729.got - 2010.06.03 18:35:42.
