data_PCOD9365616
_publ_section_title
;
Structure prediction by ZEFSAII (Michael W. Deem and Ramdas Pophale) SiO2 
 PCOD9365616
Probable space group: A M A 2
;
_chemical_formula_sum "Si O2"
_cell_formula_units_Z 24
_cell_length_a 9.000000
_cell_length_b 15.000000
_cell_length_c 18.000000
_cell_angle_alpha 90.000000
_cell_angle_beta 90.000000
_cell_angle_gamma 90.000000
_cell_volume 2430.000000
_symmetry_space_group_name_H-M "A M A 2"
_symmetry_group_IT_number 40
_symmetry_cell_setting 'orthorhombic'
loop_
_space_group_symop_operation_xyz
x,y,z
-x,-y,z
1/2-x,y,z
1/2+x,-y,z
x,1/2+y,1/2+z
-x,1/2-y,1/2+z
1/2-x,1/2+y,1/2+z
1/2+x,1/2-y,1/2+z
loop_
_atom_site_type_symbol
_atom_site_label
_atom_site_fract_x
_atom_site_fract_y
_atom_site_fract_z
Si Si1 0.417172 0.412579 0.666550
Si Si2 0.927273 0.903004 0.371264
Si Si3 0.917358 0.090438 0.990147
Si Si4 0.571967 0.759383 0.245046
Si Si5 0.429037 0.208026 0.516973
Si Si6 0.569654 0.399849 0.167609
O O1 0.500000 0.500000 0.696705
O O2 0.250000 0.402875 0.697165
O O3 0.403455 0.424784 0.578597
O O4 0.514374 0.325283 0.680261
O O5 0.750000 0.914294 0.362794
O O6 0.969821 0.822549 0.315046
O O7 0.959309 0.862752 0.452206
O O8 0.000000 0.000000 0.361607
O O9 0.750000 0.093641 0.957439
O O10 0.983147 0.192436 0.990662
O O11 0.000000 0.000000 0.961759
O O12 0.750000 0.747914 0.243958
O O13 0.492666 0.664118 0.233682
O O14 0.250000 0.221139 0.524185
O O15 0.473829 0.157465 0.593262
O O16 0.500000 0.500000 0.167362
O O17 0.750000 0.405773 0.170394
#
# Coordination Sequence:
#
# PCOD9365616 Si02
#       6
#     8   8   8   8   8   8
#     4  10  18  30  50  78 110 146 183 230 283 333
#     4  10  22  39  60  85 117 154 192 236 289 347
#     4   9  17  31  51  78 109 143 182 227 281 331
#     4  11  22  36  55  83 115 152 191 233 286 346
#     4   9  18  37  60  83 116 154 191 236 290 343
#     4  11  22  39  62  87 114 150 194 243 294 345
#
# _framework density 9.8765429999999999
#
# number of rings (size 3 to 8) (size 9 to 14) (size 15 to 20)
#    0.000    2.000    1.667    2.500    0.000    3.333 
#    0.000    2.500    0.000    2.000    0.000    0.000 
#    0.000    0.000    0.000    0.000    0.000    0.000 
#
# Total GULP energy -133677.433142 kJ/mol
# GULP energy per Si atom -5569.893048 kJ/mol
# Density = 0.985406 g / cm^3
# Si number density = 9.876543 Si / 1000 Ang^3
#
#
#
# Elastic Constant Matrix: (Units=GPa)
#
#
# Indices 1 2 3 4 5 6 
#
# 1 60.9473 51.8794 17.5323 0.0000 0.0000 0.0000
# 2 51.8794 209.4930 40.1183 0.0000 0.0000 0.0000
# 3 17.5323 40.1183 51.8542 0.0000 0.0000 0.0000
# 4 0.0000 0.0000 0.0000 11.7607 0.0000 0.0000
# 5 0.0000 0.0000 0.0000 0.0000 11.3982 0.0000
# 6 0.0000 0.0000 0.0000 0.0000 0.0000 42.3553
#
#
#
# Elastic Compliance Matrix: (Units=1/GPa)
#
#
# Indices 1 2 3 4 5 6 
#
# 1 0.021371 -0.004588 -0.003676 0.000000 0.000000 0.000000
# 2 -0.004588 0.006589 -0.003546 0.000000 0.000000 0.000000
# 3 -0.003676 -0.003546 0.023271 0.000000 0.000000 0.000000
# 4 0.000000 0.000000 0.000000 0.085029 0.000000 0.000000
# 5 0.000000 0.000000 0.000000 0.000000 0.087733 0.000000
# 6 0.000000 0.000000 0.000000 0.000000 0.000000 0.023610
#
#
# Mechanical properties :
#
#
# Convention : Reuss Voigt Hill
#
# Bulk Modulus (GPa) = 36.21854 60.15049 48.18452
# Shear Modulus (GPa) = 17.82997 27.28714 22.55855
#
# Velocity S-wave (km/s) = 3.00766 3.72077 3.38305
# Velocity P-wave (km/s) = 5.51696 6.99829 6.30131
#
# Compressibility (1/GPa) = 0.02761017
#
# Stress axis : x y z
#
# Youngs Moduli (GPa) = 46.79307 151.77213 42.97152
#
# Poissons Ratio (x) = 0.69639 0.15795
# Poissons Ratio (y) = 0.21471 0.15239
# Poissons Ratio (z) = 0.17199 0.53822
#
# Static dielectric constant tensor:
#      x y z
#    x 1.698280 0.000000 0.000000 
#    y 0.000000 1.699760 0.000000 
#    z 0.000000 0.000000 1.785560 
# 
# From -- ./inp_files/19213.got.cif
#   From: 2010.05.17/outbox.ucp.g08.bks.cvg/sg40_10_cif.got.tgz:19213.got - 2010.06.11 16:26:39.
