data_PCOD9365180
_publ_section_title
;
Structure prediction by ZEFSAII (Michael W. Deem and Ramdas Pophale) SiO2 
 PCOD9365180
Probable space group: A M A 2
;
_chemical_formula_sum "Si O2"
_cell_formula_units_Z 40
_cell_length_a 14.907260
_cell_length_b 12.898173
_cell_length_c 6.697928
_cell_angle_alpha 90.000000
_cell_angle_beta 90.000000
_cell_angle_gamma 90.000000
_cell_volume 1287.853607
_symmetry_space_group_name_H-M "A M A 2"
_symmetry_group_IT_number 40
_symmetry_cell_setting 'orthorhombic'
loop_
_space_group_symop_operation_xyz
x,y,z
-x,-y,z
1/2-x,y,z
1/2+x,-y,z
x,1/2+y,1/2+z
-x,1/2-y,1/2+z
1/2-x,1/2+y,1/2+z
1/2+x,1/2-y,1/2+z
loop_
_atom_site_type_symbol
_atom_site_label
_atom_site_fract_x
_atom_site_fract_y
_atom_site_fract_z
Si Si1 0.144155 0.423970 0.631840
Si Si2 0.098027 0.944359 0.632652
Si Si3 0.148193 0.094805 0.884124
Si Si4 0.499466 0.745681 0.748652
Si Si5 0.648938 0.406786 0.882487
O O1 0.250000 0.393149 0.629266
O O2 0.136619 0.455358 0.893230
O O3 0.068054 0.336623 0.646120
O O4 0.135470 0.557666 0.632113
O O5 0.073354 0.822841 0.646671
O O6 0.133612 0.956564 0.875277
O O7 0.000000 0.000000 0.627343
O O8 0.250000 0.136103 0.904642
O O9 0.066806 0.175679 0.863216
O O10 0.151976 0.067961 0.632547
O O11 0.433809 0.672416 0.877981
O O12 0.750000 0.364077 0.861371
#
# Coordination Sequence:
#
# PCOD9365180 Si02
#       5
#     8   8   8   8   8
#     4  10  23  43  68 101 140 178 223 283 345 411
#     4  10  23  41  64  97 135 176 227 282 335 403
#     4  10  23  43  68 103 141 177 225 282 342 412
#     4  11  24  44  74 102 135 188 234 280 345 413
#     4  11  25  43  65  99 140 181 231 287 341 403
#
# _framework density 31.059431
#
# number of rings (size 3 to 8) (size 9 to 14) (size 15 to 20)
#    0.000    1.600    0.000    3.000    0.000   16.000 
#    0.000    8.000    0.000    4.800    0.000    0.000 
#    0.000    0.000    0.000    0.000    0.000    0.000 
#
# Total GULP energy -111782.667699 kJ/mol
# GULP energy per Si atom -5589.133385 kJ/mol
# Density = 3.098874 g / cm^3
# Si number density = 31.059431 Si / 1000 Ang^3
#
#
#
# Elastic Constant Matrix: (Units=GPa)
#
#
# Indices 1 2 3 4 5 6 
#
# 1 276.1940 110.7213 106.1434 0.0000 0.0000 0.0000
# 2 110.7213 186.3403 117.4959 0.0000 0.0000 0.0000
# 3 106.1434 117.4959 324.2259 0.0000 0.0000 0.0000
# 4 0.0000 0.0000 0.0000 119.4850 0.0000 0.0000
# 5 0.0000 0.0000 0.0000 0.0000 100.0715 0.0000
# 6 0.0000 0.0000 0.0000 0.0000 0.0000 32.4877
#
#
#
# Elastic Compliance Matrix: (Units=1/GPa)
#
#
# Indices 1 2 3 4 5 6 
#
# 1 0.004875 -0.002450 -0.000708 0.000000 0.000000 0.000000
# 2 -0.002450 0.008188 -0.002165 0.000000 0.000000 0.000000
# 3 -0.000708 -0.002165 0.004101 0.000000 0.000000 0.000000
# 4 0.000000 0.000000 0.000000 0.008369 0.000000 0.000000
# 5 0.000000 0.000000 0.000000 0.000000 0.009993 0.000000
# 6 0.000000 0.000000 0.000000 0.000000 0.000000 0.030781
#
#
# Mechanical properties :
#
#
# Convention : Reuss Voigt Hill
#
# Bulk Modulus (GPa) = 153.45025 161.72015 157.58520
# Shear Modulus (GPa) = 63.19143 80.56882 71.88013
#
# Velocity S-wave (km/s) = 4.51547 5.09868 4.81591
# Velocity P-wave (km/s) = 8.75777 9.31896 9.04272
#
# Compressibility (1/GPa) = 0.00651677
#
# Stress axis : x y z
#
# Youngs Moduli (GPa) = 205.12851 122.13731 243.86687
#
# Poissons Ratio (x) = 0.29926 0.17266
# Poissons Ratio (y) = 0.50261 0.52795
# Poissons Ratio (z) = 0.14523 0.26442
#
# Static dielectric constant tensor:
#      x y z
#    x 1.973800 0.000000 0.000000 
#    y 0.000000 2.301060 0.000000 
#    z 0.000000 0.000000 3.306100 
# 
# From -- ./inp_files/12035.got.cif
#   From: 2010.05.17/outbox.cif.g08.bks.cpg/sg40_7_cif.got.tgz:12035.got - 2010.06.03 18:35:42.
