data_PCOD9365907
_publ_section_title
;
Structure prediction by ZEFSAII (Michael W. Deem and Ramdas Pophale) SiO2 
 PCOD9365907
Probable space group: A B A 2
;
_chemical_formula_sum "Si O2"
_cell_formula_units_Z 52
_cell_length_a 22.599675
_cell_length_b 18.134207
_cell_length_c 5.404671
_cell_angle_alpha 90.000000
_cell_angle_beta 90.000000
_cell_angle_gamma 90.000000
_cell_volume 2214.981100
_symmetry_space_group_name_H-M "A B A 2"
_symmetry_group_IT_number 41
_symmetry_cell_setting 'orthorhombic'
loop_
_space_group_symop_operation_xyz
x,y,z
-x,-y,z
1/2-x,y,1/2+z
1/2+x,-y,1/2+z
x,1/2+y,1/2+z
-x,1/2-y,1/2+z
1/2-x,1/2+y,z
1/2+x,1/2-y,z
loop_
_atom_site_type_symbol
_atom_site_label
_atom_site_fract_x
_atom_site_fract_y
_atom_site_fract_z
Si Si1 0.278896 0.395974 0.931190
Si Si2 0.500000 0.000000 0.713563
Si Si3 0.231595 0.727317 0.415725
Si Si4 0.457308 0.303674 0.507823
Si Si5 0.915910 0.620594 0.507806
Si Si6 0.921528 0.390692 0.001942
Si Si7 0.110206 0.168098 0.003751
O O1 0.259084 0.425251 0.663422
O O2 0.263227 0.307497 0.911944
O O3 0.347877 0.405233 0.991146
O O4 0.464853 0.943274 0.540669
O O5 0.548040 0.964049 0.897379
O O6 0.256297 0.688563 0.657855
O O7 0.161589 0.727009 0.450221
O O8 0.427306 0.335233 0.755586
O O9 0.524014 0.332807 0.509617
O O10 0.449732 0.215950 0.511289
O O11 0.426096 0.333494 0.259342
O O12 0.880353 0.365452 0.774384
O O13 0.893993 0.388391 0.275021
#
# Coordination Sequence:
#
# PCOD9365907 Si02
#       7
#     8   4   8   8   8   8   8
#     4  10  19  34  57  91 122 157 210 269 336 393
#     4  10  26  46  66  94 132 188 242 276 322 394
#     4  10  19  33  55  85 121 157 198 254 330 407
#     4  11  21  37  60  94 128 160 205 266 342 405
#     4  11  22  39  66  93 130 174 221 280 333 396
#     4  11  24  39  60  89 126 172 214 260 323 397
#     4  12  22  37  61  93 129 160 205 273 345 405
#
# _framework density 23.476496999999998
#
# number of rings (size 3 to 8) (size 9 to 14) (size 15 to 20)
#    0.000    1.231    0.000    9.231    0.000    5.538 
#    0.000    0.000    0.000    5.538    0.000    0.000 
#    0.000    0.000    0.000    0.000    0.000    0.000 
#
# Total GULP energy -145336.557258 kJ/mol
# GULP energy per Si atom -5589.867587 kJ/mol
# Density = 2.342306 g / cm^3
# Si number density = 23.476497 Si / 1000 Ang^3
#
#
#
# Elastic Constant Matrix: (Units=GPa)
#
#
# Indices 1 2 3 4 5 6 
#
# 1 30.4203 -5.7214 -2.3237 0.0000 0.0000 0.0000
# 2 -5.7214 40.8773 17.0322 0.0000 0.0000 0.0000
# 3 -2.3237 17.0322 199.7917 0.0000 0.0000 0.0000
# 4 0.0000 0.0000 0.0000 19.4744 0.0000 0.0000
# 5 0.0000 0.0000 0.0000 0.0000 24.4745 0.0000
# 6 0.0000 0.0000 0.0000 0.0000 0.0000 16.1793
#
#
#
# Elastic Compliance Matrix: (Units=1/GPa)
#
#
# Indices 1 2 3 4 5 6 
#
# 1 0.033762 0.004730 -0.000011 0.000000 0.000000 0.000000
# 2 0.004730 0.026027 -0.002164 0.000000 0.000000 0.000000
# 3 -0.000011 -0.002164 0.005190 0.000000 0.000000 0.000000
# 4 0.000000 0.000000 0.000000 0.051350 0.000000 0.000000
# 5 0.000000 0.000000 0.000000 0.000000 0.040859 0.000000
# 6 0.000000 0.000000 0.000000 0.000000 0.000000 0.061807
#
#
# Mechanical properties :
#
#
# Convention : Reuss Voigt Hill
#
# Bulk Modulus (GPa) = 14.26752 32.11816 23.19284
# Shear Modulus (GPa) = 21.07518 29.49912 25.28715
#
# Velocity S-wave (km/s) = 2.99944 3.54861 3.28552
# Velocity P-wave (km/s) = 4.25277 5.52276 4.92884
#
# Compressibility (1/GPa) = 0.07008924
#
# Stress axis : x y z
#
# Youngs Moduli (GPa) = 29.61950 38.42151 192.69483
#
# Poissons Ratio (x) = -0.18173 0.00203
# Poissons Ratio (y) = -0.14010 0.41695
# Poissons Ratio (z) = 0.00031 0.08314
#
# Static dielectric constant tensor:
#      x y z
#    x 1.923270 0.000000 0.000000 
#    y 0.000000 1.952200 0.000000 
#    z 0.000000 0.000000 1.959930 
# 
# From -- ./inp_files/715.got.cif
#   From: 2010.05.17/outbox.cif.g08.bks.cpg/sg41_1_cif.got.tgz:715.got - 2010.06.03 18:54:24.
