data_PCOD9365346
_publ_section_title
;
Structure prediction by ZEFSAII (Michael W. Deem and Ramdas Pophale) SiO2 
 PCOD9365346
Probable space group: A M A 2
;
_chemical_formula_sum "Si O2"
_cell_formula_units_Z 32
_cell_length_a 30.271012
_cell_length_b 8.444708
_cell_length_c 4.945363
_cell_angle_alpha 90.000000
_cell_angle_beta 90.000000
_cell_angle_gamma 90.000000
_cell_volume 1264.182438
_symmetry_space_group_name_H-M "A M A 2"
_symmetry_group_IT_number 40
_symmetry_cell_setting 'orthorhombic'
loop_
_space_group_symop_operation_xyz
x,y,z
-x,-y,z
1/2-x,y,z
1/2+x,-y,z
x,1/2+y,1/2+z
-x,1/2-y,1/2+z
1/2-x,1/2+y,1/2+z
1/2+x,1/2-y,1/2+z
loop_
_atom_site_type_symbol
_atom_site_label
_atom_site_fract_x
_atom_site_fract_y
_atom_site_fract_z
Si Si1 0.560151 0.231406 0.394870
Si Si2 0.250000 0.243590 0.884830
Si Si3 0.620108 0.269319 0.894538
Si Si4 0.500000 0.000000 0.698187
Si Si5 0.681288 0.518215 0.161905
O O1 0.597542 0.286744 0.603941
O O2 0.521745 0.361871 0.373401
O O3 0.538153 0.073851 0.511691
O O4 0.582803 0.215852 0.104953
O O5 0.288109 0.373022 0.974212
O O6 0.288348 0.112194 0.805732
O O7 0.657797 0.136509 0.869507
O O8 0.643503 0.427805 0.996367
#
# Coordination Sequence:
#
# PCOD9365346 Si02
#       5
#     8   4   8   4   8
#     4  12  30  52  80 115 155 204 257 317 384 456
#     4  10  26  48  76 112 152 200 252 312 380 452
#     4  12  29  51  80 115 155 204 257 317 382 455
#     4  12  30  52  78 114 156 202 256 318 382 456
#     4  11  27  48  77 111 154 198 254 313 379 452
#
# _framework density 25.312801
#
# number of rings (size 3 to 8) (size 9 to 14) (size 15 to 20)
#    0.000    0.500    0.000    4.500    0.000   35.000 
#    0.000    0.000    0.000    0.000    0.000    0.000 
#    0.000    0.000    0.000    0.000    0.000    0.000 
#
# Total GULP energy -89423.147218 kJ/mol
# GULP energy per Si atom -5588.946701 kJ/mol
# Density = 2.525519 g / cm^3
# Si number density = 25.312801 Si / 1000 Ang^3
#
#
#
# Elastic Constant Matrix: (Units=GPa)
#
#
# Indices 1 2 3 4 5 6 
#
# 1 117.7692 28.5471 19.2358 0.0000 0.0000 0.0000
# 2 28.5471 132.9736 30.0642 0.0000 0.0000 0.0000
# 3 19.2358 30.0642 63.2131 0.0000 0.0000 0.0000
# 4 0.0000 0.0000 0.0000 42.2625 0.0000 0.0000
# 5 0.0000 0.0000 0.0000 0.0000 -370.2121 0.0000
# 6 0.0000 0.0000 0.0000 0.0000 0.0000 57.4096
#
#
#
# Elastic Compliance Matrix: (Units=1/GPa)
#
#
# Indices 1 2 3 4 5 6 
#
# 1 0.009196 -0.001503 -0.002083 0.000000 0.000000 0.000000
# 2 -0.001503 0.008672 -0.003667 0.000000 0.000000 0.000000
# 3 -0.002083 -0.003667 0.018198 0.000000 0.000000 0.000000
# 4 0.000000 0.000000 0.000000 0.023662 0.000000 0.000000
# 5 0.000000 0.000000 0.000000 0.000000 -0.002701 0.000000
# 6 0.000000 0.000000 0.000000 0.000000 0.000000 0.017419
#
#
# Mechanical properties :
#
#
# Convention : Reuss Voigt Hill
#
# Bulk Modulus (GPa) = 46.38591 52.18335 49.28463
# Shear Modulus (GPa) = 52.00864 -38.36739 6.82062
#
# Velocity S-wave (km/s) = 4.53773 -3.89746 1.64328
# Velocity P-wave (km/s) = 6.76901 0.63760 4.80760
#
# Compressibility (1/GPa) = 0.02155827
#
# Stress axis : x y z
#
# Youngs Moduli (GPa) = 108.74490 115.31263 54.95246
#
# Poissons Ratio (x) = 0.17333 0.11449
# Poissons Ratio (y) = 0.16346 0.20151
# Poissons Ratio (z) = 0.22656 0.42286
#
# Static dielectric constant tensor:
#      x y z
#    x 1.935660 0.000000 0.000000 
#    y 0.000000 1.925580 0.000000 
#    z 0.000000 0.000000 1.972580 
# 
# From -- ./inp_files/3270.got.cif
#   From: 2010.05.17/outbox.cif.g08.bks.cpg/sg40_2_cif.got.tgz:3270.got - 2010.06.03 18:35:42.
