data_PCOD9365557
_publ_section_title
;
Structure prediction by ZEFSAII (Michael W. Deem and Ramdas Pophale) SiO2 
 PCOD9365557
Probable space group: A M A 2
;
_chemical_formula_sum "Si O2"
_cell_formula_units_Z 28
_cell_length_a 9.741549
_cell_length_b 15.328335
_cell_length_c 8.251727
_cell_angle_alpha 90.000000
_cell_angle_beta 90.000000
_cell_angle_gamma 90.000000
_cell_volume 1232.162122
_symmetry_space_group_name_H-M "A M A 2"
_symmetry_group_IT_number 40
_symmetry_cell_setting 'orthorhombic'
loop_
_space_group_symop_operation_xyz
x,y,z
-x,-y,z
1/2-x,y,z
1/2+x,-y,z
x,1/2+y,1/2+z
-x,1/2-y,1/2+z
1/2-x,1/2+y,1/2+z
1/2+x,1/2-y,1/2+z
loop_
_atom_site_type_symbol
_atom_site_label
_atom_site_fract_x
_atom_site_fract_y
_atom_site_fract_z
Si Si1 0.750000 0.272524 0.207520
Si Si2 0.250000 0.210387 0.071148
Si Si3 0.750000 0.120374 0.791818
Si Si4 0.500000 0.500000 0.836538
Si Si5 0.952938 0.637748 0.577139
Si Si6 0.250000 0.543466 0.058162
O O1 0.750000 0.246156 0.394362
O O2 0.881267 0.228763 0.123600
O O3 0.750000 0.375135 0.179702
O O4 0.250000 0.284186 0.209198
O O5 0.385506 0.151995 0.074872
O O6 0.750000 0.046715 0.656191
O O7 0.882402 0.110648 0.908920
O O8 0.574749 0.568332 0.717989
O O9 0.385831 0.545934 0.947366
#
# Coordination Sequence:
#
# PCOD9365557 Si02
#       6
#     4   4   4   4   8   4
#     4  11  28  47  72 108 146 195 244 308 375 445
#     4  12  25  44  79 106 146 193 248 309 372 453
#     4  11  27  48  73 109 153 194 247 310 372 444
#     4  12  28  50  76 108 152 200 252 308 376 440
#     4  11  27  47  76 107 151 193 251 305 374 441
#     4  12  30  47  78 107 151 198 255 309 377 438
#
# _framework density 22.724283
#
# number of rings (size 3 to 8) (size 9 to 14) (size 15 to 20)
#    0.000    0.571    0.000    6.000   24.000    0.000 
#    0.000    0.000    0.000    0.000    0.000    0.000 
#    0.000    0.000    0.000    0.000    0.000    0.000 
#
# Total GULP energy -78449.394801 kJ/mol
# GULP energy per Si atom -5603.528200 kJ/mol
# Density = 2.267256 g / cm^3
# Si number density = 22.724283 Si / 1000 Ang^3
#
#
#
# Elastic Constant Matrix: (Units=GPa)
#
#
# Indices 1 2 3 4 5 6 
#
# 1 139.4705 11.3593 25.7662 0.0000 0.0000 0.0000
# 2 11.3593 70.2215 21.0204 0.0000 0.0000 0.0000
# 3 25.7662 21.0204 120.7924 0.0000 0.0000 0.0000
# 4 0.0000 0.0000 0.0000 50.3836 0.0000 0.0000
# 5 0.0000 0.0000 0.0000 0.0000 29.8595 0.0000
# 6 0.0000 0.0000 0.0000 0.0000 0.0000 15.6613
#
#
#
# Elastic Compliance Matrix: (Units=1/GPa)
#
#
# Indices 1 2 3 4 5 6 
#
# 1 0.007504 -0.000775 -0.001466 0.000000 0.000000 0.000000
# 2 -0.000775 0.015103 -0.002463 0.000000 0.000000 0.000000
# 3 -0.001466 -0.002463 0.009020 0.000000 0.000000 0.000000
# 4 0.000000 0.000000 0.000000 0.019848 0.000000 0.000000
# 5 0.000000 0.000000 0.000000 0.000000 0.033490 0.000000
# 6 0.000000 0.000000 0.000000 0.000000 0.000000 0.063852
#
#
# Mechanical properties :
#
#
# Convention : Reuss Voigt Hill
#
# Bulk Modulus (GPa) = 45.00551 49.64180 47.32366
# Shear Modulus (GPa) = 30.18762 37.33677 33.76220
#
# Velocity S-wave (km/s) = 3.64872 4.05783 3.85870
# Velocity P-wave (km/s) = 6.13179 6.62173 6.38147
#
# Compressibility (1/GPa) = 0.02221950
#
# Stress axis : x y z
#
# Youngs Moduli (GPa) = 133.26411 66.21066 110.86547
#
# Poissons Ratio (x) = 0.05132 0.16250
# Poissons Ratio (y) = 0.10329 0.27306
# Poissons Ratio (z) = 0.19534 0.16307
#
# Static dielectric constant tensor:
#      x y z
#    x 1.830000 0.000000 0.000000 
#    y 0.000000 1.788030 0.000000 
#    z 0.000000 0.000000 1.830770 
# 
# From -- ./inp_files/3997.got.cif
#   From: 2010.05.17/outbox.cif.g08.bks.cpg/sg40_2_cif.got.tgz:3997.got - 2010.06.03 18:35:42.
