data_PCOD9365008
_publ_section_title
;
Structure prediction by ZEFSAII (Michael W. Deem and Ramdas Pophale) SiO2 
 PCOD9365008
Probable space group: A M A 2
;
_chemical_formula_sum "Si O2"
_cell_formula_units_Z 48
_cell_length_a 16.026664
_cell_length_b 8.706892
_cell_length_c 15.436002
_cell_angle_alpha 90.000000
_cell_angle_beta 90.000000
_cell_angle_gamma 90.000000
_cell_volume 2153.977268
_symmetry_space_group_name_H-M "A M A 2"
_symmetry_group_IT_number 40
_symmetry_cell_setting 'orthorhombic'
loop_
_space_group_symop_operation_xyz
x,y,z
-x,-y,z
1/2-x,y,z
1/2+x,-y,z
x,1/2+y,1/2+z
-x,1/2-y,1/2+z
1/2-x,1/2+y,1/2+z
1/2+x,1/2-y,1/2+z
loop_
_atom_site_type_symbol
_atom_site_label
_atom_site_fract_x
_atom_site_fract_y
_atom_site_fract_z
Si Si1 0.154647 0.876954 0.750000
Si Si2 0.158629 0.180015 0.674244
Si Si3 0.654647 0.376954 0.408570
Si Si4 0.658629 0.180015 0.984326
Si Si5 0.010224 0.817662 0.481198
Si Si6 0.989776 0.317662 0.677372
O O1 0.250000 0.820746 0.753343
O O2 0.087042 0.746939 0.733351
O O3 0.148362 0.997051 0.670069
O O4 0.141640 1.000000 0.829285
O O5 0.250000 0.210672 0.714581
O O6 0.161342 0.250000 0.579285
O O7 0.076437 0.251001 0.715847
O O8 0.750000 0.320746 0.405227
O O9 0.648362 0.497051 0.488501
O O10 0.587042 0.246939 0.425218
O O11 0.750000 0.210671 0.943988
O O12 0.576437 0.251001 0.942723
O O13 0.018214 0.750000 0.579285
O O14 0.000000 0.000000 0.484202
O O15 0.000000 0.500000 0.674367
#
# Coordination Sequence:
#
# PCOD9365008 Si02
#       6
#     8   8   8   8   8   8
#     4  10  22  41  64  89 122 164 208 259 317 374
#     4   9  18  35  58  83 116 158 201 248 302 361
#     4  10  22  41  64  89 122 164 208 259 317 374
#     4   9  18  35  58  83 116 158 201 248 302 361
#     4  11  22  37  62  94 126 163 210 260 311 375
#     4  11  22  37  62  94 126 163 210 260 311 375
#
# _framework density 22.284358000000001
#
# number of rings (size 3 to 8) (size 9 to 14) (size 15 to 20)
#    0.000    2.000    0.000    5.000    0.000    4.667 
#    0.000    3.333    0.000    6.000    0.000    0.000 
#    0.000    0.000    0.000    0.000    0.000    0.000 
#
# Total GULP energy -133875.631542 kJ/mol
# GULP energy per Si atom -5578.151314 kJ/mol
# Density = 2.223364 g / cm^3
# Si number density = 22.284358 Si / 1000 Ang^3
#
#
#
# Elastic Constant Matrix: (Units=GPa)
#
#
# Indices 1 2 3 4 5 6 
#
# 1 245.2169 116.3987 40.2443 0.0000 0.0000 0.0000
# 2 116.3987 149.8036 40.7107 0.0000 0.0000 0.0000
# 3 40.2443 40.7107 76.7341 0.0000 0.0000 0.0000
# 4 0.0000 0.0000 0.0000 30.7233 0.0000 0.0000
# 5 0.0000 0.0000 0.0000 0.0000 6.0632 0.0000
# 6 0.0000 0.0000 0.0000 0.0000 0.0000 38.4659
#
#
#
# Elastic Compliance Matrix: (Units=1/GPa)
#
#
# Indices 1 2 3 4 5 6 
#
# 1 0.006509 -0.004825 -0.000854 0.000000 0.000000 0.000000
# 2 -0.004825 0.011377 -0.003505 0.000000 0.000000 0.000000
# 3 -0.000854 -0.003505 0.015339 0.000000 0.000000 0.000000
# 4 0.000000 0.000000 0.000000 0.032549 0.000000 0.000000
# 5 0.000000 0.000000 0.000000 0.000000 0.164930 0.000000
# 6 0.000000 0.000000 0.000000 0.000000 0.000000 0.025997
#
#
# Mechanical properties :
#
#
# Convention : Reuss Voigt Hill
#
# Bulk Modulus (GPa) = 67.30899 96.27355 81.79127
# Shear Modulus (GPa) = 17.85580 33.34389 25.59984
#
# Velocity S-wave (km/s) = 2.83374 3.87239 3.39304
# Velocity P-wave (km/s) = 6.40132 7.95550 7.22035
#
# Compressibility (1/GPa) = 0.01485686
#
# Stress axis : x y z
#
# Youngs Moduli (GPa) = 153.64486 87.89439 65.19143
#
# Poissons Ratio (x) = 0.42411 0.05564
# Poissons Ratio (y) = 0.74137 0.22853
# Poissons Ratio (z) = 0.13114 0.30811
#
# Static dielectric constant tensor:
#      x y z
#    x 1.871210 0.000000 0.000000 
#    y 0.000000 1.789410 0.000000 
#    z 0.000000 0.000000 1.966850 
# 
# From -- ./inp_files/20575.got.cif
#   From: 2010.05.17/outbox.cif.g08.bks.cpg/sg40_11_cif.got.tgz:20575.got - 2010.06.03 18:35:42.
