data_PCOD9365106
_publ_section_title
;
Structure prediction by ZEFSAII (Michael W. Deem and Ramdas Pophale) SiO2 
 PCOD9365106
Probable space group: A M A 2
;
_chemical_formula_sum "Si O2"
_cell_formula_units_Z 40
_cell_length_a 15.240150
_cell_length_b 19.993067
_cell_length_c 5.337409
_cell_angle_alpha 90.000000
_cell_angle_beta 90.000000
_cell_angle_gamma 90.000000
_cell_volume 1626.294325
_symmetry_space_group_name_H-M "A M A 2"
_symmetry_group_IT_number 40
_symmetry_cell_setting 'orthorhombic'
loop_
_space_group_symop_operation_xyz
x,y,z
-x,-y,z
1/2-x,y,z
1/2+x,-y,z
x,1/2+y,1/2+z
-x,1/2-y,1/2+z
1/2-x,1/2+y,1/2+z
1/2+x,1/2-y,1/2+z
loop_
_atom_site_type_symbol
_atom_site_label
_atom_site_fract_x
_atom_site_fract_y
_atom_site_fract_z
Si Si1 0.990605 0.179380 0.841630
Si Si2 0.846036 0.124850 0.189564
Si Si3 0.058459 0.562235 0.069168
Si Si4 0.149950 0.252208 0.059362
Si Si5 0.652043 0.467955 0.597246
O O1 0.000882 0.126855 0.619425
O O2 0.089242 0.204504 0.889065
O O3 0.919942 0.237236 0.782879
O O4 0.937278 0.141192 0.055067
O O5 0.750000 0.139477 0.055577
O O6 0.841982 0.175186 0.424326
O O7 0.846682 0.044474 0.201048
O O8 0.097367 0.541707 0.342092
O O9 0.000000 0.500000 0.986424
O O10 0.122811 0.574576 0.837593
O O11 0.250000 0.230041 0.110929
O O12 0.750000 0.449902 0.523583
#
# Coordination Sequence:
#
# PCOD9365106 Si02
#       5
#     8   8   8   8   8
#     4  12  24  43  72  99 142 188 235 299 367 420
#     4  10  22  43  70  99 133 184 240 290 351 432
#     4  12  25  42  72 103 144 184 240 290 366 434
#     4  11  25  44  69 101 136 182 243 298 362 432
#     4  11  25  45  69 103 143 188 239 299 358 434
#
# _framework density 24.595794999999999
#
# number of rings (size 3 to 8) (size 9 to 14) (size 15 to 20)
#    0.000    0.800    4.000    3.000    2.800    1.600 
#    0.000    0.000    0.000    0.000    0.000    0.000 
#    0.000    0.000    0.000    0.000    0.000    0.000 
#
# Total GULP energy -111622.248386 kJ/mol
# GULP energy per Si atom -5581.112419 kJ/mol
# Density = 2.453981 g / cm^3
# Si number density = 24.595795 Si / 1000 Ang^3
#
#
#
# Elastic Constant Matrix: (Units=GPa)
#
#
# Indices 1 2 3 4 5 6 
#
# 1 184.0037 47.7579 9.0996 0.0000 0.0000 0.0000
# 2 47.7579 45.9131 1.7280 0.0000 0.0000 0.0000
# 3 9.0996 1.7280 43.2905 0.0000 0.0000 0.0000
# 4 0.0000 0.0000 0.0000 16.7363 0.0000 0.0000
# 5 0.0000 0.0000 0.0000 0.0000 -70.8378 0.0000
# 6 0.0000 0.0000 0.0000 0.0000 0.0000 28.6290
#
#
#
# Elastic Compliance Matrix: (Units=1/GPa)
#
#
# Indices 1 2 3 4 5 6 
#
# 1 0.007514 -0.007768 -0.001269 0.000000 0.000000 0.000000
# 2 -0.007768 0.029843 0.000442 0.000000 0.000000 0.000000
# 3 -0.001269 0.000442 0.023349 0.000000 0.000000 0.000000
# 4 0.000000 0.000000 0.000000 0.059750 0.000000 0.000000
# 5 0.000000 0.000000 0.000000 0.000000 -0.014117 0.000000
# 6 0.000000 0.000000 0.000000 0.000000 0.000000 0.034930
#
#
# Mechanical properties :
#
#
# Convention : Reuss Voigt Hill
#
# Bulk Modulus (GPa) = 22.98057 43.37538 33.17797
# Shear Modulus (GPa) = 28.90757 9.21361 19.06059
#
# Velocity S-wave (km/s) = 3.43199 1.93756 2.78682
# Velocity P-wave (km/s) = 5.00683 4.76226 4.88607
#
# Compressibility (1/GPa) = 0.04351502
#
# Stress axis : x y z
#
# Youngs Moduli (GPa) = 133.09327 33.50826 42.82848
#
# Poissons Ratio (x) = 0.26028 0.05436
# Poissons Ratio (y) = 1.03382 -0.01891
# Poissons Ratio (z) = 0.16893 -0.01479
#
# Static dielectric constant tensor:
#      x y z
#    x 2.038260 0.000000 0.000000 
#    y 0.000000 1.988020 0.000000 
#    z 0.000000 0.000000 2.085120 
# 
# From -- ./inp_files/1214.got.cif
#   From: 2010.05.17/outbox.cif.g08.bks.cpg/sg40_1_cif.got.tgz:1214.got - 2010.06.03 18:35:42.
