data_PCOD9365653
_publ_section_title
;
Structure prediction by ZEFSAII (Michael W. Deem and Ramdas Pophale) SiO2 
 PCOD9365653
Probable space group: A M A 2
;
_chemical_formula_sum "Si O2"
_cell_formula_units_Z 28
_cell_length_a 9.000000
_cell_length_b 15.000000
_cell_length_c 21.000000
_cell_angle_alpha 90.000000
_cell_angle_beta 90.000000
_cell_angle_gamma 90.000000
_cell_volume 2835.000000
_symmetry_space_group_name_H-M "A M A 2"
_symmetry_group_IT_number 40
_symmetry_cell_setting 'orthorhombic'
loop_
_space_group_symop_operation_xyz
x,y,z
-x,-y,z
1/2-x,y,z
1/2+x,-y,z
x,1/2+y,1/2+z
-x,1/2-y,1/2+z
1/2-x,1/2+y,1/2+z
1/2+x,1/2-y,1/2+z
loop_
_atom_site_type_symbol
_atom_site_label
_atom_site_fract_x
_atom_site_fract_y
_atom_site_fract_z
Si Si1 0.081441 0.281258 0.832240
Si Si2 0.926085 0.092420 0.818775
Si Si3 0.916296 0.856834 0.216274
Si Si4 0.428095 0.909082 0.089311
Si Si5 0.587096 0.149534 0.677084
Si Si6 0.076151 0.206486 0.559275
Si Si7 0.582638 0.591698 0.953061
O O1 0.250000 0.263297 0.809278
O O2 0.086329 0.338741 0.895490
O O3 0.000662 0.185557 0.841051
O O4 0.997718 0.345952 0.782878
O O5 0.750000 0.093741 0.833067
O O6 0.942641 0.097077 0.741808
O O7 0.000000 0.000000 0.841688
O O8 0.750000 0.895567 0.219839
O O9 0.901140 0.753076 0.197026
O O10 0.014009 0.902000 0.161945
O O11 0.250000 0.915645 0.086731
O O12 0.473087 0.811388 0.061123
O O13 0.500000 0.000000 0.061651
O O14 0.750000 0.122599 0.651325
O O15 0.460241 0.155112 0.624972
O O16 0.250000 0.208749 0.547807
O O17 0.995380 0.147307 0.507910
O O18 0.500000 0.500000 0.937555
O O19 0.750000 0.568346 0.971802
#
# Coordination Sequence:
#
# PCOD9365653 Si02
#       7
#     8   8   8   8   8   8   8
#     4  10  21  38  58  82 113 149 189 234 281 332
#     4  10  20  34  56  86 118 153 188 228 278 333
#     4   9  17  31  53  80 111 147 182 223 273 324
#     4  10  20  34  55  85 118 152 187 227 276 333
#     4   8  16  31  51  77 110 146 182 220 268 321
#     4  10  21  37  58  83 113 148 187 233 281 328
#     4  11  25  43  63  83 106 141 185 233 283 333
#
# _framework density 9.8765429999999999
#
# number of rings (size 3 to 8) (size 9 to 14) (size 15 to 20)
#    0.000    2.286    0.000    3.429    0.000    9.143 
#    0.000    3.571    0.000    1.714    0.000    0.000 
#    0.000    0.000    0.000    0.000    0.000    0.000 
#
# Total GULP energy -156007.819513 kJ/mol
# GULP energy per Si atom -5571.707840 kJ/mol
# Density = 0.985406 g / cm^3
# Si number density = 9.876543 Si / 1000 Ang^3
#
#
#
# Elastic Constant Matrix: (Units=GPa)
#
#
# Indices 1 2 3 4 5 6 
#
# 1 94.3945 45.5161 24.8632 0.0000 0.0000 0.0000
# 2 45.5161 109.8007 8.1743 0.0000 0.0000 0.0000
# 3 24.8632 8.1743 30.8858 0.0000 0.0000 0.0000
# 4 0.0000 0.0000 0.0000 15.2876 0.0000 0.0000
# 5 0.0000 0.0000 0.0000 0.0000 4.7206 0.0000
# 6 0.0000 0.0000 0.0000 0.0000 0.0000 39.2607
#
#
#
# Elastic Compliance Matrix: (Units=1/GPa)
#
#
# Indices 1 2 3 4 5 6 
#
# 1 0.016585 -0.005999 -0.011763 0.000000 0.000000 0.000000
# 2 -0.005999 0.011461 0.001796 0.000000 0.000000 0.000000
# 3 -0.011763 0.001796 0.041371 0.000000 0.000000 0.000000
# 4 0.000000 0.000000 0.000000 0.065413 0.000000 0.000000
# 5 0.000000 0.000000 0.000000 0.000000 0.211835 0.000000
# 6 0.000000 0.000000 0.000000 0.000000 0.000000 0.025471
#
#
# Mechanical properties :
#
#
# Convention : Reuss Voigt Hill
#
# Bulk Modulus (GPa) = 26.67771 43.57644 35.12708
# Shear Modulus (GPa) = 12.00299 22.28894 17.14596
#
# Velocity S-wave (km/s) = 2.46773 3.36278 2.94940
# Velocity P-wave (km/s) = 4.65344 6.09805 5.42405
#
# Compressibility (1/GPa) = 0.03748448
#
# Stress axis : x y z
#
# Youngs Moduli (GPa) = 60.29527 87.25535 24.17135
#
# Poissons Ratio (x) = 0.52347 0.28433
# Poissons Ratio (y) = 0.36173 -0.04342
# Poissons Ratio (z) = 0.70927 -0.15674
#
# Static dielectric constant tensor:
#      x y z
#    x 1.725690 0.000000 0.000000 
#    y 0.000000 1.680880 0.000000 
#    z 0.000000 0.000000 1.745590 
# 
# From -- ./inp_files/22127.got.cif
#   From: 2010.05.17/outbox.ucp.g08.bks.cvg/sg40_12_cif.got.tgz:22127.got - 2010.06.11 16:26:39.
