data_PCOD9365716
_publ_section_title
;
Structure prediction by ZEFSAII (Michael W. Deem and Ramdas Pophale) SiO2 
 PCOD9365716
Probable space group: A B A 2
;
_chemical_formula_sum "Si O2"
_cell_formula_units_Z 48
_cell_length_a 5.353623
_cell_length_b 27.559900
_cell_length_c 14.535760
_cell_angle_alpha 90.000000
_cell_angle_beta 90.000000
_cell_angle_gamma 90.000000
_cell_volume 2144.683281
_symmetry_space_group_name_H-M "A B A 2"
_symmetry_group_IT_number 41
_symmetry_cell_setting 'orthorhombic'
loop_
_space_group_symop_operation_xyz
x,y,z
-x,-y,z
1/2-x,y,1/2+z
1/2+x,-y,1/2+z
x,1/2+y,1/2+z
-x,1/2-y,1/2+z
1/2-x,1/2+y,z
1/2+x,1/2-y,z
loop_
_atom_site_type_symbol
_atom_site_label
_atom_site_fract_x
_atom_site_fract_y
_atom_site_fract_z
Si Si1 0.251783 0.521082 0.139270
Si Si2 0.248217 0.478918 0.349994
Si Si3 0.946961 0.728812 0.387261
Si Si4 0.763452 0.367402 0.685271
Si Si5 0.553039 0.271188 0.102003
Si Si6 0.763452 0.632598 0.303993
O O1 0.500000 0.500000 0.096182
O O2 0.250000 0.500000 0.244632
O O3 0.268279 0.578859 0.143006
O O4 0.000000 0.500000 0.097861
O O5 0.500000 0.500000 0.391403
O O6 0.231721 0.421141 0.346258
O O7 0.000000 0.500000 0.393082
O O8 0.727060 0.763574 0.347838
O O9 0.830824 0.675653 0.373735
O O10 0.000000 0.738762 0.494632
O O11 0.830824 0.324347 0.615529
O O12 0.489009 0.363419 0.729952
O O13 0.989009 0.363419 0.759312
O O14 0.272940 0.263574 0.141426
#
# Coordination Sequence:
#
# PCOD9365716 Si02
#       6
#     8   8   8   8   8   8
#     4  10  16  30  48  77 115 144 166 212 272 336
#     4  10  16  30  48  77 115 144 166 212 272 336
#     4  10  23  42  57  75 112 156 187 227 290 343
#     4  12  21  32  58  89 109 141 191 236 274 329
#     4  10  23  42  57  75 112 156 187 227 290 343
#     4  12  21  32  58  89 109 141 191 236 274 329
#
# _framework density 22.380927
#
# number of rings (size 3 to 8) (size 9 to 14) (size 15 to 20)
#    0.000    1.333    6.667    2.000    0.000    4.000 
#    0.000    0.000    0.000    1.000    0.000    4.667 
#    0.000    0.000    0.000    0.000    0.000    0.000 
#
# Total GULP energy -133945.249936 kJ/mol
# GULP energy per Si atom -5581.052081 kJ/mol
# Density = 2.232999 g / cm^3
# Si number density = 22.380927 Si / 1000 Ang^3
#
#
#
# Elastic Constant Matrix: (Units=GPa)
#
#
# Indices 1 2 3 4 5 6 
#
# 1 227.3890 65.8354 22.9980 0.0000 0.0000 0.0000
# 2 65.8354 156.1048 -1.0016 0.0000 0.0000 0.0000
# 3 22.9980 -1.0016 52.6953 0.0000 0.0000 0.0000
# 4 0.0000 0.0000 0.0000 -39.0269 0.0000 0.0000
# 5 0.0000 0.0000 0.0000 0.0000 4.0645 0.0000
# 6 0.0000 0.0000 0.0000 0.0000 0.0000 44.1837
#
#
#
# Elastic Compliance Matrix: (Units=1/GPa)
#
#
# Indices 1 2 3 4 5 6 
#
# 1 0.005285 -0.002244 -0.002349 0.000000 0.000000 0.000000
# 2 -0.002244 0.007360 0.001119 0.000000 0.000000 0.000000
# 3 -0.002349 0.001119 0.020024 0.000000 0.000000 0.000000
# 4 0.000000 0.000000 0.000000 -0.025623 0.000000 0.000000
# 5 0.000000 0.000000 0.000000 0.000000 0.246031 0.000000
# 6 0.000000 0.000000 0.000000 0.000000 0.000000 0.022633
#
#
# Mechanical properties :
#
#
# Convention : Reuss Voigt Hill
#
# Bulk Modulus (GPa) = 38.87993 67.98364 53.43178
# Shear Modulus (GPa) = 17.16857 25.06809 21.11833
#
# Velocity S-wave (km/s) = 2.77267 3.35037 3.07512
# Velocity P-wave (km/s) = 5.25927 6.73857 6.04434
#
# Compressibility (1/GPa) = 0.02572021
#
# Stress axis : x y z
#
# Youngs Moduli (GPa) = 189.21320 135.87869 49.94109
#
# Poissons Ratio (x) = 0.30491 0.11732
# Poissons Ratio (y) = 0.42459 -0.05590
# Poissons Ratio (z) = 0.44450 -0.15208
#
# Static dielectric constant tensor:
#      x y z
#    x 1.868330 0.000000 0.000000 
#    y 0.000000 1.811280 0.000000 
#    z 0.000000 0.000000 1.804860 
# 
# From -- ./inp_files/9424.got.cif
#   From: 2010.05.17/outbox.cif.g08.bks.cpg/sg41_5_cif.got.tgz:9424.got - 2010.06.03 18:54:24.
