data_PCOD9365048
_publ_section_title
;
Structure prediction by ZEFSAII (Michael W. Deem and Ramdas Pophale) SiO2 
 PCOD9365048
Probable space group: A M A 2
;
_chemical_formula_sum "Si O2"
_cell_formula_units_Z 64
_cell_length_a 23.180263
_cell_length_b 9.758321
_cell_length_c 14.536115
_cell_angle_alpha 90.000000
_cell_angle_beta 90.000000
_cell_angle_gamma 90.000000
_cell_volume 3288.075714
_symmetry_space_group_name_H-M "A M A 2"
_symmetry_group_IT_number 40
_symmetry_cell_setting 'orthorhombic'
loop_
_space_group_symop_operation_xyz
x,y,z
-x,-y,z
1/2-x,y,z
1/2+x,-y,z
x,1/2+y,1/2+z
-x,1/2-y,1/2+z
1/2-x,1/2+y,1/2+z
1/2+x,1/2-y,1/2+z
loop_
_atom_site_type_symbol
_atom_site_label
_atom_site_fract_x
_atom_site_fract_y
_atom_site_fract_z
Si Si1 0.315253 0.951149 0.628060
Si Si2 0.402625 0.297189 0.856854
Si Si3 0.932819 0.490304 0.413130
Si Si4 0.816506 0.743782 0.700498
Si Si5 0.375195 0.280698 0.286729
Si Si6 0.626333 0.426364 0.943396
Si Si7 0.423387 0.301697 0.566602
Si Si8 0.504851 0.336725 0.718995
O O1 0.250000 0.906618 0.613624
O O2 0.344186 0.837396 0.694502
O O3 0.316931 0.092401 0.686591
O O4 0.337878 0.002375 0.527416
O O5 0.343158 0.292700 0.799167
O O6 0.406367 0.445284 0.901116
O O7 0.456814 0.283816 0.789482
O O8 0.408476 0.162668 0.918008
O O9 0.894740 0.585443 0.345282
O O10 0.929427 0.558203 0.512534
O O11 0.000000 0.500000 0.383480
O O12 0.750000 0.697650 0.686960
O O13 0.865211 0.691990 0.628434
O O14 0.347320 0.169493 0.359864
O O15 0.432838 0.207289 0.250992
O O16 0.585015 0.319151 0.994085
O O17 0.481141 0.276741 0.623846
O O18 0.500000 0.500000 0.713684
#
# Coordination Sequence:
#
# PCOD9365048 Si02
#       8
#     8   8   8   8   8   8   8   8
#     4  10  22  42  66  92 123 167 220 271 325 389
#     4  11  21  38  63  89 123 161 205 261 322 380
#     4  11  21  36  60  91 127 162 203 258 316 391
#     4   9  19  40  64  85 118 163 212 262 315 382
#     4  11  22  41  64  95 126 171 219 262 331 396
#     4  10  23  41  61  93 129 161 213 269 322 395
#     4   9  22  39  60  90 122 167 206 252 327 383
#     4  11  21  39  62  90 128 165 209 257 321 395
#
# _framework density 19.464271
#
# number of rings (size 3 to 8) (size 9 to 14) (size 15 to 20)
#    0.000    1.750    3.750    0.375    0.000    3.000 
#    2.250    2.500    0.000    0.000    0.000    0.000 
#    0.000    0.000    0.000    0.000    0.000    0.000 
#
# Total GULP energy -178236.884874 kJ/mol
# GULP energy per Si atom -5569.902652 kJ/mol
# Density = 1.941997 g / cm^3
# Si number density = 19.464271 Si / 1000 Ang^3
#
#
#
# Elastic Constant Matrix: (Units=GPa)
#
#
# Indices 1 2 3 4 5 6 
#
# 1 58.4629 19.6231 34.5245 0.0000 0.0000 0.0000
# 2 19.6231 92.1912 37.5903 0.0000 0.0000 0.0000
# 3 34.5245 37.5903 90.6121 0.0000 0.0000 0.0000
# 4 0.0000 0.0000 0.0000 18.4635 0.0000 0.0000
# 5 0.0000 0.0000 0.0000 0.0000 1.4078 0.0000
# 6 0.0000 0.0000 0.0000 0.0000 0.0000 13.0899
#
#
#
# Elastic Compliance Matrix: (Units=1/GPa)
#
#
# Indices 1 2 3 4 5 6 
#
# 1 0.022251 -0.001540 -0.007839 0.000000 0.000000 0.000000
# 2 -0.001540 0.013162 -0.004874 0.000000 0.000000 0.000000
# 3 -0.007839 -0.004874 0.016045 0.000000 0.000000 0.000000
# 4 0.000000 0.000000 0.000000 0.054161 0.000000 0.000000
# 5 0.000000 0.000000 0.000000 0.000000 0.710303 0.000000
# 6 0.000000 0.000000 0.000000 0.000000 0.000000 0.076395
#
#
# Mechanical properties :
#
#
# Convention : Reuss Voigt Hill
#
# Bulk Modulus (GPa) = 43.56804 47.19356 45.38080
# Shear Modulus (GPa) = 5.38519 16.56080 10.97300
#
# Velocity S-wave (km/s) = 1.66515 2.92007 2.37692
# Velocity P-wave (km/s) = 5.11167 5.97226 5.55865
#
# Compressibility (1/GPa) = 0.02295260
#
# Stress axis : x y z
#
# Youngs Moduli (GPa) = 44.94179 75.97676 62.32606
#
# Poissons Ratio (x) = 0.11699 0.48858
# Poissons Ratio (y) = 0.06920 0.30375
# Poissons Ratio (z) = 0.35231 0.37027
#
# Static dielectric constant tensor:
#      x y z
#    x 1.665380 0.000000 0.000000 
#    y 0.000000 1.682410 0.000000 
#    z 0.000000 0.000000 1.760070 
# 
# From -- ./inp_files/18520.got.cif
#   From: 2010.05.17/outbox.cif.g08.bks.cpg/sg40_10_cif.got.tgz:18520.got - 2010.06.03 18:35:42.
