data_PCOD9365897
_publ_section_title
;
Structure prediction by ZEFSAII (Michael W. Deem and Ramdas Pophale) SiO2 
 PCOD9365897
Probable space group: A B A 2
;
_chemical_formula_sum "Si O2"
_cell_formula_units_Z 64
_cell_length_a 14.315488
_cell_length_b 5.184602
_cell_length_c 38.908899
_cell_angle_alpha 90.000000
_cell_angle_beta 90.000000
_cell_angle_gamma 90.000000
_cell_volume 2887.822675
_symmetry_space_group_name_H-M "A B A 2"
_symmetry_group_IT_number 41
_symmetry_cell_setting 'orthorhombic'
loop_
_space_group_symop_operation_xyz
x,y,z
-x,-y,z
1/2-x,y,1/2+z
1/2+x,-y,1/2+z
x,1/2+y,1/2+z
-x,1/2-y,1/2+z
1/2-x,1/2+y,z
1/2+x,1/2-y,z
loop_
_atom_site_type_symbol
_atom_site_label
_atom_site_fract_x
_atom_site_fract_y
_atom_site_fract_z
Si Si1 0.310392 0.790393 0.488630
Si Si2 0.810953 0.514296 0.801232
Si Si3 0.813402 0.664936 0.563896
Si Si4 0.105778 0.715320 0.206528
Si Si5 0.113245 0.003651 0.378200
Si Si6 0.103878 0.207232 0.235973
Si Si7 0.888870 0.002810 0.918156
Si Si8 0.316553 0.664178 0.634056
O O1 0.276513 0.493808 0.487421
O O2 0.357709 0.815251 0.526104
O O3 0.366583 0.891632 0.455986
O O4 0.769729 0.799446 0.796413
O O5 0.850009 0.520681 0.839751
O O6 0.887453 0.412380 0.773820
O O7 0.772229 0.374777 0.564965
O O8 0.866839 0.759750 0.597957
O O9 0.146651 0.486537 0.229565
O O10 0.114881 0.660493 0.166474
O O11 0.000824 0.753018 0.221189
O O12 0.151501 0.992598 0.212328
O O13 0.145936 0.278842 0.392184
O O14 0.142676 0.777434 0.404805
O O15 0.000000 0.000000 0.377106
O O16 0.000000 0.000000 0.915438
O O17 0.261070 0.393448 0.635453
#
# Coordination Sequence:
#
# PCOD9365897 Si02
#       8
#     8   8   8   8   8   8   8   8
#     4  10  19  32  56  85 115 155 191 233 281 332
#     4  12  26  42  62  89 116 146 190 249 293 340
#     4   8  16  30  48  80 115 147 187 227 283 336
#     4  10  21  38  59  81 109 157 190 232 286 353
#     4  10  23  41  61  82 113 158 190 230 293 354
#     4  10  23  40  57  82 112 148 187 239 287 357
#     4  10  21  38  57  86 117 153 194 234 281 338
#     4  10  19  32  56  86 116 150 191 242 282 331
#
# _framework density 22.162025
#
# number of rings (size 3 to 8) (size 9 to 14) (size 15 to 20)
#    0.000    2.000    0.000    3.000    1.750    6.000 
#    4.500    0.000    2.750    0.000    6.500    0.000 
#    0.000    0.000    0.000    0.000    0.000    0.000 
#
# Total GULP energy -178377.223990 kJ/mol
# GULP energy per Si atom -5574.288250 kJ/mol
# Density = 2.211158 g / cm^3
# Si number density = 22.162025 Si / 1000 Ang^3
#
#
#
# Elastic Constant Matrix: (Units=GPa)
#
#
# Indices 1 2 3 4 5 6 
#
# 1 59.2438 -7.1822 13.0405 0.0000 0.0000 0.0000
# 2 -7.1822 118.9200 -4.2430 0.0000 0.0000 0.0000
# 3 13.0405 -4.2430 148.0634 0.0000 0.0000 0.0000
# 4 0.0000 0.0000 0.0000 32.5344 0.0000 0.0000
# 5 0.0000 0.0000 0.0000 0.0000 4.7072 0.0000
# 6 0.0000 0.0000 0.0000 0.0000 0.0000 8.1231
#
#
#
# Elastic Compliance Matrix: (Units=1/GPa)
#
#
# Indices 1 2 3 4 5 6 
#
# 1 0.017329 0.000993 -0.001498 0.000000 0.000000 0.000000
# 2 0.000993 0.008475 0.000155 0.000000 0.000000 0.000000
# 3 -0.001498 0.000155 0.006890 0.000000 0.000000 0.000000
# 4 0.000000 0.000000 0.000000 0.030737 0.000000 0.000000
# 5 0.000000 0.000000 0.000000 0.000000 0.212440 0.000000
# 6 0.000000 0.000000 0.000000 0.000000 0.000000 0.123106
#
#
# Mechanical properties :
#
#
# Convention : Reuss Voigt Hill
#
# Bulk Modulus (GPa) = 31.25415 36.60642 33.93029
# Shear Modulus (GPa) = 12.18500 30.71373 21.44936
#
# Velocity S-wave (km/s) = 2.34736 3.72677 3.11439
# Velocity P-wave (km/s) = 4.63465 5.92215 5.31751
#
# Compressibility (1/GPa) = 0.03199575
#
# Stress axis : x y z
#
# Youngs Moduli (GPa) = 57.70511 118.00048 145.13290
#
# Poissons Ratio (x) = -0.11720 0.21738
# Poissons Ratio (y) = -0.05731 -0.02255
# Poissons Ratio (z) = 0.08643 -0.01833
#
# Static dielectric constant tensor:
#      x y z
#    x 1.753180 0.000000 0.000000 
#    y 0.000000 1.889770 0.000000 
#    z 0.000000 0.000000 1.870690 
# 
# From -- ./inp_files/12761.got.cif
#   From: 2010.05.17/outbox.cif.g08.bks.cpg/sg41_7_cif.got.tgz:12761.got - 2010.06.03 18:54:24.
