data_PCOD9365092
_publ_section_title
;
Structure prediction by ZEFSAII (Michael W. Deem and Ramdas Pophale) SiO2 
 PCOD9365092
Probable space group: A M A 2
;
_chemical_formula_sum "Si O2"
_cell_formula_units_Z 64
_cell_length_a 21.329866
_cell_length_b 16.183344
_cell_length_c 9.228788
_cell_angle_alpha 90.000000
_cell_angle_beta 90.000000
_cell_angle_gamma 90.000000
_cell_volume 3185.672031
_symmetry_space_group_name_H-M "A M A 2"
_symmetry_group_IT_number 40
_symmetry_cell_setting 'orthorhombic'
loop_
_space_group_symop_operation_xyz
x,y,z
-x,-y,z
1/2-x,y,z
1/2+x,-y,z
x,1/2+y,1/2+z
-x,1/2-y,1/2+z
1/2-x,1/2+y,1/2+z
1/2+x,1/2-y,1/2+z
loop_
_atom_site_type_symbol
_atom_site_label
_atom_site_fract_x
_atom_site_fract_y
_atom_site_fract_z
Si Si1 0.445635 0.432744 0.936950
Si Si2 0.676920 0.457823 0.549018
Si Si3 0.628527 0.804942 0.565906
Si Si4 0.678655 0.461879 0.891638
Si Si5 0.892570 0.809545 0.905059
Si Si6 0.985954 0.282775 0.861264
Si Si7 0.324003 0.863393 0.929822
Si Si8 0.396966 0.810542 0.651054
O O1 0.500000 0.500000 0.939159
O O2 0.377860 0.473300 0.912553
O O3 0.467110 0.708537 0.400609
O O4 0.438808 0.383616 0.086849
O O5 0.750000 0.446150 0.502503
O O6 0.675678 0.441398 0.720890
O O7 0.630896 0.394321 0.472264
O O8 0.657420 0.551156 0.507595
O O9 0.664241 0.881508 0.489850
O O10 0.628584 0.808521 0.738600
O O11 0.559009 0.805872 0.495407
O O12 0.656488 0.717163 0.519301
O O13 0.750000 0.491463 0.921944
O O14 0.969262 0.639175 0.827649
O O15 0.867474 0.736741 0.012516
O O16 0.940025 0.256119 0.733582
O O17 0.250000 0.865339 0.918417
O O18 0.352017 0.849482 0.770313
#
# Coordination Sequence:
#
# PCOD9365092 Si02
#       8
#     8   8   8   8   8   8   8   8
#     4  11  23  41  71 103 132 172 229 278 334 398
#     4  10  24  44  64  93 133 174 228 280 337 413
#     4  11  23  42  68  96 133 179 227 280 344 412
#     4  11  25  45  69  97 137 183 227 280 346 411
#     4  11  23  39  66  96 130 175 227 281 340 409
#     4  10  22  43  66  95 137 172 222 275 345 407
#     4  10  23  43  65  93 131 176 224 278 341 408
#     4  10  24  42  66  96 136 176 217 280 342 407
#
# _framework density 20.089952
#
# number of rings (size 3 to 8) (size 9 to 14) (size 15 to 20)
#    0.000    1.500    1.250    3.375    5.250    3.000 
#    0.000    3.750    0.000    0.000    0.000    0.000 
#    0.000    0.000    0.000    0.000    0.000    0.000 
#
# Total GULP energy -178601.471871 kJ/mol
# GULP energy per Si atom -5581.295996 kJ/mol
# Density = 2.004423 g / cm^3
# Si number density = 20.089952 Si / 1000 Ang^3
#
#
#
# Elastic Constant Matrix: (Units=GPa)
#
#
# Indices 1 2 3 4 5 6 
#
# 1 114.3150 70.0238 41.0024 0.0000 0.0000 0.0000
# 2 70.0238 104.0598 37.2842 0.0000 0.0000 0.0000
# 3 41.0024 37.2842 118.7834 0.0000 0.0000 0.0000
# 4 0.0000 0.0000 0.0000 21.5660 0.0000 0.0000
# 5 0.0000 0.0000 0.0000 0.0000 4.2812 0.0000
# 6 0.0000 0.0000 0.0000 0.0000 0.0000 37.8122
#
#
#
# Elastic Compliance Matrix: (Units=1/GPa)
#
#
# Indices 1 2 3 4 5 6 
#
# 1 0.015434 -0.009551 -0.002330 0.000000 0.000000 0.000000
# 2 -0.009551 0.016738 -0.001957 0.000000 0.000000 0.000000
# 3 -0.002330 -0.001957 0.009837 0.000000 0.000000 0.000000
# 4 0.000000 0.000000 0.000000 0.046369 0.000000 0.000000
# 5 0.000000 0.000000 0.000000 0.000000 0.233578 0.000000
# 6 0.000000 0.000000 0.000000 0.000000 0.000000 0.026447
#
#
# Mechanical properties :
#
#
# Convention : Reuss Voigt Hill
#
# Bulk Modulus (GPa) = 69.76501 70.41988 70.09244
# Shear Modulus (GPa) = 13.12832 25.32172 19.22502
#
# Velocity S-wave (km/s) = 2.55909 3.55409 3.09681
# Velocity P-wave (km/s) = 6.59800 7.20905 6.91028
#
# Compressibility (1/GPa) = 0.01433383
#
# Stress axis : x y z
#
# Youngs Moduli (GPa) = 64.79265 59.74398 101.65600
#
# Poissons Ratio (x) = 0.57062 0.23682
# Poissons Ratio (y) = 0.61884 0.19893
# Poissons Ratio (z) = 0.15094 0.11691
#
# Static dielectric constant tensor:
#      x y z
#    x 1.730960 0.000000 0.000000 
#    y 0.000000 1.727800 0.000000 
#    z 0.000000 0.000000 1.729120 
# 
# From -- ./inp_files/8902.got.cif
#   From: 2010.05.17/outbox.cif.g08.bks.cpg/sg40_5_cif.got.tgz:8902.got - 2010.06.03 18:35:42.
