data_PCOD9365826
_publ_section_title
;
Structure prediction by ZEFSAII (Michael W. Deem and Ramdas Pophale) SiO2 
 PCOD9365826
Probable space group: A B A 2
;
_chemical_formula_sum "Si O2"
_cell_formula_units_Z 60
_cell_length_a 15.591753
_cell_length_b 10.712508
_cell_length_c 17.743346
_cell_angle_alpha 90.000000
_cell_angle_beta 90.000000
_cell_angle_gamma 90.000000
_cell_volume 2963.613927
_symmetry_space_group_name_H-M "A B A 2"
_symmetry_group_IT_number 41
_symmetry_cell_setting 'orthorhombic'
loop_
_space_group_symop_operation_xyz
x,y,z
-x,-y,z
1/2-x,y,1/2+z
1/2+x,-y,1/2+z
x,1/2+y,1/2+z
-x,1/2-y,1/2+z
1/2-x,1/2+y,z
1/2+x,1/2-y,z
loop_
_atom_site_type_symbol
_atom_site_label
_atom_site_fract_x
_atom_site_fract_y
_atom_site_fract_z
Si Si1 0.000000 0.500000 0.592270
Si Si2 0.608434 0.258216 0.262332
Si Si3 0.084710 0.420384 0.115831
Si Si4 0.873599 0.029725 0.205923
Si Si5 0.453390 0.633204 0.847030
Si Si6 0.233680 0.110151 0.606726
Si Si7 0.195957 0.234235 0.758421
Si Si8 0.615115 0.803325 0.508309
O O1 0.058543 0.416151 0.646815
O O2 0.061497 0.583456 0.543653
O O3 0.606973 0.163886 0.189987
O O4 0.590958 0.400967 0.239299
O O5 0.532575 0.215391 0.316802
O O6 0.707555 0.263307 0.291092
O O7 0.154072 0.522696 0.089701
O O8 0.080641 0.320993 0.048197
O O9 0.000000 0.500000 0.132212
O O10 0.845770 0.129947 0.266632
O O11 0.794752 0.980755 0.155947
O O12 0.500000 0.500000 0.859680
O O13 0.373513 0.633906 0.787843
O O14 0.406736 0.688690 0.920726
O O15 0.207466 0.213005 0.668667
O O16 0.287899 0.170233 0.538441
#
# Coordination Sequence:
#
# PCOD9365826 Si02
#       8
#     4   8   8   8   8   8   8   8
#     4  10  18  36  64  86 126 178 214 276 328 412
#     4  11  22  42  68 103 137 175 237 283 340 403
#     4  12  23  43  71 106 135 175 238 293 336 410
#     4  10  19  35  66  97 130 168 228 282 331 389
#     4  12  27  46  68  99 144 186 226 281 353 419
#     4  10  20  41  71  97 133 172 229 287 334 408
#     4  11  22  41  71 102 135 178 229 288 340 405
#     4  11  24  47  63 100 139 178 229 275 356 415
#
# _framework density 20.245553000000001
#
# number of rings (size 3 to 8) (size 9 to 14) (size 15 to 20)
#    0.000    1.067    6.000    2.800    3.733    0.000 
#    7.200    0.000    0.000    0.000    0.000    0.000 
#    0.000    0.000    0.000    0.000    0.000    0.000 
#
# Total GULP energy -167281.560396 kJ/mol
# GULP energy per Si atom -5576.052013 kJ/mol
# Density = 2.019947 g / cm^3
# Si number density = 20.245553 Si / 1000 Ang^3
#
#
#
# Elastic Constant Matrix: (Units=GPa)
#
#
# Indices 1 2 3 4 5 6 
#
# 1 92.0197 32.7444 47.8396 0.0000 0.0000 0.0000
# 2 32.7444 70.1077 22.4906 0.0000 0.0000 0.0000
# 3 47.8396 22.4906 75.3795 0.0000 0.0000 0.0000
# 4 0.0000 0.0000 0.0000 8.1621 0.0000 0.0000
# 5 0.0000 0.0000 0.0000 0.0000 28.2135 0.0000
# 6 0.0000 0.0000 0.0000 0.0000 0.0000 34.8152
#
#
#
# Elastic Compliance Matrix: (Units=1/GPa)
#
#
# Indices 1 2 3 4 5 6 
#
# 1 0.017769 -0.005177 -0.009733 0.000000 0.000000 0.000000
# 2 -0.005177 0.017282 -0.001871 0.000000 0.000000 0.000000
# 3 -0.009733 -0.001871 0.020001 0.000000 0.000000 0.000000
# 4 0.000000 0.000000 0.000000 0.122517 0.000000 0.000000
# 5 0.000000 0.000000 0.000000 0.000000 0.035444 0.000000
# 6 0.000000 0.000000 0.000000 0.000000 0.000000 0.028723
#
#
# Mechanical properties :
#
#
# Convention : Reuss Voigt Hill
#
# Bulk Modulus (GPa) = 46.52982 49.29511 47.91246
# Shear Modulus (GPa) = 17.70153 23.20030 20.45092
#
# Velocity S-wave (km/s) = 2.96014 3.38885 3.18172
# Velocity P-wave (km/s) = 5.89201 6.30190 6.10040
#
# Compressibility (1/GPa) = 0.02149160
#
# Stress axis : x y z
#
# Youngs Moduli (GPa) = 56.27685 57.86407 49.99710
#
# Poissons Ratio (x) = 0.29957 0.48660
# Poissons Ratio (y) = 0.29135 0.09353
# Poissons Ratio (z) = 0.54772 0.10824
#
# Static dielectric constant tensor:
#      x y z
#    x 1.821980 0.000000 0.000000 
#    y 0.000000 1.859120 0.000000 
#    z 0.000000 0.000000 1.736770 
# 
# From -- ./inp_files/10384.got.cif
#   From: 2010.05.17/outbox.cif.g08.bks.cpg/sg41_6_cif.got.tgz:10384.got - 2010.06.03 18:54:24.
