data_PCOD9365839
_publ_section_title
;
Structure prediction by ZEFSAII (Michael W. Deem and Ramdas Pophale) SiO2 
 PCOD9365839
Probable space group: A B A 2
;
_chemical_formula_sum "Si O2"
_cell_formula_units_Z 44
_cell_length_a 14.112761
_cell_length_b 10.251629
_cell_length_c 13.204444
_cell_angle_alpha 90.000000
_cell_angle_beta 90.000000
_cell_angle_gamma 90.000000
_cell_volume 1910.402980
_symmetry_space_group_name_H-M "A B A 2"
_symmetry_group_IT_number 41
_symmetry_cell_setting 'orthorhombic'
loop_
_space_group_symop_operation_xyz
x,y,z
-x,-y,z
1/2-x,y,1/2+z
1/2+x,-y,1/2+z
x,1/2+y,1/2+z
-x,1/2-y,1/2+z
1/2-x,1/2+y,z
1/2+x,1/2-y,z
loop_
_atom_site_type_symbol
_atom_site_label
_atom_site_fract_x
_atom_site_fract_y
_atom_site_fract_z
Si Si1 0.330939 0.503904 0.197050
Si Si2 0.318870 0.941193 0.340767
Si Si3 0.927145 0.822059 0.370480
Si Si4 0.228352 0.607417 0.009246
Si Si5 0.000000 0.000000 0.058997
Si Si6 0.104590 0.691315 0.403576
O O1 0.260027 0.410607 0.257305
O O2 0.382320 0.593092 0.280928
O O3 0.262639 0.586955 0.122432
O O4 0.414664 0.446921 0.128280
O O5 0.391397 0.825129 0.351755
O O6 0.267123 0.983630 0.444793
O O7 0.373052 0.079783 0.319919
O O8 0.878751 0.868188 0.475480
O O9 0.040476 0.812200 0.371765
O O10 0.294282 0.717872 0.955590
O O11 0.045180 0.112762 0.990005
#
# Coordination Sequence:
#
# PCOD9365839 Si02
#       6
#     8   8   8   8   4   8
#     4  10  21  34  54  91 107 140 194 235 275 332
#     4   9  19  36  53  77 114 146 180 232 285 326
#     4  11  18  33  60  78 107 145 190 230 271 333
#     4   8  20  36  50  81 108 144 188 224 281 334
#     4  10  18  38  58  74 110 156 184 220 284 356
#     4   9  17  37  55  71 108 157 178 211 290 338
#
# _framework density 23.031790000000001
#
# number of rings (size 3 to 8) (size 9 to 14) (size 15 to 20)
#    1.091    1.455    1.818    0.000    0.000    4.364 
#    6.545    0.000    0.000    0.000    0.000    0.000 
#    0.000    0.000    0.000    0.000    0.000    0.000 
#
# Total GULP energy -122636.640325 kJ/mol
# GULP energy per Si atom -5574.392742 kJ/mol
# Density = 2.297937 g / cm^3
# Si number density = 23.031790 Si / 1000 Ang^3
#
#
#
# Elastic Constant Matrix: (Units=GPa)
#
#
# Indices 1 2 3 4 5 6 
#
# 1 78.8541 14.0987 20.4380 0.0000 0.0000 0.0000
# 2 14.0987 48.4513 7.1521 0.0000 0.0000 0.0000
# 3 20.4380 7.1521 70.6919 0.0000 0.0000 0.0000
# 4 0.0000 0.0000 0.0000 2.6061 0.0000 0.0000
# 5 0.0000 0.0000 0.0000 0.0000 26.4319 0.0000
# 6 0.0000 0.0000 0.0000 0.0000 0.0000 37.0218
#
#
#
# Elastic Compliance Matrix: (Units=1/GPa)
#
#
# Indices 1 2 3 4 5 6 
#
# 1 0.014304 -0.003606 -0.003771 0.000000 0.000000 0.000000
# 2 -0.003606 0.021861 -0.001169 0.000000 0.000000 0.000000
# 3 -0.003771 -0.001169 0.015354 0.000000 0.000000 0.000000
# 4 0.000000 0.000000 0.000000 0.383711 0.000000 0.000000
# 5 0.000000 0.000000 0.000000 0.000000 0.037833 0.000000
# 6 0.000000 0.000000 0.000000 0.000000 0.000000 0.027011
#
#
# Mechanical properties :
#
#
# Convention : Reuss Voigt Hill
#
# Bulk Modulus (GPa) = 29.04609 31.26387 30.15498
# Shear Modulus (GPa) = 9.45822 23.63253 16.54538
#
# Velocity S-wave (km/s) = 2.02867 3.20673 2.68315
# Velocity P-wave (km/s) = 4.25747 5.22633 4.76658
#
# Compressibility (1/GPa) = 0.03442804
#
# Stress axis : x y z
#
# Youngs Moduli (GPa) = 69.91252 45.74344 65.12820
#
# Poissons Ratio (x) = 0.16493 0.24557
# Poissons Ratio (y) = 0.25207 0.07616
# Poissons Ratio (z) = 0.26361 0.05349
#
# Static dielectric constant tensor:
#      x y z
#    x 1.946640 0.000000 0.000000 
#    y 0.000000 1.906880 0.000000 
#    z 0.000000 0.000000 1.883770 
# 
# From -- ./inp_files/5481.got.cif
#   From: 2010.05.17/outbox.cif.g08.bks.cpg/sg41_3_cif.got.tgz:5481.got - 2010.06.03 18:54:24.
