data_PCOD9365077
_publ_section_title
;
Structure prediction by ZEFSAII (Michael W. Deem and Ramdas Pophale) SiO2 
 PCOD9365077
Probable space group: A M A 2
;
_chemical_formula_sum "Si O2"
_cell_formula_units_Z 64
_cell_length_a 16.904781
_cell_length_b 15.341443
_cell_length_c 12.145038
_cell_angle_alpha 90.000000
_cell_angle_beta 90.000000
_cell_angle_gamma 90.000000
_cell_volume 3149.739506
_symmetry_space_group_name_H-M "A M A 2"
_symmetry_group_IT_number 40
_symmetry_cell_setting 'orthorhombic'
loop_
_space_group_symop_operation_xyz
x,y,z
-x,-y,z
1/2-x,y,z
1/2+x,-y,z
x,1/2+y,1/2+z
-x,1/2-y,1/2+z
1/2-x,1/2+y,1/2+z
1/2+x,1/2-y,1/2+z
loop_
_atom_site_type_symbol
_atom_site_label
_atom_site_fract_x
_atom_site_fract_y
_atom_site_fract_z
Si Si1 0.898072 0.317127 0.862390
Si Si2 0.065886 0.264125 0.963296
Si Si3 0.656636 0.676687 0.755464
Si Si4 0.405395 0.514337 0.236032
Si Si5 0.905872 0.985878 0.211601
Si Si6 0.155559 0.823895 0.682351
Si Si7 0.158982 0.172831 0.601745
Si Si8 0.923098 0.438571 0.475447
O O1 0.889717 0.405870 0.793055
O O2 0.874908 0.237809 0.781786
O O3 0.986393 0.306303 0.912890
O O4 0.845312 0.319878 0.971207
O O5 0.130288 0.279096 0.868427
O O6 0.051416 0.161812 0.980962
O O7 0.102178 0.301952 0.075487
O O8 0.750000 0.673867 0.746481
O O9 0.627653 0.578060 0.748981
O O10 0.625294 0.739088 0.657611
O O11 0.500000 0.500000 0.234649
O O12 0.361489 0.424447 0.210378
O O13 0.386241 0.589427 0.148611
O O14 0.381468 0.545730 0.358651
O O15 0.877947 0.962042 0.087874
O O16 0.000000 0.000000 0.207471
O O17 0.250000 0.809806 0.664387
O O18 0.250000 0.162843 0.636368
O O19 0.000000 0.500000 0.473145
#
# Coordination Sequence:
#
# PCOD9365077 Si02
#       8
#     8   8   8   8   8   8   8   8
#     4  12  26  43  75 102 138 183 239 292 352 426
#     4  12  24  46  75 101 139 188 236 296 348 439
#     4  11  26  46  69 100 140 185 232 287 357 427
#     4  11  23  44  73 103 134 182 238 293 353 429
#     4  11  24  44  68 102 135 180 235 290 347 416
#     4  12  28  47  69 107 151 189 235 303 375 429
#     4  11  26  45  67  98 140 182 226 285 354 419
#     4  10  22  42  70 102 135 170 230 294 348 407
#
# _framework density 20.319140999999998
#
# number of rings (size 3 to 8) (size 9 to 14) (size 15 to 20)
#    0.000    0.750    3.750    3.375    8.750    1.500 
#    0.000    0.625    0.000    0.000    0.000    0.000 
#    0.000    0.000    0.000    0.000    0.000    0.000 
#
# Total GULP energy -178873.831865 kJ/mol
# GULP energy per Si atom -5589.807246 kJ/mol
# Density = 2.027289 g / cm^3
# Si number density = 20.319141 Si / 1000 Ang^3
#
#
#
# Elastic Constant Matrix: (Units=GPa)
#
#
# Indices 1 2 3 4 5 6 
#
# 1 71.7584 34.0917 24.6436 0.0000 0.0000 0.0000
# 2 34.0917 138.2919 44.9814 0.0000 0.0000 0.0000
# 3 24.6436 44.9814 127.4046 0.0000 0.0000 0.0000
# 4 0.0000 0.0000 0.0000 37.6875 0.0000 0.0000
# 5 0.0000 0.0000 0.0000 0.0000 -6.5950 0.0000
# 6 0.0000 0.0000 0.0000 0.0000 0.0000 -228.0774
#
#
#
# Elastic Compliance Matrix: (Units=1/GPa)
#
#
# Indices 1 2 3 4 5 6 
#
# 1 0.016201 -0.003360 -0.001947 0.000000 0.000000 0.000000
# 2 -0.003360 0.008866 -0.002480 0.000000 0.000000 0.000000
# 3 -0.001947 -0.002480 0.009101 0.000000 0.000000 0.000000
# 4 0.000000 0.000000 0.000000 0.026534 0.000000 0.000000
# 5 0.000000 0.000000 0.000000 0.000000 -0.151631 0.000000
# 6 0.000000 0.000000 0.000000 0.000000 0.000000 -0.004384
#
#
# Mechanical properties :
#
#
# Convention : Reuss Voigt Hill
#
# Bulk Modulus (GPa) = 53.78527 60.54315 57.16421
# Shear Modulus (GPa) = -67.99105 -23.81441 -45.90273
#
# Velocity S-wave (km/s) = -5.79087 -3.42719 -4.75814
# Velocity P-wave (km/s) = 4.26434 3.76828 1.41149
#
# Compressibility (1/GPa) = 0.01859245
#
# Stress axis : x y z
#
# Youngs Moduli (GPa) = 61.72490 112.78713 109.87375
#
# Poissons Ratio (x) = 0.37902 0.21395
# Poissons Ratio (y) = 0.20743 0.27252
# Poissons Ratio (z) = 0.12019 0.27975
#
# Static dielectric constant tensor:
#      x y z
#    x 1.724320 0.000000 0.000000 
#    y 0.000000 1.666450 0.000000 
#    z 0.000000 0.000000 1.729750 
# 
# From -- ./inp_files/13112.got.cif
#   From: 2010.05.17/outbox.cif.g08.bks.cpg/sg40_7_cif.got.tgz:13112.got - 2010.06.03 18:35:42.
