data_PCOD9365473
_publ_section_title
;
Structure prediction by ZEFSAII (Michael W. Deem and Ramdas Pophale) SiO2 
 PCOD9365473
Probable space group: A M A 2
;
_chemical_formula_sum "Si O2"
_cell_formula_units_Z 36
_cell_length_a 25.868166
_cell_length_b 6.927837
_cell_length_c 8.033874
_cell_angle_alpha 90.000000
_cell_angle_beta 90.000000
_cell_angle_gamma 90.000000
_cell_volume 1439.754075
_symmetry_space_group_name_H-M "A M A 2"
_symmetry_group_IT_number 40
_symmetry_cell_setting 'orthorhombic'
loop_
_space_group_symop_operation_xyz
x,y,z
-x,-y,z
1/2-x,y,z
1/2+x,-y,z
x,1/2+y,1/2+z
-x,1/2-y,1/2+z
1/2-x,1/2+y,1/2+z
1/2+x,1/2-y,1/2+z
loop_
_atom_site_type_symbol
_atom_site_label
_atom_site_fract_x
_atom_site_fract_y
_atom_site_fract_z
Si Si1 0.899448 0.575025 0.875000
Si Si2 0.954209 0.112316 0.684662
Si Si3 0.189449 0.645494 0.009972
Si Si4 0.641889 0.501374 0.356588
Si Si5 0.000000 0.000000 0.148782
O O1 0.844720 0.465892 0.870868
O O2 0.945246 0.559524 0.741472
O O3 0.882430 0.796836 0.909959
O O4 0.928014 0.491914 0.038448
O O5 0.907321 0.136176 0.809586
O O6 0.980368 0.291764 0.592423
O O7 0.000000 0.000000 0.773206
O O8 0.250000 0.621877 0.983002
O O9 0.173828 0.871027 0.987195
O O10 0.174133 0.553855 0.189615
#
# Coordination Sequence:
#
# PCOD9365473 Si02
#       5
#     8   8   8   8   4
#     4  11  25  41  68 100 137 178 232 284 357 427
#     4  11  23  38  62 100 140 177 222 278 348 428
#     4  11  26  47  69  98 136 181 239 300 362 431
#     4  11  25  44  69 101 135 183 233 296 355 430
#     4  12  22  38  66 102 132 182 216 278 350 432
#
# _framework density 25.004273000000001
#
# number of rings (size 3 to 8) (size 9 to 14) (size 15 to 20)
#    0.000    0.889    5.556    0.667    3.111    3.556 
#    0.000    0.000    0.000    0.000    0.000    0.000 
#    0.000    0.000    0.000    0.000    0.000    0.000 
#
# Total GULP energy -100373.442799 kJ/mol
# GULP energy per Si atom -5576.302378 kJ/mol
# Density = 2.494736 g / cm^3
# Si number density = 25.004273 Si / 1000 Ang^3
#
#
#
# Elastic Constant Matrix: (Units=GPa)
#
#
# Indices 1 2 3 4 5 6 
#
# 1 231.1889 67.1520 39.3770 0.0000 0.0000 0.0000
# 2 67.1520 110.3642 29.0338 0.0000 0.0000 0.0000
# 3 39.3770 29.0338 40.4988 0.0000 0.0000 0.0000
# 4 0.0000 0.0000 0.0000 42.1886 0.0000 0.0000
# 5 0.0000 0.0000 0.0000 0.0000 30.2267 0.0000
# 6 0.0000 0.0000 0.0000 0.0000 0.0000 29.8292
#
#
#
# Elastic Compliance Matrix: (Units=1/GPa)
#
#
# Indices 1 2 3 4 5 6 
#
# 1 0.005682 -0.002470 -0.003754 0.000000 0.000000 0.000000
# 2 -0.002470 0.012240 -0.006374 0.000000 0.000000 0.000000
# 3 -0.003754 -0.006374 0.032912 0.000000 0.000000 0.000000
# 4 0.000000 0.000000 0.000000 0.023703 0.000000 0.000000
# 5 0.000000 0.000000 0.000000 0.000000 0.033083 0.000000
# 6 0.000000 0.000000 0.000000 0.000000 0.000000 0.033524
#
#
# Mechanical properties :
#
#
# Convention : Reuss Voigt Hill
#
# Bulk Modulus (GPa) = 39.00355 72.57525 55.78940
# Shear Modulus (GPa) = 28.58984 36.88151 32.73567
#
# Velocity S-wave (km/s) = 3.38509 3.84475 3.62222
# Velocity P-wave (km/s) = 5.55977 6.98553 6.31303
#
# Compressibility (1/GPa) = 0.02563869
#
# Stress axis : x y z
#
# Youngs Moduli (GPa) = 175.98518 81.69623 30.38421
#
# Poissons Ratio (x) = 0.20177 0.11407
# Poissons Ratio (y) = 0.43465 0.19367
# Poissons Ratio (z) = 0.66070 0.52072
#
# Static dielectric constant tensor:
#      x y z
#    x 1.956350 0.000000 0.000000 
#    y 0.000000 2.115580 0.000000 
#    z 0.000000 0.000000 2.091660 
# 
# From -- ./inp_files/13798.got.cif
#   From: 2010.05.17/outbox.cif.g08.bks.cpg/sg40_7_cif.got.tgz:13798.got - 2010.06.03 18:35:42.
