data_PCOD9365987
_publ_section_title
;
Structure prediction by ZEFSAII (Michael W. Deem and Ramdas Pophale) SiO2 
 PCOD9365987
Probable space group: A B A 2
;
_chemical_formula_sum "Si O2"
_cell_formula_units_Z 40
_cell_length_a 9.996177
_cell_length_b 14.557070
_cell_length_c 12.764545
_cell_angle_alpha 90.000000
_cell_angle_beta 90.000000
_cell_angle_gamma 90.000000
_cell_volume 1857.433382
_symmetry_space_group_name_H-M "A B A 2"
_symmetry_group_IT_number 41
_symmetry_cell_setting 'orthorhombic'
loop_
_space_group_symop_operation_xyz
x,y,z
-x,-y,z
1/2-x,y,1/2+z
1/2+x,-y,1/2+z
x,1/2+y,1/2+z
-x,1/2-y,1/2+z
1/2-x,1/2+y,z
1/2+x,1/2-y,z
loop_
_atom_site_type_symbol
_atom_site_label
_atom_site_fract_x
_atom_site_fract_y
_atom_site_fract_z
Si Si1 0.773410 0.106211 0.870240
Si Si2 0.135093 0.953863 0.167461
Si Si3 0.030395 0.300095 0.508265
Si Si4 0.792238 0.425819 0.474828
Si Si5 0.499241 0.100236 0.003772
O O1 0.732561 0.091760 0.751001
O O2 0.869046 0.187650 0.909497
O O3 0.842154 0.010313 0.904870
O O4 0.633556 0.109315 0.935430
O O5 0.000000 0.000000 0.214264
O O6 0.086683 0.872316 0.091830
O O7 0.201292 0.031395 0.092804
O O8 0.886832 0.338416 0.472702
O O9 0.016871 0.199121 0.557232
O O10 0.640917 0.405701 0.441319
O O11 0.500000 0.000000 0.058913
#
# Coordination Sequence:
#
# PCOD9365987 Si02
#       5
#     8   8   8   8   8
#     4  10  19  36  59  84 113 147 187 230 284 344
#     4   9  18  35  59  84 115 151 184 228 291 345
#     4  10  20  37  58  84 115 151 191 231 282 337
#     4   9  19  36  58  81 112 149 183 232 284 340
#     4  10  20  36  57  79 111 150 189 235 280 326
#
# _framework density 21.535091999999999
#
# number of rings (size 3 to 8) (size 9 to 14) (size 15 to 20)
#    0.000    2.400    0.000    4.800    0.000    0.000 
#    0.000   26.000    0.000    0.000    0.000    0.000 
#    0.000    0.000    0.000    0.000    0.000    0.000 
#
# Total GULP energy -111367.474897 kJ/mol
# GULP energy per Si atom -5568.373745 kJ/mol
# Density = 2.148608 g / cm^3
# Si number density = 21.535092 Si / 1000 Ang^3
#
#
#
# Elastic Constant Matrix: (Units=GPa)
#
#
# Indices 1 2 3 4 5 6 
#
# 1 115.7999 28.1601 12.6507 0.0000 0.0000 0.0000
# 2 28.1601 147.6490 1.5924 0.0000 0.0000 0.0000
# 3 12.6507 1.5924 39.7266 0.0000 0.0000 0.0000
# 4 0.0000 0.0000 0.0000 4.8142 0.0000 0.0000
# 5 0.0000 0.0000 0.0000 0.0000 13.2574 0.0000
# 6 0.0000 0.0000 0.0000 0.0000 0.0000 23.8540
#
#
#
# Elastic Compliance Matrix: (Units=1/GPa)
#
#
# Indices 1 2 3 4 5 6 
#
# 1 0.009382 -0.001758 -0.002917 0.000000 0.000000 0.000000
# 2 -0.001758 0.007105 0.000275 0.000000 0.000000 0.000000
# 3 -0.002917 0.000275 0.026090 0.000000 0.000000 0.000000
# 4 0.000000 0.000000 0.000000 0.207720 0.000000 0.000000
# 5 0.000000 0.000000 0.000000 0.000000 0.075429 0.000000
# 6 0.000000 0.000000 0.000000 0.000000 0.000000 0.041922
#
#
# Mechanical properties :
#
#
# Convention : Reuss Voigt Hill
#
# Bulk Modulus (GPa) = 29.60609 43.10912 36.35761
# Shear Modulus (GPa) = 12.89635 25.76993 19.33314
#
# Velocity S-wave (km/s) = 2.44980 3.46301 2.99950
# Velocity P-wave (km/s) = 4.66687 6.00429 5.37732
#
# Compressibility (1/GPa) = 0.03377684
#
# Stress axis : x y z
#
# Youngs Moduli (GPa) = 106.59004 140.74358 38.32896
#
# Poissons Ratio (x) = 0.24741 0.11181
# Poissons Ratio (y) = 0.18737 -0.01054
# Poissons Ratio (z) = 0.31093 -0.03870
#
# Static dielectric constant tensor:
#      x y z
#    x 1.843500 0.000000 0.000000 
#    y 0.000000 1.846910 0.000000 
#    z 0.000000 0.000000 1.787820 
# 
# From -- ./inp_files/4867.got.cif
#   From: 2010.05.17/outbox.cif.g08.bks.cpg/sg41_3_cif.got.tgz:4867.got - 2010.06.03 18:54:24.
