data_PCOD9365540
_publ_section_title
;
Structure prediction by ZEFSAII (Michael W. Deem and Ramdas Pophale) SiO2 
 PCOD9365540
Probable space group: A M A 2
;
_chemical_formula_sum "Si O2"
_cell_formula_units_Z 64
_cell_length_a 13.806668
_cell_length_b 12.804833
_cell_length_c 16.924203
_cell_angle_alpha 90.000000
_cell_angle_beta 90.000000
_cell_angle_gamma 90.000000
_cell_volume 2992.065017
_symmetry_space_group_name_H-M "A M A 2"
_symmetry_group_IT_number 40
_symmetry_cell_setting 'orthorhombic'
loop_
_space_group_symop_operation_xyz
x,y,z
-x,-y,z
1/2-x,y,z
1/2+x,-y,z
x,1/2+y,1/2+z
-x,1/2-y,1/2+z
1/2-x,1/2+y,1/2+z
1/2+x,1/2-y,1/2+z
loop_
_atom_site_type_symbol
_atom_site_label
_atom_site_fract_x
_atom_site_fract_y
_atom_site_fract_z
Si Si1 0.981922 0.112536 0.767690
Si Si2 0.366714 0.582893 0.561482
Si Si3 0.466814 0.386853 0.974971
Si Si4 0.133041 0.779398 0.327348
Si Si5 0.639329 0.545877 0.419789
Si Si6 0.859750 0.247237 0.033622
Si Si7 0.866635 0.104567 0.173827
Si Si8 0.365591 0.813231 0.621490
O O1 0.920332 0.081263 0.844756
O O2 0.918438 0.176002 0.705100
O O3 0.075867 0.176496 0.797150
O O4 0.000000 0.000000 0.728152
O O5 0.250000 0.575145 0.556813
O O6 0.400661 0.548289 0.474416
O O7 0.397743 0.500341 0.628668
O O8 0.389831 0.699585 0.585180
O O9 0.500000 0.500000 0.945476
O O10 0.406797 0.320525 0.910719
O O11 0.564275 0.325820 0.997846
O O12 0.404149 0.393467 0.055456
O O13 0.250000 0.764799 0.329082
O O14 0.106040 0.869006 0.262808
O O15 0.750000 0.520857 0.395874
O O16 0.642784 0.643464 0.479803
O O17 0.750000 0.288848 0.037752
O O18 0.890383 0.204355 0.119295
O O19 0.750000 0.099277 0.173448
O O20 0.250000 0.821436 0.631031
#
# Coordination Sequence:
#
# PCOD9365540 Si02
#       8
#     8   8   8   8   8   8   8   8
#     4  12  26  43  66 101 138 182 230 285 353 425
#     4   8  17  36  69 103 130 168 218 277 345 408
#     4  12  26  44  64  92 132 184 241 280 341 426
#     4  11  25  45  67  98 140 183 232 293 354 422
#     4   9  18  37  67 103 135 168 218 279 342 407
#     4   9  18  38  67  95 127 165 218 284 345 409
#     4   8  16  36  66  97 125 163 215 272 339 408
#     4  11  25  45  68  99 141 183 229 291 355 421
#
# _framework density 21.389908999999999
#
# number of rings (size 3 to 8) (size 9 to 14) (size 15 to 20)
#    0.000    2.000    1.250    3.375    1.750    3.000 
#    0.000    5.625    0.000    0.000    0.000    0.000 
#    0.000    0.000    0.000    0.000    0.000    0.000 
#
# Total GULP energy -178858.985000 kJ/mol
# GULP energy per Si atom -5589.343281 kJ/mol
# Density = 2.134122 g / cm^3
# Si number density = 21.389909 Si / 1000 Ang^3
#
#
#
# Elastic Constant Matrix: (Units=GPa)
#
#
# Indices 1 2 3 4 5 6 
#
# 1 133.9424 30.4523 45.7866 0.0000 0.0000 0.0000
# 2 30.4523 79.0697 23.8256 0.0000 0.0000 0.0000
# 3 45.7866 23.8256 126.5043 0.0000 0.0000 0.0000
# 4 0.0000 0.0000 0.0000 23.8893 0.0000 0.0000
# 5 0.0000 0.0000 0.0000 0.0000 33.8129 0.0000
# 6 0.0000 0.0000 0.0000 0.0000 0.0000 27.5295
#
#
#
# Elastic Compliance Matrix: (Units=1/GPa)
#
#
# Indices 1 2 3 4 5 6 
#
# 1 0.009011 -0.002637 -0.002765 0.000000 0.000000 0.000000
# 2 -0.002637 0.014180 -0.001716 0.000000 0.000000 0.000000
# 3 -0.002765 -0.001716 0.009229 0.000000 0.000000 0.000000
# 4 0.000000 0.000000 0.000000 0.041860 0.000000 0.000000
# 5 0.000000 0.000000 0.000000 0.000000 0.029575 0.000000
# 6 0.000000 0.000000 0.000000 0.000000 0.000000 0.036325
#
#
# Mechanical properties :
#
#
# Convention : Reuss Voigt Hill
#
# Bulk Modulus (GPa) = 54.99555 59.96062 57.47808
# Shear Modulus (GPa) = 31.15754 33.00980 32.08367
#
# Velocity S-wave (km/s) = 3.82074 3.93267 3.87711
# Velocity P-wave (km/s) = 6.72539 6.97956 6.85366
#
# Compressibility (1/GPa) = 0.01818329
#
# Stress axis : x y z
#
# Youngs Moduli (GPa) = 110.98163 70.52260 108.35802
#
# Poissons Ratio (x) = 0.18598 0.29956
# Poissons Ratio (y) = 0.29268 0.18595
# Poissons Ratio (z) = 0.30681 0.12102
#
# Static dielectric constant tensor:
#      x y z
#    x 1.796390 0.000000 0.000000 
#    y 0.000000 1.791160 0.000000 
#    z 0.000000 0.000000 1.770450 
# 
# From -- ./inp_files/20788.got.cif
#   From: 2010.05.17/outbox.cif.g08.bks.cpg/sg40_11_cif.got.tgz:20788.got - 2010.06.03 18:35:42.
