data_PCOD9365885
_publ_section_title
;
Structure prediction by ZEFSAII (Michael W. Deem and Ramdas Pophale) SiO2 
 PCOD9365885
Probable space group: A B A 2
;
_chemical_formula_sum "Si O2"
_cell_formula_units_Z 64
_cell_length_a 14.477285
_cell_length_b 13.866893
_cell_length_c 12.036857
_cell_angle_alpha 90.000000
_cell_angle_beta 90.000000
_cell_angle_gamma 90.000000
_cell_volume 2416.458770
_symmetry_space_group_name_H-M "A B A 2"
_symmetry_group_IT_number 41
_symmetry_cell_setting 'orthorhombic'
loop_
_space_group_symop_operation_xyz
x,y,z
-x,-y,z
1/2-x,y,1/2+z
1/2+x,-y,1/2+z
x,1/2+y,1/2+z
-x,1/2-y,1/2+z
1/2-x,1/2+y,z
1/2+x,1/2-y,z
loop_
_atom_site_type_symbol
_atom_site_label
_atom_site_fract_x
_atom_site_fract_y
_atom_site_fract_z
Si Si1 0.967749 0.791728 0.544610
Si Si2 0.593926 0.047835 0.790017
Si Si3 0.773294 0.609994 0.364244
Si Si4 0.734246 0.840577 0.119362
Si Si5 0.369266 0.836904 0.156543
Si Si6 0.926505 0.071581 0.044492
Si Si7 0.711351 0.835158 0.372781
Si Si8 0.478682 0.246862 0.320431
O O1 0.876334 0.828683 0.604820
O O2 0.974614 0.675612 0.564723
O O3 0.952214 0.788010 0.412776
O O4 0.063372 0.853916 0.552396
O O5 0.683160 0.043635 0.865663
O O6 0.604984 0.021127 0.659861
O O7 0.577929 0.161883 0.780408
O O8 0.500000 0.000000 0.830233
O O9 0.820103 0.592809 0.242768
O O10 0.842478 0.588447 0.462700
O O11 0.749036 0.723901 0.372731
O O12 0.791786 0.739809 0.123222
O O13 0.744666 0.873795 0.249945
O O14 0.765560 0.878053 0.995845
O O15 0.454466 0.795099 0.228861
O O16 0.000000 0.000000 0.991902
O O17 0.599550 0.825817 0.363908
#
# Coordination Sequence:
#
# PCOD9365885 Si02
#       8
#     8   8   8   8   8   8   8   8
#     4  12  20  36  59  94 132 160 222 272 333 397
#     4  10  23  42  68  91 125 172 225 277 338 406
#     4  10  21  36  62  89 119 169 219 261 325 404
#     4  11  20  34  53  88 122 167 201 263 327 387
#     4  11  20  33  60  91 129 157 211 274 323 392
#     4  11  21  37  63  90 124 174 223 272 333 410
#     4  10  19  31  57  88 119 163 209 262 320 390
#     4  11  20  35  62  93 125 164 208 283 326 386
#
# _framework density 26.485037999999999
#
# number of rings (size 3 to 8) (size 9 to 14) (size 15 to 20)
#    0.000    1.250    6.250    2.250    0.000    0.000 
#    0.000    1.250    2.750    1.500    0.000    0.000 
#    0.000    0.000    0.000    0.000    0.000    0.000 
#
# Total GULP energy -178560.843397 kJ/mol
# GULP energy per Si atom -5580.026356 kJ/mol
# Density = 2.642476 g / cm^3
# Si number density = 26.485038 Si / 1000 Ang^3
#
#
#
# Elastic Constant Matrix: (Units=GPa)
#
#
# Indices 1 2 3 4 5 6 
#
# 1 160.6172 28.6339 50.8191 0.0000 0.0000 0.0000
# 2 28.6339 62.5450 31.9260 0.0000 0.0000 0.0000
# 3 50.8191 31.9260 139.0644 0.0000 0.0000 0.0000
# 4 0.0000 0.0000 0.0000 0.6228 0.0000 0.0000
# 5 0.0000 0.0000 0.0000 0.0000 50.6585 0.0000
# 6 0.0000 0.0000 0.0000 0.0000 0.0000 25.7767
#
#
#
# Elastic Compliance Matrix: (Units=1/GPa)
#
#
# Indices 1 2 3 4 5 6 
#
# 1 0.007308 -0.002246 -0.002155 0.000000 0.000000 0.000000
# 2 -0.002246 0.018801 -0.003496 0.000000 0.000000 0.000000
# 3 -0.002155 -0.003496 0.008781 0.000000 0.000000 0.000000
# 4 0.000000 0.000000 0.000000 1.605564 0.000000 0.000000
# 5 0.000000 0.000000 0.000000 0.000000 0.019740 0.000000
# 6 0.000000 0.000000 0.000000 0.000000 0.000000 0.038795
#
#
# Mechanical properties :
#
#
# Convention : Reuss Voigt Hill
#
# Bulk Modulus (GPa) = 52.36353 64.99829 58.68091
# Shear Modulus (GPa) = 2.90504 32.13478 17.51991
#
# Velocity S-wave (km/s) = 1.04845 3.48705 2.57476
# Velocity P-wave (km/s) = 4.61298 6.38807 5.57167
#
# Compressibility (1/GPa) = 0.01909726
#
# Stress axis : x y z
#
# Youngs Moduli (GPa) = 136.83233 53.18883 113.88249
#
# Poissons Ratio (x) = 0.11945 0.24543
# Poissons Ratio (y) = 0.30729 0.39809
# Poissons Ratio (z) = 0.29489 0.18593
#
# Static dielectric constant tensor:
#      x y z
#    x 2.409610 0.000000 0.000000 
#    y 0.000000 2.062520 0.000000 
#    z 0.000000 0.000000 2.236210 
# 
# From -- ./inp_files/5714.got.cif
#   From: 2010.05.17/outbox.cif.g08.bks.cpg/sg41_3_cif.got.tgz:5714.got - 2010.06.03 18:54:24.
