data_PCOD9365027
_publ_section_title
;
Structure prediction by ZEFSAII (Michael W. Deem and Ramdas Pophale) SiO2 
 PCOD9365027
Probable space group: A M A 2
;
_chemical_formula_sum "Si O2"
_cell_formula_units_Z 36
_cell_length_a 16.309159
_cell_length_b 12.891336
_cell_length_c 7.793738
_cell_angle_alpha 90.000000
_cell_angle_beta 90.000000
_cell_angle_gamma 90.000000
_cell_volume 1638.608853
_symmetry_space_group_name_H-M "A M A 2"
_symmetry_group_IT_number 40
_symmetry_cell_setting 'orthorhombic'
loop_
_space_group_symop_operation_xyz
x,y,z
-x,-y,z
1/2-x,y,z
1/2+x,-y,z
x,1/2+y,1/2+z
-x,1/2-y,1/2+z
1/2-x,1/2+y,1/2+z
1/2+x,1/2-y,1/2+z
loop_
_atom_site_type_symbol
_atom_site_label
_atom_site_fract_x
_atom_site_fract_y
_atom_site_fract_z
Si Si1 0.750000 0.747494 0.792901
Si Si2 0.587236 0.019434 0.618995
Si Si3 0.750000 0.514250 0.893212
Si Si4 0.250000 0.199217 0.400670
Si Si5 0.077097 0.249594 0.251881
Si Si6 0.417963 0.657446 0.412964
O O1 0.750000 0.622342 0.794819
O O2 0.750000 0.798148 0.606066
O O3 0.668593 0.786739 0.885331
O O4 0.587359 0.140353 0.658364
O O5 0.500000 0.000000 0.527391
O O6 0.668610 0.001857 0.509604
O O7 0.584190 0.945125 0.790374
O O8 0.750000 0.407482 0.790871
O O9 0.161039 0.244930 0.358023
O O10 0.992839 0.268490 0.353045
O O11 0.070506 0.154326 0.118295
#
# Coordination Sequence:
#
# PCOD9365027 Si02
#       6
#     4   8   4   4   8   8
#     4  12  23  39  65  95 134 177 222 275 330 406
#     4  10  22  41  69  94 128 175 223 271 340 403
#     4  12  23  39  65  99 130 179 224 273 334 410
#     4  12  26  40  62 100 136 172 230 278 336 404
#     4  11  24  42  68  97 133 176 224 283 341 405
#     4  11  22  42  69  96 131 178 225 275 343 406
#
# _framework density 21.969854999999999
#
# number of rings (size 3 to 8) (size 9 to 14) (size 15 to 20)
#    0.000    0.889    4.444    2.667    3.111    1.778 
#    0.000    2.222    0.000    0.000    0.000    0.000 
#    0.000    0.000    0.000    0.000    0.000    0.000 
#
# Total GULP energy -100351.194304 kJ/mol
# GULP energy per Si atom -5575.066350 kJ/mol
# Density = 2.191985 g / cm^3
# Si number density = 21.969855 Si / 1000 Ang^3
#
#
#
# Elastic Constant Matrix: (Units=GPa)
#
#
# Indices 1 2 3 4 5 6 
#
# 1 187.3130 3.6994 17.5398 0.0000 0.0000 0.0000
# 2 3.6994 81.1070 -10.0279 0.0000 0.0000 0.0000
# 3 17.5398 -10.0279 46.3664 0.0000 0.0000 0.0000
# 4 0.0000 0.0000 0.0000 9.4765 0.0000 0.0000
# 5 0.0000 0.0000 0.0000 0.0000 160.7730 0.0000
# 6 0.0000 0.0000 0.0000 0.0000 0.0000 47.0233
#
#
#
# Elastic Compliance Matrix: (Units=1/GPa)
#
#
# Indices 1 2 3 4 5 6 
#
# 1 0.005557 -0.000527 -0.002216 0.000000 0.000000 0.000000
# 2 -0.000527 0.012718 0.002950 0.000000 0.000000 0.000000
# 3 -0.002216 0.002950 0.023044 0.000000 0.000000 0.000000
# 4 0.000000 0.000000 0.000000 0.105524 0.000000 0.000000
# 5 0.000000 0.000000 0.000000 0.000000 0.006220 0.000000
# 6 0.000000 0.000000 0.000000 0.000000 0.000000 0.021266
#
#
# Mechanical properties :
#
#
# Convention : Reuss Voigt Hill
#
# Bulk Modulus (GPa) = 23.96255 37.46767 30.71511
# Shear Modulus (GPa) = 26.62041 63.69290 45.15666
#
# Velocity S-wave (km/s) = 3.48469 5.39017 4.53856
# Velocity P-wave (km/s) = 5.20783 7.47193 6.44016
#
# Compressibility (1/GPa) = 0.04173179
#
# Stress axis : x y z
#
# Youngs Moduli (GPa) = 179.96670 78.62751 43.39585
#
# Poissons Ratio (x) = 0.04147 0.09617
# Poissons Ratio (y) = 0.09492 -0.12802
# Poissons Ratio (z) = 0.39882 -0.23196
#
# Static dielectric constant tensor:
#      x y z
#    x 2.043720 0.000000 0.000000 
#    y 0.000000 1.821120 0.000000 
#    z 0.000000 0.000000 1.867640 
# 
# From -- ./inp_files/6089.got.cif
#   From: 2010.05.17/outbox.cif.g08.bks.cpg/sg40_4_cif.got.tgz:6089.got - 2010.06.03 18:35:42.
