data_PCOD9365595
_publ_section_title
;
Structure prediction by ZEFSAII (Michael W. Deem and Ramdas Pophale) SiO2 
 PCOD9365595
Probable space group: A M A 2
;
_chemical_formula_sum "Si O2"
_cell_formula_units_Z 32
_cell_length_a 26.299507
_cell_length_b 5.289166
_cell_length_c 8.948939
_cell_angle_alpha 90.000000
_cell_angle_beta 90.000000
_cell_angle_gamma 90.000000
_cell_volume 1244.819414
_symmetry_space_group_name_H-M "A M A 2"
_symmetry_group_IT_number 40
_symmetry_cell_setting 'orthorhombic'
loop_
_space_group_symop_operation_xyz
x,y,z
-x,-y,z
1/2-x,y,z
1/2+x,-y,z
x,1/2+y,1/2+z
-x,1/2-y,1/2+z
1/2-x,1/2+y,1/2+z
1/2+x,1/2-y,1/2+z
loop_
_atom_site_type_symbol
_atom_site_label
_atom_site_fract_x
_atom_site_fract_y
_atom_site_fract_z
Si Si1 0.039430 0.317641 0.989180
Si Si2 0.189832 0.049591 0.128318
Si Si3 0.848522 0.944144 0.792946
Si Si4 0.058618 0.228662 0.298391
O O1 0.092238 0.978736 0.814220
O O2 0.002320 0.753881 0.866114
O O3 0.000000 0.500000 0.083017
O O4 0.059169 0.147842 0.124176
O O5 0.250000 0.011435 0.145897
O O6 0.173655 0.303983 0.214360
O O7 0.162453 0.801031 0.194168
O O8 0.176217 0.083763 0.954956
O O9 0.920986 0.494477 0.908623
#
# Coordination Sequence:
#
# PCOD9365595 Si02
#       4
#     8   8   8   8
#     4   8  20  38  61  89 137 175 224 270 336 390
#     4  12  26  47  72 104 140 182 228 297 361 414
#     4  12  26  46  75 104 141 181 239 286 344 432
#     4   9  20  43  61 100 131 186 224 280 335 402
#
# _framework density 25.706537999999998
#
# number of rings (size 3 to 8) (size 9 to 14) (size 15 to 20)
#    1.500    0.000    0.000    5.250    0.000    4.000 
#    9.000    0.000    0.000    0.000    0.000    0.000 
#    0.000    0.000    0.000    0.000    0.000    0.000 
#
# Total GULP energy -89432.903006 kJ/mol
# GULP energy per Si atom -5589.556438 kJ/mol
# Density = 2.564803 g / cm^3
# Si number density = 25.706538 Si / 1000 Ang^3
#
#
#
# Elastic Constant Matrix: (Units=GPa)
#
#
# Indices 1 2 3 4 5 6 
#
# 1 109.4799 11.1149 4.6086 0.0000 0.0000 0.0000
# 2 11.1149 146.6452 56.6119 0.0000 0.0000 0.0000
# 3 4.6086 56.6119 201.0203 0.0000 0.0000 0.0000
# 4 0.0000 0.0000 0.0000 51.9302 0.0000 0.0000
# 5 0.0000 0.0000 0.0000 0.0000 31.7346 0.0000
# 6 0.0000 0.0000 0.0000 0.0000 0.0000 33.8525
#
#
#
# Elastic Compliance Matrix: (Units=1/GPa)
#
#
# Indices 1 2 3 4 5 6 
#
# 1 0.009205 -0.000691 -0.000016 0.000000 0.000000 0.000000
# 2 -0.000691 0.007703 -0.002153 0.000000 0.000000 0.000000
# 3 -0.000016 -0.002153 0.005581 0.000000 0.000000 0.000000
# 4 0.000000 0.000000 0.000000 0.019257 0.000000 0.000000
# 5 0.000000 0.000000 0.000000 0.000000 0.031511 0.000000
# 6 0.000000 0.000000 0.000000 0.000000 0.000000 0.029540
#
#
# Mechanical properties :
#
#
# Convention : Reuss Voigt Hill
#
# Bulk Modulus (GPa) = 59.64092 66.86846 63.25469
# Shear Modulus (GPa) = 43.81790 49.15745 46.48768
#
# Velocity S-wave (km/s) = 4.13309 4.37768 4.25714
# Velocity P-wave (km/s) = 6.78437 7.18476 6.98743
#
# Compressibility (1/GPa) = 0.01676701
#
# Stress axis : x y z
#
# Youngs Moduli (GPa) = 108.63690 129.82087 179.16451
#
# Poissons Ratio (x) = 0.08976 0.00292
# Poissons Ratio (y) = 0.07511 0.38583
# Poissons Ratio (z) = 0.00177 0.27957
#
# Static dielectric constant tensor:
#      x y z
#    x 2.081630 0.000000 0.000000 
#    y 0.000000 2.799610 0.000000 
#    z 0.000000 0.000000 2.045390 
# 
# From -- ./inp_files/3280.got.cif
#   From: 2010.05.17/outbox.cif.g08.bks.cpg/sg40_2_cif.got.tgz:3280.got - 2010.06.03 18:35:42.
