data_PCOD9365321
_publ_section_title
;
Structure prediction by ZEFSAII (Michael W. Deem and Ramdas Pophale) SiO2 
 PCOD9365321
Probable space group: A M A 2
;
_chemical_formula_sum "Si O2"
_cell_formula_units_Z 60
_cell_length_a 29.100110
_cell_length_b 11.823934
_cell_length_c 7.271574
_cell_angle_alpha 90.000000
_cell_angle_beta 90.000000
_cell_angle_gamma 90.000000
_cell_volume 2501.987039
_symmetry_space_group_name_H-M "A M A 2"
_symmetry_group_IT_number 40
_symmetry_cell_setting 'orthorhombic'
loop_
_space_group_symop_operation_xyz
x,y,z
-x,-y,z
1/2-x,y,z
1/2+x,-y,z
x,1/2+y,1/2+z
-x,1/2-y,1/2+z
1/2-x,1/2+y,1/2+z
1/2+x,1/2-y,1/2+z
loop_
_atom_site_type_symbol
_atom_site_label
_atom_site_fract_x
_atom_site_fract_y
_atom_site_fract_z
Si Si1 0.802012 0.897017 0.074040
Si Si2 0.948258 0.952705 0.342848
Si Si3 0.070874 0.227770 0.788647
Si Si4 0.365063 0.908065 0.224413
Si Si5 0.970313 0.717670 0.176011
Si Si6 0.165770 0.354179 0.137279
Si Si7 0.750000 0.489440 0.263710
Si Si8 0.420432 0.483852 0.253767
O O1 0.750000 0.901460 0.160062
O O2 0.826624 0.781611 0.135292
O O3 0.828370 0.012806 0.123246
O O4 0.789833 0.905064 0.857680
O O5 0.949450 0.824926 0.275944
O O6 0.912742 0.023303 0.221631
O O7 0.928836 0.967971 0.547791
O O8 0.000000 0.000000 0.333849
O O9 0.114680 0.282619 0.687469
O O10 0.024863 0.232732 0.666778
O O11 0.082260 0.101490 0.857292
O O12 0.054601 0.290934 0.977547
O O13 0.345068 0.891989 0.429175
O O14 0.962213 0.601604 0.286411
O O15 0.210422 0.420565 0.200700
O O16 0.123348 0.401736 0.256728
#
# Coordination Sequence:
#
# PCOD9365321 Si02
#       8
#     8   8   8   8   8   8   4   8
#     4  10  25  49  72 104 141 173 232 298 357 434
#     4  11  21  44  68  95 144 190 232 292 338 407
#     4  12  25  44  67 103 143 191 240 288 345 411
#     4  11  25  45  70 103 140 187 232 286 364 414
#     4  12  23  46  66  97 149 191 236 297 337 396
#     4  11  23  49  73 100 142 179 220 298 355 422
#     4  10  24  46  74 104 130 172 232 288 364 430
#     4  11  25  43  67 102 140 185 241 280 349 413
#
# _framework density 23.98094
#
# number of rings (size 3 to 8) (size 9 to 14) (size 15 to 20)
#    0.400    0.533    4.667    2.800    2.800    1.067 
#   12.000    1.333    0.000    0.000    0.000    0.000 
#    0.000    0.000    0.000    0.000    0.000    0.000 
#
# Total GULP energy -167066.208740 kJ/mol
# GULP energy per Si atom -5568.873625 kJ/mol
# Density = 2.392636 g / cm^3
# Si number density = 23.980940 Si / 1000 Ang^3
#
#
#
# Elastic Constant Matrix: (Units=GPa)
#
#
# Indices 1 2 3 4 5 6 
#
# 1 127.2259 53.8103 18.2933 0.0000 0.0000 0.0000
# 2 53.8103 171.6951 25.3837 0.0000 0.0000 0.0000
# 3 18.2933 25.3837 35.8892 0.0000 0.0000 0.0000
# 4 0.0000 0.0000 0.0000 38.5809 0.0000 0.0000
# 5 0.0000 0.0000 0.0000 0.0000 34.2821 0.0000
# 6 0.0000 0.0000 0.0000 0.0000 0.0000 40.6537
#
#
#
# Elastic Compliance Matrix: (Units=1/GPa)
#
#
# Indices 1 2 3 4 5 6 
#
# 1 0.009343 -0.002484 -0.003005 0.000000 0.000000 0.000000
# 2 -0.002484 0.007165 -0.003801 0.000000 0.000000 0.000000
# 3 -0.003005 -0.003801 0.032084 0.000000 0.000000 0.000000
# 4 0.000000 0.000000 0.000000 0.025920 0.000000 0.000000
# 5 0.000000 0.000000 0.000000 0.000000 0.029170 0.000000
# 6 0.000000 0.000000 0.000000 0.000000 0.000000 0.024598
#
#
# Mechanical properties :
#
#
# Convention : Reuss Voigt Hill
#
# Bulk Modulus (GPa) = 33.32190 58.86498 46.09344
# Shear Modulus (GPa) = 31.87487 38.52488 35.19987
#
# Velocity S-wave (km/s) = 3.64974 4.01244 3.83538
# Velocity P-wave (km/s) = 5.62904 6.78720 6.23507
#
# Compressibility (1/GPa) = 0.03001030
#
# Stress axis : x y z
#
# Youngs Moduli (GPa) = 107.03593 139.57305 31.16807
#
# Poissons Ratio (x) = 0.34666 0.09367
# Poissons Ratio (y) = 0.26585 0.11848
# Poissons Ratio (z) = 0.32169 0.53058
#
# Static dielectric constant tensor:
#      x y z
#    x 1.918470 0.000000 0.000000 
#    y 0.000000 1.970650 0.000000 
#    z 0.000000 0.000000 2.014010 
# 
# From -- ./inp_files/9161.got.cif
#   From: 2010.05.17/outbox.cif.g08.bks.cpg/sg40_5_cif.got.tgz:9161.got - 2010.06.03 18:35:42.
