data_PCOD9365275
_publ_section_title
;
Structure prediction by ZEFSAII (Michael W. Deem and Ramdas Pophale) SiO2 
 PCOD9365275
Probable space group: A M A 2
;
_chemical_formula_sum "Si O2"
_cell_formula_units_Z 44
_cell_length_a 9.238090
_cell_length_b 26.751230
_cell_length_c 8.212093
_cell_angle_alpha 90.000000
_cell_angle_beta 90.000000
_cell_angle_gamma 90.000000
_cell_volume 2029.456763
_symmetry_space_group_name_H-M "A M A 2"
_symmetry_group_IT_number 40
_symmetry_cell_setting 'orthorhombic'
loop_
_space_group_symop_operation_xyz
x,y,z
-x,-y,z
1/2-x,y,z
1/2+x,-y,z
x,1/2+y,1/2+z
-x,1/2-y,1/2+z
1/2-x,1/2+y,1/2+z
1/2+x,1/2-y,1/2+z
loop_
_atom_site_type_symbol
_atom_site_label
_atom_site_fract_x
_atom_site_fract_y
_atom_site_fract_z
Si Si1 0.500000 0.500000 0.431660
Si Si2 0.919083 0.220714 0.587804
Si Si3 0.080746 0.179106 0.900397
Si Si4 0.583780 0.098626 0.097266
Si Si5 0.923140 0.861719 0.409237
Si Si6 0.409971 0.045545 0.607636
O O1 0.577711 0.541092 0.540843
O O2 0.410090 0.532791 0.299564
O O3 0.750000 0.207813 0.611923
O O4 0.925583 0.278963 0.542047
O O5 0.015203 0.205353 0.741553
O O6 0.988134 0.188539 0.441009
O O7 0.250000 0.165270 0.875467
O O8 0.981403 0.133260 0.954778
O O9 0.750000 0.112249 0.132921
O O10 0.480869 0.110113 0.250106
O O11 0.750000 0.852628 0.402893
O O12 0.959963 0.899525 0.558927
O O13 0.250000 0.041929 0.540551
O O14 0.500000 0.000000 0.533307
#
# Coordination Sequence:
#
# PCOD9365275 Si02
#       6
#     4   8   8   8   8   8
#     4  10  24  42  64  92 126 168 214 266 324 380
#     4  11  24  43  69  99 131 173 219 265 322 391
#     4  11  25  44  68  98 134 172 215 269 327 385
#     4  12  26  43  66  96 131 174 221 270 324 391
#     4  11  24  42  66  96 132 172 216 270 329 387
#     4   9  21  40  62  88 121 162 209 259 315 378
#
# _framework density 21.680679000000001
#
# number of rings (size 3 to 8) (size 9 to 14) (size 15 to 20)
#    0.545    0.727    0.000    4.909    1.273   11.636 
#    0.000    0.000    0.000    0.000    0.000    0.000 
#    0.000    0.000    0.000    0.000    0.000    0.000 
#
# Total GULP energy -122856.755102 kJ/mol
# GULP energy per Si atom -5584.397959 kJ/mol
# Density = 2.163133 g / cm^3
# Si number density = 21.680679 Si / 1000 Ang^3
#
#
#
# Elastic Constant Matrix: (Units=GPa)
#
#
# Indices 1 2 3 4 5 6 
#
# 1 97.4828 26.2096 4.3250 0.0000 0.0000 0.0000
# 2 26.2096 93.7293 4.5321 0.0000 0.0000 0.0000
# 3 4.3250 4.5321 72.2779 0.0000 0.0000 0.0000
# 4 0.0000 0.0000 0.0000 37.4121 0.0000 0.0000
# 5 0.0000 0.0000 0.0000 0.0000 28.5964 0.0000
# 6 0.0000 0.0000 0.0000 0.0000 0.0000 28.3651
#
#
#
# Elastic Compliance Matrix: (Units=1/GPa)
#
#
# Indices 1 2 3 4 5 6 
#
# 1 0.011108 -0.003083 -0.000471 0.000000 0.000000 0.000000
# 2 -0.003083 0.011557 -0.000540 0.000000 0.000000 0.000000
# 3 -0.000471 -0.000540 0.013898 0.000000 0.000000 0.000000
# 4 0.000000 0.000000 0.000000 0.026729 0.000000 0.000000
# 5 0.000000 0.000000 0.000000 0.000000 0.034969 0.000000
# 6 0.000000 0.000000 0.000000 0.000000 0.000000 0.035255
#
#
# Mechanical properties :
#
#
# Convention : Reuss Voigt Hill
#
# Bulk Modulus (GPa) = 35.24453 37.06928 36.15690
# Shear Modulus (GPa) = 33.07667 34.10295 33.58981
#
# Velocity S-wave (km/s) = 3.91017 3.97036 3.94038
# Velocity P-wave (km/s) = 6.05618 6.17684 6.11681
#
# Compressibility (1/GPa) = 0.02837320
#
# Stress axis : x y z
#
# Youngs Moduli (GPa) = 90.02408 86.52501 71.95507
#
# Poissons Ratio (x) = 0.26679 0.03392
# Poissons Ratio (y) = 0.27758 0.03887
# Poissons Ratio (z) = 0.04243 0.04674
#
# Static dielectric constant tensor:
#      x y z
#    x 1.742690 0.000000 0.000000 
#    y 0.000000 1.827120 0.000000 
#    z 0.000000 0.000000 1.838960 
# 
# From -- ./inp_files/4476.got.cif
#   From: 2010.05.17/outbox.cif.g08.bks.cpg/sg40_3_cif.got.tgz:4476.got - 2010.06.03 18:35:42.
