data_PCOD9365363
_publ_section_title
;
Structure prediction by ZEFSAII (Michael W. Deem and Ramdas Pophale) SiO2 
 PCOD9365363
Probable space group: A M A 2
;
_chemical_formula_sum "Si O2"
_cell_formula_units_Z 48
_cell_length_a 14.222885
_cell_length_b 9.441446
_cell_length_c 19.352550
_cell_angle_alpha 90.000000
_cell_angle_beta 90.000000
_cell_angle_gamma 90.000000
_cell_volume 2598.749449
_symmetry_space_group_name_H-M "A M A 2"
_symmetry_group_IT_number 40
_symmetry_cell_setting 'orthorhombic'
loop_
_space_group_symop_operation_xyz
x,y,z
-x,-y,z
1/2-x,y,z
1/2+x,-y,z
x,1/2+y,1/2+z
-x,1/2-y,1/2+z
1/2-x,1/2+y,1/2+z
1/2+x,1/2-y,1/2+z
loop_
_atom_site_type_symbol
_atom_site_label
_atom_site_fract_x
_atom_site_fract_y
_atom_site_fract_z
Si Si1 0.039959 0.157909 0.710100
Si Si2 0.035761 0.656590 0.580094
Si Si3 0.750000 0.756861 0.243585
Si Si4 0.750000 0.435283 0.207444
Si Si5 0.438218 0.640242 0.976224
Si Si6 0.750000 0.284232 0.577844
Si Si7 0.057932 0.145694 0.312365
Si Si8 0.750000 0.970806 0.543223
O O1 0.152538 0.148330 0.716460
O O2 0.996706 0.247357 0.645837
O O3 0.002526 0.228562 0.779647
O O4 0.000000 0.000000 0.701521
O O5 0.147512 0.649402 0.566288
O O6 0.000000 0.500000 0.593346
O O7 0.986918 0.728988 0.514224
O O8 0.750000 0.583643 0.250983
O O9 0.750000 0.768353 0.161017
O O10 0.841300 0.833632 0.275319
O O11 0.750000 0.465595 0.125695
O O12 0.500000 0.500000 0.988598
O O13 0.429052 0.659364 0.894337
O O14 0.339799 0.605293 0.011823
O O15 0.750000 0.139873 0.532627
O O16 0.000000 0.000000 0.298509
#
# Coordination Sequence:
#
# PCOD9365363 Si02
#       8
#     8   8   4   4   8   4   8   4
#     4  12  22  42  67  94 132 172 219 268 324 391
#     4  12  25  42  66  99 135 167 214 281 327 382
#     4  11  21  41  65  97 132 170 213 274 331 378
#     4  11  22  36  71 103 121 170 227 269 319 395
#     4  11  23  42  67  93 130 178 222 262 324 395
#     4  11  22  38  71  99 127 168 217 277 329 377
#     4  11  25  42  65  97 133 175 216 271 328 390
#     4  11  19  39  71  99 126 168 229 270 311 404
#
# _framework density 18.470421000000002
#
# number of rings (size 3 to 8) (size 9 to 14) (size 15 to 20)
#    0.000    0.667    6.667    2.500    0.000    2.667 
#    0.000    1.667    0.000    0.000    0.000    0.000 
#    0.000    0.000    0.000    0.000    0.000    0.000 
#
# Total GULP energy -133933.507856 kJ/mol
# GULP energy per Si atom -5580.562827 kJ/mol
# Density = 1.842838 g / cm^3
# Si number density = 18.470421 Si / 1000 Ang^3
#
#
#
# Elastic Constant Matrix: (Units=GPa)
#
#
# Indices 1 2 3 4 5 6 
#
# 1 196.7717 58.4246 44.2667 0.0000 0.0000 0.0000
# 2 58.4246 125.6359 48.6490 0.0000 0.0000 0.0000
# 3 44.2667 48.6490 83.0754 0.0000 0.0000 0.0000
# 4 0.0000 0.0000 0.0000 27.7924 0.0000 0.0000
# 5 0.0000 0.0000 0.0000 0.0000 25.8796 0.0000
# 6 0.0000 0.0000 0.0000 0.0000 0.0000 -20.5624
#
#
#
# Elastic Compliance Matrix: (Units=1/GPa)
#
#
# Indices 1 2 3 4 5 6 
#
# 1 0.006161 -0.002061 -0.002076 0.000000 0.000000 0.000000
# 2 -0.002061 0.010983 -0.005333 0.000000 0.000000 0.000000
# 3 -0.002076 -0.005333 0.016267 0.000000 0.000000 0.000000
# 4 0.000000 0.000000 0.000000 0.035981 0.000000 0.000000
# 5 0.000000 0.000000 0.000000 0.000000 0.038641 0.000000
# 6 0.000000 0.000000 0.000000 0.000000 0.000000 -0.048633
#
#
# Mechanical properties :
#
#
# Convention : Reuss Voigt Hill
#
# Bulk Modulus (GPa) = 69.10929 78.68486 73.89708
# Shear Modulus (GPa) = 60.12181 23.56476 41.84328
#
# Velocity S-wave (km/s) = 5.71148 3.57572 4.76481
# Velocity P-wave (km/s) = 8.99956 7.72921 8.38847
#
# Compressibility (1/GPa) = 0.01446983
#
# Stress axis : x y z
#
# Youngs Moduli (GPa) = 162.31015 91.04728 61.47549
#
# Poissons Ratio (x) = 0.18767 0.12761
# Poissons Ratio (y) = 0.33457 0.32788
# Poissons Ratio (z) = 0.33693 0.48560
#
# Static dielectric constant tensor:
#      x y z
#    x 1.648430 0.000000 0.000000 
#    y 0.000000 1.635210 0.000000 
#    z 0.000000 0.000000 1.618000 
# 
# From -- ./inp_files/20621.got.cif
#   From: 2010.05.17/outbox.cif.g08.bks.cpg/sg40_11_cif.got.tgz:20621.got - 2010.06.03 18:35:42.
