data_PCOD9365806
_publ_section_title
;
Structure prediction by ZEFSAII (Michael W. Deem and Ramdas Pophale) SiO2 
 PCOD9365806
Probable space group: A B A 2
;
_chemical_formula_sum "Si O2"
_cell_formula_units_Z 60
_cell_length_a 26.998246
_cell_length_b 17.238385
_cell_length_c 5.559757
_cell_angle_alpha 90.000000
_cell_angle_beta 90.000000
_cell_angle_gamma 90.000000
_cell_volume 2587.545150
_symmetry_space_group_name_H-M "A B A 2"
_symmetry_group_IT_number 41
_symmetry_cell_setting 'orthorhombic'
loop_
_space_group_symop_operation_xyz
x,y,z
-x,-y,z
1/2-x,y,1/2+z
1/2+x,-y,1/2+z
x,1/2+y,1/2+z
-x,1/2-y,1/2+z
1/2-x,1/2+y,z
1/2+x,1/2-y,z
loop_
_atom_site_type_symbol
_atom_site_label
_atom_site_fract_x
_atom_site_fract_y
_atom_site_fract_z
Si Si1 0.367437 0.701364 0.606010
Si Si2 0.483170 0.629451 0.105369
Si Si3 0.576024 0.079975 0.926883
Si Si4 0.000000 0.000000 0.728664
Si Si5 0.260599 0.781917 0.593339
Si Si6 0.723341 0.889619 0.578527
Si Si7 0.584305 0.244514 0.106793
Si Si8 0.122669 0.561981 0.787796
O O1 0.315077 0.744995 0.600696
O O2 0.396542 0.734867 0.373236
O O3 0.364168 0.610654 0.530590
O O4 0.391260 0.717995 0.865516
O O5 0.531456 0.611383 0.261252
O O6 0.471185 0.720198 0.090614
O O7 0.431446 0.592386 0.201669
O O8 0.493040 0.580050 0.868620
O O9 0.618702 0.031001 0.801138
O O10 0.592076 0.153537 0.076523
O O11 0.549482 0.014029 0.082478
O O12 0.251265 0.824417 0.341975
O O13 0.225622 0.704811 0.585853
O O14 0.747694 0.913465 0.324320
O O15 0.667039 0.915725 0.609470
#
# Coordination Sequence:
#
# PCOD9365806 Si02
#       8
#     8   8   8   4   8   8   8   8
#     4  11  23  43  67 103 131 176 228 276 331 414
#     4  11  25  42  66  99 134 179 228 284 333 409
#     4  12  26  46  63 103 138 181 224 287 338 418
#     4  12  22  44  70  94 134 180 234 282 332 386
#     4  10  18  34  63 101 129 160 221 287 324 377
#     4  10  21  35  63 104 130 164 218 292 333 383
#     4  11  29  41  68  95 143 183 220 271 353 402
#     4  11  21  43  69 100 135 171 235 277 342 397
#
# _framework density 23.188001
#
# number of rings (size 3 to 8) (size 9 to 14) (size 15 to 20)
#    0.000    1.067    5.333    1.600   11.200    1.067 
#    0.000    0.000    0.000    4.800    0.000    0.000 
#    0.000    0.000    0.000    0.000    0.000    0.000 
#
# Total GULP energy -167517.194451 kJ/mol
# GULP energy per Si atom -5583.906482 kJ/mol
# Density = 2.313522 g / cm^3
# Si number density = 23.188001 Si / 1000 Ang^3
#
#
#
# Elastic Constant Matrix: (Units=GPa)
#
#
# Indices 1 2 3 4 5 6 
#
# 1 52.8710 3.5653 40.7999 0.0000 0.0000 0.0000
# 2 3.5653 64.5794 10.5578 0.0000 0.0000 0.0000
# 3 40.7999 10.5578 151.7795 0.0000 0.0000 0.0000
# 4 0.0000 0.0000 0.0000 25.4966 0.0000 0.0000
# 5 0.0000 0.0000 0.0000 0.0000 13.7561 0.0000
# 6 0.0000 0.0000 0.0000 0.0000 0.0000 3.9284
#
#
#
# Elastic Compliance Matrix: (Units=1/GPa)
#
#
# Indices 1 2 3 4 5 6 
#
# 1 0.023869 -0.000272 -0.006397 0.000000 0.000000 0.000000
# 2 -0.000272 0.015666 -0.001017 0.000000 0.000000 0.000000
# 3 -0.006397 -0.001017 0.008379 0.000000 0.000000 0.000000
# 4 0.000000 0.000000 0.000000 0.039221 0.000000 0.000000
# 5 0.000000 0.000000 0.000000 0.000000 0.072695 0.000000
# 6 0.000000 0.000000 0.000000 0.000000 0.000000 0.254557
#
#
# Mechanical properties :
#
#
# Convention : Reuss Voigt Hill
#
# Bulk Modulus (GPa) = 30.72929 42.11953 36.42441
# Shear Modulus (GPa) = 11.34800 22.92334 17.13567
#
# Velocity S-wave (km/s) = 2.21462 3.14759 2.72138
# Velocity P-wave (km/s) = 4.45201 5.60478 5.06132
#
# Compressibility (1/GPa) = 0.03254224
#
# Stress axis : x y z
#
# Youngs Moduli (GPa) = 41.89531 63.83239 119.34759
#
# Poissons Ratio (x) = 0.01735 0.76350
# Poissons Ratio (y) = 0.01139 0.12133
# Poissons Ratio (z) = 0.26802 0.06489
#
# Static dielectric constant tensor:
#      x y z
#    x 1.890250 0.000000 0.000000 
#    y 0.000000 1.935570 0.000000 
#    z 0.000000 0.000000 1.956910 
# 
# From -- ./inp_files/1206.got.cif
#   From: 2010.05.17/outbox.cif.g08.bks.cpg/sg41_1_cif.got.tgz:1206.got - 2010.06.03 18:54:24.
