data_PCOD9365945
_publ_section_title
;
Structure prediction by ZEFSAII (Michael W. Deem and Ramdas Pophale) SiO2 
 PCOD9365945
Probable space group: A B A 2
;
_chemical_formula_sum "Si O2"
_cell_formula_units_Z 64
_cell_length_a 28.752974
_cell_length_b 17.376896
_cell_length_c 5.761866
_cell_angle_alpha 90.000000
_cell_angle_beta 90.000000
_cell_angle_gamma 90.000000
_cell_volume 2878.843971
_symmetry_space_group_name_H-M "A B A 2"
_symmetry_group_IT_number 41
_symmetry_cell_setting 'orthorhombic'
loop_
_space_group_symop_operation_xyz
x,y,z
-x,-y,z
1/2-x,y,1/2+z
1/2+x,-y,1/2+z
x,1/2+y,1/2+z
-x,1/2-y,1/2+z
1/2-x,1/2+y,z
1/2+x,1/2-y,z
loop_
_atom_site_type_symbol
_atom_site_label
_atom_site_fract_x
_atom_site_fract_y
_atom_site_fract_z
Si Si1 0.003887 0.650376 0.731800
Si Si2 0.573881 0.219578 0.398300
Si Si3 0.936359 0.582588 0.079563
Si Si4 0.240092 0.448077 0.783865
Si Si5 0.567090 0.941634 0.402034
Si Si6 0.772925 0.378073 0.302125
Si Si7 0.130009 0.656200 0.115296
Si Si8 0.135853 0.009896 0.276599
O O1 0.041953 0.716051 0.774155
O O2 0.029523 0.584475 0.587314
O O3 0.959992 0.683674 0.592413
O O4 0.982807 0.615587 0.964799
O O5 0.586148 0.151763 0.223342
O O6 0.618334 0.262675 0.501074
O O7 0.947791 0.512055 0.245744
O O8 0.900510 0.548295 0.894465
O O9 0.252034 0.409272 0.536086
O O10 0.269984 0.528150 0.794929
O O11 0.186541 0.474006 0.771178
O O12 0.583429 0.868831 0.251666
O O13 0.613960 0.969573 0.530376
O O14 0.752263 0.355699 0.555863
O O15 0.824905 0.346355 0.276026
O O16 0.137439 0.588772 0.925347
#
# Coordination Sequence:
#
# PCOD9365945 Si02
#       8
#     8   8   8   8   8   8   8   8
#     4  12  25  46  68  94 130 187 238 281 348 421
#     4  12  25  45  66  92 136 183 233 281 344 425
#     4  11  28  45  65  97 135 182 227 293 355 416
#     4  10  19  34  64 101 139 177 223 290 352 429
#     4  11  25  44  69  99 137 171 236 297 346 416
#     4  10  19  35  64 105 141 176 229 293 351 419
#     4  11  23  39  68 105 134 180 230 288 349 416
#     4  11  22  41  66 102 136 173 228 289 358 414
#
# _framework density 22.231145999999999
#
# number of rings (size 3 to 8) (size 9 to 14) (size 15 to 20)
#    0.000    1.000    5.000    3.000    1.750    3.000 
#    0.000    0.000    0.000    1.500    0.000    0.000 
#    0.000    0.000    0.000    0.000    0.000    0.000 
#
# Total GULP energy -179092.762492 kJ/mol
# GULP energy per Si atom -5596.648828 kJ/mol
# Density = 2.218055 g / cm^3
# Si number density = 22.231146 Si / 1000 Ang^3
#
#
#
# Elastic Constant Matrix: (Units=GPa)
#
#
# Indices 1 2 3 4 5 6 
#
# 1 63.1543 19.8173 13.9213 0.0000 0.0000 0.0000
# 2 19.8173 67.2639 22.0445 0.0000 0.0000 0.0000
# 3 13.9213 22.0445 107.2927 0.0000 0.0000 0.0000
# 4 0.0000 0.0000 0.0000 28.9460 0.0000 0.0000
# 5 0.0000 0.0000 0.0000 0.0000 33.3901 0.0000
# 6 0.0000 0.0000 0.0000 0.0000 0.0000 5.2650
#
#
#
# Elastic Compliance Matrix: (Units=1/GPa)
#
#
# Indices 1 2 3 4 5 6 
#
# 1 0.017617 -0.004762 -0.001307 0.000000 0.000000 0.000000
# 2 -0.004762 0.017227 -0.002922 0.000000 0.000000 0.000000
# 3 -0.001307 -0.002922 0.010090 0.000000 0.000000 0.000000
# 4 0.000000 0.000000 0.000000 0.034547 0.000000 0.000000
# 5 0.000000 0.000000 0.000000 0.000000 0.029949 0.000000
# 6 0.000000 0.000000 0.000000 0.000000 0.000000 0.189933
#
#
# Mechanical properties :
#
#
# Convention : Reuss Voigt Hill
#
# Bulk Modulus (GPa) = 37.10243 38.80857 37.95550
# Shear Modulus (GPa) = 15.32197 25.64875 20.48536
#
# Velocity S-wave (km/s) = 2.62813 3.40035 3.03887
# Velocity P-wave (km/s) = 5.09265 5.73683 5.42431
#
# Compressibility (1/GPa) = 0.02695241
#
# Stress axis : x y z
#
# Youngs Moduli (GPa) = 56.76458 58.04754 99.10578
#
# Poissons Ratio (x) = 0.27641 0.12957
# Poissons Ratio (y) = 0.27030 0.28956
# Poissons Ratio (z) = 0.07421 0.16960
#
# Static dielectric constant tensor:
#      x y z
#    x 1.807060 0.000000 0.000000 
#    y 0.000000 1.775800 0.000000 
#    z 0.000000 0.000000 1.878660 
# 
# From -- ./inp_files/1403.got.cif
#   From: 2010.05.17/outbox.cif.g08.bks.cpg/sg41_1_cif.got.tgz:1403.got - 2010.06.03 18:54:24.
