data_PCOD9365817
_publ_section_title
;
Structure prediction by ZEFSAII (Michael W. Deem and Ramdas Pophale) SiO2 
 PCOD9365817
Probable space group: A B A 2
;
_chemical_formula_sum "Si O2"
_cell_formula_units_Z 52
_cell_length_a 20.544793
_cell_length_b 16.308951
_cell_length_c 8.447327
_cell_angle_alpha 90.000000
_cell_angle_beta 90.000000
_cell_angle_gamma 90.000000
_cell_volume 2830.395363
_symmetry_space_group_name_H-M "A B A 2"
_symmetry_group_IT_number 41
_symmetry_cell_setting 'orthorhombic'
loop_
_space_group_symop_operation_xyz
x,y,z
-x,-y,z
1/2-x,y,1/2+z
1/2+x,-y,1/2+z
x,1/2+y,1/2+z
-x,1/2-y,1/2+z
1/2-x,1/2+y,z
1/2+x,1/2-y,z
loop_
_atom_site_type_symbol
_atom_site_label
_atom_site_fract_x
_atom_site_fract_y
_atom_site_fract_z
Si Si1 0.035226 0.671949 0.176500
Si Si2 0.162375 0.751581 0.310899
Si Si3 0.000000 0.500000 0.105964
Si Si4 0.237387 0.665993 0.045077
Si Si5 0.408514 0.420334 0.341742
Si Si6 0.337523 0.083439 0.766298
Si Si7 0.035788 0.177795 0.294068
O O1 0.096571 0.701839 0.276089
O O2 0.022871 0.576979 0.205727
O O3 0.977651 0.732400 0.227638
O O4 0.042253 0.680170 0.985642
O O5 0.201743 0.736438 0.147309
O O6 0.208897 0.710626 0.438715
O O7 0.139074 0.842292 0.360088
O O8 0.941870 0.535087 0.993837
O O9 0.276497 0.602673 0.155433
O O10 0.186960 0.614585 0.938499
O O11 0.366157 0.492043 0.262938
O O12 0.472943 0.380466 0.258920
O O13 0.398974 0.140314 0.724190
#
# Coordination Sequence:
#
# PCOD9365817 Si02
#       7
#     8   8   4   8   8   8   8
#     4  10  20  36  59  85 113 150 188 237 297 341
#     4  10  21  39  57  85 115 155 196 234 284 353
#     4  10  18  36  56  90 112 148 178 240 306 338
#     4  10  23  37  59  79 117 162 195 231 282 343
#     4  10  19  35  62  84 114 145 190 243 295 335
#     4  11  20  39  58  84 114 155 192 238 281 345
#     4  10  20  35  62  85 114 147 189 239 297 345
#
# _framework density 18.371991000000001
#
# number of rings (size 3 to 8) (size 9 to 14) (size 15 to 20)
#    0.000    1.846    4.615    0.000    6.462    1.231 
#    0.000    3.077    0.000    0.000    0.000    0.000 
#    0.000    0.000    0.000    0.000    0.000    0.000 
#
# Total GULP energy -144858.082941 kJ/mol
# GULP energy per Si atom -5571.464729 kJ/mol
# Density = 1.833018 g / cm^3
# Si number density = 18.371991 Si / 1000 Ang^3
#
#
#
# Elastic Constant Matrix: (Units=GPa)
#
#
# Indices 1 2 3 4 5 6 
#
# 1 81.8650 56.3576 15.5768 0.0000 0.0000 0.0000
# 2 56.3576 157.8714 25.5712 0.0000 0.0000 0.0000
# 3 15.5768 25.5712 33.2146 0.0000 0.0000 0.0000
# 4 0.0000 0.0000 0.0000 19.4616 0.0000 0.0000
# 5 0.0000 0.0000 0.0000 0.0000 20.1292 0.0000
# 6 0.0000 0.0000 0.0000 0.0000 0.0000 19.5400
#
#
#
# Elastic Compliance Matrix: (Units=1/GPa)
#
#
# Indices 1 2 3 4 5 6 
#
# 1 0.016579 -0.005323 -0.003677 0.000000 0.000000 0.000000
# 2 -0.005323 0.008946 -0.004391 0.000000 0.000000 0.000000
# 3 -0.003677 -0.004391 0.035212 0.000000 0.000000 0.000000
# 4 0.000000 0.000000 0.000000 0.051383 0.000000 0.000000
# 5 0.000000 0.000000 0.000000 0.000000 0.049679 0.000000
# 6 0.000000 0.000000 0.000000 0.000000 0.000000 0.051177
#
#
# Mechanical properties :
#
#
# Convention : Reuss Voigt Hill
#
# Bulk Modulus (GPa) = 29.45055 51.99580 40.72318
# Shear Modulus (GPa) = 19.91422 23.52252 21.71837
#
# Velocity S-wave (km/s) = 3.29590 3.58208 3.44196
# Velocity P-wave (km/s) = 5.52711 6.74325 6.16524
#
# Compressibility (1/GPa) = 0.03395522
#
# Stress axis : x y z
#
# Youngs Moduli (GPa) = 60.31604 111.78590 28.39930
#
# Poissons Ratio (x) = 0.59503 0.10443
# Poissons Ratio (y) = 0.32106 0.12469
# Poissons Ratio (z) = 0.22180 0.49083
#
# Static dielectric constant tensor:
#      x y z
#    x 1.643570 0.000000 0.000000 
#    y 0.000000 1.620670 0.000000 
#    z 0.000000 0.000000 1.658130 
# 
# From -- ./inp_files/3142.got.cif
#   From: 2010.05.17/outbox.cif.g08.bks.cpg/sg41_2_cif.got.tgz:3142.got - 2010.06.03 18:54:24.
