data_PCOD9365888
_publ_section_title
;
Structure prediction by ZEFSAII (Michael W. Deem and Ramdas Pophale) SiO2 
 PCOD9365888
Probable space group: A B A 2
;
_chemical_formula_sum "Si O2"
_cell_formula_units_Z 48
_cell_length_a 18.838528
_cell_length_b 16.527496
_cell_length_c 9.090234
_cell_angle_alpha 90.000000
_cell_angle_beta 90.000000
_cell_angle_gamma 90.000000
_cell_volume 2830.277955
_symmetry_space_group_name_H-M "A B A 2"
_symmetry_group_IT_number 41
_symmetry_cell_setting 'orthorhombic'
loop_
_space_group_symop_operation_xyz
x,y,z
-x,-y,z
1/2-x,y,1/2+z
1/2+x,-y,1/2+z
x,1/2+y,1/2+z
-x,1/2-y,1/2+z
1/2-x,1/2+y,z
1/2+x,1/2-y,z
loop_
_atom_site_type_symbol
_atom_site_label
_atom_site_fract_x
_atom_site_fract_y
_atom_site_fract_z
Si Si1 0.327656 0.651975 0.807930
Si Si2 0.706497 0.586777 0.955032
Si Si3 0.080044 0.022361 0.951308
Si Si4 0.417965 0.494428 0.300718
Si Si5 0.826948 0.660360 0.757442
Si Si6 0.296053 0.072329 0.994274
O O1 0.392806 0.606428 0.886328
O O2 0.339647 0.747238 0.797167
O O3 0.316396 0.613780 0.646713
O O4 0.257397 0.629045 0.901709
O O5 0.635579 0.544918 0.893616
O O6 0.755544 0.629652 0.836817
O O7 0.751967 0.511079 0.020164
O O8 0.684886 0.647189 0.084254
O O9 0.086570 0.021253 0.129231
O O10 0.000000 0.000000 0.912988
O O11 0.500000 0.500000 0.346397
O O12 0.388470 0.402487 0.304482
O O13 0.364683 0.547736 0.398641
#
# Coordination Sequence:
#
# PCOD9365888 Si02
#       6
#     8   8   8   8   8   8
#     4  11  20  32  51  79 102 126 166 217 252 286
#     4   9  17  32  52  72  96 133 166 197 247 305
#     4   9  18  34  55  73 100 139 172 199 246 309
#     4   9  19  37  55  71 100 141 171 198 249 311
#     4  10  19  32  51  76 101 126 166 214 251 289
#     4  10  19  33  54  75 101 133 169 203 249 306
#
# _framework density 16.959464000000001
#
# number of rings (size 3 to 8) (size 9 to 14) (size 15 to 20)
#    0.000    2.333    0.000    6.000    0.000    0.667 
#    0.000    6.667    0.000    0.000    0.000    0.000 
#    0.000    0.000    0.000    0.000    0.000    0.000 
#
# Total GULP energy -133880.327851 kJ/mol
# GULP energy per Si atom -5578.346994 kJ/mol
# Density = 1.692086 g / cm^3
# Si number density = 16.959464 Si / 1000 Ang^3
#
#
#
# Elastic Constant Matrix: (Units=GPa)
#
#
# Indices 1 2 3 4 5 6 
#
# 1 142.9407 54.3640 34.7546 0.0000 0.0000 0.0000
# 2 54.3640 129.9800 48.2035 0.0000 0.0000 0.0000
# 3 34.7546 48.2035 49.3391 0.0000 0.0000 0.0000
# 4 0.0000 0.0000 0.0000 17.7246 0.0000 0.0000
# 5 0.0000 0.0000 0.0000 0.0000 24.0683 0.0000
# 6 0.0000 0.0000 0.0000 0.0000 0.0000 8.2903
#
#
#
# Elastic Compliance Matrix: (Units=1/GPa)
#
#
# Indices 1 2 3 4 5 6 
#
# 1 0.008816 -0.002171 -0.004089 0.000000 0.000000 0.000000
# 2 -0.002171 0.012599 -0.010780 0.000000 0.000000 0.000000
# 3 -0.004089 -0.010780 0.033680 0.000000 0.000000 0.000000
# 4 0.000000 0.000000 0.000000 0.056419 0.000000 0.000000
# 5 0.000000 0.000000 0.000000 0.000000 0.041548 0.000000
# 6 0.000000 0.000000 0.000000 0.000000 0.000000 0.120622
#
#
# Mechanical properties :
#
#
# Convention : Reuss Voigt Hill
#
# Bulk Modulus (GPa) = 47.58431 66.32267 56.95349
# Shear Modulus (GPa) = 15.88462 22.34583 19.11522
#
# Velocity S-wave (km/s) = 3.06375 3.63382 3.36089
# Velocity P-wave (km/s) = 6.37448 7.53642 6.97967
#
# Compressibility (1/GPa) = 0.02101533
#
# Stress axis : x y z
#
# Youngs Moduli (GPa) = 113.43390 79.36963 29.69091
#
# Poissons Ratio (x) = 0.17229 0.12141
# Poissons Ratio (y) = 0.24623 0.32007
# Poissons Ratio (z) = 0.46384 0.85562
#
# Static dielectric constant tensor:
#      x y z
#    x 1.566880 0.000000 0.000000 
#    y 0.000000 1.560740 0.000000 
#    z 0.000000 0.000000 1.570900 
# 
# From -- ./inp_files/3022.got.cif
#   From: 2010.05.17/outbox.cif.g08.bks.cpg/sg41_2_cif.got.tgz:3022.got - 2010.06.03 18:54:24.
