data_PCOD9365873
_publ_section_title
;
Structure prediction by ZEFSAII (Michael W. Deem and Ramdas Pophale) SiO2 
 PCOD9365873
Probable space group: A B A 2
;
_chemical_formula_sum "Si O2"
_cell_formula_units_Z 60
_cell_length_a 26.502889
_cell_length_b 18.114770
_cell_length_c 5.347197
_cell_angle_alpha 90.000000
_cell_angle_beta 90.000000
_cell_angle_gamma 90.000000
_cell_volume 2567.155799
_symmetry_space_group_name_H-M "A B A 2"
_symmetry_group_IT_number 41
_symmetry_cell_setting 'orthorhombic'
loop_
_space_group_symop_operation_xyz
x,y,z
-x,-y,z
1/2-x,y,1/2+z
1/2+x,-y,1/2+z
x,1/2+y,1/2+z
-x,1/2-y,1/2+z
1/2-x,1/2+y,z
1/2+x,1/2-y,z
loop_
_atom_site_type_symbol
_atom_site_label
_atom_site_fract_x
_atom_site_fract_y
_atom_site_fract_z
Si Si1 0.235497 0.392742 0.195980
Si Si2 0.599132 0.952232 0.832954
Si Si3 0.124731 0.907979 0.560471
Si Si4 0.277189 0.727952 0.732608
Si Si5 0.037435 0.621254 0.440571
Si Si6 0.427239 0.855024 0.552907
Si Si7 0.606962 0.797520 0.121457
Si Si8 0.500000 0.500000 0.562354
O O1 0.241713 0.433341 0.457703
O O2 0.177527 0.373914 0.148696
O O3 0.266933 0.316481 0.223709
O O4 0.604401 0.874498 0.972431
O O5 0.638234 0.010441 0.946626
O O6 0.549204 0.001346 0.894049
O O7 0.583617 0.926139 0.557135
O O8 0.101511 0.867383 0.316912
O O9 0.091856 0.906097 0.819033
O O10 0.248949 0.699235 0.484451
O O11 0.336468 0.713081 0.718487
O O12 0.064537 0.692996 0.334626
O O13 0.012716 0.570392 0.228470
O O14 0.987574 0.639310 0.600343
O O15 0.410895 0.773120 0.465601
#
# Coordination Sequence:
#
# PCOD9365873 Si02
#       8
#     8   8   8   8   8   8   8   4
#     4  10  20  40  69 102 133 172 238 308 361 424
#     4  11  25  43  68  99 148 194 242 295 369 437
#     4  12  25  46  76 107 140 192 252 303 364 439
#     4  10  21  42  69  96 132 182 234 293 367 429
#     4  11  25  41  70 101 152 195 241 295 368 446
#     4  12  26  44  73 108 144 195 247 297 354 437
#     4  11  28  43  70 107 148 186 243 304 372 435
#     4  10  18  44  62  98 128 202 238 284 348 436
#
# _framework density 23.372170000000001
#
# number of rings (size 3 to 8) (size 9 to 14) (size 15 to 20)
#    0.000    1.067    1.333    6.000    9.333    0.000 
#    0.000    1.333    0.000    0.000    0.000    0.000 
#    0.000    0.000    0.000    0.000    0.000    0.000 
#
# Total GULP energy -167285.866623 kJ/mol
# GULP energy per Si atom -5576.195554 kJ/mol
# Density = 2.331897 g / cm^3
# Si number density = 23.372170 Si / 1000 Ang^3
#
#
#
# Elastic Constant Matrix: (Units=GPa)
#
#
# Indices 1 2 3 4 5 6 
#
# 1 102.4075 3.6356 6.5577 0.0000 0.0000 0.0000
# 2 3.6356 86.3016 -11.4611 0.0000 0.0000 0.0000
# 3 6.5577 -11.4611 103.9401 0.0000 0.0000 0.0000
# 4 0.0000 0.0000 0.0000 21.7397 0.0000 0.0000
# 5 0.0000 0.0000 0.0000 0.0000 21.5510 0.0000
# 6 0.0000 0.0000 0.0000 0.0000 0.0000 19.7309
#
#
#
# Elastic Compliance Matrix: (Units=1/GPa)
#
#
# Indices 1 2 3 4 5 6 
#
# 1 0.009826 -0.000504 -0.000675 0.000000 0.000000 0.000000
# 2 -0.000504 0.011785 0.001331 0.000000 0.000000 0.000000
# 3 -0.000675 0.001331 0.009810 0.000000 0.000000 0.000000
# 4 0.000000 0.000000 0.000000 0.045999 0.000000 0.000000
# 5 0.000000 0.000000 0.000000 0.000000 0.046402 0.000000
# 6 0.000000 0.000000 0.000000 0.000000 0.000000 0.050682
#
#
# Mechanical properties :
#
#
# Convention : Reuss Voigt Hill
#
# Bulk Modulus (GPa) = 31.51987 32.23486 31.87736
# Shear Modulus (GPa) = 27.05995 32.19878 29.62937
#
# Velocity S-wave (km/s) = 3.40632 3.71570 3.56437
# Velocity P-wave (km/s) = 5.38386 5.67719 5.53247
#
# Compressibility (1/GPa) = 0.03172602
#
# Stress axis : x y z
#
# Youngs Moduli (GPa) = 101.77036 84.85156 101.93330
#
# Poissons Ratio (x) = 0.04273 0.06885
# Poissons Ratio (y) = 0.05126 -0.13570
# Poissons Ratio (z) = 0.06874 -0.11296
#
# Static dielectric constant tensor:
#      x y z
#    x 2.080940 0.000000 0.000000 
#    y 0.000000 2.158400 0.000000 
#    z 0.000000 0.000000 2.005290 
# 
# From -- ./inp_files/1203.got.cif
#   From: 2010.05.17/outbox.cif.g08.bks.cpg/sg41_1_cif.got.tgz:1203.got - 2010.06.03 18:54:24.
