data_PCOD9365637
_publ_section_title
;
Structure prediction by ZEFSAII (Michael W. Deem and Ramdas Pophale) SiO2 
 PCOD9365637
Probable space group: A M A 2
;
_chemical_formula_sum "Si O2"
_cell_formula_units_Z 28
_cell_length_a 15.000000
_cell_length_b 21.000000
_cell_length_c 9.000000
_cell_angle_alpha 90.000000
_cell_angle_beta 90.000000
_cell_angle_gamma 90.000000
_cell_volume 2835.000000
_symmetry_space_group_name_H-M "A M A 2"
_symmetry_group_IT_number 40
_symmetry_cell_setting 'orthorhombic'
loop_
_space_group_symop_operation_xyz
x,y,z
-x,-y,z
1/2-x,y,z
1/2+x,-y,z
x,1/2+y,1/2+z
-x,1/2-y,1/2+z
1/2-x,1/2+y,1/2+z
1/2+x,1/2-y,1/2+z
loop_
_atom_site_type_symbol
_atom_site_label
_atom_site_fract_x
_atom_site_fract_y
_atom_site_fract_z
Si Si1 0.604060 0.359553 0.914910
Si Si2 0.542110 0.386604 0.427336
Si Si3 0.646545 0.962778 0.166656
Si Si4 0.476589 0.306650 0.703837
Si Si5 0.462685 0.929295 0.628854
Si Si6 0.145683 0.912984 0.354436
Si Si7 0.155151 0.192752 0.711474
O O1 0.641575 0.408550 0.794158
O O2 0.561391 0.304686 0.812857
O O3 0.528446 0.393426 0.014805
O O4 0.663855 0.335294 0.047058
O O5 0.581818 0.442767 0.531650
O O6 0.504486 0.335404 0.545089
O O7 0.471068 0.403080 0.296981
O O8 0.625203 0.358405 0.333931
O O9 0.750000 0.968816 0.117949
O O10 0.618500 0.026303 0.253942
O O11 0.409201 0.355122 0.785046
O O12 0.426316 0.240904 0.697102
O O13 0.373757 0.925860 0.529303
O O14 0.500000 0.000000 0.639558
O O15 0.250000 0.902843 0.334616
O O16 0.250000 0.222084 0.755506
#
# Coordination Sequence:
#
# PCOD9365637 Si02
#       7
#     8   8   8   8   8   8   8
#     4   9  19  34  57  79 107 149 194 223 276 341
#     4  10  23  35  58  87 112 147 194 238 282 337
#     4  10  19  35  56  85 117 143 183 235 287 335
#     4  10  21  37  59  79 114 153 192 229 281 343
#     4  10  19  35  56  81 112 149 183 228 282 336
#     4  10  21  37  58  85 115 152 188 228 284 341
#     4  11  21  37  56  82 114 146 190 240 287 329
#
# _framework density 9.8765429999999999
#
# number of rings (size 3 to 8) (size 9 to 14) (size 15 to 20)
#    0.000    2.000    1.429    2.143    2.000    0.000 
#    0.000    2.143    0.000    0.000    0.000    0.000 
#    0.000    0.000    0.000    0.000    0.000    0.000 
#
# Total GULP energy -155951.593313 kJ/mol
# GULP energy per Si atom -5569.699761 kJ/mol
# Density = 0.985406 g / cm^3
# Si number density = 9.876543 Si / 1000 Ang^3
#
#
#
# Elastic Constant Matrix: (Units=GPa)
#
#
# Indices 1 2 3 4 5 6 
#
# 1 54.2438 11.5108 27.2624 0.0000 0.0000 0.0000
# 2 11.5108 40.4685 21.6562 0.0000 0.0000 0.0000
# 3 27.2624 21.6562 148.4871 0.0000 0.0000 0.0000
# 4 0.0000 0.0000 0.0000 -9.7460 0.0000 0.0000
# 5 0.0000 0.0000 0.0000 0.0000 96.5684 0.0000
# 6 0.0000 0.0000 0.0000 0.0000 0.0000 20.9573
#
#
#
# Elastic Compliance Matrix: (Units=1/GPa)
#
#
# Indices 1 2 3 4 5 6 
#
# 1 0.020957 -0.004232 -0.003230 0.000000 0.000000 0.000000
# 2 -0.004232 0.027657 -0.003257 0.000000 0.000000 0.000000
# 3 -0.003230 -0.003257 0.007803 0.000000 0.000000 0.000000
# 4 0.000000 0.000000 0.000000 -0.102606 0.000000 0.000000
# 5 0.000000 0.000000 0.000000 0.000000 0.010355 0.000000
# 6 0.000000 0.000000 0.000000 0.000000 0.000000 0.047716
#
#
# Mechanical properties :
#
#
# Convention : Reuss Voigt Hill
#
# Bulk Modulus (GPa) = 28.58928 40.45090 34.52009
# Shear Modulus (GPa) = 111.15947 33.74059 72.45003
#
# Velocity S-wave (km/s) = 7.50977 4.13742 6.06279
# Velocity P-wave (km/s) = 9.47102 6.58385 8.15620
#
# Compressibility (1/GPa) = 0.03497815
#
# Stress axis : x y z
#
# Youngs Moduli (GPa) = 47.71673 36.15709 128.16107
#
# Poissons Ratio (x) = 0.15302 0.41402
# Poissons Ratio (y) = 0.20195 0.41737
# Poissons Ratio (z) = 0.15415 0.11775
#
# Static dielectric constant tensor:
#      x y z
#    x 1.634260 0.000000 0.000000 
#    y 0.000000 1.835450 0.000000 
#    z 0.000000 0.000000 1.681880 
# 
# From -- ./inp_files/6697.got.cif
#   From: 2010.05.17/outbox.ucp.g08.bks.cvg/sg40_4_cif.got.tgz:6697.got - 2010.06.11 16:26:39.
