data_PCOD9365395
_publ_section_title
;
Structure prediction by ZEFSAII (Michael W. Deem and Ramdas Pophale) SiO2 
 PCOD9365395
Probable space group: A M A 2
;
_chemical_formula_sum "Si O2"
_cell_formula_units_Z 60
_cell_length_a 7.509393
_cell_length_b 21.496584
_cell_length_c 15.362181
_cell_angle_alpha 90.000000
_cell_angle_beta 90.000000
_cell_angle_gamma 90.000000
_cell_volume 2479.859999
_symmetry_space_group_name_H-M "A M A 2"
_symmetry_group_IT_number 40
_symmetry_cell_setting 'orthorhombic'
loop_
_space_group_symop_operation_xyz
x,y,z
-x,-y,z
1/2-x,y,z
1/2+x,-y,z
x,1/2+y,1/2+z
-x,1/2-y,1/2+z
1/2-x,1/2+y,1/2+z
1/2+x,1/2-y,1/2+z
loop_
_atom_site_type_symbol
_atom_site_label
_atom_site_fract_x
_atom_site_fract_y
_atom_site_fract_z
Si Si1 0.035218 0.096433 0.583790
Si Si2 0.250000 0.441805 0.219004
Si Si3 0.534286 0.728765 0.419712
Si Si4 0.955021 0.368667 0.899203
Si Si5 0.465160 0.242287 0.613683
Si Si6 0.459982 0.570725 0.558283
Si Si7 0.547864 0.650090 0.721137
Si Si8 0.954886 0.402158 0.360350
O O1 0.250000 0.086324 0.596324
O O2 0.979360 0.092636 0.481557
O O3 0.994562 0.169149 0.610388
O O4 0.906058 0.057565 0.643466
O O5 0.407315 0.429716 0.292931
O O6 0.750000 0.724074 0.414646
O O7 0.474241 0.798040 0.394757
O O8 0.480783 0.726367 0.521836
O O9 0.458602 0.673137 0.362343
O O10 0.750000 0.359757 0.923995
O O11 0.964062 0.389179 0.799634
O O12 0.250000 0.246020 0.616355
O O13 0.535008 0.283038 0.694298
O O14 0.500000 0.500000 0.580570
O O15 0.250000 0.582794 0.561145
O O16 0.546079 0.613215 0.631029
O O17 0.514533 0.581258 0.458489
O O18 0.250000 0.340873 0.748037
O O19 0.750000 0.423029 0.344382
#
# Coordination Sequence:
#
# PCOD9365395 Si02
#       8
#     8   4   8   8   8   8   8   8
#     4   9  20  39  55  82 122 170 212 259 300 352
#     4  12  24  36  62  80 122 158 214 256 310 378
#     4   9  16  33  54  76 117 168 204 252 300 349
#     4   9  20  35  54  82 126 167 213 256 298 355
#     4   8  16  31  51  76 118 162 207 252 294 352
#     4  11  25  44  66  91 126 159 198 258 324 382
#     4  11  21  33  58  88 120 162 207 250 304 381
#     4  11  24  38  57  92 119 154 205 257 314 379
#
# _framework density 24.194913
#
# number of rings (size 3 to 8) (size 9 to 14) (size 15 to 20)
#    0.000    2.133    2.000    2.800    4.667    0.533 
#    4.800    0.000    0.000    0.000    0.000    0.933 
#    4.000    0.000    0.000    0.000    0.000    0.000 
#
# Total GULP energy -167145.463304 kJ/mol
# GULP energy per Si atom -5571.515443 kJ/mol
# Density = 2.413984 g / cm^3
# Si number density = 24.194913 Si / 1000 Ang^3
#
#
#
# Elastic Constant Matrix: (Units=GPa)
#
#
# Indices 1 2 3 4 5 6 
#
# 1 122.3320 23.2263 61.0233 0.0000 0.0000 0.0000
# 2 23.2263 53.1549 19.1934 0.0000 0.0000 0.0000
# 3 61.0233 19.1934 160.5660 0.0000 0.0000 0.0000
# 4 0.0000 0.0000 0.0000 -12.8836 0.0000 0.0000
# 5 0.0000 0.0000 0.0000 0.0000 -17.9974 0.0000
# 6 0.0000 0.0000 0.0000 0.0000 0.0000 13.2156
#
#
#
# Elastic Compliance Matrix: (Units=1/GPa)
#
#
# Indices 1 2 3 4 5 6 
#
# 1 0.010621 -0.003327 -0.003639 0.000000 0.000000 0.000000
# 2 -0.003327 0.020704 -0.001210 0.000000 0.000000 0.000000
# 3 -0.003639 -0.001210 0.007756 0.000000 0.000000 0.000000
# 4 0.000000 0.000000 0.000000 -0.077618 0.000000 0.000000
# 5 0.000000 0.000000 0.000000 0.000000 -0.055564 0.000000
# 6 0.000000 0.000000 0.000000 0.000000 0.000000 0.075668
#
#
# Mechanical properties :
#
#
# Convention : Reuss Voigt Hill
#
# Bulk Modulus (GPa) = 43.99872 60.32654 52.16263
# Shear Modulus (GPa) = 909.69257 11.97424 460.83340
#
# Velocity S-wave (km/s) = 19.41137 2.22706 13.81595
# Velocity P-wave (km/s) = 22.81724 5.62146 16.61666
#
# Compressibility (1/GPa) = 0.02272794
#
# Stress axis : x y z
#
# Youngs Moduli (GPa) = 94.14944 48.30039 128.93823
#
# Poissons Ratio (x) = 0.16070 0.46920
# Poissons Ratio (y) = 0.31324 0.15606
# Poissons Ratio (z) = 0.34261 0.05846
#
# Static dielectric constant tensor:
#      x y z
#    x 1.944270 0.000000 0.000000 
#    y 0.000000 1.995770 0.000000 
#    z 0.000000 0.000000 1.972430 
# 
# From -- ./inp_files/15545.got.cif
#   From: 2010.05.17/outbox.cif.g08.bks.cpg/sg40_8_cif.got.tgz:15545.got - 2010.06.03 18:35:42.
