data_PCOD9365711
_publ_section_title
;
Structure prediction by ZEFSAII (Michael W. Deem and Ramdas Pophale) SiO2 
 PCOD9365711
Probable space group: A B A 2
;
_chemical_formula_sum "Si O2"
_cell_formula_units_Z 64
_cell_length_a 21.732332
_cell_length_b 30.572687
_cell_length_c 5.339791
_cell_angle_alpha 90.000000
_cell_angle_beta 90.000000
_cell_angle_gamma 90.000000
_cell_volume 3547.841424
_symmetry_space_group_name_H-M "A B A 2"
_symmetry_group_IT_number 41
_symmetry_cell_setting 'orthorhombic'
loop_
_space_group_symop_operation_xyz
x,y,z
-x,-y,z
1/2-x,y,1/2+z
1/2+x,-y,1/2+z
x,1/2+y,1/2+z
-x,1/2-y,1/2+z
1/2-x,1/2+y,z
1/2+x,1/2-y,z
loop_
_atom_site_type_symbol
_atom_site_label
_atom_site_fract_x
_atom_site_fract_y
_atom_site_fract_z
Si Si1 0.178289 0.378836 0.629660
Si Si2 0.821403 0.519861 0.490840
Si Si3 0.991827 0.224080 0.603668
Si Si4 0.858316 0.244967 0.523116
Si Si5 0.316454 0.842769 0.130431
Si Si6 0.789681 0.383161 0.079133
Si Si7 0.376824 0.698625 0.524007
Si Si8 0.819210 0.483658 0.991174
O O1 0.175281 0.429431 0.558481
O O2 0.249936 0.365500 0.661615
O O3 0.152813 0.349994 0.400568
O O4 0.151115 0.367304 0.899783
O O5 0.849561 0.508831 0.222178
O O6 0.749993 0.504073 0.464775
O O7 0.848284 0.492382 0.721455
O O8 0.920894 0.215721 0.541768
O O9 0.005142 0.262360 0.396118
O O10 0.049309 0.192761 0.549407
O O11 0.807220 0.207947 0.560261
O O12 0.857573 0.270243 0.259402
O O13 0.861252 0.277978 0.758954
O O14 0.758058 0.377606 0.349526
O O15 0.841389 0.346648 0.046208
O O16 0.813416 0.432818 0.055049
#
# Coordination Sequence:
#
# PCOD9365711 Si02
#       8
#     8   8   8   8   8   8   8   8
#     4  10  19  30  43  65  96 124 147 192 222 277
#     4  10  16  28  46  60  84 121 162 176 226 261
#     4   8  16  32  54  68  84 110 161 214 236 258
#     4  10  19  35  51  69  89 125 165 198 236 273
#     4  10  18  30  43  64  94 120 151 189 230 266
#     4  12  21  35  44  69 103 129 153 190 230 279
#     4  10  21  35  49  69  92 128 163 195 233 275
#     4  10  16  27  44  62  84 119 150 192 216 258
#
# _framework density 18.039137
#
# number of rings (size 3 to 8) (size 9 to 14) (size 15 to 20)
#    0.000    2.000    2.500    5.250    0.000    0.000 
#   13.500    0.000    0.000    0.000    0.000    0.000 
#    0.000   11.000    0.000    0.000    0.000    0.000 
#
# Total GULP energy -178153.597791 kJ/mol
# GULP energy per Si atom -5567.299931 kJ/mol
# Density = 1.799808 g / cm^3
# Si number density = 18.039137 Si / 1000 Ang^3
#
#
#
# Elastic Constant Matrix: (Units=GPa)
#
#
# Indices 1 2 3 4 5 6 
#
# 1 7.0696 6.7321 -5.2624 0.0000 0.0000 0.0000
# 2 6.7321 45.0912 -12.8500 0.0000 0.0000 0.0000
# 3 -5.2624 -12.8500 100.0958 0.0000 0.0000 0.0000
# 4 0.0000 0.0000 0.0000 27.2048 0.0000 0.0000
# 5 0.0000 0.0000 0.0000 0.0000 11.3251 0.0000
# 6 0.0000 0.0000 0.0000 0.0000 0.0000 2.0512
#
#
#
# Elastic Compliance Matrix: (Units=1/GPa)
#
#
# Indices 1 2 3 4 5 6 
#
# 1 0.168107 -0.023437 0.005829 0.000000 0.000000 0.000000
# 2 -0.023437 0.026287 0.002142 0.000000 0.000000 0.000000
# 3 0.005829 0.002142 0.010572 0.000000 0.000000 0.000000
# 4 0.000000 0.000000 0.000000 0.036758 0.000000 0.000000
# 5 0.000000 0.000000 0.000000 0.000000 0.088299 0.000000
# 6 0.000000 0.000000 0.000000 0.000000 0.000000 0.487518
#
#
# Mechanical properties :
#
#
# Convention : Reuss Voigt Hill
#
# Bulk Modulus (GPa) = 5.74597 14.38845 10.06721
# Shear Modulus (GPa) = 5.51582 19.02536 12.27059
#
# Velocity S-wave (km/s) = 1.75052 3.25109 2.61093
# Velocity P-wave (km/s) = 2.69777 4.69961 3.83173
#
# Compressibility (1/GPa) = 0.17403496
#
# Stress axis : x y z
#
# Youngs Moduli (GPa) = 5.94859 38.04160 94.59007
#
# Poissons Ratio (x) = 0.89159 -0.55138
# Poissons Ratio (y) = 0.13942 -0.20266
# Poissons Ratio (z) = -0.03468 -0.08150
#
# Static dielectric constant tensor:
#      x y z
#    x 1.952810 0.000000 0.000000 
#    y 0.000000 1.608500 0.000000 
#    z 0.000000 0.000000 1.738190 
# 
# From -- ./inp_files/1228.got.cif
#   From: 2010.05.17/outbox.cif.g08.bks.cpg/sg41_1_cif.got.tgz:1228.got - 2010.06.03 18:54:24.
