data_PCOD9365963
_publ_section_title
;
Structure prediction by ZEFSAII (Michael W. Deem and Ramdas Pophale) SiO2 
 PCOD9365963
Probable space group: A B A 2
;
_chemical_formula_sum "Si O2"
_cell_formula_units_Z 48
_cell_length_a 7.546930
_cell_length_b 23.505211
_cell_length_c 10.135559
_cell_angle_alpha 90.000000
_cell_angle_beta 90.000000
_cell_angle_gamma 90.000000
_cell_volume 1797.968927
_symmetry_space_group_name_H-M "A B A 2"
_symmetry_group_IT_number 41
_symmetry_cell_setting 'orthorhombic'
loop_
_space_group_symop_operation_xyz
x,y,z
-x,-y,z
1/2-x,y,1/2+z
1/2+x,-y,1/2+z
x,1/2+y,1/2+z
-x,1/2-y,1/2+z
1/2-x,1/2+y,z
1/2+x,1/2-y,z
loop_
_atom_site_type_symbol
_atom_site_label
_atom_site_fract_x
_atom_site_fract_y
_atom_site_fract_z
Si Si1 0.341851 0.766289 0.720270
Si Si2 0.964725 0.161236 0.838745
Si Si3 0.314558 0.467040 0.070624
Si Si4 0.447906 0.434407 0.343978
Si Si5 0.849723 0.317324 0.590919
Si Si6 0.193965 0.079582 0.713895
O O1 0.384592 0.707349 0.794726
O O2 0.269066 0.740119 0.580623
O O3 0.529953 0.796636 0.712398
O O4 0.212567 0.811288 0.785545
O O5 0.014226 0.099528 0.782329
O O6 0.998051 0.163253 0.991943
O O7 0.500000 0.500000 0.024064
O O8 0.368304 0.428817 0.196399
O O9 0.207141 0.519409 0.140994
O O10 0.197068 0.431890 0.963055
O O11 0.500000 0.500000 0.356640
O O12 0.647765 0.410586 0.321406
O O13 0.727314 0.371649 0.606117
#
# Coordination Sequence:
#
# PCOD9365963 Si02
#       6
#     8   8   8   8   8   8
#     4   9  20  36  55  95 121 166 204 246 323 376
#     4  10  19  36  63  88 131 166 205 262 316 383
#     4   9  20  40  65  88 124 162 205 263 327 380
#     4   9  20  40  62  90 124 159 207 262 320 385
#     4  10  19  35  60  84 128 157 207 255 305 388
#     4   9  21  37  59  98 119 160 217 260 316 388
#
# _framework density 26.696791999999999
#
# number of rings (size 3 to 8) (size 9 to 14) (size 15 to 20)
#    0.000    3.000    0.000    1.000    4.667    0.667 
#    6.000    5.000    0.000    0.000    0.000    0.000 
#    0.000    0.000    0.000    0.000    0.000    0.000 
#
# Total GULP energy -133748.890826 kJ/mol
# GULP energy per Si atom -5572.870451 kJ/mol
# Density = 2.663603 g / cm^3
# Si number density = 26.696792 Si / 1000 Ang^3
#
#
#
# Elastic Constant Matrix: (Units=GPa)
#
#
# Indices 1 2 3 4 5 6 
#
# 1 101.7150 -5.8089 11.0619 0.0000 0.0000 0.0000
# 2 -5.8089 71.1313 -0.7644 0.0000 0.0000 0.0000
# 3 11.0619 -0.7644 85.1486 0.0000 0.0000 0.0000
# 4 0.0000 0.0000 0.0000 20.8224 0.0000 0.0000
# 5 0.0000 0.0000 0.0000 0.0000 26.6790 0.0000
# 6 0.0000 0.0000 0.0000 0.0000 0.0000 45.7486
#
#
#
# Elastic Compliance Matrix: (Units=1/GPa)
#
#
# Indices 1 2 3 4 5 6 
#
# 1 0.010018 0.000804 -0.001294 0.000000 0.000000 0.000000
# 2 0.000804 0.014124 0.000022 0.000000 0.000000 0.000000
# 3 -0.001294 0.000022 0.011913 0.000000 0.000000 0.000000
# 4 0.000000 0.000000 0.000000 0.048025 0.000000 0.000000
# 5 0.000000 0.000000 0.000000 0.000000 0.037483 0.000000
# 6 0.000000 0.000000 0.000000 0.000000 0.000000 0.021859
#
#
# Mechanical properties :
#
#
# Convention : Reuss Voigt Hill
#
# Bulk Modulus (GPa) = 28.47417 29.66357 29.06887
# Shear Modulus (GPa) = 32.03825 35.55043 33.79434
#
# Velocity S-wave (km/s) = 3.46797 3.65312 3.56175
# Velocity P-wave (km/s) = 5.16959 5.37858 5.27512
#
# Compressibility (1/GPa) = 0.03511955
#
# Stress axis : x y z
#
# Youngs Moduli (GPa) = 99.81957 70.79937 83.94539
#
# Poissons Ratio (x) = -0.05694 0.10865
# Poissons Ratio (y) = -0.08028 -0.00187
# Poissons Ratio (z) = 0.12919 -0.00158
#
# Static dielectric constant tensor:
#      x y z
#    x 2.307200 0.000000 0.000000 
#    y 0.000000 2.128910 0.000000 
#    z 0.000000 0.000000 2.314700 
# 
# From -- ./inp_files/4512.got.cif
#   From: 2010.05.17/outbox.cif.g08.bks.cpg/sg41_3_cif.got.tgz:4512.got - 2010.06.03 18:54:24.
