data_PCOD9365375
_publ_section_title
;
Structure prediction by ZEFSAII (Michael W. Deem and Ramdas Pophale) SiO2 
 PCOD9365375
Probable space group: A M A 2
;
_chemical_formula_sum "Si O2"
_cell_formula_units_Z 64
_cell_length_a 8.623937
_cell_length_b 15.826728
_cell_length_c 24.285162
_cell_angle_alpha 90.000000
_cell_angle_beta 90.000000
_cell_angle_gamma 90.000000
_cell_volume 3314.650317
_symmetry_space_group_name_H-M "A M A 2"
_symmetry_group_IT_number 40
_symmetry_cell_setting 'orthorhombic'
loop_
_space_group_symop_operation_xyz
x,y,z
-x,-y,z
1/2-x,y,z
1/2+x,-y,z
x,1/2+y,1/2+z
-x,1/2-y,1/2+z
1/2-x,1/2+y,1/2+z
1/2+x,1/2-y,1/2+z
loop_
_atom_site_type_symbol
_atom_site_label
_atom_site_fract_x
_atom_site_fract_y
_atom_site_fract_z
Si Si1 0.563687 0.752606 0.802810
Si Si2 0.438037 0.345688 0.114452
Si Si3 0.063687 0.747394 0.926094
Si Si4 0.435676 0.910517 0.230925
Si Si5 0.563613 0.590803 0.995514
Si Si6 0.563648 0.351630 0.614452
Si Si7 0.435676 0.910517 0.997978
Si Si8 0.436387 0.909197 0.733390
O O1 0.750000 0.756572 0.803467
O O2 0.500000 0.750000 0.864452
O O3 0.517421 0.668099 0.769360
O O4 0.497627 0.833758 0.771179
O O5 0.250000 0.347129 0.114452
O O6 0.483988 0.247245 0.114452
O O7 0.489941 0.389939 0.170631
O O8 0.489941 0.389939 0.058273
O O9 0.250000 0.743428 0.925436
O O10 0.017421 0.831901 0.959544
O O11 0.997628 0.666242 0.957725
O O12 0.250000 0.913769 0.228879
O O13 0.499807 0.893731 0.169708
O O14 0.500000 0.000000 0.251273
O O15 0.500000 0.500000 0.978078
O O16 0.750000 0.590419 0.994426
O O17 0.750000 0.356223 0.614452
O O18 0.499807 0.393731 0.559195
O O19 0.250000 0.913769 0.000024
O O20 0.500000 0.000000 0.977631
O O21 0.250000 0.909581 0.734478
O O22 0.500000 0.000000 0.750826
#
# Coordination Sequence:
#
# PCOD9365375 Si02
#       8
#     8   8   8   8   8   8   8   8
#     4  11  25  44  65  90 121 162 210 261 311 364
#     4   9  19  35  61  93 125 163 201 244 304 365
#     4  11  25  44  65  90 121 162 210 261 311 364
#     4  11  24  41  63  93 125 161 204 252 307 367
#     4  11  22  40  64  94 128 164 206 252 306 368
#     4  11  20  37  64  93 126 164 202 247 304 367
#     4  11  24  41  63  93 125 161 204 252 307 367
#     4  11  22  40  64  94 128 164 206 252 306 368
#
# _framework density 19.308219000000001
#
# number of rings (size 3 to 8) (size 9 to 14) (size 15 to 20)
#    0.000    1.250    2.500    3.375    0.000    4.000 
#    0.000    4.375    0.000    0.000    0.000    0.000 
#    0.000    0.000    0.000    0.000    0.000    0.000 
#
# Total GULP energy -178983.233853 kJ/mol
# GULP energy per Si atom -5593.226058 kJ/mol
# Density = 1.926427 g / cm^3
# Si number density = 19.308219 Si / 1000 Ang^3
#
#
#
# Elastic Constant Matrix: (Units=GPa)
#
#
# Indices 1 2 3 4 5 6 
#
# 1 64.1285 57.8409 46.8040 0.0000 0.0000 0.0000
# 2 57.8409 206.0523 90.2748 0.0000 0.0000 0.0000
# 3 46.8040 90.2748 157.6042 0.0000 0.0000 0.0000
# 4 0.0000 0.0000 0.0000 -7.2762 0.0000 0.0000
# 5 0.0000 0.0000 0.0000 0.0000 29.6781 0.0000
# 6 0.0000 0.0000 0.0000 0.0000 0.0000 32.4544
#
#
#
# Elastic Compliance Matrix: (Units=1/GPa)
#
#
# Indices 1 2 3 4 5 6 
#
# 1 0.022733 -0.004571 -0.004133 0.000000 0.000000 0.000000
# 2 -0.004571 0.007398 -0.002880 0.000000 0.000000 0.000000
# 3 -0.004133 -0.002880 0.009222 0.000000 0.000000 0.000000
# 4 0.000000 0.000000 0.000000 -0.137435 0.000000 0.000000
# 5 0.000000 0.000000 0.000000 0.000000 0.033695 0.000000
# 6 0.000000 0.000000 0.000000 0.000000 0.000000 0.030812
#
#
# Mechanical properties :
#
#
# Convention : Reuss Voigt Hill
#
# Bulk Modulus (GPa) = 61.78449 90.84717 76.31583
# Shear Modulus (GPa) = -997.47119 26.49562 -485.48779
#
# Velocity S-wave (km/s) = -22.75359 3.70840 -15.87409
# Velocity P-wave (km/s) = 25.65605 8.09256 17.21545
#
# Compressibility (1/GPa) = 0.01618529
#
# Stress axis : x y z
#
# Youngs Moduli (GPa) = 43.98983 135.17166 108.43467
#
# Poissons Ratio (x) = 0.61781 0.44815
# Poissons Ratio (y) = 0.20106 0.31231
# Poissons Ratio (z) = 0.18181 0.38932
#
# Static dielectric constant tensor:
#      x y z
#    x 1.647240 0.000000 0.000000 
#    y 0.000000 1.670660 0.000000 
#    z 0.000000 0.000000 1.644100 
# 
# From -- ./inp_files/24297.got.cif
#   From: 2010.05.17/outbox.cif.g08.bks.cpg/sg40_13_cif.got.tgz:24297.got - 2010.06.03 18:35:42.
