data_PCOD9365155
_publ_section_title
;
Structure prediction by ZEFSAII (Michael W. Deem and Ramdas Pophale) SiO2 
 PCOD9365155
Probable space group: A M A 2
;
_chemical_formula_sum "Si O2"
_cell_formula_units_Z 60
_cell_length_a 9.291740
_cell_length_b 17.841430
_cell_length_c 17.050882
_cell_angle_alpha 90.000000
_cell_angle_beta 90.000000
_cell_angle_gamma 90.000000
_cell_volume 2826.659902
_symmetry_space_group_name_H-M "A M A 2"
_symmetry_group_IT_number 40
_symmetry_cell_setting 'orthorhombic'
loop_
_space_group_symop_operation_xyz
x,y,z
-x,-y,z
1/2-x,y,z
1/2+x,-y,z
x,1/2+y,1/2+z
-x,1/2-y,1/2+z
1/2-x,1/2+y,1/2+z
1/2+x,1/2-y,1/2+z
loop_
_atom_site_type_symbol
_atom_site_label
_atom_site_fract_x
_atom_site_fract_y
_atom_site_fract_z
Si Si1 0.585146 0.713471 0.363700
Si Si2 0.250000 0.528206 0.456409
Si Si3 0.920432 0.638517 0.828495
Si Si4 0.081637 0.328316 0.651420
Si Si5 0.076374 0.076282 0.473661
Si Si6 0.079877 0.821426 0.596495
Si Si7 0.536747 0.606085 0.489679
Si Si8 0.083424 0.922788 0.749860
O O1 0.750000 0.736032 0.341778
O O2 0.470703 0.777627 0.349890
O O3 0.585570 0.684289 0.452133
O O4 0.543222 0.641217 0.311953
O O5 0.374721 0.591045 0.467611
O O6 0.370289 0.460967 0.455582
O O7 0.750000 0.625918 0.842728
O O8 0.950318 0.634813 0.735622
O O9 0.018477 0.588338 0.885160
O O10 0.250000 0.305093 0.653312
O O11 0.059693 0.388147 0.582449
O O12 0.984048 0.256112 0.630840
O O13 0.250000 0.072815 0.477619
O O14 0.012479 0.144753 0.525029
O O15 0.000000 0.000000 0.503113
O O16 0.250000 0.813028 0.576744
O O17 0.068716 0.883422 0.665600
O O18 0.250000 0.940876 0.763969
O O19 0.000000 0.000000 0.756745
#
# Coordination Sequence:
#
# PCOD9365155 Si02
#       8
#     8   4   8   8   8   8   8   8
#     4  11  22  40  65  94 133 174 217 264 323 391
#     4  10  24  42  62  92 132 162 220 264 320 384
#     4  11  25  44  67 100 134 171 224 276 326 398
#     4  11  23  43  66  98 133 174 222 273 327 391
#     4  12  26  47  72  98 131 173 224 282 345 404
#     4  11  23  42  68  96 132 173 225 275 328 397
#     4  11  23  42  64  94 125 175 212 267 319 387
#     4  10  23  37  58  94 131 172 214 262 322 385
#
# _framework density 21.226465000000001
#
# number of rings (size 3 to 8) (size 9 to 14) (size 15 to 20)
#    0.000    1.067    2.667    3.200    3.733    3.200 
#    2.400    0.000    0.000    0.000    0.000    0.000 
#    0.000    0.000    0.000    0.000    0.000    0.000 
#
# Total GULP energy -167185.597582 kJ/mol
# GULP energy per Si atom -5572.853253 kJ/mol
# Density = 2.117815 g / cm^3
# Si number density = 21.226465 Si / 1000 Ang^3
#
#
#
# Elastic Constant Matrix: (Units=GPa)
#
#
# Indices 1 2 3 4 5 6 
#
# 1 158.6064 19.7534 29.3928 0.0000 0.0000 0.0000
# 2 19.7534 45.2544 -2.9662 0.0000 0.0000 0.0000
# 3 29.3928 -2.9662 87.4341 0.0000 0.0000 0.0000
# 4 0.0000 0.0000 0.0000 -4.1788 0.0000 0.0000
# 5 0.0000 0.0000 0.0000 0.0000 63.9377 0.0000
# 6 0.0000 0.0000 0.0000 0.0000 0.0000 38.4643
#
#
#
# Elastic Compliance Matrix: (Units=1/GPa)
#
#
# Indices 1 2 3 4 5 6 
#
# 1 0.007184 -0.003302 -0.002527 0.000000 0.000000 0.000000
# 2 -0.003302 0.023664 0.001913 0.000000 0.000000 0.000000
# 3 -0.002527 0.001913 0.012352 0.000000 0.000000 0.000000
# 4 0.000000 0.000000 0.000000 -0.239305 0.000000 0.000000
# 5 0.000000 0.000000 0.000000 0.000000 0.015640 0.000000
# 6 0.000000 0.000000 0.000000 0.000000 0.000000 0.025998
#
#
# Mechanical properties :
#
#
# Convention : Reuss Voigt Hill
#
# Bulk Modulus (GPa) = 28.27441 42.62834 35.45138
# Shear Modulus (GPa) = -37.07942 35.98564 -0.54689
#
# Velocity S-wave (km/s) = -4.18407 4.12189 -0.50814
# Velocity P-wave (km/s) = 3.16111 6.54061 4.04889
#
# Compressibility (1/GPa) = 0.03536766
#
# Stress axis : x y z
#
# Youngs Moduli (GPa) = 139.18936 42.25857 80.96083
#
# Poissons Ratio (x) = 0.13952 0.20461
# Poissons Ratio (y) = 0.45955 -0.15486
# Poissons Ratio (z) = 0.35176 -0.08083
#
# Static dielectric constant tensor:
#      x y z
#    x 1.702300 0.000000 0.000000 
#    y 0.000000 1.776360 0.000000 
#    z 0.000000 0.000000 1.841140 
# 
# From -- ./inp_files/19436.got.cif
#   From: 2010.05.17/outbox.cif.g08.bks.cpg/sg40_10_cif.got.tgz:19436.got - 2010.06.03 18:35:42.
