data_PCOD9365012
_publ_section_title
;
Structure prediction by ZEFSAII (Michael W. Deem and Ramdas Pophale) SiO2 
 PCOD9365012
Probable space group: A M A 2
;
_chemical_formula_sum "Si O2"
_cell_formula_units_Z 36
_cell_length_a 10.138655
_cell_length_b 7.068898
_cell_length_c 22.097124
_cell_angle_alpha 90.000000
_cell_angle_beta 90.000000
_cell_angle_gamma 90.000000
_cell_volume 1583.681389
_symmetry_space_group_name_H-M "A M A 2"
_symmetry_group_IT_number 40
_symmetry_cell_setting 'orthorhombic'
loop_
_space_group_symop_operation_xyz
x,y,z
-x,-y,z
1/2-x,y,z
1/2+x,-y,z
x,1/2+y,1/2+z
-x,1/2-y,1/2+z
1/2-x,1/2+y,1/2+z
1/2+x,1/2-y,1/2+z
loop_
_atom_site_type_symbol
_atom_site_label
_atom_site_fract_x
_atom_site_fract_y
_atom_site_fract_z
Si Si1 0.250000 0.310805 0.761740
Si Si2 0.750000 0.445178 0.367512
Si Si3 0.250000 0.697617 0.804036
Si Si4 0.479304 0.773045 0.707982
Si Si5 0.101603 0.330440 0.945340
Si Si6 0.402603 0.322621 0.079346
O O1 0.250000 0.114941 0.797564
O O2 0.381288 0.320678 0.722940
O O3 0.250000 0.472563 0.812953
O O4 0.750000 0.670550 0.362990
O O5 0.875302 0.341646 0.398494
O O6 0.376922 0.734428 0.761703
O O7 0.430624 0.713167 0.641443
O O8 0.500000 0.000000 0.706514
O O9 0.250000 0.415568 0.950341
O O10 0.000000 0.500000 0.931149
O O11 0.075495 0.241438 0.012020
O O12 0.500000 0.500000 0.079621
O O13 0.250000 0.382236 0.083947
#
# Coordination Sequence:
#
# PCOD9365012 Si02
#       6
#     4   4   4   8   8   8
#     4  12  26  42  65 106 133 182 229 285 355 416
#     4  10  22  41  64  91 140 182 228 279 342 419
#     4  12  24  43  65  97 135 182 229 282 351 415
#     4  11  21  40  66 101 143 178 230 280 349 412
#     4   8  17  35  63 101 132 183 240 283 339 407
#     4   9  17  31  61 103 134 181 228 285 341 405
#
# _framework density 22.731843999999999
#
# number of rings (size 3 to 8) (size 9 to 14) (size 15 to 20)
#    0.667    1.333    3.333    0.667    4.667    1.778 
#    0.000    0.000    2.444    0.000   75.111    0.000 
#    0.000    0.000    0.000    0.000    0.000    0.000 
#
# Total GULP energy -100393.834362 kJ/mol
# GULP energy per Si atom -5577.435242 kJ/mol
# Density = 2.268011 g / cm^3
# Si number density = 22.731844 Si / 1000 Ang^3
#
#
#
# Elastic Constant Matrix: (Units=GPa)
#
#
# Indices 1 2 3 4 5 6 
#
# 1 141.8771 28.1772 43.6846 0.0000 0.0000 0.0000
# 2 28.1772 97.1673 21.7171 0.0000 0.0000 0.0000
# 3 43.6846 21.7171 109.3601 0.0000 0.0000 0.0000
# 4 0.0000 0.0000 0.0000 4.0990 0.0000 0.0000
# 5 0.0000 0.0000 0.0000 0.0000 -286.1332 0.0000
# 6 0.0000 0.0000 0.0000 0.0000 0.0000 -490.7578
#
#
#
# Elastic Compliance Matrix: (Units=1/GPa)
#
#
# Indices 1 2 3 4 5 6 
#
# 1 0.008310 -0.001745 -0.002973 0.000000 0.000000 0.000000
# 2 -0.001745 0.011136 -0.001514 0.000000 0.000000 0.000000
# 3 -0.002973 -0.001514 0.010632 0.000000 0.000000 0.000000
# 4 0.000000 0.000000 0.000000 0.243961 0.000000 0.000000
# 5 0.000000 0.000000 0.000000 0.000000 -0.003495 0.000000
# 6 0.000000 0.000000 0.000000 0.000000 0.000000 -0.002038
#
#
# Mechanical properties :
#
#
# Convention : Reuss Voigt Hill
#
# Bulk Modulus (GPa) = 56.77449 59.50693 58.14071
# Shear Modulus (GPa) = 17.43105 -137.57005 -60.06950
#
# Velocity S-wave (km/s) = 2.77214 -7.78781 -5.14613
# Velocity P-wave (km/s) = 5.93939 7.39135 3.11093
#
# Compressibility (1/GPa) = 0.01761355
#
# Stress axis : x y z
#
# Youngs Moduli (GPa) = 120.33094 89.79793 94.05208
#
# Poissons Ratio (x) = 0.15674 0.27962
# Poissons Ratio (y) = 0.21003 0.14242
# Poissons Ratio (z) = 0.35775 0.13597
#
# Static dielectric constant tensor:
#      x y z
#    x 1.906110 0.000000 0.000000 
#    y 0.000000 1.846910 0.000000 
#    z 0.000000 0.000000 1.897340 
# 
# From -- ./inp_files/24520.got.cif
#   From: 2010.05.17/outbox.cif.g08.bks.cpg/sg40_13_cif.got.tgz:24520.got - 2010.06.03 18:35:42.
