data_PCOD9365833
_publ_section_title
;
Structure prediction by ZEFSAII (Michael W. Deem and Ramdas Pophale) SiO2 
 PCOD9365833
Probable space group: A B A 2
;
_chemical_formula_sum "Si O2"
_cell_formula_units_Z 64
_cell_length_a 10.988276
_cell_length_b 18.673035
_cell_length_c 14.280442
_cell_angle_alpha 90.000000
_cell_angle_beta 90.000000
_cell_angle_gamma 90.000000
_cell_volume 2930.124814
_symmetry_space_group_name_H-M "A B A 2"
_symmetry_group_IT_number 41
_symmetry_cell_setting 'orthorhombic'
loop_
_space_group_symop_operation_xyz
x,y,z
-x,-y,z
1/2-x,y,1/2+z
1/2+x,-y,1/2+z
x,1/2+y,1/2+z
-x,1/2-y,1/2+z
1/2-x,1/2+y,z
1/2+x,1/2-y,z
loop_
_atom_site_type_symbol
_atom_site_label
_atom_site_fract_x
_atom_site_fract_y
_atom_site_fract_z
Si Si1 0.480905 0.580129 0.630250
Si Si2 0.249787 0.414801 0.171841
Si Si3 0.909580 0.715704 0.433634
Si Si4 0.811095 0.665970 0.854599
Si Si5 0.004692 0.335777 0.615707
Si Si6 0.066348 0.208833 0.752295
Si Si7 0.076255 0.118958 0.425036
Si Si8 0.123553 0.048992 0.234435
O O1 0.500000 0.500000 0.667430
O O2 0.622382 0.605798 0.625667
O O3 0.411160 0.634163 0.699982
O O4 0.427875 0.579772 0.524976
O O5 0.254012 0.385142 0.277290
O O6 0.368060 0.378821 0.125417
O O7 0.276620 0.499005 0.185428
O O8 0.781337 0.675971 0.438616
O O9 0.005789 0.686926 0.508679
O O10 0.965025 0.701253 0.331957
O O11 0.883171 0.799757 0.444892
O O12 0.830908 0.743737 0.804884
O O13 0.939678 0.632998 0.884784
O O14 0.018212 0.263191 0.673790
O O15 0.906069 0.384870 0.666172
O O16 0.144512 0.078456 0.340027
O O17 0.000000 0.000000 0.240441
#
# Coordination Sequence:
#
# PCOD9365833 Si02
#       8
#     8   8   8   8   8   8   8   8
#     4  12  25  40  57  88 132 167 197 255 327 381
#     4  10  21  39  64  87 122 168 208 252 310 380
#     4  11  20  36  65  93 117 157 207 257 308 361
#     4  10  20  37  65  88 116 161 206 256 304 363
#     4  10  19  38  64  92 118 156 209 259 305 370
#     4  10  21  40  58  89 122 158 201 254 316 369
#     4  11  21  38  63  90 120 158 207 261 305 369
#     4  10  18  37  65  92 118 158 214 257 303 374
#
# _framework density 21.842072999999999
#
# number of rings (size 3 to 8) (size 9 to 14) (size 15 to 20)
#    0.000    1.500    7.500    1.125    0.000    1.000 
#    0.000    4.375    0.000    0.000    0.000    0.000 
#    0.000    0.000    0.000    0.000    0.000    0.000 
#
# Total GULP energy -178628.833271 kJ/mol
# GULP energy per Si atom -5582.151040 kJ/mol
# Density = 2.179236 g / cm^3
# Si number density = 21.842073 Si / 1000 Ang^3
#
#
#
# Elastic Constant Matrix: (Units=GPa)
#
#
# Indices 1 2 3 4 5 6 
#
# 1 24.2870 -11.7242 10.0133 0.0000 0.0000 0.0000
# 2 -11.7242 107.3461 35.1640 0.0000 0.0000 0.0000
# 3 10.0133 35.1640 72.5766 0.0000 0.0000 0.0000
# 4 0.0000 0.0000 0.0000 -0.0134 0.0000 0.0000
# 5 0.0000 0.0000 0.0000 0.0000 14.8406 0.0000
# 6 0.0000 0.0000 0.0000 0.0000 0.0000 10.6965
#
#
#
# Elastic Compliance Matrix: (Units=1/GPa)
#
#
# Indices 1 2 3 4 5 6 
#
# 1 0.050345 0.009240 -0.011423 0.000000 0.000000 0.000000
# 2 0.009240 0.012769 -0.007462 0.000000 0.000000 0.000000
# 3 -0.011423 -0.007462 0.018970 0.000000 0.000000 0.000000
# 4 0.000000 0.000000 0.000000-74.545747 0.000000 0.000000
# 5 0.000000 0.000000 0.000000 0.000000 0.067383 0.000000
# 6 0.000000 0.000000 0.000000 0.000000 0.000000 0.093488
#
#
# Mechanical properties :
#
#
# Convention : Reuss Voigt Hill
#
# Bulk Modulus (GPa) = 15.92481 30.12399 23.02440
# Shear Modulus (GPa) = -0.06733 16.48851 8.21059
#
# Velocity S-wave (km/s) = -0.17576 2.75052 1.94094
# Velocity P-wave (km/s) = 2.69546 4.88966 3.94806
#
# Compressibility (1/GPa) = 0.06279511
#
# Stress axis : x y z
#
# Youngs Moduli (GPa) = 19.86309 78.31371 52.71533
#
# Poissons Ratio (x) = -0.72366 0.60217
# Poissons Ratio (y) = -0.18354 0.39334
# Poissons Ratio (z) = 0.22690 0.58435
#
# Static dielectric constant tensor:
#      x y z
#    x 1.850400 0.000000 0.000000 
#    y 0.000000 1.826000 0.000000 
#    z 0.000000 0.000000 1.761790 
# 
# From -- ./inp_files/8105.got.cif
#   From: 2010.05.17/outbox.cif.g08.bks.cpg/sg41_5_cif.got.tgz:8105.got - 2010.06.03 18:54:24.
