data_PCOD9365348
_publ_section_title
;
Structure prediction by ZEFSAII (Michael W. Deem and Ramdas Pophale) SiO2 
 PCOD9365348
Probable space group: A M A 2
;
_chemical_formula_sum "Si O2"
_cell_formula_units_Z 48
_cell_length_a 13.482630
_cell_length_b 20.425808
_cell_length_c 8.428055
_cell_angle_alpha 90.000000
_cell_angle_beta 90.000000
_cell_angle_gamma 90.000000
_cell_volume 2321.032506
_symmetry_space_group_name_H-M "A M A 2"
_symmetry_group_IT_number 40
_symmetry_cell_setting 'orthorhombic'
loop_
_space_group_symop_operation_xyz
x,y,z
-x,-y,z
1/2-x,y,z
1/2+x,-y,z
x,1/2+y,1/2+z
-x,1/2-y,1/2+z
1/2-x,1/2+y,1/2+z
1/2+x,1/2-y,1/2+z
loop_
_atom_site_type_symbol
_atom_site_label
_atom_site_fract_x
_atom_site_fract_y
_atom_site_fract_z
Si Si1 0.250000 0.726166 0.572011
Si Si2 0.250000 0.157500 0.728746
Si Si3 0.561703 0.159891 0.868768
Si Si4 0.368672 0.897277 0.182225
Si Si5 0.500000 0.500000 0.864571
Si Si6 0.565299 0.716199 0.919417
Si Si7 0.549989 0.387143 0.097426
Si Si8 0.250000 0.746840 0.913151
O O1 0.250000 0.682237 0.411067
O O2 0.349410 0.768745 0.547107
O O3 0.250000 0.700557 0.753865
O O4 0.348682 0.117029 0.692797
O O5 0.250000 0.213039 0.586823
O O6 0.567640 0.115627 0.024440
O O7 0.473685 0.213907 0.860333
O O8 0.542832 0.113619 0.718495
O O9 0.657939 0.204557 0.889676
O O10 0.250000 0.903835 0.156733
O O11 0.417532 0.960007 0.266519
O O12 0.388378 0.832356 0.289640
O O13 0.550339 0.446681 0.977725
O O14 0.472482 0.677970 0.994334
#
# Coordination Sequence:
#
# PCOD9365348 Si02
#       8
#     4   4   8   8   4   8   8   4
#     4  12  22  34  61 102 143 178 214 264 350 430
#     4  12  24  40  65  99 146 182 216 281 343 421
#     4  12  22  38  67 102 137 169 217 282 348 424
#     4  11  24  44  72  98 136 181 233 286 346 419
#     4  10  28  48  70  86 124 190 240 296 338 398
#     4  11  21  37  63 101 140 173 211 268 351 424
#     4  11  24  43  65  93 136 178 228 281 339 404
#     4  12  24  36  64 111 141 176 218 265 365 425
#
# _framework density 20.680451000000001
#
# number of rings (size 3 to 8) (size 9 to 14) (size 15 to 20)
#    0.000    0.667    6.667    2.000    1.167    0.667 
#    0.000    0.000    7.333    0.000    0.000    0.000 
#    0.000    0.000    0.000    0.000    0.000    0.000 
#
# Total GULP energy -133919.688176 kJ/mol
# GULP energy per Si atom -5579.987007 kJ/mol
# Density = 2.063338 g / cm^3
# Si number density = 20.680451 Si / 1000 Ang^3
#
#
#
# Elastic Constant Matrix: (Units=GPa)
#
#
# Indices 1 2 3 4 5 6 
#
# 1 63.3896 29.6887 -19.4544 0.0000 0.0000 0.0000
# 2 29.6887 86.7949 45.1272 0.0000 0.0000 0.0000
# 3 -19.4544 45.1272 99.7972 0.0000 0.0000 0.0000
# 4 0.0000 0.0000 0.0000 12.6849 0.0000 0.0000
# 5 0.0000 0.0000 0.0000 0.0000 26.8446 0.0000
# 6 0.0000 0.0000 0.0000 0.0000 0.0000 12.8990
#
#
#
# Elastic Compliance Matrix: (Units=1/GPa)
#
#
# Indices 1 2 3 4 5 6 
#
# 1 0.026819 -0.015547 0.012258 0.000000 0.000000 0.000000
# 2 -0.015547 0.024075 -0.013917 0.000000 0.000000 0.000000
# 3 0.012258 -0.013917 0.018703 0.000000 0.000000 0.000000
# 4 0.000000 0.000000 0.000000 0.078834 0.000000 0.000000
# 5 0.000000 0.000000 0.000000 0.000000 0.037251 0.000000
# 6 0.000000 0.000000 0.000000 0.000000 0.000000 0.077525
#
#
# Mechanical properties :
#
#
# Convention : Reuss Voigt Hill
#
# Bulk Modulus (GPa) = 28.42082 40.07829 34.24955
# Shear Modulus (GPa) = 16.16295 23.46037 19.81166
#
# Velocity S-wave (km/s) = 2.79867 3.37177 3.09850
# Velocity P-wave (km/s) = 4.92098 5.88051 5.42201
#
# Compressibility (1/GPa) = 0.03518548
#
# Stress axis : x y z
#
# Youngs Moduli (GPa) = 37.28688 41.53611 53.46664
#
# Poissons Ratio (x) = 0.64577 -0.65541
# Poissons Ratio (y) = 0.57970 0.74412
# Poissons Ratio (z) = -0.45707 0.57807
#
# Static dielectric constant tensor:
#      x y z
#    x 1.752560 0.000000 0.000000 
#    y 0.000000 1.754840 0.000000 
#    z 0.000000 0.000000 1.818530 
# 
# From -- ./inp_files/6507.got.cif
#   From: 2010.05.17/outbox.cif.g08.bks.cpg/sg40_4_cif.got.tgz:6507.got - 2010.06.03 18:35:42.
