data_PCOD9365760
_publ_section_title
;
Structure prediction by ZEFSAII (Michael W. Deem and Ramdas Pophale) SiO2 
 PCOD9365760
Probable space group: A B A 2
;
_chemical_formula_sum "Si O2"
_cell_formula_units_Z 64
_cell_length_a 33.500071
_cell_length_b 5.362335
_cell_length_c 14.076460
_cell_angle_alpha 90.000000
_cell_angle_beta 90.000000
_cell_angle_gamma 90.000000
_cell_volume 2528.675613
_symmetry_space_group_name_H-M "A B A 2"
_symmetry_group_IT_number 41
_symmetry_cell_setting 'orthorhombic'
loop_
_space_group_symop_operation_xyz
x,y,z
-x,-y,z
1/2-x,y,1/2+z
1/2+x,-y,1/2+z
x,1/2+y,1/2+z
-x,1/2-y,1/2+z
1/2-x,1/2+y,z
1/2+x,1/2-y,z
loop_
_atom_site_type_symbol
_atom_site_label
_atom_site_fract_x
_atom_site_fract_y
_atom_site_fract_z
Si Si1 0.230219 0.579197 0.949090
Si Si2 0.975771 0.752902 0.932184
Si Si3 0.637817 0.288302 0.462123
Si Si4 0.233221 0.492578 0.722764
Si Si5 0.475797 0.750133 0.161349
Si Si6 0.150568 0.223078 0.739399
Si Si7 0.886826 0.782085 0.939859
Si Si8 0.888879 0.781213 0.240545
O O1 0.241498 0.303342 0.984760
O O2 0.185117 0.672909 0.965189
O O3 0.236539 0.542236 0.835969
O O4 0.930668 0.772670 0.893882
O O5 0.000000 0.500000 0.909564
O O6 0.969986 0.759093 0.046879
O O7 0.000000 0.000000 0.905658
O O8 0.617966 0.535979 0.501867
O O9 0.620791 0.285191 0.353686
O O10 0.622029 0.027789 0.499226
O O11 0.235325 0.780235 0.689006
O O12 0.192678 0.336824 0.709507
O O13 0.500000 0.500000 0.187276
O O14 0.434109 0.768599 0.214937
O O15 0.500000 0.000000 0.181611
O O16 0.146455 0.217494 0.855436
O O17 0.120546 0.439064 0.708439
O O18 0.139272 0.946985 0.707450
#
# Coordination Sequence:
#
# PCOD9365760 Si02
#       8
#     8   8   8   8   8   8   8   8
#     4  10  18  26  43  66 100 137 165 190 223 275
#     4  10  21  38  56  72  91 120 164 209 242 282
#     4  10  19  32  45  73 108 129 155 194 238 292
#     4  10  18  26  43  66 100 137 165 190 223 275
#     4  10  21  38  56  72  91 120 164 209 242 282
#     4  10  19  32  45  73 108 129 155 194 238 292
#     4  10  19  32  49  69  99 130 152 195 249 285
#     4  10  19  32  49  69  99 130 152 195 249 285
#
# _framework density 25.309691999999998
#
# number of rings (size 3 to 8) (size 9 to 14) (size 15 to 20)
#    0.000    2.000    2.500    3.000    7.000    0.000 
#    0.000   15.000    0.000    0.000    0.000    0.000 
#    0.000   34.000    0.000    0.000    0.000    0.000 
#
# Total GULP energy -178902.290315 kJ/mol
# GULP energy per Si atom -5590.696572 kJ/mol
# Density = 2.525209 g / cm^3
# Si number density = 25.309692 Si / 1000 Ang^3
#
#
#
# Elastic Constant Matrix: (Units=GPa)
#
#
# Indices 1 2 3 4 5 6 
#
# 1 137.0118 59.9339 -2.9240 0.0000 0.0000 0.0000
# 2 59.9339 224.3557 -18.1747 0.0000 0.0000 0.0000
# 3 -2.9240 -18.1747 88.1664 0.0000 0.0000 0.0000
# 4 0.0000 0.0000 0.0000 10.4041 0.0000 0.0000
# 5 0.0000 0.0000 0.0000 0.0000 -192.9288 0.0000
# 6 0.0000 0.0000 0.0000 0.0000 0.0000 50.8711
#
#
#
# Elastic Compliance Matrix: (Units=1/GPa)
#
#
# Indices 1 2 3 4 5 6 
#
# 1 0.008267 -0.002223 -0.000184 0.000000 0.000000 0.000000
# 2 -0.002223 0.005131 0.000984 0.000000 0.000000 0.000000
# 3 -0.000184 0.000984 0.011539 0.000000 0.000000 0.000000
# 4 0.000000 0.000000 0.000000 0.096116 0.000000 0.000000
# 5 0.000000 0.000000 0.000000 0.000000 -0.005183 0.000000
# 6 0.000000 0.000000 0.000000 0.000000 0.000000 0.019658
#
#
# Mechanical properties :
#
#
# Convention : Reuss Voigt Hill
#
# Bulk Modulus (GPa) = 45.26973 58.57826 51.92399
# Shear Modulus (GPa) = 34.30809 1.04919 17.67864
#
# Velocity S-wave (km/s) = 3.68575 0.64455 2.64577
# Velocity P-wave (km/s) = 6.00318 4.87327 5.46749
#
# Compressibility (1/GPa) = 0.02208982
#
# Stress axis : x y z
#
# Youngs Moduli (GPa) = 120.95820 194.89838 86.66325
#
# Poissons Ratio (x) = 0.43334 0.01596
# Poissons Ratio (y) = 0.26894 -0.08527
# Poissons Ratio (z) = 0.02228 -0.19177
#
# Static dielectric constant tensor:
#      x y z
#    x 2.035090 0.000000 0.000000 
#    y 0.000000 2.029390 0.000000 
#    z 0.000000 0.000000 2.073610 
# 
# From -- ./inp_files/10841.got.cif
#   From: 2010.05.17/outbox.cif.g08.bks.cpg/sg41_6_cif.got.tgz:10841.got - 2010.06.03 18:54:24.
