data_PCOD9365630
_publ_section_title
;
Structure prediction by ZEFSAII (Michael W. Deem and Ramdas Pophale) SiO2 
 PCOD9365630
Probable space group: A M A 2
;
_chemical_formula_sum "Si O2"
_cell_formula_units_Z 32
_cell_length_a 9.000000
_cell_length_b 24.000000
_cell_length_c 15.000000
_cell_angle_alpha 90.000000
_cell_angle_beta 90.000000
_cell_angle_gamma 90.000000
_cell_volume 3240.000000
_symmetry_space_group_name_H-M "A M A 2"
_symmetry_group_IT_number 40
_symmetry_cell_setting 'orthorhombic'
loop_
_space_group_symop_operation_xyz
x,y,z
-x,-y,z
1/2-x,y,z
1/2+x,-y,z
x,1/2+y,1/2+z
-x,1/2-y,1/2+z
1/2-x,1/2+y,1/2+z
1/2+x,1/2-y,1/2+z
loop_
_atom_site_type_symbol
_atom_site_label
_atom_site_fract_x
_atom_site_fract_y
_atom_site_fract_z
Si Si1 0.428214 0.845061 0.376120
Si Si2 0.926832 0.945690 0.476976
Si Si3 0.926834 0.616092 0.488016
Si Si4 0.925947 0.230254 0.881247
Si Si5 0.071158 0.845976 0.169510
Si Si6 0.928988 0.892438 0.649139
Si Si7 0.929454 0.277031 0.188184
Si Si8 0.573498 0.942957 0.829622
O O1 0.250000 0.850201 0.383773
O O2 0.516584 0.891583 0.427828
O O3 0.481743 0.784634 0.407605
O O4 0.471574 0.852926 0.271765
O O5 0.750000 0.950238 0.475161
O O6 0.984321 0.936441 0.578200
O O7 0.000000 0.000000 0.436734
O O8 0.750000 0.604645 0.485266
O O9 0.948616 0.677167 0.444350
O O10 0.983255 0.615858 0.589462
O O11 0.011553 0.574589 0.424231
O O12 0.750000 0.242528 0.879839
O O13 0.985552 0.218380 0.781601
O O14 0.250000 0.850480 0.167705
O O15 0.034683 0.782129 0.146272
O O16 0.750000 0.896607 0.646669
O O17 0.967641 0.829124 0.626706
O O18 0.973303 0.901729 0.750613
O O19 0.750000 0.277993 0.205926
O O20 0.750000 0.946368 0.832079
O O21 0.500000 0.000000 0.802223
#
# Coordination Sequence:
#
# PCOD9365630 Si02
#       8
#     8   8   8   8   8   8   8   8
#     4  10  21  39  60  82 112 151 194 238 287 340
#     4  11  23  40  61  85 113 148 193 242 291 344
#     4  10  20  35  56  84 114 149 191 233 278 332
#     4  10  19  31  53  85 118 148 184 230 279 333
#     4   8  17  33  57  81 110 149 187 229 279 336
#     4   9  19  34  57  84 114 152 188 226 279 342
#     4   9  16  32  55  79 112 152 189 222 272 336
#     4  11  22  38  58  82 113 152 191 232 280 334
#
# _framework density 9.8765429999999999
#
# number of rings (size 3 to 8) (size 9 to 14) (size 15 to 20)
#    0.000    2.250    1.250    2.625    1.750    0.500 
#    0.000    6.875    0.000    0.000    0.000    0.000 
#    0.000    0.000    0.000    0.000    0.000    0.000 
#
# Total GULP energy -178247.446392 kJ/mol
# GULP energy per Si atom -5570.232700 kJ/mol
# Density = 0.985406 g / cm^3
# Si number density = 9.876543 Si / 1000 Ang^3
#
#
#
# Elastic Constant Matrix: (Units=GPa)
#
#
# Indices 1 2 3 4 5 6 
#
# 1 24.4139 1.4421 -1.1058 0.0000 0.0000 0.0000
# 2 1.4421 40.5270 -1.4872 0.0000 0.0000 0.0000
# 3 -1.1058 -1.4872 25.8451 0.0000 0.0000 0.0000
# 4 0.0000 0.0000 0.0000 -12.2371 0.0000 0.0000
# 5 0.0000 0.0000 0.0000 0.0000 103.6555 0.0000
# 6 0.0000 0.0000 0.0000 0.0000 0.0000 21.2546
#
#
#
# Elastic Compliance Matrix: (Units=1/GPa)
#
#
# Indices 1 2 3 4 5 6 
#
# 1 0.041119 -0.001402 0.001679 0.000000 0.000000 0.000000
# 2 -0.001402 0.024775 0.001366 0.000000 0.000000 0.000000
# 3 0.001679 0.001366 0.038842 0.000000 0.000000 0.000000
# 4 0.000000 0.000000 0.000000 -0.081719 0.000000 0.000000
# 5 0.000000 0.000000 0.000000 0.000000 0.009647 0.000000
# 6 0.000000 0.000000 0.000000 0.000000 0.000000 0.047049
#
#
# Mechanical properties :
#
#
# Convention : Reuss Voigt Hill
#
# Bulk Modulus (GPa) = 9.25737 9.83157 9.54447
# Shear Modulus (GPa) = 44.47006 28.66374 36.56690
#
# Velocity S-wave (km/s) = 4.74993 3.81347 4.30722
# Velocity P-wave (km/s) = 5.89739 4.93741 5.43862
#
# Compressibility (1/GPa) = 0.10802203
#
# Stress axis : x y z
#
# Youngs Moduli (GPa) = 24.31960 40.36340 25.74502
#
# Poissons Ratio (x) = 0.05657 -0.04322
# Poissons Ratio (y) = 0.03409 -0.03516
# Poissons Ratio (z) = -0.04083 -0.05512
#
# Static dielectric constant tensor:
#      x y z
#    x 1.616960 0.000000 0.000000 
#    y 0.000000 1.778860 0.000000 
#    z 0.000000 0.000000 1.725300 
# 
# From -- ./inp_files/15587.got.cif
#   From: 2010.05.17/outbox.ucp.g08.bks.cvg/sg40_8_cif.got.tgz:15587.got - 2010.06.11 16:26:39.
