data_PCOD9365793
_publ_section_title
;
Structure prediction by ZEFSAII (Michael W. Deem and Ramdas Pophale) SiO2 
 PCOD9365793
Probable space group: A B A 2
;
_chemical_formula_sum "Si O2"
_cell_formula_units_Z 52
_cell_length_a 13.866182
_cell_length_b 20.714633
_cell_length_c 8.643153
_cell_angle_alpha 90.000000
_cell_angle_beta 90.000000
_cell_angle_gamma 90.000000
_cell_volume 2482.597653
_symmetry_space_group_name_H-M "A B A 2"
_symmetry_group_IT_number 41
_symmetry_cell_setting 'orthorhombic'
loop_
_space_group_symop_operation_xyz
x,y,z
-x,-y,z
1/2-x,y,1/2+z
1/2+x,-y,1/2+z
x,1/2+y,1/2+z
-x,1/2-y,1/2+z
1/2-x,1/2+y,z
1/2+x,1/2-y,z
loop_
_atom_site_type_symbol
_atom_site_label
_atom_site_fract_x
_atom_site_fract_y
_atom_site_fract_z
Si Si1 0.385617 0.331424 0.140580
Si Si2 0.500000 0.000000 0.170886
Si Si3 0.706979 0.712200 0.439500
Si Si4 0.382185 0.105217 0.010581
Si Si5 0.978227 0.207452 0.637591
Si Si6 0.215504 0.641728 0.322671
Si Si7 0.504075 0.889367 0.405106
O O1 0.335115 0.334799 0.306932
O O2 0.458082 0.270956 0.147397
O O3 0.301823 0.315330 0.018323
O O4 0.450318 0.388178 0.067881
O O5 0.577981 0.963914 0.064360
O O6 0.466235 0.944728 0.289885
O O7 0.626756 0.720576 0.572353
O O8 0.722866 0.782686 0.364070
O O9 0.470024 0.155947 0.022167
O O10 0.311302 0.132209 0.144461
O O11 0.316320 0.108130 0.861290
O O12 0.980160 0.175502 0.807201
O O13 0.120950 0.611298 0.408660
#
# Coordination Sequence:
#
# PCOD9365793 Si02
#       7
#     8   4   8   8   8   8   8
#     4  12  21  34  53  85 124 154 186 245 297 359
#     4   8  20  42  60  76 116 164 204 248 282 344
#     4  12  21  33  53  88 124 153 190 235 310 370
#     4  10  20  37  60  85 114 152 201 244 294 337
#     4  10  19  35  54  82 117 150 189 244 297 350
#     4  10  18  33  57  88 112 149 194 239 290 357
#     4  10  21  39  59  83 117 159 198 239 299 345
#
# _framework density 20.945803000000002
#
# number of rings (size 3 to 8) (size 9 to 14) (size 15 to 20)
#    0.000    1.846    6.154    0.923    0.000    1.231 
#    0.000    9.231    0.000    7.385    0.000    0.000 
#    0.000    0.000    0.000    0.000    0.000    0.000 
#
# Total GULP energy -145177.169658 kJ/mol
# GULP energy per Si atom -5583.737295 kJ/mol
# Density = 2.089813 g / cm^3
# Si number density = 20.945803 Si / 1000 Ang^3
#
#
#
# Elastic Constant Matrix: (Units=GPa)
#
#
# Indices 1 2 3 4 5 6 
#
# 1 64.1641 -2.8319 10.2463 0.0000 0.0000 0.0000
# 2 -2.8319 30.9009 -0.9709 0.0000 0.0000 0.0000
# 3 10.2463 -0.9709 26.7199 0.0000 0.0000 0.0000
# 4 0.0000 0.0000 0.0000 13.8038 0.0000 0.0000
# 5 0.0000 0.0000 0.0000 0.0000 42.3606 0.0000
# 6 0.0000 0.0000 0.0000 0.0000 0.0000 16.3060
#
#
#
# Elastic Compliance Matrix: (Units=1/GPa)
#
#
# Indices 1 2 3 4 5 6 
#
# 1 0.016656 0.001327 -0.006339 0.000000 0.000000 0.000000
# 2 0.001327 0.032504 0.000672 0.000000 0.000000 0.000000
# 3 -0.006339 0.000672 0.039881 0.000000 0.000000 0.000000
# 4 0.000000 0.000000 0.000000 0.072444 0.000000 0.000000
# 5 0.000000 0.000000 0.000000 0.000000 0.023607 0.000000
# 6 0.000000 0.000000 0.000000 0.000000 0.000000 0.061327
#
#
# Mechanical properties :
#
#
# Convention : Reuss Voigt Hill
#
# Bulk Modulus (GPa) = 12.44374 14.96356 13.70365
# Shear Modulus (GPa) = 17.73777 22.18350 19.96063
#
# Velocity S-wave (km/s) = 2.91321 3.25790 3.09036
# Velocity P-wave (km/s) = 4.15566 4.61642 4.39209
#
# Compressibility (1/GPa) = 0.08036166
#
# Stress axis : x y z
#
# Youngs Moduli (GPa) = 60.03892 30.76521 25.07491
#
# Poissons Ratio (x) = -0.04083 0.15895
# Poissons Ratio (y) = -0.07969 -0.01685
# Poissons Ratio (z) = 0.38058 -0.02068
#
# Static dielectric constant tensor:
#      x y z
#    x 1.761100 0.000000 0.000000 
#    y 0.000000 1.796870 0.000000 
#    z 0.000000 0.000000 1.792710 
# 
# From -- ./inp_files/2657.got.cif
#   From: 2010.05.17/outbox.cif.g08.bks.cpg/sg41_2_cif.got.tgz:2657.got - 2010.06.03 18:54:24.
