data_PCOD9365497
_publ_section_title
;
Structure prediction by ZEFSAII (Michael W. Deem and Ramdas Pophale) SiO2 
 PCOD9365497
Probable space group: A M A 2
;
_chemical_formula_sum "Si O2"
_cell_formula_units_Z 40
_cell_length_a 18.016215
_cell_length_b 17.883994
_cell_length_c 5.167907
_cell_angle_alpha 90.000000
_cell_angle_beta 90.000000
_cell_angle_gamma 90.000000
_cell_volume 1665.109356
_symmetry_space_group_name_H-M "A M A 2"
_symmetry_group_IT_number 40
_symmetry_cell_setting 'orthorhombic'
loop_
_space_group_symop_operation_xyz
x,y,z
-x,-y,z
1/2-x,y,z
1/2+x,-y,z
x,1/2+y,1/2+z
-x,1/2-y,1/2+z
1/2-x,1/2+y,1/2+z
1/2+x,1/2-y,1/2+z
loop_
_atom_site_type_symbol
_atom_site_label
_atom_site_fract_x
_atom_site_fract_y
_atom_site_fract_z
Si Si1 0.612592 0.284653 0.945570
Si Si2 0.664924 0.942579 0.537370
Si Si3 0.669757 0.147649 0.668998
Si Si4 0.042192 0.350318 0.765767
Si Si5 0.887716 0.524525 0.515149
O O1 0.658209 0.233529 0.748192
O O2 0.539821 0.324975 0.832566
O O3 0.660279 0.353180 0.045161
O O4 0.580346 0.222852 0.141394
O O5 0.750000 0.964952 0.591374
O O6 0.611797 0.972785 0.763632
O O7 0.641693 0.977751 0.260588
O O8 0.750000 0.138499 0.540427
O O9 0.597401 0.128922 0.499852
O O10 0.665624 0.093123 0.917810
O O11 0.041546 0.424854 0.591768
#
# Coordination Sequence:
#
# PCOD9365497 Si02
#       5
#     8   8   8   8   8
#     4  11  26  45  72 107 150 188 242 303 365 425
#     4  12  26  47  73 109 148 187 242 306 364 426
#     4  11  23  45  76 105 141 194 246 294 358 434
#     4  11  24  48  73 106 146 196 245 295 358 443
#     4  11  26  47  73 103 148 192 241 294 364 437
#
# _framework density 24.022445000000001
#
# number of rings (size 3 to 8) (size 9 to 14) (size 15 to 20)
#    0.000    0.800    4.000    2.400    2.800    5.600 
#    3.600    0.000    0.000    0.000    0.000    0.000 
#    0.000    0.000    0.000    0.000    0.000    0.000 
#
# Total GULP energy -111792.435711 kJ/mol
# GULP energy per Si atom -5589.621786 kJ/mol
# Density = 2.396777 g / cm^3
# Si number density = 24.022445 Si / 1000 Ang^3
#
#
#
# Elastic Constant Matrix: (Units=GPa)
#
#
# Indices 1 2 3 4 5 6 
#
# 1 78.1738 17.9237 13.4877 0.0000 0.0000 0.0000
# 2 17.9237 155.1809 42.8326 0.0000 0.0000 0.0000
# 3 13.4877 42.8326 102.2840 0.0000 0.0000 0.0000
# 4 0.0000 0.0000 0.0000 41.4404 0.0000 0.0000
# 5 0.0000 0.0000 0.0000 0.0000 9.8617 0.0000
# 6 0.0000 0.0000 0.0000 0.0000 0.0000 10.8534
#
#
#
# Elastic Compliance Matrix: (Units=1/GPa)
#
#
# Indices 1 2 3 4 5 6 
#
# 1 0.013281 -0.001188 -0.001254 0.000000 0.000000 0.000000
# 2 -0.001188 0.007393 -0.002939 0.000000 0.000000 0.000000
# 3 -0.001254 -0.002939 0.011173 0.000000 0.000000 0.000000
# 4 0.000000 0.000000 0.000000 0.024131 0.000000 0.000000
# 5 0.000000 0.000000 0.000000 0.000000 0.101403 0.000000
# 6 0.000000 0.000000 0.000000 0.000000 0.000000 0.092137
#
#
# Mechanical properties :
#
#
# Convention : Reuss Voigt Hill
#
# Bulk Modulus (GPa) = 47.42820 53.79185 50.61003
# Shear Modulus (GPa) = 18.70511 29.85740 24.28126
#
# Velocity S-wave (km/s) = 2.79346 3.52930 3.18272
# Velocity P-wave (km/s) = 5.49461 6.24891 5.88386
#
# Compressibility (1/GPa) = 0.02108450
#
# Stress axis : x y z
#
# Youngs Moduli (GPa) = 75.29728 135.27180 89.50309
#
# Poissons Ratio (x) = 0.16069 0.11222
# Poissons Ratio (y) = 0.08944 0.26306
# Poissons Ratio (z) = 0.09441 0.39757
#
# Static dielectric constant tensor:
#      x y z
#    x 1.944780 0.000000 0.000000 
#    y 0.000000 1.885090 0.000000 
#    z 0.000000 0.000000 1.955620 
# 
# From -- ./inp_files/1729.got.cif
#   From: 2010.05.17/outbox.cif.g08.bks.cpg/sg40_1_cif.got.tgz:1729.got - 2010.06.03 18:35:42.
