data_PCOD9365374
_publ_section_title
;
Structure prediction by ZEFSAII (Michael W. Deem and Ramdas Pophale) SiO2 
 PCOD9365374
Probable space group: A M A 2
;
_chemical_formula_sum "Si O2"
_cell_formula_units_Z 40
_cell_length_a 25.292793
_cell_length_b 4.937225
_cell_length_c 12.666895
_cell_angle_alpha 90.000000
_cell_angle_beta 90.000000
_cell_angle_gamma 90.000000
_cell_volume 1581.793839
_symmetry_space_group_name_H-M "A M A 2"
_symmetry_group_IT_number 40
_symmetry_cell_setting 'orthorhombic'
loop_
_space_group_symop_operation_xyz
x,y,z
-x,-y,z
1/2-x,y,z
1/2+x,-y,z
x,1/2+y,1/2+z
-x,1/2-y,1/2+z
1/2-x,1/2+y,1/2+z
1/2+x,1/2-y,1/2+z
loop_
_atom_site_type_symbol
_atom_site_label
_atom_site_fract_x
_atom_site_fract_y
_atom_site_fract_z
Si Si1 0.864350 0.919638 0.073980
Si Si2 0.314284 0.782270 0.746063
Si Si3 0.536169 0.249657 0.455441
Si Si4 0.635168 0.159072 0.323930
Si Si5 0.812790 0.476449 0.997081
O O1 0.862219 0.965028 0.209861
O O2 0.845731 0.219387 0.040090
O O3 0.925847 0.849554 0.050856
O O4 0.846544 0.750636 0.954793
O O5 0.250000 0.784809 0.751603
O O6 0.341300 0.065400 0.776057
O O7 0.317827 0.816586 0.611029
O O8 0.500000 0.500000 0.422598
O O9 0.573622 0.155137 0.358215
O O10 0.500000 0.000000 0.488640
O O11 0.677506 0.903633 0.360763
O O12 0.750000 0.435216 0.999769
#
# Coordination Sequence:
#
# PCOD9365374 Si02
#       5
#     8   8   8   8   8
#     4  11  24  39  62  93 124 164 215 259 317 391
#     4  12  23  40  62  97 138 166 192 256 333 400
#     4  11  23  45  67  86 117 165 219 275 311 353
#     4  11  24  39  62  93 125 166 216 258 315 391
#     4  11  20  37  60  89 123 167 212 256 308 385
#
# _framework density 25.287747
#
# number of rings (size 3 to 8) (size 9 to 14) (size 15 to 20)
#    0.000    0.800    0.000   10.800    0.000    0.000 
#    0.000    6.000    0.000    0.000    0.000    0.000 
#    0.000    0.000    0.000    0.000    0.000    0.000 
#
# Total GULP energy -111626.436190 kJ/mol
# GULP energy per Si atom -5581.321810 kJ/mol
# Density = 2.523019 g / cm^3
# Si number density = 25.287747 Si / 1000 Ang^3
#
#
#
# Elastic Constant Matrix: (Units=GPa)
#
#
# Indices 1 2 3 4 5 6 
#
# 1 145.7409 67.2829 52.4252 0.0000 0.0000 0.0000
# 2 67.2829 135.7144 -16.8628 0.0000 0.0000 0.0000
# 3 52.4252 -16.8628 172.2313 0.0000 0.0000 0.0000
# 4 0.0000 0.0000 0.0000 83.4154 0.0000 0.0000
# 5 0.0000 0.0000 0.0000 0.0000 8.9195 0.0000
# 6 0.0000 0.0000 0.0000 0.0000 0.0000 75.5359
#
#
#
# Elastic Compliance Matrix: (Units=1/GPa)
#
#
# Indices 1 2 3 4 5 6 
#
# 1 0.011029 -0.005958 -0.003940 0.000000 0.000000 0.000000
# 2 -0.005958 0.010677 0.002859 0.000000 0.000000 0.000000
# 3 -0.003940 0.002859 0.007285 0.000000 0.000000 0.000000
# 4 0.000000 0.000000 0.000000 0.011988 0.000000 0.000000
# 5 0.000000 0.000000 0.000000 0.000000 0.112114 0.000000
# 6 0.000000 0.000000 0.000000 0.000000 0.000000 0.013239
#
#
# Mechanical properties :
#
#
# Convention : Reuss Voigt Hill
#
# Bulk Modulus (GPa) = 67.05356 73.26412 70.15884
# Shear Modulus (GPa) = 26.97131 56.96360 41.96746
#
# Velocity S-wave (km/s) = 3.26939 4.75132 4.07823
# Velocity P-wave (km/s) = 6.38950 7.68994 7.06968
#
# Compressibility (1/GPa) = 0.01491345
#
# Stress axis : x y z
#
# Youngs Moduli (GPa) = 90.66728 93.65738 137.25924
#
# Poissons Ratio (x) = 0.55797 0.54087
# Poissons Ratio (y) = 0.54016 -0.39240
# Poissons Ratio (z) = 0.35727 -0.26775
#
# Static dielectric constant tensor:
#      x y z
#    x 1.684720 0.000000 0.000000 
#    y 0.000000 1.846560 0.000000 
#    z 0.000000 0.000000 2.337460 
# 
# From -- ./inp_files/18591.got.cif
#   From: 2010.05.17/outbox.cif.g08.bks.cpg/sg40_10_cif.got.tgz:18591.got - 2010.06.03 18:35:42.
