data_PCOD9365782
_publ_section_title
;
Structure prediction by ZEFSAII (Michael W. Deem and Ramdas Pophale) SiO2 
 PCOD9365782
Probable space group: A B A 2
;
_chemical_formula_sum "Si O2"
_cell_formula_units_Z 60
_cell_length_a 20.159234
_cell_length_b 20.655781
_cell_length_c 5.555403
_cell_angle_alpha 90.000000
_cell_angle_beta 90.000000
_cell_angle_gamma 90.000000
_cell_volume 2313.296045
_symmetry_space_group_name_H-M "A B A 2"
_symmetry_group_IT_number 41
_symmetry_cell_setting 'orthorhombic'
loop_
_space_group_symop_operation_xyz
x,y,z
-x,-y,z
1/2-x,y,1/2+z
1/2+x,-y,1/2+z
x,1/2+y,1/2+z
-x,1/2-y,1/2+z
1/2-x,1/2+y,z
1/2+x,1/2-y,z
loop_
_atom_site_type_symbol
_atom_site_label
_atom_site_fract_x
_atom_site_fract_y
_atom_site_fract_z
Si Si1 0.098003 0.794038 0.167630
Si Si2 0.500000 0.000000 0.672860
Si Si3 0.368421 0.464286 0.669497
Si Si4 0.273376 0.103287 0.915420
Si Si5 0.769874 0.252049 0.009471
Si Si6 0.856101 0.561686 0.647114
Si Si7 0.958322 0.167531 0.666899
Si Si8 0.577643 0.906366 0.009806
O O1 0.138390 0.861965 0.172292
O O2 0.064364 0.792474 0.429886
O O3 0.155686 0.743901 0.109340
O O4 0.054168 0.800551 0.926286
O O5 0.430642 0.966973 0.589627
O O6 0.529441 0.938303 0.814337
O O7 0.336890 0.466618 0.403346
O O8 0.416426 0.400467 0.657897
O O9 0.407427 0.532491 0.681882
O O10 0.321448 0.454243 0.896983
O O11 0.243790 0.073353 0.674314
O O12 0.243467 0.175883 0.951967
O O13 0.352366 0.111416 0.894799
O O14 0.769287 0.221461 0.738740
O O15 0.035254 0.148645 0.637780
#
# Coordination Sequence:
#
# PCOD9365782 Si02
#       8
#     8   4   8   8   8   8   8   8
#     4  10  19  33  55  86 120 138 191 254 286 338
#     4  10  18  32  58  92 116 164 184 224 294 372
#     4   9  18  29  49  81 117 151 187 213 275 348
#     4  10  25  45  62  85 113 155 210 251 279 345
#     4  10  21  42  66  80 105 161 212 240 296 353
#     4   9  18  28  48  80 119 142 185 221 275 342
#     4  10  19  31  53  92 122 145 180 237 302 359
#     4  11  19  37  62  88 120 160 197 234 300 354
#
# _framework density 25.937014999999999
#
# number of rings (size 3 to 8) (size 9 to 14) (size 15 to 20)
#    0.000    2.133    4.000    0.800    3.733    3.200 
#    0.000    1.333    0.000   30.400    0.000    0.000 
#    0.000    0.000    0.000    0.000    0.000    0.000 
#
# Total GULP energy -167401.025094 kJ/mol
# GULP energy per Si atom -5580.034170 kJ/mol
# Density = 2.587798 g / cm^3
# Si number density = 25.937015 Si / 1000 Ang^3
#
#
#
# Elastic Constant Matrix: (Units=GPa)
#
#
# Indices 1 2 3 4 5 6 
#
# 1 113.6565 12.9722 46.1627 0.0000 0.0000 0.0000
# 2 12.9722 50.9639 18.4589 0.0000 0.0000 0.0000
# 3 46.1627 18.4589 237.1585 0.0000 0.0000 0.0000
# 4 0.0000 0.0000 0.0000 1.2348 0.0000 0.0000
# 5 0.0000 0.0000 0.0000 0.0000 27.5158 0.0000
# 6 0.0000 0.0000 0.0000 0.0000 0.0000 29.7089
#
#
#
# Elastic Compliance Matrix: (Units=1/GPa)
#
#
# Indices 1 2 3 4 5 6 
#
# 1 0.009719 -0.001840 -0.001748 0.000000 0.000000 0.000000
# 2 -0.001840 0.020539 -0.001240 0.000000 0.000000 0.000000
# 3 -0.001748 -0.001240 0.004653 0.000000 0.000000 0.000000
# 4 0.000000 0.000000 0.000000 0.809877 0.000000 0.000000
# 5 0.000000 0.000000 0.000000 0.000000 0.036343 0.000000
# 6 0.000000 0.000000 0.000000 0.000000 0.000000 0.033660
#
#
# Mechanical properties :
#
#
# Convention : Reuss Voigt Hill
#
# Bulk Modulus (GPa) = 39.59944 61.88518 50.74231
# Shear Modulus (GPa) = 5.35982 33.30421 19.33201
#
# Velocity S-wave (km/s) = 1.43908 3.58724 2.73306
# Velocity P-wave (km/s) = 4.24994 6.40853 5.43743
#
# Compressibility (1/GPa) = 0.02525288
#
# Stress axis : x y z
#
# Youngs Moduli (GPa) = 102.89481 48.68673 214.89310
#
# Poissons Ratio (x) = 0.08961 0.37574
# Poissons Ratio (y) = 0.18937 0.26656
# Poissons Ratio (z) = 0.17991 0.06039
#
# Static dielectric constant tensor:
#      x y z
#    x 2.049350 0.000000 0.000000 
#    y 0.000000 2.114210 0.000000 
#    z 0.000000 0.000000 2.168210 
# 
# From -- ./inp_files/778.got.cif
#   From: 2010.05.17/outbox.cif.g08.bks.cpg/sg41_1_cif.got.tgz:778.got - 2010.06.03 18:54:24.
