data_PCOD9365129
_publ_section_title
;
Structure prediction by ZEFSAII (Michael W. Deem and Ramdas Pophale) SiO2 
 PCOD9365129
Probable space group: A M A 2
;
_chemical_formula_sum "Si O2"
_cell_formula_units_Z 36
_cell_length_a 23.001827
_cell_length_b 7.663957
_cell_length_c 6.694573
_cell_angle_alpha 90.000000
_cell_angle_beta 90.000000
_cell_angle_gamma 90.000000
_cell_volume 1180.152889
_symmetry_space_group_name_H-M "A M A 2"
_symmetry_group_IT_number 40
_symmetry_cell_setting 'orthorhombic'
loop_
_space_group_symop_operation_xyz
x,y,z
-x,-y,z
1/2-x,y,z
1/2+x,-y,z
x,1/2+y,1/2+z
-x,1/2-y,1/2+z
1/2-x,1/2+y,1/2+z
1/2+x,1/2-y,1/2+z
loop_
_atom_site_type_symbol
_atom_site_label
_atom_site_fract_x
_atom_site_fract_y
_atom_site_fract_z
Si Si1 0.036248 0.162420 0.632400
Si Si2 0.148177 0.815690 0.194447
Si Si3 0.578999 0.341526 0.682216
Si Si4 0.250000 0.731371 0.401900
Si Si5 0.812078 0.132904 0.778666
O O1 0.092046 0.206919 0.763548
O O2 0.936020 0.372311 0.917004
O O3 0.015050 0.698667 0.601853
O O4 0.000000 0.000000 0.707176
O O5 0.196897 0.870595 0.349251
O O6 0.111965 0.985502 0.119401
O O7 0.183665 0.770303 0.991498
O O8 0.627610 0.187386 0.678477
O O9 0.201079 0.568539 0.332068
O O10 0.750000 0.211323 0.664941
#
# Coordination Sequence:
#
# PCOD9365129 Si02
#       5
#     8   8   8   4   8
#     4  11  26  47  73 106 149 197 248 306 375 442
#     4  11  23  49  76 108 152 192 245 317 366 436
#     4  11  26  45  74 108 150 188 254 309 365 443
#     4  10  22  44  78 108 148 196 242 304 376 446
#     4   9  23  43  65 110 147 192 242 294 369 446
#
# _framework density 30.504521
#
# number of rings (size 3 to 8) (size 9 to 14) (size 15 to 20)
#    0.667    0.889    1.111    2.000    7.778    3.556 
#    0.000    4.444    0.000    0.000    0.000    0.000 
#    0.000    0.000    0.000    0.000    0.000    0.000 
#
# Total GULP energy -100513.589124 kJ/mol
# GULP energy per Si atom -5584.088285 kJ/mol
# Density = 3.043509 g / cm^3
# Si number density = 30.504521 Si / 1000 Ang^3
#
#
#
# Elastic Constant Matrix: (Units=GPa)
#
#
# Indices 1 2 3 4 5 6 
#
# 1 358.2510 49.4363 88.1616 0.0000 0.0000 0.0000
# 2 49.4363 120.9426 15.0668 0.0000 0.0000 0.0000
# 3 88.1616 15.0668 127.7201 0.0000 0.0000 0.0000
# 4 0.0000 0.0000 0.0000 42.2671 0.0000 0.0000
# 5 0.0000 0.0000 0.0000 0.0000 86.6719 0.0000
# 6 0.0000 0.0000 0.0000 0.0000 0.0000 48.0509
#
#
#
# Elastic Compliance Matrix: (Units=1/GPa)
#
#
# Indices 1 2 3 4 5 6 
#
# 1 0.003514 -0.001151 -0.002290 0.000000 0.000000 0.000000
# 2 -0.001151 0.008769 -0.000240 0.000000 0.000000 0.000000
# 3 -0.002290 -0.000240 0.009438 0.000000 0.000000 0.000000
# 4 0.000000 0.000000 0.000000 0.023659 0.000000 0.000000
# 5 0.000000 0.000000 0.000000 0.000000 0.011538 0.000000
# 6 0.000000 0.000000 0.000000 0.000000 0.000000 0.020811
#
#
# Mechanical properties :
#
#
# Convention : Reuss Voigt Hill
#
# Bulk Modulus (GPa) = 69.63916 101.36035 85.49976
# Shear Modulus (GPa) = 55.63201 65.68125 60.65663
#
# Velocity S-wave (km/s) = 4.27515 4.64525 4.46404
# Velocity P-wave (km/s) = 6.87371 7.87853 7.39321
#
# Compressibility (1/GPa) = 0.01435974
#
# Stress axis : x y z
#
# Youngs Moduli (GPa) = 284.60810 114.04135 105.95077
#
# Poissons Ratio (x) = 0.13126 0.24258
# Poissons Ratio (y) = 0.32758 0.02542
# Poissons Ratio (z) = 0.65163 0.02736
#
# Static dielectric constant tensor:
#      x y z
#    x 2.302120 0.000000 0.000000 
#    y 0.000000 2.666980 0.000000 
#    z 0.000000 0.000000 2.680830 
# 
# From -- ./inp_files/13394.got.cif
#   From: 2010.05.17/outbox.cif.g08.bks.cpg/sg40_7_cif.got.tgz:13394.got - 2010.06.03 18:35:42.
