data_PCOD9365436
_publ_section_title
;
Structure prediction by ZEFSAII (Michael W. Deem and Ramdas Pophale) SiO2 
 PCOD9365436
Probable space group: A M A 2
;
_chemical_formula_sum "Si O2"
_cell_formula_units_Z 40
_cell_length_a 14.057718
_cell_length_b 10.993726
_cell_length_c 11.732141
_cell_angle_alpha 90.000000
_cell_angle_beta 90.000000
_cell_angle_gamma 90.000000
_cell_volume 1813.163674
_symmetry_space_group_name_H-M "A M A 2"
_symmetry_group_IT_number 40
_symmetry_cell_setting 'orthorhombic'
loop_
_space_group_symop_operation_xyz
x,y,z
-x,-y,z
1/2-x,y,z
1/2+x,-y,z
x,1/2+y,1/2+z
-x,1/2-y,1/2+z
1/2-x,1/2+y,1/2+z
1/2+x,1/2-y,1/2+z
loop_
_atom_site_type_symbol
_atom_site_label
_atom_site_fract_x
_atom_site_fract_y
_atom_site_fract_z
Si Si1 0.355873 0.448453 0.325050
Si Si2 0.011393 0.154345 0.708276
Si Si3 0.861945 0.669950 0.018495
Si Si4 0.607734 0.455485 0.565647
Si Si5 0.857088 0.632607 0.753101
O O1 0.250000 0.431238 0.280086
O O2 0.411159 0.560440 0.261887
O O3 0.427666 0.337438 0.302745
O O4 0.348435 0.475910 0.457608
O O5 0.067953 0.278398 0.692649
O O6 0.946769 0.119846 0.598735
O O7 0.750000 0.637677 0.040023
O O8 0.871950 0.814668 0.041455
O O9 0.879664 0.634162 0.887212
O O10 0.500000 0.500000 0.557929
O O11 0.641083 0.504296 0.688140
O O12 0.750000 0.683157 0.742338
#
# Coordination Sequence:
#
# PCOD9365436 Si02
#       5
#     8   8   8   8   8
#     4  11  22  41  66  94 125 170 225 274 336 406
#     4  11  22  38  64  91 130 173 219 278 335 394
#     4  11  23  42  64  93 134 177 222 281 339 395
#     4  12  21  41  68  97 130 172 224 279 333 403
#     4  11  23  40  66  98 132 173 223 278 337 399
#
# _framework density 22.060887999999998
#
# number of rings (size 3 to 8) (size 9 to 14) (size 15 to 20)
#    0.000    0.800    6.000    3.000    0.000    0.000 
#    3.600    0.000    0.000    0.000    0.000    0.000 
#    0.000    0.000    0.000    0.000    0.000    0.000 
#
# Total GULP energy -111508.452111 kJ/mol
# GULP energy per Si atom -5575.422606 kJ/mol
# Density = 2.201068 g / cm^3
# Si number density = 22.060888 Si / 1000 Ang^3
#
#
#
# Elastic Constant Matrix: (Units=GPa)
#
#
# Indices 1 2 3 4 5 6 
#
# 1 150.1081 -2.5432 39.8812 0.0000 0.0000 0.0000
# 2 -2.5432 48.4991 45.0657 0.0000 0.0000 0.0000
# 3 39.8812 45.0657 160.1468 0.0000 0.0000 0.0000
# 4 0.0000 0.0000 0.0000 32.1805 0.0000 0.0000
# 5 0.0000 0.0000 0.0000 0.0000 59.4814 0.0000
# 6 0.0000 0.0000 0.0000 0.0000 0.0000 24.2127
#
#
#
# Elastic Compliance Matrix: (Units=1/GPa)
#
#
# Indices 1 2 3 4 5 6 
#
# 1 0.007414 0.002849 -0.002648 0.000000 0.000000 0.000000
# 2 0.002849 0.029014 -0.008874 0.000000 0.000000 0.000000
# 3 -0.002648 -0.008874 0.009401 0.000000 0.000000 0.000000
# 4 0.000000 0.000000 0.000000 0.031075 0.000000 0.000000
# 5 0.000000 0.000000 0.000000 0.000000 0.016812 0.000000
# 6 0.000000 0.000000 0.000000 0.000000 0.000000 0.041301
#
#
# Mechanical properties :
#
#
# Convention : Reuss Voigt Hill
#
# Bulk Modulus (GPa) = 35.10857 58.17349 46.64103
# Shear Modulus (GPa) = 30.89150 41.59826 36.24488
#
# Velocity S-wave (km/s) = 3.74610 4.34707 4.05773
# Velocity P-wave (km/s) = 5.88727 7.18490 6.56821
#
# Compressibility (1/GPa) = 0.02848307
#
# Stress axis : x y z
#
# Youngs Moduli (GPa) = 134.88579 34.46560 106.37208
#
# Poissons Ratio (x) = -0.09820 0.28168
# Poissons Ratio (y) = -0.38434 0.94398
# Poissons Ratio (z) = 0.35718 0.30586
#
# Static dielectric constant tensor:
#      x y z
#    x 1.834260 0.000000 0.000000 
#    y 0.000000 1.908100 0.000000 
#    z 0.000000 0.000000 1.854420 
# 
# From -- ./inp_files/11958.got.cif
#   From: 2010.05.17/outbox.cif.g08.bks.cpg/sg40_6_cif.got.tgz:11958.got - 2010.06.03 18:35:42.
