data_PCOD9365208
_publ_section_title
;
Structure prediction by ZEFSAII (Michael W. Deem and Ramdas Pophale) SiO2 
 PCOD9365208
Probable space group: A M A 2
;
_chemical_formula_sum "Si O2"
_cell_formula_units_Z 56
_cell_length_a 18.783855
_cell_length_b 16.166338
_cell_length_c 9.022141
_cell_angle_alpha 90.000000
_cell_angle_beta 90.000000
_cell_angle_gamma 90.000000
_cell_volume 2739.718812
_symmetry_space_group_name_H-M "A M A 2"
_symmetry_group_IT_number 40
_symmetry_cell_setting 'orthorhombic'
loop_
_space_group_symop_operation_xyz
x,y,z
-x,-y,z
1/2-x,y,z
1/2+x,-y,z
x,1/2+y,1/2+z
-x,1/2-y,1/2+z
1/2-x,1/2+y,1/2+z
1/2+x,1/2-y,1/2+z
loop_
_atom_site_type_symbol
_atom_site_label
_atom_site_fract_x
_atom_site_fract_y
_atom_site_fract_z
Si Si1 0.831616 0.292158 0.886190
Si Si2 0.832836 0.475861 0.753706
Si Si3 0.672984 0.626883 0.196373
Si Si4 0.523999 0.287618 0.048286
Si Si5 0.015759 0.134976 0.874325
Si Si6 0.116728 0.490336 0.422900
Si Si7 0.057107 0.433337 0.965901
O O1 0.750000 0.288167 0.943136
O O2 0.839223 0.379540 0.801263
O O3 0.840739 0.214331 0.776058
O O4 0.892192 0.283477 0.010705
O O5 0.750000 0.499549 0.785058
O O6 0.851033 0.493710 0.583556
O O7 0.893891 0.525274 0.842487
O O8 0.750000 0.632030 0.122256
O O9 0.672635 0.554306 0.317678
O O10 0.612378 0.600183 0.084959
O O11 0.510961 0.319322 0.215152
O O12 0.491386 0.354366 0.932111
O O13 0.486250 0.202308 0.004975
O O14 0.949556 0.074346 0.911984
O O15 0.084958 0.077284 0.868852
O O16 0.000000 0.500000 0.025725
#
# Coordination Sequence:
#
# PCOD9365208 Si02
#       7
#     8   8   8   8   8   8   8
#     4  10  23  42  69  98 135 181 222 270 336 394
#     4  11  26  45  66  98 135 177 225 275 332 398
#     4  11  23  44  69  95 136 183 221 270 332 400
#     4  12  23  43  69 100 133 174 218 282 329 398
#     4  11  27  40  68 100 134 167 225 272 341 387
#     4  11  24  43  65  97 132 173 221 276 329 399
#     4  12  24  39  70 101 131 169 227 273 332 390
#
# _framework density 20.440054
#
# number of rings (size 3 to 8) (size 9 to 14) (size 15 to 20)
#    0.000    0.857    4.286    1.714    8.000    0.000 
#    0.000    0.714    0.000    0.000    0.000    0.000 
#    0.000    0.000    0.000    0.000    0.000    0.000 
#
# Total GULP energy -156320.358343 kJ/mol
# GULP energy per Si atom -5582.869941 kJ/mol
# Density = 2.039353 g / cm^3
# Si number density = 20.440054 Si / 1000 Ang^3
#
#
#
# Elastic Constant Matrix: (Units=GPa)
#
#
# Indices 1 2 3 4 5 6 
#
# 1 113.8151 23.5882 24.1299 0.0000 0.0000 0.0000
# 2 23.5882 101.7687 17.5516 0.0000 0.0000 0.0000
# 3 24.1299 17.5516 53.1586 0.0000 0.0000 0.0000
# 4 0.0000 0.0000 0.0000 22.5038 0.0000 0.0000
# 5 0.0000 0.0000 0.0000 0.0000 36.7324 0.0000
# 6 0.0000 0.0000 0.0000 0.0000 0.0000 6.3876
#
#
#
# Elastic Compliance Matrix: (Units=1/GPa)
#
#
# Indices 1 2 3 4 5 6 
#
# 1 0.009968 -0.001622 -0.003989 0.000000 0.000000 0.000000
# 2 -0.001622 0.010684 -0.002791 0.000000 0.000000 0.000000
# 3 -0.003989 -0.002791 0.021544 0.000000 0.000000 0.000000
# 4 0.000000 0.000000 0.000000 0.044437 0.000000 0.000000
# 5 0.000000 0.000000 0.000000 0.000000 0.027224 0.000000
# 6 0.000000 0.000000 0.000000 0.000000 0.000000 0.156552
#
#
# Mechanical properties :
#
#
# Convention : Reuss Voigt Hill
#
# Bulk Modulus (GPa) = 39.38467 44.36467 41.87467
# Shear Modulus (GPa) = 16.91033 26.68962 21.79998
#
# Velocity S-wave (km/s) = 2.87943 3.61744 3.26932
# Velocity P-wave (km/s) = 5.51044 6.26097 5.89766
#
# Compressibility (1/GPa) = 0.02539059
#
# Stress axis : x y z
#
# Youngs Moduli (GPa) = 100.31940 93.60130 46.41684
#
# Poissons Ratio (x) = 0.15186 0.18516
# Poissons Ratio (y) = 0.16276 0.12955
# Poissons Ratio (z) = 0.40018 0.26124
#
# Static dielectric constant tensor:
#      x y z
#    x 1.764060 0.000000 0.000000 
#    y 0.000000 1.738980 0.000000 
#    z 0.000000 0.000000 1.715490 
# 
# From -- ./inp_files/8327.got.cif
#   From: 2010.05.17/outbox.cif.g08.bks.cpg/sg40_5_cif.got.tgz:8327.got - 2010.06.03 18:35:42.
