data_PCOD9365766
_publ_section_title
;
Structure prediction by ZEFSAII (Michael W. Deem and Ramdas Pophale) SiO2 
 PCOD9365766
Probable space group: A B A 2
;
_chemical_formula_sum "Si O2"
_cell_formula_units_Z 64
_cell_length_a 15.361073
_cell_length_b 24.056646
_cell_length_c 8.218365
_cell_angle_alpha 90.000000
_cell_angle_beta 90.000000
_cell_angle_gamma 90.000000
_cell_volume 3036.980869
_symmetry_space_group_name_H-M "A B A 2"
_symmetry_group_IT_number 41
_symmetry_cell_setting 'orthorhombic'
loop_
_space_group_symop_operation_xyz
x,y,z
-x,-y,z
1/2-x,y,1/2+z
1/2+x,-y,1/2+z
x,1/2+y,1/2+z
-x,1/2-y,1/2+z
1/2-x,1/2+y,z
1/2+x,1/2-y,z
loop_
_atom_site_type_symbol
_atom_site_label
_atom_site_fract_x
_atom_site_fract_y
_atom_site_fract_z
Si Si1 0.499186 0.934892 0.851410
Si Si2 0.726937 0.506065 0.514331
Si Si3 0.929849 0.958081 0.712747
Si Si4 0.334066 0.064213 0.702685
Si Si5 0.198901 0.300614 0.199320
Si Si6 0.701114 0.781208 0.958414
Si Si7 0.176137 0.644835 0.237162
Si Si8 0.675207 0.123804 0.918477
O O1 0.574188 0.908843 0.740442
O O2 0.408545 0.903777 0.835177
O O3 0.500000 0.000000 0.801079
O O4 0.524960 0.937713 0.042654
O O5 0.655253 0.493614 0.655645
O O6 0.689564 0.470816 0.364573
O O7 0.819526 0.480317 0.561367
O O8 0.729761 0.570669 0.479528
O O9 0.893745 0.901274 0.793080
O O10 0.000000 0.000000 0.791191
O O11 0.259825 0.109473 0.677917
O O12 0.255891 0.261616 0.083047
O O13 0.154259 0.257048 0.323279
O O14 0.264760 0.339299 0.302117
O O15 0.146943 0.339880 0.075479
O O16 0.646923 0.822366 0.074489
O O17 0.780412 0.814676 0.870184
#
# Coordination Sequence:
#
# PCOD9365766 Si02
#       8
#     8   8   8   8   8   8   8   8
#     4  10  18  32  51  81 125 162 184 224 296 377
#     4  10  18  30  52  81 118 150 200 224 282 374
#     4   9  16  30  48  85 113 149 182 219 282 376
#     4  10  19  31  52  87 111 153 204 230 282 374
#     4   9  21  33  58  82 109 146 215 259 286 347
#     4   9  18  37  54  86 107 143 213 259 284 339
#     4  10  18  31  63  78 110 150 186 248 298 338
#     4  11  18  34  57  85 115 164 186 250 310 339
#
# _framework density 21.073561999999999
#
# number of rings (size 3 to 8) (size 9 to 14) (size 15 to 20)
#    0.000    2.250    3.750    3.000    0.000    0.000 
#    0.000    0.000    0.000   42.750    0.000    2.625 
#    0.000    0.000    0.000    0.000    0.000    0.000 
#
# Total GULP energy -178333.293980 kJ/mol
# GULP energy per Si atom -5572.915437 kJ/mol
# Density = 2.102560 g / cm^3
# Si number density = 21.073562 Si / 1000 Ang^3
#
#
#
# Elastic Constant Matrix: (Units=GPa)
#
#
# Indices 1 2 3 4 5 6 
#
# 1 63.0159 26.8886 6.4129 0.0000 0.0000 0.0000
# 2 26.8886 121.2225 38.3527 0.0000 0.0000 0.0000
# 3 6.4129 38.3527 58.0955 0.0000 0.0000 0.0000
# 4 0.0000 0.0000 0.0000 37.4907 0.0000 0.0000
# 5 0.0000 0.0000 0.0000 0.0000 17.0590 0.0000
# 6 0.0000 0.0000 0.0000 0.0000 0.0000 18.6524
#
#
#
# Elastic Compliance Matrix: (Units=1/GPa)
#
#
# Indices 1 2 3 4 5 6 
#
# 1 0.017557 -0.004148 0.000800 0.000000 0.000000 0.000000
# 2 -0.004148 0.011407 -0.007073 0.000000 0.000000 0.000000
# 3 0.000800 -0.007073 0.021794 0.000000 0.000000 0.000000
# 4 0.000000 0.000000 0.000000 0.026673 0.000000 0.000000
# 5 0.000000 0.000000 0.000000 0.000000 0.058620 0.000000
# 6 0.000000 0.000000 0.000000 0.000000 0.000000 0.053612
#
#
# Mechanical properties :
#
#
# Convention : Reuss Voigt Hill
#
# Bulk Modulus (GPa) = 33.42500 42.84915 38.13707
# Shear Modulus (GPa) = 22.67811 26.01906 24.34859
#
# Velocity S-wave (km/s) = 3.28402 3.51761 3.40282
# Velocity P-wave (km/s) = 5.50229 6.07251 5.79442
#
# Compressibility (1/GPa) = 0.02991773
#
# Stress axis : x y z
#
# Youngs Moduli (GPa) = 56.95632 87.66601 45.88451
#
# Poissons Ratio (x) = 0.36360 -0.03671
# Poissons Ratio (y) = 0.23623 0.32453
# Poissons Ratio (z) = -0.04556 0.62003
#
# Static dielectric constant tensor:
#      x y z
#    x 1.808030 0.000000 0.000000 
#    y 0.000000 1.805430 0.000000 
#    z 0.000000 0.000000 1.843910 
# 
# From -- ./inp_files/2826.got.cif
#   From: 2010.05.17/outbox.cif.g08.bks.cpg/sg41_2_cif.got.tgz:2826.got - 2010.06.03 18:54:24.
