data_PCOD9365170
_publ_section_title
;
Structure prediction by ZEFSAII (Michael W. Deem and Ramdas Pophale) SiO2 
 PCOD9365170
Probable space group: A M A 2
;
_chemical_formula_sum "Si O2"
_cell_formula_units_Z 36
_cell_length_a 17.941894
_cell_length_b 10.467716
_cell_length_c 10.470486
_cell_angle_alpha 90.000000
_cell_angle_beta 90.000000
_cell_angle_gamma 90.000000
_cell_volume 1966.468791
_symmetry_space_group_name_H-M "A M A 2"
_symmetry_group_IT_number 40
_symmetry_cell_setting 'orthorhombic'
loop_
_space_group_symop_operation_xyz
x,y,z
-x,-y,z
1/2-x,y,z
1/2+x,-y,z
x,1/2+y,1/2+z
-x,1/2-y,1/2+z
1/2-x,1/2+y,1/2+z
1/2+x,1/2-y,1/2+z
loop_
_atom_site_type_symbol
_atom_site_label
_atom_site_fract_x
_atom_site_fract_y
_atom_site_fract_z
Si Si1 0.626373 0.660044 0.458950
Si Si2 0.873456 0.867402 0.666223
Si Si3 0.750000 0.976091 0.062734
Si Si4 0.250000 0.236612 0.850033
Si Si5 0.000000 0.500000 0.326404
Si Si6 0.250000 0.986527 0.529005
Si Si7 0.750000 0.796932 0.312689
O O1 0.606348 0.781524 0.544846
O O2 0.678343 0.567097 0.545205
O O3 0.554285 0.586991 0.410827
O O4 0.677860 0.709050 0.340825
O O5 0.821570 0.780858 0.758947
O O6 0.822055 0.985488 0.616999
O O7 0.945189 0.915900 0.739825
O O8 0.750000 0.882749 0.185446
O O9 0.750000 0.885209 0.940920
O O10 0.250000 0.359331 0.943241
O O11 0.250000 0.103027 0.429085
#
# Coordination Sequence:
#
# PCOD9365170 Si02
#       7
#     8   8   4   4   4   4   4
#     4  10  23  41  58  87 121 152 195 241 291 340
#     4  10  23  41  58  85 123 150 193 249 279 348
#     4  11  20  36  66  91 113 149 195 246 293 339
#     4  11  20  36  66  91 111 151 195 244 297 335
#     4  12  24  38  56  88 120 162 192 228 296 350
#     4   9  20  38  62  88 112 148 197 243 294 335
#     4   9  20  38  62  88 114 148 195 249 286 341
#
# _framework density 18.306927000000002
#
# number of rings (size 3 to 8) (size 9 to 14) (size 15 to 20)
#    0.000    1.778    2.222    3.333    3.111    3.556 
#    0.000    0.000    0.000    0.000    0.000    0.000 
#    0.000    0.000    0.000    0.000    0.000    0.000 
#
# Total GULP energy -100438.692053 kJ/mol
# GULP energy per Si atom -5579.927336 kJ/mol
# Density = 1.826526 g / cm^3
# Si number density = 18.306927 Si / 1000 Ang^3
#
#
#
# Elastic Constant Matrix: (Units=GPa)
#
#
# Indices 1 2 3 4 5 6 
#
# 1 156.0383 62.2083 62.6293 0.0000 0.0000 0.0000
# 2 62.2083 100.5298 49.2557 0.0000 0.0000 0.0000
# 3 62.6293 49.2557 101.3126 0.0000 0.0000 0.0000
# 4 0.0000 0.0000 0.0000 60.8193 0.0000 0.0000
# 5 0.0000 0.0000 0.0000 0.0000 41.2459 0.0000
# 6 0.0000 0.0000 0.0000 0.0000 0.0000 82.1338
#
#
#
# Elastic Compliance Matrix: (Units=1/GPa)
#
#
# Indices 1 2 3 4 5 6 
#
# 1 0.009601 -0.003982 -0.004000 0.000000 0.000000 0.000000
# 2 -0.003982 0.014709 -0.004690 0.000000 0.000000 0.000000
# 3 -0.004000 -0.004690 0.014623 0.000000 0.000000 0.000000
# 4 0.000000 0.000000 0.000000 0.016442 0.000000 0.000000
# 5 0.000000 0.000000 0.000000 0.000000 0.024245 0.000000
# 6 0.000000 0.000000 0.000000 0.000000 0.000000 0.012175
#
#
# Mechanical properties :
#
#
# Convention : Reuss Voigt Hill
#
# Bulk Modulus (GPa) = 73.57674 78.45194 76.01434
# Shear Modulus (GPa) = 41.09541 49.09229 45.09385
#
# Velocity S-wave (km/s) = 4.74307 5.18406 4.96846
# Velocity P-wave (km/s) = 8.38293 8.87577 8.63287
#
# Compressibility (1/GPa) = 0.01359125
#
# Stress axis : x y z
#
# Youngs Moduli (GPa) = 104.15128 67.98552 68.38580
#
# Poissons Ratio (x) = 0.27070 0.27351
# Poissons Ratio (y) = 0.41471 0.32071
# Poissons Ratio (z) = 0.41656 0.31883
#
# Static dielectric constant tensor:
#      x y z
#    x 1.604090 0.000000 0.000000 
#    y 0.000000 1.644820 0.000000 
#    z 0.000000 0.000000 1.646170 
# 
# From -- ./inp_files/8076.got.cif
#   From: 2010.05.17/outbox.cif.g08.bks.cpg/sg40_5_cif.got.tgz:8076.got - 2010.06.03 18:35:42.
