data_PCOD9365783
_publ_section_title
;
Structure prediction by ZEFSAII (Michael W. Deem and Ramdas Pophale) SiO2 
 PCOD9365783
Probable space group: A B A 2
;
_chemical_formula_sum "Si O2"
_cell_formula_units_Z 60
_cell_length_a 15.468240
_cell_length_b 10.035589
_cell_length_c 17.696884
_cell_angle_alpha 90.000000
_cell_angle_beta 90.000000
_cell_angle_gamma 90.000000
_cell_volume 2747.138610
_symmetry_space_group_name_H-M "A B A 2"
_symmetry_group_IT_number 41
_symmetry_cell_setting 'orthorhombic'
loop_
_space_group_symop_operation_xyz
x,y,z
-x,-y,z
1/2-x,y,1/2+z
1/2+x,-y,1/2+z
x,1/2+y,1/2+z
-x,1/2-y,1/2+z
1/2-x,1/2+y,z
1/2+x,1/2-y,z
loop_
_atom_site_type_symbol
_atom_site_label
_atom_site_fract_x
_atom_site_fract_y
_atom_site_fract_z
Si Si1 0.839337 0.456640 0.565250
Si Si2 0.092624 0.430744 0.928221
Si Si3 0.271917 0.078872 0.274965
Si Si4 0.824357 0.797878 0.405197
Si Si5 0.596404 0.536293 0.899321
Si Si6 0.291811 0.317344 0.534853
Si Si7 0.500000 0.500000 0.172636
Si Si8 0.637176 0.657258 0.260732
O O1 0.874318 0.471130 0.478832
O O2 0.767642 0.571659 0.572256
O O3 0.794581 0.316693 0.581464
O O4 0.921749 0.460359 0.618465
O O5 0.157384 0.556494 0.936472
O O6 0.117338 0.353011 0.851316
O O7 0.000000 0.500000 0.921005
O O8 0.112117 0.353531 0.005801
O O9 0.206340 0.174592 0.321034
O O10 0.335202 0.007980 0.335928
O O11 0.330892 0.194889 0.236499
O O12 0.210214 0.958880 0.244532
O O13 0.903034 0.696362 0.407699
O O14 0.754884 0.723459 0.456412
O O15 0.500000 0.500000 0.878512
O O16 0.546536 0.612574 0.223198
#
# Coordination Sequence:
#
# PCOD9365783 Si02
#       8
#     8   8   8   8   8   8   4   8
#     4  11  23  42  64  90 128 169 217 256 316 384
#     4  11  21  33  61 100 129 158 202 269 332 371
#     4  11  20  40  66  93 124 163 203 273 329 379
#     4  10  18  32  58  96 128 156 190 252 342 384
#     4  11  21  33  61 100 129 158 202 269 332 371
#     4  11  20  40  66  93 124 163 203 273 329 379
#     4  12  28  44  64  90 126 188 220 252 304 392
#     4  11  23  42  64  90 128 169 217 256 316 384
#
# _framework density 21.840907999999999
#
# number of rings (size 3 to 8) (size 9 to 14) (size 15 to 20)
#    0.000    1.067    6.667    1.600    3.733    1.067 
#    0.000    0.000    0.000    1.600    0.000    0.000 
#    0.000    0.000    0.000    0.000    0.000    0.000 
#
# Total GULP energy -167338.641022 kJ/mol
# GULP energy per Si atom -5577.954701 kJ/mol
# Density = 2.179120 g / cm^3
# Si number density = 21.840908 Si / 1000 Ang^3
#
#
#
# Elastic Constant Matrix: (Units=GPa)
#
#
# Indices 1 2 3 4 5 6 
#
# 1 80.3487 17.3937 33.4968 0.0000 0.0000 0.0000
# 2 17.3937 102.1198 18.7210 0.0000 0.0000 0.0000
# 3 33.4968 18.7210 59.1359 0.0000 0.0000 0.0000
# 4 0.0000 0.0000 0.0000 -7.5944 0.0000 0.0000
# 5 0.0000 0.0000 0.0000 0.0000 79.5448 0.0000
# 6 0.0000 0.0000 0.0000 0.0000 0.0000 16.4692
#
#
#
# Elastic Compliance Matrix: (Units=1/GPa)
#
#
# Indices 1 2 3 4 5 6 
#
# 1 0.016422 -0.001159 -0.008935 0.000000 0.000000 0.000000
# 2 -0.001159 0.010478 -0.002660 0.000000 0.000000 0.000000
# 3 -0.008935 -0.002660 0.022813 0.000000 0.000000 0.000000
# 4 0.000000 0.000000 0.000000 -0.131677 0.000000 0.000000
# 5 0.000000 0.000000 0.000000 0.000000 0.012572 0.000000
# 6 0.000000 0.000000 0.000000 0.000000 0.000000 0.060719
#
#
# Mechanical properties :
#
#
# Convention : Reuss Voigt Hill
#
# Bulk Modulus (GPa) = 41.31561 42.31416 41.81489
# Shear Modulus (GPa) = 200.77562 29.15011 114.96287
#
# Velocity S-wave (km/s) = 9.59823 3.65726 7.26297
# Velocity P-wave (km/s) = 11.90766 6.10327 9.46156
#
# Compressibility (1/GPa) = 0.02420393
#
# Stress axis : x y z
#
# Youngs Moduli (GPa) = 60.89564 95.44213 43.83374
#
# Poissons Ratio (x) = 0.11062 0.39165
# Poissons Ratio (y) = 0.07058 0.11662
# Poissons Ratio (z) = 0.54409 0.25392
#
# Static dielectric constant tensor:
#      x y z
#    x 1.560290 0.000000 0.000000 
#    y 0.000000 1.870930 0.000000 
#    z 0.000000 0.000000 1.834340 
# 
# From -- ./inp_files/10367.got.cif
#   From: 2010.05.17/outbox.cif.g08.bks.cpg/sg41_6_cif.got.tgz:10367.got - 2010.06.03 18:54:24.
