data_PCOD9365527
_publ_section_title
;
Structure prediction by ZEFSAII (Michael W. Deem and Ramdas Pophale) SiO2 
 PCOD9365527
Probable space group: A M A 2
;
_chemical_formula_sum "Si O2"
_cell_formula_units_Z 40
_cell_length_a 14.821132
_cell_length_b 14.087339
_cell_length_c 9.317818
_cell_angle_alpha 90.000000
_cell_angle_beta 90.000000
_cell_angle_gamma 90.000000
_cell_volume 1945.470117
_symmetry_space_group_name_H-M "A M A 2"
_symmetry_group_IT_number 40
_symmetry_cell_setting 'orthorhombic'
loop_
_space_group_symop_operation_xyz
x,y,z
-x,-y,z
1/2-x,y,z
1/2+x,-y,z
x,1/2+y,1/2+z
-x,1/2-y,1/2+z
1/2-x,1/2+y,1/2+z
1/2+x,1/2-y,1/2+z
loop_
_atom_site_type_symbol
_atom_site_label
_atom_site_fract_x
_atom_site_fract_y
_atom_site_fract_z
Si Si1 0.397566 0.771839 0.212750
Si Si2 0.250000 0.266243 0.477969
Si Si3 0.085229 0.058932 0.806080
Si Si4 0.558044 0.907090 0.145793
Si Si5 0.250000 0.367888 0.905987
Si Si6 0.250000 0.920899 0.737254
Si Si7 0.750000 0.416448 0.800285
O O1 0.404159 0.659443 0.229925
O O2 0.494503 0.819799 0.191912
O O3 0.338402 0.813825 0.344632
O O4 0.336862 0.792097 0.072929
O O5 0.250000 0.329315 0.337516
O O6 0.250000 0.156023 0.433883
O O7 0.166948 0.988717 0.775801
O O8 0.071782 0.082451 0.974792
O O9 0.000000 0.000000 0.753372
O O10 0.657072 0.900083 0.214106
O O11 0.500000 0.000000 0.192175
O O12 0.250000 0.473648 0.842483
O O13 0.250000 0.382626 0.075553
#
# Coordination Sequence:
#
# PCOD9365527 Si02
#       7
#     8   4   8   8   4   4   4
#     4  11  25  47  72 104 145 188 242 296 359 432
#     4  11  26  45  74 100 148 189 236 297 366 432
#     4  11  26  45  72 103 143 188 233 293 359 429
#     4  11  24  44  73 105 142 190 239 292 366 432
#     4  11  25  46  73 107 139 188 242 300 356 420
#     4  12  26  49  70 105 143 188 237 297 359 427
#     4  12  25  42  69 110 138 191 239 304 353 427
#
# _framework density 20.560583000000001
#
# number of rings (size 3 to 8) (size 9 to 14) (size 15 to 20)
#    0.000    0.800    2.000    5.400   11.200    0.000 
#    3.600    0.000    0.000    0.000    0.000    0.000 
#    0.000    0.000    0.000    0.000    0.000    0.000 
#
# Total GULP energy -111894.510946 kJ/mol
# GULP energy per Si atom -5594.725547 kJ/mol
# Density = 2.051379 g / cm^3
# Si number density = 20.560583 Si / 1000 Ang^3
#
#
#
# Elastic Constant Matrix: (Units=GPa)
#
#
# Indices 1 2 3 4 5 6 
#
# 1 165.8887 38.2635 34.2102 0.0000 0.0000 0.0000
# 2 38.2635 106.0448 21.5442 0.0000 0.0000 0.0000
# 3 34.2102 21.5442 69.8008 0.0000 0.0000 0.0000
# 4 0.0000 0.0000 0.0000 33.4459 0.0000 0.0000
# 5 0.0000 0.0000 0.0000 0.0000 15.0970 0.0000
# 6 0.0000 0.0000 0.0000 0.0000 0.0000 38.7266
#
#
#
# Elastic Compliance Matrix: (Units=1/GPa)
#
#
# Indices 1 2 3 4 5 6 
#
# 1 0.007072 -0.001971 -0.002858 0.000000 0.000000 0.000000
# 2 -0.001971 0.010610 -0.002309 0.000000 0.000000 0.000000
# 3 -0.002858 -0.002309 0.016440 0.000000 0.000000 0.000000
# 4 0.000000 0.000000 0.000000 0.029899 0.000000 0.000000
# 5 0.000000 0.000000 0.000000 0.000000 0.066238 0.000000
# 6 0.000000 0.000000 0.000000 0.000000 0.000000 0.025822
#
#
# Mechanical properties :
#
#
# Convention : Reuss Voigt Hill
#
# Bulk Modulus (GPa) = 50.38619 58.86333 54.62476
# Shear Modulus (GPa) = 28.25296 33.96832 31.11064
#
# Velocity S-wave (km/s) = 3.71095 4.06902 3.89410
# Velocity P-wave (km/s) = 6.55141 7.12512 6.84428
#
# Compressibility (1/GPa) = 0.01984671
#
# Stress axis : x y z
#
# Youngs Moduli (GPa) = 141.39976 94.24811 60.82834
#
# Poissons Ratio (x) = 0.18578 0.17383
# Poissons Ratio (y) = 0.27873 0.14044
# Poissons Ratio (z) = 0.40408 0.21760
#
# Static dielectric constant tensor:
#      x y z
#    x 1.676820 0.000000 0.000000 
#    y 0.000000 1.697280 0.000000 
#    z 0.000000 0.000000 1.721470 
# 
# From -- ./inp_files/6193.got.cif
#   From: 2010.05.17/outbox.cif.g08.bks.cpg/sg40_4_cif.got.tgz:6193.got - 2010.06.03 18:35:42.
