data_PCOD9365524
_publ_section_title
;
Structure prediction by ZEFSAII (Michael W. Deem and Ramdas Pophale) SiO2 
 PCOD9365524
Probable space group: A M A 2
;
_chemical_formula_sum "Si O2"
_cell_formula_units_Z 64
_cell_length_a 30.080079
_cell_length_b 11.463978
_cell_length_c 8.875814
_cell_angle_alpha 90.000000
_cell_angle_beta 90.000000
_cell_angle_gamma 90.000000
_cell_volume 3060.712302
_symmetry_space_group_name_H-M "A M A 2"
_symmetry_group_IT_number 40
_symmetry_cell_setting 'orthorhombic'
loop_
_space_group_symop_operation_xyz
x,y,z
-x,-y,z
1/2-x,y,z
1/2+x,-y,z
x,1/2+y,1/2+z
-x,1/2-y,1/2+z
1/2-x,1/2+y,1/2+z
1/2+x,1/2-y,1/2+z
loop_
_atom_site_type_symbol
_atom_site_label
_atom_site_fract_x
_atom_site_fract_y
_atom_site_fract_z
Si Si1 0.619454 0.581823 0.510220
Si Si2 0.340434 0.559371 0.072655
Si Si3 0.539031 0.187741 0.465850
Si Si4 0.700401 0.238422 0.912307
Si Si5 0.802453 0.692961 0.079073
Si Si6 0.871828 0.825779 0.875247
Si Si7 0.585765 0.487764 0.820815
Si Si8 0.549952 0.229711 0.810932
O O1 0.664621 0.653154 0.486346
O O2 0.626699 0.451002 0.454427
O O3 0.603618 0.563688 0.681090
O O4 0.583113 0.649135 0.407793
O O5 0.319019 0.437219 0.120257
O O6 0.362661 0.637554 0.203079
O O7 0.303482 0.639733 0.996865
O O8 0.377064 0.527394 0.948462
O O9 0.581938 0.261399 0.410221
O O10 0.545895 0.061376 0.392776
O O11 0.539952 0.178033 0.646448
O O12 0.494634 0.248725 0.406230
O O13 0.750000 0.189107 0.920109
O O14 0.690020 0.260428 0.736267
O O15 0.750000 0.693980 0.042241
O O16 0.832459 0.748348 0.948066
O O17 0.571263 0.357062 0.779368
#
# Coordination Sequence:
#
# PCOD9365524 Si02
#       8
#     8   8   8   8   8   8   8   8
#     4  12  24  47  74  98 142 190 225 286 354 411
#     4  12  24  44  73  99 137 183 231 285 347 415
#     4  12  26  47  71 104 138 185 230 294 347 418
#     4  11  24  44  70 102 138 179 231 285 343 413
#     4  11  25  46  70 101 140 181 229 288 346 412
#     4  12  25  45  73  99 140 184 231 280 354 413
#     4  12  25  46  73  99 137 185 230 288 348 416
#     4  12  27  47  70 102 144 177 239 288 349 418
#
# _framework density 20.910164999999999
#
# number of rings (size 3 to 8) (size 9 to 14) (size 15 to 20)
#    0.000    0.250    5.000    4.500    1.750    2.000 
#    2.250    0.625    0.000    0.000    0.000    0.000 
#    0.000    0.000    0.000    0.000    0.000    0.000 
#
# Total GULP energy -179038.621037 kJ/mol
# GULP energy per Si atom -5594.956907 kJ/mol
# Density = 2.086257 g / cm^3
# Si number density = 20.910165 Si / 1000 Ang^3
#
#
#
# Elastic Constant Matrix: (Units=GPa)
#
#
# Indices 1 2 3 4 5 6 
#
# 1 127.7979 24.1206 49.4418 0.0000 0.0000 0.0000
# 2 24.1206 68.7542 21.0842 0.0000 0.0000 0.0000
# 3 49.4418 21.0842 148.6541 0.0000 0.0000 0.0000
# 4 0.0000 0.0000 0.0000 31.7717 0.0000 0.0000
# 5 0.0000 0.0000 0.0000 0.0000 26.7053 0.0000
# 6 0.0000 0.0000 0.0000 0.0000 0.0000 16.1314
#
#
#
# Elastic Compliance Matrix: (Units=1/GPa)
#
#
# Indices 1 2 3 4 5 6 
#
# 1 0.009354 -0.002433 -0.002766 0.000000 0.000000 0.000000
# 2 -0.002433 0.015839 -0.001437 0.000000 0.000000 0.000000
# 3 -0.002766 -0.001437 0.007851 0.000000 0.000000 0.000000
# 4 0.000000 0.000000 0.000000 0.031475 0.000000 0.000000
# 5 0.000000 0.000000 0.000000 0.000000 0.037446 0.000000
# 6 0.000000 0.000000 0.000000 0.000000 0.000000 0.061991
#
#
# Mechanical properties :
#
#
# Convention : Reuss Voigt Hill
#
# Bulk Modulus (GPa) = 50.57966 59.38882 54.98424
# Shear Modulus (GPa) = 27.20066 31.62564 29.41315
#
# Velocity S-wave (km/s) = 3.61062 3.89325 3.75459
# Velocity P-wave (km/s) = 6.45164 6.97663 6.71926
#
# Compressibility (1/GPa) = 0.01977079
#
# Stress axis : x y z
#
# Youngs Moduli (GPa) = 106.90313 63.13528 127.37493
#
# Poissons Ratio (x) = 0.15364 0.35232
# Poissons Ratio (y) = 0.26015 0.18306
# Poissons Ratio (z) = 0.29570 0.09073
#
# Static dielectric constant tensor:
#      x y z
#    x 1.729460 0.000000 0.000000 
#    y 0.000000 1.753670 0.000000 
#    z 0.000000 0.000000 1.775960 
# 
# From -- ./inp_files/9445.got.cif
#   From: 2010.05.17/outbox.cif.g08.bks.cpg/sg40_5_cif.got.tgz:9445.got - 2010.06.03 18:35:42.
