data_PCOD9365189
_publ_section_title
;
Structure prediction by ZEFSAII (Michael W. Deem and Ramdas Pophale) SiO2 
 PCOD9365189
Probable space group: A M A 2
;
_chemical_formula_sum "Si O2"
_cell_formula_units_Z 56
_cell_length_a 21.959566
_cell_length_b 10.274876
_cell_length_c 11.149542
_cell_angle_alpha 90.000000
_cell_angle_beta 90.000000
_cell_angle_gamma 90.000000
_cell_volume 2515.691428
_symmetry_space_group_name_H-M "A M A 2"
_symmetry_group_IT_number 40
_symmetry_cell_setting 'orthorhombic'
loop_
_space_group_symop_operation_xyz
x,y,z
-x,-y,z
1/2-x,y,z
1/2+x,-y,z
x,1/2+y,1/2+z
-x,1/2-y,1/2+z
1/2-x,1/2+y,1/2+z
1/2+x,1/2-y,1/2+z
loop_
_atom_site_type_symbol
_atom_site_label
_atom_site_fract_x
_atom_site_fract_y
_atom_site_fract_z
Si Si1 0.680797 0.470132 0.198940
Si Si2 0.678925 0.855622 0.458980
Si Si3 0.316976 0.753958 0.562751
Si Si4 0.930532 0.106164 0.146709
Si Si5 0.559011 0.315117 0.692727
Si Si6 0.608765 0.113183 0.881516
Si Si7 0.680640 0.110463 0.307538
O O1 0.750000 0.426818 0.231653
O O2 0.651386 0.392862 0.087474
O O3 0.686949 0.614393 0.141451
O O4 0.636644 0.491633 0.310782
O O5 0.750000 0.867296 0.481099
O O6 0.662661 0.713213 0.416269
O O7 0.666494 0.965913 0.359926
O O8 0.250000 0.686183 0.580389
O O9 0.381397 0.696830 0.606428
O O10 0.321004 0.797797 0.424651
O O11 0.868483 0.151950 0.210132
O O12 0.988988 0.200433 0.150694
O O13 0.941096 0.969732 0.216375
O O14 0.921759 0.076125 0.006212
O O15 0.568866 0.207986 0.796463
O O16 0.750000 0.109369 0.260733
#
# Coordination Sequence:
#
# PCOD9365189 Si02
#       7
#     8   8   8   8   8   8   8
#     4   8  16  32  56  88 119 148 194 243 292 360
#     4   9  17  34  61  89 119 154 192 247 304 352
#     4   8  16  34  62  86 113 159 199 241 303 352
#     4  11  24  39  58  90 120 154 206 247 295 366
#     4  10  23  42  59  85 122 159 197 254 299 355
#     4  11  21  38  61  83 113 163 198 241 304 351
#     4   9  18  35  60  90 122 153 199 253 295 357
#
# _framework density 22.260282
#
# number of rings (size 3 to 8) (size 9 to 14) (size 15 to 20)
#    0.000    2.571    1.429    2.143    2.000    2.286 
#    2.571    0.000    0.000    0.000    0.000    0.000 
#    0.000    0.000    0.000    0.000    0.000    0.000 
#
# Total GULP energy -156002.724678 kJ/mol
# GULP energy per Si atom -5571.525881 kJ/mol
# Density = 2.220962 g / cm^3
# Si number density = 22.260282 Si / 1000 Ang^3
#
#
#
# Elastic Constant Matrix: (Units=GPa)
#
#
# Indices 1 2 3 4 5 6 
#
# 1 111.8169 -6.1773 41.8856 0.0000 0.0000 0.0000
# 2 -6.1773 39.9586 -9.9270 0.0000 0.0000 0.0000
# 3 41.8856 -9.9270 75.4061 0.0000 0.0000 0.0000
# 4 0.0000 0.0000 0.0000 -23.1161 0.0000 0.0000
# 5 0.0000 0.0000 0.0000 0.0000 -10.9277 0.0000
# 6 0.0000 0.0000 0.0000 0.0000 0.0000 -43.9017
#
#
#
# Elastic Compliance Matrix: (Units=1/GPa)
#
#
# Indices 1 2 3 4 5 6 
#
# 1 0.011294 0.000194 -0.006248 0.000000 0.000000 0.000000
# 2 0.000194 0.025875 0.003299 0.000000 0.000000 0.000000
# 3 -0.006248 0.003299 0.017166 0.000000 0.000000 0.000000
# 4 0.000000 0.000000 0.000000 -0.043260 0.000000 0.000000
# 5 0.000000 0.000000 0.000000 0.000000 -0.091511 0.000000
# 6 0.000000 0.000000 0.000000 0.000000 0.000000 -0.022778
#
#
# Mechanical properties :
#
#
# Convention : Reuss Voigt Hill
#
# Bulk Modulus (GPa) = 20.48130 30.97159 25.72645
# Shear Modulus (GPa) = -61.40513 -2.16241 -31.78377
#
# Velocity S-wave (km/s) = -5.25785 -0.98668 -3.78276
# Velocity P-wave (km/s) = 5.25729 3.55606 2.73803
#
# Compressibility (1/GPa) = 0.04882502
#
# Stress axis : x y z
#
# Youngs Moduli (GPa) = 88.53949 38.64679 58.25322
#
# Poissons Ratio (x) = -0.00749 0.36397
# Poissons Ratio (y) = -0.01716 -0.19216
# Poissons Ratio (z) = 0.55321 -0.12749
#
# Static dielectric constant tensor:
#      x y z
#    x 1.899780 0.000000 0.000000 
#    y 0.000000 1.871790 0.000000 
#    z 0.000000 0.000000 1.869930 
# 
# From -- ./inp_files/13557.got.cif
#   From: 2010.05.17/outbox.cif.g08.bks.cpg/sg40_7_cif.got.tgz:13557.got - 2010.06.03 18:35:42.
