data_PCOD9365601
_publ_section_title
;
Structure prediction by ZEFSAII (Michael W. Deem and Ramdas Pophale) SiO2 
 PCOD9365601
Probable space group: A M A 2
;
_chemical_formula_sum "Si O2"
_cell_formula_units_Z 48
_cell_length_a 14.784545
_cell_length_b 14.882712
_cell_length_c 7.968894
_cell_angle_alpha 90.000000
_cell_angle_beta 90.000000
_cell_angle_gamma 90.000000
_cell_volume 1753.428621
_symmetry_space_group_name_H-M "A M A 2"
_symmetry_group_IT_number 40
_symmetry_cell_setting 'orthorhombic'
loop_
_space_group_symop_operation_xyz
x,y,z
-x,-y,z
1/2-x,y,z
1/2+x,-y,z
x,1/2+y,1/2+z
-x,1/2-y,1/2+z
1/2-x,1/2+y,1/2+z
1/2+x,1/2-y,1/2+z
loop_
_atom_site_type_symbol
_atom_site_label
_atom_site_fract_x
_atom_site_fract_y
_atom_site_fract_z
Si Si1 0.912781 0.092842 0.796460
Si Si2 0.361076 0.508386 0.949613
Si Si3 0.148392 0.688866 0.063143
Si Si4 0.354908 0.747861 0.602509
Si Si5 0.360831 0.344919 0.762151
Si Si6 0.618667 0.916373 0.907307
O O1 0.893229 0.196774 0.757433
O O2 0.012865 0.088854 0.867250
O O3 0.898377 0.042982 0.615034
O O4 0.855609 0.021835 0.908415
O O5 0.250000 0.509122 0.961221
O O6 0.394838 0.610641 0.952590
O O7 0.386953 0.447216 0.792216
O O8 0.250000 0.705388 0.997481
O O9 0.104111 0.783564 0.111058
O O10 0.157882 0.636507 0.244117
O O11 0.250000 0.771658 0.606009
O O12 0.390656 0.792854 0.430931
O O13 0.361278 0.641959 0.571130
O O14 0.250000 0.340604 0.752936
#
# Coordination Sequence:
#
# PCOD9365601 Si02
#       6
#     8   8   8   8   8   8
#     4   9  16  25  39  64  98 129 163 210 259 305
#     4   8  12  18  29  46  71 104 139 176 219 268
#     4   8  12  18  29  46  71 104 139 176 219 268
#     4   9  16  26  42  66  97 133 171 209 252 308
#     4   7  10  16  26  42  66  97 133 171 209 252
#     4   9  16  25  39  64  98 129 163 210 259 305
#
# _framework density 27.374938
#
# number of rings (size 3 to 8) (size 9 to 14) (size 15 to 20)
#    0.000    3.667    0.000    3.000    0.000    2.000 
#    0.000    0.000    0.000    0.000    0.000    9.333 
#    0.000   10.667    0.000    0.000    0.000    0.000 
#
# Total GULP energy -134009.206235 kJ/mol
# GULP energy per Si atom -5583.716926 kJ/mol
# Density = 2.731263 g / cm^3
# Si number density = 27.374938 Si / 1000 Ang^3
#
#
#
# Elastic Constant Matrix: (Units=GPa)
#
#
# Indices 1 2 3 4 5 6 
#
# 1 84.2631 5.5257 -2.8034 0.0000 0.0000 0.0000
# 2 5.5257 195.1576 50.2213 0.0000 0.0000 0.0000
# 3 -2.8034 50.2213 133.1903 0.0000 0.0000 0.0000
# 4 0.0000 0.0000 0.0000 51.7668 0.0000 0.0000
# 5 0.0000 0.0000 0.0000 0.0000 -0.2533 0.0000
# 6 0.0000 0.0000 0.0000 0.0000 0.0000 20.3707
#
#
#
# Elastic Compliance Matrix: (Units=1/GPa)
#
#
# Indices 1 2 3 4 5 6 
#
# 1 0.011911 -0.000445 0.000418 0.000000 0.000000 0.000000
# 2 -0.000445 0.005691 -0.002155 0.000000 0.000000 0.000000
# 3 0.000418 -0.002155 0.008330 0.000000 0.000000 0.000000
# 4 0.000000 0.000000 0.000000 0.019317 0.000000 0.000000
# 5 0.000000 0.000000 0.000000 0.000000 -3.948608 0.000000
# 6 0.000000 0.000000 0.000000 0.000000 0.000000 0.049090
#
#
# Mechanical properties :
#
#
# Convention : Reuss Voigt Hill
#
# Bulk Modulus (GPa) = 46.36512 57.61090 51.98801
# Shear Modulus (GPa) = -1.30116 38.35467 18.52675
#
# Velocity S-wave (km/s) = -0.69018 3.74717 2.60432
# Velocity P-wave (km/s) = 4.04212 6.30972 5.29864
#
# Compressibility (1/GPa) = 0.02156794
#
# Stress axis : x y z
#
# Youngs Moduli (GPa) = 83.95820 175.70634 120.05418
#
# Poissons Ratio (x) = 0.07818 -0.05024
# Poissons Ratio (y) = 0.03736 0.25876
# Poissons Ratio (z) = -0.03513 0.37871
#
# Static dielectric constant tensor:
#      x y z
#    x 2.078780 0.000000 0.000000 
#    y 0.000000 2.251350 0.000000 
#    z 0.000000 0.000000 2.139820 
# 
# From -- ./inp_files/12990.got.cif
#   From: 2010.05.17/outbox.cif.g08.bks.cpg/sg40_7_cif.got.tgz:12990.got - 2010.06.03 18:35:42.
