data_PCOD9365468
_publ_section_title
;
Structure prediction by ZEFSAII (Michael W. Deem and Ramdas Pophale) SiO2 
 PCOD9365468
Probable space group: A M A 2
;
_chemical_formula_sum "Si O2"
_cell_formula_units_Z 28
_cell_length_a 14.841532
_cell_length_b 9.628479
_cell_length_c 7.161508
_cell_angle_alpha 90.000000
_cell_angle_beta 90.000000
_cell_angle_gamma 90.000000
_cell_volume 1023.389370
_symmetry_space_group_name_H-M "A M A 2"
_symmetry_group_IT_number 40
_symmetry_cell_setting 'orthorhombic'
loop_
_space_group_symop_operation_xyz
x,y,z
-x,-y,z
1/2-x,y,z
1/2+x,-y,z
x,1/2+y,1/2+z
-x,1/2-y,1/2+z
1/2-x,1/2+y,1/2+z
1/2+x,1/2-y,1/2+z
loop_
_atom_site_type_symbol
_atom_site_label
_atom_site_fract_x
_atom_site_fract_y
_atom_site_fract_z
Si Si1 0.554473 0.140430 0.667490
Si Si2 0.750000 0.180227 0.732273
Si Si3 0.750000 0.441455 0.676331
Si Si4 0.399132 0.839089 0.236926
Si Si5 0.750000 0.866213 0.603287
O O1 0.642561 0.166178 0.793580
O O2 0.584939 0.123845 0.452961
O O3 0.495237 0.281907 0.669047
O O4 0.500000 0.000000 0.721794
O O5 0.750000 0.298725 0.565699
O O6 0.750000 0.026242 0.639948
O O7 0.661416 0.532549 0.661932
O O8 0.750000 0.354087 0.875472
O O9 0.335885 0.708640 0.188303
#
# Coordination Sequence:
#
# PCOD9365468 Si02
#       5
#     8   4   4   8   4
#     4  12  26  49  74 108 154 195 249 312 375 439
#     4  12  25  46  73 105 147 195 242 305 372 438
#     4  11  25  49  76 107 149 195 248 311 377 443
#     4  11  25  48  75 105 149 198 246 311 374 440
#     4  11  22  53  73 102 150 196 246 306 371 441
#
# _framework density 27.360064999999999
#
# number of rings (size 3 to 8) (size 9 to 14) (size 15 to 20)
#    0.000    0.571    5.714    0.857    8.000    0.000 
#   15.429    0.000    0.000    0.000    0.000    0.000 
#    0.000    0.000    0.000    0.000    0.000    0.000 
#
# Total GULP energy -78230.234064 kJ/mol
# GULP energy per Si atom -5587.873862 kJ/mol
# Density = 2.729779 g / cm^3
# Si number density = 27.360065 Si / 1000 Ang^3
#
#
#
# Elastic Constant Matrix: (Units=GPa)
#
#
# Indices 1 2 3 4 5 6 
#
# 1 219.0879 102.9311 25.3290 0.0000 0.0000 0.0000
# 2 102.9311 241.8790 30.1487 0.0000 0.0000 0.0000
# 3 25.3290 30.1487 70.0089 0.0000 0.0000 0.0000
# 4 0.0000 0.0000 0.0000 14.5114 0.0000 0.0000
# 5 0.0000 0.0000 0.0000 0.0000 20.4800 0.0000
# 6 0.0000 0.0000 0.0000 0.0000 0.0000 67.2119
#
#
#
# Elastic Compliance Matrix: (Units=1/GPa)
#
#
# Indices 1 2 3 4 5 6 
#
# 1 0.005783 -0.002325 -0.001091 0.000000 0.000000 0.000000
# 2 -0.002325 0.005303 -0.001443 0.000000 0.000000 0.000000
# 3 -0.001091 -0.001443 0.015300 0.000000 0.000000 0.000000
# 4 0.000000 0.000000 0.000000 0.068911 0.000000 0.000000
# 5 0.000000 0.000000 0.000000 0.000000 0.048828 0.000000
# 6 0.000000 0.000000 0.000000 0.000000 0.000000 0.014878
#
#
# Mechanical properties :
#
#
# Convention : Reuss Voigt Hill
#
# Bulk Modulus (GPa) = 59.99193 94.19927 77.09560
# Shear Modulus (GPa) = 28.68988 45.27846 36.98417
#
# Velocity S-wave (km/s) = 3.24173 4.07247 3.68061
# Velocity P-wave (km/s) = 5.99885 7.52447 6.80455
#
# Compressibility (1/GPa) = 0.01666891
#
# Stress axis : x y z
#
# Youngs Moduli (GPa) = 172.92758 188.55587 65.35978
#
# Poissons Ratio (x) = 0.43837 0.07131
# Poissons Ratio (y) = 0.40203 0.09430
# Poissons Ratio (z) = 0.18867 0.27204
#
# Static dielectric constant tensor:
#      x y z
#    x 2.175240 0.000000 0.000000 
#    y 0.000000 2.132390 0.000000 
#    z 0.000000 0.000000 2.254250 
# 
# From -- ./inp_files/5862.got.cif
#   From: 2010.05.17/outbox.cif.g08.bks.cpg/sg40_3_cif.got.tgz:5862.got - 2010.06.03 18:35:42.
