data_PCOD9365143
_publ_section_title
;
Structure prediction by ZEFSAII (Michael W. Deem and Ramdas Pophale) SiO2 
 PCOD9365143
Probable space group: A M A 2
;
_chemical_formula_sum "Si O2"
_cell_formula_units_Z 48
_cell_length_a 28.317983
_cell_length_b 13.414246
_cell_length_c 4.948735
_cell_angle_alpha 90.000000
_cell_angle_beta 90.000000
_cell_angle_gamma 90.000000
_cell_volume 1879.848203
_symmetry_space_group_name_H-M "A M A 2"
_symmetry_group_IT_number 40
_symmetry_cell_setting 'orthorhombic'
loop_
_space_group_symop_operation_xyz
x,y,z
-x,-y,z
1/2-x,y,z
1/2+x,-y,z
x,1/2+y,1/2+z
-x,1/2-y,1/2+z
1/2-x,1/2+y,1/2+z
1/2+x,1/2-y,1/2+z
loop_
_atom_site_type_symbol
_atom_site_label
_atom_site_fract_x
_atom_site_fract_y
_atom_site_fract_z
Si Si1 0.165457 0.512722 0.368310
Si Si2 0.013010 0.310346 0.341848
Si Si3 0.387653 0.753564 0.801068
Si Si4 0.750000 0.117301 0.604573
Si Si5 0.099994 0.519905 0.870508
Si Si6 0.500000 0.000000 0.147524
Si Si7 0.171028 0.247806 0.807127
O O1 0.208532 0.445256 0.270316
O O2 0.141552 0.491660 0.657372
O O3 0.181593 0.629707 0.353161
O O4 0.122419 0.500309 0.159985
O O5 0.068828 0.320891 0.381179
O O6 0.997123 0.220792 0.537816
O O7 0.988240 0.408087 0.450898
O O8 0.403501 0.639744 0.842576
O O9 0.375128 0.766628 0.489195
O O10 0.342325 0.764204 0.995364
O O11 0.790165 0.180319 0.429883
O O12 0.047537 0.479986 0.817527
#
# Coordination Sequence:
#
# PCOD9365143 Si02
#       7
#     8   8   8   4   8   4   8
#     4  10  25  45  68  99 145 178 234 303 366 428
#     4  12  27  45  71 108 148 191 243 303 355 435
#     4  10  22  47  67  96 144 185 233 294 360 427
#     4  12  26  44  74 104 132 182 244 302 370 444
#     4  10  24  46  68 103 144 191 232 297 367 431
#     4  12  28  44  78 108 152 196 254 298 370 442
#     4  10  24  43  70  96 133 184 230 291 365 436
#
# _framework density 25.533975000000002
#
# number of rings (size 3 to 8) (size 9 to 14) (size 15 to 20)
#    0.000    1.333    1.667    1.500    9.333    5.333 
#    0.000    5.000    0.000    0.000    0.000    0.000 
#    0.000    0.000    0.000    0.000    0.000    0.000 
#
# Total GULP energy -134058.141990 kJ/mol
# GULP energy per Si atom -5585.755916 kJ/mol
# Density = 2.547586 g / cm^3
# Si number density = 25.533975 Si / 1000 Ang^3
#
#
#
# Elastic Constant Matrix: (Units=GPa)
#
#
# Indices 1 2 3 4 5 6 
#
# 1 136.2041 55.0830 27.2795 0.0000 0.0000 0.0000
# 2 55.0830 101.9442 26.8287 0.0000 0.0000 0.0000
# 3 27.2795 26.8287 99.6000 0.0000 0.0000 0.0000
# 4 0.0000 0.0000 0.0000 37.9229 0.0000 0.0000
# 5 0.0000 0.0000 0.0000 0.0000 31.3144 0.0000
# 6 0.0000 0.0000 0.0000 0.0000 0.0000 20.9314
#
#
#
# Elastic Compliance Matrix: (Units=1/GPa)
#
#
# Indices 1 2 3 4 5 6 
#
# 1 0.009553 -0.004815 -0.001320 0.000000 0.000000 0.000000
# 2 -0.004815 0.012984 -0.002179 0.000000 0.000000 0.000000
# 3 -0.001320 -0.002179 0.010989 0.000000 0.000000 0.000000
# 4 0.000000 0.000000 0.000000 0.026369 0.000000 0.000000
# 5 0.000000 0.000000 0.000000 0.000000 0.031934 0.000000
# 6 0.000000 0.000000 0.000000 0.000000 0.000000 0.047775
#
#
# Mechanical properties :
#
#
# Convention : Reuss Voigt Hill
#
# Bulk Modulus (GPa) = 59.17225 61.79228 60.48226
# Shear Modulus (GPa) = 30.89012 33.27087 32.08049
#
# Velocity S-wave (km/s) = 3.48194 3.61363 3.54840
# Velocity P-wave (km/s) = 6.27610 6.45474 6.36605
#
# Compressibility (1/GPa) = 0.01689981
#
# Stress axis : x y z
#
# Youngs Moduli (GPa) = 104.67552 77.01705 91.00419
#
# Poissons Ratio (x) = 0.37081 0.12010
# Poissons Ratio (y) = 0.50397 0.19828
# Poissons Ratio (z) = 0.13814 0.16780
#
# Static dielectric constant tensor:
#      x y z
#    x 1.934740 0.000000 0.000000 
#    y 0.000000 2.082970 0.000000 
#    z 0.000000 0.000000 1.947950 
# 
# From -- ./inp_files/3123.got.cif
#   From: 2010.05.17/outbox.cif.g08.bks.cpg/sg40_2_cif.got.tgz:3123.got - 2010.06.03 18:35:42.
