data_PCOD9365447
_publ_section_title
;
Structure prediction by ZEFSAII (Michael W. Deem and Ramdas Pophale) SiO2 
 PCOD9365447
Probable space group: A M A 2
;
_chemical_formula_sum "Si O2"
_cell_formula_units_Z 48
_cell_length_a 22.225813
_cell_length_b 11.466246
_cell_length_c 9.226806
_cell_angle_alpha 90.000000
_cell_angle_beta 90.000000
_cell_angle_gamma 90.000000
_cell_volume 2351.420502
_symmetry_space_group_name_H-M "A M A 2"
_symmetry_group_IT_number 40
_symmetry_cell_setting 'orthorhombic'
loop_
_space_group_symop_operation_xyz
x,y,z
-x,-y,z
1/2-x,y,z
1/2+x,-y,z
x,1/2+y,1/2+z
-x,1/2-y,1/2+z
1/2-x,1/2+y,1/2+z
1/2+x,1/2-y,1/2+z
loop_
_atom_site_type_symbol
_atom_site_label
_atom_site_fract_x
_atom_site_fract_y
_atom_site_fract_z
Si Si1 0.024953 0.885677 0.411520
Si Si2 0.815127 0.163509 0.139217
Si Si3 0.599613 0.258466 0.898353
Si Si4 0.178695 0.113149 0.165646
Si Si5 0.374326 0.695830 0.359724
Si Si6 0.066906 0.970907 0.723139
O O1 0.071190 0.790066 0.351635
O O2 0.057562 0.940802 0.553249
O O3 0.963844 0.814877 0.442152
O O4 0.000000 0.000000 0.324698
O O5 0.750000 0.179894 0.068788
O O6 0.819553 0.236077 0.286356
O O7 0.823931 0.026857 0.163330
O O8 0.866172 0.214889 0.038555
O O9 0.642437 0.342932 0.805594
O O10 0.588787 0.146086 0.798517
O O11 0.250000 0.146248 0.166325
O O12 0.144288 0.160564 0.022530
O O13 0.392064 0.579944 0.269310
O O14 0.000000 0.000000 0.778908
#
# Coordination Sequence:
#
# PCOD9365447 Si02
#       6
#     8   8   8   8   8   8
#     4  11  24  41  66 100 133 166 213 269 330 396
#     4  11  25  43  65  94 129 175 222 269 325 388
#     4  12  23  43  69  95 135 173 214 275 333 384
#     4  11  25  45  67  96 131 177 231 274 323 390
#     4  12  23  44  70  96 135 173 219 274 333 389
#     4  11  22  41  66 100 132 170 212 264 331 400
#
# _framework density 20.413194000000001
#
# number of rings (size 3 to 8) (size 9 to 14) (size 15 to 20)
#    0.000    0.667    5.000    4.000    0.000    0.000 
#    0.000    0.000    0.000    0.000    0.000    0.000 
#    0.000    0.000    0.000    0.000    0.000    0.000 
#
# Total GULP energy -134030.989192 kJ/mol
# GULP energy per Si atom -5584.624550 kJ/mol
# Density = 2.036673 g / cm^3
# Si number density = 20.413194 Si / 1000 Ang^3
#
#
#
# Elastic Constant Matrix: (Units=GPa)
#
#
# Indices 1 2 3 4 5 6 
#
# 1 110.8793 42.3636 15.9389 0.0000 0.0000 0.0000
# 2 42.3636 100.6504 24.0641 0.0000 0.0000 0.0000
# 3 15.9389 24.0641 65.1082 0.0000 0.0000 0.0000
# 4 0.0000 0.0000 0.0000 17.2291 0.0000 0.0000
# 5 0.0000 0.0000 0.0000 0.0000 47.5709 0.0000
# 6 0.0000 0.0000 0.0000 0.0000 0.0000 32.7075
#
#
#
# Elastic Compliance Matrix: (Units=1/GPa)
#
#
# Indices 1 2 3 4 5 6 
#
# 1 0.010813 -0.004298 -0.001059 0.000000 0.000000 0.000000
# 2 -0.004298 0.012607 -0.003607 0.000000 0.000000 0.000000
# 3 -0.001059 -0.003607 0.016951 0.000000 0.000000 0.000000
# 4 0.000000 0.000000 0.000000 0.058041 0.000000 0.000000
# 5 0.000000 0.000000 0.000000 0.000000 0.021021 0.000000
# 6 0.000000 0.000000 0.000000 0.000000 0.000000 0.030574
#
#
# Mechanical properties :
#
#
# Convention : Reuss Voigt Hill
#
# Bulk Modulus (GPa) = 44.55628 49.04124 46.79876
# Shear Modulus (GPa) = 28.50345 32.45293 30.47819
#
# Velocity S-wave (km/s) = 3.74080 3.99156 3.86821
# Velocity P-wave (km/s) = 6.36653 6.73200 6.55181
#
# Compressibility (1/GPa) = 0.02244352
#
# Stress axis : x y z
#
# Youngs Moduli (GPa) = 92.47975 79.32145 58.99195
#
# Poissons Ratio (x) = 0.34094 0.06244
# Poissons Ratio (y) = 0.39749 0.21280
# Poissons Ratio (z) = 0.09789 0.28614
#
# Static dielectric constant tensor:
#      x y z
#    x 1.687730 0.000000 0.000000 
#    y 0.000000 1.755050 0.000000 
#    z 0.000000 0.000000 1.737580 
# 
# From -- ./inp_files/8756.got.cif
#   From: 2010.05.17/outbox.cif.g08.bks.cpg/sg40_5_cif.got.tgz:8756.got - 2010.06.03 18:35:42.
