data_PCOD9365735
_publ_section_title
;
Structure prediction by ZEFSAII (Michael W. Deem and Ramdas Pophale) SiO2 
 PCOD9365735
Probable space group: A B A 2
;
_chemical_formula_sum "Si O2"
_cell_formula_units_Z 60
_cell_length_a 14.870880
_cell_length_b 14.071342
_cell_length_c 12.558281
_cell_angle_alpha 90.000000
_cell_angle_beta 90.000000
_cell_angle_gamma 90.000000
_cell_volume 2627.860967
_symmetry_space_group_name_H-M "A B A 2"
_symmetry_group_IT_number 41
_symmetry_cell_setting 'orthorhombic'
loop_
_space_group_symop_operation_xyz
x,y,z
-x,-y,z
1/2-x,y,1/2+z
1/2+x,-y,1/2+z
x,1/2+y,1/2+z
-x,1/2-y,1/2+z
1/2-x,1/2+y,z
1/2+x,1/2-y,z
loop_
_atom_site_type_symbol
_atom_site_label
_atom_site_fract_x
_atom_site_fract_y
_atom_site_fract_z
Si Si1 0.842257 0.629323 0.701190
Si Si2 0.500000 0.000000 0.678055
Si Si3 0.351192 0.161087 0.156068
Si Si4 0.706706 0.453994 0.459975
Si Si5 0.934810 0.166658 0.671824
Si Si6 0.322941 0.988447 0.286277
Si Si7 0.910661 0.135663 0.440074
Si Si8 0.410184 0.655570 0.322808
O O1 0.818899 0.730570 0.651521
O O2 0.760328 0.558008 0.720629
O O3 0.870231 0.658099 0.823218
O O4 0.924582 0.576389 0.638871
O O5 0.562225 0.932576 0.749249
O O6 0.459375 0.164417 0.145555
O O7 0.340612 0.097917 0.261183
O O8 0.295992 0.097892 0.071674
O O9 0.790502 0.511881 0.410143
O O10 0.622025 0.527008 0.457601
O O11 0.682175 0.370210 0.377931
O O12 0.904286 0.073649 0.738367
O O13 0.888475 0.178817 0.555599
O O14 0.911921 0.252699 0.750107
O O15 0.014412 0.157481 0.414507
#
# Coordination Sequence:
#
# PCOD9365735 Si02
#       8
#     8   4   8   8   8   8   8   8
#     4  10  23  43  70 101 143 192 248 307 368 444
#     4  10  16  38  68  92 132 182 236 288 364 422
#     4  12  24  44  73 105 138 199 247 293 376 462
#     4  11  22  44  71  97 139 195 236 295 370 447
#     4  12  24  40  73 110 139 187 251 311 365 444
#     4  11  26  42  66 107 150 179 239 324 359 432
#     4  10  19  41  71  99 130 187 248 291 351 445
#     4  11  19  36  70 104 133 177 242 300 350 427
#
# _framework density 22.832257999999999
#
# number of rings (size 3 to 8) (size 9 to 14) (size 15 to 20)
#    0.000    1.067    9.333    0.400    1.867    0.000 
#    4.800    0.000    0.000    0.000    0.000    0.000 
#    0.000    0.000    0.000    0.000    0.000    0.000 
#
# Total GULP energy -167086.616742 kJ/mol
# GULP energy per Si atom -5569.553891 kJ/mol
# Density = 2.278029 g / cm^3
# Si number density = 22.832258 Si / 1000 Ang^3
#
#
#
# Elastic Constant Matrix: (Units=GPa)
#
#
# Indices 1 2 3 4 5 6 
#
# 1 48.1107 19.6001 20.0514 0.0000 0.0000 0.0000
# 2 19.6001 107.1681 36.4576 0.0000 0.0000 0.0000
# 3 20.0514 36.4576 75.3519 0.0000 0.0000 0.0000
# 4 0.0000 0.0000 0.0000 31.2624 0.0000 0.0000
# 5 0.0000 0.0000 0.0000 0.0000 12.5126 0.0000
# 6 0.0000 0.0000 0.0000 0.0000 0.0000 21.6186
#
#
#
# Elastic Compliance Matrix: (Units=1/GPa)
#
#
# Indices 1 2 3 4 5 6 
#
# 1 0.023992 -0.002653 -0.005101 0.000000 0.000000 0.000000
# 2 -0.002653 0.011463 -0.004840 0.000000 0.000000 0.000000
# 3 -0.005101 -0.004840 0.016970 0.000000 0.000000 0.000000
# 4 0.000000 0.000000 0.000000 0.031987 0.000000 0.000000
# 5 0.000000 0.000000 0.000000 0.000000 0.079919 0.000000
# 6 0.000000 0.000000 0.000000 0.000000 0.000000 0.046256
#
#
# Mechanical properties :
#
#
# Convention : Reuss Voigt Hill
#
# Bulk Modulus (GPa) = 36.71395 42.53877 39.62636
# Shear Modulus (GPa) = 20.42025 23.38018 21.90021
#
# Velocity S-wave (km/s) = 2.99383 3.20347 3.10042
# Velocity P-wave (km/s) = 5.29768 5.68809 5.49635
#
# Compressibility (1/GPa) = 0.02723760
#
# Stress axis : x y z
#
# Youngs Moduli (GPa) = 41.68056 87.23822 58.92656
#
# Poissons Ratio (x) = 0.23141 0.30058
# Poissons Ratio (y) = 0.11056 0.28522
# Poissons Ratio (z) = 0.21261 0.42225
#
# Static dielectric constant tensor:
#      x y z
#    x 1.949570 0.000000 0.000000 
#    y 0.000000 1.905280 0.000000 
#    z 0.000000 0.000000 1.898560 
# 
# From -- ./inp_files/6018.got.cif
#   From: 2010.05.17/outbox.cif.g08.bks.cpg/sg41_4_cif.got.tgz:6018.got - 2010.06.03 18:54:24.
