data_PCOD9365254
_publ_section_title
;
Structure prediction by ZEFSAII (Michael W. Deem and Ramdas Pophale) SiO2 
 PCOD9365254
Probable space group: A M A 2
;
_chemical_formula_sum "Si O2"
_cell_formula_units_Z 28
_cell_length_a 10.520677
_cell_length_b 12.178721
_cell_length_c 7.862976
_cell_angle_alpha 90.000000
_cell_angle_beta 90.000000
_cell_angle_gamma 90.000000
_cell_volume 1007.470455
_symmetry_space_group_name_H-M "A M A 2"
_symmetry_group_IT_number 40
_symmetry_cell_setting 'orthorhombic'
loop_
_space_group_symop_operation_xyz
x,y,z
-x,-y,z
1/2-x,y,z
1/2+x,-y,z
x,1/2+y,1/2+z
-x,1/2-y,1/2+z
1/2-x,1/2+y,1/2+z
1/2+x,1/2-y,1/2+z
loop_
_atom_site_type_symbol
_atom_site_label
_atom_site_fract_x
_atom_site_fract_y
_atom_site_fract_z
Si Si1 0.250000 0.072667 0.437070
Si Si2 0.750000 0.944073 0.818220
Si Si3 0.490260 0.689519 0.203665
Si Si4 0.398241 0.390767 0.850835
Si Si5 0.750000 0.674919 0.408754
O O1 0.250000 0.013278 0.621087
O O2 0.370001 0.021150 0.335905
O O3 0.250000 0.200249 0.485843
O O4 0.618622 0.875313 0.810105
O O5 0.750000 0.043684 0.953538
O O6 0.446622 0.816222 0.196963
O O7 0.621565 0.682438 0.301391
O O8 0.524483 0.641943 0.019799
O O9 0.250000 0.351809 0.872321
#
# Coordination Sequence:
#
# PCOD9365254 Si02
#       5
#     4   4   8   8   4
#     4  10  23  47  73 109 149 204 252 311 383 467
#     4  12  23  42  75 108 148 200 258 312 377 451
#     4  12  23  45  77 109 150 202 252 316 378 453
#     4  10  23  47  75 110 149 193 255 315 376 457
#     4  12  24  37  76 105 143 200 260 295 376 452
#
# _framework density 27.792380000000001
#
# number of rings (size 3 to 8) (size 9 to 14) (size 15 to 20)
#    0.857    0.000    5.714    2.571    0.000    3.429 
#    0.000    0.000   37.714    0.000    0.000    0.000 
#    0.000    0.000    0.000    0.000    0.000    0.000 
#
# Total GULP energy -78169.312136 kJ/mol
# GULP energy per Si atom -5583.522295 kJ/mol
# Density = 2.772912 g / cm^3
# Si number density = 27.792380 Si / 1000 Ang^3
#
#
#
# Elastic Constant Matrix: (Units=GPa)
#
#
# Indices 1 2 3 4 5 6 
#
# 1 155.9070 56.9915 23.0513 0.0000 0.0000 0.0000
# 2 56.9915 202.8557 59.3910 0.0000 0.0000 0.0000
# 3 23.0513 59.3910 67.0661 0.0000 0.0000 0.0000
# 4 0.0000 0.0000 0.0000 51.4389 0.0000 0.0000
# 5 0.0000 0.0000 0.0000 0.0000 33.1271 0.0000
# 6 0.0000 0.0000 0.0000 0.0000 0.0000 53.0705
#
#
#
# Elastic Compliance Matrix: (Units=1/GPa)
#
#
# Indices 1 2 3 4 5 6 
#
# 1 0.007190 -0.001750 -0.000921 0.000000 0.000000 0.000000
# 2 -0.001750 0.007081 -0.005669 0.000000 0.000000 0.000000
# 3 -0.000921 -0.005669 0.020248 0.000000 0.000000 0.000000
# 4 0.000000 0.000000 0.000000 0.019441 0.000000 0.000000
# 5 0.000000 0.000000 0.000000 0.000000 0.030187 0.000000
# 6 0.000000 0.000000 0.000000 0.000000 0.000000 0.018843
#
#
# Mechanical properties :
#
#
# Convention : Reuss Voigt Hill
#
# Bulk Modulus (GPa) = 56.06206 78.29962 67.18084
# Shear Modulus (GPa) = 39.80369 46.62031 43.21200
#
# Velocity S-wave (km/s) = 3.78852 4.10011 3.94739
# Velocity P-wave (km/s) = 6.27317 7.11679 6.70826
#
# Compressibility (1/GPa) = 0.01783737
#
# Stress axis : x y z
#
# Youngs Moduli (GPa) = 139.07978 141.22027 49.38832
#
# Poissons Ratio (x) = 0.24718 0.04550
# Poissons Ratio (y) = 0.24343 0.27999
# Poissons Ratio (z) = 0.12814 0.80060
#
# Static dielectric constant tensor:
#      x y z
#    x 2.363430 0.000000 0.000000 
#    y 0.000000 2.327630 0.000000 
#    z 0.000000 0.000000 2.089840 
# 
# From -- ./inp_files/9855.got.cif
#   From: 2010.05.17/outbox.cif.g08.bks.cpg/sg40_5_cif.got.tgz:9855.got - 2010.06.03 18:35:42.
