data_PCOD9365466
_publ_section_title
;
Structure prediction by ZEFSAII (Michael W. Deem and Ramdas Pophale) SiO2 
 PCOD9365466
Probable space group: A M A 2
;
_chemical_formula_sum "Si O2"
_cell_formula_units_Z 60
_cell_length_a 27.118192
_cell_length_b 12.066727
_cell_length_c 8.190395
_cell_angle_alpha 90.000000
_cell_angle_beta 90.000000
_cell_angle_gamma 90.000000
_cell_volume 2680.125097
_symmetry_space_group_name_H-M "A M A 2"
_symmetry_group_IT_number 40
_symmetry_cell_setting 'orthorhombic'
loop_
_space_group_symop_operation_xyz
x,y,z
-x,-y,z
1/2-x,y,z
1/2+x,-y,z
x,1/2+y,1/2+z
-x,1/2-y,1/2+z
1/2-x,1/2+y,1/2+z
1/2+x,1/2-y,1/2+z
loop_
_atom_site_type_symbol
_atom_site_label
_atom_site_fract_x
_atom_site_fract_y
_atom_site_fract_z
Si Si1 0.335522 0.867379 0.361700
Si Si2 0.332330 0.633469 0.235031
Si Si3 0.072542 0.965554 0.221871
Si Si4 0.750000 0.507286 0.059443
Si Si5 0.517955 0.250675 0.183706
Si Si6 0.095389 0.176251 0.433190
Si Si7 0.909894 0.169150 0.661506
Si Si8 0.071861 0.050451 0.865009
O O1 0.313484 0.752253 0.296107
O O2 0.371422 0.917666 0.222496
O O3 0.375517 0.844293 0.505795
O O4 0.293626 0.944850 0.435953
O O5 0.372044 0.594488 0.368471
O O6 0.292499 0.544462 0.183306
O O7 0.365443 0.652885 0.073396
O O8 0.035114 0.865597 0.261236
O O9 0.075643 0.063618 0.352989
O O10 0.058502 0.010795 0.044499
O O11 0.461092 0.264958 0.140536
O O12 0.537053 0.353771 0.292984
O O13 0.550147 0.260637 0.018622
O O14 0.117789 0.256562 0.296614
O O15 0.925237 0.051717 0.738790
#
# Coordination Sequence:
#
# PCOD9365466 Si02
#       8
#     8   8   8   4   8   8   8   8
#     4  12  24  46  76 100 143 189 237 307 366 433
#     4  11  23  47  72 100 138 181 233 298 366 427
#     4  12  24  45  71 101 142 192 239 288 364 429
#     4  12  24  46  74 104 136 186 242 308 374 432
#     4  11  26  45  67 105 147 194 240 289 356 429
#     4  11  24  44  70 100 143 187 232 295 351 428
#     4  12  25  45  72 103 148 188 241 295 356 434
#     4  11  22  47  71  98 148 187 233 296 353 427
#
# _framework density 22.387015000000002
#
# number of rings (size 3 to 8) (size 9 to 14) (size 15 to 20)
#    0.000    0.533    6.667    2.400    1.867    0.533 
#    7.200    1.333    0.000    0.000    0.000    0.000 
#    0.000    0.000    0.000    0.000    0.000    0.000 
#
# Total GULP energy -167447.776614 kJ/mol
# GULP energy per Si atom -5581.592554 kJ/mol
# Density = 2.233606 g / cm^3
# Si number density = 22.387015 Si / 1000 Ang^3
#
#
#
# Elastic Constant Matrix: (Units=GPa)
#
#
# Indices 1 2 3 4 5 6 
#
# 1 123.0627 4.9722 11.6042 0.0000 0.0000 0.0000
# 2 4.9722 110.8577 32.5378 0.0000 0.0000 0.0000
# 3 11.6042 32.5378 98.0511 0.0000 0.0000 0.0000
# 4 0.0000 0.0000 0.0000 51.5094 0.0000 0.0000
# 5 0.0000 0.0000 0.0000 0.0000 1.1787 0.0000
# 6 0.0000 0.0000 0.0000 0.0000 0.0000 -0.7826
#
#
#
# Elastic Compliance Matrix: (Units=1/GPa)
#
#
# Indices 1 2 3 4 5 6 
#
# 1 0.008218 -0.000092 -0.000942 0.000000 0.000000 0.000000
# 2 -0.000092 0.009995 -0.003306 0.000000 0.000000 0.000000
# 3 -0.000942 -0.003306 0.011407 0.000000 0.000000 0.000000
# 4 0.000000 0.000000 0.000000 0.019414 0.000000 0.000000
# 5 0.000000 0.000000 0.000000 0.000000 0.848360 0.000000
# 6 0.000000 0.000000 0.000000 0.000000 0.000000 -1.277784
#
#
# Mechanical properties :
#
#
# Convention : Reuss Voigt Hill
#
# Bulk Modulus (GPa) = 47.75404 47.80000 47.77702
# Shear Modulus (GPa) = -13.70878 29.23827 7.76474
#
# Velocity S-wave (km/s) = -2.47726 3.61783 1.86439
# Velocity P-wave (km/s) = 3.63249 6.23295 5.10121
#
# Compressibility (1/GPa) = 0.02094064
#
# Stress axis : x y z
#
# Youngs Moduli (GPa) = 121.67682 100.04989 87.66317
#
# Poissons Ratio (x) = 0.00922 0.08259
# Poissons Ratio (y) = 0.01121 0.28981
# Poissons Ratio (z) = 0.11463 0.33075
#
# Static dielectric constant tensor:
#      x y z
#    x 1.785920 0.000000 0.000000 
#    y 0.000000 1.890570 0.000000 
#    z 0.000000 0.000000 1.841520 
# 
# From -- ./inp_files/9167.got.cif
#   From: 2010.05.17/outbox.cif.g08.bks.cpg/sg40_5_cif.got.tgz:9167.got - 2010.06.03 18:35:42.
