data_PCOD9365792
_publ_section_title
;
Structure prediction by ZEFSAII (Michael W. Deem and Ramdas Pophale) SiO2 
 PCOD9365792
Probable space group: A B A 2
;
_chemical_formula_sum "Si O2"
_cell_formula_units_Z 52
_cell_length_a 20.410892
_cell_length_b 7.608009
_cell_length_c 15.625182
_cell_angle_alpha 90.000000
_cell_angle_beta 90.000000
_cell_angle_gamma 90.000000
_cell_volume 2426.375919
_symmetry_space_group_name_H-M "A B A 2"
_symmetry_group_IT_number 41
_symmetry_cell_setting 'orthorhombic'
loop_
_space_group_symop_operation_xyz
x,y,z
-x,-y,z
1/2-x,y,1/2+z
1/2+x,-y,1/2+z
x,1/2+y,1/2+z
-x,1/2-y,1/2+z
1/2-x,1/2+y,z
1/2+x,1/2-y,z
loop_
_atom_site_type_symbol
_atom_site_label
_atom_site_fract_x
_atom_site_fract_y
_atom_site_fract_z
Si Si1 0.203687 0.185601 0.174120
Si Si2 0.838565 0.160421 0.111701
Si Si3 0.500000 0.500000 0.278652
Si Si4 0.602256 0.276383 0.790270
Si Si5 0.653125 0.259929 0.425544
Si Si6 0.732979 0.431606 0.851419
Si Si7 0.919122 0.678721 0.265582
O O1 0.264501 0.271107 0.126532
O O2 0.232609 0.080513 0.257543
O O3 0.148527 0.314701 0.211357
O O4 0.167971 0.048569 0.113057
O O5 0.878897 0.219302 0.194186
O O6 0.865403 0.227811 0.022359
O O7 0.555392 0.621694 0.324453
O O8 0.534927 0.335221 0.228007
O O9 0.670803 0.299340 0.841243
O O10 0.569424 0.470604 0.781360
O O11 0.706786 0.410777 0.416325
O O12 0.593590 0.260794 0.359893
O O13 0.696969 0.104501 0.383551
#
# Coordination Sequence:
#
# PCOD9365792 Si02
#       7
#     8   8   4   8   8   8   8
#     4  10  18  33  56  87 119 154 190 233 285 349
#     4  11  19  33  57  91 125 151 182 237 305 348
#     4  12  22  40  68  80 106 158 214 238 278 338
#     4  10  21  38  62  88 113 150 205 242 278 345
#     4  10  20  32  57  89 125 148 180 238 303 347
#     4   9  18  33  54  86 116 152 188 233 281 351
#     4  10  22  39  62  86 113 152 204 241 279 344
#
# _framework density 21.431138000000001
#
# number of rings (size 3 to 8) (size 9 to 14) (size 15 to 20)
#    0.000    1.846    1.538    6.000    2.154    0.000 
#    0.000    0.000   10.154    0.000    0.000    0.000 
#    0.000    0.000    0.000    0.000    0.000    0.000 
#
# Total GULP energy -144756.211592 kJ/mol
# GULP energy per Si atom -5567.546600 kJ/mol
# Density = 2.138236 g / cm^3
# Si number density = 21.431138 Si / 1000 Ang^3
#
#
#
# Elastic Constant Matrix: (Units=GPa)
#
#
# Indices 1 2 3 4 5 6 
#
# 1 55.3096 24.5575 3.9196 0.0000 0.0000 0.0000
# 2 24.5575 128.9580 -4.6394 0.0000 0.0000 0.0000
# 3 3.9196 -4.6394 46.9980 0.0000 0.0000 0.0000
# 4 0.0000 0.0000 0.0000 10.5439 0.0000 0.0000
# 5 0.0000 0.0000 0.0000 0.0000 8.9402 0.0000
# 6 0.0000 0.0000 0.0000 0.0000 0.0000 41.9586
#
#
#
# Elastic Compliance Matrix: (Units=1/GPa)
#
#
# Indices 1 2 3 4 5 6 
#
# 1 0.019944 -0.003872 -0.002045 0.000000 0.000000 0.000000
# 2 -0.003872 0.008534 0.001165 0.000000 0.000000 0.000000
# 3 -0.002045 0.001165 0.021563 0.000000 0.000000 0.000000
# 4 0.000000 0.000000 0.000000 0.094842 0.000000 0.000000
# 5 0.000000 0.000000 0.000000 0.000000 0.111855 0.000000
# 6 0.000000 0.000000 0.000000 0.000000 0.000000 0.023833
#
#
# Mechanical properties :
#
#
# Convention : Reuss Voigt Hill
#
# Bulk Modulus (GPa) = 24.66865 30.99344 27.83105
# Shear Modulus (GPa) = 16.46980 26.11706 21.29343
#
# Velocity S-wave (km/s) = 2.77519 3.49470 3.15552
# Velocity P-wave (km/s) = 4.66953 5.54772 5.12746
#
# Compressibility (1/GPa) = 0.04053728
#
# Stress axis : x y z
#
# Youngs Moduli (GPa) = 50.14052 117.18334 46.37545
#
# Poissons Ratio (x) = 0.45368 0.09486
# Poissons Ratio (y) = 0.19412 -0.05404
# Poissons Ratio (z) = 0.10256 -0.13655
#
# Static dielectric constant tensor:
#      x y z
#    x 1.932560 0.000000 0.000000 
#    y 0.000000 1.919950 0.000000 
#    z 0.000000 0.000000 1.761470 
# 
# From -- ./inp_files/8964.got.cif
#   From: 2010.05.17/outbox.cif.g08.bks.cpg/sg41_5_cif.got.tgz:8964.got - 2010.06.03 18:54:24.
