data_PCOD9365998
_publ_section_title
;
Structure prediction by ZEFSAII (Michael W. Deem and Ramdas Pophale) SiO2 
 PCOD9365998
Probable space group: A B A 2
;
_chemical_formula_sum "Si O2"
_cell_formula_units_Z 56
_cell_length_a 8.619753
_cell_length_b 15.765037
_cell_length_c 17.942952
_cell_angle_alpha 90.000000
_cell_angle_beta 90.000000
_cell_angle_gamma 90.000000
_cell_volume 2438.280755
_symmetry_space_group_name_H-M "A B A 2"
_symmetry_group_IT_number 41
_symmetry_cell_setting 'orthorhombic'
loop_
_space_group_symop_operation_xyz
x,y,z
-x,-y,z
1/2-x,y,1/2+z
1/2+x,-y,1/2+z
x,1/2+y,1/2+z
-x,1/2-y,1/2+z
1/2-x,1/2+y,z
1/2+x,1/2-y,z
loop_
_atom_site_type_symbol
_atom_site_label
_atom_site_fract_x
_atom_site_fract_y
_atom_site_fract_z
Si Si1 0.314378 0.522338 0.404070
Si Si2 0.082991 0.184542 0.324349
Si Si3 0.212310 0.120781 0.033339
Si Si4 0.506887 0.275169 0.562569
Si Si5 0.723177 0.656821 0.146122
Si Si6 0.734850 0.642346 0.821429
Si Si7 0.433430 0.079739 0.679964
O O1 0.500000 0.500000 0.414679
O O2 0.312420 0.611890 0.360694
O O3 0.220926 0.540807 0.479541
O O4 0.225730 0.449802 0.357536
O O5 0.125411 0.280276 0.342652
O O6 0.089329 0.157831 0.236485
O O7 0.905669 0.171756 0.345522
O O8 0.078725 0.193427 0.026678
O O9 0.373333 0.170113 0.015794
O O10 0.200481 0.088131 0.119025
O O11 0.371428 0.334116 0.594711
O O12 0.619412 0.240220 0.628616
O O13 0.769813 0.641739 0.231303
O O14 0.591985 0.586875 0.130942
O O15 0.500000 0.000000 0.728712
#
# Coordination Sequence:
#
# PCOD9365998 Si02
#       7
#     8   8   8   8   8   8   8
#     4  10  23  40  57  87 126 166 209 251 309 382
#     4  10  20  38  64  88 118 161 206 258 315 371
#     4  10  21  37  60  90 128 165 206 260 315 379
#     4   9  18  34  60  94 123 159 207 253 317 376
#     4   9  16  31  58  90 118 147 196 257 305 361
#     4  10  19  36  63  88 119 158 203 256 314 374
#     4  10  20  36  59  89 123 162 206 259 318 373
#
# _framework density 22.967002999999998
#
# number of rings (size 3 to 8) (size 9 to 14) (size 15 to 20)
#    0.000    2.286    0.000    5.571    0.000    3.429 
#    0.000    5.000    0.000    8.571    0.000    0.000 
#    0.000    0.000    0.000    0.000    0.000    0.000 
#
# Total GULP energy -155916.736678 kJ/mol
# GULP energy per Si atom -5568.454881 kJ/mol
# Density = 2.291473 g / cm^3
# Si number density = 22.967003 Si / 1000 Ang^3
#
#
#
# Elastic Constant Matrix: (Units=GPa)
#
#
# Indices 1 2 3 4 5 6 
#
# 1 62.0029 21.6430 18.5014 0.0000 0.0000 0.0000
# 2 21.6430 79.6940 36.6085 0.0000 0.0000 0.0000
# 3 18.5014 36.6085 68.3476 0.0000 0.0000 0.0000
# 4 0.0000 0.0000 0.0000 40.3586 0.0000 0.0000
# 5 0.0000 0.0000 0.0000 0.0000 13.5553 0.0000
# 6 0.0000 0.0000 0.0000 0.0000 0.0000 26.3547
#
#
#
# Elastic Compliance Matrix: (Units=1/GPa)
#
#
# Indices 1 2 3 4 5 6 
#
# 1 0.018280 -0.003570 -0.003036 0.000000 0.000000 0.000000
# 2 -0.003570 0.017340 -0.008321 0.000000 0.000000 0.000000
# 3 -0.003036 -0.008321 0.019910 0.000000 0.000000 0.000000
# 4 0.000000 0.000000 0.000000 0.024778 0.000000 0.000000
# 5 0.000000 0.000000 0.000000 0.000000 0.073772 0.000000
# 6 0.000000 0.000000 0.000000 0.000000 0.000000 0.037944
#
#
# Mechanical properties :
#
#
# Convention : Reuss Voigt Hill
#
# Bulk Modulus (GPa) = 38.94757 40.39448 39.67103
# Shear Modulus (GPa) = 21.69785 24.93982 23.31883
#
# Velocity S-wave (km/s) = 3.07700 3.29887 3.18986
# Velocity P-wave (km/s) = 5.44231 5.66889 5.55676
#
# Compressibility (1/GPa) = 0.02567554
#
# Stress axis : x y z
#
# Youngs Moduli (GPa) = 54.70343 57.67017 50.22562
#
# Poissons Ratio (x) = 0.20587 0.15250
# Poissons Ratio (y) = 0.19528 0.41795
# Poissons Ratio (z) = 0.16610 0.47990
#
# Static dielectric constant tensor:
#      x y z
#    x 1.860580 0.000000 0.000000 
#    y 0.000000 2.113230 0.000000 
#    z 0.000000 0.000000 2.004450 
# 
# From -- ./inp_files/11254.got.cif
#   From: 2010.05.17/outbox.cif.g08.bks.cpg/sg41_6_cif.got.tgz:11254.got - 2010.06.03 18:54:24.
