data_PCOD9365522
_publ_section_title
;
Structure prediction by ZEFSAII (Michael W. Deem and Ramdas Pophale) SiO2 
 PCOD9365522
Probable space group: A M A 2
;
_chemical_formula_sum "Si O2"
_cell_formula_units_Z 64
_cell_length_a 29.925843
_cell_length_b 11.347235
_cell_length_c 9.043163
_cell_angle_alpha 90.000000
_cell_angle_beta 90.000000
_cell_angle_gamma 90.000000
_cell_volume 3070.837258
_symmetry_space_group_name_H-M "A M A 2"
_symmetry_group_IT_number 40
_symmetry_cell_setting 'orthorhombic'
loop_
_space_group_symop_operation_xyz
x,y,z
-x,-y,z
1/2-x,y,z
1/2+x,-y,z
x,1/2+y,1/2+z
-x,1/2-y,1/2+z
1/2-x,1/2+y,1/2+z
1/2+x,1/2-y,1/2+z
loop_
_atom_site_type_symbol
_atom_site_label
_atom_site_fract_x
_atom_site_fract_y
_atom_site_fract_z
Si Si1 0.449303 0.029009 0.745720
Si Si2 0.697245 0.443406 0.467518
Si Si3 0.841729 0.186655 0.478204
Si Si4 0.085635 0.271474 0.232674
Si Si5 0.117082 0.669996 0.035483
Si Si6 0.956166 0.421564 0.577206
Si Si7 0.800033 0.483917 0.137430
Si Si8 0.128598 0.426279 0.675939
O O1 0.427236 0.902388 0.782118
O O2 0.500000 0.000000 0.700010
O O3 0.421185 0.096673 0.621638
O O4 0.449415 0.098215 0.901594
O O5 0.750000 0.440423 0.500200
O O6 0.678572 0.312428 0.435803
O O7 0.689973 0.507295 0.310222
O O8 0.669722 0.506525 0.596948
O O9 0.879411 0.213058 0.599874
O O10 0.804204 0.106607 0.553302
O O11 0.861621 0.108932 0.344922
O O12 0.105674 0.193769 0.364998
O O13 0.043584 0.201134 0.164605
O O14 0.163098 0.601976 0.068097
O O15 0.120981 0.799933 0.101787
O O16 0.914518 0.494364 0.642592
O O17 0.000000 0.500000 0.594472
O O18 0.750000 0.434340 0.128062
#
# Coordination Sequence:
#
# PCOD9365522 Si02
#       8
#     8   8   8   8   8   8   8   8
#     4  11  26  45  69 101 137 178 226 284 341 408
#     4  11  25  45  68  99 135 174 225 280 338 408
#     4  12  24  45  70  96 136 178 226 279 338 401
#     4  12  25  44  70  98 136 180 228 278 341 401
#     4  12  24  45  71  98 138 180 226 278 345 404
#     4  11  25  46  67 102 138 175 230 283 338 409
#     4  11  24  44  69  99 133 175 224 278 338 405
#     4  12  24  44  71  97 135 184 218 280 346 400
#
# _framework density 20.841221999999998
#
# number of rings (size 3 to 8) (size 9 to 14) (size 15 to 20)
#    0.000    0.500    5.000    3.375    1.750    2.000 
#    0.000    0.625    0.000    0.000    0.000    0.000 
#    0.000    0.000    0.000    0.000    0.000    0.000 
#
# Total GULP energy -178996.628229 kJ/mol
# GULP energy per Si atom -5593.644632 kJ/mol
# Density = 2.079379 g / cm^3
# Si number density = 20.841222 Si / 1000 Ang^3
#
#
#
# Elastic Constant Matrix: (Units=GPa)
#
#
# Indices 1 2 3 4 5 6 
#
# 1 110.0733 8.2439 42.6833 0.0000 0.0000 0.0000
# 2 8.2439 54.3517 11.5521 0.0000 0.0000 0.0000
# 3 42.6833 11.5521 113.7127 0.0000 0.0000 0.0000
# 4 0.0000 0.0000 0.0000 39.6471 0.0000 0.0000
# 5 0.0000 0.0000 0.0000 0.0000 15.0133 0.0000
# 6 0.0000 0.0000 0.0000 0.0000 0.0000 22.4047
#
#
#
# Elastic Compliance Matrix: (Units=1/GPa)
#
#
# Indices 1 2 3 4 5 6 
#
# 1 0.010665 -0.000784 -0.003924 0.000000 0.000000 0.000000
# 2 -0.000784 0.018862 -0.001622 0.000000 0.000000 0.000000
# 3 -0.003924 -0.001622 0.010432 0.000000 0.000000 0.000000
# 4 0.000000 0.000000 0.000000 0.025223 0.000000 0.000000
# 5 0.000000 0.000000 0.000000 0.000000 0.066608 0.000000
# 6 0.000000 0.000000 0.000000 0.000000 0.000000 0.044634
#
#
# Mechanical properties :
#
#
# Convention : Reuss Voigt Hill
#
# Bulk Modulus (GPa) = 36.62971 44.78848 40.70910
# Shear Modulus (GPa) = 25.22938 29.79024 27.50981
#
# Velocity S-wave (km/s) = 3.48307 3.78483 3.63708
# Velocity P-wave (km/s) = 5.81287 6.37471 6.10026
#
# Compressibility (1/GPa) = 0.02730024
#
# Stress axis : x y z
#
# Youngs Moduli (GPa) = 93.76453 53.01574 95.86213
#
# Poissons Ratio (x) = 0.04155 0.37613
# Poissons Ratio (y) = 0.07348 0.15549
# Poissons Ratio (z) = 0.36790 0.08599
#
# Static dielectric constant tensor:
#      x y z
#    x 1.732670 0.000000 0.000000 
#    y 0.000000 1.758340 0.000000 
#    z 0.000000 0.000000 1.762290 
# 
# From -- ./inp_files/9446.got.cif
#   From: 2010.05.17/outbox.cif.g08.bks.cpg/sg40_5_cif.got.tgz:9446.got - 2010.06.03 18:35:42.
