data_PCOD9365360
_publ_section_title
;
Structure prediction by ZEFSAII (Michael W. Deem and Ramdas Pophale) SiO2 
 PCOD9365360
Probable space group: A M A 2
;
_chemical_formula_sum "Si O2"
_cell_formula_units_Z 64
_cell_length_a 8.754722
_cell_length_b 23.760207
_cell_length_c 19.692589
_cell_angle_alpha 90.000000
_cell_angle_beta 90.000000
_cell_angle_gamma 90.000000
_cell_volume 4096.334345
_symmetry_space_group_name_H-M "A M A 2"
_symmetry_group_IT_number 40
_symmetry_cell_setting 'orthorhombic'
loop_
_space_group_symop_operation_xyz
x,y,z
-x,-y,z
1/2-x,y,z
1/2+x,-y,z
x,1/2+y,1/2+z
-x,1/2-y,1/2+z
1/2-x,1/2+y,1/2+z
1/2+x,1/2-y,1/2+z
loop_
_atom_site_type_symbol
_atom_site_label
_atom_site_fract_x
_atom_site_fract_y
_atom_site_fract_z
Si Si1 0.933044 0.245838 0.933120
Si Si2 0.932035 0.061734 0.797767
Si Si3 0.566178 0.840483 0.709972
Si Si4 0.433543 0.619907 0.431740
Si Si5 0.067520 0.562112 0.575014
Si Si6 0.564639 0.272745 0.081571
Si Si7 0.565620 0.160078 0.161407
Si Si8 0.067253 0.774078 0.293330
O O1 0.750000 0.240628 0.933750
O O2 0.004197 0.183394 0.931765
O O3 0.985994 0.277136 0.865315
O O4 0.982700 0.275445 0.003422
O O5 0.750000 0.059115 0.801386
O O6 0.984800 0.105201 0.739740
O O7 0.997328 0.086393 0.868366
O O8 0.000000 0.000000 0.786369
O O9 0.750000 0.848917 0.710446
O O10 0.516314 0.820591 0.634821
O O11 0.535069 0.786807 0.758909
O O12 0.250000 0.621034 0.425453
O O13 0.475731 0.589619 0.502336
O O14 0.250000 0.559539 0.577743
O O15 0.000000 0.500000 0.580433
O O16 0.006257 0.603445 0.633277
O O17 0.750000 0.273375 0.083477
O O18 0.518797 0.212193 0.112627
O O19 0.750000 0.156254 0.158558
O O20 0.523298 0.179352 0.237430
O O21 0.250000 0.776833 0.302666
#
# Coordination Sequence:
#
# PCOD9365360 Si02
#       8
#     8   8   8   8   8   8   8   8
#     4  11  19  29  50  77 102 132 167 203 244 293
#     4  12  24  36  51  72  97 132 172 209 246 288
#     4   9  17  33  52  70  97 131 166 203 243 292
#     4  11  22  35  48  69 101 136 171 205 241 285
#     4  11  23  35  50  71  97 132 171 211 247 289
#     4   8  16  30  50  73  98 131 163 197 247 295
#     4   9  17  33  52  70  96 132 167 202 244 295
#     4   9  18  31  50  72 100 134 163 197 249 297
#
# _framework density 15.623723
#
# number of rings (size 3 to 8) (size 9 to 14) (size 15 to 20)
#    0.000    2.000    2.500    4.125    0.000    3.000 
#    0.000    3.125    0.000    0.000    0.000    0.875 
#    0.000    6.000    0.000    0.000    0.000    0.000 
#
# Total GULP energy -178567.087618 kJ/mol
# GULP energy per Si atom -5580.221488 kJ/mol
# Density = 1.558816 g / cm^3
# Si number density = 15.623723 Si / 1000 Ang^3
#
#
#
# Elastic Constant Matrix: (Units=GPa)
#
#
# Indices 1 2 3 4 5 6 
#
# 1 42.8383 35.3150 47.3633 0.0000 0.0000 0.0000
# 2 35.3150 95.3460 74.1069 0.0000 0.0000 0.0000
# 3 47.3633 74.1069 147.6907 0.0000 0.0000 0.0000
# 4 0.0000 0.0000 0.0000 18.5286 0.0000 0.0000
# 5 0.0000 0.0000 0.0000 0.0000 10.8889 0.0000
# 6 0.0000 0.0000 0.0000 0.0000 0.0000 14.9082
#
#
#
# Elastic Compliance Matrix: (Units=1/GPa)
#
#
# Indices 1 2 3 4 5 6 
#
# 1 0.039439 -0.007832 -0.008718 0.000000 0.000000 0.000000
# 2 -0.007832 0.018749 -0.006896 0.000000 0.000000 0.000000
# 3 -0.008718 -0.006896 0.013027 0.000000 0.000000 0.000000
# 4 0.000000 0.000000 0.000000 0.053971 0.000000 0.000000
# 5 0.000000 0.000000 0.000000 0.000000 0.091837 0.000000
# 6 0.000000 0.000000 0.000000 0.000000 0.000000 0.067077
#
#
# Mechanical properties :
#
#
# Convention : Reuss Voigt Hill
#
# Bulk Modulus (GPa) = 41.11322 66.60504 53.85913
# Shear Modulus (GPa) = 14.74499 17.47112 16.10806
#
# Velocity S-wave (km/s) = 3.07540 3.34764 3.21440
# Velocity P-wave (km/s) = 6.24360 7.59378 6.95155
#
# Compressibility (1/GPa) = 0.02432308
#
# Stress axis : x y z
#
# Youngs Moduli (GPa) = 25.35576 53.33701 76.76396
#
# Poissons Ratio (x) = 0.41771 0.66923
# Poissons Ratio (y) = 0.19858 0.52937
# Poissons Ratio (z) = 0.22105 0.36781
#
# Static dielectric constant tensor:
#      x y z
#    x 1.522930 0.000000 0.000000 
#    y 0.000000 1.489220 0.000000 
#    z 0.000000 0.000000 1.534440 
# 
# From -- ./inp_files/19752.got.cif
#   From: 2010.05.17/outbox.cif.g08.bks.cpg/sg40_10_cif.got.tgz:19752.got - 2010.06.03 18:35:42.
