data_PCOD9365712
_publ_section_title
;
Structure prediction by ZEFSAII (Michael W. Deem and Ramdas Pophale) SiO2 
 PCOD9365712
Probable space group: A B A 2
;
_chemical_formula_sum "Si O2"
_cell_formula_units_Z 64
_cell_length_a 27.945752
_cell_length_b 18.701514
_cell_length_c 5.541162
_cell_angle_alpha 90.000000
_cell_angle_beta 90.000000
_cell_angle_gamma 90.000000
_cell_volume 2895.965706
_symmetry_space_group_name_H-M "A B A 2"
_symmetry_group_IT_number 41
_symmetry_cell_setting 'orthorhombic'
loop_
_space_group_symop_operation_xyz
x,y,z
-x,-y,z
1/2-x,y,1/2+z
1/2+x,-y,1/2+z
x,1/2+y,1/2+z
-x,1/2-y,1/2+z
1/2-x,1/2+y,z
1/2+x,1/2-y,z
loop_
_atom_site_type_symbol
_atom_site_label
_atom_site_fract_x
_atom_site_fract_y
_atom_site_fract_z
Si Si1 0.382707 0.158468 0.332600
Si Si2 0.539294 0.176335 0.332600
Si Si3 0.557371 0.481246 0.832600
Si Si4 0.943068 0.984955 0.332600
Si Si5 0.275266 0.130414 0.332600
Si Si6 0.371937 0.246604 0.832600
Si Si7 0.238116 0.791053 0.832600
Si Si8 0.490249 0.656886 0.332600
O O1 0.426570 0.102215 0.332600
O O2 0.331961 0.116774 0.332600
O O3 0.382986 0.205386 0.578840
O O4 0.382986 0.205386 0.086360
O O5 0.596066 0.182237 0.332600
O O6 0.524095 0.260280 0.332600
O O7 0.519394 0.145719 0.583944
O O8 0.519394 0.145719 0.081257
O O9 0.500000 0.500000 0.832600
O O10 0.577887 0.510163 0.582769
O O11 0.577887 0.510163 0.082431
O O12 0.946600 0.898769 0.332600
O O13 0.000000 0.000000 0.332600
O O14 0.250000 0.106390 0.582600
O O15 0.269440 0.217417 0.332600
O O16 0.316302 0.264959 0.832600
O O17 0.250000 0.829513 0.582600
#
# Coordination Sequence:
#
# PCOD9365712 Si02
#       8
#     8   8   8   8   8   8   8   8
#     4  12  19  28  48  64  94 135 168 203 239 304
#     4  10  21  30  46  67  96 134 159 195 232 292
#     4  10  21  33  46  71  95 120 166 216 255 299
#     4  10  20  36  55  69  90 127 169 217 260 285
#     4  10  16  28  40  63  90 124 164 189 246 287
#     4  12  20  29  46  70  92 130 183 186 230 306
#     4  10  16  29  41  61  95 124 159 201 236 276
#     4  10  19  35  46  65  97 124 165 203 241 279
#
# _framework density 22.099709000000001
#
# number of rings (size 3 to 8) (size 9 to 14) (size 15 to 20)
#    0.000    1.500    5.000    3.750    0.000    2.000 
#    0.000    0.000    0.000    0.000    0.000    0.000 
#    0.000    0.000    0.000   90.000    3.000    0.000 
#
# Total GULP energy -178439.953723 kJ/mol
# GULP energy per Si atom -5576.248554 kJ/mol
# Density = 2.204941 g / cm^3
# Si number density = 22.099709 Si / 1000 Ang^3
#
#
#
# Elastic Constant Matrix: (Units=GPa)
#
#
# Indices 1 2 3 4 5 6 
#
# 1 96.7877 12.6479 45.8852 0.0000 0.0000 0.0000
# 2 12.6479 53.8813 18.7832 0.0000 0.0000 0.0000
# 3 45.8852 18.7832 276.5660 0.0000 0.0000 0.0000
# 4 0.0000 0.0000 0.0000 6.9999 0.0000 0.0000
# 5 0.0000 0.0000 0.0000 0.0000 33.6360 0.0000
# 6 0.0000 0.0000 0.0000 0.0000 0.0000 6.9571
#
#
#
# Elastic Compliance Matrix: (Units=1/GPa)
#
#
# Indices 1 2 3 4 5 6 
#
# 1 0.011435 -0.002072 -0.001757 0.000000 0.000000 0.000000
# 2 -0.002072 0.019385 -0.000973 0.000000 0.000000 0.000000
# 3 -0.001757 -0.000973 0.003973 0.000000 0.000000 0.000000
# 4 0.000000 0.000000 0.000000 0.142860 0.000000 0.000000
# 5 0.000000 0.000000 0.000000 0.000000 0.029730 0.000000
# 6 0.000000 0.000000 0.000000 0.000000 0.000000 0.143739
#
#
# Mechanical properties :
#
#
# Convention : Reuss Voigt Hill
#
# Bulk Modulus (GPa) = 39.69687 64.65197 52.17442
# Shear Modulus (GPa) = 13.54569 32.84651 23.19610
#
# Velocity S-wave (km/s) = 2.47844 3.85942 3.24328
# Velocity P-wave (km/s) = 5.11780 7.01273 6.13882
#
# Compressibility (1/GPa) = 0.02519090
#
# Stress axis : x y z
#
# Youngs Moduli (GPa) = 87.44783 51.58685 251.68205
#
# Poissons Ratio (x) = 0.10689 0.44209
# Poissons Ratio (y) = 0.18119 0.24483
# Poissons Ratio (z) = 0.15360 0.05018
#
# Static dielectric constant tensor:
#      x y z
#    x 1.849680 0.000000 0.000000 
#    y 0.000000 1.876770 0.000000 
#    z 0.000000 0.000000 1.928130 
# 
# From -- ./inp_files/1244.got.cif
#   From: 2010.05.17/outbox.cif.g08.bks.cpg/sg41_1_cif.got.tgz:1244.got - 2010.06.03 18:54:24.
