data_PCOD9365073
_publ_section_title
;
Structure prediction by ZEFSAII (Michael W. Deem and Ramdas Pophale) SiO2 
 PCOD9365073
Probable space group: A M A 2
;
_chemical_formula_sum "Si O2"
_cell_formula_units_Z 40
_cell_length_a 13.631716
_cell_length_b 5.677610
_cell_length_c 22.932186
_cell_angle_alpha 90.000000
_cell_angle_beta 90.000000
_cell_angle_gamma 90.000000
_cell_volume 1774.849540
_symmetry_space_group_name_H-M "A M A 2"
_symmetry_group_IT_number 40
_symmetry_cell_setting 'orthorhombic'
loop_
_space_group_symop_operation_xyz
x,y,z
-x,-y,z
1/2-x,y,z
1/2+x,-y,z
x,1/2+y,1/2+z
-x,1/2-y,1/2+z
1/2-x,1/2+y,1/2+z
1/2+x,1/2-y,1/2+z
loop_
_atom_site_type_symbol
_atom_site_label
_atom_site_fract_x
_atom_site_fract_y
_atom_site_fract_z
Si Si1 0.130859 0.888412 0.774350
Si Si2 0.136195 0.397394 0.828483
Si Si3 0.000000 0.500000 0.167624
Si Si4 0.500000 0.000000 0.004655
Si Si5 0.640429 0.140393 0.463840
Si Si6 0.861030 0.779048 0.573306
O O1 0.250000 0.886403 0.771269
O O2 0.096221 0.639987 0.801581
O O3 0.080632 0.892678 0.711015
O O4 0.102917 0.132884 0.808767
O O5 0.250000 0.392065 0.809668
O O6 0.136719 0.447868 0.897667
O O7 0.063985 0.657968 0.124111
O O8 0.405910 0.951894 0.044439
O O9 0.541444 0.790944 0.966911
O O10 0.750000 0.258184 0.467514
O O11 0.637111 0.963976 0.519036
O O12 0.750000 0.757224 0.593853
#
# Coordination Sequence:
#
# PCOD9365073 Si02
#       6
#     8   8   4   4   8   8
#     4  10  23  44  69  99 137 186 238 290 349 418
#     4   9  21  43  70 101 139 182 229 291 362 424
#     4  12  24  47  64 100 135 188 240 292 344 420
#     4  12  22  41  66 110 135 180 232 284 356 434
#     4  10  22  42  69 102 141 180 225 291 365 432
#     4  11  25  46  69 100 142 182 231 294 358 426
#
# _framework density 22.537123999999999
#
# number of rings (size 3 to 8) (size 9 to 14) (size 15 to 20)
#    0.000    1.600    2.000    1.200    2.800    3.200 
#    3.600    2.000    0.000    0.000    0.000    0.000 
#    0.000    0.000    0.000    0.000    0.000    0.000 
#
# Total GULP energy -111460.840896 kJ/mol
# GULP energy per Si atom -5573.042045 kJ/mol
# Density = 2.248583 g / cm^3
# Si number density = 22.537124 Si / 1000 Ang^3
#
#
#
# Elastic Constant Matrix: (Units=GPa)
#
#
# Indices 1 2 3 4 5 6 
#
# 1 115.4823 34.4895 13.5059 0.0000 0.0000 0.0000
# 2 34.4895 104.1954 40.8901 0.0000 0.0000 0.0000
# 3 13.5059 40.8901 101.4630 0.0000 0.0000 0.0000
# 4 0.0000 0.0000 0.0000 -11.6589 0.0000 0.0000
# 5 0.0000 0.0000 0.0000 0.0000 54.2491 0.0000
# 6 0.0000 0.0000 0.0000 0.0000 0.0000 13.2122
#
#
#
# Elastic Compliance Matrix: (Units=1/GPa)
#
#
# Indices 1 2 3 4 5 6 
#
# 1 0.009609 -0.003182 0.000003 0.000000 0.000000 0.000000
# 2 -0.003182 0.012454 -0.004595 0.000000 0.000000 0.000000
# 3 0.000003 -0.004595 0.011707 0.000000 0.000000 0.000000
# 4 0.000000 0.000000 0.000000 -0.085771 0.000000 0.000000
# 5 0.000000 0.000000 0.000000 0.000000 0.018433 0.000000
# 6 0.000000 0.000000 0.000000 0.000000 0.000000 0.075688
#
#
# Mechanical properties :
#
#
# Convention : Reuss Voigt Hill
#
# Bulk Modulus (GPa) = 54.87802 55.43463 55.15632
# Shear Modulus (GPa) = 78.43972 26.64415 52.54193
#
# Velocity S-wave (km/s) = 5.90595 3.44209 4.83364
# Velocity P-wave (km/s) = 8.42080 6.35986 7.46182
#
# Compressibility (1/GPa) = 0.01822223
#
# Stress axis : x y z
#
# Youngs Moduli (GPa) = 104.06600 80.29501 85.41614
#
# Poissons Ratio (x) = 0.25550 -0.00028
# Poissons Ratio (y) = 0.33114 0.39253
# Poissons Ratio (z) = -0.00034 0.36900
#
# Static dielectric constant tensor:
#      x y z
#    x 1.837600 0.000000 0.000000 
#    y 0.000000 2.133860 0.000000 
#    z 0.000000 0.000000 1.790300 
# 
# From -- ./inp_files/24704.got.cif
#   From: 2010.05.17/outbox.cif.g08.bks.cpg/sg40_13_cif.got.tgz:24704.got - 2010.06.03 18:35:42.
