data_PCOD9365267
_publ_section_title
;
Structure prediction by ZEFSAII (Michael W. Deem and Ramdas Pophale) SiO2 
 PCOD9365267
Probable space group: A M A 2
;
_chemical_formula_sum "Si O2"
_cell_formula_units_Z 32
_cell_length_a 27.074266
_cell_length_b 9.187136
_cell_length_c 5.220807
_cell_angle_alpha 90.000000
_cell_angle_beta 90.000000
_cell_angle_gamma 90.000000
_cell_volume 1298.597240
_symmetry_space_group_name_H-M "A M A 2"
_symmetry_group_IT_number 40
_symmetry_cell_setting 'orthorhombic'
loop_
_space_group_symop_operation_xyz
x,y,z
-x,-y,z
1/2-x,y,z
1/2+x,-y,z
x,1/2+y,1/2+z
-x,1/2-y,1/2+z
1/2-x,1/2+y,1/2+z
1/2+x,1/2-y,1/2+z
loop_
_atom_site_type_symbol
_atom_site_label
_atom_site_fract_x
_atom_site_fract_y
_atom_site_fract_z
Si Si1 0.981801 0.835293 0.710200
Si Si2 0.308202 0.187840 0.749181
Si Si3 0.392520 0.675898 0.570303
Si Si4 0.636056 0.041139 0.416424
O O1 0.926034 0.836234 0.819801
O O2 0.990152 0.744805 0.449489
O O3 0.000000 0.000000 0.681857
O O4 0.250000 0.201659 0.760743
O O5 0.335282 0.137483 0.009385
O O6 0.335400 0.344437 0.730833
O O7 0.325953 0.068548 0.547919
O O8 0.405289 0.555395 0.776616
O O9 0.389255 0.848027 0.621437
#
# Coordination Sequence:
#
# PCOD9365267 Si02
#       4
#     8   8   8   8
#     4  12  28  46  77 107 144 187 243 295 361 427
#     4  10  24  42  66  99 134 178 225 277 342 412
#     4  10  26  44  70  95 141 174 231 281 354 406
#     4  10  24  40  67  92 133 176 222 281 335 413
#
# _framework density 24.641976
#
# number of rings (size 3 to 8) (size 9 to 14) (size 15 to 20)
#    1.500    0.000    0.000    3.000   10.500    2.000 
#    0.000    0.000    0.000    0.000    0.000    0.000 
#    0.000    0.000    0.000    0.000    0.000    0.000 
#
# Total GULP energy -89255.502118 kJ/mol
# GULP energy per Si atom -5578.468882 kJ/mol
# Density = 2.458589 g / cm^3
# Si number density = 24.641976 Si / 1000 Ang^3
#
#
#
# Elastic Constant Matrix: (Units=GPa)
#
#
# Indices 1 2 3 4 5 6 
#
# 1 112.1759 57.4911 18.6011 0.0000 0.0000 0.0000
# 2 57.4911 222.0811 61.9301 0.0000 0.0000 0.0000
# 3 18.6011 61.9301 65.1180 0.0000 0.0000 0.0000
# 4 0.0000 0.0000 0.0000 43.1467 0.0000 0.0000
# 5 0.0000 0.0000 0.0000 0.0000 29.5278 0.0000
# 6 0.0000 0.0000 0.0000 0.0000 0.0000 26.0769
#
#
#
# Elastic Compliance Matrix: (Units=1/GPa)
#
#
# Indices 1 2 3 4 5 6 
#
# 1 0.010293 -0.002510 -0.000553 0.000000 0.000000 0.000000
# 2 -0.002510 0.006740 -0.005693 0.000000 0.000000 0.000000
# 3 -0.000553 -0.005693 0.020929 0.000000 0.000000 0.000000
# 4 0.000000 0.000000 0.000000 0.023177 0.000000 0.000000
# 5 0.000000 0.000000 0.000000 0.000000 0.033866 0.000000
# 6 0.000000 0.000000 0.000000 0.000000 0.000000 0.038348
#
#
# Mechanical properties :
#
#
# Convention : Reuss Voigt Hill
#
# Bulk Modulus (GPa) = 48.90056 75.04663 61.97359
# Shear Modulus (GPa) = 31.70921 37.17380 34.44150
#
# Velocity S-wave (km/s) = 3.59109 3.88823 3.74261
# Velocity P-wave (km/s) = 6.08950 7.11889 6.62422
#
# Compressibility (1/GPa) = 0.02044966
#
# Stress axis : x y z
#
# Youngs Moduli (GPa) = 97.15499 148.35919 47.78021
#
# Poissons Ratio (x) = 0.37245 0.02640
# Poissons Ratio (y) = 0.24390 0.27203
# Poissons Ratio (z) = 0.05369 0.84465
#
# Static dielectric constant tensor:
#      x y z
#    x 1.994630 0.000000 0.000000 
#    y 0.000000 2.012320 0.000000 
#    z 0.000000 0.000000 2.042270 
# 
# From -- ./inp_files/3259.got.cif
#   From: 2010.05.17/outbox.cif.g08.bks.cpg/sg40_2_cif.got.tgz:3259.got - 2010.06.03 18:35:42.
