data_PCOD9365647
_publ_section_title
;
Structure prediction by ZEFSAII (Michael W. Deem and Ramdas Pophale) SiO2 
 PCOD9365647
Probable space group: A M A 2
;
_chemical_formula_sum "Si O2"
_cell_formula_units_Z 32
_cell_length_a 24.000000
_cell_length_b 9.000000
_cell_length_c 15.000000
_cell_angle_alpha 90.000000
_cell_angle_beta 90.000000
_cell_angle_gamma 90.000000
_cell_volume 3240.000000
_symmetry_space_group_name_H-M "A M A 2"
_symmetry_group_IT_number 40
_symmetry_cell_setting 'orthorhombic'
loop_
_space_group_symop_operation_xyz
x,y,z
-x,-y,z
1/2-x,y,z
1/2+x,-y,z
x,1/2+y,1/2+z
-x,1/2-y,1/2+z
1/2-x,1/2+y,1/2+z
1/2+x,1/2-y,1/2+z
loop_
_atom_site_type_symbol
_atom_site_label
_atom_site_fract_x
_atom_site_fract_y
_atom_site_fract_z
Si Si1 0.003293 0.177263 0.459950
Si Si2 0.183449 0.972094 0.320962
Si Si3 0.899960 0.109417 0.738589
Si Si4 0.367827 0.239286 0.419928
Si Si5 0.903178 0.303428 0.340443
Si Si6 0.811190 0.791132 0.160570
Si Si7 0.963786 0.358540 0.634526
Si Si8 0.860323 0.468694 0.517783
O O1 0.960350 0.232129 0.381932
O O2 0.990093 0.269145 0.550535
O O3 0.067200 0.208789 0.437101
O O4 0.000000 0.000000 0.473684
O O5 0.250000 0.933975 0.327924
O O6 0.140831 0.830201 0.316594
O O7 0.164805 0.085342 0.401137
O O8 0.176706 0.076824 0.232870
O O9 0.869659 0.172469 0.826516
O O10 0.854118 0.152630 0.663488
O O11 0.947716 0.229633 0.707047
O O12 0.912631 0.935785 0.764737
O O13 0.348471 0.358971 0.494444
O O14 0.877999 0.390261 0.425787
O O15 0.750000 0.734156 0.182144
O O16 0.812964 0.873597 0.065784
O O17 0.910634 0.440458 0.588482
O O18 0.000000 0.500000 0.668502
#
# Coordination Sequence:
#
# PCOD9365647 Si02
#       8
#     8   8   8   8   8   8   8   8
#     4  11  21  37  59  86 124 165 196 243 303 365
#     4  10  21  38  59  85 119 155 200 255 308 354
#     4   9  21  37  57  89 118 153 205 247 299 363
#     4  10  19  38  59  86 117 158 201 248 296 363
#     4  10  21  38  60  88 120 154 200 253 300 362
#     4   9  19  38  59  82 116 159 203 249 304 364
#     4  10  19  37  58  85 121 160 193 242 302 367
#     4   9  19  35  61  83 114 153 199 243 297 359
#
# _framework density 9.8765429999999999
#
# number of rings (size 3 to 8) (size 9 to 14) (size 15 to 20)
#    0.000    2.250    2.500    0.000    0.000    2.000 
#    6.750    2.500    0.000    0.000    0.000    0.000 
#    0.000    0.000    0.000    0.000    0.000    0.000 
#
# Total GULP energy -178161.067714 kJ/mol
# GULP energy per Si atom -5567.533366 kJ/mol
# Density = 0.985406 g / cm^3
# Si number density = 9.876543 Si / 1000 Ang^3
#
#
#
# Elastic Constant Matrix: (Units=GPa)
#
#
# Indices 1 2 3 4 5 6 
#
# 1 79.7290 33.2518 18.7376 0.0000 0.0000 0.0000
# 2 33.2518 142.2625 27.7733 0.0000 0.0000 0.0000
# 3 18.7376 27.7733 57.6605 0.0000 0.0000 0.0000
# 4 0.0000 0.0000 0.0000 35.1779 0.0000 0.0000
# 5 0.0000 0.0000 0.0000 0.0000 22.6716 0.0000
# 6 0.0000 0.0000 0.0000 0.0000 0.0000 30.5555
#
#
#
# Elastic Compliance Matrix: (Units=1/GPa)
#
#
# Indices 1 2 3 4 5 6 
#
# 1 0.014475 -0.002721 -0.003393 0.000000 0.000000 0.000000
# 2 -0.002721 0.008270 -0.003099 0.000000 0.000000 0.000000
# 3 -0.003393 -0.003099 0.019938 0.000000 0.000000 0.000000
# 4 0.000000 0.000000 0.000000 0.028427 0.000000 0.000000
# 5 0.000000 0.000000 0.000000 0.000000 0.044108 0.000000
# 6 0.000000 0.000000 0.000000 0.000000 0.000000 0.032727
#
#
# Mechanical properties :
#
#
# Convention : Reuss Voigt Hill
#
# Bulk Modulus (GPa) = 41.22590 48.79749 45.01170
# Shear Modulus (GPa) = 28.66016 31.00694 29.83355
#
# Velocity S-wave (km/s) = 3.81323 3.96628 3.89050
# Velocity P-wave (km/s) = 6.34851 6.76258 6.55881
#
# Compressibility (1/GPa) = 0.02425659
#
# Stress axis : x y z
#
# Youngs Moduli (GPa) = 69.08603 120.91480 50.15435
#
# Poissons Ratio (x) = 0.32899 0.17019
# Poissons Ratio (y) = 0.18797 0.15545
# Poissons Ratio (z) = 0.23443 0.37476
#
# Static dielectric constant tensor:
#      x y z
#    x 1.778310 0.000000 0.000000 
#    y 0.000000 1.702680 0.000000 
#    z 0.000000 0.000000 1.738160 
# 
# From -- ./inp_files/18544.got.cif
#   From: 2010.05.17/outbox.ucp.g08.bks.cvg/sg40_10_cif.got.tgz:18544.got - 2010.06.11 16:26:39.
