data_PCOD9365550
_publ_section_title
;
Structure prediction by ZEFSAII (Michael W. Deem and Ramdas Pophale) SiO2 
 PCOD9365550
Probable space group: A M A 2
;
_chemical_formula_sum "Si O2"
_cell_formula_units_Z 48
_cell_length_a 29.887871
_cell_length_b 5.175295
_cell_length_c 13.519239
_cell_angle_alpha 90.000000
_cell_angle_beta 90.000000
_cell_angle_gamma 90.000000
_cell_volume 2091.136277
_symmetry_space_group_name_H-M "A M A 2"
_symmetry_group_IT_number 40
_symmetry_cell_setting 'orthorhombic'
loop_
_space_group_symop_operation_xyz
x,y,z
-x,-y,z
1/2-x,y,z
1/2+x,-y,z
x,1/2+y,1/2+z
-x,1/2-y,1/2+z
1/2-x,1/2+y,1/2+z
1/2+x,1/2-y,1/2+z
loop_
_atom_site_type_symbol
_atom_site_label
_atom_site_fract_x
_atom_site_fract_y
_atom_site_fract_z
Si Si1 0.500000 0.500000 0.252780
Si Si2 0.635198 0.822388 0.118111
Si Si3 0.300120 0.066908 0.937982
Si Si4 0.951549 0.627293 0.619909
Si Si5 0.588153 0.449159 0.971136
Si Si6 0.000000 0.000000 0.381111
Si Si7 0.669381 0.924519 0.328720
O O1 0.539289 0.386351 0.183250
O O2 0.486281 0.247827 0.315454
O O3 0.590242 0.963995 0.156499
O O4 0.665970 0.836484 0.215124
O O5 0.616692 0.566376 0.062240
O O6 0.664311 0.940706 0.027861
O O7 0.250000 0.120747 0.974753
O O8 0.302401 0.790956 0.885728
O O9 0.313062 0.290707 0.858559
O O10 0.000000 0.500000 0.617292
O O11 0.934271 0.690017 0.510718
O O12 0.542910 0.599259 0.942040
O O13 0.620338 0.417154 0.879211
#
# Coordination Sequence:
#
# PCOD9365550 Si02
#       7
#     4   8   8   8   8   4   8
#     4  12  27  42  65 102 142 202 251 304 351 430
#     4  11  26  48  77 108 152 197 244 309 371 439
#     4  11  26  50  77 114 149 186 246 309 375 455
#     4  12  24  46  69 108 152 197 254 303 355 434
#     4  11  26  44  70 104 149 195 249 307 360 432
#     4  12  27  44  67 102 146 196 255 302 359 416
#     4  11  26  47  77 110 148 194 242 302 376 442
#
# _framework density 22.954028000000001
#
# number of rings (size 3 to 8) (size 9 to 14) (size 15 to 20)
#    0.000    0.667    2.500    4.000    8.167    1.333 
#    0.000    0.000    0.000    0.000    0.000    0.000 
#    0.000    0.000    0.000    0.000    0.000    0.000 
#
# Total GULP energy -133965.462363 kJ/mol
# GULP energy per Si atom -5581.894265 kJ/mol
# Density = 2.290178 g / cm^3
# Si number density = 22.954028 Si / 1000 Ang^3
#
#
#
# Elastic Constant Matrix: (Units=GPa)
#
#
# Indices 1 2 3 4 5 6 
#
# 1 115.1172 16.5470 19.1294 0.0000 0.0000 0.0000
# 2 16.5470 95.8656 22.7105 0.0000 0.0000 0.0000
# 3 19.1294 22.7105 103.2589 0.0000 0.0000 0.0000
# 4 0.0000 0.0000 0.0000 32.2689 0.0000 0.0000
# 5 0.0000 0.0000 0.0000 0.0000 11.9365 0.0000
# 6 0.0000 0.0000 0.0000 0.0000 0.0000 21.2619
#
#
#
# Elastic Compliance Matrix: (Units=1/GPa)
#
#
# Indices 1 2 3 4 5 6 
#
# 1 0.009099 -0.001236 -0.001414 0.000000 0.000000 0.000000
# 2 -0.001236 0.011172 -0.002228 0.000000 0.000000 0.000000
# 3 -0.001414 -0.002228 0.010436 0.000000 0.000000 0.000000
# 4 0.000000 0.000000 0.000000 0.030990 0.000000 0.000000
# 5 0.000000 0.000000 0.000000 0.000000 0.083777 0.000000
# 6 0.000000 0.000000 0.000000 0.000000 0.000000 0.047032
#
#
# Mechanical properties :
#
#
# Convention : Reuss Voigt Hill
#
# Bulk Modulus (GPa) = 47.72725 47.89062 47.80893
# Shear Modulus (GPa) = 23.89519 30.15044 27.02281
#
# Velocity S-wave (km/s) = 3.22996 3.62818 3.43484
# Velocity P-wave (km/s) = 5.89473 6.20166 6.05014
#
# Compressibility (1/GPa) = 0.02095239
#
# Stress axis : x y z
#
# Youngs Moduli (GPa) = 109.89769 89.50597 95.81815
#
# Poissons Ratio (x) = 0.11060 0.13548
# Poissons Ratio (y) = 0.13579 0.21351
# Poissons Ratio (z) = 0.15539 0.19945
#
# Static dielectric constant tensor:
#      x y z
#    x 1.997110 0.000000 0.000000 
#    y 0.000000 1.929440 0.000000 
#    z 0.000000 0.000000 1.916100 
# 
# From -- ./inp_files/18673.got.cif
#   From: 2010.05.17/outbox.cif.g08.bks.cpg/sg40_10_cif.got.tgz:18673.got - 2010.06.03 18:35:42.
