data_PCOD9365032
_publ_section_title
;
Structure prediction by ZEFSAII (Michael W. Deem and Ramdas Pophale) SiO2 
 PCOD9365032
Probable space group: A M A 2
;
_chemical_formula_sum "Si O2"
_cell_formula_units_Z 40
_cell_length_a 16.732156
_cell_length_b 5.086889
_cell_length_c 19.336632
_cell_angle_alpha 90.000000
_cell_angle_beta 90.000000
_cell_angle_gamma 90.000000
_cell_volume 1645.830091
_symmetry_space_group_name_H-M "A M A 2"
_symmetry_group_IT_number 40
_symmetry_cell_setting 'orthorhombic'
loop_
_space_group_symop_operation_xyz
x,y,z
-x,-y,z
1/2-x,y,z
1/2+x,-y,z
x,1/2+y,1/2+z
-x,1/2-y,1/2+z
1/2-x,1/2+y,1/2+z
1/2+x,1/2-y,1/2+z
loop_
_atom_site_type_symbol
_atom_site_label
_atom_site_fract_x
_atom_site_fract_y
_atom_site_fract_z
Si Si1 0.089121 0.389700 0.401440
Si Si2 0.912600 0.588388 0.691243
Si Si3 0.918989 0.345641 0.053630
Si Si4 0.157763 0.382537 0.258112
Si Si5 0.250000 0.642116 0.448876
Si Si6 0.250000 0.618869 0.033540
O O1 0.083772 0.225446 0.472601
O O2 0.115911 0.274948 0.328229
O O3 0.164194 0.585754 0.414242
O O4 0.000000 0.500000 0.393037
O O5 0.918761 0.612611 0.608452
O O6 0.849847 0.363615 0.707804
O O7 0.000000 0.500000 0.716505
O O8 0.887667 0.864229 0.726535
O O9 0.831920 0.467742 0.069074
O O10 0.000000 0.500000 0.067104
O O11 0.250000 0.451651 0.270702
O O12 0.250000 0.428049 0.512964
O O13 0.250000 0.949622 0.463970
#
# Coordination Sequence:
#
# PCOD9365032 Si02
#       6
#     8   8   8   8   4   4
#     4  11  23  45  76 110 149 199 248 317 386 455
#     4  12  27  51  77 110 155 206 259 323 391 469
#     4  11  25  47  77 117 149 202 257 319 388 467
#     4  12  28  50  76 114 155 206 265 320 390 469
#     4  10  22  42  62 106 146 190 237 306 363 452
#     4  10  24  40  68 102 152 188 239 302 379 438
#
# _framework density 24.303844999999999
#
# number of rings (size 3 to 8) (size 9 to 14) (size 15 to 20)
#    0.000    0.800    1.000    5.400    2.800   10.400 
#    0.000    0.000    0.000    0.000    0.000    0.000 
#    0.000    0.000    0.000    0.000    0.000    0.000 
#
# Total GULP energy -111718.465852 kJ/mol
# GULP energy per Si atom -5585.923293 kJ/mol
# Density = 2.424853 g / cm^3
# Si number density = 24.303845 Si / 1000 Ang^3
#
#
#
# Elastic Constant Matrix: (Units=GPa)
#
#
# Indices 1 2 3 4 5 6 
#
# 1 220.0862 21.7184 36.3323 0.0000 0.0000 0.0000
# 2 21.7184 80.4180 48.7125 0.0000 0.0000 0.0000
# 3 36.3323 48.7125 105.3673 0.0000 0.0000 0.0000
# 4 0.0000 0.0000 0.0000 22.4666 0.0000 0.0000
# 5 0.0000 0.0000 0.0000 0.0000 13.2414 0.0000
# 6 0.0000 0.0000 0.0000 0.0000 0.0000 25.6205
#
#
#
# Elastic Compliance Matrix: (Units=1/GPa)
#
#
# Indices 1 2 3 4 5 6 
#
# 1 0.004828 -0.000410 -0.001475 0.000000 0.000000 0.000000
# 2 -0.000410 0.017307 -0.007860 0.000000 0.000000 0.000000
# 3 -0.001475 -0.007860 0.013633 0.000000 0.000000 0.000000
# 4 0.000000 0.000000 0.000000 0.044510 0.000000 0.000000
# 5 0.000000 0.000000 0.000000 0.000000 0.075521 0.000000
# 6 0.000000 0.000000 0.000000 0.000000 0.000000 0.039031
#
#
# Mechanical properties :
#
#
# Convention : Reuss Voigt Hill
#
# Bulk Modulus (GPa) = 61.43502 68.82199 65.12851
# Shear Modulus (GPa) = 22.75361 32.20625 27.47993
#
# Velocity S-wave (km/s) = 3.06308 3.64421 3.36621
# Velocity P-wave (km/s) = 6.15165 6.78865 6.47798
#
# Compressibility (1/GPa) = 0.01627736
#
# Stress axis : x y z
#
# Youngs Moduli (GPa) = 207.13985 57.78095 73.35264
#
# Poissons Ratio (x) = 0.02371 0.10819
# Poissons Ratio (y) = 0.08500 0.57652
# Poissons Ratio (z) = 0.30552 0.45414
#
# Static dielectric constant tensor:
#      x y z
#    x 2.017580 0.000000 0.000000 
#    y 0.000000 1.982350 0.000000 
#    z 0.000000 0.000000 2.011180 
# 
# From -- ./inp_files/20919.got.cif
#   From: 2010.05.17/outbox.cif.g08.bks.cpg/sg40_11_cif.got.tgz:20919.got - 2010.06.03 18:35:42.
