data_PCOD9365948
_publ_section_title
;
Structure prediction by ZEFSAII (Michael W. Deem and Ramdas Pophale) SiO2 
 PCOD9365948
Probable space group: A B A 2
;
_chemical_formula_sum "Si O2"
_cell_formula_units_Z 56
_cell_length_a 5.600176
_cell_length_b 26.534539
_cell_length_c 18.283388
_cell_angle_alpha 90.000000
_cell_angle_beta 90.000000
_cell_angle_gamma 90.000000
_cell_volume 2716.876508
_symmetry_space_group_name_H-M "A B A 2"
_symmetry_group_IT_number 41
_symmetry_cell_setting 'orthorhombic'
loop_
_space_group_symop_operation_xyz
x,y,z
-x,-y,z
1/2-x,y,1/2+z
1/2+x,-y,1/2+z
x,1/2+y,1/2+z
-x,1/2-y,1/2+z
1/2-x,1/2+y,z
1/2+x,1/2-y,z
loop_
_atom_site_type_symbol
_atom_site_label
_atom_site_fract_x
_atom_site_fract_y
_atom_site_fract_z
Si Si1 0.781574 0.123890 0.872620
Si Si2 0.676797 0.048406 0.644777
Si Si3 0.550433 0.447732 0.779289
Si Si4 0.567723 0.381203 0.235217
Si Si5 0.277454 0.262895 0.923802
Si Si6 0.257038 0.224677 0.257062
Si Si7 0.259186 0.969883 0.979351
O O1 0.005450 0.099418 0.831608
O O2 0.599694 0.129669 0.804607
O O3 0.809903 0.178368 0.906355
O O4 0.727824 0.080968 0.931547
O O5 0.872432 0.048358 0.710086
O O6 0.556286 0.103142 0.659457
O O7 0.786872 0.044892 0.564575
O O8 0.500000 0.000000 0.647414
O O9 0.500000 0.500000 0.819148
O O10 0.811617 0.435033 0.753022
O O11 0.736546 0.332906 0.231026
O O12 0.520444 0.244353 0.961070
O O13 0.252381 0.232477 0.845897
O O14 0.509765 0.248255 0.232786
O O15 0.500000 0.000000 0.957788
O O16 0.000000 0.000000 0.974732
#
# Coordination Sequence:
#
# PCOD9365948 Si02
#       7
#     8   8   8   8   8   8   8
#     4  11  24  35  60  95 122 158 206 257 312 366
#     4  10  22  41  59  85 120 172 208 246 300 374
#     4  11  21  34  59  89 125 154 200 256 310 361
#     4  11  22  35  63  92 122 159 206 257 311 366
#     4  10  19  35  57  84 120 157 192 244 305 368
#     4  10  19  35  54  87 121 156 191 245 305 365
#     4  11  27  45  63  85 128 171 212 251 306 375
#
# _framework density 20.611906999999999
#
# number of rings (size 3 to 8) (size 9 to 14) (size 15 to 20)
#    0.000    1.429    4.286    2.571    8.000    0.000 
#    0.000    0.000    0.000    1.714    0.000    0.000 
#    0.000    0.000    0.000    0.000    0.000    0.000 
#
# Total GULP energy -155896.639816 kJ/mol
# GULP energy per Si atom -5567.737136 kJ/mol
# Density = 2.056499 g / cm^3
# Si number density = 20.611907 Si / 1000 Ang^3
#
#
#
# Elastic Constant Matrix: (Units=GPa)
#
#
# Indices 1 2 3 4 5 6 
#
# 1 94.5814 26.7738 -4.8696 0.0000 0.0000 0.0000
# 2 26.7738 108.0888 12.1281 0.0000 0.0000 0.0000
# 3 -4.8696 12.1281 53.1419 0.0000 0.0000 0.0000
# 4 0.0000 0.0000 0.0000 16.1750 0.0000 0.0000
# 5 0.0000 0.0000 0.0000 0.0000 -18.3879 0.0000
# 6 0.0000 0.0000 0.0000 0.0000 0.0000 39.6809
#
#
#
# Elastic Compliance Matrix: (Units=1/GPa)
#
#
# Indices 1 2 3 4 5 6 
#
# 1 0.011527 -0.003052 0.001753 0.000000 0.000000 0.000000
# 2 -0.003052 0.010303 -0.002631 0.000000 0.000000 0.000000
# 3 0.001753 -0.002631 0.019579 0.000000 0.000000 0.000000
# 4 0.000000 0.000000 0.000000 0.061824 0.000000 0.000000
# 5 0.000000 0.000000 0.000000 0.000000 -0.054384 0.000000
# 6 0.000000 0.000000 0.000000 0.000000 0.000000 0.025201
#
#
# Mechanical properties :
#
#
# Convention : Reuss Voigt Hill
#
# Bulk Modulus (GPa) = 29.80783 35.98630 32.89706
# Shear Modulus (GPa) = 53.70995 22.27893 37.99444
#
# Velocity S-wave (km/s) = 5.11022 3.29124 4.29805
# Velocity P-wave (km/s) = 7.02224 5.65154 6.37384
#
# Compressibility (1/GPa) = 0.03354824
#
# Stress axis : x y z
#
# Youngs Moduli (GPa) = 86.75217 97.06065 51.07617
#
# Poissons Ratio (x) = 0.29622 -0.08953
# Poissons Ratio (y) = 0.26476 0.13438
# Poissons Ratio (z) = -0.15206 0.25537
#
# Static dielectric constant tensor:
#      x y z
#    x 1.924750 0.000000 0.000000 
#    y 0.000000 1.759500 0.000000 
#    z 0.000000 0.000000 1.729520 
# 
# From -- ./inp_files/10991.got.cif
#   From: 2010.05.17/outbox.cif.g08.bks.cpg/sg41_6_cif.got.tgz:10991.got - 2010.06.03 18:54:24.
