data_PCOD9365394
_publ_section_title
;
Structure prediction by ZEFSAII (Michael W. Deem and Ramdas Pophale) SiO2 
 PCOD9365394
Probable space group: A M A 2
;
_chemical_formula_sum "Si O2"
_cell_formula_units_Z 64
_cell_length_a 8.165501
_cell_length_b 25.898883
_cell_length_c 15.512124
_cell_angle_alpha 90.000000
_cell_angle_beta 90.000000
_cell_angle_gamma 90.000000
_cell_volume 3280.462955
_symmetry_space_group_name_H-M "A M A 2"
_symmetry_group_IT_number 40
_symmetry_cell_setting 'orthorhombic'
loop_
_space_group_symop_operation_xyz
x,y,z
-x,-y,z
1/2-x,y,z
1/2+x,-y,z
x,1/2+y,1/2+z
-x,1/2-y,1/2+z
1/2-x,1/2+y,1/2+z
1/2+x,1/2-y,1/2+z
loop_
_atom_site_type_symbol
_atom_site_label
_atom_site_fract_x
_atom_site_fract_y
_atom_site_fract_z
Si Si1 0.049027 0.167843 0.740470
Si Si2 0.941669 0.365504 0.061498
Si Si3 0.943134 0.558064 0.913904
Si Si4 0.553255 0.234634 0.468402
Si Si5 0.555029 0.557169 0.554391
Si Si6 0.552744 0.348939 0.435888
Si Si7 0.048741 0.395547 0.732888
Si Si8 0.552871 0.717930 0.765834
O O1 0.250000 0.168222 0.739542
O O2 0.993782 0.134045 0.659493
O O3 0.998361 0.150060 0.835819
O O4 0.992865 0.227406 0.729721
O O5 0.750000 0.377392 0.063352
O O6 0.019167 0.404082 0.992897
O O7 0.967702 0.307163 0.027928
O O8 0.750000 0.556780 0.903184
O O9 0.010059 0.580544 0.823347
O O10 0.000000 0.500000 0.929624
O O11 0.750000 0.231631 0.481671
O O12 0.498274 0.294120 0.476892
O O13 0.522323 0.219064 0.368634
O O14 0.500000 0.500000 0.529735
O O15 0.750000 0.557623 0.557506
O O16 0.500331 0.601662 0.489140
O O17 0.493570 0.572166 0.650208
O O18 0.750000 0.346656 0.434416
O O19 0.250000 0.395141 0.733685
O O20 0.993030 0.335887 0.727196
O O21 0.750000 0.718290 0.755782
#
# Coordination Sequence:
#
# PCOD9365394 Si02
#       8
#     8   8   8   8   8   8   8   8
#     4   8  17  32  54  80 112 149 183 223 272 329
#     4  11  21  33  54  86 116 146 187 231 273 324
#     4  11  22  39  59  80 110 150 189 230 277 332
#     4   9  17  32  55  80 111 149 183 219 272 330
#     4  11  23  38  58  83 110 144 187 236 282 329
#     4   9  19  38  60  81 109 147 189 231 278 331
#     4   9  18  32  55  82 111 147 184 221 270 332
#     4   8  13  28  52  78 107 145 183 211 258 328
#
# _framework density 19.509442
#
# number of rings (size 3 to 8) (size 9 to 14) (size 15 to 20)
#    0.000    2.500    1.250    3.000    1.750    0.500 
#    0.000    3.750    0.000    1.500    0.000    0.000 
#    0.000    0.000    0.000    0.000    0.000    0.000 
#
# Total GULP energy -178549.345097 kJ/mol
# GULP energy per Si atom -5579.667034 kJ/mol
# Density = 1.946504 g / cm^3
# Si number density = 19.509442 Si / 1000 Ang^3
#
#
#
# Elastic Constant Matrix: (Units=GPa)
#
#
# Indices 1 2 3 4 5 6 
#
# 1 11.1794 8.2436 7.7650 0.0000 0.0000 0.0000
# 2 8.2436 140.6612 70.7354 0.0000 0.0000 0.0000
# 3 7.7650 70.7354 96.0899 0.0000 0.0000 0.0000
# 4 0.0000 0.0000 0.0000 3.2559 0.0000 0.0000
# 5 0.0000 0.0000 0.0000 0.0000 14.1470 0.0000
# 6 0.0000 0.0000 0.0000 0.0000 0.0000 24.0910
#
#
#
# Elastic Compliance Matrix: (Units=1/GPa)
#
#
# Indices 1 2 3 4 5 6 
#
# 1 0.095422 -0.002722 -0.005707 0.000000 0.000000 0.000000
# 2 -0.002722 0.011366 -0.008147 0.000000 0.000000 0.000000
# 3 -0.005707 -0.008147 0.016865 0.000000 0.000000 0.000000
# 4 0.000000 0.000000 0.000000 0.307132 0.000000 0.000000
# 5 0.000000 0.000000 0.000000 0.000000 0.070686 0.000000
# 6 0.000000 0.000000 0.000000 0.000000 0.000000 0.041509
#
#
# Mechanical properties :
#
#
# Convention : Reuss Voigt Hill
#
# Bulk Modulus (GPa) = 11.04963 46.82426 28.93694
# Shear Modulus (GPa) = 8.24676 19.04456 13.64566
#
# Velocity S-wave (km/s) = 2.05821 3.12776 2.64756
# Velocity P-wave (km/s) = 3.36517 6.09071 4.92042
#
# Compressibility (1/GPa) = 0.09050080
#
# Stress axis : x y z
#
# Youngs Moduli (GPa) = 10.47976 87.98482 59.29385
#
# Poissons Ratio (x) = 0.23953 0.33839
# Poissons Ratio (y) = 0.02853 0.48305
# Poissons Ratio (z) = 0.05981 0.71678
#
# Static dielectric constant tensor:
#      x y z
#    x 1.683840 0.000000 0.000000 
#    y 0.000000 1.693320 0.000000 
#    z 0.000000 0.000000 1.702760 
# 
# From -- ./inp_files/15667.got.cif
#   From: 2010.05.17/outbox.cif.g08.bks.cpg/sg40_8_cif.got.tgz:15667.got - 2010.06.03 18:35:42.
