data_PCOD9365988
_publ_section_title
;
Structure prediction by ZEFSAII (Michael W. Deem and Ramdas Pophale) SiO2 
 PCOD9365988
Probable space group: A B A 2
;
_chemical_formula_sum "Si O2"
_cell_formula_units_Z 52
_cell_length_a 9.250987
_cell_length_b 17.575127
_cell_length_c 16.749910
_cell_angle_alpha 90.000000
_cell_angle_beta 90.000000
_cell_angle_gamma 90.000000
_cell_volume 2723.322163
_symmetry_space_group_name_H-M "A B A 2"
_symmetry_group_IT_number 41
_symmetry_cell_setting 'orthorhombic'
loop_
_space_group_symop_operation_xyz
x,y,z
-x,-y,z
1/2-x,y,1/2+z
1/2+x,-y,1/2+z
x,1/2+y,1/2+z
-x,1/2-y,1/2+z
1/2-x,1/2+y,z
1/2+x,1/2-y,z
loop_
_atom_site_type_symbol
_atom_site_label
_atom_site_fract_x
_atom_site_fract_y
_atom_site_fract_z
Si Si1 0.715906 0.243548 0.960700
Si Si2 0.240094 0.030823 0.542083
Si Si3 0.982033 0.669914 0.368379
Si Si4 0.967371 0.282213 0.192432
Si Si5 0.500000 0.000000 0.420388
Si Si6 0.444642 0.886336 0.044148
Si Si7 0.177850 0.672842 0.630056
O O1 0.636308 0.301420 0.901657
O O2 0.863904 0.210392 0.925548
O O3 0.615241 0.170585 0.977893
O O4 0.721034 0.285863 0.046350
O O5 0.306187 0.083690 0.611928
O O6 0.094201 0.075412 0.515914
O O7 0.362184 0.018753 0.476120
O O8 0.175857 0.949066 0.564317
O O9 0.969123 0.698594 0.278255
O O10 0.970337 0.578413 0.373363
O O11 0.795922 0.295481 0.191887
O O12 0.022916 0.340553 0.124901
O O13 0.022376 0.201024 0.159707
#
# Coordination Sequence:
#
# PCOD9365988 Si02
#       7
#     8   8   8   8   4   8   8
#     4  11  21  38  61  88 117 161 207 253 298 368
#     4  10  19  36  60  88 111 152 205 255 293 356
#     4  12  24  38  58  92 129 157 201 259 315 373
#     4  10  22  37  57  89 119 157 193 249 309 363
#     4  12  24  36  58  96 124 156 204 266 308 360
#     4   9  20  38  62  82 114 158 204 244 306 366
#     4  10  20  38  62  84 113 157 206 245 290 362
#
# _framework density 19.094325000000001
#
# number of rings (size 3 to 8) (size 9 to 14) (size 15 to 20)
#    0.000    1.538    3.077    3.692    0.000    2.462 
#    0.000    0.000    0.000    0.000    0.000    0.000 
#    0.000    0.000    0.000    0.000    0.000    0.000 
#
# Total GULP energy -145032.419810 kJ/mol
# GULP energy per Si atom -5578.169993 kJ/mol
# Density = 1.905087 g / cm^3
# Si number density = 19.094325 Si / 1000 Ang^3
#
#
#
# Elastic Constant Matrix: (Units=GPa)
#
#
# Indices 1 2 3 4 5 6 
#
# 1 35.1798 20.7876 19.1615 0.0000 0.0000 0.0000
# 2 20.7876 103.6667 9.9574 0.0000 0.0000 0.0000
# 3 19.1615 9.9574 60.9706 0.0000 0.0000 0.0000
# 4 0.0000 0.0000 0.0000 17.8258 0.0000 0.0000
# 5 0.0000 0.0000 0.0000 0.0000 21.0125 0.0000
# 6 0.0000 0.0000 0.0000 0.0000 0.0000 29.0168
#
#
#
# Elastic Compliance Matrix: (Units=1/GPa)
#
#
# Indices 1 2 3 4 5 6 
#
# 1 0.038311 -0.006630 -0.010957 0.000000 0.000000 0.000000
# 2 -0.006630 0.010947 0.000296 0.000000 0.000000 0.000000
# 3 -0.010957 0.000296 0.019797 0.000000 0.000000 0.000000
# 4 0.000000 0.000000 0.000000 0.056098 0.000000 0.000000
# 5 0.000000 0.000000 0.000000 0.000000 0.047591 0.000000
# 6 0.000000 0.000000 0.000000 0.000000 0.000000 0.034463
#
#
# Mechanical properties :
#
#
# Convention : Reuss Voigt Hill
#
# Bulk Modulus (GPa) = 29.00895 33.29222 31.15058
# Shear Modulus (GPa) = 19.74092 23.56507 21.65299
#
# Velocity S-wave (km/s) = 3.21886 3.51684 3.37115
# Velocity P-wave (km/s) = 5.38890 5.82790 5.61269
#
# Compressibility (1/GPa) = 0.03447212
#
# Stress axis : x y z
#
# Youngs Moduli (GPa) = 26.10202 91.34653 50.51345
#
# Poissons Ratio (x) = 0.60561 0.55350
# Poissons Ratio (y) = 0.17305 -0.01494
# Poissons Ratio (z) = 0.28601 -0.02701
#
# Static dielectric constant tensor:
#      x y z
#    x 1.720220 0.000000 0.000000 
#    y 0.000000 1.691290 0.000000 
#    z 0.000000 0.000000 1.631810 
# 
# From -- ./inp_files/9718.got.cif
#   From: 2010.05.17/outbox.cif.g08.bks.cpg/sg41_5_cif.got.tgz:9718.got - 2010.06.03 18:54:24.
