data_PCOD9365445
_publ_section_title
;
Structure prediction by ZEFSAII (Michael W. Deem and Ramdas Pophale) SiO2 
 PCOD9365445
Probable space group: A M A 2
;
_chemical_formula_sum "Si O2"
_cell_formula_units_Z 64
_cell_length_a 30.169168
_cell_length_b 9.622639
_cell_length_c 10.224572
_cell_angle_alpha 90.000000
_cell_angle_beta 90.000000
_cell_angle_gamma 90.000000
_cell_volume 2968.264952
_symmetry_space_group_name_H-M "A M A 2"
_symmetry_group_IT_number 40
_symmetry_cell_setting 'orthorhombic'
loop_
_space_group_symop_operation_xyz
x,y,z
-x,-y,z
1/2-x,y,z
1/2+x,-y,z
x,1/2+y,1/2+z
-x,1/2-y,1/2+z
1/2-x,1/2+y,1/2+z
1/2+x,1/2-y,1/2+z
loop_
_atom_site_type_symbol
_atom_site_label
_atom_site_fract_x
_atom_site_fract_y
_atom_site_fract_z
Si Si1 0.040537 0.585530 0.327270
Si Si2 0.137060 0.562512 0.453419
Si Si3 0.414671 0.409303 0.126767
Si Si4 0.699921 0.162061 0.042267
Si Si5 0.835349 0.956393 0.493271
Si Si6 0.542272 0.096479 0.346705
Si Si7 0.892046 0.880761 0.237618
Si Si8 0.199714 0.792656 0.338492
O O1 0.086411 0.561731 0.405792
O O2 0.051090 0.515735 0.188848
O O3 0.030261 0.747446 0.305467
O O4 0.000000 0.500000 0.389224
O O5 0.163751 0.418168 0.456136
O O6 0.136321 0.606882 0.605522
O O7 0.164258 0.674308 0.369898
O O8 0.412793 0.272536 0.217320
O O9 0.367812 0.487640 0.107153
O O10 0.430210 0.377115 0.979964
O O11 0.750000 0.118808 0.008513
O O12 0.692288 0.138763 0.196763
O O13 0.694383 0.326977 0.031352
O O14 0.864993 0.900576 0.371306
O O15 0.807550 0.086614 0.443449
O O16 0.500000 0.000000 0.372608
O O17 0.572479 0.007095 0.246833
O O18 0.250000 0.739036 0.342408
#
# Coordination Sequence:
#
# PCOD9365445 Si02
#       8
#     8   8   8   8   8   8   8   8
#     4  12  26  46  69 100 135 179 228 283 343 402
#     4  12  23  45  70  95 138 179 223 279 340 401
#     4  11  23  44  67  97 134 177 226 277 339 396
#     4  11  25  42  67 103 137 179 228 276 337 402
#     4  11  22  40  69  97 134 178 223 277 333 402
#     4  11  25  44  65  94 134 170 224 282 332 401
#     4  11  22  42  68  96 129 180 221 268 340 398
#     4  11  23  43  68  96 135 178 223 279 338 403
#
# _framework density 21.561418
#
# number of rings (size 3 to 8) (size 9 to 14) (size 15 to 20)
#    0.000    0.750    3.750    4.125    1.750    1.500 
#    2.250    0.000    0.000    0.000    0.000    0.000 
#    0.000    0.000    0.000    0.000    0.000    0.000 
#
# Total GULP energy -178833.124814 kJ/mol
# GULP energy per Si atom -5588.535150 kJ/mol
# Density = 2.151234 g / cm^3
# Si number density = 21.561418 Si / 1000 Ang^3
#
#
#
# Elastic Constant Matrix: (Units=GPa)
#
#
# Indices 1 2 3 4 5 6 
#
# 1 127.1433 52.5792 22.2003 0.0000 0.0000 0.0000
# 2 52.5792 140.3591 20.5990 0.0000 0.0000 0.0000
# 3 22.2003 20.5990 36.5239 0.0000 0.0000 0.0000
# 4 0.0000 0.0000 0.0000 25.3984 0.0000 0.0000
# 5 0.0000 0.0000 0.0000 0.0000 29.8546 0.0000
# 6 0.0000 0.0000 0.0000 0.0000 0.0000 28.5798
#
#
#
# Elastic Compliance Matrix: (Units=1/GPa)
#
#
# Indices 1 2 3 4 5 6 
#
# 1 0.009883 -0.003075 -0.004273 0.000000 0.000000 0.000000
# 2 -0.003075 0.008724 -0.003051 0.000000 0.000000 0.000000
# 3 -0.004273 -0.003051 0.031697 0.000000 0.000000 0.000000
# 4 0.000000 0.000000 0.000000 0.039373 0.000000 0.000000
# 5 0.000000 0.000000 0.000000 0.000000 0.033496 0.000000
# 6 0.000000 0.000000 0.000000 0.000000 0.000000 0.034990
#
#
# Mechanical properties :
#
#
# Convention : Reuss Voigt Hill
#
# Bulk Modulus (GPa) = 33.89112 54.97590 44.43351
# Shear Modulus (GPa) = 26.48356 30.67641 28.57998
#
# Velocity S-wave (km/s) = 3.50849 3.77602 3.64471
# Velocity P-wave (km/s) = 5.67144 6.67561 6.19391
#
# Compressibility (1/GPa) = 0.02950625
#
# Stress axis : x y z
#
# Youngs Moduli (GPa) = 101.18494 114.62190 31.54835
#
# Poissons Ratio (x) = 0.35247 0.13480
# Poissons Ratio (y) = 0.31115 0.09626
# Poissons Ratio (z) = 0.43234 0.34974
#
# Static dielectric constant tensor:
#      x y z
#    x 1.818580 0.000000 0.000000 
#    y 0.000000 1.806860 0.000000 
#    z 0.000000 0.000000 1.780360 
# 
# From -- ./inp_files/14406.got.cif
#   From: 2010.05.17/outbox.cif.g08.bks.cpg/sg40_8_cif.got.tgz:14406.got - 2010.06.03 18:35:42.
