data_PCOD9365300
_publ_section_title
;
Structure prediction by ZEFSAII (Michael W. Deem and Ramdas Pophale) SiO2 
 PCOD9365300
Probable space group: A M A 2
;
_chemical_formula_sum "Si O2"
_cell_formula_units_Z 56
_cell_length_a 19.079083
_cell_length_b 15.223380
_cell_length_c 10.082150
_cell_angle_alpha 90.000000
_cell_angle_beta 90.000000
_cell_angle_gamma 90.000000
_cell_volume 2928.341620
_symmetry_space_group_name_H-M "A M A 2"
_symmetry_group_IT_number 40
_symmetry_cell_setting 'orthorhombic'
loop_
_space_group_symop_operation_xyz
x,y,z
-x,-y,z
1/2-x,y,z
1/2+x,-y,z
x,1/2+y,1/2+z
-x,1/2-y,1/2+z
1/2-x,1/2+y,1/2+z
1/2+x,1/2-y,1/2+z
loop_
_atom_site_type_symbol
_atom_site_label
_atom_site_fract_x
_atom_site_fract_y
_atom_site_fract_z
Si Si1 0.331442 0.108655 0.232200
Si Si2 0.167515 0.921241 0.367623
Si Si3 0.666909 0.204757 0.867364
Si Si4 0.942716 0.387952 0.233986
Si Si5 0.099141 0.923252 0.653583
Si Si6 0.908404 0.196839 0.147590
Si Si7 0.037330 0.594331 0.548229
O O1 0.250000 0.113891 0.188173
O O2 0.348148 0.197347 0.312706
O O3 0.386111 0.097337 0.113011
O O4 0.338464 0.023039 0.324396
O O5 0.250000 0.898893 0.373176
O O6 0.131784 0.908923 0.509723
O O7 0.128622 0.863261 0.257335
O O8 0.750000 0.196578 0.882771
O O9 0.639130 0.135330 0.760837
O O10 0.630187 0.188201 0.007182
O O11 0.899061 0.474320 0.194891
O O12 0.907523 0.297329 0.193409
O O13 0.957990 0.389067 0.391217
O O14 0.017496 0.396455 0.160306
O O15 0.987639 0.164352 0.121545
O O16 0.000000 0.500000 0.567509
#
# Coordination Sequence:
#
# PCOD9365300 Si02
#       7
#     8   8   8   8   8   8   8
#     4  10  24  44  68  97 134 177 226 273 338 405
#     4  11  25  44  65  98 135 172 221 275 331 397
#     4  11  23  44  69  95 131 181 226 272 336 400
#     4  11  25  42  67  98 133 169 225 275 333 393
#     4  11  23  44  66  96 134 171 217 276 330 400
#     4  12  25  41  69  98 134 173 221 282 330 395
#     4  12  22  44  67 102 136 171 224 280 333 396
#
# _framework density 19.123452
#
# number of rings (size 3 to 8) (size 9 to 14) (size 15 to 20)
#    0.000    0.857    4.286    2.571    4.000    2.286 
#    0.000    3.571    0.000    0.000    0.000    0.000 
#    0.000    0.000    0.000    0.000    0.000    0.000 
#
# Total GULP energy -156622.027682 kJ/mol
# GULP energy per Si atom -5593.643846 kJ/mol
# Density = 1.907993 g / cm^3
# Si number density = 19.123452 Si / 1000 Ang^3
#
#
#
# Elastic Constant Matrix: (Units=GPa)
#
#
# Indices 1 2 3 4 5 6 
#
# 1 90.0868 39.9981 86.3170 0.0000 0.0000 0.0000
# 2 39.9981 128.5977 70.8940 0.0000 0.0000 0.0000
# 3 86.3170 70.8940 160.5928 0.0000 0.0000 0.0000
# 4 0.0000 0.0000 0.0000 152.6704 0.0000 0.0000
# 5 0.0000 0.0000 0.0000 0.0000 25.0633 0.0000
# 6 0.0000 0.0000 0.0000 0.0000 0.0000 27.5661
#
#
#
# Elastic Compliance Matrix: (Units=1/GPa)
#
#
# Indices 1 2 3 4 5 6 
#
# 1 0.022907 -0.000446 -0.012115 0.000000 0.000000 0.000000
# 2 -0.000446 0.010286 -0.004301 0.000000 0.000000 0.000000
# 3 -0.012115 -0.004301 0.014638 0.000000 0.000000 0.000000
# 4 0.000000 0.000000 0.000000 0.006550 0.000000 0.000000
# 5 0.000000 0.000000 0.000000 0.000000 0.039899 0.000000
# 6 0.000000 0.000000 0.000000 0.000000 0.000000 0.036276
#
#
# Mechanical properties :
#
#
# Convention : Reuss Voigt Hill
#
# Bulk Modulus (GPa) = 70.89321 85.96617 78.42969
# Shear Modulus (GPa) = 29.58893 53.19784 41.39339
#
# Velocity S-wave (km/s) = 3.93779 5.28001 4.65750
# Velocity P-wave (km/s) = 7.60439 9.06765 8.36806
#
# Compressibility (1/GPa) = 0.01410572
#
# Stress axis : x y z
#
# Youngs Moduli (GPa) = 43.65541 97.21941 68.31726
#
# Poissons Ratio (x) = 0.04333 0.82769
# Poissons Ratio (y) = 0.01946 0.29385
# Poissons Ratio (z) = 0.52890 0.41816
#
# Static dielectric constant tensor:
#      x y z
#    x 1.653100 0.000000 0.000000 
#    y 0.000000 1.662900 0.000000 
#    z 0.000000 0.000000 1.615830 
# 
# From -- ./inp_files/8334.got.cif
#   From: 2010.05.17/outbox.cif.g08.bks.cpg/sg40_5_cif.got.tgz:8334.got - 2010.06.03 18:35:42.
