data_PCOD9365531
_publ_section_title
;
Structure prediction by ZEFSAII (Michael W. Deem and Ramdas Pophale) SiO2 
 PCOD9365531
Probable space group: A M A 2
;
_chemical_formula_sum "Si O2"
_cell_formula_units_Z 60
_cell_length_a 16.861533
_cell_length_b 18.065388
_cell_length_c 9.573498
_cell_angle_alpha 90.000000
_cell_angle_beta 90.000000
_cell_angle_gamma 90.000000
_cell_volume 2916.184527
_symmetry_space_group_name_H-M "A M A 2"
_symmetry_group_IT_number 40
_symmetry_cell_setting 'orthorhombic'
loop_
_space_group_symop_operation_xyz
x,y,z
-x,-y,z
1/2-x,y,z
1/2+x,-y,z
x,1/2+y,1/2+z
-x,1/2-y,1/2+z
1/2-x,1/2+y,1/2+z
1/2+x,1/2-y,1/2+z
loop_
_atom_site_type_symbol
_atom_site_label
_atom_site_fract_x
_atom_site_fract_y
_atom_site_fract_z
Si Si1 0.383231 0.658082 0.477500
Si Si2 0.158511 0.087543 0.679070
Si Si3 0.250000 0.152861 0.214153
Si Si4 0.573231 0.179918 0.391574
Si Si5 0.462778 0.418959 0.431738
Si Si6 0.571241 0.056900 0.625092
Si Si7 0.156125 0.843639 0.096109
Si Si8 0.389489 0.192951 0.437586
O O1 0.363080 0.616044 0.332848
O O2 0.319619 0.639923 0.594299
O O3 0.386338 0.745785 0.450787
O O4 0.473262 0.633031 0.507156
O O5 0.250000 0.103979 0.653341
O O6 0.110332 0.134195 0.564729
O O7 0.141402 0.000546 0.661075
O O8 0.320856 0.170337 0.330168
O O9 0.585874 0.113166 0.500600
O O10 0.614195 0.162322 0.245239
O O11 0.478610 0.193675 0.376418
O O12 0.500000 0.500000 0.433365
O O13 0.450147 0.400353 0.268512
O O14 0.380654 0.412729 0.512853
O O15 0.500000 0.000000 0.591380
O O16 0.250000 0.847626 0.111696
O O17 0.132882 0.771978 0.004214
#
# Coordination Sequence:
#
# PCOD9365531 Si02
#       8
#     8   8   4   8   8   8   8   8
#     4  12  24  44  75 108 140 185 247 304 355 444
#     4  12  23  47  74 103 144 190 233 303 374 432
#     4  12  28  40  68 114 142 182 244 298 356 434
#     4  12  27  44  76 106 141 191 251 298 368 446
#     4  11  24  47  74 102 141 191 245 293 374 449
#     4  11  24  45  75 104 135 189 247 296 359 449
#     4  12  27  46  69 106 150 191 233 316 377 426
#     4  12  24  45  72 106 145 191 238 297 371 447
#
# _framework density 20.574829999999999
#
# number of rings (size 3 to 8) (size 9 to 14) (size 15 to 20)
#    0.000    0.267    8.667    0.800    2.800    1.600 
#    3.600    0.000    0.000    0.000    0.000    0.000 
#    0.000    0.000    0.000    0.000    0.000    0.000 
#
# Total GULP energy -167248.770025 kJ/mol
# GULP energy per Si atom -5574.959001 kJ/mol
# Density = 2.052800 g / cm^3
# Si number density = 20.574830 Si / 1000 Ang^3
#
#
#
# Elastic Constant Matrix: (Units=GPa)
#
#
# Indices 1 2 3 4 5 6 
#
# 1 135.5639 18.5953 67.3741 0.0000 0.0000 0.0000
# 2 18.5953 53.4522 39.2172 0.0000 0.0000 0.0000
# 3 67.3741 39.2172 141.4041 0.0000 0.0000 0.0000
# 4 0.0000 0.0000 0.0000 21.0175 0.0000 0.0000
# 5 0.0000 0.0000 0.0000 0.0000 48.0910 0.0000
# 6 0.0000 0.0000 0.0000 0.0000 0.0000 19.8896
#
#
#
# Elastic Compliance Matrix: (Units=1/GPa)
#
#
# Indices 1 2 3 4 5 6 
#
# 1 0.009665 0.000021 -0.004611 0.000000 0.000000 0.000000
# 2 0.000021 0.023488 -0.006524 0.000000 0.000000 0.000000
# 3 -0.004611 -0.006524 0.011078 0.000000 0.000000 0.000000
# 4 0.000000 0.000000 0.000000 0.047579 0.000000 0.000000
# 5 0.000000 0.000000 0.000000 0.000000 0.020794 0.000000
# 6 0.000000 0.000000 0.000000 0.000000 0.000000 0.050277
#
#
# Mechanical properties :
#
#
# Convention : Reuss Voigt Hill
#
# Bulk Modulus (GPa) = 45.44898 64.53261 54.99079
# Shear Modulus (GPa) = 25.98149 31.48187 28.73168
#
# Velocity S-wave (km/s) = 3.55742 3.91591 3.74096
# Velocity P-wave (km/s) = 6.24589 7.20269 6.74129
#
# Compressibility (1/GPa) = 0.02200270
#
# Stress axis : x y z
#
# Youngs Moduli (GPa) = 103.46229 42.57557 90.26737
#
# Poissons Ratio (x) = -0.00087 0.41621
# Poissons Ratio (y) = -0.00212 0.58889
# Poissons Ratio (z) = 0.47705 0.27776
#
# Static dielectric constant tensor:
#      x y z
#    x 1.762910 0.000000 0.000000 
#    y 0.000000 1.750350 0.000000 
#    z 0.000000 0.000000 1.711780 
# 
# From -- ./inp_files/7693.got.cif
#   From: 2010.05.17/outbox.cif.g08.bks.cpg/sg40_4_cif.got.tgz:7693.got - 2010.06.03 18:35:42.
