data_PCOD9365824
_publ_section_title
;
Structure prediction by ZEFSAII (Michael W. Deem and Ramdas Pophale) SiO2 
 PCOD9365824
Probable space group: A B A 2
;
_chemical_formula_sum "Si O2"
_cell_formula_units_Z 64
_cell_length_a 11.001628
_cell_length_b 9.885401
_cell_length_c 21.816225
_cell_angle_alpha 90.000000
_cell_angle_beta 90.000000
_cell_angle_gamma 90.000000
_cell_volume 2372.634555
_symmetry_space_group_name_H-M "A B A 2"
_symmetry_group_IT_number 41
_symmetry_cell_setting 'orthorhombic'
loop_
_space_group_symop_operation_xyz
x,y,z
-x,-y,z
1/2-x,y,1/2+z
1/2+x,-y,1/2+z
x,1/2+y,1/2+z
-x,1/2-y,1/2+z
1/2-x,1/2+y,z
1/2+x,1/2-y,z
loop_
_atom_site_type_symbol
_atom_site_label
_atom_site_fract_x
_atom_site_fract_y
_atom_site_fract_z
Si Si1 0.769992 0.877929 0.238600
Si Si2 0.359414 0.220060 0.917704
Si Si3 0.310750 0.526824 0.605983
Si Si4 0.104251 0.912640 0.807244
Si Si5 0.272058 0.461062 0.465474
Si Si6 0.933422 0.371375 0.490185
Si Si7 0.467706 0.780904 0.106199
Si Si8 0.534533 0.706975 0.230893
O O1 0.757318 0.913513 0.165498
O O2 0.677661 0.744682 0.245478
O O3 0.916039 0.882744 0.251970
O O4 0.708778 0.989118 0.282861
O O5 0.358054 0.287171 0.850611
O O6 0.246784 0.305557 0.948633
O O7 0.365331 0.059272 0.930370
O O8 0.476078 0.277588 0.952739
O O9 0.265038 0.481927 0.538710
O O10 0.374674 0.391726 0.631587
O O11 0.415204 0.633122 0.585655
O O12 0.027589 0.848817 0.751272
O O13 0.000000 0.000000 0.840028
O O14 0.155081 0.548252 0.445333
O O15 0.899149 0.288098 0.550448
O O16 0.000000 0.500000 0.520229
O O17 0.524514 0.687817 0.158268
#
# Coordination Sequence:
#
# PCOD9365824 Si02
#       8
#     8   8   8   8   8   8   8   8
#     4  10  21  39  65  98 128 177 226 284 349 418
#     4  11  24  41  62  95 127 175 227 275 338 411
#     4  10  19  35  63  90 125 165 220 267 339 409
#     4  10  21  42  66  87 126 182 231 273 344 426
#     4  11  22  38  61  91 125 168 213 279 332 400
#     4  10  21  38  58  88 124 164 214 267 339 397
#     4  10  18  36  61  91 124 167 212 270 335 416
#     4  10  21  39  65  95 128 172 227 283 346 409
#
# _framework density 26.974233999999999
#
# number of rings (size 3 to 8) (size 9 to 14) (size 15 to 20)
#    0.000    1.750    2.500    2.625    1.750    0.000 
#    2.250    0.625    0.000    1.500    0.000    0.000 
#    0.000    0.000    0.000    0.000    0.000    0.000 
#
# Total GULP energy -178150.513112 kJ/mol
# GULP energy per Si atom -5567.203535 kJ/mol
# Density = 2.691284 g / cm^3
# Si number density = 26.974234 Si / 1000 Ang^3
#
#
#
# Elastic Constant Matrix: (Units=GPa)
#
#
# Indices 1 2 3 4 5 6 
#
# 1 97.3824 36.0212 19.1791 0.0000 0.0000 0.0000
# 2 36.0212 28.1877 -3.4672 0.0000 0.0000 0.0000
# 3 19.1791 -3.4672 121.5662 0.0000 0.0000 0.0000
# 4 0.0000 0.0000 0.0000 26.4332 0.0000 0.0000
# 5 0.0000 0.0000 0.0000 0.0000 38.1114 0.0000
# 6 0.0000 0.0000 0.0000 0.0000 0.0000 47.9300
#
#
#
# Elastic Compliance Matrix: (Units=1/GPa)
#
#
# Indices 1 2 3 4 5 6 
#
# 1 0.021391 -0.027848 -0.004169 0.000000 0.000000 0.000000
# 2 -0.027848 0.071856 0.006443 0.000000 0.000000 0.000000
# 3 -0.004169 0.006443 0.009067 0.000000 0.000000 0.000000
# 4 0.000000 0.000000 0.000000 0.037831 0.000000 0.000000
# 5 0.000000 0.000000 0.000000 0.000000 0.026239 0.000000
# 6 0.000000 0.000000 0.000000 0.000000 0.000000 0.020864
#
#
# Mechanical properties :
#
#
# Convention : Reuss Voigt Hill
#
# Bulk Modulus (GPa) = 19.54421 38.95584 29.25003
# Shear Modulus (GPa) = 19.57314 35.52181 27.54747
#
# Velocity S-wave (km/s) = 2.69666 3.63282 3.19917
# Velocity P-wave (km/s) = 4.11791 5.66301 4.95111
#
# Compressibility (1/GPa) = 0.05116605
#
# Stress axis : x y z
#
# Youngs Moduli (GPa) = 46.74921 13.91666 110.28451
#
# Poissons Ratio (x) = 0.38755 0.45978
# Poissons Ratio (y) = 1.30188 -0.71055
# Poissons Ratio (z) = 0.19490 -0.08966
#
# Static dielectric constant tensor:
#      x y z
#    x 2.379060 0.000000 0.000000 
#    y 0.000000 2.245530 0.000000 
#    z 0.000000 0.000000 2.140820 
# 
# From -- ./inp_files/12158.got.cif
#   From: 2010.05.17/outbox.cif.g08.bks.cpg/sg41_7_cif.got.tgz:12158.got - 2010.06.03 18:54:24.
