data_PCOD9365413
_publ_section_title
;
Structure prediction by ZEFSAII (Michael W. Deem and Ramdas Pophale) SiO2 
 PCOD9365413
Probable space group: A M A 2
;
_chemical_formula_sum "Si O2"
_cell_formula_units_Z 48
_cell_length_a 14.818604
_cell_length_b 7.853166
_cell_length_c 18.579988
_cell_angle_alpha 90.000000
_cell_angle_beta 90.000000
_cell_angle_gamma 90.000000
_cell_volume 2162.208146
_symmetry_space_group_name_H-M "A M A 2"
_symmetry_group_IT_number 40
_symmetry_cell_setting 'orthorhombic'
loop_
_space_group_symop_operation_xyz
x,y,z
-x,-y,z
1/2-x,y,z
1/2+x,-y,z
x,1/2+y,1/2+z
-x,1/2-y,1/2+z
1/2-x,1/2+y,1/2+z
1/2+x,1/2-y,1/2+z
loop_
_atom_site_type_symbol
_atom_site_label
_atom_site_fract_x
_atom_site_fract_y
_atom_site_fract_z
Si Si1 0.750000 0.347928 0.586571
Si Si2 0.440761 0.326133 0.471091
Si Si3 0.589202 0.102965 0.123368
Si Si4 0.083595 0.607712 0.231761
Si Si5 0.250000 0.857761 0.736671
Si Si6 0.750000 0.618670 0.393783
Si Si7 0.441973 0.851309 0.360171
Si Si8 0.250000 0.280777 0.920297
O O1 0.663043 0.470083 0.594264
O O2 0.750000 0.242497 0.661386
O O3 0.750000 0.250861 0.508368
O O4 0.500000 0.500000 0.467156
O O5 0.433224 0.282651 0.554442
O O6 0.341803 0.343174 0.436748
O O7 0.497129 0.190155 0.428351
O O8 0.616256 0.229534 0.186281
O O9 0.500000 0.000000 0.144829
O O10 0.162652 0.474577 0.237733
O O11 0.056635 0.687488 0.308245
O O12 0.000000 0.500000 0.200795
O O13 0.250000 0.780691 0.817615
O O14 0.750000 0.411679 0.387481
O O15 0.339866 0.872004 0.389347
O O16 0.500000 0.000000 0.322119
#
# Coordination Sequence:
#
# PCOD9365413 Si02
#       8
#     4   8   8   8   4   4   8   4
#     4  12  25  44  72 104 136 182 233 289 350 422
#     4  11  21  40  69  96 126 180 231 274 343 421
#     4  11  23  41  66  97 135 176 225 281 342 413
#     4  12  25  44  66  95 139 183 227 281 352 419
#     4  12  25  40  68  97 130 180 228 282 344 423
#     4  12  20  41  71  95 126 179 230 277 336 423
#     4  12  26  43  70 103 139 181 237 296 343 414
#     4  12  22  47  73  98 138 181 229 286 356 420
#
# _framework density 22.199527
#
# number of rings (size 3 to 8) (size 9 to 14) (size 15 to 20)
#    0.000    0.333    5.000    4.500    0.000    4.000 
#    0.000    0.833    0.000    0.000    0.000    0.000 
#    0.000    0.000    0.000    0.000    0.000    0.000 
#
# Total GULP energy -134110.214362 kJ/mol
# GULP energy per Si atom -5587.925598 kJ/mol
# Density = 2.214900 g / cm^3
# Si number density = 22.199527 Si / 1000 Ang^3
#
#
#
# Elastic Constant Matrix: (Units=GPa)
#
#
# Indices 1 2 3 4 5 6 
#
# 1 143.4764 20.7978 -0.0507 0.0000 0.0000 0.0000
# 2 20.7978 40.4323 21.3851 0.0000 0.0000 0.0000
# 3 -0.0507 21.3851 116.6786 0.0000 0.0000 0.0000
# 4 0.0000 0.0000 0.0000 36.5271 0.0000 0.0000
# 5 0.0000 0.0000 0.0000 0.0000 17.3295 0.0000
# 6 0.0000 0.0000 0.0000 0.0000 0.0000 17.8815
#
#
#
# Elastic Compliance Matrix: (Units=1/GPa)
#
#
# Indices 1 2 3 4 5 6 
#
# 1 0.007598 -0.004330 0.000797 0.000000 0.000000 0.000000
# 2 -0.004330 0.029855 -0.005474 0.000000 0.000000 0.000000
# 3 0.000797 -0.005474 0.009574 0.000000 0.000000 0.000000
# 4 0.000000 0.000000 0.000000 0.027377 0.000000 0.000000
# 5 0.000000 0.000000 0.000000 0.000000 0.057705 0.000000
# 6 0.000000 0.000000 0.000000 0.000000 0.000000 0.055924
#
#
# Mechanical properties :
#
#
# Convention : Reuss Voigt Hill
#
# Bulk Modulus (GPa) = 34.46644 42.76128 38.61386
# Shear Modulus (GPa) = 23.17853 31.57795 27.37824
#
# Velocity S-wave (km/s) = 3.23476 3.77564 3.51562
# Velocity P-wave (km/s) = 5.43240 6.18962 5.82333
#
# Compressibility (1/GPa) = 0.02901373
#
# Stress axis : x y z
#
# Youngs Moduli (GPa) = 131.61926 33.49530 104.44804
#
# Poissons Ratio (x) = 0.14502 -0.08323
# Poissons Ratio (y) = 0.56986 0.57172
# Poissons Ratio (z) = -0.10488 0.18335
#
# Static dielectric constant tensor:
#      x y z
#    x 1.856240 0.000000 0.000000 
#    y 0.000000 1.901000 0.000000 
#    z 0.000000 0.000000 1.828830 
# 
# From -- ./inp_files/20617.got.cif
#   From: 2010.05.17/outbox.cif.g08.bks.cpg/sg40_11_cif.got.tgz:20617.got - 2010.06.03 18:35:42.
