data_PCOD9365607
_publ_section_title
;
Structure prediction by ZEFSAII (Michael W. Deem and Ramdas Pophale) SiO2 
 PCOD9365607
Probable space group: A M A 2
;
_chemical_formula_sum "Si O2"
_cell_formula_units_Z 48
_cell_length_a 19.084676
_cell_length_b 12.131939
_cell_length_c 8.884756
_cell_angle_alpha 90.000000
_cell_angle_beta 90.000000
_cell_angle_gamma 90.000000
_cell_volume 2057.124207
_symmetry_space_group_name_H-M "A M A 2"
_symmetry_group_IT_number 40
_symmetry_cell_setting 'orthorhombic'
loop_
_space_group_symop_operation_xyz
x,y,z
-x,-y,z
1/2-x,y,z
1/2+x,-y,z
x,1/2+y,1/2+z
-x,1/2-y,1/2+z
1/2-x,1/2+y,1/2+z
1/2+x,1/2-y,1/2+z
loop_
_atom_site_type_symbol
_atom_site_label
_atom_site_fract_x
_atom_site_fract_y
_atom_site_fract_z
Si Si1 0.435440 0.355575 0.284440
Si Si2 0.669398 0.986764 0.643639
Si Si3 0.909453 0.814686 0.841855
Si Si4 0.927668 0.478103 0.577042
Si Si5 0.827760 0.630519 0.716468
Si Si6 0.172810 0.705786 0.923808
O O1 0.388835 0.419906 0.162880
O O2 0.516953 0.332230 0.254080
O O3 0.434059 0.438320 0.431273
O O4 0.392642 0.247046 0.329258
O O5 0.750000 0.023478 0.665132
O O6 0.649017 0.896528 0.772042
O O7 0.664650 0.915533 0.492297
O O8 0.922843 0.856848 0.009390
O O9 0.880693 0.693119 0.825417
O O10 0.859627 0.515691 0.664444
O O11 0.000000 0.500000 0.663136
O O12 0.750000 0.622532 0.778466
O O13 0.825661 0.709634 0.567637
O O14 0.250000 0.715315 0.851509
#
# Coordination Sequence:
#
# PCOD9365607 Si02
#       6
#     8   8   8   8   8   8
#     4   9  15  24  38  59  92 124 155 200 245 286
#     4   9  15  23  37  59  90 124 158 199 243 289
#     4   9  16  25  38  62  96 125 158 204 245 291
#     4   8  15  26  40  61  92 126 161 201 243 290
#     4   9  16  25  40  65  95 126 161 201 245 294
#     4   8  14  23  36  58  89 123 158 197 241 290
#
# _framework density 23.333544
#
# number of rings (size 3 to 8) (size 9 to 14) (size 15 to 20)
#    0.000    3.333    0.000    3.500    0.000    4.667 
#    0.000    0.000    0.000    0.000    0.000   11.667 
#    0.000   90.667    0.000    0.333    0.000    0.000 
#
# Total GULP energy -133984.553304 kJ/mol
# GULP energy per Si atom -5582.689721 kJ/mol
# Density = 2.328044 g / cm^3
# Si number density = 23.333544 Si / 1000 Ang^3
#
#
#
# Elastic Constant Matrix: (Units=GPa)
#
#
# Indices 1 2 3 4 5 6 
#
# 1 172.1121 59.7235 24.5560 0.0000 0.0000 0.0000
# 2 59.7235 49.5594 15.7133 0.0000 0.0000 0.0000
# 3 24.5560 15.7133 33.6125 0.0000 0.0000 0.0000
# 4 0.0000 0.0000 0.0000 22.7666 0.0000 0.0000
# 5 0.0000 0.0000 0.0000 0.0000 -0.8454 0.0000
# 6 0.0000 0.0000 0.0000 0.0000 0.0000 -15.7519
#
#
#
# Elastic Compliance Matrix: (Units=1/GPa)
#
#
# Indices 1 2 3 4 5 6 
#
# 1 0.010097 -0.011540 -0.001982 0.000000 0.000000 0.000000
# 2 -0.011540 0.036877 -0.008809 0.000000 0.000000 0.000000
# 3 -0.001982 -0.008809 0.035317 0.000000 0.000000 0.000000
# 4 0.000000 0.000000 0.000000 0.043924 0.000000 0.000000
# 5 0.000000 0.000000 0.000000 0.000000 -1.182940 0.000000
# 6 0.000000 0.000000 0.000000 0.000000 0.000000 -0.063485
#
#
# Mechanical properties :
#
#
# Convention : Reuss Voigt Hill
#
# Bulk Modulus (GPa) = 26.57465 50.58551 38.58008
# Shear Modulus (GPa) = -4.70365 11.58661 3.44148
#
# Velocity S-wave (km/s) = -1.42134 2.23079 1.21578
# Velocity P-wave (km/s) = 2.95299 5.32556 4.30591
#
# Compressibility (1/GPa) = 0.03762984
#
# Stress axis : x y z
#
# Youngs Moduli (GPa) = 99.03660 27.11703 28.31503
#
# Poissons Ratio (x) = 0.31292 0.05612
# Poissons Ratio (y) = 1.14285 0.24943
# Poissons Ratio (z) = 0.19630 0.23887
#
# Static dielectric constant tensor:
#      x y z
#    x 1.867990 0.000000 0.000000 
#    y 0.000000 1.899850 0.000000 
#    z 0.000000 0.000000 1.959560 
# 
# From -- ./inp_files/12906.got.cif
#   From: 2010.05.17/outbox.cif.g08.bks.cpg/sg40_7_cif.got.tgz:12906.got - 2010.06.03 18:35:42.
