data_PCOD9365857
_publ_section_title
;
Structure prediction by ZEFSAII (Michael W. Deem and Ramdas Pophale) SiO2 
 PCOD9365857
Probable space group: A B A 2
;
_chemical_formula_sum "Si O2"
_cell_formula_units_Z 44
_cell_length_a 12.766249
_cell_length_b 17.365139
_cell_length_c 9.528866
_cell_angle_alpha 90.000000
_cell_angle_beta 90.000000
_cell_angle_gamma 90.000000
_cell_volume 2112.432277
_symmetry_space_group_name_H-M "A B A 2"
_symmetry_group_IT_number 41
_symmetry_cell_setting 'orthorhombic'
loop_
_space_group_symop_operation_xyz
x,y,z
-x,-y,z
1/2-x,y,1/2+z
1/2+x,-y,1/2+z
x,1/2+y,1/2+z
-x,1/2-y,1/2+z
1/2-x,1/2+y,z
1/2+x,1/2-y,z
loop_
_atom_site_type_symbol
_atom_site_label
_atom_site_fract_x
_atom_site_fract_y
_atom_site_fract_z
Si Si1 0.000000 0.500000 0.320490
Si Si2 0.161317 0.320030 0.538430
Si Si3 0.694458 0.948108 0.813525
Si Si4 0.562208 0.894398 0.569550
Si Si5 0.188068 0.399194 0.253018
Si Si6 0.282748 0.149949 0.081485
O O1 0.064640 0.550874 0.433827
O O2 0.077322 0.443934 0.235473
O O3 0.173378 0.334863 0.372584
O O4 0.255703 0.362510 0.619535
O O5 0.159958 0.230395 0.575894
O O6 0.051394 0.358306 0.580604
O O7 0.595759 0.940507 0.709027
O O8 0.778506 0.894893 0.728166
O O9 0.735712 0.034505 0.814640
O O10 0.678404 0.909517 0.963497
O O11 0.658418 0.834873 0.552988
#
# Coordination Sequence:
#
# PCOD9365857 Si02
#       6
#     4   8   8   8   8   8
#     4  10  18  40  64  92 118 170 204 244 316 358
#     4  11  23  42  61  91 127 160 202 255 318 355
#     4  10  19  40  63  88 117 161 209 246 298 369
#     4   9  21  39  66  81 127 168 197 239 325 361
#     4  11  21  39  65  88 122 162 206 254 298 373
#     4  10  21  40  61  90 120 160 203 252 300 371
#
# _framework density 20.829070000000002
#
# number of rings (size 3 to 8) (size 9 to 14) (size 15 to 20)
#    1.091    0.727    1.818    4.364    0.000    0.000 
#    9.818    1.818    0.000    0.000    0.000    0.000 
#    0.000    0.000    0.000    0.000    0.000    0.000 
#
# Total GULP energy -122698.130983 kJ/mol
# GULP energy per Si atom -5577.187772 kJ/mol
# Density = 2.078166 g / cm^3
# Si number density = 20.829070 Si / 1000 Ang^3
#
#
#
# Elastic Constant Matrix: (Units=GPa)
#
#
# Indices 1 2 3 4 5 6 
#
# 1 52.5974 -21.2244 19.4024 0.0000 0.0000 0.0000
# 2 -21.2244 58.6781 -3.0458 0.0000 0.0000 0.0000
# 3 19.4024 -3.0458 47.8985 0.0000 0.0000 0.0000
# 4 0.0000 0.0000 0.0000 10.3196 0.0000 0.0000
# 5 0.0000 0.0000 0.0000 0.0000 30.5916 0.0000
# 6 0.0000 0.0000 0.0000 0.0000 0.0000 21.1491
#
#
#
# Elastic Compliance Matrix: (Units=1/GPa)
#
#
# Indices 1 2 3 4 5 6 
#
# 1 0.026382 0.009018 -0.010113 0.000000 0.000000 0.000000
# 2 0.009018 0.020181 -0.002370 0.000000 0.000000 0.000000
# 3 -0.010113 -0.002370 0.024823 0.000000 0.000000 0.000000
# 4 0.000000 0.000000 0.000000 0.096903 0.000000 0.000000
# 5 0.000000 0.000000 0.000000 0.000000 0.032689 0.000000
# 6 0.000000 0.000000 0.000000 0.000000 0.000000 0.047283
#
#
# Mechanical properties :
#
#
# Convention : Reuss Voigt Hill
#
# Bulk Modulus (GPa) = 15.51446 16.60425 16.05936
# Shear Modulus (GPa) = 18.07165 23.34818 20.70992
#
# Velocity S-wave (km/s) = 2.94873 3.35168 3.15664
# Velocity P-wave (km/s) = 4.36554 4.79242 4.58396
#
# Compressibility (1/GPa) = 0.06445599
#
# Stress axis : x y z
#
# Youngs Moduli (GPa) = 37.90495 49.55177 40.28464
#
# Poissons Ratio (x) = -0.44684 0.40740
# Poissons Ratio (y) = -0.34181 0.09546
# Poissons Ratio (z) = 0.38334 0.11741
#
# Static dielectric constant tensor:
#      x y z
#    x 1.805440 0.000000 0.000000 
#    y 0.000000 1.712720 0.000000 
#    z 0.000000 0.000000 1.727280 
# 
# From -- ./inp_files/2486.got.cif
#   From: 2010.05.17/outbox.cif.g08.bks.cpg/sg41_2_cif.got.tgz:2486.got - 2010.06.03 18:54:24.
