data_PCOD9365579
_publ_section_title
;
Structure prediction by ZEFSAII (Michael W. Deem and Ramdas Pophale) SiO2 
 PCOD9365579
Probable space group: A M A 2
;
_chemical_formula_sum "Si O2"
_cell_formula_units_Z 32
_cell_length_a 11.495387
_cell_length_b 11.567020
_cell_length_c 9.604199
_cell_angle_alpha 90.000000
_cell_angle_beta 90.000000
_cell_angle_gamma 90.000000
_cell_volume 1277.045095
_symmetry_space_group_name_H-M "A M A 2"
_symmetry_group_IT_number 40
_symmetry_cell_setting 'orthorhombic'
loop_
_space_group_symop_operation_xyz
x,y,z
-x,-y,z
1/2-x,y,z
1/2+x,-y,z
x,1/2+y,1/2+z
-x,1/2-y,1/2+z
1/2-x,1/2+y,1/2+z
1/2+x,1/2-y,1/2+z
loop_
_atom_site_type_symbol
_atom_site_label
_atom_site_fract_x
_atom_site_fract_y
_atom_site_fract_z
Si Si1 0.500000 0.500000 0.746990
Si Si2 0.546071 0.885587 0.698839
Si Si3 0.750000 0.010002 0.105095
Si Si4 0.750000 0.542531 0.298664
Si Si5 0.492973 0.220169 0.428385
Si Si6 0.750000 0.234610 0.551827
O O1 0.621400 0.533559 0.670032
O O2 0.462810 0.609403 0.837926
O O3 0.352808 0.049593 0.777333
O O4 0.567675 0.792170 0.578802
O O5 0.473656 0.826805 0.823674
O O6 0.500000 0.000000 0.619521
O O7 0.750000 0.869272 0.092762
O O8 0.750000 0.076786 0.958463
O O9 0.750000 0.641957 0.179694
O O10 0.630921 0.215774 0.466287
#
# Coordination Sequence:
#
# PCOD9365579 Si02
#       6
#     4   8   4   4   8   4
#     4  12  28  50  80 122 166 214 278 336 410 488
#     4  12  26  48  76 112 153 206 260 327 400 476
#     4  12  29  50  78 125 164 214 276 339 404 493
#     4  12  26  45  80 110 158 210 268 332 410 480
#     4  12  25  48  79 112 158 209 264 334 400 482
#     4  12  23  49  74 115 160 212 266 335 404 487
#
# _framework density 25.057848
#
# number of rings (size 3 to 8) (size 9 to 14) (size 15 to 20)
#    0.000    0.000    6.250    2.250    1.750    1.000 
#    0.000    2.500    0.000    0.000    0.000    0.000 
#    0.000    0.000    0.000    0.000    0.000    0.000 
#
# Total GULP energy -89301.421070 kJ/mol
# GULP energy per Si atom -5581.338817 kJ/mol
# Density = 2.500081 g / cm^3
# Si number density = 25.057848 Si / 1000 Ang^3
#
#
#
# Elastic Constant Matrix: (Units=GPa)
#
#
# Indices 1 2 3 4 5 6 
#
# 1 74.3299 -1.2166 35.1210 0.0000 0.0000 0.0000
# 2 -1.2166 144.9291 56.2719 0.0000 0.0000 0.0000
# 3 35.1210 56.2719 162.7977 0.0000 0.0000 0.0000
# 4 0.0000 0.0000 0.0000 57.3570 0.0000 0.0000
# 5 0.0000 0.0000 0.0000 0.0000 48.6021 0.0000
# 6 0.0000 0.0000 0.0000 0.0000 0.0000 34.2471
#
#
#
# Elastic Compliance Matrix: (Units=1/GPa)
#
#
# Indices 1 2 3 4 5 6 
#
# 1 0.015307 0.001629 -0.003865 0.000000 0.000000 0.000000
# 2 0.001629 0.008143 -0.003166 0.000000 0.000000 0.000000
# 3 -0.003865 -0.003166 0.008071 0.000000 0.000000 0.000000
# 4 0.000000 0.000000 0.000000 0.017435 0.000000 0.000000
# 5 0.000000 0.000000 0.000000 0.000000 0.020575 0.000000
# 6 0.000000 0.000000 0.000000 0.000000 0.000000 0.029200
#
#
# Mechanical properties :
#
#
# Convention : Reuss Voigt Hill
#
# Bulk Modulus (GPa) = 48.27184 62.48991 55.38088
# Shear Modulus (GPa) = 42.94075 47.49993 45.22034
#
# Velocity S-wave (km/s) = 4.14413 4.35858 4.25271
# Velocity P-wave (km/s) = 6.49649 7.09381 6.80171
#
# Compressibility (1/GPa) = 0.02071601
#
# Stress axis : x y z
#
# Youngs Moduli (GPa) = 65.33144 122.80608 123.90248
#
# Poissons Ratio (x) = -0.20009 0.47892
# Poissons Ratio (y) = -0.10644 0.39229
# Poissons Ratio (z) = 0.25253 0.38882
#
# Static dielectric constant tensor:
#      x y z
#    x 1.318550 0.000000 0.000000 
#    y 0.000000 1.883220 0.000000 
#    z 0.000000 0.000000 1.969310 
# 
# From -- ./inp_files/4994.got.cif
#   From: 2010.05.17/outbox.cif.g08.bks.cpg/sg40_3_cif.got.tgz:4994.got - 2010.06.03 18:35:42.
