data_PCOD9365229
_publ_section_title
;
Structure prediction by ZEFSAII (Michael W. Deem and Ramdas Pophale) SiO2 
 PCOD9365229
Probable space group: A M A 2
;
_chemical_formula_sum "Si O2"
_cell_formula_units_Z 64
_cell_length_a 17.063569
_cell_length_b 12.256884
_cell_length_c 15.224760
_cell_angle_alpha 90.000000
_cell_angle_beta 90.000000
_cell_angle_gamma 90.000000
_cell_volume 3184.200485
_symmetry_space_group_name_H-M "A M A 2"
_symmetry_group_IT_number 40
_symmetry_cell_setting 'orthorhombic'
loop_
_space_group_symop_operation_xyz
x,y,z
-x,-y,z
1/2-x,y,z
1/2+x,-y,z
x,1/2+y,1/2+z
-x,1/2-y,1/2+z
1/2-x,1/2+y,1/2+z
1/2+x,1/2-y,1/2+z
loop_
_atom_site_type_symbol
_atom_site_label
_atom_site_fract_x
_atom_site_fract_y
_atom_site_fract_z
Si Si1 0.838828 0.197207 0.229710
Si Si2 0.420550 0.655231 0.839397
Si Si3 0.412404 0.019698 0.157464
Si Si4 0.844077 0.494834 0.990528
Si Si5 0.845093 0.435911 0.188920
Si Si6 0.405337 0.800918 0.409735
Si Si7 0.342317 0.578097 0.476576
Si Si8 0.655742 0.106255 0.836128
O O1 0.750000 0.199345 0.197164
O O2 0.874773 0.317088 0.217457
O O3 0.842864 0.176204 0.332986
O O4 0.881784 0.099205 0.183272
O O5 0.414801 0.594694 0.745026
O O6 0.378295 0.580543 0.912917
O O7 0.510487 0.670880 0.868906
O O8 0.382426 0.775040 0.836825
O O9 0.359566 0.065796 0.079391
O O10 0.500000 0.000000 0.123653
O O11 0.750000 0.501332 0.982603
O O12 0.883499 0.613350 0.984360
O O13 0.862945 0.450068 0.086999
O O14 0.750000 0.434453 0.198936
O O15 0.871528 0.532619 0.253244
O O16 0.393973 0.677479 0.440152
O O17 0.250000 0.602334 0.461006
O O18 0.360217 0.467285 0.422674
O O19 0.750000 0.119983 0.830791
#
# Coordination Sequence:
#
# PCOD9365229 Si02
#       8
#     8   8   8   8   8   8   8   8
#     4  11  21  42  71  92 125 176 223 269 321 392
#     4  12  26  44  63  97 139 176 217 279 344 403
#     4  12  26  44  65 100 139 174 218 278 339 403
#     4  11  23  41  69  98 127 171 221 273 331 395
#     4   9  21  41  67  98 126 161 217 271 320 386
#     4  12  24  44  66  94 133 176 225 276 331 395
#     4  11  26  45  70 100 132 180 234 275 329 404
#     4  10  23  44  66  94 133 172 218 276 335 401
#
# _framework density 20.099236999999999
#
# number of rings (size 3 to 8) (size 9 to 14) (size 15 to 20)
#    0.000    1.000    3.750    2.250    5.250    1.500 
#    0.000    1.250    0.000    0.000    0.000    0.000 
#    0.000    0.000    0.000    0.000    0.000    0.000 
#
# Total GULP energy -178827.107882 kJ/mol
# GULP energy per Si atom -5588.347121 kJ/mol
# Density = 2.005349 g / cm^3
# Si number density = 20.099237 Si / 1000 Ang^3
#
#
#
# Elastic Constant Matrix: (Units=GPa)
#
#
# Indices 1 2 3 4 5 6 
#
# 1 58.3013 34.7090 17.2559 0.0000 0.0000 0.0000
# 2 34.7090 111.8419 13.1977 0.0000 0.0000 0.0000
# 3 17.2559 13.1977 80.9021 0.0000 0.0000 0.0000
# 4 0.0000 0.0000 0.0000 20.9851 0.0000 0.0000
# 5 0.0000 0.0000 0.0000 0.0000 19.2706 0.0000
# 6 0.0000 0.0000 0.0000 0.0000 0.0000 34.5295
#
#
#
# Elastic Compliance Matrix: (Units=1/GPa)
#
#
# Indices 1 2 3 4 5 6 
#
# 1 0.022052 -0.006412 -0.003658 0.000000 0.000000 0.000000
# 2 -0.006412 0.010981 -0.000424 0.000000 0.000000 0.000000
# 3 -0.003658 -0.000424 0.013210 0.000000 0.000000 0.000000
# 4 0.000000 0.000000 0.000000 0.047653 0.000000 0.000000
# 5 0.000000 0.000000 0.000000 0.000000 0.051892 0.000000
# 6 0.000000 0.000000 0.000000 0.000000 0.000000 0.028961
#
#
# Mechanical properties :
#
#
# Convention : Reuss Voigt Hill
#
# Bulk Modulus (GPa) = 39.59383 42.37450 40.98417
# Shear Modulus (GPa) = 24.49122 27.34921 25.92021
#
# Velocity S-wave (km/s) = 3.49451 3.69278 3.59501
# Velocity P-wave (km/s) = 6.00201 6.26982 6.13737
#
# Compressibility (1/GPa) = 0.02525646
#
# Stress axis : x y z
#
# Youngs Moduli (GPa) = 45.34696 91.06546 75.70091
#
# Poissons Ratio (x) = 0.58392 0.27688
# Poissons Ratio (y) = 0.29077 0.03208
# Poissons Ratio (z) = 0.16586 0.03859
#
# Static dielectric constant tensor:
#      x y z
#    x 1.713040 0.000000 0.000000 
#    y 0.000000 1.691300 0.000000 
#    z 0.000000 0.000000 1.696660 
# 
# From -- ./inp_files/17835.got.cif
#   From: 2010.05.17/outbox.cif.g08.bks.cpg/sg40_9_cif.got.tgz:17835.got - 2010.06.03 18:35:42.
