data_PCOD9365922
_publ_section_title
;
Structure prediction by ZEFSAII (Michael W. Deem and Ramdas Pophale) SiO2 
 PCOD9365922
Probable space group: A B A 2
;
_chemical_formula_sum "Si O2"
_cell_formula_units_Z 64
_cell_length_a 4.799690
_cell_length_b 24.152950
_cell_length_c 25.603349
_cell_angle_alpha 90.000000
_cell_angle_beta 90.000000
_cell_angle_gamma 90.000000
_cell_volume 2968.111057
_symmetry_space_group_name_H-M "A B A 2"
_symmetry_group_IT_number 41
_symmetry_cell_setting 'orthorhombic'
loop_
_space_group_symop_operation_xyz
x,y,z
-x,-y,z
1/2-x,y,1/2+z
1/2+x,-y,1/2+z
x,1/2+y,1/2+z
-x,1/2-y,1/2+z
1/2-x,1/2+y,z
1/2+x,1/2-y,z
loop_
_atom_site_type_symbol
_atom_site_label
_atom_site_fract_x
_atom_site_fract_y
_atom_site_fract_z
Si Si1 0.050875 0.565132 0.892460
Si Si2 0.689323 0.208830 0.290142
Si Si3 0.992880 0.212222 0.991735
Si Si4 0.753628 0.036174 0.791865
Si Si5 0.434073 0.063616 0.189275
Si Si6 0.651126 0.787403 0.602421
Si Si7 0.088379 0.861221 0.896405
Si Si8 0.894421 0.637078 0.689667
O O1 0.908562 0.569383 0.835204
O O2 0.852244 0.607674 0.922636
O O3 0.000000 0.500000 0.906560
O O4 0.355740 0.591037 0.887812
O O5 0.885690 0.263194 0.287362
O O6 0.791905 0.170097 0.241794
O O7 0.676498 0.174612 0.345080
O O8 0.175438 0.268066 0.991169
O O9 0.073492 0.184696 0.046981
O O10 0.043627 0.178908 0.939376
O O11 0.924736 0.064868 0.746768
O O12 0.000000 0.000000 0.817740
O O13 0.124956 0.087734 0.195169
O O14 0.629155 0.108657 0.161392
O O15 0.500000 0.000000 0.171995
O O16 0.469999 0.730723 0.603557
O O17 0.550628 0.820435 0.652248
O O18 0.000000 0.500000 0.768870
#
# Coordination Sequence:
#
# PCOD9365922 Si02
#       8
#     8   8   8   8   8   8   8   8
#     4  11  23  38  57  85 121 159 206 250 286 347
#     4  12  25  40  57  86 126 156 189 240 305 374
#     4  10  21  40  65  90 115 148 198 254 300 353
#     4  10  19  34  53  76 112 158 203 244 283 328
#     4  11  23  38  57  85 121 159 206 250 286 347
#     4  10  21  40  65  90 115 148 198 254 300 353
#     4  12  23  38  61  88 120 161 199 240 307 363
#     4  12  23  38  61  88 120 161 199 240 307 363
#
# _framework density 21.562538
#
# number of rings (size 3 to 8) (size 9 to 14) (size 15 to 20)
#    0.000    1.000    0.000    9.000    0.000    6.000 
#    0.000    0.000    0.000    4.500    0.000    0.000 
#    0.000    0.000    0.000    0.000    0.000    0.000 
#
# Total GULP energy -178344.095915 kJ/mol
# GULP energy per Si atom -5573.252997 kJ/mol
# Density = 2.151346 g / cm^3
# Si number density = 21.562538 Si / 1000 Ang^3
#
#
#
# Elastic Constant Matrix: (Units=GPa)
#
#
# Indices 1 2 3 4 5 6 
#
# 1 103.4209 17.1320 4.3324 0.0000 0.0000 0.0000
# 2 17.1320 92.7277 32.3856 0.0000 0.0000 0.0000
# 3 4.3324 32.3856 71.9841 0.0000 0.0000 0.0000
# 4 0.0000 0.0000 0.0000 8.1893 0.0000 0.0000
# 5 0.0000 0.0000 0.0000 0.0000 22.4860 0.0000
# 6 0.0000 0.0000 0.0000 0.0000 0.0000 45.9906
#
#
#
# Elastic Compliance Matrix: (Units=1/GPa)
#
#
# Indices 1 2 3 4 5 6 
#
# 1 0.009979 -0.001939 0.000272 0.000000 0.000000 0.000000
# 2 -0.001939 0.013171 -0.005809 0.000000 0.000000 0.000000
# 3 0.000272 -0.005809 0.016489 0.000000 0.000000 0.000000
# 4 0.000000 0.000000 0.000000 0.122110 0.000000 0.000000
# 5 0.000000 0.000000 0.000000 0.000000 0.044472 0.000000
# 6 0.000000 0.000000 0.000000 0.000000 0.000000 0.021744
#
#
# Mechanical properties :
#
#
# Convention : Reuss Voigt Hill
#
# Bulk Modulus (GPa) = 40.50673 41.75920 41.13297
# Shear Modulus (GPa) = 19.90873 29.61871 24.76372
#
# Velocity S-wave (km/s) = 3.04188 3.71026 3.39257
# Velocity P-wave (km/s) = 5.58246 6.14518 5.87057
#
# Compressibility (1/GPa) = 0.02468726
#
# Stress axis : x y z
#
# Youngs Moduli (GPa) = 100.21075 75.92285 60.64609
#
# Poissons Ratio (x) = 0.14718 -0.01647
# Poissons Ratio (y) = 0.19426 0.35230
# Poissons Ratio (z) = -0.02721 0.44104
#
# Static dielectric constant tensor:
#      x y z
#    x 1.891340 0.000000 0.000000 
#    y 0.000000 1.936590 0.000000 
#    z 0.000000 0.000000 1.838160 
# 
# From -- ./inp_files/12654.got.cif
#   From: 2010.05.17/outbox.cif.g08.bks.cpg/sg41_7_cif.got.tgz:12654.got - 2010.06.03 18:54:24.
