data_PCOD9365796
_publ_section_title
;
Structure prediction by ZEFSAII (Michael W. Deem and Ramdas Pophale) SiO2 
 PCOD9365796
Probable space group: A B A 2
;
_chemical_formula_sum "Si O2"
_cell_formula_units_Z 60
_cell_length_a 28.686020
_cell_length_b 5.795921
_cell_length_c 15.271065
_cell_angle_alpha 90.000000
_cell_angle_beta 90.000000
_cell_angle_gamma 90.000000
_cell_volume 2538.996369
_symmetry_space_group_name_H-M "A B A 2"
_symmetry_group_IT_number 41
_symmetry_cell_setting 'orthorhombic'
loop_
_space_group_symop_operation_xyz
x,y,z
-x,-y,z
1/2-x,y,1/2+z
1/2+x,-y,1/2+z
x,1/2+y,1/2+z
-x,1/2-y,1/2+z
1/2-x,1/2+y,z
1/2+x,1/2-y,z
loop_
_atom_site_type_symbol
_atom_site_label
_atom_site_fract_x
_atom_site_fract_y
_atom_site_fract_z
Si Si1 0.000000 0.500000 0.446440
Si Si2 0.228529 0.802525 0.898748
Si Si3 0.871605 0.409712 0.892996
Si Si4 0.037453 0.178072 0.299022
Si Si5 0.639741 0.698295 0.545632
Si Si6 0.588231 0.602170 0.048305
Si Si7 0.051476 0.513123 0.142308
Si Si8 0.240203 0.366752 0.101287
O O1 0.012080 0.283842 0.384731
O O2 0.045531 0.538075 0.505349
O O3 0.256571 0.564992 0.870259
O O4 0.175343 0.732981 0.874164
O O5 0.236403 0.825406 0.004783
O O6 0.911875 0.426186 0.821239
O O7 0.859284 0.649567 0.941466
O O8 0.897376 0.278836 0.972614
O O9 0.046394 0.392631 0.235107
O O10 0.000000 0.000000 0.261409
O O11 0.593261 0.614406 0.593512
O O12 0.685507 0.591565 0.584914
O O13 0.635582 0.967249 0.563942
O O14 0.568259 0.725043 0.133470
O O15 0.000000 0.500000 0.099903
O O16 0.256710 0.609137 0.143353
#
# Coordination Sequence:
#
# PCOD9365796 Si02
#       8
#     4   8   8   8   8   8   8   8
#     4  10  20  40  64  90 122 170 218 290 338 400
#     4  10  18  33  59  94 132 165 212 282 355 410
#     4  10  21  36  60  97 121 166 222 279 341 411
#     4  11  24  42  63  87 135 180 229 274 352 423
#     4  11  21  35  63  93 126 166 220 287 342 412
#     4  10  21  35  60  90 122 156 221 283 336 397
#     4  11  25  40  58  88 129 176 229 274 344 420
#     4  10  19  33  59  94 132 169 212 282 361 414
#
# _framework density 23.631385000000002
#
# number of rings (size 3 to 8) (size 9 to 14) (size 15 to 20)
#    0.000    1.600    3.333    3.200    3.733    3.733 
#    0.000    0.000    0.000    1.600    0.000    0.000 
#    0.000    0.000    0.000    0.000    0.000    0.000 
#
# Total GULP energy -167211.537805 kJ/mol
# GULP energy per Si atom -5573.717927 kJ/mol
# Density = 2.357760 g / cm^3
# Si number density = 23.631385 Si / 1000 Ang^3
#
#
#
# Elastic Constant Matrix: (Units=GPa)
#
#
# Indices 1 2 3 4 5 6 
#
# 1 129.0065 30.7699 30.6799 0.0000 0.0000 0.0000
# 2 30.7699 110.7400 25.9437 0.0000 0.0000 0.0000
# 3 30.6799 25.9437 44.4967 0.0000 0.0000 0.0000
# 4 0.0000 0.0000 0.0000 13.4105 0.0000 0.0000
# 5 0.0000 0.0000 0.0000 0.0000 -4.0751 0.0000
# 6 0.0000 0.0000 0.0000 0.0000 0.0000 46.0858
#
#
#
# Elastic Compliance Matrix: (Units=1/GPa)
#
#
# Indices 1 2 3 4 5 6 
#
# 1 0.009424 -0.001270 -0.005757 0.000000 0.000000 0.000000
# 2 -0.001270 0.010630 -0.005322 0.000000 0.000000 0.000000
# 3 -0.005757 -0.005322 0.029546 0.000000 0.000000 0.000000
# 4 0.000000 0.000000 0.000000 0.074568 0.000000 0.000000
# 5 0.000000 0.000000 0.000000 0.000000 -0.245392 0.000000
# 6 0.000000 0.000000 0.000000 0.000000 0.000000 0.021699
#
#
# Mechanical properties :
#
#
# Convention : Reuss Voigt Hill
#
# Bulk Modulus (GPa) = 40.15838 51.00335 45.58087
# Shear Modulus (GPa) = -75.15815 24.20754 -25.47531
#
# Velocity S-wave (km/s) = -5.64566 3.20407 -3.28690
# Velocity P-wave (km/s) = 5.04652 5.94288 2.21929
#
# Compressibility (1/GPa) = 0.02490140
#
# Stress axis : x y z
#
# Youngs Moduli (GPa) = 106.11744 94.07490 33.84528
#
# Poissons Ratio (x) = 0.11944 0.19485
# Poissons Ratio (y) = 0.13473 0.18013
# Poissons Ratio (z) = 0.61093 0.50070
#
# Static dielectric constant tensor:
#      x y z
#    x 1.941420 0.000000 0.000000 
#    y 0.000000 2.325680 0.000000 
#    z 0.000000 0.000000 1.877440 
# 
# From -- ./inp_files/10798.got.cif
#   From: 2010.05.17/outbox.cif.g08.bks.cpg/sg41_6_cif.got.tgz:10798.got - 2010.06.03 18:54:24.
