data_PCOD9365787
_publ_section_title
;
Structure prediction by ZEFSAII (Michael W. Deem and Ramdas Pophale) SiO2 
 PCOD9365787
Probable space group: A B A 2
;
_chemical_formula_sum "Si O2"
_cell_formula_units_Z 56
_cell_length_a 22.172595
_cell_length_b 15.149828
_cell_length_c 5.497054
_cell_angle_alpha 90.000000
_cell_angle_beta 90.000000
_cell_angle_gamma 90.000000
_cell_volume 1846.520909
_symmetry_space_group_name_H-M "A B A 2"
_symmetry_group_IT_number 41
_symmetry_cell_setting 'orthorhombic'
loop_
_space_group_symop_operation_xyz
x,y,z
-x,-y,z
1/2-x,y,1/2+z
1/2+x,-y,1/2+z
x,1/2+y,1/2+z
-x,1/2-y,1/2+z
1/2-x,1/2+y,z
1/2+x,1/2-y,z
loop_
_atom_site_type_symbol
_atom_site_label
_atom_site_fract_x
_atom_site_fract_y
_atom_site_fract_z
Si Si1 0.306329 0.812680 0.295420
Si Si2 0.268272 0.493428 0.221993
Si Si3 0.823448 0.752187 0.802634
Si Si4 0.385294 0.605290 0.542490
Si Si5 0.878468 0.943870 0.000657
Si Si6 0.524382 0.668746 0.555634
Si Si7 0.492965 0.373262 0.056547
O O1 0.248897 0.744033 0.299325
O O2 0.340268 0.787347 0.541433
O O3 0.266636 0.901684 0.268240
O O4 0.341164 0.798292 0.044796
O O5 0.261353 0.539834 0.484925
O O6 0.164607 0.480972 0.623311
O O7 0.854464 0.848910 0.798492
O O8 0.363266 0.615989 0.269212
O O9 0.452537 0.642527 0.550996
O O10 0.379968 0.518548 0.704733
O O11 0.950912 0.940057 0.046238
O O12 0.544502 0.626570 0.303489
O O13 0.524974 0.774791 0.553186
O O14 0.544508 0.631079 0.811107
#
# Coordination Sequence:
#
# PCOD9365787 Si02
#       7
#     8   8   8   8   8   8   8
#     4  10  19  35  51  64  82 121 178 203 223 263
#     4  12  21  38  52  66  94 125 171 207 232 274
#     4  10  18  33  51  66  91 121 157 208 227 275
#     4  10  19  33  47  76 106 123 154 187 251 296
#     4  10  21  33  47  74 104 128 152 193 246 296
#     4   8  14  25  46  66  95 129 149 183 217 287
#     4   8  14  27  44  66  95 127 156 176 223 283
#
# _framework density 30.327304999999999
#
# number of rings (size 3 to 8) (size 9 to 14) (size 15 to 20)
#    0.000    2.286    2.857    1.714    0.000    0.000 
#   15.429    0.000    0.000    0.000    0.000    1.000 
#    0.000    2.286    0.000    0.000    0.000    0.000 
#
# Total GULP energy -156042.247602 kJ/mol
# GULP energy per Si atom -5572.937414 kJ/mol
# Density = 3.025828 g / cm^3
# Si number density = 30.327305 Si / 1000 Ang^3
#
#
#
# Elastic Constant Matrix: (Units=GPa)
#
#
# Indices 1 2 3 4 5 6 
#
# 1 100.4614 48.2504 57.5505 0.0000 0.0000 0.0000
# 2 48.2504 94.2563 52.9146 0.0000 0.0000 0.0000
# 3 57.5505 52.9146 388.2882 0.0000 0.0000 0.0000
# 4 0.0000 0.0000 0.0000 25.3189 0.0000 0.0000
# 5 0.0000 0.0000 0.0000 0.0000 57.5960 0.0000
# 6 0.0000 0.0000 0.0000 0.0000 0.0000 51.8225
#
#
#
# Elastic Compliance Matrix: (Units=1/GPa)
#
#
# Indices 1 2 3 4 5 6 
#
# 1 0.013666 -0.006344 -0.001161 0.000000 0.000000 0.000000
# 2 -0.006344 0.014433 -0.001027 0.000000 0.000000 0.000000
# 3 -0.001161 -0.001027 0.002887 0.000000 0.000000 0.000000
# 4 0.000000 0.000000 0.000000 0.039496 0.000000 0.000000
# 5 0.000000 0.000000 0.000000 0.000000 0.017362 0.000000
# 6 0.000000 0.000000 0.000000 0.000000 0.000000 0.019297
#
#
# Mechanical properties :
#
#
# Convention : Reuss Voigt Hill
#
# Bulk Modulus (GPa) = 71.82108 100.04855 85.93482
# Shear Modulus (GPa) = 38.80593 55.23352 47.01973
#
# Velocity S-wave (km/s) = 3.58099 4.27224 3.94180
# Velocity P-wave (km/s) = 6.38994 7.57610 7.00816
#
# Compressibility (1/GPa) = 0.01392349
#
# Stress axis : x y z
#
# Youngs Moduli (GPa) = 73.17370 69.28446 346.33346
#
# Poissons Ratio (x) = 0.43954 0.40209
# Poissons Ratio (y) = 0.46421 0.35556
# Poissons Ratio (z) = 0.08495 0.07113
#
# Static dielectric constant tensor:
#      x y z
#    x 2.401140 0.000000 0.000000 
#    y 0.000000 2.660080 0.000000 
#    z 0.000000 0.000000 2.567420 
# 
# From -- ./inp_files/1353.got.cif
#   From: 2010.05.17/outbox.cif.g08.bks.cpg/sg41_1_cif.got.tgz:1353.got - 2010.06.03 18:54:24.
