data_PCOD9365659
_publ_section_title
;
Structure prediction by ZEFSAII (Michael W. Deem and Ramdas Pophale) SiO2 
 PCOD9365659
Probable space group: A M A 2
;
_chemical_formula_sum "Si O2"
_cell_formula_units_Z 24
_cell_length_a 9.000000
_cell_length_b 18.000000
_cell_length_c 15.000000
_cell_angle_alpha 90.000000
_cell_angle_beta 90.000000
_cell_angle_gamma 90.000000
_cell_volume 2430.000000
_symmetry_space_group_name_H-M "A M A 2"
_symmetry_group_IT_number 40
_symmetry_cell_setting 'orthorhombic'
loop_
_space_group_symop_operation_xyz
x,y,z
-x,-y,z
1/2-x,y,z
1/2+x,-y,z
x,1/2+y,1/2+z
-x,1/2-y,1/2+z
1/2-x,1/2+y,1/2+z
1/2+x,1/2-y,1/2+z
loop_
_atom_site_type_symbol
_atom_site_label
_atom_site_fract_x
_atom_site_fract_y
_atom_site_fract_z
Si Si1 0.419498 0.068354 0.755230
Si Si2 0.420691 0.670175 0.613778
Si Si3 0.077616 0.577970 0.943839
Si Si4 0.072093 0.073603 0.954132
Si Si5 0.574385 0.580548 0.765889
Si Si6 0.085294 0.688405 0.108519
O O1 0.250000 0.044607 0.766439
O O2 0.484065 0.081234 0.853427
O O3 0.420589 0.141033 0.697817
O O4 0.500000 0.000000 0.709165
O O5 0.250000 0.650288 0.631575
O O6 0.464839 0.641264 0.516679
O O7 0.523206 0.632748 0.686780
O O8 0.450055 0.756359 0.611941
O O9 0.250000 0.564570 0.920291
O O10 0.000000 0.500000 0.965565
O O11 0.991536 0.609923 0.858857
O O12 0.073041 0.632711 0.026424
O O13 0.250000 0.066233 0.953143
O O14 0.000000 0.000000 0.994031
O O15 0.500000 0.500000 0.753047
O O16 0.750000 0.573684 0.769869
O O17 0.250000 0.724780 0.103186
#
# Coordination Sequence:
#
# PCOD9365659 Si02
#       6
#     8   8   8   8   8   8
#     4   9  18  35  57  81 108 139 178 221 267 319
#     4  11  23  37  54  80 113 148 186 226 273 330
#     4  10  20  36  58  84 112 144 187 233 278 330
#     4   9  19  35  56  80 105 136 175 219 265 316
#     4  11  22  38  60  83 109 143 185 233 284 334
#     4  10  22  37  54  80 115 150 182 222 272 327
#
# _framework density 9.8765429999999999
#
# number of rings (size 3 to 8) (size 9 to 14) (size 15 to 20)
#    0.000    2.000    0.000    4.500    0.000    6.000 
#    0.000    1.667    0.000    0.000    0.000    0.000 
#    0.000    0.000    0.000    0.000    0.000    0.000 
#
# Total GULP energy -133754.223659 kJ/mol
# GULP energy per Si atom -5573.092652 kJ/mol
# Density = 0.985406 g / cm^3
# Si number density = 9.876543 Si / 1000 Ang^3
#
#
#
# Elastic Constant Matrix: (Units=GPa)
#
#
# Indices 1 2 3 4 5 6 
#
# 1 77.2139 27.8669 44.2746 0.0000 0.0000 0.0000
# 2 27.8669 28.0493 31.0580 0.0000 0.0000 0.0000
# 3 44.2746 31.0580 64.2194 0.0000 0.0000 0.0000
# 4 0.0000 0.0000 0.0000 7.7188 0.0000 0.0000
# 5 0.0000 0.0000 0.0000 0.0000 32.5889 0.0000
# 6 0.0000 0.0000 0.0000 0.0000 0.0000 25.4813
#
#
#
# Elastic Compliance Matrix: (Units=1/GPa)
#
#
# Indices 1 2 3 4 5 6 
#
# 1 0.022993 -0.011391 -0.010343 0.000000 0.000000 0.000000
# 2 -0.011391 0.082396 -0.031995 0.000000 0.000000 0.000000
# 3 -0.010343 -0.031995 0.038176 0.000000 0.000000 0.000000
# 4 0.000000 0.000000 0.000000 0.129553 0.000000 0.000000
# 5 0.000000 0.000000 0.000000 0.000000 0.030685 0.000000
# 6 0.000000 0.000000 0.000000 0.000000 0.000000 0.039244
#
#
# Mechanical properties :
#
#
# Convention : Reuss Voigt Hill
#
# Bulk Modulus (GPa) = 27.69611 41.76463 34.73037
# Shear Modulus (GPa) = 10.80987 17.57669 14.19328
#
# Velocity S-wave (km/s) = 2.34187 2.98622 2.68346
# Velocity P-wave (km/s) = 4.62213 5.75146 5.21744
#
# Compressibility (1/GPa) = 0.03610616
#
# Stress axis : x y z
#
# Youngs Moduli (GPa) = 43.49211 12.13658 26.19452
#
# Poissons Ratio (x) = 0.13825 0.27093
# Poissons Ratio (y) = 0.49541 0.83810
# Poissons Ratio (z) = 0.44983 0.38831
#
# Static dielectric constant tensor:
#      x y z
#    x 1.676550 0.000000 0.000000 
#    y 0.000000 1.689290 0.000000 
#    z 0.000000 0.000000 1.708150 
# 
# From -- ./inp_files/15042.got.cif
#   From: 2010.05.17/outbox.ucp.g08.bks.cvg/sg40_8_cif.got.tgz:15042.got - 2010.06.11 16:26:39.
