data_PCOD9365923
_publ_section_title
;
Structure prediction by ZEFSAII (Michael W. Deem and Ramdas Pophale) SiO2 
 PCOD9365923
Probable space group: A B A 2
;
_chemical_formula_sum "Si O2"
_cell_formula_units_Z 48
_cell_length_a 17.507929
_cell_length_b 8.330566
_cell_length_c 14.317374
_cell_angle_alpha 90.000000
_cell_angle_beta 90.000000
_cell_angle_gamma 90.000000
_cell_volume 2088.202715
_symmetry_space_group_name_H-M "A B A 2"
_symmetry_group_IT_number 41
_symmetry_cell_setting 'orthorhombic'
loop_
_space_group_symop_operation_xyz
x,y,z
-x,-y,z
1/2-x,y,1/2+z
1/2+x,-y,1/2+z
x,1/2+y,1/2+z
-x,1/2-y,1/2+z
1/2-x,1/2+y,z
1/2+x,1/2-y,z
loop_
_atom_site_type_symbol
_atom_site_label
_atom_site_fract_x
_atom_site_fract_y
_atom_site_fract_z
Si Si1 0.077971 0.063596 0.959940
Si Si2 0.926216 0.068907 0.395649
Si Si3 0.273085 0.702732 0.023069
Si Si4 0.862989 0.476310 0.079610
Si Si5 0.788477 0.890779 0.320253
Si Si6 0.137180 0.426145 0.271479
O O1 0.067254 0.245390 0.922019
O O2 0.093667 0.954872 0.868359
O O3 0.155318 0.077468 0.021343
O O4 0.000000 0.000000 0.005566
O O5 0.918048 0.963240 0.491014
O O6 0.848597 0.031571 0.341528
O O7 0.000000 0.000000 0.344368
O O8 0.198975 0.664508 0.084244
O O9 0.310039 0.871079 0.050203
O O10 0.239307 0.690585 0.917760
O O11 0.902644 0.516462 0.176818
O O12 0.833756 0.755576 0.264181
O O13 0.713471 0.966186 0.277033
#
# Coordination Sequence:
#
# PCOD9365923 Si02
#       6
#     8   8   8   8   8   8
#     4  10  20  35  56  78 103 139 180 215 256 311
#     4  10  21  37  55  76 103 141 180 214 254 311
#     4   9  18  34  53  76 102 137 177 209 252 311
#     4  10  20  33  54  80 107 133 168 217 264 305
#     4  10  19  34  55  78 105 139 178 212 253 311
#     4  11  20  33  55  82 108 135 169 219 265 305
#
# _framework density 22.986274999999999
#
# number of rings (size 3 to 8) (size 9 to 14) (size 15 to 20)
#    0.000    2.000    0.000    7.000    0.000    2.000 
#    0.000    0.000    0.000   23.000    0.000    0.000 
#    0.000    0.000    0.000    0.000    0.000    0.000 
#
# Total GULP energy -134051.302929 kJ/mol
# GULP energy per Si atom -5585.470955 kJ/mol
# Density = 2.293396 g / cm^3
# Si number density = 22.986275 Si / 1000 Ang^3
#
#
#
# Elastic Constant Matrix: (Units=GPa)
#
#
# Indices 1 2 3 4 5 6 
#
# 1 87.7161 1.1580 -5.0819 0.0000 0.0000 0.0000
# 2 1.1580 60.1743 -15.0206 0.0000 0.0000 0.0000
# 3 -5.0819 -15.0206 21.7820 0.0000 0.0000 0.0000
# 4 0.0000 0.0000 0.0000 12.7867 0.0000 0.0000
# 5 0.0000 0.0000 0.0000 0.0000 6.9921 0.0000
# 6 0.0000 0.0000 0.0000 0.0000 0.0000 31.0415
#
#
#
# Elastic Compliance Matrix: (Units=1/GPa)
#
#
# Indices 1 2 3 4 5 6 
#
# 1 0.011571 0.000545 0.003076 0.000000 0.000000 0.000000
# 2 0.000545 0.020099 0.013987 0.000000 0.000000 0.000000
# 3 0.003076 0.013987 0.056273 0.000000 0.000000 0.000000
# 4 0.000000 0.000000 0.000000 0.078206 0.000000 0.000000
# 5 0.000000 0.000000 0.000000 0.000000 0.143018 0.000000
# 6 0.000000 0.000000 0.000000 0.000000 0.000000 0.032215
#
#
# Mechanical properties :
#
#
# Convention : Reuss Voigt Hill
#
# Bulk Modulus (GPa) = 8.11955 14.64260 11.38108
# Shear Modulus (GPa) = 14.40010 22.73852 18.56931
#
# Velocity S-wave (km/s) = 2.50564 3.14860 2.84534
# Velocity P-wave (km/s) = 3.45123 4.42744 3.96946
#
# Compressibility (1/GPa) = 0.12315953
#
# Stress axis : x y z
#
# Youngs Moduli (GPa) = 86.41992 49.75273 17.77062
#
# Poissons Ratio (x) = -0.02712 -0.05465
# Poissons Ratio (y) = -0.04710 -0.24857
# Poissons Ratio (z) = -0.26579 -0.69591
#
# Static dielectric constant tensor:
#      x y z
#    x 1.857410 0.000000 0.000000 
#    y 0.000000 1.871480 0.000000 
#    z 0.000000 0.000000 1.933460 
# 
# From -- ./inp_files/8704.got.cif
#   From: 2010.05.17/outbox.cif.g08.bks.cpg/sg41_5_cif.got.tgz:8704.got - 2010.06.03 18:54:24.
