data_PCOD9365095
_publ_section_title
;
Structure prediction by ZEFSAII (Michael W. Deem and Ramdas Pophale) SiO2 
 PCOD9365095
Probable space group: A M A 2
;
_chemical_formula_sum "Si O2"
_cell_formula_units_Z 64
_cell_length_a 27.546306
_cell_length_b 11.303140
_cell_length_c 9.779925
_cell_angle_alpha 90.000000
_cell_angle_beta 90.000000
_cell_angle_gamma 90.000000
_cell_volume 3045.075034
_symmetry_space_group_name_H-M "A M A 2"
_symmetry_group_IT_number 40
_symmetry_cell_setting 'orthorhombic'
loop_
_space_group_symop_operation_xyz
x,y,z
-x,-y,z
1/2-x,y,z
1/2+x,-y,z
x,1/2+y,1/2+z
-x,1/2-y,1/2+z
1/2-x,1/2+y,1/2+z
1/2+x,1/2-y,1/2+z
loop_
_atom_site_type_symbol
_atom_site_label
_atom_site_fract_x
_atom_site_fract_y
_atom_site_fract_z
Si Si1 0.945569 0.367915 0.913860
Si Si2 0.150247 0.689207 0.792338
Si Si3 0.308496 0.052502 0.742787
Si Si4 0.196985 0.442678 0.794139
Si Si5 0.345640 0.341213 0.048163
Si Si6 0.891853 0.769637 0.658828
Si Si7 0.443571 0.857007 0.404838
Si Si8 0.669285 0.611122 0.494845
O O1 0.907429 0.297761 0.818529
O O2 0.945560 0.504071 0.866696
O O3 0.000466 0.322876 0.926900
O O4 0.921673 0.358251 0.063481
O O5 0.162137 0.553598 0.815348
O O6 0.164214 0.727486 0.640593
O O7 0.178699 0.774062 0.898625
O O8 0.250000 0.073036 0.742331
O O9 0.342166 0.162926 0.699646
O O10 0.323105 0.950286 0.633542
O O11 0.324918 0.997919 0.890526
O O12 0.250000 0.480903 0.837679
O O13 0.198170 0.409365 0.634790
O O14 0.178865 0.344142 0.899782
O O15 0.403547 0.350361 0.025161
O O16 0.921604 0.725280 0.787424
O O17 0.881157 0.652879 0.565758
#
# Coordination Sequence:
#
# PCOD9365095 Si02
#       8
#     8   8   8   8   8   8   8   8
#     4  10  22  43  67  95 128 170 212 268 333 390
#     4  10  23  42  65  90 128 167 212 263 322 385
#     4  11  24  42  66  95 131 176 221 268 326 389
#     4  12  24  40  62  91 126 167 215 266 323 380
#     4  11  22  42  64  92 129 167 216 270 317 384
#     4  11  22  44  67  94 131 171 218 271 327 387
#     4  11  22  41  67  95 127 165 213 269 325 390
#     4  10  23  42  62  89 130 165 210 264 317 377
#
# _framework density 21.017544999999998
#
# number of rings (size 3 to 8) (size 9 to 14) (size 15 to 20)
#    0.000    1.250    3.750    1.500    3.500    4.000 
#    0.000    0.000    0.000    0.000    0.000    0.000 
#    0.000    0.000    0.000    0.000    0.000    0.000 
#
# Total GULP energy -178374.763912 kJ/mol
# GULP energy per Si atom -5574.211372 kJ/mol
# Density = 2.096971 g / cm^3
# Si number density = 21.017545 Si / 1000 Ang^3
#
#
#
# Elastic Constant Matrix: (Units=GPa)
#
#
# Indices 1 2 3 4 5 6 
#
# 1 148.8665 25.9672 47.0627 0.0000 0.0000 0.0000
# 2 25.9672 33.8016 38.3330 0.0000 0.0000 0.0000
# 3 47.0627 38.3330 136.2106 0.0000 0.0000 0.0000
# 4 0.0000 0.0000 0.0000 27.6479 0.0000 0.0000
# 5 0.0000 0.0000 0.0000 0.0000 24.2136 0.0000
# 6 0.0000 0.0000 0.0000 0.0000 0.0000 63.3937
#
#
#
# Elastic Compliance Matrix: (Units=1/GPa)
#
#
# Indices 1 2 3 4 5 6 
#
# 1 0.007964 -0.004402 -0.001513 0.000000 0.000000 0.000000
# 2 -0.004402 0.045886 -0.011392 0.000000 0.000000 0.000000
# 3 -0.001513 -0.011392 0.011070 0.000000 0.000000 0.000000
# 4 0.000000 0.000000 0.000000 0.036169 0.000000 0.000000
# 5 0.000000 0.000000 0.000000 0.000000 0.041299 0.000000
# 6 0.000000 0.000000 0.000000 0.000000 0.000000 0.015774
#
#
# Mechanical properties :
#
#
# Convention : Reuss Voigt Hill
#
# Bulk Modulus (GPa) = 32.99768 60.17828 46.58798
# Shear Modulus (GPa) = 24.64523 36.88543 30.76533
#
# Velocity S-wave (km/s) = 3.42804 4.19380 3.83011
# Velocity P-wave (km/s) = 5.60382 7.22116 6.46328
#
# Compressibility (1/GPa) = 0.03030516
#
# Stress axis : x y z
#
# Youngs Moduli (GPa) = 125.57221 21.79310 90.33212
#
# Poissons Ratio (x) = 0.09594 0.13663
# Poissons Ratio (y) = 0.55283 1.02909
# Poissons Ratio (z) = 0.18994 0.24827
#
# Static dielectric constant tensor:
#      x y z
#    x 1.760210 0.000000 0.000000 
#    y 0.000000 1.749350 0.000000 
#    z 0.000000 0.000000 1.780880 
# 
# From -- ./inp_files/9452.got.cif
#   From: 2010.05.17/outbox.cif.g08.bks.cpg/sg40_5_cif.got.tgz:9452.got - 2010.06.03 18:35:42.
