data_PCOD9365167
_publ_section_title
;
Structure prediction by ZEFSAII (Michael W. Deem and Ramdas Pophale) SiO2 
 PCOD9365167
Probable space group: A M A 2
;
_chemical_formula_sum "Si O2"
_cell_formula_units_Z 44
_cell_length_a 15.562548
_cell_length_b 5.192203
_cell_length_c 23.437507
_cell_angle_alpha 90.000000
_cell_angle_beta 90.000000
_cell_angle_gamma 90.000000
_cell_volume 1893.842169
_symmetry_space_group_name_H-M "A M A 2"
_symmetry_group_IT_number 40
_symmetry_cell_setting 'orthorhombic'
loop_
_space_group_symop_operation_xyz
x,y,z
-x,-y,z
1/2-x,y,z
1/2+x,-y,z
x,1/2+y,1/2+z
-x,1/2-y,1/2+z
1/2-x,1/2+y,1/2+z
1/2+x,1/2-y,1/2+z
loop_
_atom_site_type_symbol
_atom_site_label
_atom_site_fract_x
_atom_site_fract_y
_atom_site_fract_z
Si Si1 0.094956 0.477674 0.718590
Si Si2 0.250000 0.789251 0.298223
Si Si3 0.750000 0.721921 0.371610
Si Si4 0.848446 0.992311 0.656394
Si Si5 0.585952 0.887987 0.436333
Si Si6 0.343410 0.789076 0.537285
Si Si7 0.500000 0.000000 0.024260
O O1 0.165432 0.377397 0.763621
O O2 0.124492 0.741931 0.687791
O O3 0.000000 0.500000 0.744128
O O4 0.092017 0.242379 0.674081
O O5 0.250000 0.496889 0.322229
O O6 0.250000 0.982910 0.351173
O O7 0.658475 0.717196 0.404895
O O8 0.750000 0.940598 0.675449
O O9 0.844131 0.005779 0.588035
O O10 0.540544 0.714534 0.483880
O O11 0.500000 0.000000 0.404198
O O12 0.636174 0.100726 0.474590
O O13 0.250000 0.662083 0.536807
O O14 0.420434 0.610614 0.557205
#
# Coordination Sequence:
#
# PCOD9365167 Si02
#       7
#     8   4   4   8   8   8   4
#     4  12  26  48  76 105 144 185 242 303 370 426
#     4  12  28  52  74 105 139 180 248 314 366 429
#     4  12  28  48  82  99 139 192 238 304 378 423
#     4  11  23  44  74 108 150 195 233 285 356 442
#     4  10  24  44  68 107 146 183 241 293 355 433
#     4  10  23  40  69 106 150 192 235 279 354 433
#     4  10  24  40  66  98 158 178 236 292 334 434
#
# _framework density 23.233191000000001
#
# number of rings (size 3 to 8) (size 9 to 14) (size 15 to 20)
#    0.000    1.091    2.727    1.636   10.182    3.636 
#    0.000    0.000    0.000    0.000    0.000    0.000 
#    0.000    0.000    0.000    0.000    0.000    0.000 
#
# Total GULP energy -122803.939728 kJ/mol
# GULP energy per Si atom -5581.997260 kJ/mol
# Density = 2.318031 g / cm^3
# Si number density = 23.233191 Si / 1000 Ang^3
#
#
#
# Elastic Constant Matrix: (Units=GPa)
#
#
# Indices 1 2 3 4 5 6 
#
# 1 208.4359 27.2529 42.8838 0.0000 0.0000 0.0000
# 2 27.2529 80.4510 8.1310 0.0000 0.0000 0.0000
# 3 42.8838 8.1310 54.5191 0.0000 0.0000 0.0000
# 4 0.0000 0.0000 0.0000 4.5217 0.0000 0.0000
# 5 0.0000 0.0000 0.0000 0.0000 0.7236 0.0000
# 6 0.0000 0.0000 0.0000 0.0000 0.0000 23.7331
#
#
#
# Elastic Compliance Matrix: (Units=1/GPa)
#
#
# Indices 1 2 3 4 5 6 
#
# 1 0.005910 -0.001556 -0.004416 0.000000 0.000000 0.000000
# 2 -0.001556 0.013030 -0.000720 0.000000 0.000000 0.000000
# 3 -0.004416 -0.000720 0.021923 0.000000 0.000000 0.000000
# 4 0.000000 0.000000 0.000000 0.221155 0.000000 0.000000
# 5 0.000000 0.000000 0.000000 0.000000 1.382000 0.000000
# 6 0.000000 0.000000 0.000000 0.000000 0.000000 0.042135
#
#
# Mechanical properties :
#
#
# Convention : Reuss Voigt Hill
#
# Bulk Modulus (GPa) = 36.39092 55.54904 45.96998
# Shear Modulus (GPa) = 2.92621 23.47156 13.19888
#
# Velocity S-wave (km/s) = 1.12349 3.18191 2.38608
# Velocity P-wave (km/s) = 4.16897 6.12051 5.23646
#
# Compressibility (1/GPa) = 0.02747938
#
# Stress axis : x y z
#
# Youngs Moduli (GPa) = 169.21411 76.74831 45.61323
#
# Poissons Ratio (x) = 0.11939 0.20145
# Poissons Ratio (y) = 0.26322 0.03283
# Poissons Ratio (z) = 0.74733 0.05523
#
# Static dielectric constant tensor:
#      x y z
#    x 2.009590 0.000000 0.000000 
#    y 0.000000 2.529590 0.000000 
#    z 0.000000 0.000000 1.882690 
# 
# From -- ./inp_files/25699.got.cif
#   From: 2010.05.17/outbox.cif.g08.bks.cpg/sg40_13_cif.got.tgz:25699.got - 2010.06.03 18:35:42.
