data_PCOD9365283
_publ_section_title
;
Structure prediction by ZEFSAII (Michael W. Deem and Ramdas Pophale) SiO2 
 PCOD9365283
Probable space group: A M A 2
;
_chemical_formula_sum "Si O2"
_cell_formula_units_Z 36
_cell_length_a 18.629671
_cell_length_b 16.249898
_cell_length_c 5.039175
_cell_angle_alpha 90.000000
_cell_angle_beta 90.000000
_cell_angle_gamma 90.000000
_cell_volume 1525.510725
_symmetry_space_group_name_H-M "A M A 2"
_symmetry_group_IT_number 40
_symmetry_cell_setting 'orthorhombic'
loop_
_space_group_symop_operation_xyz
x,y,z
-x,-y,z
1/2-x,y,z
1/2+x,-y,z
x,1/2+y,1/2+z
-x,1/2-y,1/2+z
1/2-x,1/2+y,1/2+z
1/2+x,1/2-y,1/2+z
loop_
_atom_site_type_symbol
_atom_site_label
_atom_site_fract_x
_atom_site_fract_y
_atom_site_fract_z
Si Si1 0.750000 0.593910 0.245530
Si Si2 0.750000 0.256846 0.003861
Si Si3 0.520670 0.594187 0.494010
Si Si4 0.750000 0.408108 0.401579
Si Si5 0.103858 0.852092 0.477425
Si Si6 0.375485 0.177581 0.125982
O O1 0.750000 0.657500 0.498220
O O2 0.750000 0.496652 0.276745
O O3 0.821101 0.616124 0.086088
O O4 0.676069 0.281799 0.849375
O O5 0.750000 0.320725 0.244805
O O6 0.500000 0.500000 0.440817
O O7 0.546393 0.634501 0.217088
O O8 0.454767 0.640507 0.641828
O O9 0.582894 0.601423 0.711040
O O10 0.674822 0.399005 0.550217
O O11 0.112341 0.754604 0.428176
#
# Coordination Sequence:
#
# PCOD9365283 Si02
#       6
#     4   4   8   4   8   8
#     4  10  24  46  67 106 140 181 253 289 367 431
#     4   9  23  41  68  97 139 190 233 300 359 431
#     4  12  26  43  71 102 142 182 239 288 360 421
#     4  11  23  43  75  97 143 187 238 303 354 434
#     4  11  26  45  70 101 138 192 224 302 350 429
#     4  10  24  43  63 104 133 184 240 286 357 433
#
# _framework density 23.598652999999999
#
# number of rings (size 3 to 8) (size 9 to 14) (size 15 to 20)
#    0.000    1.333    0.000    4.000   12.444    0.889 
#    0.000    0.000    0.000    0.000    0.000    0.000 
#    0.000    0.000    0.000    0.000    0.000    0.000 
#
# Total GULP energy -100467.322753 kJ/mol
# GULP energy per Si atom -5581.517931 kJ/mol
# Density = 2.354494 g / cm^3
# Si number density = 23.598653 Si / 1000 Ang^3
#
#
#
# Elastic Constant Matrix: (Units=GPa)
#
#
# Indices 1 2 3 4 5 6 
#
# 1 109.3508 48.3219 15.9955 0.0000 0.0000 0.0000
# 2 48.3219 107.7880 9.5252 0.0000 0.0000 0.0000
# 3 15.9955 9.5252 70.0045 0.0000 0.0000 0.0000
# 4 0.0000 0.0000 0.0000 14.8711 0.0000 0.0000
# 5 0.0000 0.0000 0.0000 0.0000 21.4891 0.0000
# 6 0.0000 0.0000 0.0000 0.0000 0.0000 31.6243
#
#
#
# Elastic Compliance Matrix: (Units=1/GPa)
#
#
# Indices 1 2 3 4 5 6 
#
# 1 0.011669 -0.005056 -0.001978 0.000000 0.000000 0.000000
# 2 -0.005056 0.011581 -0.000421 0.000000 0.000000 0.000000
# 3 -0.001978 -0.000421 0.014794 0.000000 0.000000 0.000000
# 4 0.000000 0.000000 0.000000 0.067245 0.000000 0.000000
# 5 0.000000 0.000000 0.000000 0.000000 0.046535 0.000000
# 6 0.000000 0.000000 0.000000 0.000000 0.000000 0.031621
#
#
# Mechanical properties :
#
#
# Convention : Reuss Voigt Hill
#
# Bulk Modulus (GPa) = 43.22636 48.31428 45.77032
# Shear Modulus (GPa) = 24.26403 27.81696 26.04049
#
# Velocity S-wave (km/s) = 3.21003 3.43702 3.32546
# Velocity P-wave (km/s) = 5.66534 6.02234 5.84657
#
# Compressibility (1/GPa) = 0.02313403
#
# Stress axis : x y z
#
# Youngs Moduli (GPa) = 85.70005 86.34542 67.59490
#
# Poissons Ratio (x) = 0.43659 0.13372
# Poissons Ratio (y) = 0.43332 0.02842
# Poissons Ratio (z) = 0.16953 0.03631
#
# Static dielectric constant tensor:
#      x y z
#    x 1.972570 0.000000 0.000000 
#    y 0.000000 1.849660 0.000000 
#    z 0.000000 0.000000 1.957690 
# 
# From -- ./inp_files/2219.got.cif
#   From: 2010.05.17/outbox.cif.g08.bks.cpg/sg40_2_cif.got.tgz:2219.got - 2010.06.03 18:35:42.
