data_PCOD9365023
_publ_section_title
;
Structure prediction by ZEFSAII (Michael W. Deem and Ramdas Pophale) SiO2 
 PCOD9365023
Probable space group: A M A 2
;
_chemical_formula_sum "Si O2"
_cell_formula_units_Z 48
_cell_length_a 14.226166
_cell_length_b 16.959709
_cell_length_c 9.643766
_cell_angle_alpha 90.000000
_cell_angle_beta 90.000000
_cell_angle_gamma 90.000000
_cell_volume 2326.767196
_symmetry_space_group_name_H-M "A M A 2"
_symmetry_group_IT_number 40
_symmetry_cell_setting 'orthorhombic'
loop_
_space_group_symop_operation_xyz
x,y,z
-x,-y,z
1/2-x,y,z
1/2+x,-y,z
x,1/2+y,1/2+z
-x,1/2-y,1/2+z
1/2-x,1/2+y,1/2+z
1/2+x,1/2-y,1/2+z
loop_
_atom_site_type_symbol
_atom_site_label
_atom_site_fract_x
_atom_site_fract_y
_atom_site_fract_z
Si Si1 0.540873 0.415214 0.319490
Si Si2 0.442676 0.867176 0.544890
Si Si3 0.059897 0.423639 0.739536
Si Si4 0.750000 0.699054 0.436727
Si Si5 0.750000 0.378633 0.432984
Si Si6 0.750000 0.043084 0.077983
Si Si7 0.452938 0.794877 0.030419
Si Si8 0.250000 0.784592 0.618326
O O1 0.500000 0.500000 0.367762
O O2 0.507124 0.407320 0.161337
O O3 0.651334 0.394410 0.348613
O O4 0.481881 0.351441 0.405293
O O5 0.434539 0.915214 0.403651
O O6 0.491990 0.784604 0.514914
O O7 0.340151 0.840029 0.594615
O O8 0.159927 0.435795 0.668260
O O9 0.021668 0.343313 0.669341
O O10 0.000000 0.500000 0.703080
O O11 0.750000 0.602397 0.445026
O O12 0.657089 0.722968 0.519132
O O13 0.750000 0.734426 0.282676
O O14 0.750000 0.451747 0.539684
O O15 0.750000 0.293560 0.515940
#
# Coordination Sequence:
#
# PCOD9365023 Si02
#       8
#     8   8   8   4   4   4   8   4
#     4  12  25  45  70 102 140 187 237 291 349 426
#     4  12  26  43  67 103 143 180 226 296 356 415
#     4  11  24  43  67  99 136 179 223 281 349 411
#     4  10  22  41  68 100 129 178 228 287 341 425
#     4  12  26  43  73 107 137 190 242 297 346 436
#     4  10  23  46  70 100 129 180 236 281 339 427
#     4  11  22  42  69  98 136 180 236 279 346 422
#     4  12  25  42  69 101 137 180 234 287 360 406
#
# _framework density 20.629480000000001
#
# number of rings (size 3 to 8) (size 9 to 14) (size 15 to 20)
#    0.000    0.667    3.333    5.500    0.000    0.667 
#    0.000    2.500    0.000    0.000    0.000    0.000 
#    0.000    0.000    0.000    0.000    0.000    0.000 
#
# Total GULP energy -134058.969799 kJ/mol
# GULP energy per Si atom -5585.790408 kJ/mol
# Density = 2.058253 g / cm^3
# Si number density = 20.629480 Si / 1000 Ang^3
#
#
#
# Elastic Constant Matrix: (Units=GPa)
#
#
# Indices 1 2 3 4 5 6 
#
# 1 136.5758 31.1547 30.8997 0.0000 0.0000 0.0000
# 2 31.1547 78.0023 25.0160 0.0000 0.0000 0.0000
# 3 30.8997 25.0160 117.1026 0.0000 0.0000 0.0000
# 4 0.0000 0.0000 0.0000 68.5924 0.0000 0.0000
# 5 0.0000 0.0000 0.0000 0.0000 -5.4031 0.0000
# 6 0.0000 0.0000 0.0000 0.0000 0.0000 14.8671
#
#
#
# Elastic Compliance Matrix: (Units=1/GPa)
#
#
# Indices 1 2 3 4 5 6 
#
# 1 0.008325 -0.002813 -0.001596 0.000000 0.000000 0.000000
# 2 -0.002813 0.014714 -0.002401 0.000000 0.000000 0.000000
# 3 -0.001596 -0.002401 0.009473 0.000000 0.000000 0.000000
# 4 0.000000 0.000000 0.000000 0.014579 0.000000 0.000000
# 5 0.000000 0.000000 0.000000 0.000000 -0.185080 0.000000
# 6 0.000000 0.000000 0.000000 0.000000 0.000000 0.067263
#
#
# Mechanical properties :
#
#
# Convention : Reuss Voigt Hill
#
# Bulk Modulus (GPa) = 52.93143 56.20238 54.56690
# Shear Modulus (GPa) = -98.40670 31.91864 -33.24403
#
# Velocity S-wave (km/s) = -6.91415 3.93776 -4.01868
# Velocity P-wave (km/s) = 6.16659 6.92657 2.23054
#
# Compressibility (1/GPa) = 0.01889237
#
# Stress axis : x y z
#
# Youngs Moduli (GPa) = 120.12483 67.96374 105.55809
#
# Poissons Ratio (x) = 0.19120 0.16843
# Poissons Ratio (y) = 0.33793 0.25343
# Poissons Ratio (z) = 0.19168 0.16317
#
# Static dielectric constant tensor:
#      x y z
#    x 1.805820 0.000000 0.000000 
#    y 0.000000 1.715310 0.000000 
#    z 0.000000 0.000000 1.769340 
# 
# From -- ./inp_files/6530.got.cif
#   From: 2010.05.17/outbox.cif.g08.bks.cpg/sg40_4_cif.got.tgz:6530.got - 2010.06.03 18:35:42.
