data_PCOD9365993
_publ_section_title
;
Structure prediction by ZEFSAII (Michael W. Deem and Ramdas Pophale) SiO2 
 PCOD9365993
Probable space group: A B A 2
;
_chemical_formula_sum "Si O2"
_cell_formula_units_Z 48
_cell_length_a 5.399774
_cell_length_b 27.357096
_cell_length_c 13.457127
_cell_angle_alpha 90.000000
_cell_angle_beta 90.000000
_cell_angle_gamma 90.000000
_cell_volume 1987.915541
_symmetry_space_group_name_H-M "A B A 2"
_symmetry_group_IT_number 41
_symmetry_cell_setting 'orthorhombic'
loop_
_space_group_symop_operation_xyz
x,y,z
-x,-y,z
1/2-x,y,1/2+z
1/2+x,-y,1/2+z
x,1/2+y,1/2+z
-x,1/2-y,1/2+z
1/2-x,1/2+y,z
1/2+x,1/2-y,z
loop_
_atom_site_type_symbol
_atom_site_label
_atom_site_fract_x
_atom_site_fract_y
_atom_site_fract_z
Si Si1 0.250502 0.974098 0.947710
Si Si2 0.896408 0.625322 0.353211
Si Si3 0.853584 0.370551 0.150898
Si Si4 0.590813 0.333840 0.430084
Si Si5 0.331967 0.222476 0.752698
Si Si6 0.749897 0.984112 0.664083
O O1 0.230210 0.921289 0.902646
O O2 0.500000 0.000000 0.918189
O O3 0.000000 0.000000 0.919614
O O4 0.253105 0.980124 0.067452
O O5 0.687508 0.663833 0.384757
O O6 0.932664 0.624415 0.234697
O O7 0.175899 0.630968 0.396700
O O8 0.667852 0.331310 0.201636
O O9 0.754351 0.426299 0.138468
O O10 0.929064 0.346134 0.046524
O O11 0.682478 0.285375 0.372335
O O12 0.574367 0.252198 0.722737
O O13 0.500000 0.000000 0.716409
O O14 0.000000 0.000000 0.717510
#
# Coordination Sequence:
#
# PCOD9365993 Si02
#       6
#     8   8   8   8   8   8
#     4  10  19  36  61  91 137 188 234 292 355 417
#     4  11  24  43  67 105 148 192 250 314 369 439
#     4  11  26  46  77 111 149 203 257 307 380 462
#     4  11  24  45  73 101 143 192 243 311 383 452
#     4  11  26  48  72 107 146 185 246 315 379 447
#     4  10  21  38  64 101 143 188 242 295 354 435
#
# _framework density 24.145893999999998
#
# number of rings (size 3 to 8) (size 9 to 14) (size 15 to 20)
#    0.000    1.333    0.000    7.000    0.000   10.000 
#    0.000    1.667    0.000    2.000    0.000    0.000 
#    0.000    0.000    0.000    0.000    0.000    0.000 
#
# Total GULP energy -133873.984463 kJ/mol
# GULP energy per Si atom -5578.082686 kJ/mol
# Density = 2.409094 g / cm^3
# Si number density = 24.145894 Si / 1000 Ang^3
#
#
#
# Elastic Constant Matrix: (Units=GPa)
#
#
# Indices 1 2 3 4 5 6 
#
# 1 168.8429 32.9340 39.2695 0.0000 0.0000 0.0000
# 2 32.9340 96.0738 -2.7084 0.0000 0.0000 0.0000
# 3 39.2695 -2.7084 159.5978 0.0000 0.0000 0.0000
# 4 0.0000 0.0000 0.0000 26.5972 0.0000 0.0000
# 5 0.0000 0.0000 0.0000 0.0000 16.0619 0.0000
# 6 0.0000 0.0000 0.0000 0.0000 0.0000 41.4729
#
#
#
# Elastic Compliance Matrix: (Units=1/GPa)
#
#
# Indices 1 2 3 4 5 6 
#
# 1 0.006783 -0.002373 -0.001709 0.000000 0.000000 0.000000
# 2 -0.002373 0.011244 0.000775 0.000000 0.000000 0.000000
# 3 -0.001709 0.000775 0.006699 0.000000 0.000000 0.000000
# 4 0.000000 0.000000 0.000000 0.037598 0.000000 0.000000
# 5 0.000000 0.000000 0.000000 0.000000 0.062259 0.000000
# 6 0.000000 0.000000 0.000000 0.000000 0.000000 0.024112
#
#
# Mechanical properties :
#
#
# Convention : Reuss Voigt Hill
#
# Bulk Modulus (GPa) = 55.21538 62.61163 58.91351
# Shear Modulus (GPa) = 30.98877 40.49435 35.74156
#
# Velocity S-wave (km/s) = 3.58634 4.09965 3.85155
# Velocity P-wave (km/s) = 6.32978 6.95675 6.65066
#
# Compressibility (1/GPa) = 0.01811089
#
# Stress axis : x y z
#
# Youngs Moduli (GPa) = 147.42359 88.93535 149.26533
#
# Poissons Ratio (x) = 0.21108 0.25514
# Poissons Ratio (y) = 0.34990 -0.11565
# Poissons Ratio (z) = 0.25199 -0.06891
#
# Static dielectric constant tensor:
#      x y z
#    x 2.166540 0.000000 0.000000 
#    y 0.000000 2.032320 0.000000 
#    z 0.000000 0.000000 1.953410 
# 
# From -- ./inp_files/6882.got.cif
#   From: 2010.05.17/outbox.cif.g08.bks.cpg/sg41_4_cif.got.tgz:6882.got - 2010.06.03 18:54:24.
