data_PCOD9365369
_publ_section_title
;
Structure prediction by ZEFSAII (Michael W. Deem and Ramdas Pophale) SiO2 
 PCOD9365369
Probable space group: A M A 2
;
_chemical_formula_sum "Si O2"
_cell_formula_units_Z 48
_cell_length_a 8.345028
_cell_length_b 14.020408
_cell_length_c 18.926589
_cell_angle_alpha 90.000000
_cell_angle_beta 90.000000
_cell_angle_gamma 90.000000
_cell_volume 2214.424111
_symmetry_space_group_name_H-M "A M A 2"
_symmetry_group_IT_number 40
_symmetry_cell_setting 'orthorhombic'
loop_
_space_group_symop_operation_xyz
x,y,z
-x,-y,z
1/2-x,y,z
1/2+x,-y,z
x,1/2+y,1/2+z
-x,1/2-y,1/2+z
1/2-x,1/2+y,1/2+z
1/2+x,1/2-y,1/2+z
loop_
_atom_site_type_symbol
_atom_site_label
_atom_site_fract_x
_atom_site_fract_y
_atom_site_fract_z
Si Si1 0.937790 0.296890 0.771360
Si Si2 0.066018 0.250285 0.513762
Si Si3 0.438773 0.596642 0.271931
Si Si4 0.942914 0.608375 0.626678
Si Si5 0.562885 0.101598 0.614881
Si Si6 0.561474 0.101654 0.402033
O O1 0.750000 0.276894 0.768151
O O2 0.026704 0.202027 0.800589
O O3 0.994743 0.331387 0.694126
O O4 0.974111 0.378592 0.828051
O O5 0.250000 0.263056 0.491328
O O6 0.003329 0.346789 0.550941
O O7 0.050744 0.179350 0.580446
O O8 0.976367 0.190633 0.453590
O O9 0.500000 0.500000 0.309829
O O10 0.250000 0.586706 0.258320
O O11 0.537682 0.600672 0.198721
O O12 0.750000 0.612895 0.627661
O O13 0.000000 0.500000 0.633730
O O14 0.750000 0.117100 0.597612
O O15 0.500000 0.000000 0.589599
O O16 0.750000 0.095812 0.390994
O O17 0.500000 0.000000 0.430514
#
# Coordination Sequence:
#
# PCOD9365369 Si02
#       6
#     8   8   8   8   8   8
#     4  12  24  42  67  96 133 173 220 270 327 389
#     4  11  23  41  63  91 127 166 212 266 323 385
#     4  11  21  36  58  90 127 165 210 261 319 376
#     4  11  24  42  67  96 130 169 217 271 326 388
#     4  11  20  32  54  85 121 161 202 252 310 369
#     4  12  26  45  68  96 132 172 218 268 329 395
#
# _framework density 21.676065000000001
#
# number of rings (size 3 to 8) (size 9 to 14) (size 15 to 20)
#    0.000    0.667    1.667    9.000    0.000    2.000 
#    0.000    0.833    0.000    2.000    0.000    0.000 
#    0.000    0.000    0.000    0.000    0.000    0.000 
#
# Total GULP energy -134082.368490 kJ/mol
# GULP energy per Si atom -5586.765354 kJ/mol
# Density = 2.162673 g / cm^3
# Si number density = 21.676065 Si / 1000 Ang^3
#
#
#
# Elastic Constant Matrix: (Units=GPa)
#
#
# Indices 1 2 3 4 5 6 
#
# 1 116.0046 23.2129 12.4122 0.0000 0.0000 0.0000
# 2 23.2129 120.5606 19.3469 0.0000 0.0000 0.0000
# 3 12.4122 19.3469 67.5779 0.0000 0.0000 0.0000
# 4 0.0000 0.0000 0.0000 23.8661 0.0000 0.0000
# 5 0.0000 0.0000 0.0000 0.0000 -11.6358 0.0000
# 6 0.0000 0.0000 0.0000 0.0000 0.0000 15.8879
#
#
#
# Elastic Compliance Matrix: (Units=1/GPa)
#
#
# Indices 1 2 3 4 5 6 
#
# 1 0.009061 -0.001549 -0.001221 0.000000 0.000000 0.000000
# 2 -0.001549 0.008959 -0.002280 0.000000 0.000000 0.000000
# 3 -0.001221 -0.002280 0.015675 0.000000 0.000000 0.000000
# 4 0.000000 0.000000 0.000000 0.041900 0.000000 0.000000
# 5 0.000000 0.000000 0.000000 0.000000 -0.085941 0.000000
# 6 0.000000 0.000000 0.000000 0.000000 0.000000 0.062941
#
#
# Mechanical properties :
#
#
# Convention : Reuss Voigt Hill
#
# Bulk Modulus (GPa) = 42.38250 46.00967 44.19608
# Shear Modulus (GPa) = 70.86266 22.23504 46.54885
#
# Velocity S-wave (km/s) = 5.72387 3.20627 4.63911
# Velocity P-wave (km/s) = 7.95479 5.91430 7.00919
#
# Compressibility (1/GPa) = 0.02359465
#
# Stress axis : x y z
#
# Youngs Moduli (GPa) = 110.36463 111.62323 63.79657
#
# Poissons Ratio (x) = 0.17287 0.07789
# Poissons Ratio (y) = 0.17092 0.14548
# Poissons Ratio (z) = 0.13474 0.25454
#
# Static dielectric constant tensor:
#      x y z
#    x 1.972680 0.000000 0.000000 
#    y 0.000000 1.864090 0.000000 
#    z 0.000000 0.000000 1.791410 
# 
# From -- ./inp_files/22005.got.cif
#   From: 2010.05.17/outbox.cif.g08.bks.cpg/sg40_12_cif.got.tgz:22005.got - 2010.06.03 18:35:42.
