data_PCOD9365543
_publ_section_title
;
Structure prediction by ZEFSAII (Michael W. Deem and Ramdas Pophale) SiO2 
 PCOD9365543
Probable space group: A M A 2
;
_chemical_formula_sum "Si O2"
_cell_formula_units_Z 28
_cell_length_a 7.754772
_cell_length_b 28.856974
_cell_length_c 4.921859
_cell_angle_alpha 90.000000
_cell_angle_beta 90.000000
_cell_angle_gamma 90.000000
_cell_volume 1101.409935
_symmetry_space_group_name_H-M "A M A 2"
_symmetry_group_IT_number 40
_symmetry_cell_setting 'orthorhombic'
loop_
_space_group_symop_operation_xyz
x,y,z
-x,-y,z
1/2-x,y,z
1/2+x,-y,z
x,1/2+y,1/2+z
-x,1/2-y,1/2+z
1/2-x,1/2+y,1/2+z
1/2+x,1/2-y,1/2+z
loop_
_atom_site_type_symbol
_atom_site_label
_atom_site_fract_x
_atom_site_fract_y
_atom_site_fract_z
Si Si1 0.250000 0.395993 0.904210
Si Si2 0.446849 0.550953 0.601218
Si Si3 0.062850 0.138613 0.711245
Si Si4 0.951703 0.220318 0.088306
O O1 0.403422 0.431582 0.800632
O O2 0.401188 0.360683 0.015137
O O3 0.500000 0.500000 0.502216
O O4 0.250000 0.549695 0.709889
O O5 0.449682 0.589130 0.363739
O O6 0.250000 0.143072 0.579505
O O7 0.043287 0.177132 0.944756
O O8 0.750000 0.209823 0.108790
O O9 0.975179 0.262368 0.873328
#
# Coordination Sequence:
#
# PCOD9365543 Si02
#       4
#     4   8   8   8
#     4  12  24  44  74 104 134 196 238 306 356 444
#     4  11  25  46  69 103 147 188 241 301 367 440
#     4  11  26  47  72 104 146 190 239 302 368 441
#     4  12  27  48  77 113 152 197 251 311 375 448
#
# _framework density 25.421962000000001
#
# number of rings (size 3 to 8) (size 9 to 14) (size 15 to 20)
#    0.000    0.571    2.857    4.286    4.000    1.143 
#    5.143    0.000    0.000    0.000    0.000    0.000 
#    0.000    0.000    0.000    0.000    0.000    0.000 
#
# Total GULP energy -78005.878954 kJ/mol
# GULP energy per Si atom -5571.848497 kJ/mol
# Density = 2.536410 g / cm^3
# Si number density = 25.421962 Si / 1000 Ang^3
#
#
#
# Elastic Constant Matrix: (Units=GPa)
#
#
# Indices 1 2 3 4 5 6 
#
# 1 295.2999 59.0688 31.4323 0.0000 0.0000 0.0000
# 2 59.0688 127.4500 47.7196 0.0000 0.0000 0.0000
# 3 31.4323 47.7196 35.8931 0.0000 0.0000 0.0000
# 4 0.0000 0.0000 0.0000 42.1197 0.0000 0.0000
# 5 0.0000 0.0000 0.0000 0.0000 24.7922 0.0000
# 6 0.0000 0.0000 0.0000 0.0000 0.0000 78.4286
#
#
#
# Elastic Compliance Matrix: (Units=1/GPa)
#
#
# Indices 1 2 3 4 5 6 
#
# 1 0.003801 -0.001026 -0.001964 0.000000 0.000000 0.000000
# 2 -0.001026 0.015900 -0.020241 0.000000 0.000000 0.000000
# 3 -0.001964 -0.020241 0.056491 0.000000 0.000000 0.000000
# 4 0.000000 0.000000 0.000000 0.023742 0.000000 0.000000
# 5 0.000000 0.000000 0.000000 0.000000 0.040335 0.000000
# 6 0.000000 0.000000 0.000000 0.000000 0.000000 0.012750
#
#
# Mechanical properties :
#
#
# Convention : Reuss Voigt Hill
#
# Bulk Modulus (GPa) = 33.63664 81.67605 57.65635
# Shear Modulus (GPa) = 23.87876 50.42957 37.15417
#
# Velocity S-wave (km/s) = 3.06812 4.45871 3.82710
# Velocity P-wave (km/s) = 5.08047 7.66190 6.50061
#
# Compressibility (1/GPa) = 0.02972949
#
# Stress axis : x y z
#
# Youngs Moduli (GPa) = 263.10892 62.89198 17.70206
#
# Poissons Ratio (x) = 0.06453 0.03477
# Poissons Ratio (y) = 0.26997 0.35830
# Poissons Ratio (z) = 0.51680 1.27298
#
# Static dielectric constant tensor:
#      x y z
#    x 1.627980 0.000000 0.000000 
#    y 0.000000 2.027170 0.000000 
#    z 0.000000 0.000000 2.024520 
# 
# From -- ./inp_files/293.got.cif
#   From: 2010.05.17/outbox.cif.g08.bks.cpg/sg40_1_cif.got.tgz:293.got - 2010.06.03 18:35:42.
