data_PCOD9365022
_publ_section_title
;
Structure prediction by ZEFSAII (Michael W. Deem and Ramdas Pophale) SiO2 
 PCOD9365022
Probable space group: A M A 2
;
_chemical_formula_sum "Si O2"
_cell_formula_units_Z 48
_cell_length_a 16.165860
_cell_length_b 8.303750
_cell_length_c 17.537969
_cell_angle_alpha 90.000000
_cell_angle_beta 90.000000
_cell_angle_gamma 90.000000
_cell_volume 2354.248904
_symmetry_space_group_name_H-M "A M A 2"
_symmetry_group_IT_number 40
_symmetry_cell_setting 'orthorhombic'
loop_
_space_group_symop_operation_xyz
x,y,z
-x,-y,z
1/2-x,y,z
1/2+x,-y,z
x,1/2+y,1/2+z
-x,1/2-y,1/2+z
1/2-x,1/2+y,1/2+z
1/2+x,1/2-y,1/2+z
loop_
_atom_site_type_symbol
_atom_site_label
_atom_site_fract_x
_atom_site_fract_y
_atom_site_fract_z
Si Si1 0.088589 0.190636 0.477470
Si Si2 0.986014 0.176749 0.247599
Si Si3 0.655776 0.837193 0.645784
Si Si4 0.841634 0.636481 0.240190
Si Si5 0.658129 0.494729 0.404266
Si Si6 0.085177 0.349454 0.919289
O O1 0.131353 0.192918 0.558982
O O2 0.102218 0.361952 0.436691
O O3 0.989736 0.169250 0.479236
O O4 0.120375 0.029716 0.432419
O O5 0.075464 0.260850 0.245713
O O6 0.914885 0.261929 0.199013
O O7 0.954800 0.160572 0.334833
O O8 0.000000 0.000000 0.215168
O O9 0.750000 0.780185 0.661867
O O10 0.655139 0.027022 0.665175
O O11 0.750000 0.717061 0.244040
O O12 0.844474 0.515982 0.312850
O O13 0.750000 0.535514 0.430777
O O14 0.639122 0.311225 0.425855
#
# Coordination Sequence:
#
# PCOD9365022 Si02
#       6
#     8   8   8   8   8   8
#     4  11  24  44  66  98 139 175 225 284 345 401
#     4  12  23  42  71 101 134 180 227 282 342 407
#     4  11  26  45  68  98 139 182 224 284 351 406
#     4  10  22  41  67  98 132 180 227 275 340 408
#     4  11  22  40  69  98 132 178 224 279 337 404
#     4  11  23  40  69 103 129 176 233 279 337 411
#
# _framework density 20.388667000000002
#
# number of rings (size 3 to 8) (size 9 to 14) (size 15 to 20)
#    0.000    1.000    5.000    1.500    4.667    3.333 
#    0.000    0.000    0.000    0.000    0.000    0.000 
#    0.000    0.000    0.000    0.000    0.000    0.000 
#
# Total GULP energy -133881.325495 kJ/mol
# GULP energy per Si atom -5578.388562 kJ/mol
# Density = 2.034226 g / cm^3
# Si number density = 20.388667 Si / 1000 Ang^3
#
#
#
# Elastic Constant Matrix: (Units=GPa)
#
#
# Indices 1 2 3 4 5 6 
#
# 1 113.7680 28.3968 30.5692 0.0000 0.0000 0.0000
# 2 28.3968 81.4535 12.3461 0.0000 0.0000 0.0000
# 3 30.5692 12.3461 62.7309 0.0000 0.0000 0.0000
# 4 0.0000 0.0000 0.0000 19.5535 0.0000 0.0000
# 5 0.0000 0.0000 0.0000 0.0000 24.0878 0.0000
# 6 0.0000 0.0000 0.0000 0.0000 0.0000 -83.7434
#
#
#
# Elastic Compliance Matrix: (Units=1/GPa)
#
#
# Indices 1 2 3 4 5 6 
#
# 1 0.010807 -0.003061 -0.004664 0.000000 0.000000 0.000000
# 2 -0.003061 0.013521 -0.001170 0.000000 0.000000 0.000000
# 3 -0.004664 -0.001170 0.018444 0.000000 0.000000 0.000000
# 4 0.000000 0.000000 0.000000 0.051142 0.000000 0.000000
# 5 0.000000 0.000000 0.000000 0.000000 0.041515 0.000000
# 6 0.000000 0.000000 0.000000 0.000000 0.000000 -0.011941
#
#
# Mechanical properties :
#
#
# Convention : Reuss Voigt Hill
#
# Bulk Modulus (GPa) = 40.02591 44.50850 42.26720
# Shear Modulus (GPa) = 33.42157 4.42225 18.92191
#
# Velocity S-wave (km/s) = 4.05312 1.47434 3.04971
# Velocity P-wave (km/s) = 6.44809 4.97751 5.75993
#
# Compressibility (1/GPa) = 0.02498382
#
# Stress axis : x y z
#
# Youngs Moduli (GPa) = 92.53296 73.95763 54.21793
#
# Poissons Ratio (x) = 0.22636 0.25287
# Poissons Ratio (y) = 0.28321 0.06342
# Poissons Ratio (z) = 0.43157 0.08650
#
# Static dielectric constant tensor:
#      x y z
#    x 1.785790 0.000000 0.000000 
#    y 0.000000 1.760800 0.000000 
#    z 0.000000 0.000000 1.711120 
# 
# From -- ./inp_files/20551.got.cif
#   From: 2010.05.17/outbox.cif.g08.bks.cpg/sg40_11_cif.got.tgz:20551.got - 2010.06.03 18:35:42.
