data_PCOD9365476
_publ_section_title
;
Structure prediction by ZEFSAII (Michael W. Deem and Ramdas Pophale) SiO2 
 PCOD9365476
Probable space group: A M A 2
;
_chemical_formula_sum "Si O2"
_cell_formula_units_Z 40
_cell_length_a 28.500691
_cell_length_b 4.940579
_cell_length_c 12.943024
_cell_angle_alpha 90.000000
_cell_angle_beta 90.000000
_cell_angle_gamma 90.000000
_cell_volume 1822.506115
_symmetry_space_group_name_H-M "A M A 2"
_symmetry_group_IT_number 40
_symmetry_cell_setting 'orthorhombic'
loop_
_space_group_symop_operation_xyz
x,y,z
-x,-y,z
1/2-x,y,z
1/2+x,-y,z
x,1/2+y,1/2+z
-x,1/2-y,1/2+z
1/2-x,1/2+y,1/2+z
1/2+x,1/2-y,1/2+z
loop_
_atom_site_type_symbol
_atom_site_label
_atom_site_fract_x
_atom_site_fract_y
_atom_site_fract_z
Si Si1 0.033523 0.757029 0.654750
Si Si2 0.750000 0.563978 0.661651
Si Si3 0.946597 0.570070 0.385762
Si Si4 0.700300 0.801377 0.984192
Si Si5 0.250000 0.935758 0.806806
Si Si6 0.099719 0.910337 0.476318
O O1 0.049638 0.811929 0.771195
O O2 0.076921 0.771684 0.577362
O O3 0.000000 0.500000 0.653870
O O4 0.000000 0.000000 0.620696
O O5 0.706292 0.487433 0.586391
O O6 0.750000 0.359567 0.758639
O O7 0.750000 0.859374 0.709916
O O8 0.918639 0.289297 0.386363
O O9 0.000000 0.500000 0.419556
O O10 0.920620 0.792672 0.455750
O O11 0.750000 0.639524 0.984111
O O12 0.655275 0.617138 0.982674
O O13 0.706296 0.988621 0.882150
#
# Coordination Sequence:
#
# PCOD9365476 Si02
#       6
#     8   4   8   8   4   8
#     4  11  23  40  62  91 124 161 206 253 308 371
#     4   9  20  41  62  82 122 163 198 255 308 352
#     4  11  24  41  64  92 127 163 210 258 315 374
#     4   8  24  41  61  98 124 162 216 254 304 381
#     4   9  20  39  62  82 120 165 198 251 312 348
#     4  12  23  41  64  95 125 167 208 257 314 372
#
# _framework density 21.947801999999999
#
# number of rings (size 3 to 8) (size 9 to 14) (size 15 to 20)
#    1.200    0.400    0.000    6.000    0.000    9.600 
#    0.000    0.000    0.000    0.000    0.000    0.000 
#    0.000    0.000    0.000    0.000    0.000    0.000 
#
# Total GULP energy -111670.667807 kJ/mol
# GULP energy per Si atom -5583.533390 kJ/mol
# Density = 2.189785 g / cm^3
# Si number density = 21.947802 Si / 1000 Ang^3
#
#
#
# Elastic Constant Matrix: (Units=GPa)
#
#
# Indices 1 2 3 4 5 6 
#
# 1 130.0488 23.5921 11.2904 0.0000 0.0000 0.0000
# 2 23.5921 98.7075 -1.0812 0.0000 0.0000 0.0000
# 3 11.2904 -1.0812 91.6178 0.0000 0.0000 0.0000
# 4 0.0000 0.0000 0.0000 27.9189 0.0000 0.0000
# 5 0.0000 0.0000 0.0000 0.0000 9.1178 0.0000
# 6 0.0000 0.0000 0.0000 0.0000 0.0000 8.6947
#
#
#
# Elastic Compliance Matrix: (Units=1/GPa)
#
#
# Indices 1 2 3 4 5 6 
#
# 1 0.008133 -0.001955 -0.001025 0.000000 0.000000 0.000000
# 2 -0.001955 0.010602 0.000366 0.000000 0.000000 0.000000
# 3 -0.001025 0.000366 0.011046 0.000000 0.000000 0.000000
# 4 0.000000 0.000000 0.000000 0.035818 0.000000 0.000000
# 5 0.000000 0.000000 0.000000 0.000000 0.109675 0.000000
# 6 0.000000 0.000000 0.000000 0.000000 0.000000 0.115013
#
#
# Mechanical properties :
#
#
# Convention : Reuss Voigt Hill
#
# Bulk Modulus (GPa) = 40.72971 43.10853 41.91912
# Shear Modulus (GPa) = 16.46363 28.25114 22.35739
#
# Velocity S-wave (km/s) = 2.74182 3.59164 3.19511
# Velocity P-wave (km/s) = 5.34988 6.07321 5.72299
#
# Compressibility (1/GPa) = 0.02455210
#
# Stress axis : x y z
#
# Youngs Moduli (GPa) = 122.95403 94.31966 90.53389
#
# Poissons Ratio (x) = 0.18441 0.09283
# Poissons Ratio (y) = 0.24039 -0.03314
# Poissons Ratio (z) = 0.12607 -0.03453
#
# Static dielectric constant tensor:
#      x y z
#    x 1.796060 0.000000 0.000000 
#    y 0.000000 1.786460 0.000000 
#    z 0.000000 0.000000 1.842160 
# 
# From -- ./inp_files/18601.got.cif
#   From: 2010.05.17/outbox.cif.g08.bks.cpg/sg40_10_cif.got.tgz:18601.got - 2010.06.03 18:35:42.
