data_PCOD9365983
_publ_section_title
;
Structure prediction by ZEFSAII (Michael W. Deem and Ramdas Pophale) SiO2 
 PCOD9365983
Probable space group: A B A 2
;
_chemical_formula_sum "Si O2"
_cell_formula_units_Z 56
_cell_length_a 15.794110
_cell_length_b 25.869270
_cell_length_c 5.395252
_cell_angle_alpha 90.000000
_cell_angle_beta 90.000000
_cell_angle_gamma 90.000000
_cell_volume 2204.403371
_symmetry_space_group_name_H-M "A B A 2"
_symmetry_group_IT_number 41
_symmetry_cell_setting 'orthorhombic'
loop_
_space_group_symop_operation_xyz
x,y,z
-x,-y,z
1/2-x,y,1/2+z
1/2+x,-y,1/2+z
x,1/2+y,1/2+z
-x,1/2-y,1/2+z
1/2-x,1/2+y,z
1/2+x,1/2-y,z
loop_
_atom_site_type_symbol
_atom_site_label
_atom_site_fract_x
_atom_site_fract_y
_atom_site_fract_z
Si Si1 0.099247 0.483354 0.750000
Si Si2 0.694712 0.408520 0.201296
Si Si3 0.975955 0.659959 0.195478
Si Si4 0.439666 0.685353 0.194467
Si Si5 0.218310 0.355845 0.050466
Si Si6 0.444023 0.948985 0.250418
Si Si7 0.719189 0.762411 0.544069
O O1 0.153251 0.534420 0.701429
O O2 0.101643 0.445291 0.514798
O O3 0.000000 0.500000 0.773791
O O4 0.117064 0.458172 0.016972
O O5 0.746701 0.403036 0.457750
O O6 0.620808 0.365312 0.188596
O O7 0.878318 0.651420 0.129527
O O8 0.004743 0.599639 0.202874
O O9 0.994726 0.681676 0.467502
O O10 0.020419 0.687933 0.966064
O O11 0.376568 0.732320 0.135311
O O12 0.266173 0.379718 0.283009
O O13 0.250349 0.296215 0.013375
O O14 0.500000 0.000000 0.274172
O O15 0.727936 0.786685 0.271070
#
# Coordination Sequence:
#
# PCOD9365983 Si02
#       7
#     8   8   8   8   8   8   8
#     4  10  20  37  59  79 111 156 199 241 291 353
#     4  12  24  40  61  91 127 161 203 255 313 374
#     4  12  24  39  65  94 121 163 209 259 311 361
#     4  12  23  38  62  95 127 158 204 252 306 379
#     4  10  23  44  65  88 123 163 206 256 310 366
#     4  10  19  36  58  81 112 150 192 237 298 353
#     4  10  21  40  63  88 126 171 201 242 313 372
#
# _framework density 25.403697999999999
#
# number of rings (size 3 to 8) (size 9 to 14) (size 15 to 20)
#    0.000    1.143    0.000    8.571    0.000    1.143 
#    0.000    4.286    0.000    0.000    0.000    0.000 
#    0.000    0.000    0.000    0.000    0.000    0.000 
#
# Total GULP energy -156743.135928 kJ/mol
# GULP energy per Si atom -5597.969140 kJ/mol
# Density = 2.534588 g / cm^3
# Si number density = 25.403698 Si / 1000 Ang^3
#
#
#
# Elastic Constant Matrix: (Units=GPa)
#
#
# Indices 1 2 3 4 5 6 
#
# 1 81.6377 9.9455 41.7802 0.0000 0.0000 0.0000
# 2 9.9455 49.1132 18.9592 0.0000 0.0000 0.0000
# 3 41.7802 18.9592 220.7234 0.0000 0.0000 0.0000
# 4 0.0000 0.0000 0.0000 21.8030 0.0000 0.0000
# 5 0.0000 0.0000 0.0000 0.0000 57.1532 0.0000
# 6 0.0000 0.0000 0.0000 0.0000 0.0000 45.5174
#
#
#
# Elastic Compliance Matrix: (Units=1/GPa)
#
#
# Indices 1 2 3 4 5 6 
#
# 1 0.013722 -0.001837 -0.002440 0.000000 0.000000 0.000000
# 2 -0.001837 0.021305 -0.001482 0.000000 0.000000 0.000000
# 3 -0.002440 -0.001482 0.005120 0.000000 0.000000 0.000000
# 4 0.000000 0.000000 0.000000 0.045865 0.000000 0.000000
# 5 0.000000 0.000000 0.000000 0.000000 0.017497 0.000000
# 6 0.000000 0.000000 0.000000 0.000000 0.000000 0.021970
#
#
# Mechanical properties :
#
#
# Convention : Reuss Voigt Hill
#
# Bulk Modulus (GPa) = 34.92965 54.76046 44.84506
# Shear Modulus (GPa) = 34.12068 43.61401 38.86734
#
# Velocity S-wave (km/s) = 3.66886 4.14797 3.91575
# Velocity P-wave (km/s) = 5.63268 6.67411 6.17539
#
# Compressibility (1/GPa) = 0.02862897
#
# Stress axis : x y z
#
# Youngs Moduli (GPa) = 72.87826 46.93663 195.32552
#
# Poissons Ratio (x) = 0.08622 0.47650
# Poissons Ratio (y) = 0.13387 0.28954
# Poissons Ratio (z) = 0.17779 0.06958
#
# Static dielectric constant tensor:
#      x y z
#    x 1.895740 0.000000 0.000000 
#    y 0.000000 2.134740 0.000000 
#    z 0.000000 0.000000 2.067240 
# 
# From -- ./inp_files/336.got.cif
#   From: 2010.05.17/outbox.cif.g08.bks.cpg/sg41_1_cif.got.tgz:336.got - 2010.06.03 18:54:24.
