data_PCOD9365174
_publ_section_title
;
Structure prediction by ZEFSAII (Michael W. Deem and Ramdas Pophale) SiO2 
 PCOD9365174
Probable space group: A M A 2
;
_chemical_formula_sum "Si O2"
_cell_formula_units_Z 48
_cell_length_a 26.301538
_cell_length_b 10.196463
_cell_length_c 9.000519
_cell_angle_alpha 90.000000
_cell_angle_beta 90.000000
_cell_angle_gamma 90.000000
_cell_volume 2413.783118
_symmetry_space_group_name_H-M "A M A 2"
_symmetry_group_IT_number 40
_symmetry_cell_setting 'orthorhombic'
loop_
_space_group_symop_operation_xyz
x,y,z
-x,-y,z
1/2-x,y,z
1/2+x,-y,z
x,1/2+y,1/2+z
-x,1/2-y,1/2+z
1/2-x,1/2+y,1/2+z
1/2+x,1/2-y,1/2+z
loop_
_atom_site_type_symbol
_atom_site_label
_atom_site_fract_x
_atom_site_fract_y
_atom_site_fract_z
Si Si1 0.129807 0.815101 0.394960
Si Si2 0.807100 0.998806 0.194128
Si Si3 0.363464 0.016995 0.885365
Si Si4 0.654255 0.725274 0.236788
Si Si5 0.025490 0.855650 0.233704
Si Si6 0.557093 0.185341 0.897262
O O1 0.171260 0.911991 0.325657
O O2 0.139893 0.666618 0.339806
O O3 0.132444 0.800568 0.572370
O O4 0.075003 0.860061 0.337757
O O5 0.750000 0.038156 0.152489
O O6 0.807906 0.845343 0.235608
O O7 0.846079 0.004358 0.055382
O O8 0.328605 0.916668 0.793398
O O9 0.421164 0.961848 0.866022
O O10 0.608212 0.763147 0.349122
O O11 0.042035 0.813035 0.068648
O O12 0.987237 0.747485 0.300148
O O13 0.000000 0.000000 0.227748
#
# Coordination Sequence:
#
# PCOD9365174 Si02
#       6
#     8   8   8   8   8   8
#     4  11  22  40  67  95 130 169 215 272 317 386
#     4  11  23  43  68  95 128 168 214 271 337 392
#     4   9  23  43  65  89 131 168 211 266 326 377
#     4   9  22  43  65  89 126 167 215 268 320 379
#     4  12  25  39  63  95 133 173 217 261 322 383
#     4  10  23  41  63  89 130 173 215 260 318 383
#
# _framework density 19.885795999999999
#
# number of rings (size 3 to 8) (size 9 to 14) (size 15 to 20)
#    1.000    0.667    1.667    2.000    4.667    7.333 
#    0.000    0.833    0.000    0.000    0.000    0.000 
#    0.000    0.000    0.000    0.000    0.000    0.000 
#
# Total GULP energy -133718.023136 kJ/mol
# GULP energy per Si atom -5571.584297 kJ/mol
# Density = 1.984053 g / cm^3
# Si number density = 19.885796 Si / 1000 Ang^3
#
#
#
# Elastic Constant Matrix: (Units=GPa)
#
#
# Indices 1 2 3 4 5 6 
#
# 1 79.2782 33.5545 32.1451 0.0000 0.0000 0.0000
# 2 33.5545 100.4749 61.7237 0.0000 0.0000 0.0000
# 3 32.1451 61.7237 83.4207 0.0000 0.0000 0.0000
# 4 0.0000 0.0000 0.0000 25.2745 0.0000 0.0000
# 5 0.0000 0.0000 0.0000 0.0000 8.0858 0.0000
# 6 0.0000 0.0000 0.0000 0.0000 0.0000 -18.4982
#
#
#
# Elastic Compliance Matrix: (Units=1/GPa)
#
#
# Indices 1 2 3 4 5 6 
#
# 1 0.015349 -0.002736 -0.003890 0.000000 0.000000 0.000000
# 2 -0.002736 0.018734 -0.012807 0.000000 0.000000 0.000000
# 3 -0.003890 -0.012807 0.022963 0.000000 0.000000 0.000000
# 4 0.000000 0.000000 0.000000 0.039566 0.000000 0.000000
# 5 0.000000 0.000000 0.000000 0.000000 0.123673 0.000000
# 6 0.000000 0.000000 0.000000 0.000000 0.000000 -0.054059
#
#
# Mechanical properties :
#
#
# Convention : Reuss Voigt Hill
#
# Bulk Modulus (GPa) = 55.00866 57.55785 56.28325
# Shear Modulus (GPa) = 23.67960 12.02247 17.85103
#
# Velocity S-wave (km/s) = 3.45451 2.46148 2.99938
# Velocity P-wave (km/s) = 6.60559 6.08979 6.35293
#
# Compressibility (1/GPa) = 0.01817896
#
# Stress axis : x y z
#
# Youngs Moduli (GPa) = 65.14982 53.37798 43.54904
#
# Poissons Ratio (x) = 0.14606 0.16941
# Poissons Ratio (y) = 0.17827 0.55775
# Poissons Ratio (z) = 0.25343 0.68363
#
# Static dielectric constant tensor:
#      x y z
#    x 1.702460 0.000000 0.000000 
#    y 0.000000 1.725940 0.000000 
#    z 0.000000 0.000000 1.699650 
# 
# From -- ./inp_files/9074.got.cif
#   From: 2010.05.17/outbox.cif.g08.bks.cpg/sg40_5_cif.got.tgz:9074.got - 2010.06.03 18:35:42.
