data_PCOD9365029
_publ_section_title
;
Structure prediction by ZEFSAII (Michael W. Deem and Ramdas Pophale) SiO2 
 PCOD9365029
Probable space group: A M A 2
;
_chemical_formula_sum "Si O2"
_cell_formula_units_Z 52
_cell_length_a 15.258173
_cell_length_b 9.403245
_cell_length_c 17.518088
_cell_angle_alpha 90.000000
_cell_angle_beta 90.000000
_cell_angle_gamma 90.000000
_cell_volume 2513.431132
_symmetry_space_group_name_H-M "A M A 2"
_symmetry_group_IT_number 40
_symmetry_cell_setting 'orthorhombic'
loop_
_space_group_symop_operation_xyz
x,y,z
-x,-y,z
1/2-x,y,z
1/2+x,-y,z
x,1/2+y,1/2+z
-x,1/2-y,1/2+z
1/2-x,1/2+y,1/2+z
1/2+x,1/2-y,1/2+z
loop_
_atom_site_type_symbol
_atom_site_label
_atom_site_fract_x
_atom_site_fract_y
_atom_site_fract_z
Si Si1 0.397495 0.803805 0.692550
Si Si2 0.583839 0.805908 0.761376
Si Si3 0.145799 0.511515 0.746968
Si Si4 0.013720 0.663720 0.433699
Si Si5 0.151643 0.140477 0.413275
Si Si6 0.750000 0.515627 0.251006
Si Si7 0.090634 0.913087 0.531222
O O1 0.496398 0.843230 0.714280
O O2 0.389651 0.633419 0.691061
O O3 0.370031 0.877485 0.613396
O O4 0.327409 0.860421 0.753308
O O5 0.602661 0.641803 0.742359
O O6 0.558218 0.827417 0.850203
O O7 0.671121 0.895306 0.745661
O O8 0.250000 0.498144 0.737020
O O9 0.128488 0.568474 0.832637
O O10 0.069661 0.763673 0.490025
O O11 0.000000 0.500000 0.455847
O O12 0.919433 0.739691 0.429628
O O13 0.250000 0.196954 0.411712
O O14 0.145447 0.015882 0.476508
O O15 0.000000 0.000000 0.541712
#
# Coordination Sequence:
#
# PCOD9365029 Si02
#       7
#     8   8   8   8   8   4   8
#     4  12  25  43  71 100 136 183 233 293 356 417
#     4  12  24  43  68 102 137 183 226 293 356 417
#     4  11  22  42  69 102 130 178 239 282 338 421
#     4  11  23  42  68 101 139 178 231 287 348 416
#     4  10  22  41  70  97 132 181 232 279 343 421
#     4  12  26  42  64 100 146 168 236 290 358 424
#     4  10  23  44  68  96 138 186 231 281 355 430
#
# _framework density 20.688851
#
# number of rings (size 3 to 8) (size 9 to 14) (size 15 to 20)
#    0.000    0.923    4.615    2.769    1.077    1.231 
#    0.000    0.000    0.000    0.000    0.000    0.000 
#    0.000    0.000    0.000    0.000    0.000    0.000 
#
# Total GULP energy -144861.139124 kJ/mol
# GULP energy per Si atom -5571.582274 kJ/mol
# Density = 2.064176 g / cm^3
# Si number density = 20.688851 Si / 1000 Ang^3
#
#
#
# Elastic Constant Matrix: (Units=GPa)
#
#
# Indices 1 2 3 4 5 6 
#
# 1 128.6398 54.6377 8.1720 0.0000 0.0000 0.0000
# 2 54.6377 160.8240 14.4570 0.0000 0.0000 0.0000
# 3 8.1720 14.4570 64.2509 0.0000 0.0000 0.0000
# 4 0.0000 0.0000 0.0000 20.2258 0.0000 0.0000
# 5 0.0000 0.0000 0.0000 0.0000 -3.0935 0.0000
# 6 0.0000 0.0000 0.0000 0.0000 0.0000 -405.7551
#
#
#
# Elastic Compliance Matrix: (Units=1/GPa)
#
#
# Indices 1 2 3 4 5 6 
#
# 1 0.009098 -0.003049 -0.000471 0.000000 0.000000 0.000000
# 2 -0.003049 0.007368 -0.001270 0.000000 0.000000 0.000000
# 3 -0.000471 -0.001270 0.015910 0.000000 0.000000 0.000000
# 4 0.000000 0.000000 0.000000 0.049442 0.000000 0.000000
# 5 0.000000 0.000000 0.000000 0.000000 -0.323260 0.000000
# 6 0.000000 0.000000 0.000000 0.000000 0.000000 -0.002465
#
#
# Mechanical properties :
#
#
# Convention : Reuss Voigt Hill
#
# Bulk Modulus (GPa) = 43.86732 56.47202 50.16967
# Shear Modulus (GPa) = -22.05281 -59.29468 -40.67375
#
# Velocity S-wave (km/s) = -3.26840 -5.35933 -4.43874
# Velocity P-wave (km/s) = 2.64692 3.30779 1.40273
#
# Compressibility (1/GPa) = 0.02279602
#
# Stress axis : x y z
#
# Youngs Moduli (GPa) = 109.90857 135.72369 62.85474
#
# Poissons Ratio (x) = 0.41378 0.02962
# Poissons Ratio (y) = 0.33508 0.07983
# Poissons Ratio (z) = 0.05179 0.17238
#
# Static dielectric constant tensor:
#      x y z
#    x 1.724940 0.000000 0.000000 
#    y 0.000000 1.746900 0.000000 
#    z 0.000000 0.000000 1.767920 
# 
# From -- ./inp_files/21090.got.cif
#   From: 2010.05.17/outbox.cif.g08.bks.cpg/sg40_11_cif.got.tgz:21090.got - 2010.06.03 18:35:42.
