data_PCOD9365190
_publ_section_title
;
Structure prediction by ZEFSAII (Michael W. Deem and Ramdas Pophale) SiO2 
 PCOD9365190
Probable space group: A M A 2
;
_chemical_formula_sum "Si O2"
_cell_formula_units_Z 64
_cell_length_a 18.261104
_cell_length_b 11.971480
_cell_length_c 14.793718
_cell_angle_alpha 90.000000
_cell_angle_beta 90.000000
_cell_angle_gamma 90.000000
_cell_volume 3234.090808
_symmetry_space_group_name_H-M "A M A 2"
_symmetry_group_IT_number 40
_symmetry_cell_setting 'orthorhombic'
loop_
_space_group_symop_operation_xyz
x,y,z
-x,-y,z
1/2-x,y,z
1/2+x,-y,z
x,1/2+y,1/2+z
-x,1/2-y,1/2+z
1/2-x,1/2+y,1/2+z
1/2+x,1/2-y,1/2+z
loop_
_atom_site_type_symbol
_atom_site_label
_atom_site_fract_x
_atom_site_fract_y
_atom_site_fract_z
Si Si1 0.066693 0.797937 0.197730
Si Si2 0.946940 0.664462 0.488042
Si Si3 0.080300 0.185962 0.315249
Si Si4 0.401170 0.052886 0.924778
Si Si5 0.081415 0.037627 0.717027
Si Si6 0.335045 0.276956 0.969191
Si Si7 0.161324 0.448403 0.813964
Si Si8 0.663079 0.668363 0.166098
O O1 0.089842 0.669676 0.210815
O O2 0.130549 0.882748 0.226769
O O3 0.998009 0.823560 0.264057
O O4 0.047008 0.805456 0.092475
O O5 0.927849 0.759904 0.415036
O O6 0.890950 0.559707 0.481180
O O7 0.024345 0.614229 0.455395
O O8 0.125156 0.269106 0.249503
O O9 0.122212 0.068152 0.319924
O O10 0.410886 0.012191 0.822949
O O11 0.343284 0.151745 0.932543
O O12 0.140253 0.961352 0.667255
O O13 0.000000 0.000000 0.687668
O O14 0.250000 0.303971 0.978939
O O15 0.362881 0.368543 0.898018
O O16 0.365716 0.283690 0.070555
O O17 0.250000 0.458375 0.812532
O O18 0.750000 0.682333 0.173686
#
# Coordination Sequence:
#
# PCOD9365190 Si02
#       8
#     8   8   8   8   8   8   8   8
#     4  12  25  42  69  96 127 172 218 266 323 386
#     4  11  24  39  65  97 128 161 211 272 323 375
#     4  12  23  45  65  97 133 171 215 268 328 386
#     4  11  19  41  63  89 126 160 206 271 317 368
#     4  12  21  43  65  93 127 163 215 272 316 373
#     4  10  23  42  63  90 124 168 215 259 314 385
#     4  11  26  45  63  92 136 175 215 265 319 391
#     4  11  24  41  66  95 127 170 213 262 328 385
#
# _framework density 19.789179000000001
#
# number of rings (size 3 to 8) (size 9 to 14) (size 15 to 20)
#    0.000    0.750    6.250    1.500    7.000    1.000 
#    0.000    1.250    0.000    0.000    0.000    0.000 
#    0.000    0.000    0.000    0.000    0.000    0.000 
#
# Total GULP energy -178649.914184 kJ/mol
# GULP energy per Si atom -5582.809818 kJ/mol
# Density = 1.974414 g / cm^3
# Si number density = 19.789179 Si / 1000 Ang^3
#
#
#
# Elastic Constant Matrix: (Units=GPa)
#
#
# Indices 1 2 3 4 5 6 
#
# 1 55.4015 34.8009 26.9759 0.0000 0.0000 0.0000
# 2 34.8009 118.7288 31.0253 0.0000 0.0000 0.0000
# 3 26.9759 31.0253 106.2279 0.0000 0.0000 0.0000
# 4 0.0000 0.0000 0.0000 16.0682 0.0000 0.0000
# 5 0.0000 0.0000 0.0000 0.0000 15.3308 0.0000
# 6 0.0000 0.0000 0.0000 0.0000 0.0000 33.9697
#
#
#
# Elastic Compliance Matrix: (Units=1/GPa)
#
#
# Indices 1 2 3 4 5 6 
#
# 1 0.023842 -0.005853 -0.004345 0.000000 0.000000 0.000000
# 2 -0.005853 0.010555 -0.001596 0.000000 0.000000 0.000000
# 3 -0.004345 -0.001596 0.010983 0.000000 0.000000 0.000000
# 4 0.000000 0.000000 0.000000 0.062235 0.000000 0.000000
# 5 0.000000 0.000000 0.000000 0.000000 0.065228 0.000000
# 6 0.000000 0.000000 0.000000 0.000000 0.000000 0.029438
#
#
# Mechanical properties :
#
#
# Convention : Reuss Voigt Hill
#
# Bulk Modulus (GPa) = 45.88890 51.77361 48.83126
# Shear Modulus (GPa) = 21.44673 25.57746 23.51209
#
# Velocity S-wave (km/s) = 3.29562 3.59903 3.45066
# Velocity P-wave (km/s) = 6.14172 6.59470 6.37224
#
# Compressibility (1/GPa) = 0.02179176
#
# Stress axis : x y z
#
# Youngs Moduli (GPa) = 41.94197 94.73865 91.04620
#
# Poissons Ratio (x) = 0.55451 0.39561
# Poissons Ratio (y) = 0.24549 0.14535
# Poissons Ratio (z) = 0.18225 0.15125
#
# Static dielectric constant tensor:
#      x y z
#    x 1.723490 0.000000 0.000000 
#    y 0.000000 1.717320 0.000000 
#    z 0.000000 0.000000 1.720330 
# 
# From -- ./inp_files/17874.got.cif
#   From: 2010.05.17/outbox.cif.g08.bks.cpg/sg40_9_cif.got.tgz:17874.got - 2010.06.03 18:35:42.
