data_PCOD9365917
_publ_section_title
;
Structure prediction by ZEFSAII (Michael W. Deem and Ramdas Pophale) SiO2 
 PCOD9365917
Probable space group: A B A 2
;
_chemical_formula_sum "Si O2"
_cell_formula_units_Z 64
_cell_length_a 8.038533
_cell_length_b 23.060397
_cell_length_c 14.962584
_cell_angle_alpha 90.000000
_cell_angle_beta 90.000000
_cell_angle_gamma 90.000000
_cell_volume 2773.640564
_symmetry_space_group_name_H-M "A B A 2"
_symmetry_group_IT_number 41
_symmetry_cell_setting 'orthorhombic'
loop_
_space_group_symop_operation_xyz
x,y,z
-x,-y,z
1/2-x,y,1/2+z
1/2+x,-y,1/2+z
x,1/2+y,1/2+z
-x,1/2-y,1/2+z
1/2-x,1/2+y,z
1/2+x,1/2-y,z
loop_
_atom_site_type_symbol
_atom_site_label
_atom_site_fract_x
_atom_site_fract_y
_atom_site_fract_z
Si Si1 0.860102 0.067394 0.939030
Si Si2 0.566500 0.670539 0.828838
Si Si3 0.340892 0.746735 0.909425
Si Si4 0.917113 0.944107 0.117127
Si Si5 0.067073 0.187135 0.099396
Si Si6 0.828273 0.965703 0.474312
Si Si7 0.818268 0.192288 0.642332
Si Si8 0.475446 0.359094 0.473226
O O1 0.957415 0.107770 0.871542
O O2 0.687954 0.102500 0.953076
O O3 0.959956 0.064588 0.031552
O O4 0.803020 0.002254 0.916109
O O5 0.393764 0.705340 0.828395
O O6 0.664781 0.662632 0.737392
O O7 0.680393 0.713280 0.890157
O O8 0.359658 0.707284 0.000731
O O9 0.471404 0.800208 0.919019
O O10 0.891361 0.876217 0.141054
O O11 0.744708 0.965755 0.074563
O O12 0.000000 0.000000 0.168050
O O13 0.131413 0.241046 0.156777
O O14 0.865418 0.189270 0.100094
O O15 0.868870 0.899617 0.453176
O O16 0.000000 0.000000 0.471255
O O17 0.948925 0.162441 0.574752
#
# Coordination Sequence:
#
# PCOD9365917 Si02
#       8
#     8   8   8   8   8   8   8   8
#     4   9  17  36  55  81 108 149 199 246 291 352
#     4  11  21  36  54  84 122 160 188 246 316 364
#     4  10  20  33  57  80 113 151 201 241 293 360
#     4  10  19  33  59  85 110 147 201 265 290 342
#     4  11  21  38  58  88 116 156 209 251 298 371
#     4   9  19  32  57  90 107 136 198 254 290 339
#     4  11  23  35  56  85 129 156 190 253 325 365
#     4   9  18  33  55  84 111 144 196 251 287 355
#
# _framework density 23.074368
#
# number of rings (size 3 to 8) (size 9 to 14) (size 15 to 20)
#    0.000    2.000    2.500    2.250    5.250    0.000 
#    0.000    0.000    0.000   12.000    0.000    0.000 
#    0.000    0.000    0.000    0.000    0.000    0.000 
#
# Total GULP energy -178204.699951 kJ/mol
# GULP energy per Si atom -5568.896873 kJ/mol
# Density = 2.302185 g / cm^3
# Si number density = 23.074368 Si / 1000 Ang^3
#
#
#
# Elastic Constant Matrix: (Units=GPa)
#
#
# Indices 1 2 3 4 5 6 
#
# 1 43.0217 23.9100 -0.9104 0.0000 0.0000 0.0000
# 2 23.9100 166.1141 10.7641 0.0000 0.0000 0.0000
# 3 -0.9104 10.7641 18.7576 0.0000 0.0000 0.0000
# 4 0.0000 0.0000 0.0000 12.3802 0.0000 0.0000
# 5 0.0000 0.0000 0.0000 0.0000 13.7800 0.0000
# 6 0.0000 0.0000 0.0000 0.0000 0.0000 39.0507
#
#
#
# Elastic Compliance Matrix: (Units=1/GPa)
#
#
# Indices 1 2 3 4 5 6 
#
# 1 0.025481 -0.003893 0.003470 0.000000 0.000000 0.000000
# 2 -0.003893 0.006847 -0.004118 0.000000 0.000000 0.000000
# 3 0.003470 -0.004118 0.055843 0.000000 0.000000 0.000000
# 4 0.000000 0.000000 0.000000 0.080774 0.000000 0.000000
# 5 0.000000 0.000000 0.000000 0.000000 0.072569 0.000000
# 6 0.000000 0.000000 0.000000 0.000000 0.000000 0.025608
#
#
# Mechanical properties :
#
#
# Convention : Reuss Voigt Hill
#
# Bulk Modulus (GPa) = 12.64368 32.82453 22.73410
# Shear Modulus (GPa) = 16.52532 25.98417 21.25474
#
# Velocity S-wave (km/s) = 2.67905 3.35939 3.03832
# Velocity P-wave (km/s) = 3.88087 5.41329 4.70983
#
# Compressibility (1/GPa) = 0.07909090
#
# Stress axis : x y z
#
# Youngs Moduli (GPa) = 39.24515 146.04742 17.90722
#
# Poissons Ratio (x) = 0.56849 -0.06215
# Poissons Ratio (y) = 0.15276 0.07374
# Poissons Ratio (z) = -0.13620 0.60144
#
# Static dielectric constant tensor:
#      x y z
#    x 1.960240 0.000000 0.000000 
#    y 0.000000 1.931110 0.000000 
#    z 0.000000 0.000000 1.856260 
# 
# From -- ./inp_files/7590.got.cif
#   From: 2010.05.17/outbox.cif.g08.bks.cpg/sg41_4_cif.got.tgz:7590.got - 2010.06.03 18:54:24.
