data_PCOD9365319
_publ_section_title
;
Structure prediction by ZEFSAII (Michael W. Deem and Ramdas Pophale) SiO2 
 PCOD9365319
Probable space group: A M A 2
;
_chemical_formula_sum "Si O2"
_cell_formula_units_Z 52
_cell_length_a 20.430967
_cell_length_b 17.030688
_cell_length_c 6.716844
_cell_angle_alpha 90.000000
_cell_angle_beta 90.000000
_cell_angle_gamma 90.000000
_cell_volume 2337.148872
_symmetry_space_group_name_H-M "A M A 2"
_symmetry_group_IT_number 40
_symmetry_cell_setting 'orthorhombic'
loop_
_space_group_symop_operation_xyz
x,y,z
-x,-y,z
1/2-x,y,z
1/2+x,-y,z
x,1/2+y,1/2+z
-x,1/2-y,1/2+z
1/2-x,1/2+y,1/2+z
1/2+x,1/2-y,1/2+z
loop_
_atom_site_type_symbol
_atom_site_label
_atom_site_fract_x
_atom_site_fract_y
_atom_site_fract_z
Si Si1 0.982618 0.860458 0.100110
Si Si2 0.750000 0.354495 0.485829
Si Si3 0.171816 0.778098 0.074398
Si Si4 0.680743 0.462358 0.187930
Si Si5 0.416920 0.796338 0.428596
Si Si6 0.904931 0.598218 0.321393
Si Si7 0.641954 0.368701 0.819963
O O1 0.033450 0.833157 0.268908
O O2 0.923263 0.900819 0.216225
O O3 0.025730 0.902474 0.933297
O O4 0.948947 0.784208 0.002578
O O5 0.694416 0.386754 0.324144
O O6 0.693205 0.342085 0.654770
O O7 0.250000 0.766454 0.060353
O O8 0.146943 0.856314 0.963148
O O9 0.133093 0.707294 0.963265
O O10 0.149930 0.784005 0.304387
O O11 0.750000 0.508424 0.202617
O O12 0.622272 0.513172 0.270412
O O13 0.670314 0.435288 0.963486
O O14 0.408759 0.852129 0.618062
#
# Coordination Sequence:
#
# PCOD9365319 Si02
#       7
#     8   4   8   8   8   8   8
#     4  11  23  41  71 102 136 177 235 279 349 420
#     4  10  24  46  70  90 144 184 222 292 354 402
#     4  11  24  39  69 110 130 171 241 283 349 424
#     4  10  25  46  70  96 142 181 229 289 359 412
#     4  11  22  42  70 100 142 174 216 301 348 390
#     4  11  24  46  69 102 140 184 223 295 351 416
#     4  12  23  44  72 101 140 183 235 287 350 422
#
# _framework density 22.249331000000002
#
# number of rings (size 3 to 8) (size 9 to 14) (size 15 to 20)
#    0.462    0.615    4.615    1.385    2.154    3.692 
#    0.000    4.615    0.000    0.000    0.000    0.000 
#    0.000    0.000    0.000    0.000    0.000    0.000 
#
# Total GULP energy -144867.990253 kJ/mol
# GULP energy per Si atom -5571.845779 kJ/mol
# Density = 2.219869 g / cm^3
# Si number density = 22.249331 Si / 1000 Ang^3
#
#
#
# Elastic Constant Matrix: (Units=GPa)
#
#
# Indices 1 2 3 4 5 6 
#
# 1 96.0161 11.4075 40.9045 0.0000 0.0000 0.0000
# 2 11.4075 25.8414 17.4348 0.0000 0.0000 0.0000
# 3 40.9045 17.4348 138.9361 0.0000 0.0000 0.0000
# 4 0.0000 0.0000 0.0000 16.2893 0.0000 0.0000
# 5 0.0000 0.0000 0.0000 0.0000 47.3926 0.0000
# 6 0.0000 0.0000 0.0000 0.0000 0.0000 24.2736
#
#
#
# Elastic Compliance Matrix: (Units=1/GPa)
#
#
# Indices 1 2 3 4 5 6 
#
# 1 0.012149 -0.003223 -0.003172 0.000000 0.000000 0.000000
# 2 -0.003223 0.043132 -0.004464 0.000000 0.000000 0.000000
# 3 -0.003172 -0.004464 0.008692 0.000000 0.000000 0.000000
# 4 0.000000 0.000000 0.000000 0.061390 0.000000 0.000000
# 5 0.000000 0.000000 0.000000 0.000000 0.021100 0.000000
# 6 0.000000 0.000000 0.000000 0.000000 0.000000 0.041197
#
#
# Mechanical properties :
#
#
# Convention : Reuss Voigt Hill
#
# Bulk Modulus (GPa) = 23.66589 44.47636 34.07112
# Shear Modulus (GPa) = 22.37506 30.32756 26.35131
#
# Velocity S-wave (km/s) = 3.17464 3.69599 3.44519
# Velocity P-wave (km/s) = 4.90893 6.18443 5.58322
#
# Compressibility (1/GPa) = 0.04225490
#
# Stress axis : x y z
#
# Youngs Moduli (GPa) = 82.30893 23.18474 115.05214
#
# Poissons Ratio (x) = 0.07472 0.36500
# Poissons Ratio (y) = 0.26527 0.51356
# Poissons Ratio (z) = 0.26112 0.10349
#
# Static dielectric constant tensor:
#      x y z
#    x 1.866130 0.000000 0.000000 
#    y 0.000000 1.833720 0.000000 
#    z 0.000000 0.000000 1.807620 
# 
# From -- ./inp_files/2347.got.cif
#   From: 2010.05.17/outbox.cif.g08.bks.cpg/sg40_2_cif.got.tgz:2347.got - 2010.06.03 18:35:42.
