data_PCOD9365768
_publ_section_title
;
Structure prediction by ZEFSAII (Michael W. Deem and Ramdas Pophale) SiO2 
 PCOD9365768
Probable space group: A B A 2
;
_chemical_formula_sum "Si O2"
_cell_formula_units_Z 64
_cell_length_a 12.853485
_cell_length_b 14.886359
_cell_length_c 11.758122
_cell_angle_alpha 90.000000
_cell_angle_beta 90.000000
_cell_angle_gamma 90.000000
_cell_volume 2249.817784
_symmetry_space_group_name_H-M "A B A 2"
_symmetry_group_IT_number 41
_symmetry_cell_setting 'orthorhombic'
loop_
_space_group_symop_operation_xyz
x,y,z
-x,-y,z
1/2-x,y,1/2+z
1/2+x,-y,1/2+z
x,1/2+y,1/2+z
-x,1/2-y,1/2+z
1/2-x,1/2+y,z
1/2+x,1/2-y,z
loop_
_atom_site_type_symbol
_atom_site_label
_atom_site_fract_x
_atom_site_fract_y
_atom_site_fract_z
Si Si1 0.073649 0.720085 0.075840
Si Si2 0.290843 0.717241 0.115047
Si Si3 0.641108 0.313769 0.871498
Si Si4 0.133703 0.397323 0.087821
Si Si5 0.604402 0.098486 0.840332
Si Si6 0.130847 0.654619 0.837839
Si Si7 0.411122 0.924107 0.593488
Si Si8 0.570562 0.085552 0.338353
O O1 0.175015 0.681717 0.139982
O O2 0.053541 0.821177 0.110817
O O3 0.976259 0.655474 0.079496
O O4 0.116510 0.716125 0.947748
O O5 0.277592 0.821797 0.086134
O O6 0.360912 0.712334 0.224729
O O7 0.349353 0.675657 0.008710
O O8 0.644820 0.204097 0.848246
O O9 0.746262 0.371894 0.843719
O O10 0.524001 0.340499 0.836269
O O11 0.131425 0.426667 0.219198
O O12 0.134835 0.445879 0.963920
O O13 0.476899 0.099788 0.835004
O O14 0.640340 0.056890 0.719040
O O15 0.371806 0.920373 0.460988
O O16 0.500000 0.000000 0.589088
O O17 0.500000 0.000000 0.339720
#
# Coordination Sequence:
#
# PCOD9365768 Si02
#       8
#     8   8   8   8   8   8   8   8
#     4  10  20  34  55  85 112 139 184 232 275 330
#     4  10  18  30  56  85 109 139 180 233 282 323
#     4  10  20  34  55  85 112 139 184 232 275 330
#     4  10  20  36  58  81 107 142 184 231 276 324
#     4  10  20  36  58  81 107 142 184 231 276 324
#     4  10  18  30  56  85 109 139 180 233 282 323
#     4  11  22  36  55  78 110 150 183 222 277 333
#     4  11  22  36  55  78 110 150 183 222 277 333
#
# _framework density 28.446746999999998
#
# number of rings (size 3 to 8) (size 9 to 14) (size 15 to 20)
#    0.000    1.750    0.000    7.500    0.000    0.500 
#    0.000    1.250    0.000    9.000    0.000    0.000 
#    0.000    0.000    0.000    0.000    0.000    0.000 
#
# Total GULP energy -178378.880471 kJ/mol
# GULP energy per Si atom -5574.340015 kJ/mol
# Density = 2.838200 g / cm^3
# Si number density = 28.446747 Si / 1000 Ang^3
#
#
#
# Elastic Constant Matrix: (Units=GPa)
#
#
# Indices 1 2 3 4 5 6 
#
# 1 192.4872 15.7960 51.3129 0.0000 0.0000 0.0000
# 2 15.7960 42.0304 26.6596 0.0000 0.0000 0.0000
# 3 51.3129 26.6596 243.6038 0.0000 0.0000 0.0000
# 4 0.0000 0.0000 0.0000 30.6254 0.0000 0.0000
# 5 0.0000 0.0000 0.0000 0.0000 25.3642 0.0000
# 6 0.0000 0.0000 0.0000 0.0000 0.0000 21.1901
#
#
#
# Elastic Compliance Matrix: (Units=1/GPa)
#
#
# Indices 1 2 3 4 5 6 
#
# 1 0.005586 -0.001454 -0.001017 0.000000 0.000000 0.000000
# 2 -0.001454 0.025945 -0.002533 0.000000 0.000000 0.000000
# 3 -0.001017 -0.002533 0.004597 0.000000 0.000000 0.000000
# 4 0.000000 0.000000 0.000000 0.032653 0.000000 0.000000
# 5 0.000000 0.000000 0.000000 0.000000 0.039426 0.000000
# 6 0.000000 0.000000 0.000000 0.000000 0.000000 0.047192
#
#
# Mechanical properties :
#
#
# Convention : Reuss Voigt Hill
#
# Bulk Modulus (GPa) = 38.28675 73.96205 56.12440
# Shear Modulus (GPa) = 28.71698 41.05948 34.88823
#
# Velocity S-wave (km/s) = 3.18071 3.80331 3.50586
# Velocity P-wave (km/s) = 5.19399 6.73376 6.01336
#
# Compressibility (1/GPa) = 0.02611870
#
# Stress axis : x y z
#
# Youngs Moduli (GPa) = 179.02881 38.54240 217.55337
#
# Poissons Ratio (x) = 0.05604 0.22135
# Poissons Ratio (y) = 0.26028 0.55110
# Poissons Ratio (z) = 0.18216 0.09764
#
# Static dielectric constant tensor:
#      x y z
#    x 2.323950 0.000000 0.000000 
#    y 0.000000 2.394260 0.000000 
#    z 0.000000 0.000000 2.412000 
# 
# From -- ./inp_files/5735.got.cif
#   From: 2010.05.17/outbox.cif.g08.bks.cpg/sg41_3_cif.got.tgz:5735.got - 2010.06.03 18:54:24.
