data_PCOD9365973
_publ_section_title
;
Structure prediction by ZEFSAII (Michael W. Deem and Ramdas Pophale) SiO2 
 PCOD9365973
Probable space group: A B A 2
;
_chemical_formula_sum "Si O2"
_cell_formula_units_Z 60
_cell_length_a 16.058494
_cell_length_b 11.402201
_cell_length_c 16.326685
_cell_angle_alpha 90.000000
_cell_angle_beta 90.000000
_cell_angle_gamma 90.000000
_cell_volume 2989.451556
_symmetry_space_group_name_H-M "A B A 2"
_symmetry_group_IT_number 41
_symmetry_cell_setting 'orthorhombic'
loop_
_space_group_symop_operation_xyz
x,y,z
-x,-y,z
1/2-x,y,1/2+z
1/2+x,-y,1/2+z
x,1/2+y,1/2+z
-x,1/2-y,1/2+z
1/2-x,1/2+y,z
1/2+x,1/2-y,z
loop_
_atom_site_type_symbol
_atom_site_label
_atom_site_fract_x
_atom_site_fract_y
_atom_site_fract_z
Si Si1 0.000000 0.500000 0.971941
Si Si2 0.594896 0.988498 0.263407
Si Si3 0.563905 0.245267 0.980573
Si Si4 0.170812 0.734200 0.167181
Si Si5 0.833835 0.158269 0.636851
Si Si6 0.568541 0.593480 0.064190
Si Si7 0.171618 0.546761 0.427517
Si Si8 0.678970 0.943627 0.030841
O O1 0.961712 0.622294 0.937421
O O2 0.919842 0.456327 0.021782
O O3 0.625069 0.865268 0.221582
O O4 0.653794 0.010318 0.340719
O O5 0.500000 0.000000 0.292674
O O6 0.604301 0.090115 0.196488
O O7 0.614364 0.224859 0.066289
O O8 0.481228 0.313613 0.007718
O O9 0.623179 0.328619 0.927405
O O10 0.263124 0.778019 0.190815
O O11 0.111551 0.840533 0.139961
O O12 0.194174 0.672992 0.080834
O O13 0.791127 0.053191 0.585271
O O14 0.500000 0.500000 0.093675
O O15 0.629600 0.524669 0.002283
O O16 0.268563 0.558562 0.448288
#
# Coordination Sequence:
#
# PCOD9365973 Si02
#       8
#     4   8   8   8   8   8   8   8
#     4  10  20  34  60  98 120 152 216 276 304 360
#     4  11  25  42  63  93 132 172 211 257 333 388
#     4  10  19  35  62  92 119 163 213 260 303 369
#     4  11  20  39  61  92 124 166 213 265 310 377
#     4  10  21  37  60  92 121 163 214 259 309 372
#     4  10  20  34  62  91 121 158 213 260 307 363
#     4  11  22  41  61  92 131 165 208 263 319 385
#     4  10  20  36  63  92 122 162 216 261 310 375
#
# _framework density 20.070571999999999
#
# number of rings (size 3 to 8) (size 9 to 14) (size 15 to 20)
#    0.000    1.600    4.000    2.000    6.533    0.000 
#    7.200    0.000    1.467    0.000    0.000    0.000 
#    0.000    0.000    0.000    0.000    0.000    0.000 
#
# Total GULP energy -167067.207792 kJ/mol
# GULP energy per Si atom -5568.906926 kJ/mol
# Density = 2.002489 g / cm^3
# Si number density = 20.070572 Si / 1000 Ang^3
#
#
#
# Elastic Constant Matrix: (Units=GPa)
#
#
# Indices 1 2 3 4 5 6 
#
# 1 79.0435 12.3186 14.3524 0.0000 0.0000 0.0000
# 2 12.3186 62.4991 -18.8842 0.0000 0.0000 0.0000
# 3 14.3524 -18.8842 38.8883 0.0000 0.0000 0.0000
# 4 0.0000 0.0000 0.0000 11.8804 0.0000 0.0000
# 5 0.0000 0.0000 0.0000 0.0000 27.1211 0.0000
# 6 0.0000 0.0000 0.0000 0.0000 0.0000 8.1374
#
#
#
# Elastic Compliance Matrix: (Units=1/GPa)
#
#
# Indices 1 2 3 4 5 6 
#
# 1 0.014977 -0.005417 -0.008158 0.000000 0.000000 0.000000
# 2 -0.005417 0.020711 0.012056 0.000000 0.000000 0.000000
# 3 -0.008158 0.012056 0.034580 0.000000 0.000000 0.000000
# 4 0.000000 0.000000 0.000000 0.084172 0.000000 0.000000
# 5 0.000000 0.000000 0.000000 0.000000 0.036872 0.000000
# 6 0.000000 0.000000 0.000000 0.000000 0.000000 0.122890
#
#
# Mechanical properties :
#
#
# Convention : Reuss Voigt Hill
#
# Bulk Modulus (GPa) = 14.87416 21.77829 18.32622
# Shear Modulus (GPa) = 14.72113 20.93738 17.82925
#
# Velocity S-wave (km/s) = 2.71120 3.23335 2.98372
# Velocity P-wave (km/s) = 4.15064 4.98134 4.58485
#
# Compressibility (1/GPa) = 0.06723068
#
# Stress axis : x y z
#
# Youngs Moduli (GPa) = 66.77030 48.28420 28.91849
#
# Poissons Ratio (x) = 0.26155 0.23591
# Poissons Ratio (y) = 0.36168 -0.34865
# Poissons Ratio (z) = 0.54470 -0.58213
#
# Static dielectric constant tensor:
#      x y z
#    x 1.694480 0.000000 0.000000 
#    y 0.000000 1.790770 0.000000 
#    z 0.000000 0.000000 1.661590 
# 
# From -- ./inp_files/10373.got.cif
#   From: 2010.05.17/outbox.cif.g08.bks.cpg/sg41_6_cif.got.tgz:10373.got - 2010.06.03 18:54:24.
