data_PCOD9365297
_publ_section_title
;
Structure prediction by ZEFSAII (Michael W. Deem and Ramdas Pophale) SiO2 
 PCOD9365297
Probable space group: A M A 2
;
_chemical_formula_sum "Si O2"
_cell_formula_units_Z 48
_cell_length_a 8.507775
_cell_length_b 27.928864
_cell_length_c 9.750930
_cell_angle_alpha 90.000000
_cell_angle_beta 90.000000
_cell_angle_gamma 90.000000
_cell_volume 2316.942766
_symmetry_space_group_name_H-M "A M A 2"
_symmetry_group_IT_number 40
_symmetry_cell_setting 'orthorhombic'
loop_
_space_group_symop_operation_xyz
x,y,z
-x,-y,z
1/2-x,y,z
1/2+x,-y,z
x,1/2+y,1/2+z
-x,1/2-y,1/2+z
1/2-x,1/2+y,1/2+z
1/2+x,1/2-y,1/2+z
loop_
_atom_site_type_symbol
_atom_site_label
_atom_site_fract_x
_atom_site_fract_y
_atom_site_fract_z
Si Si1 0.060529 0.804330 0.310110
Si Si2 0.436085 0.912301 0.393358
Si Si3 0.938335 0.781947 0.005664
Si Si4 0.934194 0.952080 0.122008
Si Si5 0.564977 0.446648 0.178046
Si Si6 0.565076 0.620447 0.408898
O O1 0.250000 0.804114 0.296588
O O2 0.015088 0.858329 0.351485
O O3 0.016758 0.767690 0.431602
O O4 0.992948 0.788294 0.162948
O O5 0.250000 0.912508 0.425159
O O6 0.470958 0.944604 0.261684
O O7 0.531150 0.932296 0.521570
O O8 0.750000 0.785931 0.002012
O O9 0.013072 0.824722 0.916544
O O10 0.750000 0.956129 0.147859
O O11 0.000000 0.000000 0.052017
O O12 0.970458 0.907067 0.027028
O O13 0.500000 0.500000 0.202561
O O14 0.750000 0.445655 0.208817
O O15 0.477552 0.407337 0.270668
O O16 0.750000 0.616760 0.437131
#
# Coordination Sequence:
#
# PCOD9365297 Si02
#       6
#     8   8   8   8   8   8
#     4  10  24  44  67  98 134 172 217 269 327 389
#     4  11  23  43  67  96 133 173 217 269 325 388
#     4  11  24  43  68 101 133 171 221 270 326 394
#     4  12  24  41  66  97 129 169 215 267 325 391
#     4  12  26  45  67  97 133 175 222 273 327 393
#     4  12  25  44  67  95 132 174 217 273 330 389
#
# _framework density 20.716954000000001
#
# number of rings (size 3 to 8) (size 9 to 14) (size 15 to 20)
#    0.000    0.667    1.667    6.500    2.333    2.000 
#    0.000    0.000    0.000    0.000    0.000    0.000 
#    0.000    0.000    0.000    0.000    0.000    0.000 
#
# Total GULP energy -134340.023772 kJ/mol
# GULP energy per Si atom -5597.500990 kJ/mol
# Density = 2.066980 g / cm^3
# Si number density = 20.716954 Si / 1000 Ang^3
#
#
#
# Elastic Constant Matrix: (Units=GPa)
#
#
# Indices 1 2 3 4 5 6 
#
# 1 68.4419 24.7936 -8.1647 0.0000 0.0000 0.0000
# 2 24.7936 100.2100 -1.2778 0.0000 0.0000 0.0000
# 3 -8.1647 -1.2778 56.4919 0.0000 0.0000 0.0000
# 4 0.0000 0.0000 0.0000 43.5715 0.0000 0.0000
# 5 0.0000 0.0000 0.0000 0.0000 35.0279 0.0000
# 6 0.0000 0.0000 0.0000 0.0000 0.0000 -49.5373
#
#
#
# Elastic Compliance Matrix: (Units=1/GPa)
#
#
# Indices 1 2 3 4 5 6 
#
# 1 0.016335 -0.004013 0.002270 0.000000 0.000000 0.000000
# 2 -0.004013 0.010968 -0.000332 0.000000 0.000000 0.000000
# 3 0.002270 -0.000332 0.018022 0.000000 0.000000 0.000000
# 4 0.000000 0.000000 0.000000 0.022951 0.000000 0.000000
# 5 0.000000 0.000000 0.000000 0.000000 0.028549 0.000000
# 6 0.000000 0.000000 0.000000 0.000000 0.000000 -0.020187
#
#
# Mechanical properties :
#
#
# Convention : Reuss Voigt Hill
#
# Bulk Modulus (GPa) = 24.28572 28.42733 26.35653
# Shear Modulus (GPa) = 52.90320 19.79858 36.35089
#
# Velocity S-wave (km/s) = 5.05882 3.09475 4.19339
# Velocity P-wave (km/s) = 6.77276 5.14990 6.01630
#
# Compressibility (1/GPa) = 0.04117646
#
# Stress axis : x y z
#
# Youngs Moduli (GPa) = 61.21678 91.17748 55.48693
#
# Poissons Ratio (x) = 0.36587 -0.12596
# Poissons Ratio (y) = 0.24564 0.01841
# Poissons Ratio (z) = -0.13897 0.03026
#
# Static dielectric constant tensor:
#      x y z
#    x 1.684100 0.000000 0.000000 
#    y 0.000000 1.574670 0.000000 
#    z 0.000000 0.000000 1.715610 
# 
# From -- ./inp_files/4634.got.cif
#   From: 2010.05.17/outbox.cif.g08.bks.cpg/sg40_3_cif.got.tgz:4634.got - 2010.06.03 18:35:42.
