data_PCOD9365141
_publ_section_title
;
Structure prediction by ZEFSAII (Michael W. Deem and Ramdas Pophale) SiO2 
 PCOD9365141
Probable space group: A M A 2
;
_chemical_formula_sum "Si O2"
_cell_formula_units_Z 60
_cell_length_a 25.593893
_cell_length_b 12.414614
_cell_length_c 8.175327
_cell_angle_alpha 90.000000
_cell_angle_beta 90.000000
_cell_angle_gamma 90.000000
_cell_volume 2597.614522
_symmetry_space_group_name_H-M "A M A 2"
_symmetry_group_IT_number 40
_symmetry_cell_setting 'orthorhombic'
loop_
_space_group_symop_operation_xyz
x,y,z
-x,-y,z
1/2-x,y,z
1/2+x,-y,z
x,1/2+y,1/2+z
-x,1/2-y,1/2+z
1/2-x,1/2+y,1/2+z
1/2+x,1/2-y,1/2+z
loop_
_atom_site_type_symbol
_atom_site_label
_atom_site_fract_x
_atom_site_fract_y
_atom_site_fract_z
Si Si1 0.670805 0.543834 0.569630
Si Si2 0.587661 0.899605 0.883676
Si Si3 0.560289 0.965851 0.518731
Si Si4 0.492231 0.847572 0.082257
Si Si5 0.597796 0.149389 0.332135
Si Si6 0.191650 0.765102 0.834138
Si Si7 0.927398 0.756865 0.298325
Si Si8 0.750000 0.901572 0.288039
O O1 0.632293 0.472274 0.459944
O O2 0.641279 0.617292 0.702145
O O3 0.695678 0.631242 0.446013
O O4 0.705486 0.461887 0.672986
O O5 0.574258 0.923826 0.697390
O O6 0.601356 0.773070 0.881838
O O7 0.537136 0.918124 0.998797
O O8 0.569749 0.876375 0.378181
O O9 0.500000 0.000000 0.520969
O O10 0.596813 0.067346 0.480624
O O11 0.456935 0.874549 0.237499
O O12 0.529777 0.751993 0.154056
O O13 0.451139 0.815978 0.942446
O O14 0.250000 0.748133 0.734098
O O15 0.133463 0.765986 0.761413
O O16 0.202346 0.648974 0.912839
#
# Coordination Sequence:
#
# PCOD9365141 Si02
#       8
#     8   8   8   8   8   8   8   4
#     4  12  25  46  79 103 139 196 254 307 386 445
#     4  12  28  44  69 109 149 195 246 306 372 456
#     4  12  24  41  66 105 152 196 239 294 367 452
#     4  12  22  42  69 107 154 196 236 310 377 446
#     4  12  26  45  67 108 153 190 242 309 370 448
#     4  10  23  43  73 105 142 191 254 311 364 444
#     4  12  22  44  72 109 151 195 245 303 375 447
#     4  10  22  46  74 108 136 190 258 318 370 438
#
# _framework density 23.098116000000001
#
# number of rings (size 3 to 8) (size 9 to 14) (size 15 to 20)
#    0.400    0.000    6.000    2.400    1.867    3.200 
#    0.000    0.667    1.467    3.200    0.000    0.000 
#    0.000    0.000    0.000    0.000    0.000    0.000 
#
# Total GULP energy -167053.177276 kJ/mol
# GULP energy per Si atom -5568.439243 kJ/mol
# Density = 2.304554 g / cm^3
# Si number density = 23.098116 Si / 1000 Ang^3
#
#
#
# Elastic Constant Matrix: (Units=GPa)
#
#
# Indices 1 2 3 4 5 6 
#
# 1 154.6048 46.8415 24.7706 0.0000 0.0000 0.0000
# 2 46.8415 139.0209 36.3540 0.0000 0.0000 0.0000
# 3 24.7706 36.3540 58.1147 0.0000 0.0000 0.0000
# 4 0.0000 0.0000 0.0000 38.5183 0.0000 0.0000
# 5 0.0000 0.0000 0.0000 0.0000 6.4820 0.0000
# 6 0.0000 0.0000 0.0000 0.0000 0.0000 62.0874
#
#
#
# Elastic Compliance Matrix: (Units=1/GPa)
#
#
# Indices 1 2 3 4 5 6 
#
# 1 0.007375 -0.001988 -0.001900 0.000000 0.000000 0.000000
# 2 -0.001988 0.009136 -0.004868 0.000000 0.000000 0.000000
# 3 -0.001900 -0.004868 0.021062 0.000000 0.000000 0.000000
# 4 0.000000 0.000000 0.000000 0.025962 0.000000 0.000000
# 5 0.000000 0.000000 0.000000 0.000000 0.154274 0.000000
# 6 0.000000 0.000000 0.000000 0.000000 0.000000 0.016106
#
#
# Mechanical properties :
#
#
# Convention : Reuss Voigt Hill
#
# Bulk Modulus (GPa) = 49.84582 63.07474 56.46028
# Shear Modulus (GPa) = 19.37133 37.66913 28.52023
#
# Velocity S-wave (km/s) = 2.89909 4.04274 3.51770
# Velocity P-wave (km/s) = 5.73003 7.01129 6.40279
#
# Compressibility (1/GPa) = 0.02006186
#
# Stress axis : x y z
#
# Youngs Moduli (GPa) = 135.59650 109.45815 47.47869
#
# Poissons Ratio (x) = 0.21761 0.09020
# Poissons Ratio (y) = 0.26958 0.23111
# Poissons Ratio (z) = 0.25760 0.53280
#
# Static dielectric constant tensor:
#      x y z
#    x 1.892900 0.000000 0.000000 
#    y 0.000000 1.965970 0.000000 
#    z 0.000000 0.000000 1.866160 
# 
# From -- ./inp_files/9179.got.cif
#   From: 2010.05.17/outbox.cif.g08.bks.cpg/sg40_5_cif.got.tgz:9179.got - 2010.06.03 18:35:42.
