data_PCOD9365137
_publ_section_title
;
Structure prediction by ZEFSAII (Michael W. Deem and Ramdas Pophale) SiO2 
 PCOD9365137
Probable space group: A M A 2
;
_chemical_formula_sum "Si O2"
_cell_formula_units_Z 64
_cell_length_a 22.258490
_cell_length_b 13.244129
_cell_length_c 8.509171
_cell_angle_alpha 90.000000
_cell_angle_beta 90.000000
_cell_angle_gamma 90.000000
_cell_volume 2508.455218
_symmetry_space_group_name_H-M "A M A 2"
_symmetry_group_IT_number 40
_symmetry_cell_setting 'orthorhombic'
loop_
_space_group_symop_operation_xyz
x,y,z
-x,-y,z
1/2-x,y,z
1/2+x,-y,z
x,1/2+y,1/2+z
-x,1/2-y,1/2+z
1/2-x,1/2+y,1/2+z
1/2+x,1/2-y,1/2+z
loop_
_atom_site_type_symbol
_atom_site_label
_atom_site_fract_x
_atom_site_fract_y
_atom_site_fract_z
Si Si1 0.382303 0.212449 0.633310
Si Si2 0.441888 0.434424 0.344440
Si Si3 0.181284 0.378994 0.439008
Si Si4 0.180938 0.217401 0.953280
Si Si5 0.184603 0.038465 0.205510
Si Si6 0.433795 0.824442 0.547879
Si Si7 0.430358 0.045470 0.412505
Si Si8 0.509749 0.651815 0.643945
O O1 0.348319 0.271986 0.491439
O O2 0.418289 0.119897 0.557636
O O3 0.434170 0.283859 0.707738
O O4 0.338588 0.187435 0.776764
O O5 0.500000 0.500000 0.294051
O O6 0.368493 0.444474 0.341379
O O7 0.445918 0.337020 0.234242
O O8 0.454791 0.423383 0.528807
O O9 0.250000 0.370931 0.375508
O O10 0.186217 0.436646 0.604695
O O11 0.250000 0.249086 0.953184
O O12 0.173627 0.126142 0.076854
O O13 0.135151 0.302089 0.012192
O O14 0.250000 0.057479 0.276775
O O15 0.134128 0.031370 0.333354
O O16 0.449143 0.934460 0.476340
O O17 0.471861 0.722390 0.524255
O O18 0.467761 0.099692 0.271959
#
# Coordination Sequence:
#
# PCOD9365137 Si02
#       8
#     8   8   8   8   8   8   8   8
#     4  11  27  45  73 109 153 202 261 339 403 500
#     4  11  27  47  72 114 159 205 267 341 412 497
#     4  10  22  45  74 107 148 205 266 327 410 491
#     4  11  26  49  76 109 157 210 267 337 411 494
#     4  10  23  45  74 108 149 201 262 325 399 486
#     4  12  29  47  78 113 157 210 270 335 408 505
#     4  12  27  49  77 115 155 206 269 334 412 496
#     4  11  26  50  72 111 160 208 266 337 414 491
#
# _framework density 25.513708999999999
#
# number of rings (size 3 to 8) (size 9 to 14) (size 15 to 20)
#    0.000    1.000    1.250    3.375    7.000    4.000 
#    4.500    0.000    0.000    0.000    0.000    0.000 
#    0.000    0.000    0.000    0.000    0.000    0.000 
#
# Total GULP energy -178885.028699 kJ/mol
# GULP energy per Si atom -5590.157147 kJ/mol
# Density = 2.545564 g / cm^3
# Si number density = 25.513709 Si / 1000 Ang^3
#
#
#
# Elastic Constant Matrix: (Units=GPa)
#
#
# Indices 1 2 3 4 5 6 
#
# 1 181.4351 55.2483 47.9558 0.0000 0.0000 0.0000
# 2 55.2483 109.5402 23.3314 0.0000 0.0000 0.0000
# 3 47.9558 23.3314 77.3299 0.0000 0.0000 0.0000
# 4 0.0000 0.0000 0.0000 39.6515 0.0000 0.0000
# 5 0.0000 0.0000 0.0000 0.0000 48.8850 0.0000
# 6 0.0000 0.0000 0.0000 0.0000 0.0000 32.9337
#
#
#
# Elastic Compliance Matrix: (Units=1/GPa)
#
#
# Indices 1 2 3 4 5 6 
#
# 1 0.007382 -0.002937 -0.003692 0.000000 0.000000 0.000000
# 2 -0.002937 0.010924 -0.001475 0.000000 0.000000 0.000000
# 3 -0.003692 -0.001475 0.015666 0.000000 0.000000 0.000000
# 4 0.000000 0.000000 0.000000 0.025220 0.000000 0.000000
# 5 0.000000 0.000000 0.000000 0.000000 0.020456 0.000000
# 6 0.000000 0.000000 0.000000 0.000000 0.000000 0.030364
#
#
# Mechanical properties :
#
#
# Convention : Reuss Voigt Hill
#
# Bulk Modulus (GPa) = 56.28869 69.04180 62.66524
# Shear Modulus (GPa) = 37.83864 40.41203 39.12533
#
# Velocity S-wave (km/s) = 3.85524 3.98418 3.92024
# Velocity P-wave (km/s) = 6.47512 6.94870 6.71609
#
# Compressibility (1/GPa) = 0.01776556
#
# Stress axis : x y z
#
# Youngs Moduli (GPa) = 135.47170 91.53833 63.83285
#
# Poissons Ratio (x) = 0.26882 0.23565
# Poissons Ratio (y) = 0.39784 0.09414
# Poissons Ratio (z) = 0.50011 0.13500
#
# Static dielectric constant tensor:
#      x y z
#    x 2.039800 0.000000 0.000000 
#    y 0.000000 2.114160 0.000000 
#    z 0.000000 0.000000 2.004570 
# 
# From -- ./inp_files/8444.got.cif
#   From: 2010.05.17/outbox.cif.g08.bks.cpg/sg40_5_cif.got.tgz:8444.got - 2010.06.03 18:35:42.
