data_PCOD9365705
_publ_section_title
;
Structure prediction by ZEFSAII (Michael W. Deem and Ramdas Pophale) SiO2 
 PCOD9365705
Probable space group: A B A 2
;
_chemical_formula_sum "Si O2"
_cell_formula_units_Z 64
_cell_length_a 13.511170
_cell_length_b 5.506914
_cell_length_c 35.967329
_cell_angle_alpha 90.000000
_cell_angle_beta 90.000000
_cell_angle_gamma 90.000000
_cell_volume 2676.143763
_symmetry_space_group_name_H-M "A B A 2"
_symmetry_group_IT_number 41
_symmetry_cell_setting 'orthorhombic'
loop_
_space_group_symop_operation_xyz
x,y,z
-x,-y,z
1/2-x,y,1/2+z
1/2+x,-y,1/2+z
x,1/2+y,1/2+z
-x,1/2-y,1/2+z
1/2-x,1/2+y,z
1/2+x,1/2-y,z
loop_
_atom_site_type_symbol
_atom_site_label
_atom_site_fract_x
_atom_site_fract_y
_atom_site_fract_z
Si Si1 0.131141 0.870587 0.261870
Si Si2 0.618906 0.738846 0.877016
Si Si3 0.686350 0.203939 0.680372
Si Si4 0.861495 0.631284 0.068752
Si Si5 0.395767 0.261773 0.406803
Si Si6 0.187310 0.335794 0.983462
Si Si7 0.140595 0.371289 0.290834
Si Si8 0.367607 0.867969 0.598250
O O1 0.125436 0.810896 0.218412
O O2 0.095582 0.637418 0.284796
O O3 0.248087 0.891299 0.273922
O O4 0.092794 0.139334 0.270530
O O5 0.502628 0.751005 0.887545
O O6 0.649693 0.503251 0.900485
O O7 0.640630 0.687578 0.834251
O O8 0.654491 0.007906 0.887185
O O9 0.744564 0.461279 0.680660
O O10 0.627751 0.187536 0.641878
O O11 0.905109 0.366161 0.076169
O O12 0.748989 0.613320 0.085529
O O13 0.906734 0.865366 0.088869
O O14 0.855481 0.677406 0.024935
O O15 0.392717 0.314544 0.450592
O O16 0.241713 0.597895 0.979840
#
# Coordination Sequence:
#
# PCOD9365705 Si02
#       8
#     8   8   8   8   8   8   8   8
#     4  10  19  30  43  75 107 131 177 203 268 308
#     4  10  21  42  59  70  98 136 179 225 263 317
#     4  12  16  25  41  61 101 146 173 201 237 310
#     4  10  16  27  41  63  97 135 177 200 243 305
#     4  10  23  40  57  77  96 136 178 221 271 322
#     4  12  21  35  52  77 111 136 168 226 270 319
#     4  10  18  32  50  68  96 135 165 220 255 312
#     4  10  16  25  41  63  94 149 181 188 235 313
#
# _framework density 23.915006999999999
#
# number of rings (size 3 to 8) (size 9 to 14) (size 15 to 20)
#    0.000    1.500    7.500    1.500    0.000    0.000 
#   13.500    0.000    0.000    0.000    0.000    0.000 
#    0.000    0.000    0.000  153.000    0.000    0.000 
#
# Total GULP energy -178847.413047 kJ/mol
# GULP energy per Si atom -5588.981658 kJ/mol
# Density = 2.386058 g / cm^3
# Si number density = 23.915007 Si / 1000 Ang^3
#
#
#
# Elastic Constant Matrix: (Units=GPa)
#
#
# Indices 1 2 3 4 5 6 
#
# 1 65.6881 8.3010 -10.6367 0.0000 0.0000 0.0000
# 2 8.3010 210.0627 -3.7678 0.0000 0.0000 0.0000
# 3 -10.6367 -3.7678 166.6283 0.0000 0.0000 0.0000
# 4 0.0000 0.0000 0.0000 47.7090 0.0000 0.0000
# 5 0.0000 0.0000 0.0000 0.0000 -6.7482 0.0000
# 6 0.0000 0.0000 0.0000 0.0000 0.0000 15.3164
#
#
#
# Elastic Compliance Matrix: (Units=1/GPa)
#
#
# Indices 1 2 3 4 5 6 
#
# 1 0.015456 -0.000593 0.000973 0.000000 0.000000 0.000000
# 2 -0.000593 0.004785 0.000070 0.000000 0.000000 0.000000
# 3 0.000973 0.000070 0.006065 0.000000 0.000000 0.000000
# 4 0.000000 0.000000 0.000000 0.020960 0.000000 0.000000
# 5 0.000000 0.000000 0.000000 0.000000 -0.148188 0.000000
# 6 0.000000 0.000000 0.000000 0.000000 0.000000 0.065289
#
#
# Mechanical properties :
#
#
# Convention : Reuss Voigt Hill
#
# Bulk Modulus (GPa) = 36.75554 47.79688 42.27621
# Shear Modulus (GPa) = -182.06309 41.15428 -70.45440
#
# Velocity S-wave (km/s) = -8.73467 4.15282 -5.43363
# Velocity P-wave (km/s) = 9.29104 6.55928 4.65292
#
# Compressibility (1/GPa) = 0.02720678
#
# Stress axis : x y z
#
# Youngs Moduli (GPa) = 64.69969 208.97807 164.87781
#
# Poissons Ratio (x) = 0.12399 -0.16046
# Poissons Ratio (y) = 0.03839 -0.01160
# Poissons Ratio (z) = -0.06297 -0.01470
#
# Static dielectric constant tensor:
#      x y z
#    x 2.001410 0.000000 0.000000 
#    y 0.000000 1.938220 0.000000 
#    z 0.000000 0.000000 1.817750 
# 
# From -- ./inp_files/12762.got.cif
#   From: 2010.05.17/outbox.cif.g08.bks.cpg/sg41_7_cif.got.tgz:12762.got - 2010.06.03 18:54:24.
