data_PCOD9365184
_publ_section_title
;
Structure prediction by ZEFSAII (Michael W. Deem and Ramdas Pophale) SiO2 
 PCOD9365184
Probable space group: A M A 2
;
_chemical_formula_sum "Si O2"
_cell_formula_units_Z 48
_cell_length_a 22.440566
_cell_length_b 11.609182
_cell_length_c 7.999437
_cell_angle_alpha 90.000000
_cell_angle_beta 90.000000
_cell_angle_gamma 90.000000
_cell_volume 2083.986248
_symmetry_space_group_name_H-M "A M A 2"
_symmetry_group_IT_number 40
_symmetry_cell_setting 'orthorhombic'
loop_
_space_group_symop_operation_xyz
x,y,z
-x,-y,z
1/2-x,y,z
1/2+x,-y,z
x,1/2+y,1/2+z
-x,1/2-y,1/2+z
1/2-x,1/2+y,1/2+z
1/2+x,1/2-y,1/2+z
loop_
_atom_site_type_symbol
_atom_site_label
_atom_site_fract_x
_atom_site_fract_y
_atom_site_fract_z
Si Si1 0.182420 0.627741 0.392350
Si Si2 0.407576 0.046884 0.377932
Si Si3 0.091630 0.799010 0.503684
Si Si4 0.183274 0.214161 0.513766
Si Si5 0.402829 0.433458 0.518575
Si Si6 0.518186 0.239626 0.839180
O O1 0.250000 0.598857 0.447521
O O2 0.154925 0.736780 0.492339
O O3 0.185140 0.659749 0.197925
O O4 0.134136 0.527658 0.416190
O O5 0.347784 0.122158 0.391998
O O6 0.458509 0.139953 0.420406
O O7 0.403763 0.936122 0.495882
O O8 0.416679 0.993345 0.194740
O O9 0.052571 0.763862 0.663717
O O10 0.052550 0.752330 0.346105
O O11 0.250000 0.242955 0.459748
O O12 0.142709 0.326593 0.530009
O O13 0.460333 0.374372 0.435633
#
# Coordination Sequence:
#
# PCOD9365184 Si02
#       6
#     8   8   8   8   8   8
#     4  11  24  43  68  97 134 179 225 276 339 410
#     4  11  23  43  67  96 134 174 224 280 347 403
#     4  12  24  45  68 102 138 178 227 284 349 410
#     4  10  23  41  66  97 130 178 227 273 334 407
#     4  11  22  45  68  95 136 174 226 283 342 398
#     4  11  26  43  68 101 135 179 225 286 343 414
#
# _framework density 23.032782000000001
#
# number of rings (size 3 to 8) (size 9 to 14) (size 15 to 20)
#    0.000    1.000    3.333    3.000    2.333    2.667 
#    3.000    0.833    0.000    0.000    0.000    0.000 
#    0.000    0.000    0.000    0.000    0.000    0.000 
#
# Total GULP energy -134302.366753 kJ/mol
# GULP energy per Si atom -5595.931948 kJ/mol
# Density = 2.298036 g / cm^3
# Si number density = 23.032782 Si / 1000 Ang^3
#
#
#
# Elastic Constant Matrix: (Units=GPa)
#
#
# Indices 1 2 3 4 5 6 
#
# 1 85.3375 28.6752 -10.3401 0.0000 0.0000 0.0000
# 2 28.6752 150.4683 12.1795 0.0000 0.0000 0.0000
# 3 -10.3401 12.1795 48.5568 0.0000 0.0000 0.0000
# 4 0.0000 0.0000 0.0000 38.7490 0.0000 0.0000
# 5 0.0000 0.0000 0.0000 0.0000 25.7654 0.0000
# 6 0.0000 0.0000 0.0000 0.0000 0.0000 21.1321
#
#
#
# Elastic Compliance Matrix: (Units=1/GPa)
#
#
# Indices 1 2 3 4 5 6 
#
# 1 0.013071 -0.002773 0.003479 0.000000 0.000000 0.000000
# 2 -0.002773 0.007372 -0.002439 0.000000 0.000000 0.000000
# 3 0.003479 -0.002439 0.021947 0.000000 0.000000 0.000000
# 4 0.000000 0.000000 0.000000 0.025807 0.000000 0.000000
# 5 0.000000 0.000000 0.000000 0.000000 0.038812 0.000000
# 6 0.000000 0.000000 0.000000 0.000000 0.000000 0.047321
#
#
# Mechanical properties :
#
#
# Convention : Reuss Voigt Hill
#
# Bulk Modulus (GPa) = 25.69109 38.37689 32.03399
# Shear Modulus (GPa) = 29.27887 34.05249 31.66568
#
# Velocity S-wave (km/s) = 3.56923 3.84921 3.71186
# Velocity P-wave (km/s) = 5.30700 6.03766 5.68408
#
# Compressibility (1/GPa) = 0.03892400
#
# Stress axis : x y z
#
# Youngs Moduli (GPa) = 76.50293 135.65249 45.56397
#
# Poissons Ratio (x) = 0.37612 -0.15852
# Poissons Ratio (y) = 0.21212 0.11115
# Poissons Ratio (z) = -0.26615 0.33092
#
# Static dielectric constant tensor:
#      x y z
#    x 1.853090 0.000000 0.000000 
#    y 0.000000 1.839320 0.000000 
#    z 0.000000 0.000000 1.929170 
# 
# From -- ./inp_files/8724.got.cif
#   From: 2010.05.17/outbox.cif.g08.bks.cpg/sg40_5_cif.got.tgz:8724.got - 2010.06.03 18:35:42.
