data_PCOD9365701
_publ_section_title
;
Structure prediction by ZEFSAII (Michael W. Deem and Ramdas Pophale) SiO2 
 PCOD9365701
Probable space group: A B A 2
;
_chemical_formula_sum "Si O2"
_cell_formula_units_Z 48
_cell_length_a 11.234958
_cell_length_b 30.919737
_cell_length_c 5.303901
_cell_angle_alpha 90.000000
_cell_angle_beta 90.000000
_cell_angle_gamma 90.000000
_cell_volume 1842.479454
_symmetry_space_group_name_H-M "A B A 2"
_symmetry_group_IT_number 41
_symmetry_cell_setting 'orthorhombic'
loop_
_space_group_symop_operation_xyz
x,y,z
-x,-y,z
1/2-x,y,1/2+z
1/2+x,-y,1/2+z
x,1/2+y,1/2+z
-x,1/2-y,1/2+z
1/2-x,1/2+y,z
1/2+x,1/2-y,z
loop_
_atom_site_type_symbol
_atom_site_label
_atom_site_fract_x
_atom_site_fract_y
_atom_site_fract_z
Si Si1 0.561787 0.745437 0.034910
Si Si2 0.318386 0.165106 0.161696
Si Si3 0.823865 0.654336 0.665231
Si Si4 0.825790 0.063832 0.032717
Si Si5 0.378102 0.536672 0.104097
Si Si6 0.893903 0.425769 0.104190
O O1 0.452980 0.751818 0.233072
O O2 0.640480 0.786317 0.116134
O O3 0.606676 0.698185 0.107317
O O4 0.284759 0.158611 0.453054
O O5 0.405954 0.125651 0.094083
O O6 0.718619 0.655154 0.454532
O O7 0.889319 0.609400 0.602347
O O8 0.718187 0.067030 0.243197
O O9 0.862193 0.014115 0.077835
O O10 0.247479 0.560132 0.114425
O O11 0.443519 0.554950 0.859883
O O12 0.440496 0.550201 0.360949
#
# Coordination Sequence:
#
# PCOD9365701 Si02
#       6
#     8   8   8   8   8   8
#     4  12  26  43  59  80 114 157 191 231 291 347
#     4  12  21  36  60  88 112 145 187 244 284 324
#     4  10  21  38  60  88 112 143 194 243 279 325
#     4  10  16  25  47  76 114 140 167 217 284 312
#     4  10  14  25  41  76 119 133 161 216 288 326
#     4  10  16  25  45  76 116 133 170 217 282 328
#
# _framework density 26.051850000000002
#
# number of rings (size 3 to 8) (size 9 to 14) (size 15 to 20)
#    0.000    1.333    6.667    3.000    0.000    0.000 
#    0.000    0.000    0.000    0.000    0.000    7.000 
#    0.000    0.000    0.000    0.000    0.000    0.000 
#
# Total GULP energy -134221.433028 kJ/mol
# GULP energy per Si atom -5592.559710 kJ/mol
# Density = 2.599255 g / cm^3
# Si number density = 26.051850 Si / 1000 Ang^3
#
#
#
# Elastic Constant Matrix: (Units=GPa)
#
#
# Indices 1 2 3 4 5 6 
#
# 1 25.0143 24.0447 0.6917 0.0000 0.0000 0.0000
# 2 24.0447 243.0790 26.7127 0.0000 0.0000 0.0000
# 3 0.6917 26.7127 146.3293 0.0000 0.0000 0.0000
# 4 0.0000 0.0000 0.0000 49.5461 0.0000 0.0000
# 5 0.0000 0.0000 0.0000 0.0000 39.6529 0.0000
# 6 0.0000 0.0000 0.0000 0.0000 0.0000 -34.2017
#
#
#
# Elastic Compliance Matrix: (Units=1/GPa)
#
#
# Indices 1 2 3 4 5 6 
#
# 1 0.044230 -0.004441 0.000602 0.000000 0.000000 0.000000
# 2 -0.004441 0.004644 -0.000827 0.000000 0.000000 0.000000
# 3 0.000602 -0.000827 0.006982 0.000000 0.000000 0.000000
# 4 0.000000 0.000000 0.000000 0.020183 0.000000 0.000000
# 5 0.000000 0.000000 0.000000 0.000000 0.025219 0.000000
# 6 0.000000 0.000000 0.000000 0.000000 0.000000 -0.029238
#
#
# Mechanical properties :
#
#
# Convention : Reuss Voigt Hill
#
# Bulk Modulus (GPa) = 21.49475 57.48008 39.48742
# Shear Modulus (GPa) = 51.62118 35.19772 43.40945
#
# Velocity S-wave (km/s) = 4.45621 3.67967 4.08643
# Velocity P-wave (km/s) = 5.89455 6.33758 6.12008
#
# Compressibility (1/GPa) = 0.04652299
#
# Stress axis : x y z
#
# Youngs Moduli (GPa) = 22.60934 215.32900 143.22561
#
# Poissons Ratio (x) = 0.95632 -0.08618
# Poissons Ratio (y) = 0.10041 0.11842
# Poissons Ratio (z) = -0.01360 0.17803
#
# Static dielectric constant tensor:
#      x y z
#    x 2.010760 0.000000 0.000000 
#    y 0.000000 1.976600 0.000000 
#    z 0.000000 0.000000 2.073680 
# 
# From -- ./inp_files/298.got.cif
#   From: 2010.05.17/outbox.cif.g08.bks.cpg/sg41_1_cif.got.tgz:298.got - 2010.06.03 18:54:24.
