data_PCOD9365380
_publ_section_title
;
Structure prediction by ZEFSAII (Michael W. Deem and Ramdas Pophale) SiO2 
 PCOD9365380
Probable space group: A M A 2
;
_chemical_formula_sum "Si O2"
_cell_formula_units_Z 56
_cell_length_a 23.743787
_cell_length_b 7.555187
_cell_length_c 12.137682
_cell_angle_alpha 90.000000
_cell_angle_beta 90.000000
_cell_angle_gamma 90.000000
_cell_volume 2177.363612
_symmetry_space_group_name_H-M "A M A 2"
_symmetry_group_IT_number 40
_symmetry_cell_setting 'orthorhombic'
loop_
_space_group_symop_operation_xyz
x,y,z
-x,-y,z
1/2-x,y,z
1/2+x,-y,z
x,1/2+y,1/2+z
-x,1/2-y,1/2+z
1/2-x,1/2+y,1/2+z
1/2+x,1/2-y,1/2+z
loop_
_atom_site_type_symbol
_atom_site_label
_atom_site_fract_x
_atom_site_fract_y
_atom_site_fract_z
Si Si1 0.055506 0.707105 0.313820
Si Si2 0.437451 0.431792 0.053658
Si Si3 0.433264 0.856169 0.764431
Si Si4 0.309212 0.225594 0.295521
Si Si5 0.310834 0.580171 0.040153
Si Si6 0.351708 0.894718 0.171034
Si Si7 0.561357 0.918038 0.020920
O O1 0.057547 0.543314 0.192271
O O2 0.100963 0.833648 0.257952
O O3 0.064068 0.508527 0.377673
O O4 0.989039 0.746575 0.304361
O O5 0.500000 0.500000 0.021762
O O6 0.437491 0.248607 0.130977
O O7 0.372370 0.491118 0.038562
O O8 0.435179 0.273043 0.949166
O O9 0.367100 0.823336 0.775808
O O10 0.250000 0.318504 0.270888
O O11 0.308705 0.174523 0.422569
O O12 0.314741 0.048242 0.223627
O O13 0.250000 0.482260 0.048586
O O14 0.315692 0.727252 0.134537
O O15 0.386501 0.969948 0.066912
O O16 0.500000 0.000000 0.045743
#
# Coordination Sequence:
#
# PCOD9365380 Si02
#       7
#     8   8   8   8   8   8   8
#     4  11  23  41  67 103 138 169 218 286 342 406
#     4  12  23  42  66  98 135 176 225 282 342 409
#     4  11  20  42  62  90 136 172 213 277 340 396
#     4  11  26  45  65  95 133 178 234 282 334 411
#     4  11  25  46  70  98 136 184 231 281 344 414
#     4  12  24  45  71  99 137 181 225 282 342 402
#     4  12  24  40  67 104 140 175 225 281 345 410
#
# _framework density 25.719179
#
# number of rings (size 3 to 8) (size 9 to 14) (size 15 to 20)
#    0.000    0.571    5.714    3.857    2.000    0.571 
#    0.000    0.000    0.000    6.000    0.000    0.000 
#    0.000    0.000    0.000    0.000    0.000    0.000 
#
# Total GULP energy -156062.021902 kJ/mol
# GULP energy per Si atom -5573.643639 kJ/mol
# Density = 2.566064 g / cm^3
# Si number density = 25.719179 Si / 1000 Ang^3
#
#
#
# Elastic Constant Matrix: (Units=GPa)
#
#
# Indices 1 2 3 4 5 6 
#
# 1 286.6488 67.8792 52.0345 0.0000 0.0000 0.0000
# 2 67.8792 76.3604 15.7238 0.0000 0.0000 0.0000
# 3 52.0345 15.7238 177.7988 0.0000 0.0000 0.0000
# 4 0.0000 0.0000 0.0000 49.3013 0.0000 0.0000
# 5 0.0000 0.0000 0.0000 0.0000 70.7185 0.0000
# 6 0.0000 0.0000 0.0000 0.0000 0.0000 30.2410
#
#
#
# Elastic Compliance Matrix: (Units=1/GPa)
#
#
# Indices 1 2 3 4 5 6 
#
# 1 0.004587 -0.003872 -0.001000 0.000000 0.000000 0.000000
# 2 -0.003872 0.016606 -0.000336 0.000000 0.000000 0.000000
# 3 -0.001000 -0.000336 0.005947 0.000000 0.000000 0.000000
# 4 0.000000 0.000000 0.000000 0.020283 0.000000 0.000000
# 5 0.000000 0.000000 0.000000 0.000000 0.014141 0.000000
# 6 0.000000 0.000000 0.000000 0.000000 0.000000 0.033068
#
#
# Mechanical properties :
#
#
# Convention : Reuss Voigt Hill
#
# Bulk Modulus (GPa) = 59.78796 90.23145 75.00971
# Shear Modulus (GPa) = 45.19929 57.06353 51.13141
#
# Velocity S-wave (km/s) = 4.19670 4.71543 4.46361
# Velocity P-wave (km/s) = 6.83959 8.05025 7.46949
#
# Compressibility (1/GPa) = 0.01672578
#
# Stress axis : x y z
#
# Youngs Moduli (GPa) = 218.01168 60.21764 168.16113
#
# Poissons Ratio (x) = 0.23313 0.16816
# Poissons Ratio (y) = 0.84404 0.05643
# Poissons Ratio (z) = 0.21802 0.02021
#
# Static dielectric constant tensor:
#      x y z
#    x 1.838170 0.000000 0.000000 
#    y 0.000000 2.773880 0.000000 
#    z 0.000000 0.000000 3.593240 
# 
# From -- ./inp_files/18245.got.cif
#   From: 2010.05.17/outbox.cif.g08.bks.cpg/sg40_10_cif.got.tgz:18245.got - 2010.06.03 18:35:42.
