data_PCOD9365953
_publ_section_title
;
Structure prediction by ZEFSAII (Michael W. Deem and Ramdas Pophale) SiO2 
 PCOD9365953
Probable space group: A B A 2
;
_chemical_formula_sum "Si O2"
_cell_formula_units_Z 60
_cell_length_a 20.888307
_cell_length_b 29.019626
_cell_length_c 5.524285
_cell_angle_alpha 90.000000
_cell_angle_beta 90.000000
_cell_angle_gamma 90.000000
_cell_volume 3348.660572
_symmetry_space_group_name_H-M "A B A 2"
_symmetry_group_IT_number 41
_symmetry_cell_setting 'orthorhombic'
loop_
_space_group_symop_operation_xyz
x,y,z
-x,-y,z
1/2-x,y,1/2+z
1/2+x,-y,1/2+z
x,1/2+y,1/2+z
-x,1/2-y,1/2+z
1/2-x,1/2+y,z
1/2+x,1/2-y,z
loop_
_atom_site_type_symbol
_atom_site_label
_atom_site_fract_x
_atom_site_fract_y
_atom_site_fract_z
Si Si1 0.711883 0.003453 0.081500
Si Si2 0.909921 0.940769 0.566788
Si Si3 0.710632 0.611507 0.608761
Si Si4 0.500000 0.000000 0.406904
Si Si5 0.040892 0.749583 0.306008
Si Si6 0.486331 0.914917 0.677586
Si Si7 0.048990 0.148577 0.787097
Si Si8 0.082997 0.845131 0.479470
O O1 0.741081 0.996354 0.350883
O O2 0.691776 0.057338 0.090166
O O3 0.654654 0.968100 0.029882
O O4 0.949538 0.970279 0.759890
O O5 0.959197 0.936909 0.346392
O O6 0.904637 0.888260 0.660864
O O7 0.748962 0.619548 0.355599
O O8 0.647746 0.643426 0.617623
O O9 0.461142 0.959711 0.540585
O O10 0.075335 0.699956 0.310388
O O11 0.081995 0.795492 0.350921
O O12 0.993575 0.746505 0.542501
O O13 0.524562 0.875918 0.529438
O O14 0.428729 0.887752 0.799431
O O15 0.982378 0.153040 0.636779
#
# Coordination Sequence:
#
# PCOD9365953 Si02
#       8
#     8   8   8   4   8   8   8   8
#     4  10  24  41  58  80 111 160 201 238 278 343
#     4  10  22  36  54  85 113 153 189 242 290 344
#     4  10  24  39  56  80 112 153 203 241 275 341
#     4  10  22  30  52  86 118 148 178 240 290 354
#     4  10  19  35  57  87 119 147 182 228 291 362
#     4  10  20  33  53  85 116 149 181 238 293 353
#     4   9  20  35  55  90 117 144 188 239 297 355
#     4  10  21  35  60  82 116 155 189 236 305 348
#
# _framework density 17.917611000000001
#
# number of rings (size 3 to 8) (size 9 to 14) (size 15 to 20)
#    0.000    2.133    1.333    0.400   13.067    1.067 
#    0.000    0.000    0.000    1.600    0.000    0.000 
#    0.000    0.000    0.000    0.000    0.000    0.000 
#
# Total GULP energy -167047.485230 kJ/mol
# GULP energy per Si atom -5568.249508 kJ/mol
# Density = 1.787683 g / cm^3
# Si number density = 17.917611 Si / 1000 Ang^3
#
#
#
# Elastic Constant Matrix: (Units=GPa)
#
#
# Indices 1 2 3 4 5 6 
#
# 1 34.6156 37.2447 -2.1564 0.0000 0.0000 0.0000
# 2 37.2447 115.6153 19.4360 0.0000 0.0000 0.0000
# 3 -2.1564 19.4360 61.0038 0.0000 0.0000 0.0000
# 4 0.0000 0.0000 0.0000 82.0396 0.0000 0.0000
# 5 0.0000 0.0000 0.0000 0.0000 2.2491 0.0000
# 6 0.0000 0.0000 0.0000 0.0000 0.0000 20.0059
#
#
#
# Elastic Compliance Matrix: (Units=1/GPa)
#
#
# Indices 1 2 3 4 5 6 
#
# 1 0.046750 -0.016206 0.006816 0.000000 0.000000 0.000000
# 2 -0.016206 0.014757 -0.005274 0.000000 0.000000 0.000000
# 3 0.006816 -0.005274 0.018314 0.000000 0.000000 0.000000
# 4 0.000000 0.000000 0.000000 0.012189 0.000000 0.000000
# 5 0.000000 0.000000 0.000000 0.000000 0.444628 0.000000
# 6 0.000000 0.000000 0.000000 0.000000 0.000000 0.049985
#
#
# Mechanical properties :
#
#
# Convention : Reuss Voigt Hill
#
# Bulk Modulus (GPa) = 19.80526 35.58704 27.69615
# Shear Modulus (GPa) = 7.90160 31.30627 19.60393
#
# Velocity S-wave (km/s) = 2.10227 4.18453 3.31133
# Velocity P-wave (km/s) = 4.11949 6.57660 5.48734
#
# Compressibility (1/GPa) = 0.05049163
#
# Stress axis : x y z
#
# Youngs Moduli (GPa) = 21.39017 67.76547 54.60363
#
# Poissons Ratio (x) = 1.09822 -0.37217
# Poissons Ratio (y) = 0.34665 0.28800
# Poissons Ratio (z) = -0.14579 0.35742
#
# Static dielectric constant tensor:
#      x y z
#    x 1.624800 0.000000 0.000000 
#    y 0.000000 1.423120 0.000000 
#    z 0.000000 0.000000 1.723660 
# 
# From -- ./inp_files/553.got.cif
#   From: 2010.05.17/outbox.cif.g08.bks.cpg/sg41_1_cif.got.tgz:553.got - 2010.06.03 18:54:24.
