data_PCOD9365258
_publ_section_title
;
Structure prediction by ZEFSAII (Michael W. Deem and Ramdas Pophale) SiO2 
 PCOD9365258
Probable space group: A M A 2
;
_chemical_formula_sum "Si O2"
_cell_formula_units_Z 64
_cell_length_a 30.827486
_cell_length_b 5.695809
_cell_length_c 18.098714
_cell_angle_alpha 90.000000
_cell_angle_beta 90.000000
_cell_angle_gamma 90.000000
_cell_volume 3177.907441
_symmetry_space_group_name_H-M "A M A 2"
_symmetry_group_IT_number 40
_symmetry_cell_setting 'orthorhombic'
loop_
_space_group_symop_operation_xyz
x,y,z
-x,-y,z
1/2-x,y,z
1/2+x,-y,z
x,1/2+y,1/2+z
-x,1/2-y,1/2+z
1/2-x,1/2+y,1/2+z
1/2+x,1/2-y,1/2+z
loop_
_atom_site_type_symbol
_atom_site_label
_atom_site_fract_x
_atom_site_fract_y
_atom_site_fract_z
Si Si1 0.952349 0.926829 0.719040
Si Si2 0.953337 0.113198 0.354946
Si Si3 0.300785 0.696688 0.985515
Si Si4 0.130461 0.693273 0.856671
Si Si5 0.165494 0.709165 0.546587
Si Si6 0.115725 0.171786 0.193591
Si Si7 0.088457 0.554747 0.451001
Si Si8 0.547678 0.617762 0.590899
O O1 0.942249 0.716099 0.774546
O O2 0.956742 0.860516 0.633384
O O3 0.915437 0.118919 0.721316
O O4 0.000000 0.000000 0.745323
O O5 0.952096 0.312843 0.416517
O O6 0.913596 0.946431 0.375407
O O7 0.000000 0.000000 0.351229
O O8 0.250000 0.721342 0.970083
O O9 0.308582 0.449402 0.028896
O O10 0.315643 0.946366 0.024901
O O11 0.329254 0.659206 0.911411
O O12 0.138918 0.618674 0.772010
O O13 0.115223 0.954564 0.881513
O O14 0.152059 0.720745 0.632263
O O15 0.121275 0.715409 0.497945
O O16 0.081759 0.015570 0.145401
O O17 0.069999 0.373759 0.511387
O O18 0.500000 0.500000 0.589558
#
# Coordination Sequence:
#
# PCOD9365258 Si02
#       8
#     8   8   8   8   8   8   8   8
#     4  12  23  38  59  86 126 183 235 279 334 394
#     4  12  24  37  61  91 134 182 228 279 333 401
#     4  11  24  48  76 103 138 173 217 283 356 425
#     4  11  23  43  65  95 129 174 228 276 339 413
#     4  10  24  44  70 104 133 173 221 273 350 411
#     4  11  23  40  65  89 131 177 219 287 335 402
#     4  10  24  40  57  91 130 172 222 281 329 392
#     4  11  23  38  54  86 125 175 234 280 327 382
#
# _framework density 20.139036999999998
#
# number of rings (size 3 to 8) (size 9 to 14) (size 15 to 20)
#    0.000    1.000    5.000    1.500    7.000    0.000 
#    0.000    1.250    0.000    0.000    0.000    0.000 
#    0.000    0.000    0.000    0.000    0.000    0.000 
#
# Total GULP energy -178189.576260 kJ/mol
# GULP energy per Si atom -5568.424258 kJ/mol
# Density = 2.009320 g / cm^3
# Si number density = 20.139037 Si / 1000 Ang^3
#
#
#
# Elastic Constant Matrix: (Units=GPa)
#
#
# Indices 1 2 3 4 5 6 
#
# 1 103.7128 32.2054 47.3455 0.0000 0.0000 0.0000
# 2 32.2054 59.2029 35.3336 0.0000 0.0000 0.0000
# 3 47.3455 35.3336 145.8701 0.0000 0.0000 0.0000
# 4 0.0000 0.0000 0.0000 31.6987 0.0000 0.0000
# 5 0.0000 0.0000 0.0000 0.0000 54.3754 0.0000
# 6 0.0000 0.0000 0.0000 0.0000 0.0000 28.3977
#
#
#
# Elastic Compliance Matrix: (Units=1/GPa)
#
#
# Indices 1 2 3 4 5 6 
#
# 1 0.012523 -0.005128 -0.002823 0.000000 0.000000 0.000000
# 2 -0.005128 0.021845 -0.003627 0.000000 0.000000 0.000000
# 3 -0.002823 -0.003627 0.008650 0.000000 0.000000 0.000000
# 4 0.000000 0.000000 0.000000 0.031547 0.000000 0.000000
# 5 0.000000 0.000000 0.000000 0.000000 0.018391 0.000000
# 6 0.000000 0.000000 0.000000 0.000000 0.000000 0.035214
#
#
# Mechanical properties :
#
#
# Convention : Reuss Voigt Hill
#
# Bulk Modulus (GPa) = 50.34383 59.83945 55.09164
# Shear Modulus (GPa) = 31.65645 35.82111 33.73878
#
# Velocity S-wave (km/s) = 3.96901 4.22203 4.09747
# Velocity P-wave (km/s) = 6.78649 7.31745 7.05697
#
# Compressibility (1/GPa) = 0.01986341
#
# Stress axis : x y z
#
# Youngs Moduli (GPa) = 79.85455 45.77664 115.60527
#
# Poissons Ratio (x) = 0.23473 0.32630
# Poissons Ratio (y) = 0.40947 0.41932
# Poissons Ratio (z) = 0.22539 0.16604
#
# Static dielectric constant tensor:
#      x y z
#    x 1.700640 0.000000 0.000000 
#    y 0.000000 1.837980 0.000000 
#    z 0.000000 0.000000 1.720120 
# 
# From -- ./inp_files/21676.got.cif
#   From: 2010.05.17/outbox.cif.g08.bks.cpg/sg40_11_cif.got.tgz:21676.got - 2010.06.03 18:35:42.
