data_PCOD9365372
_publ_section_title
;
Structure prediction by ZEFSAII (Michael W. Deem and Ramdas Pophale) SiO2 
 PCOD9365372
Probable space group: A M A 2
;
_chemical_formula_sum "Si O2"
_cell_formula_units_Z 64
_cell_length_a 18.935445
_cell_length_b 16.594400
_cell_length_c 9.856841
_cell_angle_alpha 90.000000
_cell_angle_beta 90.000000
_cell_angle_gamma 90.000000
_cell_volume 3097.239728
_symmetry_space_group_name_H-M "A M A 2"
_symmetry_group_IT_number 40
_symmetry_cell_setting 'orthorhombic'
loop_
_space_group_symop_operation_xyz
x,y,z
-x,-y,z
1/2-x,y,z
1/2+x,-y,z
x,1/2+y,1/2+z
-x,1/2-y,1/2+z
1/2-x,1/2+y,1/2+z
1/2+x,1/2-y,1/2+z
loop_
_atom_site_type_symbol
_atom_site_label
_atom_site_fract_x
_atom_site_fract_y
_atom_site_fract_z
Si Si1 0.571979 0.105720 0.836740
Si Si2 0.455148 0.291567 0.080868
Si Si3 0.585170 0.377062 0.707999
Si Si4 0.086713 0.070894 0.916629
Si Si5 0.887945 0.220136 0.061224
Si Si6 0.329361 0.127942 0.679622
Si Si7 0.334475 0.033217 0.419745
Si Si8 0.426199 0.383326 0.813307
O O1 0.557271 0.135409 0.685212
O O2 0.495363 0.095972 0.908100
O O3 0.602063 0.016548 0.853297
O O4 0.614954 0.172648 0.920108
O O5 0.420203 0.213215 0.149381
O O6 0.537342 0.268278 0.066171
O O7 0.428403 0.317628 0.933810
O O8 0.603535 0.429211 0.575037
O O9 0.643145 0.393415 0.821365
O O10 0.508093 0.399064 0.770644
O O11 0.126148 0.131708 0.816791
O O12 0.832313 0.287751 0.100046
O O13 0.891014 0.153929 0.179833
O O14 0.250000 0.107454 0.717591
O O15 0.354537 0.061060 0.571421
O O16 0.250000 0.018165 0.414662
O O17 0.382074 0.959090 0.367967
#
# Coordination Sequence:
#
# PCOD9365372 Si02
#       8
#     8   8   8   8   8   8   8   8
#     4  11  21  34  59  88 123 147 193 265 305 356
#     4  11  20  35  59  92 121 152 196 262 310 361
#     4  11  23  38  65  91 121 160 205 262 314 367
#     4  11  22  38  59  90 118 158 200 250 315 362
#     4  11  20  38  59  91 119 155 200 252 309 359
#     4  11  24  43  63  86 128 171 206 244 302 384
#     4  11  25  43  61  88 127 170 211 253 307 381
#     4  11  22  38  64  91 124 158 206 259 316 366
#
# _framework density 20.663561000000001
#
# number of rings (size 3 to 8) (size 9 to 14) (size 15 to 20)
#    0.000    1.000    3.750    5.625    1.750    1.000 
#    0.000    1.250    0.000    4.500    0.000    0.000 
#    0.000    0.000    0.000    0.000    0.000    0.000 
#
# Total GULP energy -178781.654665 kJ/mol
# GULP energy per Si atom -5586.926708 kJ/mol
# Density = 2.061653 g / cm^3
# Si number density = 20.663561 Si / 1000 Ang^3
#
#
#
# Elastic Constant Matrix: (Units=GPa)
#
#
# Indices 1 2 3 4 5 6 
#
# 1 34.4658 22.3615 26.2352 0.0000 0.0000 0.0000
# 2 22.3615 72.0609 10.7696 0.0000 0.0000 0.0000
# 3 26.2352 10.7696 95.5171 0.0000 0.0000 0.0000
# 4 0.0000 0.0000 0.0000 39.1174 0.0000 0.0000
# 5 0.0000 0.0000 0.0000 0.0000 9.7871 0.0000
# 6 0.0000 0.0000 0.0000 0.0000 0.0000 11.9901
#
#
#
# Elastic Compliance Matrix: (Units=1/GPa)
#
#
# Indices 1 2 3 4 5 6 
#
# 1 0.045567 -0.012480 -0.011109 0.000000 0.000000 0.000000
# 2 -0.012480 0.017533 0.001451 0.000000 0.000000 0.000000
# 3 -0.011109 0.001451 0.013357 0.000000 0.000000 0.000000
# 4 0.000000 0.000000 0.000000 0.025564 0.000000 0.000000
# 5 0.000000 0.000000 0.000000 0.000000 0.102175 0.000000
# 6 0.000000 0.000000 0.000000 0.000000 0.000000 0.083402
#
#
# Mechanical properties :
#
#
# Convention : Reuss Voigt Hill
#
# Bulk Modulus (GPa) = 31.07338 35.64181 33.35760
# Shear Modulus (GPa) = 14.59426 21.69075 18.14251
#
# Velocity S-wave (km/s) = 2.66048 3.24344 2.96631
# Velocity P-wave (km/s) = 4.95055 5.59577 5.28302
#
# Compressibility (1/GPa) = 0.03218189
#
# Stress axis : x y z
#
# Youngs Moduli (GPa) = 21.94573 57.03541 74.86796
#
# Poissons Ratio (x) = 0.71179 0.83167
# Poissons Ratio (y) = 0.27388 -0.10863
# Poissons Ratio (z) = 0.24378 -0.08275
#
# Static dielectric constant tensor:
#      x y z
#    x 1.701490 0.000000 0.000000 
#    y 0.000000 1.796890 0.000000 
#    z 0.000000 0.000000 1.751660 
# 
# From -- ./inp_files/8457.got.cif
#   From: 2010.05.17/outbox.cif.g08.bks.cpg/sg40_5_cif.got.tgz:8457.got - 2010.06.03 18:35:42.
