data_PCOD9365337
_publ_section_title
;
Structure prediction by ZEFSAII (Michael W. Deem and Ramdas Pophale) SiO2 
 PCOD9365337
Probable space group: A M A 2
;
_chemical_formula_sum "Si O2"
_cell_formula_units_Z 36
_cell_length_a 15.011322
_cell_length_b 5.176331
_cell_length_c 19.067288
_cell_angle_alpha 90.000000
_cell_angle_beta 90.000000
_cell_angle_gamma 90.000000
_cell_volume 1481.596375
_symmetry_space_group_name_H-M "A M A 2"
_symmetry_group_IT_number 40
_symmetry_cell_setting 'orthorhombic'
loop_
_space_group_symop_operation_xyz
x,y,z
-x,-y,z
1/2-x,y,z
1/2+x,-y,z
x,1/2+y,1/2+z
-x,1/2-y,1/2+z
1/2-x,1/2+y,1/2+z
1/2+x,1/2-y,1/2+z
loop_
_atom_site_type_symbol
_atom_site_label
_atom_site_fract_x
_atom_site_fract_y
_atom_site_fract_z
Si Si1 0.000000 0.000000 0.598861
Si Si2 0.351907 0.397514 0.353399
Si Si3 0.653297 0.338285 0.641787
Si Si4 0.599032 0.105589 0.271968
Si Si5 0.647018 0.187116 0.011838
O O1 0.071512 0.143268 0.549317
O O2 0.935606 0.171351 0.647291
O O3 0.250000 0.486278 0.356560
O O4 0.398228 0.613655 0.306087
O O5 0.383123 0.380539 0.433569
O O6 0.354942 0.112685 0.320407
O O7 0.750000 0.213184 0.656303
O O8 0.643027 0.577044 0.695431
O O9 0.652786 0.439815 0.562438
O O10 0.500000 0.000000 0.267986
O O11 0.750000 0.293418 0.009060
#
# Coordination Sequence:
#
# PCOD9365337 Si02
#       5
#     4   8   8   8   8
#     4  12  24  42  76 110 144 190 252 312 364 448
#     4  11  26  48  73 105 148 195 242 301 371 441
#     4  11  26  47  72 103 144 194 245 304 372 446
#     4  12  27  46  73 109 146 191 247 306 371 438
#     4  10  25  46  72 105 145 194 245 302 370 444
#
# _framework density 24.298114000000002
#
# number of rings (size 3 to 8) (size 9 to 14) (size 15 to 20)
#    0.000    0.889    0.000    5.333   10.889    1.778 
#    0.000    0.000    0.000    0.000    0.000    0.000 
#    0.000    0.000    0.000    0.000    0.000    0.000 
#
# Total GULP energy -100740.012710 kJ/mol
# GULP energy per Si atom -5596.667373 kJ/mol
# Density = 2.424281 g / cm^3
# Si number density = 24.298114 Si / 1000 Ang^3
#
#
#
# Elastic Constant Matrix: (Units=GPa)
#
#
# Indices 1 2 3 4 5 6 
#
# 1 158.1451 38.5429 11.8056 0.0000 0.0000 0.0000
# 2 38.5429 90.5743 38.1340 0.0000 0.0000 0.0000
# 3 11.8056 38.1340 141.2289 0.0000 0.0000 0.0000
# 4 0.0000 0.0000 0.0000 25.4860 0.0000 0.0000
# 5 0.0000 0.0000 0.0000 0.0000 23.1154 0.0000
# 6 0.0000 0.0000 0.0000 0.0000 0.0000 52.7093
#
#
#
# Elastic Compliance Matrix: (Units=1/GPa)
#
#
# Indices 1 2 3 4 5 6 
#
# 1 0.007063 -0.003111 0.000250 0.000000 0.000000 0.000000
# 2 -0.003111 0.013827 -0.003473 0.000000 0.000000 0.000000
# 3 0.000250 -0.003473 0.007998 0.000000 0.000000 0.000000
# 4 0.000000 0.000000 0.000000 0.039237 0.000000 0.000000
# 5 0.000000 0.000000 0.000000 0.000000 0.043261 0.000000
# 6 0.000000 0.000000 0.000000 0.000000 0.000000 0.018972
#
#
# Mechanical properties :
#
#
# Convention : Reuss Voigt Hill
#
# Bulk Modulus (GPa) = 61.65867 62.99036 62.32452
# Shear Modulus (GPa) = 33.68532 40.35986 37.02259
#
# Velocity S-wave (km/s) = 3.72739 4.07999 3.90767
# Velocity P-wave (km/s) = 6.62990 6.94085 6.78716
#
# Compressibility (1/GPa) = 0.01621832
#
# Stress axis : x y z
#
# Youngs Moduli (GPa) = 141.58731 72.32385 125.03567
#
# Poissons Ratio (x) = 0.22497 -0.03120
# Poissons Ratio (y) = 0.44041 0.43430
# Poissons Ratio (z) = -0.03533 0.25121
#
# Static dielectric constant tensor:
#      x y z
#    x 1.969060 0.000000 0.000000 
#    y 0.000000 1.966910 0.000000 
#    z 0.000000 0.000000 1.919200 
# 
# From -- ./inp_files/22945.got.cif
#   From: 2010.05.17/outbox.cif.g08.bks.cpg/sg40_12_cif.got.tgz:22945.got - 2010.06.03 18:35:42.
