data_PCOD9365879
_publ_section_title
;
Structure prediction by ZEFSAII (Michael W. Deem and Ramdas Pophale) SiO2 
 PCOD9365879
Probable space group: A B A 2
;
_chemical_formula_sum "Si O2"
_cell_formula_units_Z 56
_cell_length_a 21.396450
_cell_length_b 23.387382
_cell_length_c 5.585521
_cell_angle_alpha 90.000000
_cell_angle_beta 90.000000
_cell_angle_gamma 90.000000
_cell_volume 2795.033526
_symmetry_space_group_name_H-M "A B A 2"
_symmetry_group_IT_number 41
_symmetry_cell_setting 'orthorhombic'
loop_
_space_group_symop_operation_xyz
x,y,z
-x,-y,z
1/2-x,y,1/2+z
1/2+x,-y,1/2+z
x,1/2+y,1/2+z
-x,1/2-y,1/2+z
1/2-x,1/2+y,z
1/2+x,1/2-y,z
loop_
_atom_site_type_symbol
_atom_site_label
_atom_site_fract_x
_atom_site_fract_y
_atom_site_fract_z
Si Si1 0.038229 0.681586 0.480340
Si Si2 0.447509 0.550330 0.979735
Si Si3 0.575007 0.489527 0.479724
Si Si4 0.875743 0.159355 0.980290
Si Si5 0.119760 0.381608 0.980284
Si Si6 0.245683 0.920992 0.980331
Si Si7 0.421502 0.729038 0.480339
O O1 0.024641 0.613825 0.480199
O O2 0.073553 0.694883 0.731641
O O3 0.979857 0.725652 0.480322
O O4 0.073576 0.694913 0.229111
O O5 0.500000 0.500000 0.979579
O O6 0.410887 0.541388 0.730457
O O7 0.410808 0.541254 0.228764
O O8 0.500000 0.500000 0.479544
O O9 0.605705 0.551544 0.480182
O O10 0.906289 0.145643 0.238308
O O11 0.817418 0.115700 0.980328
O O12 0.906290 0.145625 0.722293
O O13 0.863422 0.226861 0.980252
O O14 0.195219 0.377633 0.980319
O O15 0.250003 0.953916 0.230330
#
# Coordination Sequence:
#
# PCOD9365879 Si02
#       7
#     8   8   8   8   8   8   8
#     4  10  21  36  48  71 107 138 184 211 253 316
#     4  10  21  35  50  70 101 142 189 219 246 296
#     4  10  21  30  46  75 100 145 182 208 267 307
#     4  10  19  31  53  74 103 138 174 209 277 326
#     4  10  19  31  49  75 113 133 171 223 272 324
#     4   8  16  30  46  72 103 130 158 217 277 318
#     4  10  21  33  52  73  99 148 169 215 268 309
#
# _framework density 20.035537000000001
#
# number of rings (size 3 to 8) (size 9 to 14) (size 15 to 20)
#    0.000    2.286    0.000    2.571    8.000    0.000 
#    0.000    0.000    0.000    0.000    0.000    0.000 
#    0.000  205.714    0.000    0.000    0.000    0.000 
#
# Total GULP energy -155873.748922 kJ/mol
# GULP energy per Si atom -5566.919604 kJ/mol
# Density = 1.998994 g / cm^3
# Si number density = 20.035537 Si / 1000 Ang^3
#
#
#
# Elastic Constant Matrix: (Units=GPa)
#
#
# Indices 1 2 3 4 5 6 
#
# 1 14.5806 2.4590 10.6665 0.0000 0.0000 0.0000
# 2 2.4590 105.6319 50.1341 0.0000 0.0000 0.0000
# 3 10.6665 50.1341 262.9276 0.0000 0.0000 0.0000
# 4 0.0000 0.0000 0.0000 36.3360 0.0000 0.0000
# 5 0.0000 0.0000 0.0000 0.0000 8.4470 0.0000
# 6 0.0000 0.0000 0.0000 0.0000 0.0000 4.3893
#
#
#
# Elastic Compliance Matrix: (Units=1/GPa)
#
#
# Indices 1 2 3 4 5 6 
#
# 1 0.070691 -0.000313 -0.002808 0.000000 0.000000 0.000000
# 2 -0.000313 0.010410 -0.001972 0.000000 0.000000 0.000000
# 3 -0.002808 -0.001972 0.004293 0.000000 0.000000 0.000000
# 4 0.000000 0.000000 0.000000 0.027521 0.000000 0.000000
# 5 0.000000 0.000000 0.000000 0.000000 0.118385 0.000000
# 6 0.000000 0.000000 0.000000 0.000000 0.000000 0.227825
#
#
# Mechanical properties :
#
#
# Convention : Reuss Voigt Hill
#
# Bulk Modulus (GPa) = 13.29643 56.62880 34.96262
# Shear Modulus (GPa) = 10.11364 31.15985 20.63674
#
# Velocity S-wave (km/s) = 2.24918 3.94792 3.21285
# Velocity P-wave (km/s) = 3.66004 7.00763 5.59030
#
# Compressibility (1/GPa) = 0.07520817
#
# Stress axis : x y z
#
# Youngs Moduli (GPa) = 14.14603 96.05978 232.92014
#
# Poissons Ratio (x) = 0.03005 0.65408
# Poissons Ratio (y) = 0.00443 0.45938
# Poissons Ratio (z) = 0.03972 0.18946
#
# Static dielectric constant tensor:
#      x y z
#    x 1.784010 0.000000 0.000000 
#    y 0.000000 1.691270 0.000000 
#    z 0.000000 0.000000 1.900580 
# 
# From -- ./inp_files/1214.got.cif
#   From: 2010.05.17/outbox.cif.g08.bks.cpg/sg41_1_cif.got.tgz:1214.got - 2010.06.03 18:54:24.
