data_PCOD9365286
_publ_section_title
;
Structure prediction by ZEFSAII (Michael W. Deem and Ramdas Pophale) SiO2 
 PCOD9365286
Probable space group: A M A 2
;
_chemical_formula_sum "Si O2"
_cell_formula_units_Z 64
_cell_length_a 8.693697
_cell_length_b 24.265037
_cell_length_c 15.692606
_cell_angle_alpha 90.000000
_cell_angle_beta 90.000000
_cell_angle_gamma 90.000000
_cell_volume 3310.400421
_symmetry_space_group_name_H-M "A M A 2"
_symmetry_group_IT_number 40
_symmetry_cell_setting 'orthorhombic'
loop_
_space_group_symop_operation_xyz
x,y,z
-x,-y,z
1/2-x,y,z
1/2+x,-y,z
x,1/2+y,1/2+z
-x,1/2-y,1/2+z
1/2-x,1/2+y,1/2+z
1/2+x,1/2-y,1/2+z
loop_
_atom_site_type_symbol
_atom_site_label
_atom_site_fract_x
_atom_site_fract_y
_atom_site_fract_z
Si Si1 0.932082 0.750842 0.228200
Si Si2 0.066019 0.061453 0.330638
Si Si3 0.934909 0.365297 0.168549
Si Si4 0.432082 0.749158 0.933075
Si Si5 0.933416 0.132000 0.486242
Si Si6 0.434910 0.134702 0.992725
Si Si7 0.433416 0.368001 0.675033
Si Si8 0.935206 0.438735 0.330637
O O1 0.750000 0.752704 0.209164
O O2 0.950950 0.749681 0.330638
O O3 0.011860 0.805522 0.192751
O O4 0.005324 0.695960 0.189390
O O5 0.250000 0.060689 0.330637
O O6 0.006299 0.094048 0.247934
O O7 0.006302 0.094049 0.413341
O O8 0.000000 0.000000 0.330639
O O9 0.750000 0.364610 0.162891
O O10 0.982060 0.404725 0.246626
O O11 0.006143 0.384100 0.079401
O O12 0.250000 0.747296 0.952111
O O13 0.511862 0.694478 0.968524
O O14 0.505323 0.804041 0.971884
O O15 0.750000 0.128871 0.482240
O O16 0.250000 0.135389 0.998383
O O17 0.506141 0.115900 0.081874
O O18 0.482060 0.095274 0.914649
O O19 0.750000 0.628871 0.679033
O O20 0.750000 0.441133 0.330637
O O21 0.000000 0.500000 0.330636
#
# Coordination Sequence:
#
# PCOD9365286 Si02
#       8
#     8   8   8   8   8   8   8   8
#     4  11  22  38  64  96 130 169 210 260 320 385
#     4  12  26  47  70  95 126 167 215 267 319 376
#     4  11  23  42  65  94 130 169 213 264 320 382
#     4  11  22  38  64  96 130 169 210 260 320 385
#     4  12  25  42  66  97 131 170 211 260 318 382
#     4  11  23  42  65  94 130 169 213 264 320 382
#     4  12  25  42  66  97 131 170 211 260 318 382
#     4  10  24  43  66  91 122 165 211 263 315 368
#
# _framework density 19.333009000000001
#
# number of rings (size 3 to 8) (size 9 to 14) (size 15 to 20)
#    0.000    0.750    2.500    5.625    0.000    4.000 
#    0.000    2.500    0.000    0.000    0.000    0.000 
#    0.000    0.000    0.000    0.000    0.000    0.000 
#
# Total GULP energy -179160.672248 kJ/mol
# GULP energy per Si atom -5598.771008 kJ/mol
# Density = 1.928901 g / cm^3
# Si number density = 19.333009 Si / 1000 Ang^3
#
#
#
# Elastic Constant Matrix: (Units=GPa)
#
#
# Indices 1 2 3 4 5 6 
#
# 1 148.5022 59.4262 87.7666 0.0000 0.0000 0.0000
# 2 59.4262 162.0036 99.2619 0.0000 0.0000 0.0000
# 3 87.7666 99.2619 191.6481 0.0000 0.0000 0.0000
# 4 0.0000 0.0000 0.0000 -9.5159 0.0000 0.0000
# 5 0.0000 0.0000 0.0000 0.0000 33.7098 0.0000
# 6 0.0000 0.0000 0.0000 0.0000 0.0000 38.7624
#
#
#
# Elastic Compliance Matrix: (Units=1/GPa)
#
#
# Indices 1 2 3 4 5 6 
#
# 1 0.009386 -0.001185 -0.003684 0.000000 0.000000 0.000000
# 2 -0.001185 0.009192 -0.004218 0.000000 0.000000 0.000000
# 3 -0.003684 -0.004218 0.009090 0.000000 0.000000 0.000000
# 4 0.000000 0.000000 0.000000 -0.105087 0.000000 0.000000
# 5 0.000000 0.000000 0.000000 0.000000 0.029665 0.000000
# 6 0.000000 0.000000 0.000000 0.000000 0.000000 0.025798
#
#
# Mechanical properties :
#
#
# Convention : Reuss Voigt Hill
#
# Bulk Modulus (GPa) = 105.35118 110.56258 107.95688
# Shear Modulus (GPa) = -8108.69196 29.63786 -4039.52705
#
# Velocity S-wave (km/s) = -64.83307 3.91963 -45.76004
# Velocity P-wave (km/s) = 74.49714 8.82028 52.30692
#
# Compressibility (1/GPa) = 0.00949206
#
# Stress axis : x y z
#
# Youngs Moduli (GPa) = 106.54456 108.79056 110.01363
#
# Poissons Ratio (x) = 0.12897 0.40532
# Poissons Ratio (y) = 0.12631 0.46404
# Poissons Ratio (z) = 0.39254 0.45888
#
# Static dielectric constant tensor:
#      x y z
#    x 1.644110 0.000000 0.000000 
#    y 0.000000 1.639980 0.000000 
#    z 0.000000 0.000000 1.674610 
# 
# From -- ./inp_files/15603.got.cif
#   From: 2010.05.17/outbox.cif.g08.bks.cpg/sg40_8_cif.got.tgz:15603.got - 2010.06.03 18:35:42.
