data_PCOD9365785
_publ_section_title
;
Structure prediction by ZEFSAII (Michael W. Deem and Ramdas Pophale) SiO2 
 PCOD9365785
Probable space group: A B A 2
;
_chemical_formula_sum "Si O2"
_cell_formula_units_Z 52
_cell_length_a 17.525928
_cell_length_b 14.610466
_cell_length_c 8.282193
_cell_angle_alpha 90.000000
_cell_angle_beta 90.000000
_cell_angle_gamma 90.000000
_cell_volume 2120.754698
_symmetry_space_group_name_H-M "A B A 2"
_symmetry_group_IT_number 41
_symmetry_cell_setting 'orthorhombic'
loop_
_space_group_symop_operation_xyz
x,y,z
-x,-y,z
1/2-x,y,1/2+z
1/2+x,-y,1/2+z
x,1/2+y,1/2+z
-x,1/2-y,1/2+z
1/2-x,1/2+y,z
1/2+x,1/2-y,z
loop_
_atom_site_type_symbol
_atom_site_label
_atom_site_fract_x
_atom_site_fract_y
_atom_site_fract_z
Si Si1 0.886506 0.326617 0.924590
Si Si2 0.861083 0.645069 0.935713
Si Si3 0.000000 0.500000 0.421407
Si Si4 0.388862 0.020251 0.142637
Si Si5 0.724501 0.380312 0.836392
Si Si6 0.916466 0.830802 0.056585
Si Si7 0.794752 0.195577 0.122837
O O1 0.810101 0.388007 0.894050
O O2 0.920790 0.316467 0.748218
O O3 0.922812 0.383950 0.072234
O O4 0.854312 0.230886 0.989845
O O5 0.895772 0.553855 0.005438
O O6 0.916382 0.732417 0.966277
O O7 0.783452 0.664075 0.040551
O O8 0.835789 0.631380 0.751372
O O9 0.931466 0.517410 0.298442
O O10 0.977970 0.408018 0.514766
O O11 0.305910 0.042638 0.216873
O O12 0.721247 0.285358 0.734778
O O13 0.664316 0.370306 0.984212
#
# Coordination Sequence:
#
# PCOD9365785 Si02
#       7
#     8   8   4   8   8   8   8
#     4  11  18  37  61  94 116 165 191 247 307 399
#     4  11  20  37  57  96 120 161 182 266 310 368
#     4  10  24  48  56  82 112 182 218 262 278 382
#     4  10  24  36  61  85 129 153 213 249 307 351
#     4   9  17  35  59  92 118 161 186 242 302 394
#     4  10  19  38  67  80 120 157 216 240 311 351
#     4  10  18  32  59  90 133 144 189 230 330 385
#
# _framework density 24.519576000000001
#
# number of rings (size 3 to 8) (size 9 to 14) (size 15 to 20)
#    0.000    1.846    4.615    1.846    2.154    0.615 
#    0.000    4.615    0.000    0.000    0.000    0.000 
#    0.000    0.000    0.000    0.000    0.000    0.000 
#
# Total GULP energy -145299.396821 kJ/mol
# GULP energy per Si atom -5588.438339 kJ/mol
# Density = 2.446377 g / cm^3
# Si number density = 24.519576 Si / 1000 Ang^3
#
#
#
# Elastic Constant Matrix: (Units=GPa)
#
#
# Indices 1 2 3 4 5 6 
#
# 1 26.1227 0.5864 -0.0999 0.0000 0.0000 0.0000
# 2 0.5864 28.6311 -15.4249 0.0000 0.0000 0.0000
# 3 -0.0999 -15.4249 107.8797 0.0000 0.0000 0.0000
# 4 0.0000 0.0000 0.0000 27.1915 0.0000 0.0000
# 5 0.0000 0.0000 0.0000 0.0000 25.2236 0.0000
# 6 0.0000 0.0000 0.0000 0.0000 0.0000 14.1813
#
#
#
# Elastic Compliance Matrix: (Units=1/GPa)
#
#
# Indices 1 2 3 4 5 6 
#
# 1 0.038299 -0.000829 -0.000083 0.000000 0.000000 0.000000
# 2 -0.000829 0.037860 0.005413 0.000000 0.000000 0.000000
# 3 -0.000083 0.005413 0.010043 0.000000 0.000000 0.000000
# 4 0.000000 0.000000 0.000000 0.036776 0.000000 0.000000
# 5 0.000000 0.000000 0.000000 0.000000 0.039645 0.000000
# 6 0.000000 0.000000 0.000000 0.000000 0.000000 0.070516
#
#
# Mechanical properties :
#
#
# Convention : Reuss Voigt Hill
#
# Bulk Modulus (GPa) = 10.50384 14.75073 12.62729
# Shear Modulus (GPa) = 19.54089 25.15740 22.34915
#
# Velocity S-wave (km/s) = 2.82609 3.20662 3.02235
# Velocity P-wave (km/s) = 3.86552 4.44284 4.16420
#
# Compressibility (1/GPa) = 0.09520329
#
# Stress axis : x y z
#
# Youngs Moduli (GPa) = 26.11021 26.41306 99.56778
#
# Poissons Ratio (x) = 0.02190 0.00827
# Poissons Ratio (y) = 0.02165 -0.53892
# Poissons Ratio (z) = 0.00217 -0.14296
#
# Static dielectric constant tensor:
#      x y z
#    x 2.076680 0.000000 0.000000 
#    y 0.000000 1.945880 0.000000 
#    z 0.000000 0.000000 1.967380 
# 
# From -- ./inp_files/3405.got.cif
#   From: 2010.05.17/outbox.cif.g08.bks.cpg/sg41_2_cif.got.tgz:3405.got - 2010.06.03 18:54:24.
