data_PCOD9365891
_publ_section_title
;
Structure prediction by ZEFSAII (Michael W. Deem and Ramdas Pophale) SiO2 
 PCOD9365891
Probable space group: A B A 2
;
_chemical_formula_sum "Si O2"
_cell_formula_units_Z 64
_cell_length_a 11.644720
_cell_length_b 12.732930
_cell_length_c 17.231391
_cell_angle_alpha 90.000000
_cell_angle_beta 90.000000
_cell_angle_gamma 90.000000
_cell_volume 2554.922547
_symmetry_space_group_name_H-M "A B A 2"
_symmetry_group_IT_number 41
_symmetry_cell_setting 'orthorhombic'
loop_
_space_group_symop_operation_xyz
x,y,z
-x,-y,z
1/2-x,y,1/2+z
1/2+x,-y,1/2+z
x,1/2+y,1/2+z
-x,1/2-y,1/2+z
1/2-x,1/2+y,z
1/2+x,1/2-y,z
loop_
_atom_site_type_symbol
_atom_site_label
_atom_site_fract_x
_atom_site_fract_y
_atom_site_fract_z
Si Si1 0.375127 0.573406 0.409970
Si Si2 0.285857 0.447291 0.111713
Si Si3 0.785856 0.052709 0.286783
Si Si4 0.106740 0.254920 0.286026
Si Si5 0.375127 0.073406 0.488525
Si Si6 0.421567 0.592315 0.816450
Si Si7 0.921567 0.907685 0.582045
Si Si8 0.393260 0.754920 0.112470
O O1 0.377982 0.469180 0.354995
O O2 0.386437 0.671582 0.353777
O O3 0.250000 0.566104 0.449248
O O4 0.443997 0.593166 0.489185
O O5 0.331958 0.438865 0.199248
O O6 0.377982 0.469181 0.043501
O O7 0.203534 0.551395 0.105937
O O8 0.200457 0.348461 0.097674
O O9 0.700457 0.151539 0.300822
O O10 0.703533 0.948605 0.292559
O O11 0.129169 0.214256 0.199248
O O12 0.977290 0.301691 0.286448
O O13 0.443997 0.093166 0.409310
O O14 0.386437 0.171582 0.544719
O O15 0.500000 0.500000 0.783696
O O16 0.977290 0.801691 0.612047
O O17 0.000000 0.000000 0.614800
#
# Coordination Sequence:
#
# PCOD9365891 Si02
#       8
#     8   8   8   8   8   8   8   8
#     4  10  20  32  50  75 101 129 161 202 248 292
#     4   9  18  33  51  72  97 126 164 204 242 287
#     4   9  18  33  51  72  97 126 164 204 242 287
#     4  10  19  32  52  74  99 132 166 201 241 290
#     4  10  20  32  50  75 101 129 161 202 248 292
#     4   9  18  32  51  72  97 129 164 202 243 287
#     4   9  18  32  51  72  97 129 164 202 243 287
#     4  10  19  32  52  74  99 132 166 201 241 290
#
# _framework density 25.049683999999999
#
# number of rings (size 3 to 8) (size 9 to 14) (size 15 to 20)
#    0.000    2.500    0.000    2.250    0.000    8.000 
#    0.000    0.000    0.000    9.000    0.000    0.000 
#    0.000    0.000    0.000    0.000    0.000    0.000 
#
# Total GULP energy -178551.667722 kJ/mol
# GULP energy per Si atom -5579.739616 kJ/mol
# Density = 2.499267 g / cm^3
# Si number density = 25.049684 Si / 1000 Ang^3
#
#
#
# Elastic Constant Matrix: (Units=GPa)
#
#
# Indices 1 2 3 4 5 6 
#
# 1 37.4366 3.4575 4.9141 0.0000 0.0000 0.0000
# 2 3.4575 71.4134 57.2942 0.0000 0.0000 0.0000
# 3 4.9141 57.2942 231.1688 0.0000 0.0000 0.0000
# 4 0.0000 0.0000 0.0000 30.3555 0.0000 0.0000
# 5 0.0000 0.0000 0.0000 0.0000 16.8320 0.0000
# 6 0.0000 0.0000 0.0000 0.0000 0.0000 30.9828
#
#
#
# Elastic Compliance Matrix: (Units=1/GPa)
#
#
# Indices 1 2 3 4 5 6 
#
# 1 0.026850 -0.001051 -0.000310 0.000000 0.000000 0.000000
# 2 -0.001051 0.017520 -0.004320 0.000000 0.000000 0.000000
# 3 -0.000310 -0.004320 0.005403 0.000000 0.000000 0.000000
# 4 0.000000 0.000000 0.000000 0.032943 0.000000 0.000000
# 5 0.000000 0.000000 0.000000 0.000000 0.059411 0.000000
# 6 0.000000 0.000000 0.000000 0.000000 0.000000 0.032276
#
#
# Mechanical properties :
#
#
# Convention : Reuss Voigt Hill
#
# Bulk Modulus (GPa) = 26.03482 52.37229 39.20355
# Shear Modulus (GPa) = 25.18037 33.92426 29.55231
#
# Velocity S-wave (km/s) = 3.17396 3.68405 3.43847
# Velocity P-wave (km/s) = 4.88342 6.24892 5.60789
#
# Compressibility (1/GPa) = 0.03841010
#
# Stress axis : x y z
#
# Youngs Moduli (GPa) = 37.24447 57.07891 185.07932
#
# Poissons Ratio (x) = 0.05999 0.05742
# Poissons Ratio (y) = 0.03914 0.79951
# Poissons Ratio (z) = 0.01156 0.24657
#
# Static dielectric constant tensor:
#      x y z
#    x 2.123570 0.000000 0.000000 
#    y 0.000000 1.994350 0.000000 
#    z 0.000000 0.000000 2.017980 
# 
# From -- ./inp_files/10414.got.cif
#   From: 2010.05.17/outbox.cif.g08.bks.cpg/sg41_6_cif.got.tgz:10414.got - 2010.06.03 18:54:24.
