data_PCOD9365970
_publ_section_title
;
Structure prediction by ZEFSAII (Michael W. Deem and Ramdas Pophale) SiO2 
 PCOD9365970
Probable space group: A B A 2
;
_chemical_formula_sum "Si O2"
_cell_formula_units_Z 36
_cell_length_a 10.366974
_cell_length_b 5.169241
_cell_length_c 25.875222
_cell_angle_alpha 90.000000
_cell_angle_beta 90.000000
_cell_angle_gamma 90.000000
_cell_volume 1386.637287
_symmetry_space_group_name_H-M "A B A 2"
_symmetry_group_IT_number 41
_symmetry_cell_setting 'orthorhombic'
loop_
_space_group_symop_operation_xyz
x,y,z
-x,-y,z
1/2-x,y,1/2+z
1/2+x,-y,1/2+z
x,1/2+y,1/2+z
-x,1/2-y,1/2+z
1/2-x,1/2+y,z
1/2+x,1/2-y,z
loop_
_atom_site_type_symbol
_atom_site_label
_atom_site_fract_x
_atom_site_fract_y
_atom_site_fract_z
Si Si1 0.821144 0.375063 0.378260
Si Si2 0.000000 0.500000 0.673754
Si Si3 0.160541 0.286631 0.980636
Si Si4 0.076486 0.256734 0.768355
Si Si5 0.660050 0.213184 0.093361
O O1 0.797925 0.677153 0.385221
O O2 0.908433 0.268947 0.425802
O O3 0.846067 0.339465 0.317524
O O4 0.110148 0.389879 0.713436
O O5 0.059444 0.717953 0.637715
O O6 0.229408 0.563901 0.981078
O O7 0.094893 0.262048 0.036431
O O8 0.000000 0.500000 0.792530
O O9 0.000000 0.000000 0.752633
O O10 0.768941 0.438580 0.097188
#
# Coordination Sequence:
#
# PCOD9365970 Si02
#       5
#     8   4   8   8   8
#     4  10  19  35  62  84 111 153 196 243 302 359
#     4  10  26  40  62  86 130 152 216 250 288 364
#     4   8  16  33  56  84 112 142 191 242 289 358
#     4  10  23  39  52  80 124 150 190 253 288 341
#     4  10  22  39  63  88 119 161 199 249 309 351
#
# _framework density 25.962087
#
# number of rings (size 3 to 8) (size 9 to 14) (size 15 to 20)
#    0.667    1.778    0.000    1.333    3.111    1.778 
#    2.000    0.000    0.000    0.000    0.000    0.000 
#    0.000    0.000    0.000    0.000    0.000    0.000 
#
# Total GULP energy -100254.179031 kJ/mol
# GULP energy per Si atom -5569.676613 kJ/mol
# Density = 2.590300 g / cm^3
# Si number density = 25.962087 Si / 1000 Ang^3
#
#
#
# Elastic Constant Matrix: (Units=GPa)
#
#
# Indices 1 2 3 4 5 6 
#
# 1 32.9744 25.7735 30.0044 0.0000 0.0000 0.0000
# 2 25.7735 150.0794 11.5903 0.0000 0.0000 0.0000
# 3 30.0044 11.5903 244.5602 0.0000 0.0000 0.0000
# 4 0.0000 0.0000 0.0000 27.9716 0.0000 0.0000
# 5 0.0000 0.0000 0.0000 0.0000 46.2990 0.0000
# 6 0.0000 0.0000 0.0000 0.0000 0.0000 36.0705
#
#
#
# Elastic Compliance Matrix: (Units=1/GPa)
#
#
# Indices 1 2 3 4 5 6 
#
# 1 0.039483 -0.006430 -0.004539 0.000000 0.000000 0.000000
# 2 -0.006430 0.007735 0.000422 0.000000 0.000000 0.000000
# 3 -0.004539 0.000422 0.004626 0.000000 0.000000 0.000000
# 4 0.000000 0.000000 0.000000 0.035751 0.000000 0.000000
# 5 0.000000 0.000000 0.000000 0.000000 0.021599 0.000000
# 6 0.000000 0.000000 0.000000 0.000000 0.000000 0.027724
#
#
# Mechanical properties :
#
#
# Convention : Reuss Voigt Hill
#
# Bulk Modulus (GPa) = 32.52082 62.48336 47.50209
# Shear Modulus (GPa) = 29.71598 46.08461 37.90030
#
# Velocity S-wave (km/s) = 3.38685 4.21773 3.82492
# Velocity P-wave (km/s) = 5.27710 6.91653 6.15168
#
# Compressibility (1/GPa) = 0.03074954
#
# Stress axis : x y z
#
# Youngs Moduli (GPa) = 25.32757 129.28673 216.17557
#
# Poissons Ratio (x) = 0.83130 0.98128
# Poissons Ratio (y) = 0.16285 -0.09129
# Poissons Ratio (z) = 0.11497 -0.05460
#
# Static dielectric constant tensor:
#      x y z
#    x 2.208770 0.000000 0.000000 
#    y 0.000000 1.961440 0.000000 
#    z 0.000000 0.000000 2.162610 
# 
# From -- ./inp_files/11466.got.cif
#   From: 2010.05.17/outbox.cif.g08.bks.cpg/sg41_6_cif.got.tgz:11466.got - 2010.06.03 18:54:24.
