data_PCOD9365216
_publ_section_title
;
Structure prediction by ZEFSAII (Michael W. Deem and Ramdas Pophale) SiO2 
 PCOD9365216
Probable space group: A M A 2
;
_chemical_formula_sum "Si O2"
_cell_formula_units_Z 44
_cell_length_a 22.905151
_cell_length_b 16.406045
_cell_length_c 4.996553
_cell_angle_alpha 90.000000
_cell_angle_beta 90.000000
_cell_angle_gamma 90.000000
_cell_volume 1877.619366
_symmetry_space_group_name_H-M "A M A 2"
_symmetry_group_IT_number 40
_symmetry_cell_setting 'orthorhombic'
loop_
_space_group_symop_operation_xyz
x,y,z
-x,-y,z
1/2-x,y,z
1/2+x,-y,z
x,1/2+y,1/2+z
-x,1/2-y,1/2+z
1/2-x,1/2+y,1/2+z
1/2+x,1/2-y,1/2+z
loop_
_atom_site_type_symbol
_atom_site_label
_atom_site_fract_x
_atom_site_fract_y
_atom_site_fract_z
Si Si1 0.371251 0.415849 0.225020
Si Si2 0.250000 0.475466 0.459175
Si Si3 0.019579 0.707947 0.889086
Si Si4 0.850570 0.255691 0.876244
Si Si5 0.750000 0.839611 0.129493
Si Si6 0.250000 0.815317 0.246385
Si Si7 0.552531 0.058139 0.254671
O O1 0.308462 0.451108 0.301843
O O2 0.363623 0.318639 0.168342
O O3 0.412504 0.418167 0.487873
O O4 0.399324 0.464410 0.977566
O O5 0.250000 0.572533 0.495998
O O6 0.250000 0.414086 0.721492
O O7 0.087005 0.711562 0.969154
O O8 0.013133 0.727426 0.575642
O O9 0.983768 0.626092 0.918110
O O10 0.811065 0.331016 0.783554
O O11 0.808449 0.211461 0.088021
O O12 0.750000 0.749722 0.987001
O O13 0.500000 0.000000 0.170428
#
# Coordination Sequence:
#
# PCOD9365216 Si02
#       7
#     8   4   8   8   4   4   8
#     4  11  25  48  70 102 145 194 238 289 377 424
#     4  10  26  46  71 108 140 193 243 315 355 443
#     4  12  24  42  69 100 135 182 236 286 354 422
#     4  10  23  43  67 104 135 184 240 297 353 444
#     4  11  25  45  73 107 139 187 254 295 372 428
#     4   9  23  45  70  95 145 190 235 300 375 425
#     4  12  26  45  71 105 143 190 235 295 359 439
#
# _framework density 23.433931000000001
#
# number of rings (size 3 to 8) (size 9 to 14) (size 15 to 20)
#    0.000    1.091    3.636    1.091   10.182    2.182 
#    3.273    0.000    0.000    0.000    0.000    0.000 
#    0.000    0.000    0.000    0.000    0.000    0.000 
#
# Total GULP energy -122750.931152 kJ/mol
# GULP energy per Si atom -5579.587780 kJ/mol
# Density = 2.338059 g / cm^3
# Si number density = 23.433931 Si / 1000 Ang^3
#
#
#
# Elastic Constant Matrix: (Units=GPa)
#
#
# Indices 1 2 3 4 5 6 
#
# 1 198.8627 53.5867 40.4659 0.0000 0.0000 0.0000
# 2 53.5867 54.2243 10.4439 0.0000 0.0000 0.0000
# 3 40.4659 10.4439 75.3753 0.0000 0.0000 0.0000
# 4 0.0000 0.0000 0.0000 14.5251 0.0000 0.0000
# 5 0.0000 0.0000 0.0000 0.0000 11.7772 0.0000
# 6 0.0000 0.0000 0.0000 0.0000 0.0000 28.4123
#
#
#
# Elastic Compliance Matrix: (Units=1/GPa)
#
#
# Indices 1 2 3 4 5 6 
#
# 1 0.007490 -0.006809 -0.003077 0.000000 0.000000 0.000000
# 2 -0.006809 0.025137 0.000172 0.000000 0.000000 0.000000
# 3 -0.003077 0.000172 0.014895 0.000000 0.000000 0.000000
# 4 0.000000 0.000000 0.000000 0.068846 0.000000 0.000000
# 5 0.000000 0.000000 0.000000 0.000000 0.084910 0.000000
# 6 0.000000 0.000000 0.000000 0.000000 0.000000 0.035196
#
#
# Mechanical properties :
#
#
# Convention : Reuss Voigt Hill
#
# Bulk Modulus (GPa) = 35.59418 59.71726 47.65572
# Shear Modulus (GPa) = 18.84899 25.87399 22.36149
#
# Velocity S-wave (km/s) = 2.83918 3.32644 3.09242
# Velocity P-wave (km/s) = 5.09608 6.34761 5.75596
#
# Compressibility (1/GPa) = 0.02809448
#
# Stress axis : x y z
#
# Youngs Moduli (GPa) = 133.51978 39.78138 67.13566
#
# Poissons Ratio (x) = 0.27086 0.20660
# Poissons Ratio (y) = 0.90910 -0.01157
# Poissons Ratio (z) = 0.41090 -0.00685
#
# Static dielectric constant tensor:
#      x y z
#    x 1.911560 0.000000 0.000000 
#    y 0.000000 1.952230 0.000000 
#    z 0.000000 0.000000 1.946550 
# 
# From -- ./inp_files/2703.got.cif
#   From: 2010.05.17/outbox.cif.g08.bks.cpg/sg40_2_cif.got.tgz:2703.got - 2010.06.03 18:35:42.
