data_PCOD9365282
_publ_section_title
;
Structure prediction by ZEFSAII (Michael W. Deem and Ramdas Pophale) SiO2 
 PCOD9365282
Probable space group: A M A 2
;
_chemical_formula_sum "Si O2"
_cell_formula_units_Z 64
_cell_length_a 17.787884
_cell_length_b 29.441458
_cell_length_c 5.052125
_cell_angle_alpha 90.000000
_cell_angle_beta 90.000000
_cell_angle_gamma 90.000000
_cell_volume 2645.804126
_symmetry_space_group_name_H-M "A M A 2"
_symmetry_group_IT_number 40
_symmetry_cell_setting 'orthorhombic'
loop_
_space_group_symop_operation_xyz
x,y,z
-x,-y,z
1/2-x,y,z
1/2+x,-y,z
x,1/2+y,1/2+z
-x,1/2-y,1/2+z
1/2-x,1/2+y,1/2+z
1/2+x,1/2-y,1/2+z
loop_
_atom_site_type_symbol
_atom_site_label
_atom_site_fract_x
_atom_site_fract_y
_atom_site_fract_z
Si Si1 0.661545 0.752450 0.748890
Si Si2 0.943386 0.411729 0.099493
Si Si3 0.597739 0.205181 0.757511
Si Si4 0.837966 0.888280 0.222229
Si Si5 0.421344 0.519985 0.514241
Si Si6 0.161658 0.929194 0.923328
Si Si7 0.593398 0.112461 0.421064
Si Si8 0.436690 0.675404 0.389938
O O1 0.750000 0.758479 0.789590
O O2 0.648621 0.716267 0.513384
O O3 0.616491 0.798377 0.681521
O O4 0.620765 0.741153 0.029830
O O5 0.859842 0.395242 0.028597
O O6 0.006637 0.401820 0.880615
O O7 0.942484 0.461024 0.222457
O O8 0.969573 0.373482 0.304060
O O9 0.605552 0.159981 0.574634
O O10 0.513991 0.204603 0.886637
O O11 0.750000 0.886728 0.169455
O O12 0.877721 0.935608 0.124879
O O13 0.880748 0.843348 0.117423
O O14 0.500000 0.500000 0.626266
O O15 0.364684 0.478325 0.519989
O O16 0.250000 0.925480 0.902305
O O17 0.126289 0.922459 0.634939
O O18 0.132980 0.892817 0.139623
#
# Coordination Sequence:
#
# PCOD9365282 Si02
#       8
#     8   8   8   8   8   8   8   8
#     4  12  26  45  72 108 149 189 241 307 369 430
#     4  10  24  42  73 100 136 190 234 297 357 444
#     4  11  26  45  76 104 144 192 248 298 362 437
#     4  11  25  43  71 105 143 182 236 308 373 434
#     4  11  23  44  67  98 138 190 239 295 350 436
#     4  12  26  43  70 103 142 186 237 300 359 423
#     4  11  25  46  71 102 139 190 243 291 359 432
#     4  10  25  45  72 103 141 190 242 292 368 451
#
# _framework density 24.189242
#
# number of rings (size 3 to 8) (size 9 to 14) (size 15 to 20)
#    0.000    1.000    1.250    3.750   10.500    6.500 
#    0.000    0.000    0.000    0.000    0.000    0.000 
#    0.000    0.000    0.000    0.000    0.000    0.000 
#
# Total GULP energy -178385.864004 kJ/mol
# GULP energy per Si atom -5574.558250 kJ/mol
# Density = 2.413419 g / cm^3
# Si number density = 24.189242 Si / 1000 Ang^3
#
#
#
# Elastic Constant Matrix: (Units=GPa)
#
#
# Indices 1 2 3 4 5 6 
#
# 1 163.7807 28.8235 36.7691 0.0000 0.0000 0.0000
# 2 28.8235 99.4440 18.3030 0.0000 0.0000 0.0000
# 3 36.7691 18.3030 85.9938 0.0000 0.0000 0.0000
# 4 0.0000 0.0000 0.0000 36.3209 0.0000 0.0000
# 5 0.0000 0.0000 0.0000 0.0000 21.0128 0.0000
# 6 0.0000 0.0000 0.0000 0.0000 0.0000 20.7737
#
#
#
# Elastic Compliance Matrix: (Units=1/GPa)
#
#
# Indices 1 2 3 4 5 6 
#
# 1 0.006971 -0.001532 -0.002655 0.000000 0.000000 0.000000
# 2 -0.001532 0.010803 -0.001644 0.000000 0.000000 0.000000
# 3 -0.002655 -0.001644 0.013114 0.000000 0.000000 0.000000
# 4 0.000000 0.000000 0.000000 0.027532 0.000000 0.000000
# 5 0.000000 0.000000 0.000000 0.000000 0.047590 0.000000
# 6 0.000000 0.000000 0.000000 0.000000 0.000000 0.048138
#
#
# Mechanical properties :
#
#
# Convention : Reuss Voigt Hill
#
# Bulk Modulus (GPa) = 52.01317 57.44551 54.72934
# Shear Modulus (GPa) = 29.03291 33.30967 31.17129
#
# Velocity S-wave (km/s) = 3.46821 3.71488 3.59366
# Velocity P-wave (km/s) = 6.13084 6.49618 6.31615
#
# Compressibility (1/GPa) = 0.01922590
#
# Stress axis : x y z
#
# Youngs Moduli (GPa) = 143.44465 92.57054 76.25555
#
# Poissons Ratio (x) = 0.14182 0.20244
# Poissons Ratio (y) = 0.21976 0.12538
# Poissons Ratio (z) = 0.38080 0.15220
#
# Static dielectric constant tensor:
#      x y z
#    x 1.901400 0.000000 0.000000 
#    y 0.000000 1.873240 0.000000 
#    z 0.000000 0.000000 2.168860 
# 
# From -- ./inp_files/2012.got.cif
#   From: 2010.05.17/outbox.cif.g08.bks.cpg/sg40_2_cif.got.tgz:2012.got - 2010.06.03 18:35:42.
