data_PCOD9365159
_publ_section_title
;
Structure prediction by ZEFSAII (Michael W. Deem and Ramdas Pophale) SiO2 
 PCOD9365159
Probable space group: A M A 2
;
_chemical_formula_sum "Si O2"
_cell_formula_units_Z 64
_cell_length_a 18.161297
_cell_length_b 12.179394
_cell_length_c 14.893056
_cell_angle_alpha 90.000000
_cell_angle_beta 90.000000
_cell_angle_gamma 90.000000
_cell_volume 3294.248548
_symmetry_space_group_name_H-M "A M A 2"
_symmetry_group_IT_number 40
_symmetry_cell_setting 'orthorhombic'
loop_
_space_group_symop_operation_xyz
x,y,z
-x,-y,z
1/2-x,y,z
1/2+x,-y,z
x,1/2+y,1/2+z
-x,1/2-y,1/2+z
1/2-x,1/2+y,1/2+z
1/2+x,1/2-y,1/2+z
loop_
_atom_site_type_symbol
_atom_site_label
_atom_site_fract_x
_atom_site_fract_y
_atom_site_fract_z
Si Si1 0.662296 0.597241 0.768920
Si Si2 0.336824 0.184692 0.984594
Si Si3 0.564402 0.299290 0.215506
Si Si4 0.662718 0.876541 0.179130
Si Si5 0.911760 0.226505 0.826684
Si Si6 0.085222 0.020097 0.844996
Si Si7 0.939488 0.349655 0.009643
Si Si8 0.396122 0.924180 0.459643
O O1 0.750000 0.606089 0.785606
O O2 0.626542 0.712307 0.742834
O O3 0.649492 0.505232 0.694051
O O4 0.619602 0.551875 0.855726
O O5 0.250000 0.159841 0.978628
O O6 0.367988 0.158403 0.083168
O O7 0.377642 0.107273 0.912432
O O8 0.347439 0.315565 0.974647
O O9 0.491606 0.275357 0.275936
O O10 0.585666 0.420881 0.248374
O O11 0.554992 0.298365 0.108541
O O12 0.750000 0.860075 0.175450
O O13 0.634227 0.804918 0.261688
O O14 0.882786 0.101722 0.834605
O O15 0.914706 0.272574 0.927767
O O16 0.000000 0.000000 0.872912
O O17 0.889136 0.460145 0.011094
O O18 0.021321 0.385588 0.980220
#
# Coordination Sequence:
#
# PCOD9365159 Si02
#       8
#     8   8   8   8   8   8   8   8
#     4  11  22  43  65  88 127 169 217 270 319 379
#     4  11  23  43  66  91 125 171 219 260 316 387
#     4  11  24  40  63  95 126 167 211 263 322 382
#     4  10  24  41  61  91 124 164 209 261 319 379
#     4  11  22  41  62  89 130 161 204 263 320 380
#     4  10  23  39  60  90 128 163 204 260 316 376
#     4  11  24  38  64  98 126 160 210 263 325 382
#     4  11  21  40  65  93 124 160 212 268 313 380
#
# _framework density 19.427799
#
# number of rings (size 3 to 8) (size 9 to 14) (size 15 to 20)
#    0.000    1.250    3.750    1.875    8.750    1.000 
#    0.000    1.875    0.000    0.000    0.000    0.000 
#    0.000    0.000    0.000    0.000    0.000    0.000 
#
# Total GULP energy -178463.054480 kJ/mol
# GULP energy per Si atom -5576.970453 kJ/mol
# Density = 1.938358 g / cm^3
# Si number density = 19.427799 Si / 1000 Ang^3
#
#
#
# Elastic Constant Matrix: (Units=GPa)
#
#
# Indices 1 2 3 4 5 6 
#
# 1 35.3756 23.8626 19.3162 0.0000 0.0000 0.0000
# 2 23.8626 103.8732 32.4705 0.0000 0.0000 0.0000
# 3 19.3162 32.4705 123.4731 0.0000 0.0000 0.0000
# 4 0.0000 0.0000 0.0000 23.6517 0.0000 0.0000
# 5 0.0000 0.0000 0.0000 0.0000 18.4479 0.0000
# 6 0.0000 0.0000 0.0000 0.0000 0.0000 22.8271
#
#
#
# Elastic Compliance Matrix: (Units=1/GPa)
#
#
# Indices 1 2 3 4 5 6 
#
# 1 0.034900 -0.006876 -0.003652 0.000000 0.000000 0.000000
# 2 -0.006876 0.011844 -0.002039 0.000000 0.000000 0.000000
# 3 -0.003652 -0.002039 0.009206 0.000000 0.000000 0.000000
# 4 0.000000 0.000000 0.000000 0.042280 0.000000 0.000000
# 5 0.000000 0.000000 0.000000 0.000000 0.054207 0.000000
# 6 0.000000 0.000000 0.000000 0.000000 0.000000 0.043808
#
#
# Mechanical properties :
#
#
# Convention : Reuss Voigt Hill
#
# Bulk Modulus (GPa) = 32.44922 46.00228 39.22575
# Shear Modulus (GPa) = 21.58418 25.45685 23.52052
#
# Velocity S-wave (km/s) = 3.33677 3.62378 3.48323
# Velocity P-wave (km/s) = 5.61998 6.42176 6.03420
#
# Compressibility (1/GPa) = 0.03081739
#
# Stress axis : x y z
#
# Youngs Moduli (GPa) = 28.65312 84.42984 108.62015
#
# Poissons Ratio (x) = 0.58055 0.39663
# Poissons Ratio (y) = 0.19702 0.22148
# Poissons Ratio (z) = 0.10463 0.17215
#
# Static dielectric constant tensor:
#      x y z
#    x 1.682740 0.000000 0.000000 
#    y 0.000000 1.722440 0.000000 
#    z 0.000000 0.000000 1.671880 
# 
# From -- ./inp_files/17829.got.cif
#   From: 2010.05.17/outbox.cif.g08.bks.cpg/sg40_9_cif.got.tgz:17829.got - 2010.06.03 18:35:42.
