data_PCOD9365605
_publ_section_title
;
Structure prediction by ZEFSAII (Michael W. Deem and Ramdas Pophale) SiO2 
 PCOD9365605
Probable space group: A M A 2
;
_chemical_formula_sum "Si O2"
_cell_formula_units_Z 48
_cell_length_a 7.557125
_cell_length_b 34.020632
_cell_length_c 7.241986
_cell_angle_alpha 90.000000
_cell_angle_beta 90.000000
_cell_angle_gamma 90.000000
_cell_volume 1861.901338
_symmetry_space_group_name_H-M "A M A 2"
_symmetry_group_IT_number 40
_symmetry_cell_setting 'orthorhombic'
loop_
_space_group_symop_operation_xyz
x,y,z
-x,-y,z
1/2-x,y,z
1/2+x,-y,z
x,1/2+y,1/2+z
-x,1/2-y,1/2+z
1/2-x,1/2+y,1/2+z
1/2+x,1/2-y,1/2+z
loop_
_atom_site_type_symbol
_atom_site_label
_atom_site_fract_x
_atom_site_fract_y
_atom_site_fract_z
Si Si1 0.458521 0.041578 0.310510
Si Si2 0.046981 0.628767 0.391869
Si Si3 0.541464 0.624648 0.823073
Si Si4 0.963474 0.456504 0.388769
Si Si5 0.548560 0.202773 0.422865
Si Si6 0.967335 0.289774 0.499077
O O1 0.250000 0.044743 0.296980
O O2 0.521559 0.081261 0.403064
O O3 0.532563 0.040747 0.101150
O O4 0.500000 0.000000 0.398879
O O5 0.250000 0.630272 0.331394
O O6 0.969697 0.586846 0.325075
O O7 0.973875 0.673504 0.370938
O O8 0.045329 0.624320 0.618796
O O9 0.750000 0.631582 0.797078
O O10 0.471035 0.659309 0.956089
O O11 0.750000 0.453133 0.388574
O O12 0.000000 0.500000 0.308235
O O13 0.750000 0.204240 0.491988
O O14 0.468443 0.245356 0.463442
O O15 0.539752 0.201804 0.201057
O O16 0.750000 0.289863 0.496519
#
# Coordination Sequence:
#
# PCOD9365605 Si02
#       6
#     8   8   8   8   8   8
#     4   9  15  22  32  48  71 100 133 164 198 243
#     4   8  14  24  36  50  71 102 136 165 200 247
#     4   9  15  23  35  52  76 103 131 166 206 248
#     4   8  13  19  28  44  66  93 124 155 188 231
#     4   9  18  30  44  64  87 112 145 181 218 261
#     4   9  17  30  46  62  84 114 145 179 218 258
#
# _framework density 25.780100000000001
#
# number of rings (size 3 to 8) (size 9 to 14) (size 15 to 20)
#    0.000    3.333    0.000    2.000    0.000    5.333 
#    0.000    0.000    0.000    0.000    0.000    0.000 
#    0.000    1.333    0.000   13.667    0.000    7.167 
#
# Total GULP energy -133679.045589 kJ/mol
# GULP energy per Si atom -5569.960233 kJ/mol
# Density = 2.572142 g / cm^3
# Si number density = 25.780100 Si / 1000 Ang^3
#
#
#
# Elastic Constant Matrix: (Units=GPa)
#
#
# Indices 1 2 3 4 5 6 
#
# 1 87.9738 25.6166 6.9528 0.0000 0.0000 0.0000
# 2 25.6166 271.8009 -26.9226 0.0000 0.0000 0.0000
# 3 6.9528 -26.9226 56.5218 0.0000 0.0000 0.0000
# 4 0.0000 0.0000 0.0000 0.4959 0.0000 0.0000
# 5 0.0000 0.0000 0.0000 0.0000 47.9294 0.0000
# 6 0.0000 0.0000 0.0000 0.0000 0.0000 27.0350
#
#
#
# Elastic Compliance Matrix: (Units=1/GPa)
#
#
# Indices 1 2 3 4 5 6 
#
# 1 0.011921 -0.001332 -0.002101 0.000000 0.000000 0.000000
# 2 -0.001332 0.004010 0.002074 0.000000 0.000000 0.000000
# 3 -0.002101 0.002074 0.018939 0.000000 0.000000 0.000000
# 4 0.000000 0.000000 0.000000 2.016454 0.000000 0.000000
# 5 0.000000 0.000000 0.000000 0.000000 0.020864 0.000000
# 6 0.000000 0.000000 0.000000 0.000000 0.000000 0.036989
#
#
# Mechanical properties :
#
#
# Convention : Reuss Voigt Hill
#
# Bulk Modulus (GPa) = 31.10159 47.51004 39.30582
# Shear Modulus (GPa) = 2.35559 42.46871 22.41215
#
# Velocity S-wave (km/s) = 0.95693 4.06315 2.95169
# Velocity P-wave (km/s) = 3.64847 6.36249 5.18616
#
# Compressibility (1/GPa) = 0.03215269
#
# Stress axis : x y z
#
# Youngs Moduli (GPa) = 83.88712 249.37121 52.80243
#
# Poissons Ratio (x) = 0.33206 0.11092
# Poissons Ratio (y) = 0.11170 -0.10951
# Poissons Ratio (z) = 0.17622 -0.51717
#
# Static dielectric constant tensor:
#      x y z
#    x 1.964320 0.000000 0.000000 
#    y 0.000000 3.001600 0.000000 
#    z 0.000000 0.000000 2.069820 
# 
# From -- ./inp_files/10451.got.cif
#   From: 2010.05.17/outbox.cif.g08.bks.cpg/sg40_6_cif.got.tgz:10451.got - 2010.06.03 18:35:42.
