data_PCOD9365820
_publ_section_title
;
Structure prediction by ZEFSAII (Michael W. Deem and Ramdas Pophale) SiO2 
 PCOD9365820
Probable space group: A B A 2
;
_chemical_formula_sum "Si O2"
_cell_formula_units_Z 40
_cell_length_a 9.506755
_cell_length_b 20.690117
_cell_length_c 8.493818
_cell_angle_alpha 90.000000
_cell_angle_beta 90.000000
_cell_angle_gamma 90.000000
_cell_volume 1670.698949
_symmetry_space_group_name_H-M "A B A 2"
_symmetry_group_IT_number 41
_symmetry_cell_setting 'orthorhombic'
loop_
_space_group_symop_operation_xyz
x,y,z
-x,-y,z
1/2-x,y,1/2+z
1/2+x,-y,1/2+z
x,1/2+y,1/2+z
-x,1/2-y,1/2+z
1/2-x,1/2+y,z
1/2+x,1/2-y,z
loop_
_atom_site_type_symbol
_atom_site_label
_atom_site_fract_x
_atom_site_fract_y
_atom_site_fract_z
Si Si1 0.756132 0.574120 0.928990
Si Si2 0.291078 0.016040 0.684069
Si Si3 0.569728 0.414401 0.903396
Si Si4 0.202034 0.284034 0.574273
Si Si5 0.561601 0.762249 0.392952
O O1 0.846307 0.547325 0.781902
O O2 0.591562 0.563259 0.881523
O O3 0.801065 0.522129 0.057051
O O4 0.744291 0.644089 0.011722
O O5 0.389782 0.062565 0.580281
O O6 0.192006 0.058100 0.793719
O O7 0.567645 0.338561 0.866046
O O8 0.348902 0.248562 0.552702
O O9 0.129279 0.276812 0.745558
O O10 0.097910 0.250413 0.447217
#
# Coordination Sequence:
#
# PCOD9365820 Si02
#       5
#     8   8   8   8   8
#     4  10  22  39  58  87 124 158 203 261 314 378
#     4  10  18  36  60  80 114 158 196 242 308 372
#     4  10  22  39  58  87 124 158 203 261 314 378
#     4  11  23  41  64  93 130 171 219 273 333 397
#     4  11  23  41  64  93 130 171 219 273 333 397
#
# _framework density 23.942074999999999
#
# number of rings (size 3 to 8) (size 9 to 14) (size 15 to 20)
#    0.000    1.600    0.000    6.000    0.000    3.200 
#    0.000   20.000    0.000    0.000    0.000    0.000 
#    0.000    0.000    0.000    0.000    0.000    0.000 
#
# Total GULP energy -111339.417624 kJ/mol
# GULP energy per Si atom -5566.970881 kJ/mol
# Density = 2.388758 g / cm^3
# Si number density = 23.942075 Si / 1000 Ang^3
#
#
#
# Elastic Constant Matrix: (Units=GPa)
#
#
# Indices 1 2 3 4 5 6 
#
# 1 71.3946 8.5627 11.7890 0.0000 0.0000 0.0000
# 2 8.5627 48.5348 6.4894 0.0000 0.0000 0.0000
# 3 11.7890 6.4894 112.0333 0.0000 0.0000 0.0000
# 4 0.0000 0.0000 0.0000 32.3144 0.0000 0.0000
# 5 0.0000 0.0000 0.0000 0.0000 29.8390 0.0000
# 6 0.0000 0.0000 0.0000 0.0000 0.0000 24.7120
#
#
#
# Elastic Compliance Matrix: (Units=1/GPa)
#
#
# Indices 1 2 3 4 5 6 
#
# 1 0.014521 -0.002376 -0.001390 0.000000 0.000000 0.000000
# 2 -0.002376 0.021153 -0.000975 0.000000 0.000000 0.000000
# 3 -0.001390 -0.000975 0.009129 0.000000 0.000000 0.000000
# 4 0.000000 0.000000 0.000000 0.030946 0.000000 0.000000
# 5 0.000000 0.000000 0.000000 0.000000 0.033513 0.000000
# 6 0.000000 0.000000 0.000000 0.000000 0.000000 0.040466
#
#
# Mechanical properties :
#
#
# Convention : Reuss Voigt Hill
#
# Bulk Modulus (GPa) = 28.31258 31.73831 30.02545
# Shear Modulus (GPa) = 29.24228 31.04784 30.14506
#
# Velocity S-wave (km/s) = 3.49861 3.60500 3.55221
# Velocity P-wave (km/s) = 5.30768 5.53291 5.42147
#
# Compressibility (1/GPa) = 0.03531998
#
# Stress axis : x y z
#
# Youngs Moduli (GPa) = 68.86473 47.27379 109.54437
#
# Poissons Ratio (x) = 0.11232 0.15231
# Poissons Ratio (y) = 0.16362 0.10684
# Poissons Ratio (z) = 0.09575 0.04610
#
# Static dielectric constant tensor:
#      x y z
#    x 1.904220 0.000000 0.000000 
#    y 0.000000 2.016860 0.000000 
#    z 0.000000 0.000000 2.031670 
# 
# From -- ./inp_files/1707.got.cif
#   From: 2010.05.17/outbox.cif.g08.bks.cpg/sg41_1_cif.got.tgz:1707.got - 2010.06.03 18:54:24.
