data_PCOD9365635
_publ_section_title
;
Structure prediction by ZEFSAII (Michael W. Deem and Ramdas Pophale) SiO2 
 PCOD9365635
Probable space group: A M A 2
;
_chemical_formula_sum "Si O2"
_cell_formula_units_Z 28
_cell_length_a 15.000000
_cell_length_b 12.000000
_cell_length_c 15.000000
_cell_angle_alpha 90.000000
_cell_angle_beta 90.000000
_cell_angle_gamma 90.000000
_cell_volume 2700.000000
_symmetry_space_group_name_H-M "A M A 2"
_symmetry_group_IT_number 40
_symmetry_cell_setting 'orthorhombic'
loop_
_space_group_symop_operation_xyz
x,y,z
-x,-y,z
1/2-x,y,z
1/2+x,-y,z
x,1/2+y,1/2+z
-x,1/2-y,1/2+z
1/2-x,1/2+y,1/2+z
1/2+x,1/2-y,1/2+z
loop_
_atom_site_type_symbol
_atom_site_label
_atom_site_fract_x
_atom_site_fract_y
_atom_site_fract_z
Si Si1 0.969769 0.242687 0.155230
Si Si2 0.856047 0.831075 0.970619
Si Si3 0.649092 0.646056 0.211606
Si Si4 0.502807 0.365253 0.978712
Si Si5 0.356047 0.099387 0.769768
Si Si6 0.356192 0.443941 0.570511
Si Si7 0.152936 0.268144 0.410468
O O1 0.913268 0.298712 0.233262
O O2 0.926317 0.121327 0.134641
O O3 0.074480 0.270290 0.172969
O O4 0.952225 0.322226 0.070033
O O5 0.750000 0.806459 0.977375
O O6 0.915102 0.716816 0.972078
O O7 0.870442 0.895163 0.876243
O O8 0.878010 0.927825 0.043880
O O9 0.750000 0.654271 0.171902
O O10 0.619716 0.515976 0.218507
O O11 0.657454 0.677236 0.314519
O O12 0.500000 0.500000 0.976912
O O13 0.573642 0.320346 0.907475
O O14 0.250000 0.114215 0.754979
O O15 0.250000 0.440262 0.598379
O O16 0.361828 0.367207 0.481491
O O17 0.250000 0.216859 0.431785
#
# Coordination Sequence:
#
# PCOD9365635 Si02
#       7
#     8   8   8   8   8   8   8
#     4  11  22  34  56  93 130 159 196 261 340 383
#     4  10  21  40  68  93 121 167 223 275 321 382
#     4  10  19  34  58  90 126 165 215 266 315 380
#     4  11  24  38  56  88 124 162 212 259 320 391
#     4  10  19  35  63  97 126 162 219 279 321 376
#     4   9  18  37  62  92 123 157 208 268 326 383
#     4   9  18  35  60  85 116 161 210 260 313 375
#
# _framework density 10.370369999999999
#
# number of rings (size 3 to 8) (size 9 to 14) (size 15 to 20)
#    0.000    2.000    1.429    2.571    0.000    4.000 
#    0.000    0.000   12.571    0.857    0.000    0.000 
#    0.000    0.000    0.000    0.000    0.000    0.000 
#
# Total GULP energy -156050.096697 kJ/mol
# GULP energy per Si atom -5573.217739 kJ/mol
# Density = 1.034677 g / cm^3
# Si number density = 10.370370 Si / 1000 Ang^3
#
#
#
# Elastic Constant Matrix: (Units=GPa)
#
#
# Indices 1 2 3 4 5 6 
#
# 1 118.0113 81.2164 24.3878 0.0000 0.0000 0.0000
# 2 81.2164 156.0899 14.5081 0.0000 0.0000 0.0000
# 3 24.3878 14.5081 44.5826 0.0000 0.0000 0.0000
# 4 0.0000 0.0000 0.0000 35.0499 0.0000 0.0000
# 5 0.0000 0.0000 0.0000 0.0000 32.1939 0.0000
# 6 0.0000 0.0000 0.0000 0.0000 0.0000 25.2334
#
#
#
# Elastic Compliance Matrix: (Units=1/GPa)
#
#
# Indices 1 2 3 4 5 6 
#
# 1 0.014452 -0.006996 -0.005629 0.000000 0.000000 0.000000
# 2 -0.006996 0.009993 0.000575 0.000000 0.000000 0.000000
# 3 -0.005629 0.000575 0.025322 0.000000 0.000000 0.000000
# 4 0.000000 0.000000 0.000000 0.028531 0.000000 0.000000
# 5 0.000000 0.000000 0.000000 0.000000 0.031062 0.000000
# 6 0.000000 0.000000 0.000000 0.000000 0.000000 0.039630
#
#
# Mechanical properties :
#
#
# Convention : Reuss Voigt Hill
#
# Bulk Modulus (GPa) = 38.95983 62.10093 50.53038
# Shear Modulus (GPa) = 27.52600 31.73354 29.62977
#
# Velocity S-wave (km/s) = 3.64695 3.91578 3.78375
# Velocity P-wave (km/s) = 6.04638 7.10288 6.59582
#
# Compressibility (1/GPa) = 0.02566746
#
# Stress axis : x y z
#
# Youngs Moduli (GPa) = 69.19438 100.06507 39.49100
#
# Poissons Ratio (x) = 0.70010 0.22229
# Poissons Ratio (y) = 0.48412 -0.02271
# Poissons Ratio (z) = 0.38948 -0.05755
#
# Static dielectric constant tensor:
#      x y z
#    x 1.816290 0.000000 0.000000 
#    y 0.000000 1.736030 0.000000 
#    z 0.000000 0.000000 1.801230 
# 
# From -- ./inp_files/17067.got.cif
#   From: 2010.05.17/outbox.ucp.g08.bks.cvg/sg40_9_cif.got.tgz:17067.got - 2010.06.11 16:26:39.
