data_PCOD9365823
_publ_section_title
;
Structure prediction by ZEFSAII (Michael W. Deem and Ramdas Pophale) SiO2 
 PCOD9365823
Probable space group: A B A 2
;
_chemical_formula_sum "Si O2"
_cell_formula_units_Z 48
_cell_length_a 10.305677
_cell_length_b 25.789585
_cell_length_c 8.595587
_cell_angle_alpha 90.000000
_cell_angle_beta 90.000000
_cell_angle_gamma 90.000000
_cell_volume 2284.527660
_symmetry_space_group_name_H-M "A B A 2"
_symmetry_group_IT_number 41
_symmetry_cell_setting 'orthorhombic'
loop_
_space_group_symop_operation_xyz
x,y,z
-x,-y,z
1/2-x,y,1/2+z
1/2+x,-y,1/2+z
x,1/2+y,1/2+z
-x,1/2-y,1/2+z
1/2-x,1/2+y,z
1/2+x,1/2-y,z
loop_
_atom_site_type_symbol
_atom_site_label
_atom_site_fract_x
_atom_site_fract_y
_atom_site_fract_z
Si Si1 0.878858 0.760301 0.251870
Si Si2 0.137813 0.492022 0.122166
Si Si3 0.109488 0.456410 0.790853
Si Si4 0.212937 0.601997 0.974620
Si Si5 0.109323 0.209128 0.604562
Si Si6 0.063873 0.626041 0.662170
O O1 0.889935 0.763244 0.436816
O O2 0.727881 0.765791 0.203326
O O3 0.944243 0.812721 0.182304
O O4 0.969393 0.715329 0.183826
O O5 0.251772 0.474315 0.231947
O O6 0.177666 0.546096 0.041021
O O7 0.000000 0.500000 0.204310
O O8 0.114436 0.452793 0.977694
O O9 0.000000 0.500000 0.754745
O O10 0.065159 0.404738 0.703047
O O11 0.144829 0.649473 0.066490
O O12 0.365828 0.611567 0.001610
O O13 0.163379 0.607045 0.798757
#
# Coordination Sequence:
#
# PCOD9365823 Si02
#       6
#     8   8   8   8   8   8
#     4  10  21  39  62  87 118 154 198 246 298 350
#     4  11  21  37  58  84 119 151 192 235 286 337
#     4  11  21  38  59  82 119 149 194 237 280 339
#     4  10  18  36  61  84 112 153 189 235 287 347
#     4  10  21  37  62  86 117 151 198 243 298 350
#     4  10  20  38  60  86 115 154 195 239 287 346
#
# _framework density 21.010908000000001
#
# number of rings (size 3 to 8) (size 9 to 14) (size 15 to 20)
#    0.000    1.667    5.000    1.000    0.000    2.000 
#    6.000    1.667    0.000    0.000    0.000    0.000 
#    0.000    0.000    0.000    0.000    0.000    0.000 
#
# Total GULP energy -134051.122724 kJ/mol
# GULP energy per Si atom -5585.463447 kJ/mol
# Density = 2.096309 g / cm^3
# Si number density = 21.010908 Si / 1000 Ang^3
#
#
#
# Elastic Constant Matrix: (Units=GPa)
#
#
# Indices 1 2 3 4 5 6 
#
# 1 102.1040 1.8776 15.9122 0.0000 0.0000 0.0000
# 2 1.8776 25.7675 -6.1816 0.0000 0.0000 0.0000
# 3 15.9122 -6.1816 33.5696 0.0000 0.0000 0.0000
# 4 0.0000 0.0000 0.0000 12.2745 0.0000 0.0000
# 5 0.0000 0.0000 0.0000 0.0000 39.2310 0.0000
# 6 0.0000 0.0000 0.0000 0.0000 0.0000 29.8416
#
#
#
# Elastic Compliance Matrix: (Units=1/GPa)
#
#
# Indices 1 2 3 4 5 6 
#
# 1 0.010681 -0.002085 -0.005447 0.000000 0.000000 0.000000
# 2 -0.002085 0.041009 0.008540 0.000000 0.000000 0.000000
# 3 -0.005447 0.008540 0.033943 0.000000 0.000000 0.000000
# 4 0.000000 0.000000 0.000000 0.081470 0.000000 0.000000
# 5 0.000000 0.000000 0.000000 0.000000 0.025490 0.000000
# 6 0.000000 0.000000 0.000000 0.000000 0.000000 0.033510
#
#
# Mechanical properties :
#
#
# Convention : Reuss Voigt Hill
#
# Bulk Modulus (GPa) = 11.40907 20.51749 15.96328
# Shear Modulus (GPa) = 19.73910 26.25828 22.99869
#
# Velocity S-wave (km/s) = 3.06840 3.53901 3.31207
# Velocity P-wave (km/s) = 4.24209 5.14644 4.71599
#
# Compressibility (1/GPa) = 0.08764957
#
# Stress axis : x y z
#
# Youngs Moduli (GPa) = 93.62311 24.38476 29.46094
#
# Poissons Ratio (x) = 0.05084 0.16047
# Poissons Ratio (y) = 0.19520 -0.25159
# Poissons Ratio (z) = 0.50995 -0.20824
#
# Static dielectric constant tensor:
#      x y z
#    x 1.771600 0.000000 0.000000 
#    y 0.000000 1.771120 0.000000 
#    z 0.000000 0.000000 1.775150 
# 
# From -- ./inp_files/1782.got.cif
#   From: 2010.05.17/outbox.cif.g08.bks.cpg/sg41_1_cif.got.tgz:1782.got - 2010.06.03 18:54:24.
