data_PCOD9365553
_publ_section_title
;
Structure prediction by ZEFSAII (Michael W. Deem and Ramdas Pophale) SiO2 
 PCOD9365553
Probable space group: A M A 2
;
_chemical_formula_sum "Si O2"
_cell_formula_units_Z 32
_cell_length_a 27.337179
_cell_length_b 8.232941
_cell_length_c 5.427560
_cell_angle_alpha 90.000000
_cell_angle_beta 90.000000
_cell_angle_gamma 90.000000
_cell_volume 1221.555864
_symmetry_space_group_name_H-M "A M A 2"
_symmetry_group_IT_number 40
_symmetry_cell_setting 'orthorhombic'
loop_
_space_group_symop_operation_xyz
x,y,z
-x,-y,z
1/2-x,y,z
1/2+x,-y,z
x,1/2+y,1/2+z
-x,1/2-y,1/2+z
1/2-x,1/2+y,1/2+z
1/2+x,1/2-y,1/2+z
loop_
_atom_site_type_symbol
_atom_site_label
_atom_site_fract_x
_atom_site_fract_y
_atom_site_fract_z
Si Si1 0.250000 0.281687 0.339540
Si Si2 0.029374 0.777845 0.949341
Si Si3 0.096698 0.017787 0.213646
Si Si4 0.163267 0.758247 0.459826
Si Si5 0.750000 0.580529 0.754368
O O1 0.250000 0.084898 0.399633
O O2 0.199735 0.293473 0.184608
O O3 0.250000 0.460152 0.469234
O O4 0.053704 0.942040 0.049350
O O5 0.999446 0.712120 0.188552
O O6 0.074039 0.657550 0.883756
O O7 0.120516 0.883968 0.391184
O O8 0.136674 0.092804 0.029110
O O9 0.203379 0.798934 0.251817
#
# Coordination Sequence:
#
# PCOD9365553 Si02
#       5
#     4   8   8   8   4
#     4  11  26  48  75 109 167 204 256 317 388 461
#     4  12  31  58  83 119 162 211 265 344 423 480
#     4  12  29  49  86 114 156 204 272 325 393 494
#     4  11  27  50  75 120 154 210 259 322 387 465
#     4  11  26  48  75 109 167 204 256 317 388 461
#
# _framework density 26.196102
#
# number of rings (size 3 to 8) (size 9 to 14) (size 15 to 20)
#    0.000    0.500    2.500    2.250    3.500   22.000 
#    0.000    0.000    0.000    0.000    0.000    0.000 
#    0.000    0.000    0.000    0.000    0.000    0.000 
#
# Total GULP energy -89286.558180 kJ/mol
# GULP energy per Si atom -5580.409886 kJ/mol
# Density = 2.613648 g / cm^3
# Si number density = 26.196102 Si / 1000 Ang^3
#
#
#
# Elastic Constant Matrix: (Units=GPa)
#
#
# Indices 1 2 3 4 5 6 
#
# 1 115.7868 27.4378 18.9903 0.0000 0.0000 0.0000
# 2 27.4378 99.1130 53.1693 0.0000 0.0000 0.0000
# 3 18.9903 53.1693 74.9491 0.0000 0.0000 0.0000
# 4 0.0000 0.0000 0.0000 45.3065 0.0000 0.0000
# 5 0.0000 0.0000 0.0000 0.0000 32.0603 0.0000
# 6 0.0000 0.0000 0.0000 0.0000 0.0000 66.2991
#
#
#
# Elastic Compliance Matrix: (Units=1/GPa)
#
#
# Indices 1 2 3 4 5 6 
#
# 1 0.009277 -0.002110 -0.000853 0.000000 0.000000 0.000000
# 2 -0.002110 0.016768 -0.011361 0.000000 0.000000 0.000000
# 3 -0.000853 -0.011361 0.021618 0.000000 0.000000 0.000000
# 4 0.000000 0.000000 0.000000 0.022072 0.000000 0.000000
# 5 0.000000 0.000000 0.000000 0.000000 0.031191 0.000000
# 6 0.000000 0.000000 0.000000 0.000000 0.000000 0.015083
#
#
# Mechanical properties :
#
#
# Convention : Reuss Voigt Hill
#
# Bulk Modulus (GPa) = 52.59311 54.33820 53.46566
# Shear Modulus (GPa) = 33.11350 41.41663 37.26507
#
# Velocity S-wave (km/s) = 3.55922 3.98052 3.77575
# Velocity P-wave (km/s) = 6.08367 6.47410 6.28192
#
# Compressibility (1/GPa) = 0.01901390
#
# Stress axis : x y z
#
# Youngs Moduli (GPa) = 107.79817 59.63682 46.25774
#
# Poissons Ratio (x) = 0.12585 0.03948
# Poissons Ratio (y) = 0.22748 0.52552
# Poissons Ratio (z) = 0.09200 0.67752
#
# Static dielectric constant tensor:
#      x y z
#    x 1.763750 0.000000 0.000000 
#    y 0.000000 2.033030 0.000000 
#    z 0.000000 0.000000 2.290100 
# 
# From -- ./inp_files/3275.got.cif
#   From: 2010.05.17/outbox.cif.g08.bks.cpg/sg40_2_cif.got.tgz:3275.got - 2010.06.03 18:35:42.
