data_PCOD9365529
_publ_section_title
;
Structure prediction by ZEFSAII (Michael W. Deem and Ramdas Pophale) SiO2 
 PCOD9365529
Probable space group: A M A 2
;
_chemical_formula_sum "Si O2"
_cell_formula_units_Z 28
_cell_length_a 13.868672
_cell_length_b 12.030826
_cell_length_c 8.022430
_cell_angle_alpha 90.000000
_cell_angle_beta 90.000000
_cell_angle_gamma 90.000000
_cell_volume 1338.555118
_symmetry_space_group_name_H-M "A M A 2"
_symmetry_group_IT_number 40
_symmetry_cell_setting 'orthorhombic'
loop_
_space_group_symop_operation_xyz
x,y,z
-x,-y,z
1/2-x,y,z
1/2+x,-y,z
x,1/2+y,1/2+z
-x,1/2-y,1/2+z
1/2-x,1/2+y,1/2+z
1/2+x,1/2-y,1/2+z
loop_
_atom_site_type_symbol
_atom_site_label
_atom_site_fract_x
_atom_site_fract_y
_atom_site_fract_z
Si Si1 0.500000 0.000000 0.821460
Si Si2 0.362321 0.069468 0.526574
Si Si3 0.363949 0.826446 0.383434
Si Si4 0.965881 0.216099 0.030996
O O1 0.417292 0.045704 0.699342
O O2 0.538208 0.101250 0.932175
O O3 0.250000 0.087043 0.555023
O O4 0.408777 0.179935 0.449940
O O5 0.374985 0.957700 0.419681
O O6 0.250000 0.800594 0.380724
O O7 0.415961 0.799030 0.209556
O O8 0.423446 0.758730 0.523801
#
# Coordination Sequence:
#
# PCOD9365529 Si02
#       4
#     4   8   8   8
#     4  12  26  40  74 100 140 182 230 284 348 404
#     4  11  24  46  70  98 138 182 232 288 346 410
#     4  11  24  45  73 102 136 184 233 283 349 412
#     4  12  24  43  72 102 143 178 230 290 341 414
#
# _framework density 20.918075999999999
#
# number of rings (size 3 to 8) (size 9 to 14) (size 15 to 20)
#    0.000    0.571    5.714    0.857    4.000    2.286 
#    0.000    2.857    0.000    0.000    0.000    0.000 
#    0.000    0.000    0.000    0.000    0.000    0.000 
#
# Total GULP energy -78275.871508 kJ/mol
# GULP energy per Si atom -5591.133679 kJ/mol
# Density = 2.087047 g / cm^3
# Si number density = 20.918076 Si / 1000 Ang^3
#
#
#
# Elastic Constant Matrix: (Units=GPa)
#
#
# Indices 1 2 3 4 5 6 
#
# 1 174.0523 71.7114 72.2465 0.0000 0.0000 0.0000
# 2 71.7114 165.6575 49.1075 0.0000 0.0000 0.0000
# 3 72.2465 49.1075 72.5824 0.0000 0.0000 0.0000
# 4 0.0000 0.0000 0.0000 31.9633 0.0000 0.0000
# 5 0.0000 0.0000 0.0000 0.0000 17.3343 0.0000
# 6 0.0000 0.0000 0.0000 0.0000 0.0000 26.3654
#
#
#
# Elastic Compliance Matrix: (Units=1/GPa)
#
#
# Indices 1 2 3 4 5 6 
#
# 1 0.010183 -0.001756 -0.008948 0.000000 0.000000 0.000000
# 2 -0.001756 0.007854 -0.003566 0.000000 0.000000 0.000000
# 3 -0.008948 -0.003566 0.025097 0.000000 0.000000 0.000000
# 4 0.000000 0.000000 0.000000 0.031286 0.000000 0.000000
# 5 0.000000 0.000000 0.000000 0.000000 0.057689 0.000000
# 6 0.000000 0.000000 0.000000 0.000000 0.000000 0.037928
#
#
# Mechanical properties :
#
#
# Convention : Reuss Voigt Hill
#
# Bulk Modulus (GPa) = 68.52164 88.71365 78.61765
# Shear Modulus (GPa) = 24.57715 29.74773 27.16244
#
# Velocity S-wave (km/s) = 3.43144 3.77517 3.60740
# Velocity P-wave (km/s) = 6.96620 7.84249 7.41730
#
# Compressibility (1/GPa) = 0.01459393
#
# Stress axis : x y z
#
# Youngs Moduli (GPa) = 98.20408 127.32912 39.84560
#
# Poissons Ratio (x) = 0.22353 0.35654
# Poissons Ratio (y) = 0.17240 0.14210
# Poissons Ratio (z) = 0.87873 0.45408
#
# Static dielectric constant tensor:
#      x y z
#    x 1.748780 0.000000 0.000000 
#    y 0.000000 1.780310 0.000000 
#    z 0.000000 0.000000 1.756780 
# 
# From -- ./inp_files/5828.got.cif
#   From: 2010.05.17/outbox.cif.g08.bks.cpg/sg40_3_cif.got.tgz:5828.got - 2010.06.03 18:35:42.
