data_PCOD9365631
_publ_section_title
;
Structure prediction by ZEFSAII (Michael W. Deem and Ramdas Pophale) SiO2 
 PCOD9365631
Probable space group: A M A 2
;
_chemical_formula_sum "Si O2"
_cell_formula_units_Z 32
_cell_length_a 9.000000
_cell_length_b 18.000000
_cell_length_c 21.000000
_cell_angle_alpha 90.000000
_cell_angle_beta 90.000000
_cell_angle_gamma 90.000000
_cell_volume 3402.000000
_symmetry_space_group_name_H-M "A M A 2"
_symmetry_group_IT_number 40
_symmetry_cell_setting 'orthorhombic'
loop_
_space_group_symop_operation_xyz
x,y,z
-x,-y,z
1/2-x,y,z
1/2+x,-y,z
x,1/2+y,1/2+z
-x,1/2-y,1/2+z
1/2-x,1/2+y,1/2+z
1/2+x,1/2-y,1/2+z
loop_
_atom_site_type_symbol
_atom_site_label
_atom_site_fract_x
_atom_site_fract_y
_atom_site_fract_z
Si Si1 0.927785 0.925004 0.635320
Si Si2 0.574073 0.320828 0.894854
Si Si3 0.923678 0.074982 0.021394
Si Si4 0.083583 0.867141 0.160297
Si Si5 0.927371 0.072474 0.495228
Si Si6 0.422573 0.922932 0.300110
Si Si7 0.574907 0.722577 0.124453
Si Si8 0.925815 0.776823 0.981127
O O1 0.750000 0.930293 0.635271
O O2 0.993081 0.923057 0.563326
O O3 0.985351 0.844605 0.657380
O O4 0.000000 0.000000 0.664307
O O5 0.750000 0.331604 0.900261
O O6 0.479563 0.364231 0.948426
O O7 0.511429 0.354138 0.830201
O O8 0.523231 0.240706 0.918343
O O9 0.750000 0.082537 0.003115
O O10 0.928346 0.082293 0.098176
O O11 0.000000 0.000000 0.000296
O O12 0.028256 0.140264 0.997551
O O13 0.250000 0.832724 0.158198
O O14 0.072026 0.913172 0.224484
O O15 0.966675 0.800562 0.156316
O O16 0.250000 0.931321 0.502357
O O17 0.000000 0.000000 0.464641
O O18 0.250000 0.922186 0.321084
O O19 0.500000 0.000000 0.317979
O O20 0.750000 0.706595 0.127425
O O21 0.537558 0.734892 0.048936
O O22 0.750000 0.766797 0.970150
#
# Coordination Sequence:
#
# PCOD9365631 Si02
#       8
#     8   8   8   8   8   8   8   8
#     4  11  20  30  46  69 101 135 171 212 258 312
#     4  12  23  35  51  72 101 139 178 220 264 313
#     4  10  19  33  54  81 110 139 174 216 268 323
#     4   9  20  36  55  77 105 141 181 224 270 316
#     4  11  20  31  45  65  94 131 172 210 252 302
#     4  11  23  39  56  77 107 144 186 229 266 313
#     4  10  19  32  52  76 104 136 175 220 269 322
#     4  10  20  34  52  75 104 137 174 217 265 321
#
# _framework density 9.4062319999999993
#
# number of rings (size 3 to 8) (size 9 to 14) (size 15 to 20)
#    0.000    1.500    1.250    6.375    0.000    2.500 
#    0.000    0.000    0.000    0.000    0.000    0.875 
#    0.000    6.000    0.000    0.000    0.000    0.000 
#
# Total GULP energy -178279.629728 kJ/mol
# GULP energy per Si atom -5571.238429 kJ/mol
# Density = 0.938482 g / cm^3
# Si number density = 9.406232 Si / 1000 Ang^3
#
#
#
# Elastic Constant Matrix: (Units=GPa)
#
#
# Indices 1 2 3 4 5 6 
#
# 1 132.3498 33.0669 9.0491 0.0000 0.0000 0.0000
# 2 33.0669 71.1000 -2.5251 0.0000 0.0000 0.0000
# 3 9.0491 -2.5251 30.6725 0.0000 0.0000 0.0000
# 4 0.0000 0.0000 0.0000 4.3033 0.0000 0.0000
# 5 0.0000 0.0000 0.0000 0.0000 20.9049 0.0000
# 6 0.0000 0.0000 0.0000 0.0000 0.0000 32.0863
#
#
#
# Elastic Compliance Matrix: (Units=1/GPa)
#
#
# Indices 1 2 3 4 5 6 
#
# 1 0.008806 -0.004200 -0.002944 0.000000 0.000000 0.000000
# 2 -0.004200 0.016109 0.002565 0.000000 0.000000 0.000000
# 3 -0.002944 0.002565 0.033682 0.000000 0.000000 0.000000
# 4 0.000000 0.000000 0.000000 0.232378 0.000000 0.000000
# 5 0.000000 0.000000 0.000000 0.000000 0.047836 0.000000
# 6 0.000000 0.000000 0.000000 0.000000 0.000000 0.031166
#
#
# Mechanical properties :
#
#
# Convention : Reuss Voigt Hill
#
# Bulk Modulus (GPa) = 20.22638 34.81156 27.51897
# Shear Modulus (GPa) = 12.63856 24.42767 18.53312
#
# Velocity S-wave (km/s) = 2.59476 3.60736 3.14212
# Velocity P-wave (km/s) = 4.44432 5.99128 5.27481
#
# Compressibility (1/GPa) = 0.04944039
#
# Stress axis : x y z
#
# Youngs Moduli (GPa) = 113.55353 62.07620 29.68927
#
# Poissons Ratio (x) = 0.26073 0.08740
# Poissons Ratio (y) = 0.47695 -0.07616
# Poissons Ratio (z) = 0.33429 -0.15925
#
# Static dielectric constant tensor:
#      x y z
#    x 1.646560 0.000000 0.000000 
#    y 0.000000 1.795390 0.000000 
#    z 0.000000 0.000000 1.672800 
# 
# From -- ./inp_files/22412.got.cif
#   From: 2010.05.17/outbox.ucp.g08.bks.cvg/sg40_12_cif.got.tgz:22412.got - 2010.06.11 16:26:39.
