data_PCOD9365284
_publ_section_title
;
Structure prediction by ZEFSAII (Michael W. Deem and Ramdas Pophale) SiO2 
 PCOD9365284
Probable space group: A M A 2
;
_chemical_formula_sum "Si O2"
_cell_formula_units_Z 40
_cell_length_a 8.947533
_cell_length_b 17.181651
_cell_length_c 12.931804
_cell_angle_alpha 90.000000
_cell_angle_beta 90.000000
_cell_angle_gamma 90.000000
_cell_volume 1988.050059
_symmetry_space_group_name_H-M "A M A 2"
_symmetry_group_IT_number 40
_symmetry_cell_setting 'orthorhombic'
loop_
_space_group_symop_operation_xyz
x,y,z
-x,-y,z
1/2-x,y,z
1/2+x,-y,z
x,1/2+y,1/2+z
-x,1/2-y,1/2+z
1/2-x,1/2+y,1/2+z
1/2+x,1/2-y,1/2+z
loop_
_atom_site_type_symbol
_atom_site_label
_atom_site_fract_x
_atom_site_fract_y
_atom_site_fract_z
Si Si1 0.422533 0.660206 0.270160
Si Si2 0.426503 0.415100 0.464122
Si Si3 0.928855 0.087546 0.567958
Si Si4 0.076332 0.083728 0.161194
Si Si5 0.581219 0.160186 0.341619
O O1 0.250000 0.632176 0.273218
O O2 0.523367 0.620909 0.357235
O O3 0.492601 0.636470 0.159916
O O4 0.419429 0.749891 0.307105
O O5 0.500000 0.500000 0.464607
O O6 0.250000 0.418976 0.474248
O O7 0.496233 0.373416 0.565024
O O8 0.750000 0.080246 0.587304
O O9 0.946158 0.135348 0.460169
O O10 0.000000 0.000000 0.561416
O O11 0.250000 0.077021 0.138685
O O12 0.043434 0.123132 0.269402
O O13 0.000000 0.000000 0.170003
O O14 0.750000 0.130236 0.316327
#
# Coordination Sequence:
#
# PCOD9365284 Si02
#       5
#     8   8   8   8   8
#     4  11  24  42  64  94 130 168 211 265 324 383
#     4  11  22  39  63  91 124 164 209 257 314 376
#     4  11  24  44  68  96 130 174 222 270 324 390
#     4  11  22  38  63  92 125 163 208 257 314 376
#     4  10  24  43  64  93 130 167 211 265 322 383
#
# _framework density 20.120217
#
# number of rings (size 3 to 8) (size 9 to 14) (size 15 to 20)
#    0.000    1.200    0.000    7.200    2.800    4.800 
#    0.000    0.000    0.000    0.000    0.000    0.000 
#    0.000    0.000    0.000    0.000    0.000    0.000 
#
# Total GULP energy -111632.513056 kJ/mol
# GULP energy per Si atom -5581.625653 kJ/mol
# Density = 2.007442 g / cm^3
# Si number density = 20.120217 Si / 1000 Ang^3
#
#
#
# Elastic Constant Matrix: (Units=GPa)
#
#
# Indices 1 2 3 4 5 6 
#
# 1 193.3363 35.9376 78.2212 0.0000 0.0000 0.0000
# 2 35.9376 61.3630 37.7066 0.0000 0.0000 0.0000
# 3 78.2212 37.7066 146.5713 0.0000 0.0000 0.0000
# 4 0.0000 0.0000 0.0000 27.0940 0.0000 0.0000
# 5 0.0000 0.0000 0.0000 0.0000 39.4787 0.0000
# 6 0.0000 0.0000 0.0000 0.0000 0.0000 19.4223
#
#
#
# Elastic Compliance Matrix: (Units=1/GPa)
#
#
# Indices 1 2 3 4 5 6 
#
# 1 0.006814 -0.002086 -0.003100 0.000000 0.000000 0.000000
# 2 -0.002086 0.019995 -0.004031 0.000000 0.000000 0.000000
# 3 -0.003100 -0.004031 0.009514 0.000000 0.000000 0.000000
# 4 0.000000 0.000000 0.000000 0.036909 0.000000 0.000000
# 5 0.000000 0.000000 0.000000 0.000000 0.025330 0.000000
# 6 0.000000 0.000000 0.000000 0.000000 0.000000 0.051487
#
#
# Mechanical properties :
#
#
# Convention : Reuss Voigt Hill
#
# Bulk Modulus (GPa) = 55.89723 78.33349 67.11536
# Shear Modulus (GPa) = 28.66227 33.82601 31.24414
#
# Velocity S-wave (km/s) = 3.77842 4.10469 3.94493
# Velocity P-wave (km/s) = 6.84669 7.84104 7.36067
#
# Compressibility (1/GPa) = 0.01788997
#
# Stress axis : x y z
#
# Youngs Moduli (GPa) = 146.75065 50.01284 105.10934
#
# Poissons Ratio (x) = 0.10432 0.32584
# Poissons Ratio (y) = 0.30611 0.42366
# Poissons Ratio (z) = 0.45492 0.20158
#
# Static dielectric constant tensor:
#      x y z
#    x 1.696670 0.000000 0.000000 
#    y 0.000000 2.230900 0.000000 
#    z 0.000000 0.000000 1.797040 
# 
# From -- ./inp_files/9999.got.cif
#   From: 2010.05.17/outbox.cif.g08.bks.cpg/sg40_5_cif.got.tgz:9999.got - 2010.06.03 18:35:42.
