data_PCOD9365621
_publ_section_title
;
Structure prediction by ZEFSAII (Michael W. Deem and Ramdas Pophale) SiO2 
 PCOD9365621
Probable space group: A M A 2
;
_chemical_formula_sum "Si O2"
_cell_formula_units_Z 24
_cell_length_a 15.000000
_cell_length_b 9.000000
_cell_length_c 18.000000
_cell_angle_alpha 90.000000
_cell_angle_beta 90.000000
_cell_angle_gamma 90.000000
_cell_volume 2430.000000
_symmetry_space_group_name_H-M "A M A 2"
_symmetry_group_IT_number 40
_symmetry_cell_setting 'orthorhombic'
loop_
_space_group_symop_operation_xyz
x,y,z
-x,-y,z
1/2-x,y,z
1/2+x,-y,z
x,1/2+y,1/2+z
-x,1/2-y,1/2+z
1/2-x,1/2+y,1/2+z
1/2+x,1/2-y,1/2+z
loop_
_atom_site_type_symbol
_atom_site_label
_atom_site_fract_x
_atom_site_fract_y
_atom_site_fract_z
Si Si1 0.847436 0.635001 0.592180
Si Si2 0.049312 0.342232 0.231491
Si Si3 0.644877 0.826337 0.352352
Si Si4 0.856128 0.780902 0.078390
Si Si5 0.083136 0.407599 0.746242
Si Si6 0.016921 0.672457 0.997141
O O1 0.750000 0.682675 0.564905
O O2 0.859300 0.459950 0.577334
O O3 0.851228 0.638778 0.681337
O O4 0.923115 0.737239 0.556567
O O5 0.124501 0.308314 0.294206
O O6 0.094783 0.285482 0.153282
O O7 0.000000 0.500000 0.220944
O O8 0.969433 0.240751 0.266417
O O9 0.750000 0.825494 0.373183
O O10 0.574907 0.817328 0.421004
O O11 0.623476 0.981527 0.307530
O O12 0.750000 0.738769 0.077413
O O13 0.916433 0.734933 0.007506
O O14 0.000000 0.500000 0.711039
O O15 0.000000 0.500000 0.014104
#
# Coordination Sequence:
#
# PCOD9365621 Si02
#       6
#     8   8   8   8   8   8
#     4  11  21  38  67  97 129 176 234 280 332 414
#     4  11  22  40  66 103 139 179 222 289 355 404
#     4  11  24  45  70  97 138 190 236 282 348 424
#     4  11  23  41  67  97 133 179 235 287 342 412
#     4  10  18  37  66  94 130 181 227 273 336 409
#     4  12  25  43  63 100 142 181 222 292 363 402
#
# _framework density 9.8765429999999999
#
# number of rings (size 3 to 8) (size 9 to 14) (size 15 to 20)
#    0.000    1.000    5.000    4.000    0.000    2.667 
#    0.000    2.500    0.000    1.000    0.000    0.000 
#    0.000    0.000    0.000    0.000    0.000    0.000 
#
# Total GULP energy -133664.524423 kJ/mol
# GULP energy per Si atom -5569.355184 kJ/mol
# Density = 0.985406 g / cm^3
# Si number density = 9.876543 Si / 1000 Ang^3
#
#
#
# Elastic Constant Matrix: (Units=GPa)
#
#
# Indices 1 2 3 4 5 6 
#
# 1 163.7459 58.9168 56.9969 0.0000 0.0000 0.0000
# 2 58.9168 78.7380 29.0852 0.0000 0.0000 0.0000
# 3 56.9969 29.0852 107.5174 0.0000 0.0000 0.0000
# 4 0.0000 0.0000 0.0000 26.4945 0.0000 0.0000
# 5 0.0000 0.0000 0.0000 0.0000 30.3967 0.0000
# 6 0.0000 0.0000 0.0000 0.0000 0.0000 25.3824
#
#
#
# Elastic Compliance Matrix: (Units=1/GPa)
#
#
# Indices 1 2 3 4 5 6 
#
# 1 0.009360 -0.005745 -0.003408 0.000000 0.000000 0.000000
# 2 -0.005745 0.017637 -0.001725 0.000000 0.000000 0.000000
# 3 -0.003408 -0.001725 0.011574 0.000000 0.000000 0.000000
# 4 0.000000 0.000000 0.000000 0.037744 0.000000 0.000000
# 5 0.000000 0.000000 0.000000 0.000000 0.032898 0.000000
# 6 0.000000 0.000000 0.000000 0.000000 0.000000 0.039397
#
#
# Mechanical properties :
#
#
# Convention : Reuss Voigt Hill
#
# Bulk Modulus (GPa) = 59.47361 71.11102 65.29231
# Shear Modulus (GPa) = 28.41355 30.12153 29.26754
#
# Velocity S-wave (km/s) = 3.79679 3.90924 3.85342
# Velocity P-wave (km/s) = 7.02813 7.51361 7.27492
#
# Compressibility (1/GPa) = 0.01681418
#
# Stress axis : x y z
#
# Youngs Moduli (GPa) = 106.83275 56.70027 86.39915
#
# Poissons Ratio (x) = 0.32575 0.29445
# Poissons Ratio (y) = 0.61377 0.14907
# Poissons Ratio (z) = 0.36408 0.09783
#
# Static dielectric constant tensor:
#      x y z
#    x 1.745600 0.000000 0.000000 
#    y 0.000000 1.743930 0.000000 
#    z 0.000000 0.000000 1.742050 
# 
# From -- ./inp_files/20561.got.cif
#   From: 2010.05.17/outbox.ucp.g08.bks.cvg/sg40_11_cif.got.tgz:20561.got - 2010.06.11 16:26:39.
