data_PCOD9365351
_publ_section_title
;
Structure prediction by ZEFSAII (Michael W. Deem and Ramdas Pophale) SiO2 
 PCOD9365351
Probable space group: A M A 2
;
_chemical_formula_sum "Si O2"
_cell_formula_units_Z 48
_cell_length_a 12.779332
_cell_length_b 12.412919
_cell_length_c 12.092633
_cell_angle_alpha 90.000000
_cell_angle_beta 90.000000
_cell_angle_gamma 90.000000
_cell_volume 1918.240019
_symmetry_space_group_name_H-M "A M A 2"
_symmetry_group_IT_number 40
_symmetry_cell_setting 'orthorhombic'
loop_
_space_group_symop_operation_xyz
x,y,z
-x,-y,z
1/2-x,y,z
1/2+x,-y,z
x,1/2+y,1/2+z
-x,1/2-y,1/2+z
1/2-x,1/2+y,1/2+z
1/2+x,1/2-y,1/2+z
loop_
_atom_site_type_symbol
_atom_site_label
_atom_site_fract_x
_atom_site_fract_y
_atom_site_fract_z
Si Si1 0.750000 0.204129 0.576951
Si Si2 0.974753 0.333216 0.814683
Si Si3 0.527559 0.644493 0.041297
Si Si4 0.127567 0.143887 0.729608
Si Si5 0.975143 0.112568 0.084531
Si Si6 0.250000 0.094845 0.921075
Si Si7 0.250000 0.147443 0.292659
Si Si8 0.750000 0.048702 0.139979
O O1 0.644568 0.135994 0.585957
O O2 0.750000 0.280259 0.466052
O O3 0.750000 0.283364 0.680507
O O4 0.855610 0.317588 0.854597
O O5 0.047152 0.234058 0.776399
O O6 0.958913 0.393706 0.698470
O O7 0.029926 0.392070 0.915169
O O8 0.436181 0.603302 0.122317
O O9 0.506865 0.774920 0.030843
O O10 0.250000 0.174734 0.702203
O O11 0.152611 0.073252 0.838789
O O12 0.855600 0.115380 0.123826
O O13 0.000000 0.000000 0.025710
O O14 0.250000 0.027646 0.031712
O O15 0.250000 0.022328 0.252364
#
# Coordination Sequence:
#
# PCOD9365351 Si02
#       8
#     4   8   8   8   8   4   4   4
#     4  11  16  33  53  78 123 155 199 238 334 354
#     4  11  22  35  58  88 125 163 205 262 317 366
#     4  11  22  34  59  92 121 166 206 263 309 382
#     4   9  19  33  52  83 122 158 209 251 310 371
#     4  11  22  37  58  91 122 155 205 258 304 371
#     4   9  18  34  55  82 125 168 195 266 334 363
#     4  11  20  36  52  85 124 164 191 260 320 377
#     4  11  22  37  62  89 128 165 205 258 324 364
#
# _framework density 25.022936999999999
#
# number of rings (size 3 to 8) (size 9 to 14) (size 15 to 20)
#    0.500    1.000    6.667    1.000    5.833    0.000 
#    0.000    0.000    0.000    0.000    8.667    0.000 
#    0.000    0.000    0.000    0.000    0.000    0.000 
#
# Total GULP energy -133845.835333 kJ/mol
# GULP energy per Si atom -5576.909806 kJ/mol
# Density = 2.496598 g / cm^3
# Si number density = 25.022937 Si / 1000 Ang^3
#
#
#
# Elastic Constant Matrix: (Units=GPa)
#
#
# Indices 1 2 3 4 5 6 
#
# 1 189.1714 11.1944 -13.8471 0.0000 0.0000 0.0000
# 2 11.1944 73.2535 -8.8403 0.0000 0.0000 0.0000
# 3 -13.8471 -8.8403 73.4151 0.0000 0.0000 0.0000
# 4 0.0000 0.0000 0.0000 4.3852 0.0000 0.0000
# 5 0.0000 0.0000 0.0000 0.0000 42.7877 0.0000
# 6 0.0000 0.0000 0.0000 0.0000 0.0000 18.3050
#
#
#
# Elastic Compliance Matrix: (Units=1/GPa)
#
#
# Indices 1 2 3 4 5 6 
#
# 1 0.005397 -0.000712 0.000932 0.000000 0.000000 0.000000
# 2 -0.000712 0.013947 0.001545 0.000000 0.000000 0.000000
# 3 0.000932 0.001545 0.013983 0.000000 0.000000 0.000000
# 4 0.000000 0.000000 0.000000 0.228041 0.000000 0.000000
# 5 0.000000 0.000000 0.000000 0.000000 0.023371 0.000000
# 6 0.000000 0.000000 0.000000 0.000000 0.000000 0.054630
#
#
# Mechanical properties :
#
#
# Convention : Reuss Voigt Hill
#
# Bulk Modulus (GPa) = 27.13260 34.76157 30.94709
# Shear Modulus (GPa) = 14.36270 36.25111 25.30690
#
# Velocity S-wave (km/s) = 2.39839 3.81033 3.18362
# Velocity P-wave (km/s) = 4.30538 5.76890 5.09002
#
# Compressibility (1/GPa) = 0.03685603
#
# Stress axis : x y z
#
# Youngs Moduli (GPa) = 185.30234 71.70244 71.51522
#
# Poissons Ratio (x) = 0.05107 -0.06666
# Poissons Ratio (y) = 0.13197 -0.11049
# Poissons Ratio (z) = -0.17272 -0.11078
#
# Static dielectric constant tensor:
#      x y z
#    x 2.098510 0.000000 0.000000 
#    y 0.000000 2.084260 0.000000 
#    z 0.000000 0.000000 1.950270 
# 
# From -- ./inp_files/16433.got.cif
#   From: 2010.05.17/outbox.cif.g08.bks.cpg/sg40_9_cif.got.tgz:16433.got - 2010.06.03 18:35:42.
