data_PCOD9365552
_publ_section_title
;
Structure prediction by ZEFSAII (Michael W. Deem and Ramdas Pophale) SiO2 
 PCOD9365552
Probable space group: A M A 2
;
_chemical_formula_sum "Si O2"
_cell_formula_units_Z 32
_cell_length_a 27.454423
_cell_length_b 4.825180
_cell_length_c 9.320706
_cell_angle_alpha 90.000000
_cell_angle_beta 90.000000
_cell_angle_gamma 90.000000
_cell_volume 1234.737531
_symmetry_space_group_name_H-M "A M A 2"
_symmetry_group_IT_number 40
_symmetry_cell_setting 'orthorhombic'
loop_
_space_group_symop_operation_xyz
x,y,z
-x,-y,z
1/2-x,y,z
1/2+x,-y,z
x,1/2+y,1/2+z
-x,1/2-y,1/2+z
1/2-x,1/2+y,1/2+z
1/2+x,1/2-y,1/2+z
loop_
_atom_site_type_symbol
_atom_site_label
_atom_site_fract_x
_atom_site_fract_y
_atom_site_fract_z
Si Si1 0.466399 0.240974 0.077130
Si Si2 0.335992 0.465566 0.874977
Si Si3 0.250000 0.776901 0.576648
Si Si4 0.098064 0.962272 0.834187
Si Si5 0.750000 0.175734 0.843772
O O1 0.500000 0.500000 0.035620
O O2 0.427325 0.348686 0.191823
O O3 0.500000 0.000000 0.144581
O O4 0.440572 0.100160 0.941536
O O5 0.301494 0.367691 0.002406
O O6 0.362662 0.204134 0.806911
O O7 0.375793 0.700298 0.908677
O O8 0.295037 0.634606 0.787917
O O9 0.250000 0.466076 0.494761
O O10 0.250000 0.016311 0.707480
#
# Coordination Sequence:
#
# PCOD9365552 Si02
#       5
#     8   8   4   8   4
#     4  12  28  52  80 111 154 199 256 330 406 466
#     4  11  26  48  73 116 148 202 253 308 378 449
#     4  11  26  46  73 105 161 198 246 310 373 450
#     4  12  27  47  82 110 150 196 260 315 379 480
#     4  11  26  46  73 105 161 198 246 310 373 450
#
# _framework density 25.916437999999999
#
# number of rings (size 3 to 8) (size 9 to 14) (size 15 to 20)
#    0.000    0.500    2.500    3.750    3.500   10.000 
#    0.000    0.000    0.000    0.000    0.000    0.000 
#    0.000    0.000    0.000    0.000    0.000    0.000 
#
# Total GULP energy -89243.771202 kJ/mol
# GULP energy per Si atom -5577.735700 kJ/mol
# Density = 2.585745 g / cm^3
# Si number density = 25.916438 Si / 1000 Ang^3
#
#
#
# Elastic Constant Matrix: (Units=GPa)
#
#
# Indices 1 2 3 4 5 6 
#
# 1 100.4774 49.2781 -20.5575 0.0000 0.0000 0.0000
# 2 49.2781 181.0198 11.4911 0.0000 0.0000 0.0000
# 3 -20.5575 11.4911 32.8343 0.0000 0.0000 0.0000
# 4 0.0000 0.0000 0.0000 14.6308 0.0000 0.0000
# 5 0.0000 0.0000 0.0000 0.0000 38.4260 0.0000
# 6 0.0000 0.0000 0.0000 0.0000 0.0000 101.2595
#
#
#
# Elastic Compliance Matrix: (Units=1/GPa)
#
#
# Indices 1 2 3 4 5 6 
#
# 1 0.014370 -0.004585 0.010602 0.000000 0.000000 0.000000
# 2 -0.004585 0.007113 -0.005360 0.000000 0.000000 0.000000
# 3 0.010602 -0.005360 0.038970 0.000000 0.000000 0.000000
# 4 0.000000 0.000000 0.000000 0.068349 0.000000 0.000000
# 5 0.000000 0.000000 0.000000 0.000000 0.026024 0.000000
# 6 0.000000 0.000000 0.000000 0.000000 0.000000 0.009876
#
#
# Mechanical properties :
#
#
# Convention : Reuss Voigt Hill
#
# Bulk Modulus (GPa) = 16.19004 43.86166 30.02585
# Shear Modulus (GPa) = 27.17747 49.13789 38.15768
#
# Velocity S-wave (km/s) = 3.24181 4.35905 3.84126
# Velocity P-wave (km/s) = 4.50256 6.50354 5.59326
#
# Compressibility (1/GPa) = 0.06176638
#
# Stress axis : x y z
#
# Youngs Moduli (GPa) = 69.58832 140.59484 25.66107
#
# Poissons Ratio (x) = 0.64462 -0.27205
# Poissons Ratio (y) = 0.31906 0.13754
# Poissons Ratio (z) = -0.73776 0.75357
#
# Static dielectric constant tensor:
#      x y z
#    x 1.865630 0.000000 0.000000 
#    y 0.000000 2.298050 0.000000 
#    z 0.000000 0.000000 2.446380 
# 
# From -- ./inp_files/9264.got.cif
#   From: 2010.05.17/outbox.cif.g08.bks.cpg/sg40_5_cif.got.tgz:9264.got - 2010.06.03 18:35:42.
