data_PCOD9365428
_publ_section_title
;
Structure prediction by ZEFSAII (Michael W. Deem and Ramdas Pophale) SiO2 
 PCOD9365428
Probable space group: A M A 2
;
_chemical_formula_sum "Si O2"
_cell_formula_units_Z 40
_cell_length_a 8.936418
_cell_length_b 23.695840
_cell_length_c 10.318746
_cell_angle_alpha 90.000000
_cell_angle_beta 90.000000
_cell_angle_gamma 90.000000
_cell_volume 2185.055667
_symmetry_space_group_name_H-M "A M A 2"
_symmetry_group_IT_number 40
_symmetry_cell_setting 'orthorhombic'
loop_
_space_group_symop_operation_xyz
x,y,z
-x,-y,z
1/2-x,y,z
1/2+x,-y,z
x,1/2+y,1/2+z
-x,1/2-y,1/2+z
1/2-x,1/2+y,1/2+z
1/2+x,1/2-y,1/2+z
loop_
_atom_site_type_symbol
_atom_site_label
_atom_site_fract_x
_atom_site_fract_y
_atom_site_fract_z
Si Si1 0.427531 0.852099 0.748750
Si Si2 0.571117 0.869931 0.195281
Si Si3 0.924780 0.247777 0.141488
Si Si4 0.071057 0.940004 0.974317
Si Si5 0.926151 0.854488 0.490389
O O1 0.250000 0.841812 0.750231
O O2 0.514857 0.792549 0.747871
O O3 0.467002 0.893308 0.865501
O O4 0.477663 0.878193 0.609885
O O5 0.750000 0.874184 0.186239
O O6 0.517241 0.809171 0.143008
O O7 0.528870 0.871986 0.347149
O O8 0.493688 0.917489 0.109568
O O9 0.750000 0.235039 0.160149
O O10 0.940295 0.286549 0.012450
O O11 0.250000 0.944429 0.980396
O O12 0.000000 0.000000 0.941530
O O13 0.750000 0.867365 0.509818
#
# Coordination Sequence:
#
# PCOD9365428 Si02
#       5
#     8   8   8   8   8
#     4   9  19  36  59  84 114 150 195 246 295 353
#     4  11  22  37  59  87 122 160 197 246 301 356
#     4   9  19  34  55  86 122 154 191 240 297 356
#     4  11  25  43  62  87 119 159 207 252 297 357
#     4   8  19  36  55  84 118 149 189 238 292 354
#
# _framework density 18.306172
#
# number of rings (size 3 to 8) (size 9 to 14) (size 15 to 20)
#    1.200    1.200    0.000    1.800    2.800    4.800 
#    0.000    1.000    0.000    2.400    0.000    0.000 
#    0.000    0.000    0.000    0.000    0.000    0.000 
#
# Total GULP energy -111417.169141 kJ/mol
# GULP energy per Si atom -5570.858457 kJ/mol
# Density = 1.826451 g / cm^3
# Si number density = 18.306172 Si / 1000 Ang^3
#
#
#
# Elastic Constant Matrix: (Units=GPa)
#
#
# Indices 1 2 3 4 5 6 
#
# 1 36.5592 10.5147 20.4701 0.0000 0.0000 0.0000
# 2 10.5147 40.8865 -1.9958 0.0000 0.0000 0.0000
# 3 20.4701 -1.9958 67.3086 0.0000 0.0000 0.0000
# 4 0.0000 0.0000 0.0000 -11.4905 0.0000 0.0000
# 5 0.0000 0.0000 0.0000 0.0000 -12.9186 0.0000
# 6 0.0000 0.0000 0.0000 0.0000 0.0000 34.9766
#
#
#
# Elastic Compliance Matrix: (Units=1/GPa)
#
#
# Indices 1 2 3 4 5 6 
#
# 1 0.036624 -0.009977 -0.011434 0.000000 0.000000 0.000000
# 2 -0.009977 0.027211 0.003841 0.000000 0.000000 0.000000
# 3 -0.011434 0.003841 0.018448 0.000000 0.000000 0.000000
# 4 0.000000 0.000000 0.000000 -0.087029 0.000000 0.000000
# 5 0.000000 0.000000 0.000000 0.000000 -0.077408 0.000000
# 6 0.000000 0.000000 0.000000 0.000000 0.000000 0.028591
#
#
# Mechanical properties :
#
#
# Convention : Reuss Voigt Hill
#
# Bulk Modulus (GPa) = 21.21159 22.52579 21.86869
# Shear Modulus (GPa) = -1846.70500 9.83120 -918.43690
#
# Velocity S-wave (km/s) = -31.79588 2.31993 -22.42316
# Velocity P-wave (km/s) = 36.55624 4.41677 25.65980
#
# Compressibility (1/GPa) = 0.04714404
#
# Stress axis : x y z
#
# Youngs Moduli (GPa) = 27.30420 36.74964 54.20574
#
# Poissons Ratio (x) = 0.36664 0.61980
# Poissons Ratio (y) = 0.27241 -0.20821
# Poissons Ratio (z) = 0.31220 -0.14116
#
# Static dielectric constant tensor:
#      x y z
#    x 1.607990 0.000000 0.000000 
#    y 0.000000 1.622040 0.000000 
#    z 0.000000 0.000000 1.658710 
# 
# From -- ./inp_files/4223.got.cif
#   From: 2010.05.17/outbox.cif.g08.bks.cpg/sg40_3_cif.got.tgz:4223.got - 2010.06.03 18:35:42.
