data_PCOD9365055
_publ_section_title
;
Structure prediction by ZEFSAII (Michael W. Deem and Ramdas Pophale) SiO2 
 PCOD9365055
Probable space group: A M A 2
;
_chemical_formula_sum "Si O2"
_cell_formula_units_Z 64
_cell_length_a 17.825166
_cell_length_b 14.321687
_cell_length_c 12.207419
_cell_angle_alpha 90.000000
_cell_angle_beta 90.000000
_cell_angle_gamma 90.000000
_cell_volume 3116.388638
_symmetry_space_group_name_H-M "A M A 2"
_symmetry_group_IT_number 40
_symmetry_cell_setting 'orthorhombic'
loop_
_space_group_symop_operation_xyz
x,y,z
-x,-y,z
1/2-x,y,z
1/2+x,-y,z
x,1/2+y,1/2+z
-x,1/2-y,1/2+z
1/2-x,1/2+y,1/2+z
1/2+x,1/2-y,1/2+z
loop_
_atom_site_type_symbol
_atom_site_label
_atom_site_fract_x
_atom_site_fract_y
_atom_site_fract_z
Si Si1 0.584870 0.536454 0.042450
Si Si2 0.434062 0.075834 0.148103
Si Si3 0.662987 0.673584 0.385957
Si Si4 0.111322 0.625986 0.214542
Si Si5 0.553242 0.210279 0.686959
Si Si6 0.164662 0.814353 0.128904
Si Si7 0.834932 0.457598 0.434995
Si Si8 0.339769 0.469943 0.806474
O O1 0.500000 0.500000 0.020466
O O2 0.615454 0.463161 0.133548
O O3 0.584428 0.639784 0.094557
O O4 0.629353 0.538575 0.928901
O O5 0.458588 0.183589 0.148105
O O6 0.500000 0.000000 0.158777
O O7 0.377882 0.058749 0.249395
O O8 0.388712 0.051479 0.038304
O O9 0.750000 0.707616 0.376463
O O10 0.609938 0.709055 0.289614
O O11 0.629638 0.691065 0.507773
O O12 0.664682 0.561423 0.385168
O O13 0.161427 0.709932 0.171019
O O14 0.136932 0.604815 0.336303
O O15 0.026177 0.663704 0.217419
O O16 0.250000 0.846696 0.106704
O O17 0.137730 0.884043 0.224490
O O18 0.750000 0.434752 0.468517
O O19 0.250000 0.475442 0.808199
#
# Coordination Sequence:
#
# PCOD9365055 Si02
#       8
#     8   8   8   8   8   8   8   8
#     4  10  24  45  64  93 134 173 217 275 333 401
#     4  12  27  45  69 100 137 179 225 279 339 398
#     4  10  22  43  70  97 132 172 221 279 333 402
#     4  11  24  42  69  97 133 172 223 274 337 400
#     4  11  26  44  67  99 133 176 224 278 335 404
#     4  10  22  42  66  96 131 170 218 269 331 397
#     4  11  24  44  72 101 133 174 226 286 339 400
#     4  11  24  44  67  94 134 179 224 274 331 402
#
# _framework density 20.536591999999999
#
# number of rings (size 3 to 8) (size 9 to 14) (size 15 to 20)
#    0.000    1.250    2.500    1.875    5.250    2.500 
#    0.000    0.000    0.000    0.000    0.000    0.000 
#    0.000    0.000    0.000    0.000    0.000    0.000 
#
# Total GULP energy -178774.499335 kJ/mol
# GULP energy per Si atom -5586.703104 kJ/mol
# Density = 2.048985 g / cm^3
# Si number density = 20.536592 Si / 1000 Ang^3
#
#
#
# Elastic Constant Matrix: (Units=GPa)
#
#
# Indices 1 2 3 4 5 6 
#
# 1 76.2187 35.8758 58.2026 0.0000 0.0000 0.0000
# 2 35.8758 120.1701 41.8917 0.0000 0.0000 0.0000
# 3 58.2026 41.8917 126.6050 0.0000 0.0000 0.0000
# 4 0.0000 0.0000 0.0000 27.6511 0.0000 0.0000
# 5 0.0000 0.0000 0.0000 0.0000 33.1792 0.0000
# 6 0.0000 0.0000 0.0000 0.0000 0.0000 13.2213
#
#
#
# Elastic Compliance Matrix: (Units=1/GPa)
#
#
# Indices 1 2 3 4 5 6 
#
# 1 0.021338 -0.003335 -0.008706 0.000000 0.000000 0.000000
# 2 -0.003335 0.009928 -0.001752 0.000000 0.000000 0.000000
# 3 -0.008706 -0.001752 0.012480 0.000000 0.000000 0.000000
# 4 0.000000 0.000000 0.000000 0.036165 0.000000 0.000000
# 5 0.000000 0.000000 0.000000 0.000000 0.030139 0.000000
# 6 0.000000 0.000000 0.000000 0.000000 0.000000 0.075635
#
#
# Mechanical properties :
#
#
# Convention : Reuss Voigt Hill
#
# Bulk Modulus (GPa) = 61.87894 66.10376 63.99135
# Shear Modulus (GPa) = 22.86666 27.27857 25.07262
#
# Velocity S-wave (km/s) = 3.34047 3.64853 3.49789
# Velocity P-wave (km/s) = 6.71378 7.07157 6.89500
#
# Compressibility (1/GPa) = 0.01616059
#
# Stress axis : x y z
#
# Youngs Moduli (GPa) = 46.86447 100.72590 80.12550
#
# Poissons Ratio (x) = 0.33596 0.69756
# Poissons Ratio (y) = 0.15631 0.14035
# Poissons Ratio (z) = 0.40800 0.17644
#
# Static dielectric constant tensor:
#      x y z
#    x 1.768910 0.000000 0.000000 
#    y 0.000000 1.845180 0.000000 
#    z 0.000000 0.000000 1.745010 
# 
# From -- ./inp_files/13121.got.cif
#   From: 2010.05.17/outbox.cif.g08.bks.cpg/sg40_7_cif.got.tgz:13121.got - 2010.06.03 18:35:42.
