data_PCOD9365236
_publ_section_title
;
Structure prediction by ZEFSAII (Michael W. Deem and Ramdas Pophale) SiO2 
 PCOD9365236
Probable space group: A M A 2
;
_chemical_formula_sum "Si O2"
_cell_formula_units_Z 36
_cell_length_a 15.549830
_cell_length_b 5.189253
_cell_length_c 18.908503
_cell_angle_alpha 90.000000
_cell_angle_beta 90.000000
_cell_angle_gamma 90.000000
_cell_volume 1525.764961
_symmetry_space_group_name_H-M "A M A 2"
_symmetry_group_IT_number 40
_symmetry_cell_setting 'orthorhombic'
loop_
_space_group_symop_operation_xyz
x,y,z
-x,-y,z
1/2-x,y,z
1/2+x,-y,z
x,1/2+y,1/2+z
-x,1/2-y,1/2+z
1/2-x,1/2+y,1/2+z
1/2+x,1/2-y,1/2+z
loop_
_atom_site_type_symbol
_atom_site_label
_atom_site_fract_x
_atom_site_fract_y
_atom_site_fract_z
Si Si1 0.345667 0.110319 0.129040
Si Si2 0.093190 0.116050 0.971377
Si Si3 0.904666 0.886713 0.705273
Si Si4 0.347164 0.851847 0.835801
Si Si5 0.500000 0.000000 0.370375
O O1 0.250000 0.009880 0.139581
O O2 0.354230 0.390550 0.163201
O O3 0.401450 0.888582 0.167120
O O4 0.362740 0.148850 0.046076
O O5 0.065882 0.356445 0.923199
O O6 0.145729 0.937661 0.917345
O O7 0.000000 0.000000 0.988365
O O8 0.864808 0.905020 0.783965
O O9 0.000000 0.000000 0.705617
O O10 0.250000 0.751091 0.821926
O O11 0.433439 0.676496 0.826180
#
# Coordination Sequence:
#
# PCOD9365236 Si02
#       5
#     8   8   8   8   4
#     4  12  27  46  72 107 145 188 243 305 366 439
#     4  10  23  44  70 101 139 189 239 296 366 433
#     4  12  27  48  72 104 145 195 242 302 376 437
#     4  11  25  45  72 105 144 192 246 305 366 442
#     4  10  24  44  74 108 144 194 248 306 368 448
#
# _framework density 23.594723999999999
#
# number of rings (size 3 to 8) (size 9 to 14) (size 15 to 20)
#    0.000    0.889    0.000    6.667   14.000    1.778 
#    0.000    0.000    0.000    0.000    0.000    0.000 
#    0.000    0.000    0.000    0.000    0.000    0.000 
#
# Total GULP energy -100579.603678 kJ/mol
# GULP energy per Si atom -5587.755760 kJ/mol
# Density = 2.354102 g / cm^3
# Si number density = 23.594724 Si / 1000 Ang^3
#
#
#
# Elastic Constant Matrix: (Units=GPa)
#
#
# Indices 1 2 3 4 5 6 
#
# 1 126.8993 14.4606 31.7733 0.0000 0.0000 0.0000
# 2 14.4606 94.4768 30.9681 0.0000 0.0000 0.0000
# 3 31.7733 30.9681 128.6136 0.0000 0.0000 0.0000
# 4 0.0000 0.0000 0.0000 33.5868 0.0000 0.0000
# 5 0.0000 0.0000 0.0000 0.0000 32.7543 0.0000
# 6 0.0000 0.0000 0.0000 0.0000 0.0000 27.3477
#
#
#
# Elastic Compliance Matrix: (Units=1/GPa)
#
#
# Indices 1 2 3 4 5 6 
#
# 1 0.008438 -0.000660 -0.001925 0.000000 0.000000 0.000000
# 2 -0.000660 0.011543 -0.002616 0.000000 0.000000 0.000000
# 3 -0.001925 -0.002616 0.008881 0.000000 0.000000 0.000000
# 4 0.000000 0.000000 0.000000 0.029774 0.000000 0.000000
# 5 0.000000 0.000000 0.000000 0.000000 0.030530 0.000000
# 6 0.000000 0.000000 0.000000 0.000000 0.000000 0.036566
#
#
# Mechanical properties :
#
#
# Convention : Reuss Voigt Hill
#
# Bulk Modulus (GPa) = 54.17834 56.04373 55.11104
# Shear Modulus (GPa) = 35.13987 36.92361 36.03174
#
# Velocity S-wave (km/s) = 3.86335 3.96019 3.91207
# Velocity P-wave (km/s) = 6.55076 6.68693 6.61919
#
# Compressibility (1/GPa) = 0.01845756
#
# Stress axis : x y z
#
# Youngs Moduli (GPa) = 118.51692 86.63060 112.60155
#
# Poissons Ratio (x) = 0.05720 0.21681
# Poissons Ratio (y) = 0.07826 0.29460
# Poissons Ratio (z) = 0.22820 0.22665
#
# Static dielectric constant tensor:
#      x y z
#    x 1.913200 0.000000 0.000000 
#    y 0.000000 1.793820 0.000000 
#    z 0.000000 0.000000 1.866920 
# 
# From -- ./inp_files/22932.got.cif
#   From: 2010.05.17/outbox.cif.g08.bks.cpg/sg40_12_cif.got.tgz:22932.got - 2010.06.03 18:35:42.
