data_PCOD9365018
_publ_section_title
;
Structure prediction by ZEFSAII (Michael W. Deem and Ramdas Pophale) SiO2 
 PCOD9365018
Probable space group: A M A 2
;
_chemical_formula_sum "Si O2"
_cell_formula_units_Z 64
_cell_length_a 29.102521
_cell_length_b 11.363546
_cell_length_c 9.382540
_cell_angle_alpha 90.000000
_cell_angle_beta 90.000000
_cell_angle_gamma 90.000000
_cell_volume 3102.879501
_symmetry_space_group_name_H-M "A M A 2"
_symmetry_group_IT_number 40
_symmetry_cell_setting 'orthorhombic'
loop_
_space_group_symop_operation_xyz
x,y,z
-x,-y,z
1/2-x,y,z
1/2+x,-y,z
x,1/2+y,1/2+z
-x,1/2-y,1/2+z
1/2-x,1/2+y,1/2+z
1/2+x,1/2-y,1/2+z
loop_
_atom_site_type_symbol
_atom_site_label
_atom_site_fract_x
_atom_site_fract_y
_atom_site_fract_z
Si Si1 0.448925 0.518039 0.947820
Si Si2 0.801222 0.181338 0.163291
Si Si3 0.967491 0.715020 0.506482
Si Si4 0.396715 0.950616 0.171211
Si Si5 0.301477 0.339110 0.992283
Si Si6 0.369684 0.198920 0.188420
Si Si7 0.459028 0.339952 0.200943
Si Si8 0.196703 0.111550 0.438480
O O1 0.500000 0.500000 0.882500
O O2 0.444067 0.657382 0.971854
O O3 0.413199 0.461031 0.837110
O O4 0.451325 0.453006 0.100358
O O5 0.750000 0.130242 0.129521
O O6 0.845455 0.098769 0.145965
O O7 0.800771 0.207217 0.330892
O O8 0.806839 0.297010 0.068023
O O9 0.932677 0.631050 0.589753
O O10 0.981689 0.654497 0.357027
O O11 0.010486 0.751493 0.605017
O O12 0.394896 0.085634 0.122013
O O13 0.250000 0.328225 0.052866
O O14 0.312727 0.477970 0.985522
O O15 0.337243 0.265604 0.080119
O O16 0.408897 0.288964 0.233195
O O17 0.338011 0.152074 0.316532
O O18 0.250000 0.112901 0.387696
#
# Coordination Sequence:
#
# PCOD9365018 Si02
#       8
#     8   8   8   8   8   8   8   8
#     4  10  23  47  68  94 127 174 221 278 328 396
#     4  10  22  41  66  96 127 168 214 263 324 388
#     4  11  24  47  64  96 131 173 222 275 330 394
#     4  12  24  41  69  94 135 174 212 274 328 391
#     4  10  22  43  66  93 131 170 216 267 325 388
#     4  12  24  40  65 101 128 172 217 270 328 393
#     4  11  24  43  70  93 131 172 222 273 334 392
#     4  10  22  45  70  93 131 176 217 269 329 390
#
# _framework density 20.626003000000001
#
# number of rings (size 3 to 8) (size 9 to 14) (size 15 to 20)
#    0.000    1.250    2.500    3.375    0.000    0.500 
#   15.750    0.000    0.000    0.000    0.000    0.000 
#    0.000    0.000    0.000    0.000    0.000    0.000 
#
# Total GULP energy -178739.550948 kJ/mol
# GULP energy per Si atom -5585.610967 kJ/mol
# Density = 2.057906 g / cm^3
# Si number density = 20.626003 Si / 1000 Ang^3
#
#
#
# Elastic Constant Matrix: (Units=GPa)
#
#
# Indices 1 2 3 4 5 6 
#
# 1 52.8876 31.6748 22.8502 0.0000 0.0000 0.0000
# 2 31.6748 91.8385 42.4912 0.0000 0.0000 0.0000
# 3 22.8502 42.4912 84.2946 0.0000 0.0000 0.0000
# 4 0.0000 0.0000 0.0000 36.3542 0.0000 0.0000
# 5 0.0000 0.0000 0.0000 0.0000 25.4409 0.0000
# 6 0.0000 0.0000 0.0000 0.0000 0.0000 37.8998
#
#
#
# Elastic Compliance Matrix: (Units=1/GPa)
#
#
# Indices 1 2 3 4 5 6 
#
# 1 0.024436 -0.006994 -0.003098 0.000000 0.000000 0.000000
# 2 -0.006994 0.016203 -0.006271 0.000000 0.000000 0.000000
# 3 -0.003098 -0.006271 0.015864 0.000000 0.000000 0.000000
# 4 0.000000 0.000000 0.000000 0.027507 0.000000 0.000000
# 5 0.000000 0.000000 0.000000 0.000000 0.039307 0.000000
# 6 0.000000 0.000000 0.000000 0.000000 0.000000 0.026385
#
#
# Mechanical properties :
#
#
# Convention : Reuss Voigt Hill
#
# Bulk Modulus (GPa) = 42.06165 47.00590 44.53377
# Shear Modulus (GPa) = 26.26680 28.73929 27.50305
#
# Velocity S-wave (km/s) = 3.57246 3.73681 3.65556
# Velocity P-wave (km/s) = 6.11992 6.43875 6.28136
#
# Compressibility (1/GPa) = 0.02377463
#
# Stress axis : x y z
#
# Youngs Moduli (GPa) = 40.92399 61.71850 63.03460
#
# Poissons Ratio (x) = 0.43168 0.19529
# Poissons Ratio (y) = 0.28623 0.39532
# Poissons Ratio (z) = 0.12679 0.38706
#
# Static dielectric constant tensor:
#      x y z
#    x 1.783170 0.000000 0.000000 
#    y 0.000000 1.731640 0.000000 
#    z 0.000000 0.000000 1.735760 
# 
# From -- ./inp_files/9424.got.cif
#   From: 2010.05.17/outbox.cif.g08.bks.cpg/sg40_5_cif.got.tgz:9424.got - 2010.06.03 18:35:42.
