data_PCOD9365802
_publ_section_title
;
Structure prediction by ZEFSAII (Michael W. Deem and Ramdas Pophale) SiO2 
 PCOD9365802
Probable space group: A B A 2
;
_chemical_formula_sum "Si O2"
_cell_formula_units_Z 60
_cell_length_a 13.644007
_cell_length_b 23.234794
_cell_length_c 7.524688
_cell_angle_alpha 90.000000
_cell_angle_beta 90.000000
_cell_angle_gamma 90.000000
_cell_volume 2385.444173
_symmetry_space_group_name_H-M "A B A 2"
_symmetry_group_IT_number 41
_symmetry_cell_setting 'orthorhombic'
loop_
_space_group_symop_operation_xyz
x,y,z
-x,-y,z
1/2-x,y,1/2+z
1/2+x,-y,1/2+z
x,1/2+y,1/2+z
-x,1/2-y,1/2+z
1/2-x,1/2+y,z
1/2+x,1/2-y,z
loop_
_atom_site_type_symbol
_atom_site_label
_atom_site_fract_x
_atom_site_fract_y
_atom_site_fract_z
Si Si1 0.799852 0.692592 0.766190
Si Si2 0.192355 0.077416 0.168353
Si Si3 0.603877 0.884940 0.991031
Si Si4 0.367838 0.246890 0.600100
Si Si5 0.500000 0.500000 0.587078
Si Si6 0.973188 0.814616 0.793565
Si Si7 0.136781 0.378251 0.446479
Si Si8 0.831131 0.999046 0.871530
O O1 0.738599 0.748573 0.696522
O O2 0.864319 0.665176 0.612467
O O3 0.716155 0.646731 0.810115
O O4 0.855230 0.702728 0.949821
O O5 0.295435 0.099879 0.095103
O O6 0.135627 0.122952 0.287754
O O7 0.134228 0.050993 0.004519
O O8 0.227859 0.024336 0.295847
O O9 0.568863 0.830626 0.101674
O O10 0.529677 0.940027 0.990273
O O11 0.401577 0.198825 0.458104
O O12 0.449694 0.263535 0.746051
O O13 0.594656 0.509515 0.711500
O O14 0.033859 0.870536 0.851514
O O15 0.169619 0.442541 0.482966
#
# Coordination Sequence:
#
# PCOD9365802 Si02
#       8
#     8   8   8   8   4   8   8   8
#     4   9  20  37  57  87 119 156 207 249 315 372
#     4   9  21  37  58  83 123 159 212 239 299 378
#     4  10  21  41  58  86 122 164 200 256 304 374
#     4  10  22  40  61  88 121 158 208 265 308 372
#     4  10  20  36  58  82 124 152 196 244 306 346
#     4  11  22  39  63  90 127 161 208 263 316 364
#     4  10  18  34  59  87 118 157 199 253 304 369
#     4  10  18  35  55  84 115 162 194 257 291 354
#
# _framework density 25.152550000000002
#
# number of rings (size 3 to 8) (size 9 to 14) (size 15 to 20)
#    0.000    2.133    1.333    1.600    0.000    1.600 
#    7.200    2.667    0.000    0.000    0.000    0.000 
#    0.000    0.000    0.000    0.000    0.000    0.000 
#
# Total GULP energy -167509.606424 kJ/mol
# GULP energy per Si atom -5583.653547 kJ/mol
# Density = 2.509530 g / cm^3
# Si number density = 25.152550 Si / 1000 Ang^3
#
#
#
# Elastic Constant Matrix: (Units=GPa)
#
#
# Indices 1 2 3 4 5 6 
#
# 1 51.3647 17.8592 19.8119 0.0000 0.0000 0.0000
# 2 17.8592 50.5483 4.5813 0.0000 0.0000 0.0000
# 3 19.8119 4.5813 105.3810 0.0000 0.0000 0.0000
# 4 0.0000 0.0000 0.0000 36.8693 0.0000 0.0000
# 5 0.0000 0.0000 0.0000 0.0000 20.6913 0.0000
# 6 0.0000 0.0000 0.0000 0.0000 0.0000 26.2879
#
#
#
# Elastic Compliance Matrix: (Units=1/GPa)
#
#
# Indices 1 2 3 4 5 6 
#
# 1 0.023866 -0.008057 -0.004137 0.000000 0.000000 0.000000
# 2 -0.008057 0.022581 0.000533 0.000000 0.000000 0.000000
# 3 -0.004137 0.000533 0.010244 0.000000 0.000000 0.000000
# 4 0.000000 0.000000 0.000000 0.027123 0.000000 0.000000
# 5 0.000000 0.000000 0.000000 0.000000 0.048329 0.000000
# 6 0.000000 0.000000 0.000000 0.000000 0.000000 0.038040
#
#
# Mechanical properties :
#
#
# Convention : Reuss Voigt Hill
#
# Bulk Modulus (GPa) = 29.96722 32.42208 31.19465
# Shear Modulus (GPa) = 24.43462 27.77246 26.10354
#
# Velocity S-wave (km/s) = 3.12020 3.32650 3.22500
# Velocity P-wave (km/s) = 4.99209 5.26044 5.12802
#
# Compressibility (1/GPa) = 0.03336980
#
# Stress axis : x y z
#
# Youngs Moduli (GPa) = 41.90145 44.28424 97.61928
#
# Poissons Ratio (x) = 0.35680 0.40380
# Poissons Ratio (y) = 0.33760 -0.05203
# Poissons Ratio (z) = 0.17333 -0.02361
#
# Static dielectric constant tensor:
#      x y z
#    x 2.010130 0.000000 0.000000 
#    y 0.000000 2.078030 0.000000 
#    z 0.000000 0.000000 1.983910 
# 
# From -- ./inp_files/2171.got.cif
#   From: 2010.05.17/outbox.cif.g08.bks.cpg/sg41_2_cif.got.tgz:2171.got - 2010.06.03 18:54:24.
