data_PCOD9365206
_publ_section_title
;
Structure prediction by ZEFSAII (Michael W. Deem and Ramdas Pophale) SiO2 
 PCOD9365206
Probable space group: A M A 2
;
_chemical_formula_sum "Si O2"
_cell_formula_units_Z 32
_cell_length_a 12.720536
_cell_length_b 17.029231
_cell_length_c 6.538742
_cell_angle_alpha 90.000000
_cell_angle_beta 90.000000
_cell_angle_gamma 90.000000
_cell_volume 1416.428478
_symmetry_space_group_name_H-M "A M A 2"
_symmetry_group_IT_number 40
_symmetry_cell_setting 'orthorhombic'
loop_
_space_group_symop_operation_xyz
x,y,z
-x,-y,z
1/2-x,y,z
1/2+x,-y,z
x,1/2+y,1/2+z
-x,1/2-y,1/2+z
1/2-x,1/2+y,1/2+z
1/2+x,1/2-y,1/2+z
loop_
_atom_site_type_symbol
_atom_site_label
_atom_site_fract_x
_atom_site_fract_y
_atom_site_fract_z
Si Si1 0.871376 0.560029 0.773560
Si Si2 0.996662 0.872761 0.630115
Si Si3 0.071321 0.099024 0.047622
Si Si4 0.631652 0.767316 0.309103
O O1 0.750000 0.583691 0.775038
O O2 0.881618 0.471884 0.683346
O O3 0.950453 0.606708 0.625156
O O4 0.925561 0.574012 0.993641
O O5 0.064713 0.808091 0.750346
O O6 0.921935 0.822683 0.479636
O O7 0.931447 0.916779 0.806765
O O8 0.129721 0.178239 0.105998
O O9 0.750000 0.747108 0.366883
#
# Coordination Sequence:
#
# PCOD9365206 Si02
#       4
#     8   8   8   8
#     4  10  23  42  68  98 133 180 229 282 346 406
#     4  11  23  45  66 102 140 175 232 288 334 418
#     4  10  23  43  65  98 140 175 227 286 337 416
#     4  11  23  41  69 100 136 184 227 282 351 404
#
# _framework density 22.592036
#
# number of rings (size 3 to 8) (size 9 to 14) (size 15 to 20)
#    0.000    1.500    2.500    1.500    0.000   12.000 
#    0.000    0.000    0.000    0.000    0.000    0.000 
#    0.000    0.000    0.000    0.000    0.000    0.000 
#
# Total GULP energy -89389.747697 kJ/mol
# GULP energy per Si atom -5586.859231 kJ/mol
# Density = 2.254062 g / cm^3
# Si number density = 22.592036 Si / 1000 Ang^3
#
#
#
# Elastic Constant Matrix: (Units=GPa)
#
#
# Indices 1 2 3 4 5 6 
#
# 1 117.1991 -8.0820 20.6691 0.0000 0.0000 0.0000
# 2 -8.0820 62.4002 31.2459 0.0000 0.0000 0.0000
# 3 20.6691 31.2459 141.6690 0.0000 0.0000 0.0000
# 4 0.0000 0.0000 0.0000 32.3862 0.0000 0.0000
# 5 0.0000 0.0000 0.0000 0.0000 9.2082 0.0000
# 6 0.0000 0.0000 0.0000 0.0000 0.0000 7.3041
#
#
#
# Elastic Compliance Matrix: (Units=1/GPa)
#
#
# Indices 1 2 3 4 5 6 
#
# 1 0.008984 0.002046 -0.001762 0.000000 0.000000 0.000000
# 2 0.002046 0.018481 -0.004375 0.000000 0.000000 0.000000
# 3 -0.001762 -0.004375 0.008281 0.000000 0.000000 0.000000
# 4 0.000000 0.000000 0.000000 0.030877 0.000000 0.000000
# 5 0.000000 0.000000 0.000000 0.000000 0.108598 0.000000
# 6 0.000000 0.000000 0.000000 0.000000 0.000000 0.136910
#
#
# Mechanical properties :
#
#
# Convention : Reuss Voigt Hill
#
# Bulk Modulus (GPa) = 36.27831 45.43713 40.85772
# Shear Modulus (GPa) = 15.17443 28.27538 21.72491
#
# Velocity S-wave (km/s) = 2.59447 3.54158 3.10436
# Velocity P-wave (km/s) = 5.00679 6.07284 5.56540
#
# Compressibility (1/GPa) = 0.02756468
#
# Stress axis : x y z
#
# Youngs Moduli (GPa) = 111.30489 54.10936 120.76383
#
# Poissons Ratio (x) = -0.11071 0.21279
# Poissons Ratio (y) = -0.22772 0.52829
# Poissons Ratio (z) = 0.19612 0.23671
#
# Static dielectric constant tensor:
#      x y z
#    x 1.834530 0.000000 0.000000 
#    y 0.000000 1.880140 0.000000 
#    z 0.000000 0.000000 1.879520 
# 
# From -- ./inp_files/1091.got.cif
#   From: 2010.05.17/outbox.cif.g08.bks.cpg/sg40_1_cif.got.tgz:1091.got - 2010.06.03 18:35:42.
