data_PCOD9365771
_publ_section_title
;
Structure prediction by ZEFSAII (Michael W. Deem and Ramdas Pophale) SiO2 
 PCOD9365771
Probable space group: A B A 2
;
_chemical_formula_sum "Si O2"
_cell_formula_units_Z 64
_cell_length_a 23.181503
_cell_length_b 8.984600
_cell_length_c 16.649957
_cell_angle_alpha 90.000000
_cell_angle_beta 90.000000
_cell_angle_gamma 90.000000
_cell_volume 3467.795299
_symmetry_space_group_name_H-M "A B A 2"
_symmetry_group_IT_number 41
_symmetry_cell_setting 'orthorhombic'
loop_
_space_group_symop_operation_xyz
x,y,z
-x,-y,z
1/2-x,y,1/2+z
1/2+x,-y,1/2+z
x,1/2+y,1/2+z
-x,1/2-y,1/2+z
1/2-x,1/2+y,z
1/2+x,1/2-y,z
loop_
_atom_site_type_symbol
_atom_site_label
_atom_site_fract_x
_atom_site_fract_y
_atom_site_fract_z
Si Si1 0.910914 0.850769 0.957740
Si Si2 0.194772 0.347262 0.894502
Si Si3 0.928513 0.355257 0.847547
Si Si4 0.485305 0.156033 0.021318
Si Si5 0.878899 0.125801 0.245133
Si Si6 0.528906 0.356061 0.789231
Si Si7 0.382164 0.361808 0.063373
Si Si8 0.815222 0.806200 0.431423
O O1 0.855265 0.752704 0.934918
O O2 0.943467 0.898925 0.875900
O O3 0.956917 0.747470 0.003295
O O4 0.893839 0.993515 0.009192
O O5 0.177047 0.352964 0.800683
O O6 0.256501 0.273674 0.907066
O O7 0.192443 0.515104 0.929146
O O8 0.914529 0.499263 0.793993
O O9 0.867682 0.276558 0.868554
O O10 0.976344 0.256816 0.804720
O O11 0.954448 0.387376 0.936135
O O12 0.440744 0.264764 0.064659
O O13 0.500000 0.000000 0.061898
O O14 0.919147 0.271705 0.246155
O O15 0.865873 0.090832 0.153149
O O16 0.500000 0.500000 0.751384
O O17 0.336014 0.259439 0.016618
#
# Coordination Sequence:
#
# PCOD9365771 Si02
#       8
#     8   8   8   8   8   8   8   8
#     4  10  19  33  56  84 111 149 193 227 268 332
#     4  10  21  40  63  81 104 147 192 227 275 340
#     4   9  18  34  55  78 109 150 188 222 269 332
#     4  10  18  32  55  82 114 153 191 224 267 332
#     4  10  22  37  55  82 115 146 181 231 286 331
#     4  10  18  31  54  82 112 149 190 224 264 327
#     4  11  22  36  56  85 117 144 183 238 286 327
#     4  10  20  37  60  82 106 144 188 229 273 333
#
# _framework density 18.45553
#
# number of rings (size 3 to 8) (size 9 to 14) (size 15 to 20)
#    0.000    2.000    0.000    7.500    0.000    3.500 
#    0.000    6.250    0.000    0.000    0.000    0.000 
#    0.000    0.000    0.000    0.000    0.000    0.000 
#
# Total GULP energy -178590.779077 kJ/mol
# GULP energy per Si atom -5580.961846 kJ/mol
# Density = 1.841352 g / cm^3
# Si number density = 18.455530 Si / 1000 Ang^3
#
#
#
# Elastic Constant Matrix: (Units=GPa)
#
#
# Indices 1 2 3 4 5 6 
#
# 1 120.9014 37.7364 27.9405 0.0000 0.0000 0.0000
# 2 37.7364 96.8879 47.0495 0.0000 0.0000 0.0000
# 3 27.9405 47.0495 89.6107 0.0000 0.0000 0.0000
# 4 0.0000 0.0000 0.0000 19.3514 0.0000 0.0000
# 5 0.0000 0.0000 0.0000 0.0000 -3.0941 0.0000
# 6 0.0000 0.0000 0.0000 0.0000 0.0000 32.5811
#
#
#
# Elastic Compliance Matrix: (Units=1/GPa)
#
#
# Indices 1 2 3 4 5 6 
#
# 1 0.009540 -0.003049 -0.001374 0.000000 0.000000 0.000000
# 2 -0.003049 0.014827 -0.006835 0.000000 0.000000 0.000000
# 3 -0.001374 -0.006835 0.015176 0.000000 0.000000 0.000000
# 4 0.000000 0.000000 0.000000 0.051676 0.000000 0.000000
# 5 0.000000 0.000000 0.000000 0.000000 -0.323199 0.000000
# 6 0.000000 0.000000 0.000000 0.000000 0.000000 0.030693
#
#
# Mechanical properties :
#
#
# Convention : Reuss Voigt Hill
#
# Bulk Modulus (GPa) = 58.72074 59.20585 58.96330
# Shear Modulus (GPa) = -28.88567 22.74593 -3.06987
#
# Velocity S-wave (km/s) = -3.96049 3.51447 -1.29112
# Velocity P-wave (km/s) = 3.31248 6.97270 5.45853
#
# Compressibility (1/GPa) = 0.01702976
#
# Stress axis : x y z
#
# Youngs Moduli (GPa) = 104.81881 67.44234 65.89256
#
# Poissons Ratio (x) = 0.20560 0.09054
# Poissons Ratio (y) = 0.31955 0.45034
# Poissons Ratio (z) = 0.14402 0.46094
#
# Static dielectric constant tensor:
#      x y z
#    x 1.623040 0.000000 0.000000 
#    y 0.000000 1.650090 0.000000 
#    z 0.000000 0.000000 1.630930 
# 
# From -- ./inp_files/10703.got.cif
#   From: 2010.05.17/outbox.cif.g08.bks.cpg/sg41_6_cif.got.tgz:10703.got - 2010.06.03 18:54:24.
