data_PCOD9365121
_publ_section_title
;
Structure prediction by ZEFSAII (Michael W. Deem and Ramdas Pophale) SiO2 
 PCOD9365121
Probable space group: A M A 2
;
_chemical_formula_sum "Si O2"
_cell_formula_units_Z 36
_cell_length_a 20.549925
_cell_length_b 5.586475
_cell_length_c 12.142401
_cell_angle_alpha 90.000000
_cell_angle_beta 90.000000
_cell_angle_gamma 90.000000
_cell_volume 1393.967576
_symmetry_space_group_name_H-M "A M A 2"
_symmetry_group_IT_number 40
_symmetry_cell_setting 'orthorhombic'
loop_
_space_group_symop_operation_xyz
x,y,z
-x,-y,z
1/2-x,y,z
1/2+x,-y,z
x,1/2+y,1/2+z
-x,1/2-y,1/2+z
1/2-x,1/2+y,1/2+z
1/2+x,1/2-y,1/2+z
loop_
_atom_site_type_symbol
_atom_site_label
_atom_site_fract_x
_atom_site_fract_y
_atom_site_fract_z
Si Si1 0.578581 0.338284 0.501890
Si Si2 0.177886 0.566131 0.084886
Si Si3 0.880390 0.530945 0.724285
Si Si4 0.500000 0.500000 0.889933
Si Si5 0.321784 0.382769 0.364121
O O1 0.581142 0.496869 0.610123
O O2 0.509322 0.233334 0.465006
O O3 0.618042 0.447524 0.398394
O O4 0.622079 0.116881 0.549030
O O5 0.250000 0.456004 0.096667
O O6 0.160227 0.730392 0.191339
O O7 0.182430 0.734158 0.978032
O O8 0.936371 0.516098 0.815904
O O9 0.835743 0.307931 0.766010
O O10 0.250000 0.495952 0.352686
#
# Coordination Sequence:
#
# PCOD9365121 Si02
#       5
#     8   8   8   4   8
#     4  11  26  44  69 102 138 187 235 297 356 428
#     4  10  22  45  71 105 139 175 237 299 360 431
#     4  11  26  44  69 101 138 190 234 293 361 429
#     4  12  28  46  66  98 142 188 240 280 354 442
#     4  10  22  44  71 103 139 178 234 297 362 426
#
# _framework density 25.825562999999999
#
# number of rings (size 3 to 8) (size 9 to 14) (size 15 to 20)
#    0.000    1.333    2.222    1.333    6.222    3.556 
#    0.000    0.000    0.000    0.000    0.000    0.000 
#    0.000    0.000    0.000    0.000    0.000    0.000 
#
# Total GULP energy -100570.753119 kJ/mol
# GULP energy per Si atom -5587.264062 kJ/mol
# Density = 2.576678 g / cm^3
# Si number density = 25.825563 Si / 1000 Ang^3
#
#
#
# Elastic Constant Matrix: (Units=GPa)
#
#
# Indices 1 2 3 4 5 6 
#
# 1 112.8512 28.7495 26.8320 0.0000 0.0000 0.0000
# 2 28.7495 61.0760 6.3233 0.0000 0.0000 0.0000
# 3 26.8320 6.3233 155.7198 0.0000 0.0000 0.0000
# 4 0.0000 0.0000 0.0000 61.0314 0.0000 0.0000
# 5 0.0000 0.0000 0.0000 0.0000 27.4476 0.0000
# 6 0.0000 0.0000 0.0000 0.0000 0.0000 40.2004
#
#
#
# Elastic Compliance Matrix: (Units=1/GPa)
#
#
# Indices 1 2 3 4 5 6 
#
# 1 0.010455 -0.004755 -0.001608 0.000000 0.000000 0.000000
# 2 -0.004755 0.018605 0.000064 0.000000 0.000000 0.000000
# 3 -0.001608 0.000064 0.006696 0.000000 0.000000 0.000000
# 4 0.000000 0.000000 0.000000 0.016385 0.000000 0.000000
# 5 0.000000 0.000000 0.000000 0.000000 0.036433 0.000000
# 6 0.000000 0.000000 0.000000 0.000000 0.000000 0.024875
#
#
# Mechanical properties :
#
#
# Convention : Reuss Voigt Hill
#
# Bulk Modulus (GPa) = 43.18329 50.38409 46.78369
# Shear Modulus (GPa) = 37.37837 43.58535 40.48186
#
# Velocity S-wave (km/s) = 3.80852 4.11260 3.96348
# Velocity P-wave (km/s) = 6.00809 6.48868 6.25301
#
# Compressibility (1/GPa) = 0.02315711
#
# Stress axis : x y z
#
# Youngs Moduli (GPa) = 95.64835 53.75014 149.33517
#
# Poissons Ratio (x) = 0.25557 0.24019
# Poissons Ratio (y) = 0.45479 -0.00953
# Poissons Ratio (z) = 0.15384 -0.00343
#
# Static dielectric constant tensor:
#      x y z
#    x 1.965450 0.000000 0.000000 
#    y 0.000000 2.135800 0.000000 
#    z 0.000000 0.000000 2.043880 
# 
# From -- ./inp_files/13814.got.cif
#   From: 2010.05.17/outbox.cif.g08.bks.cpg/sg40_7_cif.got.tgz:13814.got - 2010.06.03 18:35:42.
