data_PCOD9365747
_publ_section_title
;
Structure prediction by ZEFSAII (Michael W. Deem and Ramdas Pophale) SiO2 
 PCOD9365747
Probable space group: A B A 2
;
_chemical_formula_sum "Si O2"
_cell_formula_units_Z 44
_cell_length_a 20.979172
_cell_length_b 16.242976
_cell_length_c 5.033927
_cell_angle_alpha 90.000000
_cell_angle_beta 90.000000
_cell_angle_gamma 90.000000
_cell_volume 1715.382043
_symmetry_space_group_name_H-M "A B A 2"
_symmetry_group_IT_number 41
_symmetry_cell_setting 'orthorhombic'
loop_
_space_group_symop_operation_xyz
x,y,z
-x,-y,z
1/2-x,y,1/2+z
1/2+x,-y,1/2+z
x,1/2+y,1/2+z
-x,1/2-y,1/2+z
1/2-x,1/2+y,z
1/2+x,1/2-y,z
loop_
_atom_site_type_symbol
_atom_site_label
_atom_site_fract_x
_atom_site_fract_y
_atom_site_fract_z
Si Si1 0.382510 0.556105 0.081890
Si Si2 0.589842 0.236124 0.720795
Si Si3 0.276806 0.972243 0.887928
Si Si4 0.038737 0.845953 0.717303
Si Si5 0.829332 0.870763 0.557816
Si Si6 0.000000 0.000000 0.391231
O O1 0.340608 0.482212 0.214298
O O2 0.360110 0.632253 0.265324
O O3 0.452788 0.543842 0.185730
O O4 0.367392 0.573257 0.776579
O O5 0.568452 0.167952 0.506198
O O6 0.531765 0.303725 0.702601
O O7 0.657664 0.280021 0.666409
O O8 0.584181 0.201169 0.012608
O O9 0.227972 0.933194 0.677590
O O10 0.269185 0.069571 0.991500
O O11 0.032345 0.935483 0.590698
#
# Coordination Sequence:
#
# PCOD9365747 Si02
#       6
#     8   8   8   8   8   4
#     4  10  22  32  56  85 121 150 184 255 300 362
#     4  10  20  37  52  79 106 160 189 235 285 347
#     4  10  17  34  57  85 110 143 196 256 312 347
#     4  10  22  33  56  74 117 156 199 227 280 345
#     4  10  19  35  54  82 114 146 191 251 292 358
#     4  12  24  40  54  94 128 166 202 252 302 360
#
# _framework density 25.650262999999999
#
# number of rings (size 3 to 8) (size 9 to 14) (size 15 to 20)
#    1.091    0.727    3.636    1.091    5.091    2.909 
#    0.000    0.000    0.000    0.000    0.000    7.636 
#    0.000    0.000    0.000    0.000    0.000    0.000 
#
# Total GULP energy -122497.170675 kJ/mol
# GULP energy per Si atom -5568.053213 kJ/mol
# Density = 2.559188 g / cm^3
# Si number density = 25.650263 Si / 1000 Ang^3
#
#
#
# Elastic Constant Matrix: (Units=GPa)
#
#
# Indices 1 2 3 4 5 6 
#
# 1 26.4177 7.6838 26.4342 0.0000 0.0000 0.0000
# 2 7.6838 49.7531 18.4617 0.0000 0.0000 0.0000
# 3 26.4342 18.4617 160.5168 0.0000 0.0000 0.0000
# 4 0.0000 0.0000 0.0000 23.9999 0.0000 0.0000
# 5 0.0000 0.0000 0.0000 0.0000 23.7997 0.0000
# 6 0.0000 0.0000 0.0000 0.0000 0.0000 3.1364
#
#
#
# Elastic Compliance Matrix: (Units=1/GPa)
#
#
# Indices 1 2 3 4 5 6 
#
# 1 0.046271 -0.004511 -0.007101 0.000000 0.000000 0.000000
# 2 -0.004511 0.021435 -0.001722 0.000000 0.000000 0.000000
# 3 -0.007101 -0.001722 0.007597 0.000000 0.000000 0.000000
# 4 0.000000 0.000000 0.000000 0.041667 0.000000 0.000000
# 5 0.000000 0.000000 0.000000 0.000000 0.042017 0.000000
# 6 0.000000 0.000000 0.000000 0.000000 0.000000 0.318833
#
#
# Mechanical properties :
#
#
# Convention : Reuss Voigt Hill
#
# Bulk Modulus (GPa) = 20.56161 37.98299 29.27230
# Shear Modulus (GPa) = 9.60243 22.46108 16.03176
#
# Velocity S-wave (km/s) = 1.93694 2.96238 2.50274
# Velocity P-wave (km/s) = 3.61052 5.15180 4.44842
#
# Compressibility (1/GPa) = 0.04863433
#
# Stress axis : x y z
#
# Youngs Moduli (GPa) = 21.61176 46.65251 131.62365
#
# Poissons Ratio (x) = 0.21045 0.93468
# Poissons Ratio (y) = 0.09749 0.22672
# Poissons Ratio (z) = 0.15347 0.08036
#
# Static dielectric constant tensor:
#      x y z
#    x 2.263410 0.000000 0.000000 
#    y 0.000000 2.111490 0.000000 
#    z 0.000000 0.000000 1.994310 
# 
# From -- ./inp_files/1300.got.cif
#   From: 2010.05.17/outbox.cif.g08.bks.cpg/sg41_1_cif.got.tgz:1300.got - 2010.06.03 18:54:24.
