data_PCOD9365919
_publ_section_title
;
Structure prediction by ZEFSAII (Michael W. Deem and Ramdas Pophale) SiO2 
 PCOD9365919
Probable space group: A B A 2
;
_chemical_formula_sum "Si O2"
_cell_formula_units_Z 60
_cell_length_a 27.863450
_cell_length_b 15.295086
_cell_length_c 5.846637
_cell_angle_alpha 90.000000
_cell_angle_beta 90.000000
_cell_angle_gamma 90.000000
_cell_volume 2491.683882
_symmetry_space_group_name_H-M "A B A 2"
_symmetry_group_IT_number 41
_symmetry_cell_setting 'orthorhombic'
loop_
_space_group_symop_operation_xyz
x,y,z
-x,-y,z
1/2-x,y,1/2+z
1/2+x,-y,1/2+z
x,1/2+y,1/2+z
-x,1/2-y,1/2+z
1/2-x,1/2+y,z
1/2+x,1/2-y,z
loop_
_atom_site_type_symbol
_atom_site_label
_atom_site_fract_x
_atom_site_fract_y
_atom_site_fract_z
Si Si1 0.500000 0.500000 0.750000
Si Si2 0.072946 0.928050 0.405105
Si Si3 0.874681 0.948325 0.116956
Si Si4 0.444359 0.658338 0.895038
Si Si5 0.228307 0.516478 0.803568
Si Si6 0.046888 0.284946 0.532907
Si Si7 0.738492 0.184161 0.323177
Si Si8 0.368950 0.878883 0.290009
O O1 0.467097 0.440478 0.593976
O O2 0.466543 0.561908 0.893630
O O3 0.055509 0.859067 0.223263
O O4 0.122059 0.898112 0.524411
O O5 0.084996 0.020097 0.294313
O O6 0.824413 0.948237 0.246251
O O7 0.893535 0.857049 0.014228
O O8 0.871078 0.028608 0.930053
O O9 0.437687 0.693614 0.640482
O O10 0.489871 0.714396 0.984211
O O11 0.256839 0.542157 0.565644
O O12 0.233950 0.410190 0.809722
O O13 0.086242 0.315756 0.350699
O O14 0.752301 0.225939 0.570403
O O15 0.681933 0.163397 0.336702
#
# Coordination Sequence:
#
# PCOD9365919 Si02
#       8
#     4   8   8   8   8   8   8   8
#     4  12  20  38  66  88 122 166 226 284 336 386
#     4  11  21  38  61  93 127 165 219 287 336 412
#     4  11  22  36  65  97 127 168 235 285 346 410
#     4  12  24  45  62  93 132 181 230 286 348 425
#     4  10  19  34  60  98 135 169 214 295 358 414
#     4  11  26  42  61  88 138 181 226 271 353 433
#     4  10  19  33  60  97 135 170 219 287 349 414
#     4  11  21  38  64  97 128 173 224 281 341 421
#
# _framework density 24.080100999999999
#
# number of rings (size 3 to 8) (size 9 to 14) (size 15 to 20)
#    0.000    1.067    5.333    4.000    1.867    0.000 
#    0.000    0.000    0.000    1.600    0.000    0.000 
#    0.000    0.000    0.000    0.000    0.000    0.000 
#
# Total GULP energy -167482.686117 kJ/mol
# GULP energy per Si atom -5582.756204 kJ/mol
# Density = 2.402529 g / cm^3
# Si number density = 24.080101 Si / 1000 Ang^3
#
#
#
# Elastic Constant Matrix: (Units=GPa)
#
#
# Indices 1 2 3 4 5 6 
#
# 1 93.9582 11.7982 28.5570 0.0000 0.0000 0.0000
# 2 11.7982 45.5197 15.2545 0.0000 0.0000 0.0000
# 3 28.5570 15.2545 114.7572 0.0000 0.0000 0.0000
# 4 0.0000 0.0000 0.0000 34.8165 0.0000 0.0000
# 5 0.0000 0.0000 0.0000 0.0000 34.3893 0.0000
# 6 0.0000 0.0000 0.0000 0.0000 0.0000 3.0313
#
#
#
# Elastic Compliance Matrix: (Units=1/GPa)
#
#
# Indices 1 2 3 4 5 6 
#
# 1 0.011712 -0.002155 -0.002628 0.000000 0.000000 0.000000
# 2 -0.002155 0.023389 -0.002573 0.000000 0.000000 0.000000
# 3 -0.002628 -0.002573 0.009710 0.000000 0.000000 0.000000
# 4 0.000000 0.000000 0.000000 0.028722 0.000000 0.000000
# 5 0.000000 0.000000 0.000000 0.000000 0.029079 0.000000
# 6 0.000000 0.000000 0.000000 0.000000 0.000000 0.329889
#
#
# Mechanical properties :
#
#
# Convention : Reuss Voigt Hill
#
# Bulk Modulus (GPa) = 33.22283 40.60608 36.91445
# Shear Modulus (GPa) = 10.93501 27.68912 19.31207
#
# Velocity S-wave (km/s) = 2.13330 3.39466 2.83502
# Velocity P-wave (km/s) = 4.46035 5.68018 5.10682
#
# Compressibility (1/GPa) = 0.03009979
#
# Stress axis : x y z
#
# Youngs Moduli (GPa) = 85.37951 42.75464 102.98594
#
# Poissons Ratio (x) = 0.09214 0.27066
# Poissons Ratio (y) = 0.18399 0.26497
# Poissons Ratio (z) = 0.22439 0.11000
#
# Static dielectric constant tensor:
#      x y z
#    x 1.921590 0.000000 0.000000 
#    y 0.000000 1.939400 0.000000 
#    z 0.000000 0.000000 1.998650 
# 
# From -- ./inp_files/1188.got.cif
#   From: 2010.05.17/outbox.cif.g08.bks.cpg/sg41_1_cif.got.tgz:1188.got - 2010.06.03 18:54:24.
