data_PCOD9365338
_publ_section_title
;
Structure prediction by ZEFSAII (Michael W. Deem and Ramdas Pophale) SiO2 
 PCOD9365338
Probable space group: A M A 2
;
_chemical_formula_sum "Si O2"
_cell_formula_units_Z 28
_cell_length_a 19.958481
_cell_length_b 7.120960
_cell_length_c 7.418247
_cell_angle_alpha 90.000000
_cell_angle_beta 90.000000
_cell_angle_gamma 90.000000
_cell_volume 1054.307560
_symmetry_space_group_name_H-M "A M A 2"
_symmetry_group_IT_number 40
_symmetry_cell_setting 'orthorhombic'
loop_
_space_group_symop_operation_xyz
x,y,z
-x,-y,z
1/2-x,y,z
1/2+x,-y,z
x,1/2+y,1/2+z
-x,1/2-y,1/2+z
1/2-x,1/2+y,1/2+z
1/2+x,1/2-y,1/2+z
loop_
_atom_site_type_symbol
_atom_site_label
_atom_site_fract_x
_atom_site_fract_y
_atom_site_fract_z
Si Si1 0.397077 0.277277 0.509590
Si Si2 0.500000 0.000000 0.552798
Si Si3 0.250000 0.248327 0.635172
Si Si4 0.750000 0.328574 0.541840
Si Si5 0.898103 0.283839 0.594707
O O1 0.320094 0.215786 0.535925
O O2 0.554621 0.148898 0.478558
O O3 0.403724 0.497522 0.547873
O O4 0.445719 0.148410 0.629306
O O5 0.582655 0.756995 0.303012
O O6 0.250000 0.476995 0.653404
O O7 0.250000 0.142411 0.825707
O O8 0.820054 0.228695 0.578681
#
# Coordination Sequence:
#
# PCOD9365338 Si02
#       5
#     8   4   4   4   8
#     4  11  28  50  78 115 157 205 262 321 389 460
#     4  12  30  42  86 102 172 198 268 304 404 460
#     4  10  25  49  83 113 152 200 262 325 383 453
#     4  10  25  49  83 113 152 200 262 325 383 453
#     4  11  28  50  78 115 157 205 262 321 389 460
#
# _framework density 26.557715000000002
#
# number of rings (size 3 to 8) (size 9 to 14) (size 15 to 20)
#    0.000    1.143    0.000    1.714   24.000    1.143 
#    0.000    0.000    0.000    0.000    0.000    0.000 
#    0.000    0.000    0.000    0.000    0.000    0.000 
#
# Total GULP energy -78278.913628 kJ/mol
# GULP energy per Si atom -5591.350973 kJ/mol
# Density = 2.649727 g / cm^3
# Si number density = 26.557715 Si / 1000 Ang^3
#
#
#
# Elastic Constant Matrix: (Units=GPa)
#
#
# Indices 1 2 3 4 5 6 
#
# 1 262.9656 80.3724 9.5670 0.0000 0.0000 0.0000
# 2 80.3724 212.5036 43.9945 0.0000 0.0000 0.0000
# 3 9.5670 43.9945 124.8300 0.0000 0.0000 0.0000
# 4 0.0000 0.0000 0.0000 33.2087 0.0000 0.0000
# 5 0.0000 0.0000 0.0000 0.0000 9.6639 0.0000
# 6 0.0000 0.0000 0.0000 0.0000 0.0000 53.2664
#
#
#
# Elastic Compliance Matrix: (Units=1/GPa)
#
#
# Indices 1 2 3 4 5 6 
#
# 1 0.004308 -0.001684 0.000263 0.000000 0.000000 0.000000
# 2 -0.001684 0.005734 -0.001892 0.000000 0.000000 0.000000
# 3 0.000263 -0.001892 0.008658 0.000000 0.000000 0.000000
# 4 0.000000 0.000000 0.000000 0.030113 0.000000 0.000000
# 5 0.000000 0.000000 0.000000 0.000000 0.103478 0.000000
# 6 0.000000 0.000000 0.000000 0.000000 0.000000 0.018774
#
#
# Mechanical properties :
#
#
# Convention : Reuss Voigt Hill
#
# Bulk Modulus (GPa) = 82.81742 96.46300 89.64021
# Shear Modulus (GPa) = 27.51577 50.31881 38.91729
#
# Velocity S-wave (km/s) = 3.22230 4.35753 3.83219
# Velocity P-wave (km/s) = 6.71535 7.85610 7.30802
#
# Compressibility (1/GPa) = 0.01207475
#
# Stress axis : x y z
#
# Youngs Moduli (GPa) = 232.13520 174.38830 115.50674
#
# Poissons Ratio (x) = 0.29364 -0.03041
# Poissons Ratio (y) = 0.39087 0.21853
# Poissons Ratio (z) = -0.06112 0.32993
#
# Static dielectric constant tensor:
#      x y z
#    x 2.042050 0.000000 0.000000 
#    y 0.000000 2.067580 0.000000 
#    z 0.000000 0.000000 2.231210 
# 
# From -- ./inp_files/7057.got.cif
#   From: 2010.05.17/outbox.cif.g08.bks.cpg/sg40_4_cif.got.tgz:7057.got - 2010.06.03 18:35:42.
