data_PCOD9365611
_publ_section_title
;
Structure prediction by ZEFSAII (Michael W. Deem and Ramdas Pophale) SiO2 
 PCOD9365611
Probable space group: A M A 2
;
_chemical_formula_sum "Si O2"
_cell_formula_units_Z 28
_cell_length_a 9.000000
_cell_length_b 21.000000
_cell_length_c 18.000000
_cell_angle_alpha 90.000000
_cell_angle_beta 90.000000
_cell_angle_gamma 90.000000
_cell_volume 3402.000000
_symmetry_space_group_name_H-M "A M A 2"
_symmetry_group_IT_number 40
_symmetry_cell_setting 'orthorhombic'
loop_
_space_group_symop_operation_xyz
x,y,z
-x,-y,z
1/2-x,y,z
1/2+x,-y,z
x,1/2+y,1/2+z
-x,1/2-y,1/2+z
1/2-x,1/2+y,1/2+z
1/2+x,1/2-y,1/2+z
loop_
_atom_site_type_symbol
_atom_site_label
_atom_site_fract_x
_atom_site_fract_y
_atom_site_fract_z
Si Si1 0.928170 0.777736 0.137770
Si Si2 0.422863 0.815342 0.989201
Si Si3 0.920769 0.832883 0.435916
Si Si4 0.573798 0.565424 0.226125
Si Si5 0.580054 0.198197 0.290791
Si Si6 0.429581 0.641009 0.098380
Si Si7 0.079129 0.654197 0.342344
O O1 0.750000 0.774207 0.133311
O O2 0.981086 0.804922 0.216893
O O3 0.998555 0.707060 0.127520
O O4 0.996824 0.816668 0.068638
O O5 0.250000 0.834768 0.993573
O O6 0.423253 0.741265 0.962298
O O7 0.514998 0.850663 0.925342
O O8 0.750000 0.848728 0.418672
O O9 0.967546 0.868083 0.511518
O O10 0.017789 0.839310 0.362204
O O11 0.500000 0.500000 0.250891
O O12 0.750000 0.560902 0.217877
O O13 0.495772 0.586495 0.149695
O O14 0.528030 0.617613 0.286650
O O15 0.750000 0.180859 0.273881
O O16 0.578881 0.272047 0.317111
O O17 0.250000 0.645729 0.104818
O O18 0.250000 0.631712 0.337087
#
# Coordination Sequence:
#
# PCOD9365611 Si02
#       7
#     8   8   8   8   8   8   8
#     4  11  19  27  43  66  93 124 158 189 229 278
#     4   9  17  29  44  63  89 119 154 189 229 276
#     4   8  16  28  43  62  87 117 150 186 226 275
#     4  12  24  36  51  69  91 122 161 201 239 278
#     4  10  18  27  43  65  93 123 154 189 227 274
#     4  10  19  33  48  64  89 119 154 195 237 278
#     4  10  19  32  48  65  90 120 155 194 235 278
#
# _framework density 8.2304530000000007
#
# number of rings (size 3 to 8) (size 9 to 14) (size 15 to 20)
#    0.000    2.000    1.429    5.143    0.000    5.143 
#    0.000    0.000    0.000    0.000    0.000    0.000 
#    0.000    1.143    0.000    8.000    0.000    6.286 
#
# Total GULP energy -156119.309926 kJ/mol
# GULP energy per Si atom -5575.689640 kJ/mol
# Density = 0.821172 g / cm^3
# Si number density = 8.230453 Si / 1000 Ang^3
#
#
#
# Elastic Constant Matrix: (Units=GPa)
#
#
# Indices 1 2 3 4 5 6 
#
# 1 117.8873 0.9441 50.7408 0.0000 0.0000 0.0000
# 2 0.9441 6.7185 -1.1685 0.0000 0.0000 0.0000
# 3 50.7408 -1.1685 105.6388 0.0000 0.0000 0.0000
# 4 0.0000 0.0000 0.0000 3.4454 0.0000 0.0000
# 5 0.0000 0.0000 0.0000 0.0000 30.9780 0.0000
# 6 0.0000 0.0000 0.0000 0.0000 0.0000 14.9800
#
#
#
# Elastic Compliance Matrix: (Units=1/GPa)
#
#
# Indices 1 2 3 4 5 6 
#
# 1 0.010732 -0.002409 -0.005182 0.000000 0.000000 0.000000
# 2 -0.002409 0.149671 0.002813 0.000000 0.000000 0.000000
# 3 -0.005182 0.002813 0.011986 0.000000 0.000000 0.000000
# 4 0.000000 0.000000 0.000000 0.290240 0.000000 0.000000
# 5 0.000000 0.000000 0.000000 0.000000 0.032281 0.000000
# 6 0.000000 0.000000 0.000000 0.000000 0.000000 0.066756
#
#
# Mechanical properties :
#
#
# Convention : Reuss Voigt Hill
#
# Bulk Modulus (GPa) = 6.14127 36.80861 21.47494
# Shear Modulus (GPa) = 7.99361 21.86255 14.92808
#
# Velocity S-wave (km/s) = 2.20605 3.64833 3.01471
# Velocity P-wave (km/s) = 3.19809 6.33695 5.01920
#
# Compressibility (1/GPa) = 0.16283269
#
# Stress axis : x y z
#
# Youngs Moduli (GPa) = 93.17728 6.68134 83.42943
#
# Poissons Ratio (x) = 0.01610 0.43230
# Poissons Ratio (y) = 0.22449 -0.23467
# Poissons Ratio (z) = 0.48281 -0.01879
#
# Static dielectric constant tensor:
#      x y z
#    x 1.548260 0.000000 0.000000 
#    y 0.000000 1.551930 0.000000 
#    z 0.000000 0.000000 1.570810 
# 
# From -- ./inp_files/19479.got.cif
#   From: 2010.05.17/outbox.ucp.g08.bks.cvg/sg40_10_cif.got.tgz:19479.got - 2010.06.11 16:26:39.
