data_PCOD9365811
_publ_section_title
;
Structure prediction by ZEFSAII (Michael W. Deem and Ramdas Pophale) SiO2 
 PCOD9365811
Probable space group: A B A 2
;
_chemical_formula_sum "Si O2"
_cell_formula_units_Z 52
_cell_length_a 9.973750
_cell_length_b 22.142330
_cell_length_c 9.092086
_cell_angle_alpha 90.000000
_cell_angle_beta 90.000000
_cell_angle_gamma 90.000000
_cell_volume 2007.915037
_symmetry_space_group_name_H-M "A B A 2"
_symmetry_group_IT_number 41
_symmetry_cell_setting 'orthorhombic'
loop_
_space_group_symop_operation_xyz
x,y,z
-x,-y,z
1/2-x,y,1/2+z
1/2+x,-y,1/2+z
x,1/2+y,1/2+z
-x,1/2-y,1/2+z
1/2-x,1/2+y,z
1/2+x,1/2-y,z
loop_
_atom_site_type_symbol
_atom_site_label
_atom_site_fract_x
_atom_site_fract_y
_atom_site_fract_z
Si Si1 0.182624 0.045219 0.406850
Si Si2 0.248660 0.967146 0.679573
Si Si3 0.808512 0.798966 0.194973
Si Si4 0.433629 0.656473 0.499641
Si Si5 0.164537 0.335857 0.204038
Si Si6 0.500000 0.000000 0.394674
Si Si7 0.554396 0.874106 0.447613
O O1 0.065745 0.084494 0.476990
O O2 0.301719 0.096652 0.392201
O O3 0.223866 0.993468 0.519865
O O4 0.148360 0.012409 0.257473
O O5 0.256342 0.895150 0.692385
O O6 0.119399 0.986955 0.778659
O O7 0.882383 0.814987 0.347971
O O8 0.769892 0.729068 0.219277
O O9 0.671419 0.827802 0.130106
O O10 0.910895 0.824102 0.068976
O O11 0.580391 0.672696 0.553470
O O12 0.052553 0.348460 0.330638
O O13 0.496045 0.939406 0.492308
#
# Coordination Sequence:
#
# PCOD9365811 Si02
#       7
#     8   8   8   8   8   4   8
#     4  10  18  35  59  86 113 152 203 246 306 363
#     4  10  20  34  58  86 119 156 198 258 309 364
#     4  11  23  39  63  90 121 164 211 255 307 373
#     4  11  22  39  64  88 120 163 209 257 305 369
#     4  11  23  41  61  88 125 167 209 254 309 369
#     4   8  16  34  58  82 116 156 202 254 312 356
#     4   9  18  36  60  84 116 157 201 251 302 361
#
# _framework density 25.897508999999999
#
# number of rings (size 3 to 8) (size 9 to 14) (size 15 to 20)
#    0.000    1.846    0.000    7.385    0.000    1.231 
#    0.000    7.692    0.000    0.923    0.000    0.000 
#    0.000    0.000    0.000    0.000    0.000    0.000 
#
# Total GULP energy -145068.178625 kJ/mol
# GULP energy per Si atom -5579.545332 kJ/mol
# Density = 2.583857 g / cm^3
# Si number density = 25.897509 Si / 1000 Ang^3
#
#
#
# Elastic Constant Matrix: (Units=GPa)
#
#
# Indices 1 2 3 4 5 6 
#
# 1 40.3278 -6.7129 9.7623 0.0000 0.0000 0.0000
# 2 -6.7129 155.2357 43.5057 0.0000 0.0000 0.0000
# 3 9.7623 43.5057 117.6558 0.0000 0.0000 0.0000
# 4 0.0000 0.0000 0.0000 24.8002 0.0000 0.0000
# 5 0.0000 0.0000 0.0000 0.0000 14.2129 0.0000
# 6 0.0000 0.0000 0.0000 0.0000 0.0000 -22.1097
#
#
#
# Elastic Compliance Matrix: (Units=1/GPa)
#
#
# Indices 1 2 3 4 5 6 
#
# 1 0.025805 0.001914 -0.002849 0.000000 0.000000 0.000000
# 2 0.001914 0.007329 -0.002869 0.000000 0.000000 0.000000
# 3 -0.002849 -0.002869 0.009797 0.000000 0.000000 0.000000
# 4 0.000000 0.000000 0.000000 0.040322 0.000000 0.000000
# 5 0.000000 0.000000 0.000000 0.000000 0.070359 0.000000
# 6 0.000000 0.000000 0.000000 0.000000 0.000000 -0.045229
#
#
# Mechanical properties :
#
#
# Convention : Reuss Voigt Hill
#
# Bulk Modulus (GPa) = 28.30982 45.14773 36.72877
# Shear Modulus (GPa) = 39.13488 21.15831 30.14659
#
# Velocity S-wave (km/s) = 3.89156 2.86142 3.41555
# Velocity P-wave (km/s) = 5.58100 5.32805 5.45599
#
# Compressibility (1/GPa) = 0.03532344
#
# Stress axis : x y z
#
# Youngs Moduli (GPa) = 38.75201 136.45200 102.07687
#
# Poissons Ratio (x) = -0.26122 0.29082
# Poissons Ratio (y) = -0.07419 0.29283
# Poissons Ratio (z) = 0.11041 0.39145
#
# Static dielectric constant tensor:
#      x y z
#    x 2.226110 0.000000 0.000000 
#    y 0.000000 2.113560 0.000000 
#    z 0.000000 0.000000 2.010760 
# 
# From -- ./inp_files/2623.got.cif
#   From: 2010.05.17/outbox.cif.g08.bks.cpg/sg41_2_cif.got.tgz:2623.got - 2010.06.03 18:54:24.
