data_PCOD9365031
_publ_section_title
;
Structure prediction by ZEFSAII (Michael W. Deem and Ramdas Pophale) SiO2 
 PCOD9365031
Probable space group: A M A 2
;
_chemical_formula_sum "Si O2"
_cell_formula_units_Z 48
_cell_length_a 26.288660
_cell_length_b 15.009215
_cell_length_c 5.730098
_cell_angle_alpha 90.000000
_cell_angle_beta 90.000000
_cell_angle_gamma 90.000000
_cell_volume 2260.937088
_symmetry_space_group_name_H-M "A M A 2"
_symmetry_group_IT_number 40
_symmetry_cell_setting 'orthorhombic'
loop_
_space_group_symop_operation_xyz
x,y,z
-x,-y,z
1/2-x,y,z
1/2+x,-y,z
x,1/2+y,1/2+z
-x,1/2-y,1/2+z
1/2-x,1/2+y,1/2+z
1/2+x,1/2-y,1/2+z
loop_
_atom_site_type_symbol
_atom_site_label
_atom_site_fract_x
_atom_site_fract_y
_atom_site_fract_z
Si Si1 0.840955 0.766587 0.705530
Si Si2 0.750000 0.898818 0.744568
Si Si3 0.443850 0.243512 0.458844
Si Si4 0.806511 0.106574 0.925440
Si Si5 0.614591 0.646308 0.081306
Si Si6 0.020676 0.900341 0.279779
Si Si7 0.750000 0.492551 0.741415
O O1 0.802783 0.846159 0.733761
O O2 0.898588 0.786176 0.631155
O O3 0.817279 0.706718 0.500115
O O4 0.845819 0.703779 0.930542
O O5 0.750000 0.954723 0.499759
O O6 0.750000 0.928316 0.016539
O O7 0.417734 0.279892 0.224111
O O8 0.481112 0.160642 0.425271
O O9 0.469279 0.333620 0.562280
O O10 0.750000 0.099694 0.816464
O O11 0.853073 0.083978 0.757137
O O12 0.799247 0.052106 0.167118
O O13 0.574368 0.595672 0.917774
O O14 0.000000 0.000000 0.232077
#
# Coordination Sequence:
#
# PCOD9365031 Si02
#       7
#     8   4   8   8   8   8   4
#     4  10  23  39  70  93 132 188 230 283 364 430
#     4  12  25  43  64 104 144 187 238 283 363 427
#     4  10  22  45  63 101 141 172 236 305 359 432
#     4   9  21  41  65  92 134 183 222 282 346 428
#     4  10  22  41  71  95 130 182 234 295 365 426
#     4  11  23  43  73  99 136 185 234 297 369 440
#     4  10  27  39  64  98 148 177 226 305 333 421
#
# _framework density 21.230135000000001
#
# number of rings (size 3 to 8) (size 9 to 14) (size 15 to 20)
#    0.500    1.333    2.500    0.000    8.167    2.000 
#    6.000    0.000    0.000    0.000    0.000    0.000 
#    0.000    0.000    0.000    0.000    0.000    0.000 
#
# Total GULP energy -133628.141918 kJ/mol
# GULP energy per Si atom -5567.839247 kJ/mol
# Density = 2.118181 g / cm^3
# Si number density = 21.230135 Si / 1000 Ang^3
#
#
#
# Elastic Constant Matrix: (Units=GPa)
#
#
# Indices 1 2 3 4 5 6 
#
# 1 91.8305 58.6055 40.4109 0.0000 0.0000 0.0000
# 2 58.6055 100.1073 43.7624 0.0000 0.0000 0.0000
# 3 40.4109 43.7624 82.0407 0.0000 0.0000 0.0000
# 4 0.0000 0.0000 0.0000 21.7572 0.0000 0.0000
# 5 0.0000 0.0000 0.0000 0.0000 31.8596 0.0000
# 6 0.0000 0.0000 0.0000 0.0000 0.0000 13.5974
#
#
#
# Elastic Compliance Matrix: (Units=1/GPa)
#
#
# Indices 1 2 3 4 5 6 
#
# 1 0.018504 -0.008931 -0.004351 0.000000 0.000000 0.000000
# 2 -0.008931 0.017337 -0.004849 0.000000 0.000000 0.000000
# 3 -0.004351 -0.004849 0.016919 0.000000 0.000000 0.000000
# 4 0.000000 0.000000 0.000000 0.045962 0.000000 0.000000
# 5 0.000000 0.000000 0.000000 0.000000 0.031388 0.000000
# 6 0.000000 0.000000 0.000000 0.000000 0.000000 0.073543
#
#
# Mechanical properties :
#
#
# Convention : Reuss Voigt Hill
#
# Bulk Modulus (GPa) = 60.60992 62.17065 61.39028
# Shear Modulus (GPa) = 20.37386 22.18951 21.28169
#
# Velocity S-wave (km/s) = 3.10121 3.23645 3.16955
# Velocity P-wave (km/s) = 6.43695 6.58133 6.50954
#
# Compressibility (1/GPa) = 0.01649895
#
# Stress axis : x y z
#
# Youngs Moduli (GPa) = 54.04366 57.67895 59.10633
#
# Poissons Ratio (x) = 0.51511 0.25714
# Poissons Ratio (y) = 0.48264 0.28662
# Poissons Ratio (z) = 0.23512 0.27969
#
# Static dielectric constant tensor:
#      x y z
#    x 1.836990 0.000000 0.000000 
#    y 0.000000 1.798470 0.000000 
#    z 0.000000 0.000000 1.834610 
# 
# From -- ./inp_files/3109.got.cif
#   From: 2010.05.17/outbox.cif.g08.bks.cpg/sg40_2_cif.got.tgz:3109.got - 2010.06.03 18:35:42.
