data_PCOD9365562
_publ_section_title
;
Structure prediction by ZEFSAII (Michael W. Deem and Ramdas Pophale) SiO2 
 PCOD9365562
Probable space group: A M A 2
;
_chemical_formula_sum "Si O2"
_cell_formula_units_Z 56
_cell_length_a 31.837277
_cell_length_b 14.300963
_cell_length_c 5.589509
_cell_angle_alpha 90.000000
_cell_angle_beta 90.000000
_cell_angle_gamma 90.000000
_cell_volume 2544.924243
_symmetry_space_group_name_H-M "A M A 2"
_symmetry_group_IT_number 40
_symmetry_cell_setting 'orthorhombic'
loop_
_space_group_symop_operation_xyz
x,y,z
-x,-y,z
1/2-x,y,z
1/2+x,-y,z
x,1/2+y,1/2+z
-x,1/2-y,1/2+z
1/2-x,1/2+y,1/2+z
1/2+x,1/2-y,1/2+z
loop_
_atom_site_type_symbol
_atom_site_label
_atom_site_fract_x
_atom_site_fract_y
_atom_site_fract_z
Si Si1 0.159560 0.394178 0.409380
Si Si2 0.750000 0.311246 0.322342
Si Si3 0.915093 0.603057 0.744090
Si Si4 0.388192 0.249997 0.078489
Si Si5 0.659559 0.894178 0.747570
Si Si6 0.750000 0.688749 0.334584
Si Si7 0.584905 0.896944 0.412875
Si Si8 0.025087 0.249999 0.578494
O O1 0.133753 0.391794 0.658187
O O2 0.139878 0.308231 0.262484
O O3 0.150019 0.499999 0.328468
O O4 0.208650 0.374850 0.369895
O O5 0.708650 0.374845 0.287034
O O6 0.750000 0.249997 0.578463
O O7 0.750000 0.249997 0.078463
O O8 0.926300 0.500001 0.828480
O O9 0.945363 0.656608 0.560334
O O10 0.916653 0.671181 0.966411
O O11 0.416657 0.171181 0.190558
O O12 0.360122 0.191761 0.894498
O O13 0.633750 0.891789 0.498773
O O14 0.554635 0.843397 0.596642
O O15 0.999999 0.243284 0.328497
#
# Coordination Sequence:
#
# PCOD9365562 Si02
#       8
#     8   4   8   8   8   4   8   8
#     4  12  25  44  75 110 150 204 259 309 376 444
#     4  12  27  46  71 109 161 205 255 321 374 432
#     4  12  26  47  79 111 147 203 252 306 381 461
#     4  12  21  45  72 107 150 194 255 306 364 450
#     4  12  25  44  75 110 150 204 259 309 376 444
#     4  12  27  46  71 109 161 205 255 321 374 432
#     4  12  26  47  79 111 147 203 252 306 381 461
#     4  12  29  52  80 112 154 195 243 320 388 455
#
# _framework density 22.004584000000001
#
# number of rings (size 3 to 8) (size 9 to 14) (size 15 to 20)
#    0.000    0.000    7.143    3.000    0.000    0.571 
#    0.000    6.429    0.000    0.000    0.000    0.000 
#    0.000    0.000    0.000    0.000    0.000    0.000 
#
# Total GULP energy -156088.057118 kJ/mol
# GULP energy per Si atom -5574.573469 kJ/mol
# Density = 2.195450 g / cm^3
# Si number density = 22.004584 Si / 1000 Ang^3
#
#
#
# Elastic Constant Matrix: (Units=GPa)
#
#
# Indices 1 2 3 4 5 6 
#
# 1 112.5534 32.4726 29.8944 0.0000 0.0000 0.0000
# 2 32.4726 210.1173 45.5590 0.0000 0.0000 0.0000
# 3 29.8944 45.5590 87.4282 0.0000 0.0000 0.0000
# 4 0.0000 0.0000 0.0000 43.9134 0.0000 0.0000
# 5 0.0000 0.0000 0.0000 0.0000 16.4240 0.0000
# 6 0.0000 0.0000 0.0000 0.0000 0.0000 9.9181
#
#
#
# Elastic Compliance Matrix: (Units=1/GPa)
#
#
# Indices 1 2 3 4 5 6 
#
# 1 0.009921 -0.000899 -0.002924 0.000000 0.000000 0.000000
# 2 -0.000899 0.005447 -0.002531 0.000000 0.000000 0.000000
# 3 -0.002924 -0.002531 0.013756 0.000000 0.000000 0.000000
# 4 0.000000 0.000000 0.000000 0.022772 0.000000 0.000000
# 5 0.000000 0.000000 0.000000 0.000000 0.060886 0.000000
# 6 0.000000 0.000000 0.000000 0.000000 0.000000 0.100825
#
#
# Mechanical properties :
#
#
# Convention : Reuss Voigt Hill
#
# Bulk Modulus (GPa) = 60.91410 69.55008 65.23209
# Shear Modulus (GPa) = 21.57146 34.19598 27.88372
#
# Velocity S-wave (km/s) = 3.13440 3.94641 3.56361
# Velocity P-wave (km/s) = 6.39076 7.24163 6.82946
#
# Compressibility (1/GPa) = 0.01641656
#
# Stress axis : x y z
#
# Youngs Moduli (GPa) = 100.80020 183.58723 72.69296
#
# Poissons Ratio (x) = 0.16510 0.21252
# Poissons Ratio (y) = 0.09065 0.18398
# Poissons Ratio (z) = 0.29469 0.46465
#
# Static dielectric constant tensor:
#      x y z
#    x 1.818250 0.000000 0.000000 
#    y 0.000000 1.851630 0.000000 
#    z 0.000000 0.000000 2.085400 
# 
# From -- ./inp_files/3425.got.cif
#   From: 2010.05.17/outbox.cif.g08.bks.cpg/sg40_2_cif.got.tgz:3425.got - 2010.06.03 18:35:42.
