data_PCOD9365949
_publ_section_title
;
Structure prediction by ZEFSAII (Michael W. Deem and Ramdas Pophale) SiO2 
 PCOD9365949
Probable space group: A B A 2
;
_chemical_formula_sum "Si O2"
_cell_formula_units_Z 60
_cell_length_a 25.675988
_cell_length_b 5.353008
_cell_length_c 18.482934
_cell_angle_alpha 90.000000
_cell_angle_beta 90.000000
_cell_angle_gamma 90.000000
_cell_volume 2540.364114
_symmetry_space_group_name_H-M "A B A 2"
_symmetry_group_IT_number 41
_symmetry_cell_setting 'orthorhombic'
loop_
_space_group_symop_operation_xyz
x,y,z
-x,-y,z
1/2-x,y,1/2+z
1/2+x,-y,1/2+z
x,1/2+y,1/2+z
-x,1/2-y,1/2+z
1/2-x,1/2+y,z
1/2+x,1/2-y,z
loop_
_atom_site_type_symbol
_atom_site_label
_atom_site_fract_x
_atom_site_fract_y
_atom_site_fract_z
Si Si1 0.518344 0.252712 0.757280
Si Si2 0.862310 0.376479 0.447345
Si Si3 0.500000 0.000000 0.018068
Si Si4 0.060374 0.272679 0.391499
Si Si5 0.631483 0.611060 0.310490
Si Si6 0.401287 0.820264 0.092650
Si Si7 0.781913 0.197021 0.019693
Si Si8 0.851829 0.674555 0.654799
O O1 0.500000 0.500000 0.717372
O O2 0.484228 0.261366 0.831179
O O3 0.578423 0.242133 0.778916
O O4 0.500000 0.000000 0.719682
O O5 0.919264 0.463138 0.420364
O O6 0.840081 0.250559 0.375828
O O7 0.868288 0.203820 0.517457
O O8 0.831728 0.622107 0.471840
O O9 0.460709 0.841401 0.067174
O O10 0.538592 0.856175 0.963307
O O11 0.107667 0.135463 0.348682
O O12 0.664032 0.615615 0.237185
O O13 0.387949 0.561752 0.132717
O O14 0.381801 0.064245 0.136726
O O15 0.756893 0.464692 0.006007
O O16 0.802376 0.179812 0.101822
#
# Coordination Sequence:
#
# PCOD9365949 Si02
#       8
#     8   8   4   8   8   8   8   8
#     4  10  19  35  54  93 131 182 218 254 310 391
#     4  11  23  41  75  99 133 174 237 292 354 416
#     4  12  20  40  62  98 138 194 244 280 316 392
#     4  11  21  36  66 101 138 185 229 281 338 391
#     4  11  23  41  68 101 141 184 227 284 338 413
#     4  11  25  44  64  99 139 193 235 283 331 412
#     4  11  25  48  75 100 131 176 229 294 368 441
#     4  11  27  48  69  99 141 186 231 282 368 422
#
# _framework density 23.618662
#
# number of rings (size 3 to 8) (size 9 to 14) (size 15 to 20)
#    0.000    1.067    4.667    3.200    3.733    1.600 
#    8.400    1.333    0.000    0.000    0.000    0.000 
#    0.000    0.000    0.000    0.000    0.000    0.000 
#
# Total GULP energy -167644.277119 kJ/mol
# GULP energy per Si atom -5588.142571 kJ/mol
# Density = 2.356491 g / cm^3
# Si number density = 23.618662 Si / 1000 Ang^3
#
#
#
# Elastic Constant Matrix: (Units=GPa)
#
#
# Indices 1 2 3 4 5 6 
#
# 1 31.7889 5.1370 -1.3323 0.0000 0.0000 0.0000
# 2 5.1370 126.4741 24.2118 0.0000 0.0000 0.0000
# 3 -1.3323 24.2118 145.4138 0.0000 0.0000 0.0000
# 4 0.0000 0.0000 0.0000 9.7957 0.0000 0.0000
# 5 0.0000 0.0000 0.0000 0.0000 27.0544 0.0000
# 6 0.0000 0.0000 0.0000 0.0000 0.0000 36.9981
#
#
#
# Elastic Compliance Matrix: (Units=1/GPa)
#
#
# Indices 1 2 3 4 5 6 
#
# 1 0.031704 -0.001388 0.000521 0.000000 0.000000 0.000000
# 2 -0.001388 0.008228 -0.001383 0.000000 0.000000 0.000000
# 3 0.000521 -0.001383 0.007112 0.000000 0.000000 0.000000
# 4 0.000000 0.000000 0.000000 0.102086 0.000000 0.000000
# 5 0.000000 0.000000 0.000000 0.000000 0.036963 0.000000
# 6 0.000000 0.000000 0.000000 0.000000 0.000000 0.027028
#
#
# Mechanical properties :
#
#
# Convention : Reuss Voigt Hill
#
# Bulk Modulus (GPa) = 23.50402 39.96778 31.73590
# Shear Modulus (GPa) = 21.57036 33.14700 27.35868
#
# Velocity S-wave (km/s) = 3.02532 3.75029 3.40715
# Velocity P-wave (km/s) = 4.70920 5.97593 5.37998
#
# Compressibility (1/GPa) = 0.04254591
#
# Stress axis : x y z
#
# Youngs Moduli (GPa) = 31.54214 121.53907 140.60901
#
# Poissons Ratio (x) = 0.16864 -0.07333
# Poissons Ratio (y) = 0.04377 0.19442
# Poissons Ratio (z) = -0.01645 0.16805
#
# Static dielectric constant tensor:
#      x y z
#    x 1.910270 0.000000 0.000000 
#    y 0.000000 2.037370 0.000000 
#    z 0.000000 0.000000 1.916520 
# 
# From -- ./inp_files/10806.got.cif
#   From: 2010.05.17/outbox.cif.g08.bks.cpg/sg41_6_cif.got.tgz:10806.got - 2010.06.03 18:54:24.
