data_PCOD9365600
_publ_section_title
;
Structure prediction by ZEFSAII (Michael W. Deem and Ramdas Pophale) SiO2 
 PCOD9365600
Probable space group: A M A 2
;
_chemical_formula_sum "Si O2"
_cell_formula_units_Z 48
_cell_length_a 17.168920
_cell_length_b 9.029754
_cell_length_c 11.443332
_cell_angle_alpha 90.000000
_cell_angle_beta 90.000000
_cell_angle_gamma 90.000000
_cell_volume 1774.072623
_symmetry_space_group_name_H-M "A M A 2"
_symmetry_group_IT_number 40
_symmetry_cell_setting 'orthorhombic'
loop_
_space_group_symop_operation_xyz
x,y,z
-x,-y,z
1/2-x,y,z
1/2+x,-y,z
x,1/2+y,1/2+z
-x,1/2-y,1/2+z
1/2-x,1/2+y,1/2+z
1/2+x,1/2-y,1/2+z
loop_
_atom_site_type_symbol
_atom_site_label
_atom_site_fract_x
_atom_site_fract_y
_atom_site_fract_z
Si Si1 0.500162 0.758146 0.984110
Si Si2 0.000000 0.000000 0.677945
Si Si3 0.832728 0.577727 0.767202
Si Si4 0.334458 0.967010 0.665219
Si Si5 0.500000 0.000000 0.300763
Si Si6 0.667202 0.246948 0.024024
Si Si7 0.665837 0.796833 0.991629
O O1 0.508588 0.646911 0.876616
O O2 0.577202 0.857743 0.990595
O O3 0.500173 0.648175 0.097335
O O4 0.412177 0.812505 0.971363
O O5 0.914366 0.003574 0.734784
O O6 0.750000 0.492563 0.773042
O O7 0.829565 0.678817 0.652897
O O8 0.832680 0.686135 0.879587
O O9 0.913049 0.488762 0.749292
O O10 0.250000 0.997556 0.720628
O O11 0.333093 0.806074 0.607304
O O12 0.339909 0.077495 0.551845
O O13 0.750000 0.221337 0.963682
O O14 0.750000 0.878954 0.991286
#
# Coordination Sequence:
#
# PCOD9365600 Si02
#       7
#     8   4   8   8   4   8   8
#     4   8  13  21  34  51  71  98 128 150 179 223
#     4   7  10  16  26  42  62  85 114 141 162 198
#     4   9  16  24  35  53  77 103 129 159 195 230
#     4   8  12  18  29  45  67  94 121 147 177 216
#     4   9  16  26  40  56  78 109 132 153 188 234
#     4   9  15  21  31  51  78 101 122 156 195 223
#     4   8  13  22  36  53  73 100 131 156 183 227
#
# _framework density 27.056391000000001
#
# number of rings (size 3 to 8) (size 9 to 14) (size 15 to 20)
#    0.000    3.667    0.000    3.000    0.000    2.000 
#    0.000    0.000    0.000    1.000    0.000    0.000 
#    0.000   37.333    0.000  175.667    0.000    1.000 
#
# Total GULP energy -133781.627774 kJ/mol
# GULP energy per Si atom -5574.234491 kJ/mol
# Density = 2.699481 g / cm^3
# Si number density = 27.056391 Si / 1000 Ang^3
#
#
#
# Elastic Constant Matrix: (Units=GPa)
#
#
# Indices 1 2 3 4 5 6 
#
# 1 383.9031 14.9912 6.7314 0.0000 0.0000 0.0000
# 2 14.9912 72.2161 18.1500 0.0000 0.0000 0.0000
# 3 6.7314 18.1500 56.2724 0.0000 0.0000 0.0000
# 4 0.0000 0.0000 0.0000 37.8681 0.0000 0.0000
# 5 0.0000 0.0000 0.0000 0.0000 40.4360 0.0000
# 6 0.0000 0.0000 0.0000 0.0000 0.0000 -113.6017
#
#
#
# Elastic Compliance Matrix: (Units=1/GPa)
#
#
# Indices 1 2 3 4 5 6 
#
# 1 0.002627 -0.000508 -0.000151 0.000000 0.000000 0.000000
# 2 -0.000508 0.015167 -0.004831 0.000000 0.000000 0.000000
# 3 -0.000151 -0.004831 0.019347 0.000000 0.000000 0.000000
# 4 0.000000 0.000000 0.000000 0.026407 0.000000 0.000000
# 5 0.000000 0.000000 0.000000 0.000000 0.024730 0.000000
# 6 0.000000 0.000000 0.000000 0.000000 0.000000 -0.008803
#
#
# Mechanical properties :
#
#
# Convention : Reuss Voigt Hill
#
# Bulk Modulus (GPa) = 38.22260 65.79296 52.00778
# Shear Modulus (GPa) = 50.41550 24.44174 37.42862
#
# Velocity S-wave (km/s) = 4.32134 3.00886 3.72338
# Velocity P-wave (km/s) = 6.24950 6.03662 6.14398
#
# Compressibility (1/GPa) = 0.02616253
#
# Stress axis : x y z
#
# Youngs Moduli (GPa) = 380.62124 65.93299 51.68768
#
# Poissons Ratio (x) = 0.03346 0.00778
# Poissons Ratio (y) = 0.19318 0.24971
# Poissons Ratio (z) = 0.05731 0.31854
#
# Static dielectric constant tensor:
#      x y z
#    x 2.279720 0.000000 0.000000 
#    y 0.000000 2.062160 0.000000 
#    z 0.000000 0.000000 2.033040 
# 
# From -- ./inp_files/17731.got.cif
#   From: 2010.05.17/outbox.cif.g08.bks.cpg/sg40_9_cif.got.tgz:17731.got - 2010.06.03 18:35:42.
