data_PCOD9365296
_publ_section_title
;
Structure prediction by ZEFSAII (Michael W. Deem and Ramdas Pophale) SiO2 
 PCOD9365296
Probable space group: A M A 2
;
_chemical_formula_sum "Si O2"
_cell_formula_units_Z 64
_cell_length_a 17.288050
_cell_length_b 11.866415
_cell_length_c 15.170486
_cell_angle_alpha 90.000000
_cell_angle_beta 90.000000
_cell_angle_gamma 90.000000
_cell_volume 3112.182359
_symmetry_space_group_name_H-M "A M A 2"
_symmetry_group_IT_number 40
_symmetry_cell_setting 'orthorhombic'
loop_
_space_group_symop_operation_xyz
x,y,z
-x,-y,z
1/2-x,y,z
1/2+x,-y,z
x,1/2+y,1/2+z
-x,1/2-y,1/2+z
1/2-x,1/2+y,1/2+z
1/2+x,1/2-y,1/2+z
loop_
_atom_site_type_symbol
_atom_site_label
_atom_site_fract_x
_atom_site_fract_y
_atom_site_fract_z
Si Si1 0.661997 0.028484 0.311710
Si Si2 0.902002 0.712723 0.700631
Si Si3 0.657332 0.123899 0.849394
Si Si4 0.573960 0.317829 0.756210
Si Si5 0.841366 0.582327 0.009642
Si Si6 0.908465 0.478829 0.187543
Si Si7 0.087927 0.954164 0.034636
Si Si8 0.839036 0.811911 0.083661
O O1 0.750000 0.984467 0.305866
O O2 0.658567 0.147762 0.262249
O O3 0.638526 0.037111 0.413609
O O4 0.602134 0.945474 0.264928
O O5 0.890322 0.845478 0.688490
O O6 0.906101 0.644565 0.607901
O O7 0.983055 0.696759 0.752378
O O8 0.750000 0.131356 0.857719
O O9 0.618448 0.243926 0.827609
O O10 0.635618 0.042010 0.767401
O O11 0.617697 0.083711 0.939427
O O12 0.605833 0.275977 0.662720
O O13 0.750000 0.561398 0.023608
O O14 0.885034 0.528323 0.092166
O O15 0.851611 0.717918 0.009394
O O16 0.000000 0.500000 0.201161
O O17 0.140524 0.061478 0.059310
O O18 0.000000 0.000000 0.032495
O O19 0.750000 0.804556 0.112528
#
# Coordination Sequence:
#
# PCOD9365296 Si02
#       8
#     8   8   8   8   8   8   8   8
#     4  11  25  43  69 104 138 178 229 284 342 405
#     4  12  26  46  69 101 141 180 227 290 353 402
#     4  12  27  46  71 101 137 186 234 280 343 414
#     4  12  23  46  69  97 134 183 234 280 338 410
#     4  10  24  44  67  98 133 175 227 278 333 408
#     4  12  25  46  68  98 137 179 226 282 343 407
#     4  12  26  44  68 104 141 178 226 291 344 412
#     4  11  21  42  71  94 130 181 230 275 334 408
#
# _framework density 20.564347999999999
#
# number of rings (size 3 to 8) (size 9 to 14) (size 15 to 20)
#    0.000    0.500    5.000    2.625    3.500    2.500 
#    0.000    0.000    0.000    0.000    0.000    0.000 
#    0.000    0.000    0.000    0.000    0.000    0.000 
#
# Total GULP energy -178910.026339 kJ/mol
# GULP energy per Si atom -5590.938323 kJ/mol
# Density = 2.051754 g / cm^3
# Si number density = 20.564348 Si / 1000 Ang^3
#
#
#
# Elastic Constant Matrix: (Units=GPa)
#
#
# Indices 1 2 3 4 5 6 
#
# 1 60.2462 -0.8786 8.4105 0.0000 0.0000 0.0000
# 2 -0.8786 114.6357 17.1660 0.0000 0.0000 0.0000
# 3 8.4105 17.1660 92.2275 0.0000 0.0000 0.0000
# 4 0.0000 0.0000 0.0000 20.5288 0.0000 0.0000
# 5 0.0000 0.0000 0.0000 0.0000 -33.6806 0.0000
# 6 0.0000 0.0000 0.0000 0.0000 0.0000 -85.7884
#
#
#
# Elastic Compliance Matrix: (Units=1/GPa)
#
#
# Indices 1 2 3 4 5 6 
#
# 1 0.016828 0.000369 -0.001603 0.000000 0.000000 0.000000
# 2 0.000369 0.008981 -0.001705 0.000000 0.000000 0.000000
# 3 -0.001603 -0.001705 0.011306 0.000000 0.000000 0.000000
# 4 0.000000 0.000000 0.000000 0.048712 0.000000 0.000000
# 5 0.000000 0.000000 0.000000 0.000000 -0.029691 0.000000
# 6 0.000000 0.000000 0.000000 0.000000 0.000000 -0.011657
#
#
# Mechanical properties :
#
#
# Convention : Reuss Voigt Hill
#
# Bulk Modulus (GPa) = 32.01385 35.16725 33.59055
# Shear Modulus (GPa) = 82.27527 -3.62728 39.32400
#
# Velocity S-wave (km/s) = 6.33210 -1.32955 4.37766
# Velocity P-wave (km/s) = 8.31037 3.84464 6.47470
#
# Compressibility (1/GPa) = 0.03123648
#
# Stress axis : x y z
#
# Youngs Moduli (GPa) = 59.42564 111.34025 88.44568
#
# Poissons Ratio (x) = -0.04109 0.14180
# Poissons Ratio (y) = -0.02193 0.15083
# Poissons Ratio (z) = 0.09528 0.18987
#
# Static dielectric constant tensor:
#      x y z
#    x 3.141440 0.000000 0.000000 
#    y 0.000000 1.760780 0.000000 
#    z 0.000000 0.000000 1.736470 
# 
# From -- ./inp_files/17897.got.cif
#   From: 2010.05.17/outbox.cif.g08.bks.cpg/sg40_9_cif.got.tgz:17897.got - 2010.06.03 18:35:42.
