data_PCOD9365357
_publ_section_title
;
Structure prediction by ZEFSAII (Michael W. Deem and Ramdas Pophale) SiO2 
 PCOD9365357
Probable space group: A M A 2
;
_chemical_formula_sum "Si O2"
_cell_formula_units_Z 64
_cell_length_a 17.779879
_cell_length_b 9.960659
_cell_length_c 20.180876
_cell_angle_alpha 90.000000
_cell_angle_beta 90.000000
_cell_angle_gamma 90.000000
_cell_volume 3574.019251
_symmetry_space_group_name_H-M "A M A 2"
_symmetry_group_IT_number 40
_symmetry_cell_setting 'orthorhombic'
loop_
_space_group_symop_operation_xyz
x,y,z
-x,-y,z
1/2-x,y,z
1/2+x,-y,z
x,1/2+y,1/2+z
-x,1/2-y,1/2+z
1/2-x,1/2+y,1/2+z
1/2+x,1/2-y,1/2+z
loop_
_atom_site_type_symbol
_atom_site_label
_atom_site_fract_x
_atom_site_fract_y
_atom_site_fract_z
Si Si1 0.386779 0.441650 0.618430
Si Si2 0.665588 0.998847 0.258160
Si Si3 0.073436 0.782815 0.335606
Si Si4 0.660384 0.986791 0.842348
Si Si5 0.417823 0.284414 0.260862
Si Si6 0.030357 0.229476 0.120989
Si Si7 0.920145 0.083396 0.975516
Si Si8 0.984981 0.158507 0.477874
O O1 0.334180 0.448516 0.682095
O O2 0.428276 0.585777 0.622342
O O3 0.443868 0.316965 0.627893
O O4 0.368312 0.432216 0.540643
O O5 0.750000 0.006996 0.285164
O O6 0.634491 0.847560 0.260561
O O7 0.606762 0.088501 0.298704
O O8 0.129618 0.659706 0.324630
O O9 0.065916 0.808648 0.414172
O O10 0.991924 0.745561 0.305174
O O11 0.750000 0.990700 0.846292
O O12 0.628043 0.092368 0.789885
O O13 0.621745 0.028456 0.911746
O O14 0.444333 0.309091 0.185575
O O15 0.044561 0.300661 0.050878
O O16 0.944591 0.238983 0.968604
O O17 0.000000 0.000000 0.984242
O O18 0.000000 0.000000 0.476815
#
# Coordination Sequence:
#
# PCOD9365357 Si02
#       8
#     8   8   8   8   8   8   8   8
#     4   9  16  33  59  85 114 153 194 242 285 347
#     4  11  23  37  58  91 126 156 194 250 310 356
#     4  12  22  39  61  86 117 162 203 248 296 363
#     4  12  25  39  57  86 122 157 198 252 315 361
#     4  11  21  39  63  88 113 161 208 247 290 359
#     4   9  17  33  57  86 116 144 198 247 286 336
#     4  11  18  38  63  86 116 152 201 249 286 356
#     4  11  21  34  59  94 117 143 197 259 293 341
#
# _framework density 17.907011000000001
#
# number of rings (size 3 to 8) (size 9 to 14) (size 15 to 20)
#    0.000    1.250    6.250    2.250    0.000    1.500 
#    0.000    0.000    0.000    2.250    0.000    0.000 
#    0.000    0.000    0.000    0.000    0.000    0.000 
#
# Total GULP energy -178423.147013 kJ/mol
# GULP energy per Si atom -5575.723344 kJ/mol
# Density = 1.786625 g / cm^3
# Si number density = 17.907011 Si / 1000 Ang^3
#
#
#
# Elastic Constant Matrix: (Units=GPa)
#
#
# Indices 1 2 3 4 5 6 
#
# 1 64.6086 14.4799 17.2491 0.0000 0.0000 0.0000
# 2 14.4799 85.3466 23.8941 0.0000 0.0000 0.0000
# 3 17.2491 23.8941 112.3319 0.0000 0.0000 0.0000
# 4 0.0000 0.0000 0.0000 26.9424 0.0000 0.0000
# 5 0.0000 0.0000 0.0000 0.0000 11.8709 0.0000
# 6 0.0000 0.0000 0.0000 0.0000 0.0000 11.4795
#
#
#
# Elastic Compliance Matrix: (Units=1/GPa)
#
#
# Indices 1 2 3 4 5 6 
#
# 1 0.016528 -0.002226 -0.002064 0.000000 0.000000 0.000000
# 2 -0.002226 0.012759 -0.002372 0.000000 0.000000 0.000000
# 3 -0.002064 -0.002372 0.009724 0.000000 0.000000 0.000000
# 4 0.000000 0.000000 0.000000 0.037116 0.000000 0.000000
# 5 0.000000 0.000000 0.000000 0.000000 0.084240 0.000000
# 6 0.000000 0.000000 0.000000 0.000000 0.000000 0.087112
#
#
# Mechanical properties :
#
#
# Convention : Reuss Voigt Hill
#
# Bulk Modulus (GPa) = 38.93307 41.50368 40.21837
# Shear Modulus (GPa) = 18.56213 23.83615 21.19914
#
# Velocity S-wave (km/s) = 3.22310 3.65239 3.44444
# Velocity P-wave (km/s) = 5.96994 6.40424 6.19090
#
# Compressibility (1/GPa) = 0.02568510
#
# Stress axis : x y z
#
# Youngs Moduli (GPa) = 60.50375 78.37778 102.84096
#
# Poissons Ratio (x) = 0.17448 0.21231
# Poissons Ratio (y) = 0.13469 0.24395
# Poissons Ratio (z) = 0.12490 0.18592
#
# Static dielectric constant tensor:
#      x y z
#    x 1.595310 0.000000 0.000000 
#    y 0.000000 1.596970 0.000000 
#    z 0.000000 0.000000 1.645110 
# 
# From -- ./inp_files/23353.got.cif
#   From: 2010.05.17/outbox.cif.g08.bks.cpg/sg40_12_cif.got.tgz:23353.got - 2010.06.03 18:35:42.
