data_PCOD9365328
_publ_section_title
;
Structure prediction by ZEFSAII (Michael W. Deem and Ramdas Pophale) SiO2 
 PCOD9365328
Probable space group: A M A 2
;
_chemical_formula_sum "Si O2"
_cell_formula_units_Z 40
_cell_length_a 20.004672
_cell_length_b 17.853842
_cell_length_c 4.886972
_cell_angle_alpha 90.000000
_cell_angle_beta 90.000000
_cell_angle_gamma 90.000000
_cell_volume 1745.432157
_symmetry_space_group_name_H-M "A M A 2"
_symmetry_group_IT_number 40
_symmetry_cell_setting 'orthorhombic'
loop_
_space_group_symop_operation_xyz
x,y,z
-x,-y,z
1/2-x,y,z
1/2+x,-y,z
x,1/2+y,1/2+z
-x,1/2-y,1/2+z
1/2-x,1/2+y,1/2+z
1/2+x,1/2-y,1/2+z
loop_
_atom_site_type_symbol
_atom_site_label
_atom_site_fract_x
_atom_site_fract_y
_atom_site_fract_z
Si Si1 0.676557 0.748895 0.299200
Si Si2 0.033522 0.716245 0.687741
Si Si3 0.536706 0.074455 0.402122
Si Si4 0.250000 0.124939 0.567896
Si Si5 0.369823 0.911784 0.907724
Si Si6 0.250000 0.022270 0.055341
O O1 0.750000 0.738817 0.161919
O O2 0.611084 0.769291 0.127147
O O3 0.688450 0.820284 0.495670
O O4 0.660176 0.671395 0.453949
O O5 0.992062 0.722398 0.408445
O O6 0.016266 0.640449 0.849016
O O7 0.597834 0.090779 0.607008
O O8 0.500000 0.000000 0.494612
O O9 0.570988 0.066005 0.109163
O O10 0.250000 0.097063 0.874117
O O11 0.250000 0.052605 0.366402
O O12 0.313099 0.972680 0.966706
#
# Coordination Sequence:
#
# PCOD9365328 Si02
#       6
#     8   8   8   4   8   4
#     4  10  24  49  67 107 131 191 222 287 334 419
#     4  12  24  45  70 100 139 176 232 284 336 403
#     4  12  27  45  68 104 136 185 225 284 344 403
#     4  10  27  44  71 100 144 168 234 282 345 404
#     4  12  25  47  71  97 142 178 233 274 342 418
#     4  12  25  46  67 106 132 184 218 294 345 400
#
# _framework density 22.916962000000002
#
# number of rings (size 3 to 8) (size 9 to 14) (size 15 to 20)
#    0.600    0.000    5.000    1.800    5.600    3.200 
#    0.000    0.000    0.000    0.000    0.000    0.000 
#    0.000    0.000    0.000    0.000    0.000    0.000 
#
# Total GULP energy -111753.911531 kJ/mol
# GULP energy per Si atom -5587.695577 kJ/mol
# Density = 2.286480 g / cm^3
# Si number density = 22.916962 Si / 1000 Ang^3
#
#
#
# Elastic Constant Matrix: (Units=GPa)
#
#
# Indices 1 2 3 4 5 6 
#
# 1 135.3991 32.4261 3.4954 0.0000 0.0000 0.0000
# 2 32.4261 106.3775 -6.7299 0.0000 0.0000 0.0000
# 3 3.4954 -6.7299 64.6379 0.0000 0.0000 0.0000
# 4 0.0000 0.0000 0.0000 24.9149 0.0000 0.0000
# 5 0.0000 0.0000 0.0000 0.0000 13.7779 0.0000
# 6 0.0000 0.0000 0.0000 0.0000 0.0000 40.8271
#
#
#
# Elastic Compliance Matrix: (Units=1/GPa)
#
#
# Indices 1 2 3 4 5 6 
#
# 1 0.007998 -0.002482 -0.000691 0.000000 0.000000 0.000000
# 2 -0.002482 0.010233 0.001200 0.000000 0.000000 0.000000
# 3 -0.000691 0.001200 0.015633 0.000000 0.000000 0.000000
# 4 0.000000 0.000000 0.000000 0.040137 0.000000 0.000000
# 5 0.000000 0.000000 0.000000 0.000000 0.072580 0.000000
# 6 0.000000 0.000000 0.000000 0.000000 0.000000 0.024494
#
#
# Mechanical properties :
#
#
# Convention : Reuss Voigt Hill
#
# Bulk Modulus (GPa) = 33.42478 40.53308 36.97893
# Shear Modulus (GPa) = 27.02820 34.38550 30.70685
#
# Velocity S-wave (km/s) = 3.43796 3.87775 3.66446
# Velocity P-wave (km/s) = 5.51147 6.14611 5.83742
#
# Compressibility (1/GPa) = 0.02991792
#
# Stress axis : x y z
#
# Youngs Moduli (GPa) = 125.03575 97.72479 63.96696
#
# Poissons Ratio (x) = 0.24251 0.04419
# Poissons Ratio (y) = 0.31029 -0.07674
# Poissons Ratio (z) = 0.08638 -0.11723
#
# Static dielectric constant tensor:
#      x y z
#    x 1.878940 0.000000 0.000000 
#    y 0.000000 1.897790 0.000000 
#    z 0.000000 0.000000 1.786090 
# 
# From -- ./inp_files/2258.got.cif
#   From: 2010.05.17/outbox.cif.g08.bks.cpg/sg40_2_cif.got.tgz:2258.got - 2010.06.03 18:35:42.
