data_PCOD9365810
_publ_section_title
;
Structure prediction by ZEFSAII (Michael W. Deem and Ramdas Pophale) SiO2 
 PCOD9365810
Probable space group: A B A 2
;
_chemical_formula_sum "Si O2"
_cell_formula_units_Z 40
_cell_length_a 13.395389
_cell_length_b 22.190343
_cell_length_c 5.149981
_cell_angle_alpha 90.000000
_cell_angle_beta 90.000000
_cell_angle_gamma 90.000000
_cell_volume 1530.822976
_symmetry_space_group_name_H-M "A B A 2"
_symmetry_group_IT_number 41
_symmetry_cell_setting 'orthorhombic'
loop_
_space_group_symop_operation_xyz
x,y,z
-x,-y,z
1/2-x,y,1/2+z
1/2+x,-y,1/2+z
x,1/2+y,1/2+z
-x,1/2-y,1/2+z
1/2-x,1/2+y,z
1/2+x,1/2-y,z
loop_
_atom_site_type_symbol
_atom_site_label
_atom_site_fract_x
_atom_site_fract_y
_atom_site_fract_z
Si Si1 0.843930 0.396634 0.494710
Si Si2 0.679982 0.579095 0.528104
Si Si3 0.123345 0.552500 0.008186
Si Si4 0.133682 0.230214 0.807786
Si Si5 0.599662 0.697180 0.795388
O O1 0.900958 0.402886 0.769469
O O2 0.744400 0.436336 0.536109
O O3 0.812797 0.334416 0.349904
O O4 0.915522 0.426936 0.284849
O O5 0.730220 0.580165 0.242149
O O6 0.613658 0.518910 0.497541
O O7 0.618234 0.633703 0.654528
O O8 0.140348 0.279820 0.576568
O O9 0.017790 0.210028 0.798805
O O10 0.150171 0.258971 0.087579
#
# Coordination Sequence:
#
# PCOD9365810 Si02
#       5
#     8   8   8   8   8
#     4  10  18  35  59  83 114 160 188 244 304 351
#     4  12  21  40  61  86 125 159 199 252 305 366
#     4  10  19  35  57  86 119 152 192 245 304 354
#     4  10  21  42  61  84 124 159 205 253 301 370
#     4  10  23  40  61  87 119 165 203 250 309 359
#
# _framework density 26.129736000000001
#
# number of rings (size 3 to 8) (size 9 to 14) (size 15 to 20)
#    0.000    1.600    4.000    2.400    0.000    0.000 
#   21.600    1.000    0.000    2.400    0.000    0.000 
#    0.000    0.000    0.000    0.000    0.000    0.000 
#
# Total GULP energy -111419.457533 kJ/mol
# GULP energy per Si atom -5570.972877 kJ/mol
# Density = 2.607026 g / cm^3
# Si number density = 26.129736 Si / 1000 Ang^3
#
#
#
# Elastic Constant Matrix: (Units=GPa)
#
#
# Indices 1 2 3 4 5 6 
#
# 1 65.2161 -2.3428 -18.2026 0.0000 0.0000 0.0000
# 2 -2.3428 112.1421 -2.8086 0.0000 0.0000 0.0000
# 3 -18.2026 -2.8086 164.3447 0.0000 0.0000 0.0000
# 4 0.0000 0.0000 0.0000 42.4770 0.0000 0.0000
# 5 0.0000 0.0000 0.0000 0.0000 -3.4954 0.0000
# 6 0.0000 0.0000 0.0000 0.0000 0.0000 -38.5650
#
#
#
# Elastic Compliance Matrix: (Units=1/GPa)
#
#
# Indices 1 2 3 4 5 6 
#
# 1 0.015839 0.000375 0.001761 0.000000 0.000000 0.000000
# 2 0.000375 0.008930 0.000194 0.000000 0.000000 0.000000
# 3 0.001761 0.000194 0.006283 0.000000 0.000000 0.000000
# 4 0.000000 0.000000 0.000000 0.023542 0.000000 0.000000
# 5 0.000000 0.000000 0.000000 0.000000 -0.286093 0.000000
# 6 0.000000 0.000000 0.000000 0.000000 0.000000 -0.025930
#
#
# Mechanical properties :
#
#
# Convention : Reuss Voigt Hill
#
# Bulk Modulus (GPa) = 28.00246 32.77722 30.38984
# Shear Modulus (GPa) = -19.98517 24.42047 2.21765
#
# Velocity S-wave (km/s) = -2.76858 3.06042 0.92225
# Velocity P-wave (km/s) = 0.72105 5.00594 3.57627
#
# Compressibility (1/GPa) = 0.03571115
#
# Stress axis : x y z
#
# Youngs Moduli (GPa) = 63.13721 111.98266 159.15719
#
# Poissons Ratio (x) = -0.04199 -0.28022
# Poissons Ratio (y) = -0.02368 -0.03090
# Poissons Ratio (z) = -0.11116 -0.02174
#
# Static dielectric constant tensor:
#      x y z
#    x 2.127720 0.000000 0.000000 
#    y 0.000000 2.158600 0.000000 
#    z 0.000000 0.000000 2.118450 
# 
# From -- ./inp_files/427.got.cif
#   From: 2010.05.17/outbox.cif.g08.bks.cpg/sg41_1_cif.got.tgz:427.got - 2010.06.03 18:54:24.
