data_PCOD9365754
_publ_section_title
;
Structure prediction by ZEFSAII (Michael W. Deem and Ramdas Pophale) SiO2 
 PCOD9365754
Probable space group: A B A 2
;
_chemical_formula_sum "Si O2"
_cell_formula_units_Z 64
_cell_length_a 8.611493
_cell_length_b 22.735186
_cell_length_c 14.936886
_cell_angle_alpha 90.000000
_cell_angle_beta 90.000000
_cell_angle_gamma 90.000000
_cell_volume 2924.401722
_symmetry_space_group_name_H-M "A B A 2"
_symmetry_group_IT_number 41
_symmetry_cell_setting 'orthorhombic'
loop_
_space_group_symop_operation_xyz
x,y,z
-x,-y,z
1/2-x,y,1/2+z
1/2+x,-y,1/2+z
x,1/2+y,1/2+z
-x,1/2-y,1/2+z
1/2-x,1/2+y,z
1/2+x,1/2-y,z
loop_
_atom_site_type_symbol
_atom_site_label
_atom_site_fract_x
_atom_site_fract_y
_atom_site_fract_z
Si Si1 0.098575 0.646812 0.494260
Si Si2 0.765336 0.278320 0.141133
Si Si3 0.512367 0.561737 0.353272
Si Si4 0.958489 0.937893 0.715322
Si Si5 0.732871 0.849220 0.813754
Si Si6 0.233460 0.404101 0.468600
Si Si7 0.898674 0.662624 0.115265
Si Si8 0.290767 0.033258 0.027127
O O1 0.141567 0.689292 0.576149
O O2 0.200365 0.668420 0.409844
O O3 0.160248 0.582269 0.519588
O O4 0.920973 0.634589 0.467936
O O5 0.736180 0.297537 0.242720
O O6 0.736014 0.209353 0.133556
O O7 0.935321 0.304053 0.117053
O O8 0.500000 0.500000 0.300605
O O9 0.432570 0.619210 0.314812
O O10 0.689337 0.576983 0.375563
O O11 0.408429 0.547282 0.443847
O O12 0.845269 0.900968 0.777814
O O13 0.875626 0.955641 0.621349
O O14 0.089601 0.891388 0.685022
O O15 0.000000 0.000000 0.758949
O O16 0.363115 0.366001 0.519943
O O17 0.225213 0.467321 0.518744
#
# Coordination Sequence:
#
# PCOD9365754 Si02
#       8
#     8   8   8   8   8   8   8   8
#     4  11  22  41  65  97 132 172 219 270 326 391
#     4  11  24  45  66  93 124 173 222 273 320 390
#     4   9  18  36  61  89 130 168 213 263 327 385
#     4  11  19  38  68  96 126 169 217 267 341 395
#     4  10  23  41  63  90 134 176 214 270 324 387
#     4  11  20  35  68 101 127 170 218 269 333 401
#     4  11  21  41  67  93 125 170 219 271 326 393
#     4  10  17  37  65  97 126 171 212 269 328 393
#
# _framework density 21.884817999999999
#
# number of rings (size 3 to 8) (size 9 to 14) (size 15 to 20)
#    0.000    1.500    5.000    2.250    0.000    3.000 
#    2.250   12.500    0.000    0.000    0.000    0.000 
#    0.000    0.000    0.000    0.000    0.000    0.000 
#
# Total GULP energy -178691.065165 kJ/mol
# GULP energy per Si atom -5584.095786 kJ/mol
# Density = 2.183501 g / cm^3
# Si number density = 21.884818 Si / 1000 Ang^3
#
#
#
# Elastic Constant Matrix: (Units=GPa)
#
#
# Indices 1 2 3 4 5 6 
#
# 1 54.2597 11.0434 1.0170 0.0000 0.0000 0.0000
# 2 11.0434 94.4102 13.3309 0.0000 0.0000 0.0000
# 3 1.0170 13.3309 42.1888 0.0000 0.0000 0.0000
# 4 0.0000 0.0000 0.0000 10.9558 0.0000 0.0000
# 5 0.0000 0.0000 0.0000 0.0000 -8.9556 0.0000
# 6 0.0000 0.0000 0.0000 0.0000 0.0000 34.2077
#
#
#
# Elastic Compliance Matrix: (Units=1/GPa)
#
#
# Indices 1 2 3 4 5 6 
#
# 1 0.018882 -0.002245 0.000254 0.000000 0.000000 0.000000
# 2 -0.002245 0.011354 -0.003533 0.000000 0.000000 0.000000
# 3 0.000254 -0.003533 0.024813 0.000000 0.000000 0.000000
# 4 0.000000 0.000000 0.000000 0.091276 0.000000 0.000000
# 5 0.000000 0.000000 0.000000 0.000000 -0.111662 0.000000
# 6 0.000000 0.000000 0.000000 0.000000 0.000000 0.029233
#
#
# Mechanical properties :
#
#
# Convention : Reuss Voigt Hill
#
# Bulk Modulus (GPa) = 22.72671 26.84902 24.78786
# Shear Modulus (GPa) = 55.79681 18.27274 37.03477
#
# Velocity S-wave (km/s) = 5.05480 2.89269 4.11817
# Velocity P-wave (km/s) = 6.66898 4.84271 5.82782
#
# Compressibility (1/GPa) = 0.04400110
#
# Stress axis : x y z
#
# Youngs Moduli (GPa) = 52.96061 88.07816 40.30091
#
# Poissons Ratio (x) = 0.19770 -0.01024
# Poissons Ratio (y) = 0.11887 0.14240
# Poissons Ratio (z) = -0.01346 0.31122
#
# Static dielectric constant tensor:
#      x y z
#    x 1.843670 0.000000 0.000000 
#    y 0.000000 1.805560 0.000000 
#    z 0.000000 0.000000 1.820060 
# 
# From -- ./inp_files/7570.got.cif
#   From: 2010.05.17/outbox.cif.g08.bks.cpg/sg41_4_cif.got.tgz:7570.got - 2010.06.03 18:54:24.
