data_PCOD9365118
_publ_section_title
;
Structure prediction by ZEFSAII (Michael W. Deem and Ramdas Pophale) SiO2 
 PCOD9365118
Probable space group: A M A 2
;
_chemical_formula_sum "Si O2"
_cell_formula_units_Z 60
_cell_length_a 27.996368
_cell_length_b 12.100679
_cell_length_c 8.212239
_cell_angle_alpha 90.000000
_cell_angle_beta 90.000000
_cell_angle_gamma 90.000000
_cell_volume 2782.101779
_symmetry_space_group_name_H-M "A M A 2"
_symmetry_group_IT_number 40
_symmetry_cell_setting 'orthorhombic'
loop_
_space_group_symop_operation_xyz
x,y,z
-x,-y,z
1/2-x,y,z
1/2+x,-y,z
x,1/2+y,1/2+z
-x,1/2-y,1/2+z
1/2-x,1/2+y,1/2+z
1/2+x,1/2-y,1/2+z
loop_
_atom_site_type_symbol
_atom_site_label
_atom_site_fract_x
_atom_site_fract_y
_atom_site_fract_z
Si Si1 0.091231 0.306787 0.828530
Si Si2 0.923610 0.476992 0.622513
Si Si3 0.835292 0.092492 0.569423
Si Si4 0.977791 0.759812 0.096004
Si Si5 0.925996 0.550304 0.252080
Si Si6 0.340077 0.605685 0.812969
Si Si7 0.750000 0.743266 0.203756
Si Si8 0.080407 0.166141 0.555362
O O1 0.074347 0.421053 0.747645
O O2 0.111422 0.223082 0.696577
O O3 0.131040 0.329675 0.960907
O O4 0.047852 0.249955 0.921105
O O5 0.960940 0.378750 0.661867
O O6 0.933671 0.514360 0.437637
O O7 0.868403 0.437928 0.652015
O O8 0.790643 0.158011 0.631445
O O9 0.869366 0.064508 0.722094
O O10 0.827122 0.989245 0.446659
O O11 0.955735 0.658670 0.201216
O O12 0.032994 0.739681 0.058793
O O13 0.936245 0.454005 0.118532
O O14 0.293350 0.674551 0.771051
O O15 0.384953 0.666031 0.902043
#
# Coordination Sequence:
#
# PCOD9365118 Si02
#       8
#     8   8   8   8   8   8   4   8
#     4  10  23  43  67  97 138 180 225 277 337 399
#     4  11  24  42  70 100 138 181 230 275 336 405
#     4   9  22  44  66  96 134 166 219 291 344 405
#     4  11  24  44  62 101 142 190 229 268 328 401
#     4  10  22  44  69  95 141 182 226 277 337 399
#     4  10  24  43  67 100 135 172 224 293 344 405
#     4  12  22  42  82  92 120 182 230 282 366 408
#     4  11  24  43  68  97 149 179 225 284 335 401
#
# _framework density 21.566428999999999
#
# number of rings (size 3 to 8) (size 9 to 14) (size 15 to 20)
#    0.000    1.600    1.333    3.200    5.600    0.533 
#    7.200    1.333    0.000    0.000    0.000    0.000 
#    0.000    0.000    0.000    0.000    0.000    0.000 
#
# Total GULP energy -167067.135609 kJ/mol
# GULP energy per Si atom -5568.904520 kJ/mol
# Density = 2.151734 g / cm^3
# Si number density = 21.566429 Si / 1000 Ang^3
#
#
#
# Elastic Constant Matrix: (Units=GPa)
#
#
# Indices 1 2 3 4 5 6 
#
# 1 140.9657 45.4011 20.1268 0.0000 0.0000 0.0000
# 2 45.4011 98.3532 14.2074 0.0000 0.0000 0.0000
# 3 20.1268 14.2074 56.8186 0.0000 0.0000 0.0000
# 4 0.0000 0.0000 0.0000 34.9785 0.0000 0.0000
# 5 0.0000 0.0000 0.0000 0.0000 5.3864 0.0000
# 6 0.0000 0.0000 0.0000 0.0000 0.0000 14.3482
#
#
#
# Elastic Compliance Matrix: (Units=1/GPa)
#
#
# Indices 1 2 3 4 5 6 
#
# 1 0.008573 -0.003651 -0.002124 0.000000 0.000000 0.000000
# 2 -0.003651 0.012103 -0.001733 0.000000 0.000000 0.000000
# 3 -0.002124 -0.001733 0.018786 0.000000 0.000000 0.000000
# 4 0.000000 0.000000 0.000000 0.028589 0.000000 0.000000
# 5 0.000000 0.000000 0.000000 0.000000 0.185653 0.000000
# 6 0.000000 0.000000 0.000000 0.000000 0.000000 0.069695
#
#
# Mechanical properties :
#
#
# Convention : Reuss Voigt Hill
#
# Bulk Modulus (GPa) = 40.90637 50.62311 45.76474
# Shear Modulus (GPa) = 14.42739 25.36942 19.89841
#
# Velocity S-wave (km/s) = 2.58926 3.43350 3.04082
# Velocity P-wave (km/s) = 5.28657 6.26439 5.79614
#
# Compressibility (1/GPa) = 0.02444607
#
# Stress axis : x y z
#
# Youngs Moduli (GPa) = 116.64631 82.62447 53.23225
#
# Poissons Ratio (x) = 0.30163 0.11306
# Poissons Ratio (y) = 0.42582 0.09226
# Poissons Ratio (z) = 0.24775 0.14320
#
# Static dielectric constant tensor:
#      x y z
#    x 1.783790 0.000000 0.000000 
#    y 0.000000 1.856650 0.000000 
#    z 0.000000 0.000000 1.863150 
# 
# From -- ./inp_files/9157.got.cif
#   From: 2010.05.17/outbox.cif.g08.bks.cpg/sg40_5_cif.got.tgz:9157.got - 2010.06.03 18:35:42.
