data_PCOD9365860
_publ_section_title
;
Structure prediction by ZEFSAII (Michael W. Deem and Ramdas Pophale) SiO2 
 PCOD9365860
Probable space group: A B A 2
;
_chemical_formula_sum "Si O2"
_cell_formula_units_Z 44
_cell_length_a 9.544743
_cell_length_b 13.451517
_cell_length_c 15.877218
_cell_angle_alpha 90.000000
_cell_angle_beta 90.000000
_cell_angle_gamma 90.000000
_cell_volume 2038.496226
_symmetry_space_group_name_H-M "A B A 2"
_symmetry_group_IT_number 41
_symmetry_cell_setting 'orthorhombic'
loop_
_space_group_symop_operation_xyz
x,y,z
-x,-y,z
1/2-x,y,1/2+z
1/2+x,-y,1/2+z
x,1/2+y,1/2+z
-x,1/2-y,1/2+z
1/2-x,1/2+y,z
1/2+x,1/2-y,z
loop_
_atom_site_type_symbol
_atom_site_label
_atom_site_fract_x
_atom_site_fract_y
_atom_site_fract_z
Si Si1 0.203733 0.254528 0.973310
Si Si2 0.051458 0.788760 0.867104
Si Si3 0.693045 0.623782 0.624796
Si Si4 0.000000 0.500000 0.429096
Si Si5 0.693158 0.923741 0.580295
Si Si6 0.483854 0.786729 0.686379
O O1 0.292171 0.257692 0.889186
O O2 0.044494 0.236647 0.947749
O O3 0.211710 0.354162 0.025854
O O4 0.264396 0.170979 0.036169
O O5 0.003011 0.730326 0.785499
O O6 0.039674 0.908098 0.868752
O O7 0.715257 0.505265 0.629589
O O8 0.552316 0.683022 0.651003
O O9 0.824354 0.679580 0.669393
O O10 0.119204 0.529641 0.497068
O O11 0.578261 0.873554 0.642777
#
# Coordination Sequence:
#
# PCOD9365860 Si02
#       6
#     8   8   8   4   8   8
#     4  10  21  39  68  89 124 168 216 258 307 387
#     4  11  22  41  62  96 128 163 207 271 321 367
#     4  11  20  42  63  89 124 173 219 250 317 399
#     4  10  18  40  70  80 124 180 210 228 330 400
#     4  10  19  39  67  86 119 177 215 244 318 396
#     4  11  23  38  64  93 129 162 208 274 320 370
#
# _framework density 21.584540000000001
#
# number of rings (size 3 to 8) (size 9 to 14) (size 15 to 20)
#    0.000    1.455    3.636    3.273    0.000    0.000 
#   13.091    6.364    0.000    0.000    0.000    0.000 
#    0.000    0.000    0.000    0.000    0.000    0.000 
#
# Total GULP energy -122539.092050 kJ/mol
# GULP energy per Si atom -5569.958730 kJ/mol
# Density = 2.153541 g / cm^3
# Si number density = 21.584540 Si / 1000 Ang^3
#
#
#
# Elastic Constant Matrix: (Units=GPa)
#
#
# Indices 1 2 3 4 5 6 
#
# 1 42.9131 6.1497 -5.8526 0.0000 0.0000 0.0000
# 2 6.1497 73.0686 -1.4878 0.0000 0.0000 0.0000
# 3 -5.8526 -1.4878 65.1491 0.0000 0.0000 0.0000
# 4 0.0000 0.0000 0.0000 24.1674 0.0000 0.0000
# 5 0.0000 0.0000 0.0000 0.0000 24.7236 0.0000
# 6 0.0000 0.0000 0.0000 0.0000 0.0000 25.2631
#
#
#
# Elastic Compliance Matrix: (Units=1/GPa)
#
#
# Indices 1 2 3 4 5 6 
#
# 1 0.023871 -0.001966 0.002100 0.000000 0.000000 0.000000
# 2 -0.001966 0.013854 0.000140 0.000000 0.000000 0.000000
# 3 0.002100 0.000140 0.015541 0.000000 0.000000 0.000000
# 4 0.000000 0.000000 0.000000 0.041378 0.000000 0.000000
# 5 0.000000 0.000000 0.000000 0.000000 0.040447 0.000000
# 6 0.000000 0.000000 0.000000 0.000000 0.000000 0.039583
#
#
# Mechanical properties :
#
#
# Convention : Reuss Voigt Hill
#
# Bulk Modulus (GPa) = 18.58314 19.86106 19.22210
# Shear Modulus (GPa) = 26.03264 26.98558 26.50911
#
# Velocity S-wave (km/s) = 3.47663 3.53969 3.50830
# Velocity P-wave (km/s) = 4.97434 5.09189 5.03346
#
# Compressibility (1/GPa) = 0.05381223
#
# Stress axis : x y z
#
# Youngs Moduli (GPa) = 41.89176 72.18080 64.34505
#
# Poissons Ratio (x) = 0.14193 -0.13509
# Poissons Ratio (y) = 0.08237 -0.00899
# Poissons Ratio (z) = -0.08795 -0.01009
#
# Static dielectric constant tensor:
#      x y z
#    x 1.803390 0.000000 0.000000 
#    y 0.000000 1.881550 0.000000 
#    z 0.000000 0.000000 1.753980 
# 
# From -- ./inp_files/7826.got.cif
#   From: 2010.05.17/outbox.cif.g08.bks.cpg/sg41_4_cif.got.tgz:7826.got - 2010.06.03 18:54:24.
