data_PCOD9365834
_publ_section_title
;
Structure prediction by ZEFSAII (Michael W. Deem and Ramdas Pophale) SiO2 
 PCOD9365834
Probable space group: A B A 2
;
_chemical_formula_sum "Si O2"
_cell_formula_units_Z 56
_cell_length_a 31.335526
_cell_length_b 5.174678
_cell_length_c 15.360857
_cell_angle_alpha 90.000000
_cell_angle_beta 90.000000
_cell_angle_gamma 90.000000
_cell_volume 2490.782271
_symmetry_space_group_name_H-M "A B A 2"
_symmetry_group_IT_number 41
_symmetry_cell_setting 'orthorhombic'
loop_
_space_group_symop_operation_xyz
x,y,z
-x,-y,z
1/2-x,y,1/2+z
1/2+x,-y,1/2+z
x,1/2+y,1/2+z
-x,1/2-y,1/2+z
1/2-x,1/2+y,z
1/2+x,1/2-y,z
loop_
_atom_site_type_symbol
_atom_site_label
_atom_site_fract_x
_atom_site_fract_y
_atom_site_fract_z
Si Si1 0.918772 0.354789 0.454290
Si Si2 0.646053 0.076086 0.563588
Si Si3 0.130865 0.427503 0.175496
Si Si4 0.778609 0.640569 0.270249
Si Si5 0.457918 0.649240 0.466443
Si Si6 0.047026 0.428013 0.288886
Si Si7 0.227417 0.753782 0.973752
O O1 0.875783 0.512932 0.470057
O O2 0.921412 0.061775 0.484354
O O3 0.934293 0.353639 0.354804
O O4 0.950429 0.561877 0.502131
O O5 0.628251 0.301540 0.624850
O O6 0.693894 0.148728 0.543139
O O7 0.638664 0.809297 0.611462
O O8 0.174348 0.419086 0.233172
O O9 0.085771 0.378350 0.223962
O O10 0.746133 0.406722 0.246342
O O11 0.784519 0.675499 0.374557
O O12 0.500000 0.500000 0.494614
O O13 0.459964 0.707684 0.362649
O O14 0.000000 0.500000 0.253545
O O15 0.232498 0.447025 0.985547
#
# Coordination Sequence:
#
# PCOD9365834 Si02
#       7
#     8   8   8   8   8   8   8
#     4  10  21  39  67  87 122 162 218 268 311 378
#     4  12  26  43  59  98 137 174 212 262 334 405
#     4  12  27  41  65  97 141 176 210 264 339 402
#     4  10  22  44  69  99 128 168 223 274 317 381
#     4  10  18  37  65  95 108 154 220 277 312 360
#     4  10  23  43  69  94 124 172 228 277 323 383
#     4  10  22  42  69  93 125 169 222 271 319 380
#
# _framework density 22.482896
#
# number of rings (size 3 to 8) (size 9 to 14) (size 15 to 20)
#    0.857    0.571    1.429    3.857    2.000    3.429 
#    5.143    5.714    0.000    0.000    0.000    0.000 
#    0.000    0.000    0.000    0.000    0.000    0.000 
#
# Total GULP energy -155924.333969 kJ/mol
# GULP energy per Si atom -5568.726213 kJ/mol
# Density = 2.243172 g / cm^3
# Si number density = 22.482896 Si / 1000 Ang^3
#
#
#
# Elastic Constant Matrix: (Units=GPa)
#
#
# Indices 1 2 3 4 5 6 
#
# 1 74.8093 -30.7798 27.0902 0.0000 0.0000 0.0000
# 2 -30.7798 68.1586 -8.2691 0.0000 0.0000 0.0000
# 3 27.0902 -8.2691 22.8036 0.0000 0.0000 0.0000
# 4 0.0000 0.0000 0.0000 20.0109 0.0000 0.0000
# 5 0.0000 0.0000 0.0000 0.0000 -3.8460 0.0000
# 6 0.0000 0.0000 0.0000 0.0000 0.0000 21.8483
#
#
#
# Elastic Compliance Matrix: (Units=1/GPa)
#
#
# Indices 1 2 3 4 5 6 
#
# 1 0.027865 0.008962 -0.029854 0.000000 0.000000 0.000000
# 2 0.008962 0.018229 -0.004036 0.000000 0.000000 0.000000
# 3 -0.029854 -0.004036 0.077854 0.000000 0.000000 0.000000
# 4 0.000000 0.000000 0.000000 0.049973 0.000000 0.000000
# 5 0.000000 0.000000 0.000000 0.000000 -0.260013 0.000000
# 6 0.000000 0.000000 0.000000 0.000000 0.000000 0.045770
#
#
# Mechanical properties :
#
#
# Convention : Reuss Voigt Hill
#
# Bulk Modulus (GPa) = 13.49659 15.76159 14.62909
# Shear Modulus (GPa) = 146.06189 19.45133 82.75661
#
# Velocity S-wave (km/s) = 8.06888 2.94455 6.07360
# Velocity P-wave (km/s) = 9.63458 4.31117 7.46362
#
# Compressibility (1/GPa) = 0.07409278
#
# Stress axis : x y z
#
# Youngs Moduli (GPa) = 35.88692 54.85747 12.84448
#
# Poissons Ratio (x) = -0.49162 0.38345
# Poissons Ratio (y) = -0.32161 0.05184
# Poissons Ratio (z) = 1.07135 0.22142
#
# Static dielectric constant tensor:
#      x y z
#    x 1.978230 0.000000 0.000000 
#    y 0.000000 1.851460 0.000000 
#    z 0.000000 0.000000 1.886290 
# 
# From -- ./inp_files/9272.got.cif
#   From: 2010.05.17/outbox.cif.g08.bks.cpg/sg41_5_cif.got.tgz:9272.got - 2010.06.03 18:54:24.
