data_PCOD9365738
_publ_section_title
;
Structure prediction by ZEFSAII (Michael W. Deem and Ramdas Pophale) SiO2 
 PCOD9365738
Probable space group: A B A 2
;
_chemical_formula_sum "Si O2"
_cell_formula_units_Z 48
_cell_length_a 16.997897
_cell_length_b 28.336098
_cell_length_c 5.265222
_cell_angle_alpha 90.000000
_cell_angle_beta 90.000000
_cell_angle_gamma 90.000000
_cell_volume 2536.015633
_symmetry_space_group_name_H-M "A B A 2"
_symmetry_group_IT_number 41
_symmetry_cell_setting 'orthorhombic'
loop_
_space_group_symop_operation_xyz
x,y,z
-x,-y,z
1/2-x,y,1/2+z
1/2+x,-y,1/2+z
x,1/2+y,1/2+z
-x,1/2-y,1/2+z
1/2-x,1/2+y,z
1/2+x,1/2-y,z
loop_
_atom_site_type_symbol
_atom_site_label
_atom_site_fract_x
_atom_site_fract_y
_atom_site_fract_z
Si Si1 0.996341 0.357583 0.017340
Si Si2 0.104037 0.164365 0.017849
Si Si3 0.951239 0.239677 0.426777
Si Si4 0.405763 0.996129 0.573545
Si Si5 0.795468 0.921220 0.929210
Si Si6 0.068238 0.960016 0.572082
O O1 0.956597 0.350255 0.292674
O O2 0.060058 0.315806 0.974095
O O3 0.030326 0.409995 0.005496
O O4 0.932934 0.348768 0.791816
O O5 0.179775 0.132858 0.967667
O O6 0.113489 0.220700 0.987632
O O7 0.981714 0.246927 0.138329
O O8 0.390194 0.960454 0.343797
O O9 0.500000 0.000000 0.604891
O O10 0.369156 0.046034 0.500957
O O11 0.377134 0.977390 0.843519
O O12 0.729974 0.931137 0.142210
O O13 0.000000 0.000000 0.602579
#
# Coordination Sequence:
#
# PCOD9365738 Si02
#       6
#     8   8   8   8   8   8
#     4  10  17  29  50  78 105 132 170 219 266 312
#     4  10  18  32  48  70 106 139 167 209 268 322
#     4   8  16  27  45  71 101 130 157 198 250 302
#     4  10  20  34  51  73 100 135 175 216 262 311
#     4  12  24  37  53  78 108 142 177 219 273 334
#     4  10  17  27  46  72 100 132 168 211 259 301
#
# _framework density 18.927329
#
# number of rings (size 3 to 8) (size 9 to 14) (size 15 to 20)
#    0.000    2.000    0.000    7.000    0.000    0.000 
#    0.000    0.000    0.000    0.000    0.000    7.000 
#    0.000    0.000    0.000    0.000    0.000    0.000 
#
# Total GULP energy -133710.640663 kJ/mol
# GULP energy per Si atom -5571.276694 kJ/mol
# Density = 1.888425 g / cm^3
# Si number density = 18.927329 Si / 1000 Ang^3
#
#
#
# Elastic Constant Matrix: (Units=GPa)
#
#
# Indices 1 2 3 4 5 6 
#
# 1 17.9966 11.6032 -6.9226 0.0000 0.0000 0.0000
# 2 11.6032 111.9313 -8.1184 0.0000 0.0000 0.0000
# 3 -6.9226 -8.1184 110.3363 0.0000 0.0000 0.0000
# 4 0.0000 0.0000 0.0000 25.8898 0.0000 0.0000
# 5 0.0000 0.0000 0.0000 0.0000 16.0221 0.0000
# 6 0.0000 0.0000 0.0000 0.0000 0.0000 23.4012
#
#
#
# Elastic Compliance Matrix: (Units=1/GPa)
#
#
# Indices 1 2 3 4 5 6 
#
# 1 0.060765 -0.006055 0.003367 0.000000 0.000000 0.000000
# 2 -0.006055 0.009585 0.000325 0.000000 0.000000 0.000000
# 3 0.003367 0.000325 0.009298 0.000000 0.000000 0.000000
# 4 0.000000 0.000000 0.000000 0.038625 0.000000 0.000000
# 5 0.000000 0.000000 0.000000 0.000000 0.062414 0.000000
# 6 0.000000 0.000000 0.000000 0.000000 0.000000 0.042733
#
#
# Mechanical properties :
#
#
# Convention : Reuss Voigt Hill
#
# Bulk Modulus (GPa) = 13.34690 25.93205 19.63948
# Shear Modulus (GPa) = 19.75344 29.30943 24.53143
#
# Velocity S-wave (km/s) = 3.23406 3.93940 3.60402
# Velocity P-wave (km/s) = 4.58393 5.86706 5.26473
#
# Compressibility (1/GPa) = 0.07492378
#
# Stress axis : x y z
#
# Youngs Moduli (GPa) = 16.45678 104.32609 107.54551
#
# Poissons Ratio (x) = 0.63169 -0.36210
# Poissons Ratio (y) = 0.09964 -0.03499
# Poissons Ratio (z) = -0.05541 -0.03395
#
# Static dielectric constant tensor:
#      x y z
#    x 1.614910 0.000000 0.000000 
#    y 0.000000 1.692540 0.000000 
#    z 0.000000 0.000000 1.742800 
# 
# From -- ./inp_files/296.got.cif
#   From: 2010.05.17/outbox.cif.g08.bks.cpg/sg41_1_cif.got.tgz:296.got - 2010.06.03 18:54:24.
