data_PCOD9365558
_publ_section_title
;
Structure prediction by ZEFSAII (Michael W. Deem and Ramdas Pophale) SiO2 
 PCOD9365558
Probable space group: A M A 2
;
_chemical_formula_sum "Si O2"
_cell_formula_units_Z 36
_cell_length_a 14.100225
_cell_length_b 18.612800
_cell_length_c 7.512190
_cell_angle_alpha 90.000000
_cell_angle_beta 90.000000
_cell_angle_gamma 90.000000
_cell_volume 1971.534210
_symmetry_space_group_name_H-M "A M A 2"
_symmetry_group_IT_number 40
_symmetry_cell_setting 'orthorhombic'
loop_
_space_group_symop_operation_xyz
x,y,z
-x,-y,z
1/2-x,y,z
1/2+x,-y,z
x,1/2+y,1/2+z
-x,1/2-y,1/2+z
1/2-x,1/2+y,1/2+z
1/2+x,1/2-y,1/2+z
loop_
_atom_site_type_symbol
_atom_site_label
_atom_site_fract_x
_atom_site_fract_y
_atom_site_fract_z
Si Si1 0.250000 0.636922 0.632900
Si Si2 0.250000 0.760971 0.340490
Si Si3 0.548064 0.683806 0.938669
Si Si4 0.959432 0.922080 0.150294
Si Si5 0.048856 0.333870 0.349719
Si Si6 0.250000 0.765332 0.922854
O O1 0.250000 0.688576 0.458858
O O2 0.154006 0.589754 0.637193
O O3 0.250000 0.694967 0.796024
O O4 0.342023 0.807253 0.390281
O O5 0.250000 0.744369 0.130651
O O6 0.495602 0.633537 0.799085
O O7 0.507022 0.763807 0.918794
O O8 0.533995 0.658136 0.139801
O O9 0.000000 0.000000 0.196976
O O10 0.008976 0.898736 0.965436
O O11 0.157890 0.313334 0.383422
#
# Coordination Sequence:
#
# PCOD9365558 Si02
#       6
#     4   4   8   8   8   4
#     4  12  24  42  66  98 130 172 228 278 334 398
#     4  12  20  35  69 105 125 168 231 282 320 381
#     4  12  21  39  67  99 129 172 228 275 319 391
#     4  12  28  44  64 100 144 178 215 277 347 402
#     4  12  21  39  67  99 129 172 228 275 319 391
#     4  12  20  35  69 105 125 168 231 282 320 381
#
# _framework density 18.259891
#
# number of rings (size 3 to 8) (size 9 to 14) (size 15 to 20)
#    0.000    0.000   11.111    0.000    0.000    2.667 
#    0.000    0.000    0.000    0.000    0.000    0.000 
#    0.000    0.000    0.000    0.000    0.000    0.000 
#
# Total GULP energy -100619.645373 kJ/mol
# GULP energy per Si atom -5589.980299 kJ/mol
# Density = 1.821833 g / cm^3
# Si number density = 18.259891 Si / 1000 Ang^3
#
#
#
# Elastic Constant Matrix: (Units=GPa)
#
#
# Indices 1 2 3 4 5 6 
#
# 1 146.1297 8.1183 4.8111 0.0000 0.0000 0.0000
# 2 8.1183 42.5582 -13.8901 0.0000 0.0000 0.0000
# 3 4.8111 -13.8901 120.8069 0.0000 0.0000 0.0000
# 4 0.0000 0.0000 0.0000 7.5250 0.0000 0.0000
# 5 0.0000 0.0000 0.0000 0.0000 -41.7406 0.0000
# 6 0.0000 0.0000 0.0000 0.0000 0.0000 19.6553
#
#
#
# Elastic Compliance Matrix: (Units=1/GPa)
#
#
# Indices 1 2 3 4 5 6 
#
# 1 0.006940 -0.001469 -0.000445 0.000000 0.000000 0.000000
# 2 -0.001469 0.024724 0.002901 0.000000 0.000000 0.000000
# 3 -0.000445 0.002901 0.008629 0.000000 0.000000 0.000000
# 4 0.000000 0.000000 0.000000 0.132891 0.000000 0.000000
# 5 0.000000 0.000000 0.000000 0.000000 -0.023957 0.000000
# 6 0.000000 0.000000 0.000000 0.000000 0.000000 0.050877
#
#
# Mechanical properties :
#
#
# Convention : Reuss Voigt Hill
#
# Bulk Modulus (GPa) = 23.65933 34.17486 28.91709
# Shear Modulus (GPa) = 23.56067 17.78497 20.67282
#
# Velocity S-wave (km/s) = 3.59597 3.12427 3.36838
# Velocity P-wave (km/s) = 5.49786 5.63659 5.56766
#
# Compressibility (1/GPa) = 0.04226662
#
# Stress axis : x y z
#
# Youngs Moduli (GPa) = 144.10234 40.44589 115.88854
#
# Poissons Ratio (x) = 0.05942 0.05160
# Poissons Ratio (y) = 0.21170 -0.33622
# Poissons Ratio (z) = 0.06417 -0.11734
#
# Static dielectric constant tensor:
#      x y z
#    x 2.260370 0.000000 0.000000 
#    y 0.000000 1.575330 0.000000 
#    z 0.000000 0.000000 1.629350 
# 
# From -- ./inp_files/6264.got.cif
#   From: 2010.05.17/outbox.cif.g08.bks.cpg/sg40_4_cif.got.tgz:6264.got - 2010.06.03 18:35:42.
