data_PCOD9365663
_publ_section_title
;
Structure prediction by ZEFSAII (Michael W. Deem and Ramdas Pophale) SiO2 
 PCOD9365663
Probable space group: A M A 2
;
_chemical_formula_sum "Si O2"
_cell_formula_units_Z 32
_cell_length_a 9.000000
_cell_length_b 30.000000
_cell_length_c 12.000000
_cell_angle_alpha 90.000000
_cell_angle_beta 90.000000
_cell_angle_gamma 90.000000
_cell_volume 3240.000000
_symmetry_space_group_name_H-M "A M A 2"
_symmetry_group_IT_number 40
_symmetry_cell_setting 'orthorhombic'
loop_
_space_group_symop_operation_xyz
x,y,z
-x,-y,z
1/2-x,y,z
1/2+x,-y,z
x,1/2+y,1/2+z
-x,1/2-y,1/2+z
1/2-x,1/2+y,1/2+z
1/2+x,1/2-y,1/2+z
loop_
_atom_site_type_symbol
_atom_site_label
_atom_site_fract_x
_atom_site_fract_y
_atom_site_fract_z
Si Si1 0.076278 0.364937 0.984470
Si Si2 0.425245 0.882799 0.226647
Si Si3 0.427095 0.818289 0.030027
Si Si4 0.585182 0.820247 0.808402
Si Si5 0.074733 0.547941 0.591667
Si Si6 0.069773 0.220487 0.593233
Si Si7 0.574336 0.048245 0.873871
Si Si8 0.583638 0.410811 0.169551
O O1 0.250000 0.368711 0.014150
O O2 0.060472 0.367735 0.852705
O O3 0.011831 0.318411 0.027712
O O4 0.984399 0.403183 0.048490
O O5 0.250000 0.893401 0.206794
O O6 0.474568 0.845870 0.137558
O O7 0.526995 0.924568 0.198775
O O8 0.250000 0.819759 0.029985
O O9 0.474844 0.767451 0.044089
O O10 0.483320 0.832695 0.910165
O O11 0.750000 0.809787 0.850909
O O12 0.532027 0.781805 0.724955
O O13 0.595919 0.862066 0.725509
O O14 0.250000 0.544748 0.576431
O O15 0.000000 0.500000 0.602592
O O16 0.001753 0.570763 0.481806
O O17 0.250000 0.215346 0.586050
O O18 0.750000 0.047599 0.888890
O O19 0.527951 0.065852 0.753895
O O20 0.500000 0.000000 0.877140
O O21 0.750000 0.430563 0.169236
#
# Coordination Sequence:
#
# PCOD9365663 Si02
#       8
#     8   8   8   8   8   8   8   8
#     4  10  21  37  59  82 109 150 196 239 289 347
#     4  10  22  39  58  83 115 153 196 243 294 350
#     4  10  21  35  54  79 109 145 185 233 284 338
#     4   9  19  34  53  75 103 138 178 224 275 330
#     4  11  22  38  61  88 120 155 193 238 294 349
#     4   9  20  37  54  75 109 148 185 231 291 342
#     4  11  21  35  58  88 120 150 186 232 283 341
#     4  10  20  37  58  80 111 147 184 230 284 339
#
# _framework density 9.8765429999999999
#
# number of rings (size 3 to 8) (size 9 to 14) (size 15 to 20)
#    0.000    2.000    0.000    5.250    1.750    6.500 
#    0.000    0.625    0.000    3.000    0.000    0.000 
#    0.000    0.000    0.000    0.000    0.000    0.000 
#
# Total GULP energy -178342.421824 kJ/mol
# GULP energy per Si atom -5573.200682 kJ/mol
# Density = 0.985406 g / cm^3
# Si number density = 9.876543 Si / 1000 Ang^3
#
#
#
# Elastic Constant Matrix: (Units=GPa)
#
#
# Indices 1 2 3 4 5 6 
#
# 1 97.1784 35.2634 43.8759 0.0000 0.0000 0.0000
# 2 35.2634 47.2435 28.6298 0.0000 0.0000 0.0000
# 3 43.8759 28.6298 74.0069 0.0000 0.0000 0.0000
# 4 0.0000 0.0000 0.0000 12.4464 0.0000 0.0000
# 5 0.0000 0.0000 0.0000 0.0000 29.3220 0.0000
# 6 0.0000 0.0000 0.0000 0.0000 0.0000 17.6301
#
#
#
# Elastic Compliance Matrix: (Units=1/GPa)
#
#
# Indices 1 2 3 4 5 6 
#
# 1 0.016151 -0.008167 -0.006416 0.000000 0.000000 0.000000
# 2 -0.008167 0.031779 -0.007452 0.000000 0.000000 0.000000
# 3 -0.006416 -0.007452 0.020199 0.000000 0.000000 0.000000
# 4 0.000000 0.000000 0.000000 0.080345 0.000000 0.000000
# 5 0.000000 0.000000 0.000000 0.000000 0.034104 0.000000
# 6 0.000000 0.000000 0.000000 0.000000 0.000000 0.056721
#
#
# Mechanical properties :
#
#
# Convention : Reuss Voigt Hill
#
# Bulk Modulus (GPa) = 41.56456 48.21857 44.89156
# Shear Modulus (GPa) = 17.15934 19.25703 18.20818
#
# Velocity S-wave (km/s) = 2.95055 3.12571 3.03939
# Velocity P-wave (km/s) = 5.71799 6.12294 5.92393
#
# Compressibility (1/GPa) = 0.02405896
#
# Stress axis : x y z
#
# Youngs Moduli (GPa) = 61.91705 31.46747 49.50854
#
# Poissons Ratio (x) = 0.25700 0.31763
# Poissons Ratio (y) = 0.50569 0.36892
# Poissons Ratio (z) = 0.39723 0.23449
#
# Static dielectric constant tensor:
#      x y z
#    x 1.688500 0.000000 0.000000 
#    y 0.000000 1.790840 0.000000 
#    z 0.000000 0.000000 1.749470 
# 
# From -- ./inp_files/10579.got.cif
#   From: 2010.05.17/outbox.ucp.g08.bks.cvg/sg40_6_cif.got.tgz:10579.got - 2010.06.11 16:26:39.
