data_PCOD9365164
_publ_section_title
;
Structure prediction by ZEFSAII (Michael W. Deem and Ramdas Pophale) SiO2 
 PCOD9365164
Probable space group: A M A 2
;
_chemical_formula_sum "Si O2"
_cell_formula_units_Z 56
_cell_length_a 22.594360
_cell_length_b 10.058101
_cell_length_c 11.750838
_cell_angle_alpha 90.000000
_cell_angle_beta 90.000000
_cell_angle_gamma 90.000000
_cell_volume 2670.452611
_symmetry_space_group_name_H-M "A M A 2"
_symmetry_group_IT_number 40
_symmetry_cell_setting 'orthorhombic'
loop_
_space_group_symop_operation_xyz
x,y,z
-x,-y,z
1/2-x,y,z
1/2+x,-y,z
x,1/2+y,1/2+z
-x,1/2-y,1/2+z
1/2-x,1/2+y,1/2+z
1/2+x,1/2-y,1/2+z
loop_
_atom_site_type_symbol
_atom_site_label
_atom_site_fract_x
_atom_site_fract_y
_atom_site_fract_z
Si Si1 0.071866 0.731095 0.609380
Si Si2 0.067396 0.484703 0.439112
Si Si3 0.934696 0.440082 0.810894
Si Si4 0.812821 0.096807 0.575312
Si Si5 0.140538 0.617067 0.241717
Si Si6 0.315925 0.405087 0.808188
Si Si7 0.444809 0.193978 0.542125
O O1 0.072986 0.593355 0.539608
O O2 0.064474 0.696842 0.741309
O O3 0.131505 0.809901 0.593257
O O4 0.014965 0.807290 0.562406
O O5 0.113566 0.526744 0.342173
O O6 0.073140 0.338875 0.493269
O O7 0.000000 0.500000 0.394060
O O8 0.876723 0.521676 0.770087
O O9 0.929365 0.411003 0.944412
O O10 0.000000 0.500000 0.788473
O O11 0.750000 0.164536 0.601117
O O12 0.812432 0.062658 0.442145
O O13 0.819728 0.971210 0.657945
O O14 0.172533 0.747846 0.290342
O O15 0.087521 0.666122 0.160035
O O16 0.250000 0.438620 0.759550
#
# Coordination Sequence:
#
# PCOD9365164 Si02
#       7
#     8   8   8   8   8   8   8
#     4  11  23  42  65  94 136 172 218 282 341 407
#     4  10  23  40  61  98 133 167 216 270 337 405
#     4  12  24  42  68  99 137 175 228 284 342 408
#     4  11  24  42  64  94 128 174 228 276 338 410
#     4  12  23  42  71  95 134 179 218 281 338 405
#     4  11  24  45  68  96 135 182 230 282 342 411
#     4  11  25  39  65 103 133 169 223 276 341 407
#
# _framework density 20.970229
#
# number of rings (size 3 to 8) (size 9 to 14) (size 15 to 20)
#    0.000    0.857    2.857    5.143    8.000    0.571 
#    0.000    0.000    0.000    4.286    0.000    0.000 
#    0.000    0.000    0.000    0.000    0.000    0.000 
#
# Total GULP energy -156476.845029 kJ/mol
# GULP energy per Si atom -5588.458751 kJ/mol
# Density = 2.092250 g / cm^3
# Si number density = 20.970229 Si / 1000 Ang^3
#
#
#
# Elastic Constant Matrix: (Units=GPa)
#
#
# Indices 1 2 3 4 5 6 
#
# 1 172.5229 54.3182 24.3897 0.0000 0.0000 0.0000
# 2 54.3182 53.5021 1.6324 0.0000 0.0000 0.0000
# 3 24.3897 1.6324 73.7275 0.0000 0.0000 0.0000
# 4 0.0000 0.0000 0.0000 31.6987 0.0000 0.0000
# 5 0.0000 0.0000 0.0000 0.0000 -2.5773 0.0000
# 6 0.0000 0.0000 0.0000 0.0000 0.0000 -7.1512
#
#
#
# Elastic Compliance Matrix: (Units=1/GPa)
#
#
# Indices 1 2 3 4 5 6 
#
# 1 0.009061 -0.009114 -0.002796 0.000000 0.000000 0.000000
# 2 -0.009114 0.027871 0.002398 0.000000 0.000000 0.000000
# 3 -0.002796 0.002398 0.014435 0.000000 0.000000 0.000000
# 4 0.000000 0.000000 0.000000 0.031547 0.000000 0.000000
# 5 0.000000 0.000000 0.000000 0.000000 -0.388007 0.000000
# 6 0.000000 0.000000 0.000000 0.000000 0.000000 -0.139836
#
#
# Mechanical properties :
#
#
# Convention : Reuss Voigt Hill
#
# Bulk Modulus (GPa) = 30.91814 51.15920 41.03867
# Shear Modulus (GPa) = -12.04457 19.02153 3.48848
#
# Velocity S-wave (km/s) = -2.39919 3.01503 1.29118
# Velocity P-wave (km/s) = 2.66477 6.04728 4.67283
#
# Compressibility (1/GPa) = 0.03234347
#
# Stress axis : x y z
#
# Youngs Moduli (GPa) = 110.36237 35.87997 69.27503
#
# Poissons Ratio (x) = 0.32701 0.19367
# Poissons Ratio (y) = 1.00584 -0.16612
# Poissons Ratio (z) = 0.30854 -0.08604
#
# Static dielectric constant tensor:
#      x y z
#    x 1.770880 0.000000 0.000000 
#    y 0.000000 1.754720 0.000000 
#    z 0.000000 0.000000 1.738380 
# 
# From -- ./inp_files/13570.got.cif
#   From: 2010.05.17/outbox.cif.g08.bks.cpg/sg40_7_cif.got.tgz:13570.got - 2010.06.03 18:35:42.
