data_PCOD9365918
_publ_section_title
;
Structure prediction by ZEFSAII (Michael W. Deem and Ramdas Pophale) SiO2 
 PCOD9365918
Probable space group: A B A 2
;
_chemical_formula_sum "Si O2"
_cell_formula_units_Z 52
_cell_length_a 9.091488
_cell_length_b 18.112313
_cell_length_c 16.680663
_cell_angle_alpha 90.000000
_cell_angle_beta 90.000000
_cell_angle_gamma 90.000000
_cell_volume 2746.769351
_symmetry_space_group_name_H-M "A B A 2"
_symmetry_group_IT_number 41
_symmetry_cell_setting 'orthorhombic'
loop_
_space_group_symop_operation_xyz
x,y,z
-x,-y,z
1/2-x,y,1/2+z
1/2+x,-y,1/2+z
x,1/2+y,1/2+z
-x,1/2-y,1/2+z
1/2-x,1/2+y,z
1/2+x,1/2-y,z
loop_
_atom_site_type_symbol
_atom_site_label
_atom_site_fract_x
_atom_site_fract_y
_atom_site_fract_z
Si Si1 0.738307 0.900113 0.464680
Si Si2 0.150994 0.692036 0.829776
Si Si3 0.500000 0.500000 0.039507
Si Si4 0.601149 0.743337 0.222633
Si Si5 0.019451 0.282553 0.474698
Si Si6 0.517699 0.355180 0.588580
Si Si7 0.301827 0.374054 0.093455
O O1 0.818331 0.884112 0.379134
O O2 0.630514 0.968388 0.482790
O O3 0.625347 0.831483 0.468039
O O4 0.853380 0.894325 0.538223
O O5 0.297569 0.728565 0.794646
O O6 0.078863 0.746138 0.894871
O O7 0.036911 0.696756 0.756116
O O8 0.422642 0.438620 0.095046
O O9 0.561620 0.817661 0.172754
O O10 0.683616 0.686926 0.163167
O O11 0.983000 0.217196 0.535664
O O12 0.149176 0.331686 0.512678
O O13 0.366397 0.400330 0.593153
#
# Coordination Sequence:
#
# PCOD9365918 Si02
#       7
#     8   8   4   8   8   8   8
#     4  10  21  37  59  83 118 162 199 241 286 363
#     4  11  20  33  59  93 123 144 182 249 318 351
#     4  10  24  42  60  74 118 170 216 232 272 352
#     4  11  21  33  60  95 122 146 182 255 321 354
#     4   9  18  33  55  88 117 147 185 247 306 349
#     4  10  19  33  59  90 113 146 198 252 303 346
#     4  10  21  37  58  80 118 156 202 237 288 358
#
# _framework density 18.931331
#
# number of rings (size 3 to 8) (size 9 to 14) (size 15 to 20)
#    0.000    1.846    3.077    2.769    6.462    0.615 
#    0.000    0.000   10.154    0.000    0.000    0.000 
#    0.000    0.000    0.000    0.000    0.000    0.000 
#
# Total GULP energy -144815.934057 kJ/mol
# GULP energy per Si atom -5569.843618 kJ/mol
# Density = 1.888824 g / cm^3
# Si number density = 18.931331 Si / 1000 Ang^3
#
#
#
# Elastic Constant Matrix: (Units=GPa)
#
#
# Indices 1 2 3 4 5 6 
#
# 1 107.4976 6.7889 27.2862 0.0000 0.0000 0.0000
# 2 6.7889 27.3901 3.6549 0.0000 0.0000 0.0000
# 3 27.2862 3.6549 66.5477 0.0000 0.0000 0.0000
# 4 0.0000 0.0000 0.0000 11.2764 0.0000 0.0000
# 5 0.0000 0.0000 0.0000 0.0000 16.6668 0.0000
# 6 0.0000 0.0000 0.0000 0.0000 0.0000 5.0106
#
#
#
# Elastic Compliance Matrix: (Units=1/GPa)
#
#
# Indices 1 2 3 4 5 6 
#
# 1 0.010495 -0.002042 -0.004191 0.000000 0.000000 0.000000
# 2 -0.002042 0.037176 -0.001204 0.000000 0.000000 0.000000
# 3 -0.004191 -0.001204 0.016811 0.000000 0.000000 0.000000
# 4 0.000000 0.000000 0.000000 0.088681 0.000000 0.000000
# 5 0.000000 0.000000 0.000000 0.000000 0.059999 0.000000
# 6 0.000000 0.000000 0.000000 0.000000 0.000000 0.199576
#
#
# Mechanical properties :
#
#
# Convention : Reuss Voigt Hill
#
# Bulk Modulus (GPa) = 20.15816 30.76617 25.46216
# Shear Modulus (GPa) = 11.25743 17.50446 14.38095
#
# Velocity S-wave (km/s) = 2.44118 3.04407 2.75914
# Velocity P-wave (km/s) = 4.31474 5.35181 4.86101
#
# Compressibility (1/GPa) = 0.04960771
#
# Stress axis : x y z
#
# Youngs Moduli (GPa) = 95.28023 26.89874 59.48319
#
# Poissons Ratio (x) = 0.05493 0.24931
# Poissons Ratio (y) = 0.19457 0.07164
# Poissons Ratio (z) = 0.39934 0.03240
#
# Static dielectric constant tensor:
#      x y z
#    x 1.728290 0.000000 0.000000 
#    y 0.000000 1.663760 0.000000 
#    z 0.000000 0.000000 1.706180 
# 
# From -- ./inp_files/7414.got.cif
#   From: 2010.05.17/outbox.cif.g08.bks.cpg/sg41_4_cif.got.tgz:7414.got - 2010.06.03 18:54:24.
