data_PCOD9365110
_publ_section_title
;
Structure prediction by ZEFSAII (Michael W. Deem and Ramdas Pophale) SiO2 
 PCOD9365110
Probable space group: A M A 2
;
_chemical_formula_sum "Si O2"
_cell_formula_units_Z 56
_cell_length_a 28.558325
_cell_length_b 16.144336
_cell_length_c 5.047624
_cell_angle_alpha 90.000000
_cell_angle_beta 90.000000
_cell_angle_gamma 90.000000
_cell_volume 2327.233265
_symmetry_space_group_name_H-M "A M A 2"
_symmetry_group_IT_number 40
_symmetry_cell_setting 'orthorhombic'
loop_
_space_group_symop_operation_xyz
x,y,z
-x,-y,z
1/2-x,y,z
1/2+x,-y,z
x,1/2+y,1/2+z
-x,1/2-y,1/2+z
1/2-x,1/2+y,1/2+z
1/2+x,1/2-y,1/2+z
loop_
_atom_site_type_symbol
_atom_site_label
_atom_site_fract_x
_atom_site_fract_y
_atom_site_fract_z
Si Si1 0.305275 0.156366 0.674390
Si Si2 0.924106 0.372720 0.736768
Si Si3 0.640146 0.494432 0.945419
Si Si4 0.450036 0.006734 0.816025
Si Si5 0.533113 0.764628 0.636108
Si Si6 0.610029 0.630391 0.569602
Si Si7 0.150493 0.249999 0.177162
O O1 0.250000 0.151470 0.710512
O O2 0.319972 0.204858 0.408662
O O3 0.324078 0.060873 0.623638
O O4 0.326030 0.216050 0.906947
O O5 0.955161 0.419481 0.528248
O O6 0.902302 0.285223 0.660489
O O7 0.876766 0.428130 0.726069
O O8 0.947764 0.351779 0.017211
O O9 0.592745 0.496857 0.113619
O O10 0.642919 0.580886 0.781865
O O11 0.500000 0.000000 0.680255
O O12 0.432752 0.929873 0.995688
O O13 0.499257 0.735815 0.394406
O O14 0.579829 0.708672 0.670242
O O15 0.640911 0.659652 0.314706
#
# Coordination Sequence:
#
# PCOD9365110 Si02
#       7
#     8   8   8   8   8   8   8
#     4  11  23  45  76 102 130 177 237 297 372 464
#     4   9  21  39  58  88 128 185 225 291 339 421
#     4  10  23  41  67  96 139 183 231 293 362 435
#     4  11  22  37  63  93 138 187 240 279 347 423
#     4  11  25  38  61  91 133 179 248 293 341 411
#     4  10  25  41  64  97 141 190 230 302 367 423
#     4  10  22  43  71  99 135 175 230 291 371 437
#
# _framework density 24.062906999999999
#
# number of rings (size 3 to 8) (size 9 to 14) (size 15 to 20)
#    0.000    1.714    1.429    1.286    8.000    4.571 
#    0.000    1.429    0.000    0.000    0.000    0.000 
#    0.000    0.000    0.000    0.000    0.000    0.000 
#
# Total GULP energy -155868.623409 kJ/mol
# GULP energy per Si atom -5566.736550 kJ/mol
# Density = 2.400814 g / cm^3
# Si number density = 24.062907 Si / 1000 Ang^3
#
#
#
# Elastic Constant Matrix: (Units=GPa)
#
#
# Indices 1 2 3 4 5 6 
#
# 1 128.0517 42.8630 30.5340 0.0000 0.0000 0.0000
# 2 42.8630 116.1593 68.6928 0.0000 0.0000 0.0000
# 3 30.5340 68.6928 129.7337 0.0000 0.0000 0.0000
# 4 0.0000 0.0000 0.0000 44.2991 0.0000 0.0000
# 5 0.0000 0.0000 0.0000 0.0000 25.8896 0.0000
# 6 0.0000 0.0000 0.0000 0.0000 0.0000 29.0994
#
#
#
# Elastic Compliance Matrix: (Units=1/GPa)
#
#
# Indices 1 2 3 4 5 6 
#
# 1 0.008934 -0.002989 -0.000520 0.000000 0.000000 0.000000
# 2 -0.002989 0.013533 -0.006462 0.000000 0.000000 0.000000
# 3 -0.000520 -0.006462 0.011252 0.000000 0.000000 0.000000
# 4 0.000000 0.000000 0.000000 0.022574 0.000000 0.000000
# 5 0.000000 0.000000 0.000000 0.000000 0.038626 0.000000
# 6 0.000000 0.000000 0.000000 0.000000 0.000000 0.034365
#
#
# Mechanical properties :
#
#
# Convention : Reuss Voigt Hill
#
# Bulk Modulus (GPa) = 72.58611 73.12494 72.85552
# Shear Modulus (GPa) = 32.50573 35.31460 33.91016
#
# Velocity S-wave (km/s) = 3.67940 3.83508 3.75804
# Velocity P-wave (km/s) = 6.94847 7.07569 7.01237
#
# Compressibility (1/GPa) = 0.01377674
#
# Stress axis : x y z
#
# Youngs Moduli (GPa) = 111.93329 73.89083 88.87135
#
# Poissons Ratio (x) = 0.22087 0.04621
# Poissons Ratio (y) = 0.33458 0.57432
# Poissons Ratio (z) = 0.05820 0.47751
#
# Static dielectric constant tensor:
#      x y z
#    x 1.872570 0.000000 0.000000 
#    y 0.000000 2.293300 0.000000 
#    z 0.000000 0.000000 2.110860 
# 
# From -- ./inp_files/3413.got.cif
#   From: 2010.05.17/outbox.cif.g08.bks.cpg/sg40_2_cif.got.tgz:3413.got - 2010.06.03 18:35:42.
