data_PCOD9365038
_publ_section_title
;
Structure prediction by ZEFSAII (Michael W. Deem and Ramdas Pophale) SiO2 
 PCOD9365038
Probable space group: A M A 2
;
_chemical_formula_sum "Si O2"
_cell_formula_units_Z 48
_cell_length_a 16.192724
_cell_length_b 14.132966
_cell_length_c 10.268172
_cell_angle_alpha 90.000000
_cell_angle_beta 90.000000
_cell_angle_gamma 90.000000
_cell_volume 2349.883666
_symmetry_space_group_name_H-M "A M A 2"
_symmetry_group_IT_number 40
_symmetry_cell_setting 'orthorhombic'
loop_
_space_group_symop_operation_xyz
x,y,z
-x,-y,z
1/2-x,y,z
1/2+x,-y,z
x,1/2+y,1/2+z
-x,1/2-y,1/2+z
1/2-x,1/2+y,1/2+z
1/2+x,1/2-y,1/2+z
loop_
_atom_site_type_symbol
_atom_site_label
_atom_site_fract_x
_atom_site_fract_y
_atom_site_fract_z
Si Si1 0.421940 0.723546 0.574570
Si Si2 0.750000 0.011486 0.159608
Si Si3 0.250000 0.818299 0.629819
Si Si4 0.750000 0.019556 0.848856
Si Si5 0.034898 0.603975 0.051866
Si Si6 0.619849 0.355679 0.318768
Si Si7 0.923204 0.926422 0.270032
Si Si8 0.250000 0.812150 0.343627
O O1 0.330185 0.751931 0.622441
O O2 0.462926 0.820477 0.528133
O O3 0.429454 0.651130 0.453751
O O4 0.456159 0.667453 0.698179
O O5 0.750000 0.110398 0.234085
O O6 0.836585 0.960041 0.203256
O O7 0.750000 0.032298 0.004948
O O8 0.250000 0.890516 0.751148
O O9 0.250000 0.863920 0.484464
O O10 0.672671 0.951537 0.820246
O O11 0.075909 0.642946 0.181712
O O12 0.000000 0.500000 0.079000
O O13 0.090340 0.595041 0.922890
O O14 0.674444 0.260777 0.331244
O O15 0.000000 0.000000 0.263791
#
# Coordination Sequence:
#
# PCOD9365038 Si02
#       8
#     8   4   4   4   8   8   8   4
#     4  11  22  45  66  95 142 176 223 282 349 403
#     4  12  25  45  69  95 140 178 230 278 344 400
#     4  10  23  40  72  96 129 179 222 284 346 406
#     4  11  22  43  65  98 131 169 234 274 335 415
#     4  11  25  40  66 101 133 177 231 278 341 408
#     4  10  22  42  64  94 131 171 222 277 336 405
#     4  11  27  45  69 101 139 183 231 283 343 410
#     4   9  24  38  70  89 128 174 216 276 339 397
#
# _framework density 20.426542999999999
#
# number of rings (size 3 to 8) (size 9 to 14) (size 15 to 20)
#    0.000    1.333    1.667    3.000   14.000    2.667 
#    3.000    0.000    0.000    0.000    0.000    0.000 
#    0.000    0.000    0.000    0.000    0.000    0.000 
#
# Total GULP energy -133824.136498 kJ/mol
# GULP energy per Si atom -5576.005687 kJ/mol
# Density = 2.038005 g / cm^3
# Si number density = 20.426543 Si / 1000 Ang^3
#
#
#
# Elastic Constant Matrix: (Units=GPa)
#
#
# Indices 1 2 3 4 5 6 
#
# 1 52.8880 16.1918 50.7829 0.0000 0.0000 0.0000
# 2 16.1918 86.6095 56.1512 0.0000 0.0000 0.0000
# 3 50.7829 56.1512 164.2596 0.0000 0.0000 0.0000
# 4 0.0000 0.0000 0.0000 49.1869 0.0000 0.0000
# 5 0.0000 0.0000 0.0000 0.0000 25.8861 0.0000
# 6 0.0000 0.0000 0.0000 0.0000 0.0000 163.1515
#
#
#
# Elastic Compliance Matrix: (Units=1/GPa)
#
#
# Indices 1 2 3 4 5 6 
#
# 1 0.026905 0.000466 -0.008477 0.000000 0.000000 0.000000
# 2 0.000466 0.014842 -0.005218 0.000000 0.000000 0.000000
# 3 -0.008477 -0.005218 0.010492 0.000000 0.000000 0.000000
# 4 0.000000 0.000000 0.000000 0.020331 0.000000 0.000000
# 5 0.000000 0.000000 0.000000 0.000000 0.038631 0.000000
# 6 0.000000 0.000000 0.000000 0.000000 0.000000 0.006129
#
#
# Mechanical properties :
#
#
# Convention : Reuss Voigt Hill
#
# Bulk Modulus (GPa) = 38.78760 61.11209 49.94985
# Shear Modulus (GPa) = 32.81239 59.68699 46.24969
#
# Velocity S-wave (km/s) = 4.01229 5.41145 4.76352
# Velocity P-wave (km/s) = 6.36354 8.30830 7.40009
#
# Compressibility (1/GPa) = 0.02578143
#
# Stress axis : x y z
#
# Youngs Moduli (GPa) = 37.16766 67.37788 95.30676
#
# Poissons Ratio (x) = -0.03141 0.80795
# Poissons Ratio (y) = -0.01733 0.49728
# Poissons Ratio (z) = 0.31508 0.35155
#
# Static dielectric constant tensor:
#      x y z
#    x 1.810360 0.000000 0.000000 
#    y 0.000000 1.711970 0.000000 
#    z 0.000000 0.000000 1.748730 
# 
# From -- ./inp_files/7495.got.cif
#   From: 2010.05.17/outbox.cif.g08.bks.cpg/sg40_4_cif.got.tgz:7495.got - 2010.06.03 18:35:42.
