data_PCOD9365830
_publ_section_title
;
Structure prediction by ZEFSAII (Michael W. Deem and Ramdas Pophale) SiO2 
 PCOD9365830
Probable space group: A B A 2
;
_chemical_formula_sum "Si O2"
_cell_formula_units_Z 40
_cell_length_a 24.876823
_cell_length_b 5.004949
_cell_length_c 12.928177
_cell_angle_alpha 90.000000
_cell_angle_beta 90.000000
_cell_angle_gamma 90.000000
_cell_volume 1609.651512
_symmetry_space_group_name_H-M "A B A 2"
_symmetry_group_IT_number 41
_symmetry_cell_setting 'orthorhombic'
loop_
_space_group_symop_operation_xyz
x,y,z
-x,-y,z
1/2-x,y,1/2+z
1/2+x,-y,1/2+z
x,1/2+y,1/2+z
-x,1/2-y,1/2+z
1/2-x,1/2+y,z
1/2+x,1/2-y,z
loop_
_atom_site_type_symbol
_atom_site_label
_atom_site_fract_x
_atom_site_fract_y
_atom_site_fract_z
Si Si1 0.784119 0.650011 0.750000
Si Si2 0.378946 0.669586 0.155310
Si Si3 0.500000 0.000000 0.675319
Si Si4 0.341838 0.445090 0.451476
Si Si5 0.000000 0.500000 0.320128
Si Si6 0.107496 0.945957 0.874490
O O1 0.737890 0.438370 0.723435
O O2 0.838445 0.564238 0.691833
O O3 0.792578 0.617717 0.874637
O O4 0.440870 0.583708 0.127529
O O5 0.383058 0.855053 0.257101
O O6 0.348597 0.828955 0.064849
O O7 0.515715 0.256405 0.745270
O O8 0.354967 0.757549 0.443226
O O9 0.385504 0.257895 0.392781
O O10 0.045884 0.382996 0.392464
#
# Coordination Sequence:
#
# PCOD9365830 Si02
#       6
#     8   8   4   8   4   8
#     4  11  24  43  68  99 134 175 229 286 341 408
#     4  10  24  45  69  98 138 179 223 285 346 402
#     4  10  22  39  68  99 130 178 228 269 336 423
#     4  11  24  41  66  95 129 173 225 275 338 407
#     4  10  18  37  62  87 130 176 212 269 330 381
#     4  10  22  40  62  93 131 172 221 272 324 400
#
# _framework density 24.850099
#
# number of rings (size 3 to 8) (size 9 to 14) (size 15 to 20)
#    0.000    1.600    0.000    6.000    0.000   12.000 
#    0.000    4.000    0.000    0.000    0.000    0.000 
#    0.000    0.000    0.000    0.000    0.000    0.000 
#
# Total GULP energy -111648.780520 kJ/mol
# GULP energy per Si atom -5582.439026 kJ/mol
# Density = 2.479354 g / cm^3
# Si number density = 24.850099 Si / 1000 Ang^3
#
#
#
# Elastic Constant Matrix: (Units=GPa)
#
#
# Indices 1 2 3 4 5 6 
#
# 1 120.7379 22.2241 32.6285 0.0000 0.0000 0.0000
# 2 22.2241 80.3707 18.0507 0.0000 0.0000 0.0000
# 3 32.6285 18.0507 126.2654 0.0000 0.0000 0.0000
# 4 0.0000 0.0000 0.0000 16.4681 0.0000 0.0000
# 5 0.0000 0.0000 0.0000 0.0000 19.2552 0.0000
# 6 0.0000 0.0000 0.0000 0.0000 0.0000 39.3362
#
#
#
# Elastic Compliance Matrix: (Units=1/GPa)
#
#
# Indices 1 2 3 4 5 6 
#
# 1 0.009230 -0.002083 -0.002087 0.000000 0.000000 0.000000
# 2 -0.002083 0.013325 -0.001367 0.000000 0.000000 0.000000
# 3 -0.002087 -0.001367 0.008655 0.000000 0.000000 0.000000
# 4 0.000000 0.000000 0.000000 0.060723 0.000000 0.000000
# 5 0.000000 0.000000 0.000000 0.000000 0.051934 0.000000
# 6 0.000000 0.000000 0.000000 0.000000 0.000000 0.025422
#
#
# Mechanical properties :
#
#
# Convention : Reuss Voigt Hill
#
# Bulk Modulus (GPa) = 49.66414 52.57560 51.11987
# Shear Modulus (GPa) = 26.72715 31.97662 29.35189
#
# Velocity S-wave (km/s) = 3.28309 3.59106 3.44053
# Velocity P-wave (km/s) = 5.86519 6.19656 6.03315
#
# Compressibility (1/GPa) = 0.02013525
#
# Stress axis : x y z
#
# Youngs Moduli (GPa) = 108.34260 75.04473 115.54593
#
# Poissons Ratio (x) = 0.15635 0.24118
# Poissons Ratio (y) = 0.22573 0.15790
# Poissons Ratio (z) = 0.22614 0.10255
#
# Static dielectric constant tensor:
#      x y z
#    x 2.028550 0.000000 0.000000 
#    y 0.000000 1.971170 0.000000 
#    z 0.000000 0.000000 2.011110 
# 
# From -- ./inp_files/6517.got.cif
#   From: 2010.05.17/outbox.cif.g08.bks.cpg/sg41_4_cif.got.tgz:6517.got - 2010.06.03 18:54:24.
