data_PCOD9365411
_publ_section_title
;
Structure prediction by ZEFSAII (Michael W. Deem and Ramdas Pophale) SiO2 
 PCOD9365411
Probable space group: A M A 2
;
_chemical_formula_sum "Si O2"
_cell_formula_units_Z 64
_cell_length_a 16.790030
_cell_length_b 10.112832
_cell_length_c 20.906022
_cell_angle_alpha 90.000000
_cell_angle_beta 90.000000
_cell_angle_gamma 90.000000
_cell_volume 3549.732835
_symmetry_space_group_name_H-M "A M A 2"
_symmetry_group_IT_number 40
_symmetry_cell_setting 'orthorhombic'
loop_
_space_group_symop_operation_xyz
x,y,z
-x,-y,z
1/2-x,y,z
1/2+x,-y,z
x,1/2+y,1/2+z
-x,1/2-y,1/2+z
1/2-x,1/2+y,1/2+z
1/2+x,1/2-y,1/2+z
loop_
_atom_site_type_symbol
_atom_site_label
_atom_site_fract_x
_atom_site_fract_y
_atom_site_fract_z
Si Si1 0.564785 0.884095 0.790240
Si Si2 0.845912 0.285885 0.050736
Si Si3 0.904572 0.987182 0.657510
Si Si4 0.655597 0.284051 0.902565
Si Si5 0.343909 0.531346 0.409533
Si Si6 0.654836 0.786627 0.165824
Si Si7 0.347202 0.015894 0.052891
Si Si8 0.048746 0.134502 0.285917
O O1 0.614031 0.921077 0.726514
O O2 0.515935 0.751009 0.782026
O O3 0.500000 0.000000 0.797958
O O4 0.615447 0.884931 0.854532
O O5 0.750000 0.286169 0.054270
O O6 0.877730 0.392793 0.100235
O O7 0.872760 0.135381 0.066287
O O8 0.865669 0.314399 0.976410
O O9 0.867668 0.133438 0.654777
O O10 0.000000 0.000000 0.655281
O O11 0.750000 0.313115 0.893063
O O12 0.645913 0.125110 0.894873
O O13 0.599320 0.353830 0.851346
O O14 0.250000 0.557650 0.409558
O O15 0.374827 0.553573 0.481495
O O16 0.750000 0.796797 0.173656
O O17 0.629820 0.878340 0.106052
O O18 0.609913 0.840113 0.228133
O O19 0.250000 0.013237 0.050751
O O20 0.000000 0.000000 0.280942
#
# Coordination Sequence:
#
# PCOD9365411 Si02
#       8
#     8   8   8   8   8   8   8   8
#     4  11  21  40  57  83 117 145 192 246 283 347
#     4   9  19  37  62  87 114 149 195 245 287 344
#     4  11  22  38  57  86 121 151 191 245 296 349
#     4   9  18  38  64  86 111 153 200 237 287 357
#     4   9  17  36  65  88 109 148 198 242 283 340
#     4  11  22  40  64  86 115 161 201 237 292 358
#     4   8  18  36  59  88 114 143 192 241 281 337
#     4  12  25  40  58  85 122 154 192 246 303 346
#
# _framework density 18.029526000000001
#
# number of rings (size 3 to 8) (size 9 to 14) (size 15 to 20)
#    0.000    2.000    3.750    2.250    1.750    2.500 
#    4.500    1.875    0.000    0.000    0.000    0.000 
#    0.000    0.000    0.000    0.000    0.000    0.000 
#
# Total GULP energy -178571.411146 kJ/mol
# GULP energy per Si atom -5580.356598 kJ/mol
# Density = 1.798849 g / cm^3
# Si number density = 18.029526 Si / 1000 Ang^3
#
#
#
# Elastic Constant Matrix: (Units=GPa)
#
#
# Indices 1 2 3 4 5 6 
#
# 1 49.6902 49.8283 60.3669 0.0000 0.0000 0.0000
# 2 49.8283 126.9264 87.5843 0.0000 0.0000 0.0000
# 3 60.3669 87.5843 157.8528 0.0000 0.0000 0.0000
# 4 0.0000 0.0000 0.0000 31.0657 0.0000 0.0000
# 5 0.0000 0.0000 0.0000 0.0000 -15.3425 0.0000
# 6 0.0000 0.0000 0.0000 0.0000 0.0000 27.7821
#
#
#
# Elastic Compliance Matrix: (Units=1/GPa)
#
#
# Indices 1 2 3 4 5 6 
#
# 1 0.043107 -0.008989 -0.011498 0.000000 0.000000 0.000000
# 2 -0.008989 0.014641 -0.004686 0.000000 0.000000 0.000000
# 3 -0.011498 -0.004686 0.013332 0.000000 0.000000 0.000000
# 4 0.000000 0.000000 0.000000 0.032190 0.000000 0.000000
# 5 0.000000 0.000000 0.000000 0.000000 -0.065178 0.000000
# 6 0.000000 0.000000 0.000000 0.000000 0.000000 0.035994
#
#
# Mechanical properties :
#
#
# Convention : Reuss Voigt Hill
#
# Bulk Modulus (GPa) = 48.22832 81.11427 64.67129
# Shear Modulus (GPa) = 38.06872 17.81371 27.94122
#
# Velocity S-wave (km/s) = 4.60005 3.14670 3.94095
# Velocity P-wave (km/s) = 7.41766 7.63477 7.52700
#
# Compressibility (1/GPa) = 0.02073471
#
# Stress axis : x y z
#
# Youngs Moduli (GPa) = 23.19835 68.30218 75.00788
#
# Poissons Ratio (x) = 0.61396 0.86241
# Poissons Ratio (y) = 0.20853 0.35148
# Poissons Ratio (z) = 0.26673 0.32006
#
# Static dielectric constant tensor:
#      x y z
#    x 1.619890 0.000000 0.000000 
#    y 0.000000 1.587140 0.000000 
#    z 0.000000 0.000000 1.633090 
# 
# From -- ./inp_files/23340.got.cif
#   From: 2010.05.17/outbox.cif.g08.bks.cpg/sg40_12_cif.got.tgz:23340.got - 2010.06.03 18:35:42.
