data_PCOD9365252
_publ_section_title
;
Structure prediction by ZEFSAII (Michael W. Deem and Ramdas Pophale) SiO2 
 PCOD9365252
Probable space group: A M A 2
;
_chemical_formula_sum "Si O2"
_cell_formula_units_Z 48
_cell_length_a 14.391855
_cell_length_b 16.871669
_cell_length_c 8.935437
_cell_angle_alpha 90.000000
_cell_angle_beta 90.000000
_cell_angle_gamma 90.000000
_cell_volume 2169.654685
_symmetry_space_group_name_H-M "A M A 2"
_symmetry_group_IT_number 40
_symmetry_cell_setting 'orthorhombic'
loop_
_space_group_symop_operation_xyz
x,y,z
-x,-y,z
1/2-x,y,z
1/2+x,-y,z
x,1/2+y,1/2+z
-x,1/2-y,1/2+z
1/2-x,1/2+y,1/2+z
1/2+x,1/2-y,1/2+z
loop_
_atom_site_type_symbol
_atom_site_label
_atom_site_fract_x
_atom_site_fract_y
_atom_site_fract_z
Si Si1 0.558461 0.781618 0.369590
Si Si2 0.250000 0.887028 0.185573
Si Si3 0.935192 0.832797 0.703002
Si Si4 0.250000 0.898662 0.842119
Si Si5 0.250000 0.222078 0.861114
Si Si6 0.144468 0.002884 0.641707
Si Si7 0.572772 0.569025 0.840872
Si Si8 0.750000 0.772875 0.215030
O O1 0.567898 0.783006 0.548581
O O2 0.521038 0.699823 0.299287
O O3 0.480422 0.847532 0.334600
O O4 0.656559 0.803447 0.294810
O O5 0.250000 0.811107 0.295319
O O6 0.342803 0.933629 0.226133
O O7 0.250000 0.869035 0.010561
O O8 0.842559 0.817142 0.797146
O O9 0.926795 0.924999 0.659067
O O10 0.162941 0.953277 0.792608
O O11 0.250000 0.821673 0.739329
O O12 0.250000 0.214391 0.038762
O O13 0.250000 0.033828 0.604928
O O14 0.115062 0.946690 0.505592
O O15 0.500000 0.500000 0.811171
#
# Coordination Sequence:
#
# PCOD9365252 Si02
#       8
#     8   4   8   4   4   8   8   4
#     4  12  28  45  76 112 147 204 257 322 377 466
#     4  12  24  48  72 103 154 188 247 326 376 458
#     4  12  24  46  74 112 149 198 260 310 385 463
#     4  10  25  47  75 110 148 209 238 323 399 449
#     4  12  23  47  75 102 149 199 242 327 378 452
#     4  10  23  46  77 107 149 203 250 302 399 465
#     4  12  25  47  77 106 146 202 249 305 392 461
#     4  12  28  48  72 107 161 196 265 316 397 451
#
# _framework density 22.123335999999998
#
# number of rings (size 3 to 8) (size 9 to 14) (size 15 to 20)
#    0.500    0.000    5.000    3.500    2.333    0.667 
#    9.000    0.833    0.000    0.000    0.000    0.000 
#    0.000    0.000    0.000    0.000    0.000    0.000 
#
# Total GULP energy -134290.987490 kJ/mol
# GULP energy per Si atom -5595.457812 kJ/mol
# Density = 2.207298 g / cm^3
# Si number density = 22.123336 Si / 1000 Ang^3
#
#
#
# Elastic Constant Matrix: (Units=GPa)
#
#
# Indices 1 2 3 4 5 6 
#
# 1 117.0345 20.9542 39.4014 0.0000 0.0000 0.0000
# 2 20.9542 67.1497 20.3064 0.0000 0.0000 0.0000
# 3 39.4014 20.3064 128.5030 0.0000 0.0000 0.0000
# 4 0.0000 0.0000 0.0000 31.0460 0.0000 0.0000
# 5 0.0000 0.0000 0.0000 0.0000 39.9145 0.0000
# 6 0.0000 0.0000 0.0000 0.0000 0.0000 41.0182
#
#
#
# Elastic Compliance Matrix: (Units=1/GPa)
#
#
# Indices 1 2 3 4 5 6 
#
# 1 0.009846 -0.002268 -0.002661 0.000000 0.000000 0.000000
# 2 -0.002268 0.016162 -0.001859 0.000000 0.000000 0.000000
# 3 -0.002661 -0.001859 0.008891 0.000000 0.000000 0.000000
# 4 0.000000 0.000000 0.000000 0.032210 0.000000 0.000000
# 5 0.000000 0.000000 0.000000 0.000000 0.025054 0.000000
# 6 0.000000 0.000000 0.000000 0.000000 0.000000 0.024379
#
#
# Mechanical properties :
#
#
# Convention : Reuss Voigt Hill
#
# Bulk Modulus (GPa) = 46.89280 52.66790 49.78035
# Shear Modulus (GPa) = 36.43638 37.86411 37.15024
#
# Velocity S-wave (km/s) = 4.06269 4.14152 4.10229
# Velocity P-wave (km/s) = 6.57642 6.83577 6.70735
#
# Compressibility (1/GPa) = 0.02132524
#
# Stress axis : x y z
#
# Youngs Moduli (GPa) = 101.56093 61.87413 112.46801
#
# Poissons Ratio (x) = 0.14033 0.29924
# Poissons Ratio (y) = 0.23034 0.20903
# Poissons Ratio (z) = 0.27022 0.11500
#
# Static dielectric constant tensor:
#      x y z
#    x 1.838910 0.000000 0.000000 
#    y 0.000000 1.831970 0.000000 
#    z 0.000000 0.000000 1.766490 
# 
# From -- ./inp_files/6529.got.cif
#   From: 2010.05.17/outbox.cif.g08.bks.cpg/sg40_4_cif.got.tgz:6529.got - 2010.06.03 18:35:42.
