data_PCOD9365161
_publ_section_title
;
Structure prediction by ZEFSAII (Michael W. Deem and Ramdas Pophale) SiO2 
 PCOD9365161
Probable space group: A M A 2
;
_chemical_formula_sum "Si O2"
_cell_formula_units_Z 24
_cell_length_a 18.224192
_cell_length_b 7.698185
_cell_length_c 7.109589
_cell_angle_alpha 90.000000
_cell_angle_beta 90.000000
_cell_angle_gamma 90.000000
_cell_volume 997.427002
_symmetry_space_group_name_H-M "A M A 2"
_symmetry_group_IT_number 40
_symmetry_cell_setting 'orthorhombic'
loop_
_space_group_symop_operation_xyz
x,y,z
-x,-y,z
1/2-x,y,z
1/2+x,-y,z
x,1/2+y,1/2+z
-x,1/2-y,1/2+z
1/2-x,1/2+y,1/2+z
1/2+x,1/2-y,1/2+z
loop_
_atom_site_type_symbol
_atom_site_label
_atom_site_fract_x
_atom_site_fract_y
_atom_site_fract_z
Si Si1 0.049266 0.650604 0.196600
Si Si2 0.163175 0.501589 0.965195
Si Si3 0.410155 0.148442 0.113135
O O1 0.072797 0.586846 0.402421
O O2 0.000000 0.500000 0.103931
O O3 0.989700 0.802790 0.201608
O O4 0.122054 0.658645 0.073495
O O5 0.250000 0.514800 0.970568
O O6 0.132984 0.522729 0.753152
O O7 0.137266 0.324041 0.068888
#
# Coordination Sequence:
#
# PCOD9365161 Si02
#       3
#     8   8   8
#     4  10  23  39  67  96 129 178 235 289 349 427
#     4  11  25  42  63 100 142 179 233 299 363 423
#     4  11  23  42  69  97 131 184 236 290 354 428
#
# _framework density 24.061914000000002
#
# number of rings (size 3 to 8) (size 9 to 14) (size 15 to 20)
#    0.000    1.333    3.333    1.000    4.667    2.667 
#    0.000    0.000    0.000    0.000    0.000    0.000 
#    0.000    0.000    0.000    0.000    0.000    0.000 
#
# Total GULP energy -67066.523118 kJ/mol
# GULP energy per Si atom -5588.876927 kJ/mol
# Density = 2.400715 g / cm^3
# Si number density = 24.061914 Si / 1000 Ang^3
#
#
#
# Elastic Constant Matrix: (Units=GPa)
#
#
# Indices 1 2 3 4 5 6 
#
# 1 230.3082 43.1446 63.1297 0.0000 0.0000 0.0000
# 2 43.1446 89.3665 22.7479 0.0000 0.0000 0.0000
# 3 63.1297 22.7479 151.1877 0.0000 0.0000 0.0000
# 4 0.0000 0.0000 0.0000 31.8778 0.0000 0.0000
# 5 0.0000 0.0000 0.0000 0.0000 30.0731 0.0000
# 6 0.0000 0.0000 0.0000 0.0000 0.0000 18.4599
#
#
#
# Elastic Compliance Matrix: (Units=1/GPa)
#
#
# Indices 1 2 3 4 5 6 
#
# 1 0.005242 -0.002052 -0.001880 0.000000 0.000000 0.000000
# 2 -0.002052 0.012439 -0.001015 0.000000 0.000000 0.000000
# 3 -0.001880 -0.001015 0.007552 0.000000 0.000000 0.000000
# 4 0.000000 0.000000 0.000000 0.031370 0.000000 0.000000
# 5 0.000000 0.000000 0.000000 0.000000 0.033252 0.000000
# 6 0.000000 0.000000 0.000000 0.000000 0.000000 0.054171
#
#
# Mechanical properties :
#
#
# Convention : Reuss Voigt Hill
#
# Bulk Modulus (GPa) = 65.19304 80.98964 73.09134
# Shear Modulus (GPa) = 31.44009 38.87151 35.15580
#
# Velocity S-wave (km/s) = 3.61866 4.02366 3.82652
# Velocity P-wave (km/s) = 6.67924 7.43763 7.06862
#
# Compressibility (1/GPa) = 0.01533906
#
# Stress axis : x y z
#
# Youngs Moduli (GPa) = 190.77574 80.39315 132.41573
#
# Poissons Ratio (x) = 0.16497 0.24894
# Poissons Ratio (y) = 0.39149 0.13436
# Poissons Ratio (z) = 0.35866 0.08157
#
# Static dielectric constant tensor:
#      x y z
#    x 1.889700 0.000000 0.000000 
#    y 0.000000 2.108590 0.000000 
#    z 0.000000 0.000000 1.927430 
# 
# From -- ./inp_files/946.got.cif
#   From: 2010.05.17/outbox.cif.g08.bks.cpg/sg40_1_cif.got.tgz:946.got - 2010.06.03 18:35:42.
