data_PCOD9365324
_publ_section_title
;
Structure prediction by ZEFSAII (Michael W. Deem and Ramdas Pophale) SiO2 
 PCOD9365324
Probable space group: A M A 2
;
_chemical_formula_sum "Si O2"
_cell_formula_units_Z 36
_cell_length_a 10.465568
_cell_length_b 9.378776
_cell_length_c 16.943849
_cell_angle_alpha 90.000000
_cell_angle_beta 90.000000
_cell_angle_gamma 90.000000
_cell_volume 1663.110248
_symmetry_space_group_name_H-M "A M A 2"
_symmetry_group_IT_number 40
_symmetry_cell_setting 'orthorhombic'
loop_
_space_group_symop_operation_xyz
x,y,z
-x,-y,z
1/2-x,y,z
1/2+x,-y,z
x,1/2+y,1/2+z
-x,1/2-y,1/2+z
1/2-x,1/2+y,1/2+z
1/2+x,1/2-y,1/2+z
loop_
_atom_site_type_symbol
_atom_site_label
_atom_site_fract_x
_atom_site_fract_y
_atom_site_fract_z
Si Si1 0.750000 0.403689 0.677310
Si Si2 0.500000 0.500000 0.103634
Si Si3 0.250000 0.804464 0.823008
Si Si4 0.606103 0.274421 0.542176
Si Si5 0.750000 0.694513 0.774771
Si Si6 0.977369 0.338685 0.372245
Si Si7 0.250000 0.526140 0.202541
O O1 0.750000 0.275897 0.739617
O O2 0.629937 0.378122 0.617513
O O3 0.750000 0.541360 0.733234
O O4 0.505917 0.646911 0.055163
O O5 0.377012 0.481965 0.158242
O O6 0.380657 0.772350 0.867715
O O7 0.250000 0.967789 0.791812
O O8 0.750000 0.210903 0.531182
O O9 0.572031 0.351777 0.461388
O O10 0.876469 0.739695 0.824828
O O11 0.750000 0.804567 0.702980
O O12 0.000000 0.500000 0.340985
#
# Coordination Sequence:
#
# PCOD9365324 Si02
#       7
#     4   4   4   8   4   8   4
#     4  10  25  48  72 113 160 191 254 335 376 446
#     4  12  22  44  76 100 144 198 244 308 382 454
#     4  12  24  45  75 109 147 192 259 321 373 458
#     4  10  24  47  72 108 160 194 249 322 382 460
#     4  12  25  42  80 105 141 204 253 309 391 451
#     4  12  25  47  76 105 152 208 256 309 390 471
#     4  12  22  41  71 107 134 191 248 307 378 451
#
# _framework density 21.646189
#
# number of rings (size 3 to 8) (size 9 to 14) (size 15 to 20)
#    0.667    0.000    6.667    1.333    0.000    5.333 
#    0.000    0.000    0.000    0.000    0.000    0.000 
#    0.000    0.000    0.000    0.000    0.000    0.000 
#
# Total GULP energy -100324.186209 kJ/mol
# GULP energy per Si atom -5573.565901 kJ/mol
# Density = 2.159692 g / cm^3
# Si number density = 21.646189 Si / 1000 Ang^3
#
#
#
# Elastic Constant Matrix: (Units=GPa)
#
#
# Indices 1 2 3 4 5 6 
#
# 1 147.2923 30.3378 48.1765 0.0000 0.0000 0.0000
# 2 30.3378 95.3105 30.7361 0.0000 0.0000 0.0000
# 3 48.1765 30.7361 90.4843 0.0000 0.0000 0.0000
# 4 0.0000 0.0000 0.0000 20.5812 0.0000 0.0000
# 5 0.0000 0.0000 0.0000 0.0000 42.6746 0.0000
# 6 0.0000 0.0000 0.0000 0.0000 0.0000 23.6637
#
#
#
# Elastic Compliance Matrix: (Units=1/GPa)
#
#
# Indices 1 2 3 4 5 6 
#
# 1 0.008379 -0.001380 -0.003993 0.000000 0.000000 0.000000
# 2 -0.001380 0.012010 -0.003345 0.000000 0.000000 0.000000
# 3 -0.003993 -0.003345 0.014314 0.000000 0.000000 0.000000
# 4 0.000000 0.000000 0.000000 0.048588 0.000000 0.000000
# 5 0.000000 0.000000 0.000000 0.000000 0.023433 0.000000
# 6 0.000000 0.000000 0.000000 0.000000 0.000000 0.042259
#
#
# Mechanical properties :
#
#
# Convention : Reuss Voigt Hill
#
# Bulk Modulus (GPa) = 57.90997 61.28754 59.59875
# Shear Modulus (GPa) = 29.04043 32.30636 30.67339
#
# Velocity S-wave (km/s) = 3.66675 3.86745 3.76844
# Velocity P-wave (km/s) = 6.68863 6.95109 6.82112
#
# Compressibility (1/GPa) = 0.01726818
#
# Stress axis : x y z
#
# Youngs Moduli (GPa) = 119.34125 83.26480 69.86274
#
# Poissons Ratio (x) = 0.11487 0.27895
# Poissons Ratio (y) = 0.16464 0.23369
# Poissons Ratio (z) = 0.47650 0.27852
#
# Static dielectric constant tensor:
#      x y z
#    x 1.988610 0.000000 0.000000 
#    y 0.000000 1.898470 0.000000 
#    z 0.000000 0.000000 1.777790 
# 
# From -- ./inp_files/21874.got.cif
#   From: 2010.05.17/outbox.cif.g08.bks.cpg/sg40_11_cif.got.tgz:21874.got - 2010.06.03 18:35:42.
