data_PCOD9365007
_publ_section_title
;
Structure prediction by ZEFSAII (Michael W. Deem and Ramdas Pophale) SiO2 
 PCOD9365007
Probable space group: A M A 2
;
_chemical_formula_sum "Si O2"
_cell_formula_units_Z 64
_cell_length_a 17.170113
_cell_length_b 15.712671
_cell_length_c 12.188046
_cell_angle_alpha 90.000000
_cell_angle_beta 90.000000
_cell_angle_gamma 90.000000
_cell_volume 3288.192657
_symmetry_space_group_name_H-M "A M A 2"
_symmetry_group_IT_number 40
_symmetry_cell_setting 'orthorhombic'
loop_
_space_group_symop_operation_xyz
x,y,z
-x,-y,z
1/2-x,y,z
1/2+x,-y,z
x,1/2+y,1/2+z
-x,1/2-y,1/2+z
1/2-x,1/2+y,1/2+z
1/2+x,1/2-y,1/2+z
loop_
_atom_site_type_symbol
_atom_site_label
_atom_site_fract_x
_atom_site_fract_y
_atom_site_fract_z
Si Si1 0.906465 0.512687 0.145600
Si Si2 0.896859 0.186043 0.526419
Si Si3 0.842601 0.326539 0.123631
Si Si4 0.573922 0.561922 0.386411
Si Si5 0.657007 0.947799 0.037282
Si Si6 0.154897 0.682545 0.716851
Si Si7 0.839259 0.806337 0.863504
Si Si8 0.436474 0.241397 0.428653
O O1 0.866406 0.425214 0.110363
O O2 0.884251 0.539343 0.270670
O O3 0.000000 0.500000 0.145417
O O4 0.888043 0.590049 0.065030
O O5 0.874468 0.244968 0.631174
O O6 0.842768 0.218413 0.428096
O O7 0.982563 0.204332 0.475996
O O8 0.750000 0.317820 0.119572
O O9 0.876130 0.303321 0.244143
O O10 0.879109 0.268033 0.031247
O O11 0.500000 0.500000 0.389234
O O12 0.622712 0.535453 0.493765
O O13 0.553493 0.661006 0.391358
O O14 0.750000 0.951552 0.033661
O O15 0.637335 0.906575 0.154410
O O16 0.629624 0.878074 0.946231
O O17 0.250000 0.689822 0.731043
O O18 0.105752 0.693326 0.827686
O O19 0.750000 0.830974 0.845156
#
# Coordination Sequence:
#
# PCOD9365007 Si02
#       8
#     8   8   8   8   8   8   8   8
#     4  11  22  40  62  92 124 159 215 274 321 378
#     4  11  22  38  67  92 127 167 219 270 324 387
#     4  11  24  42  64  93 132 170 208 266 337 397
#     4  11  22  38  62  95 123 158 215 271 317 374
#     4   9  18  36  62  89 122 162 209 260 312 376
#     4  10  22  41  63  95 133 174 218 268 332 404
#     4   9  19  37  61  91 125 164 208 259 322 383
#     4  12  25  39  65  96 133 171 212 271 334 398
#
# _framework density 19.463578999999999
#
# number of rings (size 3 to 8) (size 9 to 14) (size 15 to 20)
#    0.000    1.500    3.750    3.000    3.500    2.000 
#    0.000    1.250    2.750    1.500    0.000    0.000 
#    0.000    0.000    0.000    0.000    0.000    0.000 
#
# Total GULP energy -178462.986101 kJ/mol
# GULP energy per Si atom -5576.968316 kJ/mol
# Density = 1.941928 g / cm^3
# Si number density = 19.463579 Si / 1000 Ang^3
#
#
#
# Elastic Constant Matrix: (Units=GPa)
#
#
# Indices 1 2 3 4 5 6 
#
# 1 54.5787 -5.0097 20.1425 0.0000 0.0000 0.0000
# 2 -5.0097 58.4796 19.3826 0.0000 0.0000 0.0000
# 3 20.1425 19.3826 85.8784 0.0000 0.0000 0.0000
# 4 0.0000 0.0000 0.0000 29.9938 0.0000 0.0000
# 5 0.0000 0.0000 0.0000 0.0000 29.9542 0.0000
# 6 0.0000 0.0000 0.0000 0.0000 0.0000 22.2657
#
#
#
# Elastic Compliance Matrix: (Units=1/GPa)
#
#
# Indices 1 2 3 4 5 6 
#
# 1 0.020761 0.003667 -0.005697 0.000000 0.000000 0.000000
# 2 0.003667 0.019130 -0.005178 0.000000 0.000000 0.000000
# 3 -0.005697 -0.005178 0.014149 0.000000 0.000000 0.000000
# 4 0.000000 0.000000 0.000000 0.033340 0.000000 0.000000
# 5 0.000000 0.000000 0.000000 0.000000 0.033384 0.000000
# 6 0.000000 0.000000 0.000000 0.000000 0.000000 0.044912
#
#
# Mechanical properties :
#
#
# Convention : Reuss Voigt Hill
#
# Bulk Modulus (GPa) = 25.23678 29.77416 27.50547
# Shear Modulus (GPa) = 25.86631 27.40414 26.63523
#
# Velocity S-wave (km/s) = 3.64944 3.75636 3.70329
# Velocity P-wave (km/s) = 5.54547 5.84331 5.69634
#
# Compressibility (1/GPa) = 0.03962471
#
# Stress axis : x y z
#
# Youngs Moduli (GPa) = 48.16667 52.27330 70.67533
#
# Poissons Ratio (x) = -0.19168 0.40264
# Poissons Ratio (y) = -0.17662 0.36594
# Poissons Ratio (z) = 0.27441 0.27066
#
# Static dielectric constant tensor:
#      x y z
#    x 1.741740 0.000000 0.000000 
#    y 0.000000 1.679020 0.000000 
#    z 0.000000 0.000000 1.702000 
# 
# From -- ./inp_files/13155.got.cif
#   From: 2010.05.17/outbox.cif.g08.bks.cpg/sg40_7_cif.got.tgz:13155.got - 2010.06.03 18:35:42.
