data_PCOD9365204
_publ_section_title
;
Structure prediction by ZEFSAII (Michael W. Deem and Ramdas Pophale) SiO2 
 PCOD9365204
Probable space group: A M A 2
;
_chemical_formula_sum "Si O2"
_cell_formula_units_Z 52
_cell_length_a 29.748530
_cell_length_b 5.371338
_cell_length_c 15.128225
_cell_angle_alpha 90.000000
_cell_angle_beta 90.000000
_cell_angle_gamma 90.000000
_cell_volume 2417.330142
_symmetry_space_group_name_H-M "A M A 2"
_symmetry_group_IT_number 40
_symmetry_cell_setting 'orthorhombic'
loop_
_space_group_symop_operation_xyz
x,y,z
-x,-y,z
1/2-x,y,z
1/2+x,-y,z
x,1/2+y,1/2+z
-x,1/2-y,1/2+z
1/2-x,1/2+y,1/2+z
1/2+x,1/2-y,1/2+z
loop_
_atom_site_type_symbol
_atom_site_label
_atom_site_fract_x
_atom_site_fract_y
_atom_site_fract_z
Si Si1 0.582754 0.300806 0.349320
Si Si2 0.500000 0.500000 0.819412
Si Si3 0.750000 0.865938 0.223288
Si Si4 0.431132 0.309216 0.213655
Si Si5 0.397717 0.612731 0.538474
Si Si6 0.655360 0.365587 0.018096
Si Si7 0.250000 0.136562 0.611746
Si Si8 0.154380 0.083496 0.316932
O O1 0.542675 0.108032 0.370950
O O2 0.570583 0.413959 0.253691
O O3 0.583153 0.452547 0.440901
O O4 0.632095 0.185964 0.334646
O O5 0.474970 0.700603 0.759822
O O6 0.750000 0.588501 0.182607
O O7 0.796343 0.905265 0.276519
O O8 0.750000 0.087418 0.152208
O O9 0.431297 0.211359 0.113859
O O10 0.383815 0.207674 0.255322
O O11 0.370930 0.362297 0.565591
O O12 0.367323 0.862864 0.528781
O O13 0.656666 0.300135 0.914384
O O14 0.705138 0.387804 0.055017
#
# Coordination Sequence:
#
# PCOD9365204 Si02
#       8
#     8   4   4   8   8   8   4   8
#     4  10  23  46  68  99 137 185 224 298 347 425
#     4  10  24  44  66 102 136 172 236 280 358 418
#     4  12  27  40  65 106 132 187 237 284 340 422
#     4  11  22  44  70  97 138 181 228 290 348 425
#     4  11  25  42  73  99 135 183 234 274 358 414
#     4  11  23  44  64  99 136 185 228 290 341 415
#     4  12  25  40  61  98 142 173 239 292 336 404
#     4  10  23  42  68  94 138 182 231 280 352 405
#
# _framework density 21.511334999999999
#
# number of rings (size 3 to 8) (size 9 to 14) (size 15 to 20)
#    0.000    1.231    1.538    3.692    8.615    0.000 
#    5.538    2.308    0.000    0.000    0.000    0.000 
#    0.000    0.000    0.000    0.000    0.000    0.000 
#
# Total GULP energy -144867.339453 kJ/mol
# GULP energy per Si atom -5571.820748 kJ/mol
# Density = 2.146237 g / cm^3
# Si number density = 21.511335 Si / 1000 Ang^3
#
#
#
# Elastic Constant Matrix: (Units=GPa)
#
#
# Indices 1 2 3 4 5 6 
#
# 1 99.3412 7.5531 9.0283 0.0000 0.0000 0.0000
# 2 7.5531 53.8994 -12.0911 0.0000 0.0000 0.0000
# 3 9.0283 -12.0911 43.1503 0.0000 0.0000 0.0000
# 4 0.0000 0.0000 0.0000 74.5903 0.0000 0.0000
# 5 0.0000 0.0000 0.0000 0.0000 -4.0367 0.0000
# 6 0.0000 0.0000 0.0000 0.0000 0.0000 22.9048
#
#
#
# Elastic Compliance Matrix: (Units=1/GPa)
#
#
# Indices 1 2 3 4 5 6 
#
# 1 0.010478 -0.002092 -0.002778 0.000000 0.000000 0.000000
# 2 -0.002092 0.020215 0.006102 0.000000 0.000000 0.000000
# 3 -0.002778 0.006102 0.025466 0.000000 0.000000 0.000000
# 4 0.000000 0.000000 0.000000 0.013407 0.000000 0.000000
# 5 0.000000 0.000000 0.000000 0.000000 -0.247729 0.000000
# 6 0.000000 0.000000 0.000000 0.000000 0.000000 0.043659
#
#
# Mechanical properties :
#
#
# Convention : Reuss Voigt Hill
#
# Bulk Modulus (GPa) = 17.05811 22.81905 19.93858
# Shear Modulus (GPa) = -42.57949 31.48504 -5.54722
#
# Velocity S-wave (km/s) = -4.45387 3.82992 -1.60759
# Velocity P-wave (km/s) = 4.30142 5.49442 2.41727
#
# Compressibility (1/GPa) = 0.05862316
#
# Stress axis : x y z
#
# Youngs Moduli (GPa) = 95.43952 49.46813 39.26808
#
# Poissons Ratio (x) = 0.10346 0.10910
# Poissons Ratio (y) = 0.19962 -0.23962
# Poissons Ratio (z) = 0.26516 -0.30186
#
# Static dielectric constant tensor:
#      x y z
#    x 1.743720 0.000000 0.000000 
#    y 0.000000 1.622050 0.000000 
#    z 0.000000 0.000000 1.833540 
# 
# From -- ./inp_files/21592.got.cif
#   From: 2010.05.17/outbox.cif.g08.bks.cpg/sg40_11_cif.got.tgz:21592.got - 2010.06.03 18:35:42.
