data_PCOD9365680
_publ_section_title
;
Structure prediction by ZEFSAII (Michael W. Deem and Ramdas Pophale) SiO2 
 PCOD9365680
Probable space group: A M A 2
;
_chemical_formula_sum "Si O2"
_cell_formula_units_Z 24
_cell_length_a 9.000000
_cell_length_b 30.000000
_cell_length_c 9.000000
_cell_angle_alpha 90.000000
_cell_angle_beta 90.000000
_cell_angle_gamma 90.000000
_cell_volume 2430.000000
_symmetry_space_group_name_H-M "A M A 2"
_symmetry_group_IT_number 40
_symmetry_cell_setting 'orthorhombic'
loop_
_space_group_symop_operation_xyz
x,y,z
-x,-y,z
1/2-x,y,z
1/2+x,-y,z
x,1/2+y,1/2+z
-x,1/2-y,1/2+z
1/2-x,1/2+y,1/2+z
1/2+x,1/2-y,1/2+z
loop_
_atom_site_type_symbol
_atom_site_label
_atom_site_fract_x
_atom_site_fract_y
_atom_site_fract_z
Si Si1 0.070565 0.546756 0.963440
Si Si2 0.917147 0.363782 0.374711
Si Si3 0.082005 0.300428 0.585467
Si Si4 0.429330 0.453287 0.294470
Si Si5 0.582654 0.635714 0.866829
Si Si6 0.417849 0.197040 0.586525
O O1 0.250000 0.543616 0.970408
O O2 0.000000 0.500000 0.904386
O O3 0.020807 0.591974 0.878915
O O4 0.001041 0.551356 0.129380
O O5 0.750000 0.378378 0.411562
O O6 0.916498 0.339776 0.215490
O O7 0.967287 0.322032 0.473349
O O8 0.021005 0.407639 0.376908
O O9 0.250000 0.299879 0.521867
O O10 0.081823 0.337588 0.713426
O O11 0.049367 0.248766 0.628854
O O12 0.500000 0.500000 0.353961
O O13 0.250000 0.456635 0.287858
O O14 0.750000 0.620521 0.901750
O O15 0.533467 0.675488 0.975271
O O16 0.250000 0.197314 0.522087
#
# Coordination Sequence:
#
# PCOD9365680 Si02
#       6
#     8   8   8   8   8   8
#     4  11  21  36  59  88 118 150 191 241 290 347
#     4  11  22  38  60  88 120 156 196 243 293 347
#     4  10  23  40  57  83 120 159 199 244 293 346
#     4  11  21  36  60  89 118 151 191 240 290 345
#     4  11  22  38  60  87 118 156 197 243 294 348
#     4  10  21  38  60  85 116 154 200 249 290 343
#
# _framework density 9.8765429999999999
#
# number of rings (size 3 to 8) (size 9 to 14) (size 15 to 20)
#    0.000    1.333    1.667    6.000    0.000    4.000 
#    0.000    0.833    0.000    4.000    0.000    0.000 
#    0.000    0.000    0.000    0.000    0.000    0.000 
#
# Total GULP energy -133774.278788 kJ/mol
# GULP energy per Si atom -5573.928283 kJ/mol
# Density = 0.985406 g / cm^3
# Si number density = 9.876543 Si / 1000 Ang^3
#
#
#
# Elastic Constant Matrix: (Units=GPa)
#
#
# Indices 1 2 3 4 5 6 
#
# 1 143.0203 46.6748 12.5782 0.0000 0.0000 0.0000
# 2 46.6748 159.6097 -11.2693 0.0000 0.0000 0.0000
# 3 12.5782 -11.2693 2.8924 0.0000 0.0000 0.0000
# 4 0.0000 0.0000 0.0000 6.4195 0.0000 0.0000
# 5 0.0000 0.0000 0.0000 0.0000 22.3686 0.0000
# 6 0.0000 0.0000 0.0000 0.0000 0.0000 47.2160
#
#
#
# Elastic Compliance Matrix: (Units=1/GPa)
#
#
# Indices 1 2 3 4 5 6 
#
# 1 0.108751 -0.089933 -0.823322 0.000000 0.000000 0.000000
# 2 -0.089933 0.083014 0.714532 0.000000 0.000000 0.000000
# 3 -0.823322 0.714532 6.710095 0.000000 0.000000 0.000000
# 4 0.000000 0.000000 0.000000 0.155775 0.000000 0.000000
# 5 0.000000 0.000000 0.000000 0.000000 0.044706 0.000000
# 6 0.000000 0.000000 0.000000 0.000000 0.000000 0.021179
#
#
# Mechanical properties :
#
#
# Convention : Reuss Voigt Hill
#
# Bulk Modulus (GPa) = 0.15374 44.61001 22.38187
# Shear Modulus (GPa) = 0.51604 32.37006 16.44305
#
# Velocity S-wave (km/s) = 0.51168 4.05252 2.88832
# Velocity P-wave (km/s) = 0.65352 6.67309 4.74116
#
# Compressibility (1/GPa) = 6.50441247
#
# Stress axis : x y z
#
# Youngs Moduli (GPa) = 9.19535 12.04616 0.14903
#
# Poissons Ratio (x) = 1.08334 0.12270
# Poissons Ratio (y) = 0.82696 -0.10649
# Poissons Ratio (z) = 7.57074 -8.60736
#
# Static dielectric constant tensor:
#      x y z
#    x 1.708020 0.000000 0.000000 
#    y 0.000000 1.661010 0.000000 
#    z 0.000000 0.000000 1.795590 
# 
# From -- ./inp_files/4626.got.cif
#   From: 2010.05.17/outbox.ucp.g08.bks.cvg/sg40_3_cif.got.tgz:4626.got - 2010.06.11 16:26:39.
