data_PCOD9365488
_publ_section_title
;
Structure prediction by ZEFSAII (Michael W. Deem and Ramdas Pophale) SiO2 
 PCOD9365488
Probable space group: A M A 2
;
_chemical_formula_sum "Si O2"
_cell_formula_units_Z 40
_cell_length_a 17.559456
_cell_length_b 18.949714
_cell_length_c 4.903101
_cell_angle_alpha 90.000000
_cell_angle_beta 90.000000
_cell_angle_gamma 90.000000
_cell_volume 1631.490526
_symmetry_space_group_name_H-M "A M A 2"
_symmetry_group_IT_number 40
_symmetry_cell_setting 'orthorhombic'
loop_
_space_group_symop_operation_xyz
x,y,z
-x,-y,z
1/2-x,y,z
1/2+x,-y,z
x,1/2+y,1/2+z
-x,1/2-y,1/2+z
1/2-x,1/2+y,1/2+z
1/2+x,1/2-y,1/2+z
loop_
_atom_site_type_symbol
_atom_site_label
_atom_site_fract_x
_atom_site_fract_y
_atom_site_fract_z
Si Si1 0.887678 0.047675 0.731880
Si Si2 0.032639 0.631146 0.421386
Si Si3 0.166432 0.301067 0.048904
Si Si4 0.584400 0.246051 0.050388
Si Si5 0.339752 0.041180 0.223703
O O1 0.849398 0.117247 0.605730
O O2 0.874922 0.986441 0.508384
O O3 0.973123 0.072317 0.811517
O O4 0.846301 0.022936 0.007100
O O5 0.061136 0.678974 0.169997
O O6 0.102613 0.597852 0.587752
O O7 0.979141 0.685263 0.590448
O O8 0.250000 0.281463 0.134264
O O9 0.108989 0.258445 0.239507
O O10 0.152853 0.281146 0.738416
O O11 0.250000 0.061389 0.253064
#
# Coordination Sequence:
#
# PCOD9365488 Si02
#       5
#     8   8   8   8   8
#     4  11  25  44  69 101 139 187 239 284 347 426
#     4  11  26  47  72 104 144 189 238 294 349 421
#     4  11  23  42  69 100 140 185 234 295 348 406
#     4  11  25  43  68 102 137 184 241 283 343 422
#     4  12  27  46  71 105 143 181 230 294 359 419
#
# _framework density 24.517455999999999
#
# number of rings (size 3 to 8) (size 9 to 14) (size 15 to 20)
#    0.000    0.800    0.000    7.800    0.000   14.400 
#    0.000    0.000    0.000    0.000    0.000    0.000 
#    0.000    0.000    0.000    0.000    0.000    0.000 
#
# Total GULP energy -112032.268823 kJ/mol
# GULP energy per Si atom -5601.613441 kJ/mol
# Density = 2.446165 g / cm^3
# Si number density = 24.517456 Si / 1000 Ang^3
#
#
#
# Elastic Constant Matrix: (Units=GPa)
#
#
# Indices 1 2 3 4 5 6 
#
# 1 194.0768 68.4472 32.1211 0.0000 0.0000 0.0000
# 2 68.4472 90.1736 21.4972 0.0000 0.0000 0.0000
# 3 32.1211 21.4972 98.3740 0.0000 0.0000 0.0000
# 4 0.0000 0.0000 0.0000 52.6649 0.0000 0.0000
# 5 0.0000 0.0000 0.0000 0.0000 31.2211 0.0000
# 6 0.0000 0.0000 0.0000 0.0000 0.0000 14.7415
#
#
#
# Elastic Compliance Matrix: (Units=1/GPa)
#
#
# Indices 1 2 3 4 5 6 
#
# 1 0.007171 -0.005154 -0.001215 0.000000 0.000000 0.000000
# 2 -0.005154 0.015403 -0.001683 0.000000 0.000000 0.000000
# 3 -0.001215 -0.001683 0.010930 0.000000 0.000000 0.000000
# 4 0.000000 0.000000 0.000000 0.018988 0.000000 0.000000
# 5 0.000000 0.000000 0.000000 0.000000 0.032030 0.000000
# 6 0.000000 0.000000 0.000000 0.000000 0.000000 0.067836
#
#
# Mechanical properties :
#
#
# Convention : Reuss Voigt Hill
#
# Bulk Modulus (GPa) = 57.47200 69.63948 63.55574
# Shear Modulus (GPa) = 28.69239 37.09608 32.89423
#
# Velocity S-wave (km/s) = 3.42465 3.89401 3.66685
# Velocity P-wave (km/s) = 6.25538 6.97735 6.62621
#
# Compressibility (1/GPa) = 0.01739978
#
# Stress axis : x y z
#
# Youngs Moduli (GPa) = 139.44293 64.92240 91.49180
#
# Poissons Ratio (x) = 0.33460 0.11120
# Poissons Ratio (y) = 0.71866 0.15399
# Poissons Ratio (z) = 0.16948 0.10927
#
# Static dielectric constant tensor:
#      x y z
#    x 1.924180 0.000000 0.000000 
#    y 0.000000 1.977020 0.000000 
#    z 0.000000 0.000000 1.908530 
# 
# From -- ./inp_files/1743.got.cif
#   From: 2010.05.17/outbox.cif.g08.bks.cpg/sg40_1_cif.got.tgz:1743.got - 2010.06.03 18:35:42.
