data_PCOD9365691
_publ_section_title
;
Structure prediction by ZEFSAII (Michael W. Deem and Ramdas Pophale) SiO2 
 PCOD9365691
Probable space group: A M A 2
;
_chemical_formula_sum "Si O2"
_cell_formula_units_Z 32
_cell_length_a 9.000000
_cell_length_b 30.000000
_cell_length_c 12.000000
_cell_angle_alpha 90.000000
_cell_angle_beta 90.000000
_cell_angle_gamma 90.000000
_cell_volume 3240.000000
_symmetry_space_group_name_H-M "A M A 2"
_symmetry_group_IT_number 40
_symmetry_cell_setting 'orthorhombic'
loop_
_space_group_symop_operation_xyz
x,y,z
-x,-y,z
1/2-x,y,z
1/2+x,-y,z
x,1/2+y,1/2+z
-x,1/2-y,1/2+z
1/2-x,1/2+y,1/2+z
1/2+x,1/2-y,1/2+z
loop_
_atom_site_type_symbol
_atom_site_label
_atom_site_fract_x
_atom_site_fract_y
_atom_site_fract_z
Si Si1 0.577963 0.376048 0.687290
Si Si2 0.427715 0.044470 0.787322
Si Si3 0.581419 0.158803 0.546482
Si Si4 0.924947 0.932144 0.537515
Si Si5 0.578963 0.702238 0.810120
Si Si6 0.579052 0.706521 0.284355
Si Si7 0.424758 0.956518 0.308847
Si Si8 0.924968 0.867354 0.923423
O O1 0.750000 0.385810 0.713717
O O2 0.528345 0.329894 0.741616
O O3 0.475921 0.413423 0.741900
O O4 0.560699 0.373930 0.554853
O O5 0.250000 0.040465 0.788583
O O6 0.474250 0.050738 0.658603
O O7 0.467116 0.087877 0.857709
O O8 0.500000 0.000000 0.833590
O O9 0.750000 0.139255 0.539504
O O10 0.460512 0.120292 0.537999
O O11 0.565460 0.191007 0.441067
O O12 0.569035 0.183432 0.663662
O O13 0.750000 0.940677 0.523305
O O14 0.014553 0.951479 0.434289
O O15 0.750000 0.693971 0.778155
O O16 0.530298 0.752121 0.788466
O O17 0.750000 0.720304 0.301930
O O18 0.526634 0.671711 0.377014
O O19 0.250000 0.961039 0.310160
O O20 0.500000 0.000000 0.257484
O O21 0.750000 0.857927 0.899160
#
# Coordination Sequence:
#
# PCOD9365691 Si02
#       8
#     8   8   8   8   8   8   8   8
#     4  11  24  43  66  91 124 163 209 260 311 368
#     4  10  22  39  61  91 123 160 202 249 307 366
#     4  10  22  40  63  91 126 164 203 257 314 365
#     4  11  21  37  64  94 126 162 205 254 311 370
#     4  11  24  42  64  92 127 165 205 254 314 370
#     4  11  24  41  64  95 126 163 211 255 307 369
#     4  12  25  42  64  92 128 164 208 256 310 370
#     4  10  23  44  64  88 125 165 206 257 313 368
#
# _framework density 9.8765429999999999
#
# number of rings (size 3 to 8) (size 9 to 14) (size 15 to 20)
#    0.000    1.250    2.500    3.000    1.750    5.000 
#    0.000    1.250    0.000    0.000    0.000    0.000 
#    0.000    0.000    0.000    0.000    0.000    0.000 
#
# Total GULP energy -178862.892063 kJ/mol
# GULP energy per Si atom -5589.465377 kJ/mol
# Density = 0.985406 g / cm^3
# Si number density = 9.876543 Si / 1000 Ang^3
#
#
#
# Elastic Constant Matrix: (Units=GPa)
#
#
# Indices 1 2 3 4 5 6 
#
# 1 67.1649 17.4834 34.9663 0.0000 0.0000 0.0000
# 2 17.4834 68.4195 9.9056 0.0000 0.0000 0.0000
# 3 34.9663 9.9056 57.0835 0.0000 0.0000 0.0000
# 4 0.0000 0.0000 0.0000 -12.6813 0.0000 0.0000
# 5 0.0000 0.0000 0.0000 0.0000 -128.9381 0.0000
# 6 0.0000 0.0000 0.0000 0.0000 0.0000 33.4322
#
#
#
# Elastic Compliance Matrix: (Units=1/GPa)
#
#
# Indices 1 2 3 4 5 6 
#
# 1 0.022835 -0.003908 -0.013309 0.000000 0.000000 0.000000
# 2 -0.003908 0.015661 -0.000324 0.000000 0.000000 0.000000
# 3 -0.013309 -0.000324 0.025727 0.000000 0.000000 0.000000
# 4 0.000000 0.000000 0.000000 -0.078856 0.000000 0.000000
# 5 0.000000 0.000000 0.000000 0.000000 -0.007756 0.000000
# 6 0.000000 0.000000 0.000000 0.000000 0.000000 0.029911
#
#
# Mechanical properties :
#
#
# Convention : Reuss Voigt Hill
#
# Bulk Modulus (GPa) = 34.31622 35.26427 34.79024
# Shear Modulus (GPa) = 95.56905 -12.94993 41.30956
#
# Velocity S-wave (km/s) = 6.96325 -2.56323 4.57803
# Velocity P-wave (km/s) = 9.05867 3.02177 6.75243
#
# Compressibility (1/GPa) = 0.02914074
#
# Stress axis : x y z
#
# Youngs Moduli (GPa) = 43.79266 63.85183 38.86979
#
# Poissons Ratio (x) = 0.24954 0.51733
# Poissons Ratio (y) = 0.17115 0.01258
# Poissons Ratio (z) = 0.58285 0.02067
#
# Static dielectric constant tensor:
#      x y z
#    x 1.668510 0.000000 0.000000 
#    y 0.000000 1.712900 0.000000 
#    z 0.000000 0.000000 1.669290 
# 
# From -- ./inp_files/10562.got.cif
#   From: 2010.05.17/outbox.ucp.g08.bks.cvg/sg40_6_cif.got.tgz:10562.got - 2010.06.11 16:26:39.
