data_PCOD9365752
_publ_section_title
;
Structure prediction by ZEFSAII (Michael W. Deem and Ramdas Pophale) SiO2 
 PCOD9365752
Probable space group: A B A 2
;
_chemical_formula_sum "Si O2"
_cell_formula_units_Z 52
_cell_length_a 13.542389
_cell_length_b 12.927089
_cell_length_c 16.710520
_cell_angle_alpha 90.000000
_cell_angle_beta 90.000000
_cell_angle_gamma 90.000000
_cell_volume 2925.404923
_symmetry_space_group_name_H-M "A B A 2"
_symmetry_group_IT_number 41
_symmetry_cell_setting 'orthorhombic'
loop_
_space_group_symop_operation_xyz
x,y,z
-x,-y,z
1/2-x,y,1/2+z
1/2+x,-y,1/2+z
x,1/2+y,1/2+z
-x,1/2-y,1/2+z
1/2-x,1/2+y,z
1/2+x,1/2-y,z
loop_
_atom_site_type_symbol
_atom_site_label
_atom_site_fract_x
_atom_site_fract_y
_atom_site_fract_z
Si Si1 0.500000 0.000000 0.928630
Si Si2 0.574084 0.140657 0.449572
Si Si3 0.387302 0.905790 0.783968
Si Si4 0.332345 0.153549 0.967561
Si Si5 0.190171 0.774531 0.809617
Si Si6 0.085948 0.624478 0.700246
Si Si7 0.120962 0.584155 0.516143
O O1 0.437374 0.924879 0.870367
O O2 0.581554 0.931330 0.972751
O O3 0.623106 0.237219 0.495128
O O4 0.612663 0.152795 0.358455
O O5 0.456380 0.144239 0.459165
O O6 0.610406 0.034442 0.488558
O O7 0.289606 0.838197 0.793719
O O8 0.474356 0.857097 0.730642
O O9 0.374825 0.019982 0.744704
O O10 0.302630 0.180749 0.874994
O O11 0.232865 0.119688 0.009132
O O12 0.149059 0.721842 0.729935
O O13 0.087204 0.602295 0.606690
#
# Coordination Sequence:
#
# PCOD9365752 Si02
#       7
#     4   8   8   8   8   8   8
#     4  10  18  38  58  90 110 160 200 256 302 380
#     4   9  21  37  56  90 117 159 201 257 305 372
#     4  10  17  36  59  75 119 145 203 242 299 372
#     4  10  22  34  63  89 115 157 206 259 304 374
#     4  10  21  34  61  88 109 151 212 250 292 361
#     4  10  22  37  57  87 114 165 194 248 313 378
#     4  11  22  38  59  84 129 156 202 256 333 367
#
# _framework density 17.775317000000001
#
# number of rings (size 3 to 8) (size 9 to 14) (size 15 to 20)
#    0.923    1.231    3.077    2.769    4.308    2.462 
#    0.000    0.000    0.000    0.000    0.000    0.000 
#    0.000    0.000    0.000    0.000    0.000    0.000 
#
# Total GULP energy -144735.457338 kJ/mol
# GULP energy per Si atom -5566.748359 kJ/mol
# Density = 1.773486 g / cm^3
# Si number density = 17.775317 Si / 1000 Ang^3
#
#
#
# Elastic Constant Matrix: (Units=GPa)
#
#
# Indices 1 2 3 4 5 6 
#
# 1 140.4995 72.0517 10.1988 0.0000 0.0000 0.0000
# 2 72.0517 68.4280 14.7386 0.0000 0.0000 0.0000
# 3 10.1988 14.7386 23.4073 0.0000 0.0000 0.0000
# 4 0.0000 0.0000 0.0000 16.1168 0.0000 0.0000
# 5 0.0000 0.0000 0.0000 0.0000 8.0591 0.0000
# 6 0.0000 0.0000 0.0000 0.0000 0.0000 33.5322
#
#
#
# Elastic Compliance Matrix: (Units=1/GPa)
#
#
# Indices 1 2 3 4 5 6 
#
# 1 0.015814 -0.017548 0.004158 0.000000 0.000000 0.000000
# 2 -0.017548 0.036377 -0.015260 0.000000 0.000000 0.000000
# 3 0.004158 -0.015260 0.050518 0.000000 0.000000 0.000000
# 4 0.000000 0.000000 0.000000 0.062047 0.000000 0.000000
# 5 0.000000 0.000000 0.000000 0.000000 0.124084 0.000000
# 6 0.000000 0.000000 0.000000 0.000000 0.000000 0.029822
#
#
# Mechanical properties :
#
#
# Convention : Reuss Voigt Hill
#
# Bulk Modulus (GPa) = 22.02034 47.36810 34.69422
# Shear Modulus (GPa) = 12.78451 20.56466 16.67459
#
# Velocity S-wave (km/s) = 2.68475 3.40505 3.06612
# Velocity P-wave (km/s) = 4.69314 6.49348 5.66528
#
# Compressibility (1/GPa) = 0.04541256
#
# Stress axis : x y z
#
# Youngs Moduli (GPa) = 63.23327 27.48953 19.79482
#
# Poissons Ratio (x) = 0.48238 -0.08232
# Poissons Ratio (y) = 1.10959 0.30206
# Poissons Ratio (z) = -0.26295 0.41948
#
# Static dielectric constant tensor:
#      x y z
#    x 1.647460 0.000000 0.000000 
#    y 0.000000 1.624860 0.000000 
#    z 0.000000 0.000000 1.609000 
# 
# From -- ./inp_files/10071.got.cif
#   From: 2010.05.17/outbox.cif.g08.bks.cpg/sg41_6_cif.got.tgz:10071.got - 2010.06.03 18:54:24.
