data_PCOD9365379
_publ_section_title
;
Structure prediction by ZEFSAII (Michael W. Deem and Ramdas Pophale) SiO2 
 PCOD9365379
Probable space group: A M A 2
;
_chemical_formula_sum "Si O2"
_cell_formula_units_Z 48
_cell_length_a 15.189231
_cell_length_b 9.811262
_cell_length_c 16.071261
_cell_angle_alpha 90.000000
_cell_angle_beta 90.000000
_cell_angle_gamma 90.000000
_cell_volume 2395.028107
_symmetry_space_group_name_H-M "A M A 2"
_symmetry_group_IT_number 40
_symmetry_cell_setting 'orthorhombic'
loop_
_space_group_symop_operation_xyz
x,y,z
-x,-y,z
1/2-x,y,z
1/2+x,-y,z
x,1/2+y,1/2+z
-x,1/2-y,1/2+z
1/2-x,1/2+y,1/2+z
1/2+x,1/2-y,1/2+z
loop_
_atom_site_type_symbol
_atom_site_label
_atom_site_fract_x
_atom_site_fract_y
_atom_site_fract_z
Si Si1 0.851714 0.748256 0.058900
Si Si2 0.149147 0.776649 0.833800
Si Si3 0.019521 0.838883 0.983836
Si Si4 0.105154 0.983416 0.687289
Si Si5 0.602109 0.957980 0.207643
Si Si6 0.345129 0.776346 0.131108
O O1 0.750000 0.761467 0.033692
O O2 0.866708 0.607595 0.108153
O O3 0.875019 0.866957 0.126116
O O4 0.925207 0.764665 0.988394
O O5 0.250000 0.776686 0.863185
O O6 0.078892 0.797753 0.906127
O O7 0.136922 0.898919 0.767150
O O8 0.129595 0.636997 0.784067
O O9 0.075944 0.799353 0.065779
O O10 0.000000 0.000000 0.982822
O O11 0.143522 0.133223 0.676762
O O12 0.000000 0.000000 0.690260
O O13 0.500000 0.000000 0.211271
O O14 0.650845 0.100269 0.196085
O O15 0.250000 0.780212 0.087855
#
# Coordination Sequence:
#
# PCOD9365379 Si02
#       6
#     8   8   8   8   8   8
#     4  11  21  40  68  96 127 173 225 271 325 390
#     4  11  25  44  66  96 137 180 216 269 337 397
#     4  12  24  42  64 101 130 176 221 274 333 385
#     4  11  21  41  68  98 131 170 220 272 328 397
#     4  11  20  41  68  98 129 167 221 266 322 389
#     4  12  21  37  69 102 129 165 221 275 322 393
#
# _framework density 20.041518
#
# number of rings (size 3 to 8) (size 9 to 14) (size 15 to 20)
#    0.000    0.667    5.000    6.000    0.000    0.667 
#    3.000    0.000    0.000    2.000    0.000    0.000 
#    0.000    0.000    0.000    0.000    0.000    0.000 
#
# Total GULP energy -134185.471958 kJ/mol
# GULP energy per Si atom -5591.061332 kJ/mol
# Density = 1.999590 g / cm^3
# Si number density = 20.041518 Si / 1000 Ang^3
#
#
#
# Elastic Constant Matrix: (Units=GPa)
#
#
# Indices 1 2 3 4 5 6 
#
# 1 202.0353 40.7870 51.1370 0.0000 0.0000 0.0000
# 2 40.7870 166.1694 48.3114 0.0000 0.0000 0.0000
# 3 51.1370 48.3114 89.3513 0.0000 0.0000 0.0000
# 4 0.0000 0.0000 0.0000 9.2653 0.0000 0.0000
# 5 0.0000 0.0000 0.0000 0.0000 21.1964 0.0000
# 6 0.0000 0.0000 0.0000 0.0000 0.0000 25.7495
#
#
#
# Elastic Compliance Matrix: (Units=1/GPa)
#
#
# Indices 1 2 3 4 5 6 
#
# 1 0.005830 -0.000547 -0.003041 0.000000 0.000000 0.000000
# 2 -0.000547 0.007192 -0.003576 0.000000 0.000000 0.000000
# 3 -0.003041 -0.003576 0.014865 0.000000 0.000000 0.000000
# 4 0.000000 0.000000 0.000000 0.107930 0.000000 0.000000
# 5 0.000000 0.000000 0.000000 0.000000 0.047178 0.000000
# 6 0.000000 0.000000 0.000000 0.000000 0.000000 0.038836
#
#
# Mechanical properties :
#
#
# Convention : Reuss Voigt Hill
#
# Bulk Modulus (GPa) = 73.74383 82.00298 77.87341
# Shear Modulus (GPa) = 20.77482 32.39695 26.58588
#
# Velocity S-wave (km/s) = 3.22310 4.02492 3.64612
# Velocity P-wave (km/s) = 7.12226 7.91236 7.52768
#
# Compressibility (1/GPa) = 0.01356046
#
# Stress axis : x y z
#
# Youngs Moduli (GPa) = 171.53640 139.04886 67.27091
#
# Poissons Ratio (x) = 0.07604 0.20455
# Poissons Ratio (y) = 0.09381 0.24053
# Poissons Ratio (z) = 0.52159 0.49717
#
# Static dielectric constant tensor:
#      x y z
#    x 1.754980 0.000000 0.000000 
#    y 0.000000 1.689150 0.000000 
#    z 0.000000 0.000000 1.692360 
# 
# From -- ./inp_files/20546.got.cif
#   From: 2010.05.17/outbox.cif.g08.bks.cpg/sg40_11_cif.got.tgz:20546.got - 2010.06.03 18:35:42.
