data_PCOD9365699
_publ_section_title
;
Structure prediction by ZEFSAII (Michael W. Deem and Ramdas Pophale) SiO2 
 PCOD9365699
Probable space group: A B A 2
;
_chemical_formula_sum "Si O2"
_cell_formula_units_Z 56
_cell_length_a 11.498710
_cell_length_b 34.580469
_cell_length_c 5.390144
_cell_angle_alpha 90.000000
_cell_angle_beta 90.000000
_cell_angle_gamma 90.000000
_cell_volume 2143.287188
_symmetry_space_group_name_H-M "A B A 2"
_symmetry_group_IT_number 41
_symmetry_cell_setting 'orthorhombic'
loop_
_space_group_symop_operation_xyz
x,y,z
-x,-y,z
1/2-x,y,1/2+z
1/2+x,-y,1/2+z
x,1/2+y,1/2+z
-x,1/2-y,1/2+z
1/2-x,1/2+y,z
1/2+x,1/2-y,z
loop_
_atom_site_type_symbol
_atom_site_label
_atom_site_fract_x
_atom_site_fract_y
_atom_site_fract_z
Si Si1 0.819084 0.632241 0.534020
Si Si2 0.874848 0.852337 0.663871
Si Si3 0.607932 0.385866 0.163561
Si Si4 0.322323 0.527487 0.070921
Si Si5 0.988834 0.275292 0.120067
Si Si6 0.823571 0.554866 0.681537
Si Si7 0.262825 0.785244 0.046162
O O1 0.779227 0.626318 0.251652
O O2 0.892165 0.594385 0.616183
O O3 0.826130 0.678824 0.555453
O O4 0.743752 0.869009 0.680987
O O5 0.935976 0.873663 0.433967
O O6 0.887089 0.806705 0.620873
O O7 0.936928 0.862245 0.924376
O O8 0.618970 0.431385 0.117770
O O9 0.221382 0.527325 0.285441
O O10 0.382394 0.486281 0.126730
O O11 0.105956 0.299829 0.067058
O O12 0.009212 0.254075 0.385249
O O13 0.722589 0.554580 0.464971
O O14 0.243078 0.762141 0.294785
#
# Coordination Sequence:
#
# PCOD9365699 Si02
#       7
#     8   8   8   8   8   8   8
#     4   8  14  27  47  73 104 131 183 225 266 315
#     4  10  20  35  54  75 110 144 179 225 272 335
#     4  10  17  33  53  81 107 146 188 213 262 335
#     4  10  14  23  41  70 113 136 177 223 259 310
#     4  12  26  45  59  87 118 142 187 239 296 349
#     4   8  14  20  36  68 106 136 166 225 272 288
#     4  10  21  41  64  84 111 148 192 235 284 338
#
# _framework density 26.128091000000001
#
# number of rings (size 3 to 8) (size 9 to 14) (size 15 to 20)
#    0.000    2.286    2.857    1.714    0.000    0.000 
#   15.429    0.000    0.000    0.000    0.000    1.000 
#    0.000   10.857    0.000    0.000    0.000    0.000 
#
# Total GULP energy -155995.456729 kJ/mol
# GULP energy per Si atom -5571.266312 kJ/mol
# Density = 2.606862 g / cm^3
# Si number density = 26.128091 Si / 1000 Ang^3
#
#
#
# Elastic Constant Matrix: (Units=GPa)
#
#
# Indices 1 2 3 4 5 6 
#
# 1 33.3972 37.9642 -0.9817 0.0000 0.0000 0.0000
# 2 37.9642 133.6133 24.3979 0.0000 0.0000 0.0000
# 3 -0.9817 24.3979 190.2399 0.0000 0.0000 0.0000
# 4 0.0000 0.0000 0.0000 52.3744 0.0000 0.0000
# 5 0.0000 0.0000 0.0000 0.0000 1.2769 0.0000
# 6 0.0000 0.0000 0.0000 0.0000 0.0000 331.7601
#
#
#
# Elastic Compliance Matrix: (Units=1/GPa)
#
#
# Indices 1 2 3 4 5 6 
#
# 1 0.044897 -0.013106 0.001913 0.000000 0.000000 0.000000
# 2 -0.013106 0.011490 -0.001541 0.000000 0.000000 0.000000
# 3 0.001913 -0.001541 0.005464 0.000000 0.000000 0.000000
# 4 0.000000 0.000000 0.000000 0.019093 0.000000 0.000000
# 5 0.000000 0.000000 0.000000 0.000000 0.783155 0.000000
# 6 0.000000 0.000000 0.000000 0.000000 0.000000 0.003014
#
#
# Mechanical properties :
#
#
# Convention : Reuss Voigt Hill
#
# Bulk Modulus (GPa) = 27.48663 53.33458 40.41061
# Shear Modulus (GPa) = 5.52664 96.80693 51.16679
#
# Velocity S-wave (km/s) = 1.45595 6.09355 4.43008
# Velocity P-wave (km/s) = 3.65639 8.36454 6.45502
#
# Compressibility (1/GPa) = 0.03638133
#
# Stress axis : x y z
#
# Youngs Moduli (GPa) = 22.27314 87.03523 183.01479
#
# Poissons Ratio (x) = 1.14069 -0.35002
# Poissons Ratio (y) = 0.29191 0.28205
# Poissons Ratio (z) = -0.04260 0.13413
#
# Static dielectric constant tensor:
#      x y z
#    x 3.079170 0.000000 0.000000 
#    y 0.000000 2.064890 0.000000 
#    z 0.000000 0.000000 2.094810 
# 
# From -- ./inp_files/327.got.cif
#   From: 2010.05.17/outbox.cif.g08.bks.cpg/sg41_1_cif.got.tgz:327.got - 2010.06.03 18:54:24.
