data_PCOD9365926
_publ_section_title
;
Structure prediction by ZEFSAII (Michael W. Deem and Ramdas Pophale) SiO2 
 PCOD9365926
Probable space group: A B A 2
;
_chemical_formula_sum "Si O2"
_cell_formula_units_Z 64
_cell_length_a 8.585597
_cell_length_b 26.809557
_cell_length_c 13.214138
_cell_angle_alpha 90.000000
_cell_angle_beta 90.000000
_cell_angle_gamma 90.000000
_cell_volume 3041.578117
_symmetry_space_group_name_H-M "A B A 2"
_symmetry_group_IT_number 41
_symmetry_cell_setting 'orthorhombic'
loop_
_space_group_symop_operation_xyz
x,y,z
-x,-y,z
1/2-x,y,1/2+z
1/2+x,-y,1/2+z
x,1/2+y,1/2+z
-x,1/2-y,1/2+z
1/2-x,1/2+y,z
1/2+x,1/2-y,z
loop_
_atom_site_type_symbol
_atom_site_label
_atom_site_fract_x
_atom_site_fract_y
_atom_site_fract_z
Si Si1 0.234378 0.725927 0.352360
Si Si2 0.652653 0.103028 0.450978
Si Si3 0.470383 0.807192 0.727074
Si Si4 0.437956 0.793783 0.484519
Si Si5 0.912956 0.949358 0.826343
Si Si6 0.773737 0.980255 0.169257
Si Si7 0.318435 0.996774 0.947574
Si Si8 0.413629 0.919274 0.685095
O O1 0.355783 0.697914 0.276311
O O2 0.349064 0.746243 0.440370
O O3 0.145737 0.768744 0.285139
O O4 0.094558 0.700226 0.416461
O O5 0.681611 0.161342 0.457046
O O6 0.510951 0.094071 0.373355
O O7 0.778665 0.061095 0.425572
O O8 0.601205 0.090753 0.565280
O O9 0.471093 0.794504 0.605461
O O10 0.412096 0.864888 0.735894
O O11 0.880606 0.952235 0.707866
O O12 0.000000 0.000000 0.858518
O O13 0.743865 0.961290 0.871140
O O14 0.923079 0.947489 0.195313
O O15 0.766627 0.988094 0.050528
O O16 0.788967 0.037144 0.211489
O O17 0.500000 0.000000 0.958945
#
# Coordination Sequence:
#
# PCOD9365926 Si02
#       8
#     8   8   8   8   8   8   8   8
#     4  10  22  39  63  93 115 157 205 259 311 382
#     4   9  19  38  57  78 115 157 189 238 303 348
#     4  10  21  39  64  87 124 155 201 254 317 364
#     4  10  21  40  62  87 122 158 198 259 316 368
#     4  10  20  33  51  76 108 153 187 228 280 331
#     4  10  19  34  55  80 115 149 194 229 284 341
#     4  10  20  35  53  79 114 147 192 238 275 341
#     4   9  19  35  58  82 114 156 187 237 293 355
#
# _framework density 21.041708
#
# number of rings (size 3 to 8) (size 9 to 14) (size 15 to 20)
#    0.000    2.250    1.250    1.125    3.500    2.000 
#    0.000    1.250    2.750    0.000    0.000    0.000 
#    0.000    0.000    0.000    0.000    0.000    0.000 
#
# Total GULP energy -178182.106200 kJ/mol
# GULP energy per Si atom -5568.190819 kJ/mol
# Density = 2.099382 g / cm^3
# Si number density = 21.041708 Si / 1000 Ang^3
#
#
#
# Elastic Constant Matrix: (Units=GPa)
#
#
# Indices 1 2 3 4 5 6 
#
# 1 50.6270 7.3982 3.4481 0.0000 0.0000 0.0000
# 2 7.3982 62.2096 21.3325 0.0000 0.0000 0.0000
# 3 3.4481 21.3325 96.3662 0.0000 0.0000 0.0000
# 4 0.0000 0.0000 0.0000 23.4051 0.0000 0.0000
# 5 0.0000 0.0000 0.0000 0.0000 27.2724 0.0000
# 6 0.0000 0.0000 0.0000 0.0000 0.0000 16.8836
#
#
#
# Elastic Compliance Matrix: (Units=1/GPa)
#
#
# Indices 1 2 3 4 5 6 
#
# 1 0.020105 -0.002320 -0.000206 0.000000 0.000000 0.000000
# 2 -0.002320 0.017663 -0.003827 0.000000 0.000000 0.000000
# 3 -0.000206 -0.003827 0.011232 0.000000 0.000000 0.000000
# 4 0.000000 0.000000 0.000000 0.042726 0.000000 0.000000
# 5 0.000000 0.000000 0.000000 0.000000 0.036667 0.000000
# 6 0.000000 0.000000 0.000000 0.000000 0.000000 0.059229
#
#
# Mechanical properties :
#
#
# Convention : Reuss Voigt Hill
#
# Bulk Modulus (GPa) = 27.55304 30.39560 28.97432
# Shear Modulus (GPa) = 23.53760 25.31383 24.42571
#
# Velocity S-wave (km/s) = 3.34820 3.47224 3.41078
# Velocity P-wave (km/s) = 5.29813 5.52739 5.41397
#
# Compressibility (1/GPa) = 0.03629363
#
# Stress axis : x y z
#
# Youngs Moduli (GPa) = 49.73788 56.61560 89.03425
#
# Poissons Ratio (x) = 0.13137 0.01832
# Poissons Ratio (y) = 0.11541 0.34074
# Poissons Ratio (z) = 0.01023 0.21667
#
# Static dielectric constant tensor:
#      x y z
#    x 1.796530 0.000000 0.000000 
#    y 0.000000 1.760240 0.000000 
#    z 0.000000 0.000000 1.798400 
# 
# From -- ./inp_files/7562.got.cif
#   From: 2010.05.17/outbox.cif.g08.bks.cpg/sg41_4_cif.got.tgz:7562.got - 2010.06.03 18:54:24.
