data_PCOD9365154
_publ_section_title
;
Structure prediction by ZEFSAII (Michael W. Deem and Ramdas Pophale) SiO2 
 PCOD9365154
Probable space group: A M A 2
;
_chemical_formula_sum "Si O2"
_cell_formula_units_Z 48
_cell_length_a 25.642730
_cell_length_b 11.981569
_cell_length_c 7.628849
_cell_angle_alpha 90.000000
_cell_angle_beta 90.000000
_cell_angle_gamma 90.000000
_cell_volume 2343.888626
_symmetry_space_group_name_H-M "A M A 2"
_symmetry_group_IT_number 40
_symmetry_cell_setting 'orthorhombic'
loop_
_space_group_symop_operation_xyz
x,y,z
-x,-y,z
1/2-x,y,z
1/2+x,-y,z
x,1/2+y,1/2+z
-x,1/2-y,1/2+z
1/2-x,1/2+y,1/2+z
1/2+x,1/2-y,1/2+z
loop_
_atom_site_type_symbol
_atom_site_label
_atom_site_fract_x
_atom_site_fract_y
_atom_site_fract_z
Si Si1 0.470180 0.104956 0.889730
Si Si2 0.809644 0.854182 0.561057
Si Si3 0.619718 0.659286 0.589004
Si Si4 0.871943 0.016442 0.757411
Si Si5 0.899973 0.974452 0.380248
Si Si6 0.480154 0.184667 0.525240
O O1 0.496731 0.120953 0.699424
O O2 0.500000 0.000000 0.977014
O O3 0.411485 0.069834 0.851221
O O4 0.476670 0.226532 0.971099
O O5 0.750000 0.847131 0.508258
O O6 0.832358 0.739287 0.638652
O O7 0.819629 0.950922 0.705486
O O8 0.850291 0.891297 0.407085
O O9 0.631983 0.614823 0.394159
O O10 0.608385 0.557616 0.720678
O O11 0.568507 0.736002 0.579066
O O12 0.896947 0.040715 0.566228
O O13 0.953316 0.901335 0.387992
#
# Coordination Sequence:
#
# PCOD9365154 Si02
#       6
#     8   8   8   8   8   8
#     4  11  21  37  55  84 121 153 198 242 288 347
#     4   9  21  43  61  89 122 145 203 256 289 364
#     4  11  19  41  64  83 120 161 193 244 304 349
#     4   9  21  40  59  87 121 151 195 250 291 353
#     4   8  21  40  58  87 119 153 196 246 293 350
#     4  10  23  36  54  90 116 158 203 239 286 352
#
# _framework density 20.478788000000002
#
# number of rings (size 3 to 8) (size 9 to 14) (size 15 to 20)
#    1.000    1.333    3.333    0.000    2.333    4.000 
#    6.000    0.000    0.000    0.000    0.000    0.000 
#    0.000    0.000    0.000    0.000    0.000    0.000 
#
# Total GULP energy -133666.373263 kJ/mol
# GULP energy per Si atom -5569.432219 kJ/mol
# Density = 2.043218 g / cm^3
# Si number density = 20.478788 Si / 1000 Ang^3
#
#
#
# Elastic Constant Matrix: (Units=GPa)
#
#
# Indices 1 2 3 4 5 6 
#
# 1 36.0702 -6.2890 -5.6033 0.0000 0.0000 0.0000
# 2 -6.2890 85.5288 36.1816 0.0000 0.0000 0.0000
# 3 -5.6033 36.1816 58.9783 0.0000 0.0000 0.0000
# 4 0.0000 0.0000 0.0000 42.7742 0.0000 0.0000
# 5 0.0000 0.0000 0.0000 0.0000 11.0799 0.0000
# 6 0.0000 0.0000 0.0000 0.0000 0.0000 13.5565
#
#
#
# Elastic Compliance Matrix: (Units=1/GPa)
#
#
# Indices 1 2 3 4 5 6 
#
# 1 0.028241 0.001272 0.001903 0.000000 0.000000 0.000000
# 2 0.001272 0.015847 -0.009601 0.000000 0.000000 0.000000
# 3 0.001903 -0.009601 0.023026 0.000000 0.000000 0.000000
# 4 0.000000 0.000000 0.000000 0.023379 0.000000 0.000000
# 5 0.000000 0.000000 0.000000 0.000000 0.090254 0.000000
# 6 0.000000 0.000000 0.000000 0.000000 0.000000 0.073766
#
#
# Mechanical properties :
#
#
# Convention : Reuss Voigt Hill
#
# Bulk Modulus (GPa) = 18.42931 25.46177 21.94554
# Shear Modulus (GPa) = 17.51610 23.90131 20.70870
#
# Velocity S-wave (km/s) = 2.92777 3.42003 3.18343
# Velocity P-wave (km/s) = 4.52193 5.29676 4.92461
#
# Compressibility (1/GPa) = 0.05426140
#
# Stress axis : x y z
#
# Youngs Moduli (GPa) = 35.40950 63.10363 43.42907
#
# Poissons Ratio (x) = -0.08024 -0.08265
# Poissons Ratio (y) = -0.04502 0.41696
# Poissons Ratio (z) = -0.06738 0.60585
#
# Static dielectric constant tensor:
#      x y z
#    x 1.741740 0.000000 0.000000 
#    y 0.000000 1.768560 0.000000 
#    z 0.000000 0.000000 1.786110 
# 
# From -- ./inp_files/9072.got.cif
#   From: 2010.05.17/outbox.cif.g08.bks.cpg/sg40_5_cif.got.tgz:9072.got - 2010.06.03 18:35:42.
