data_PCOD9365803
_publ_section_title
;
Structure prediction by ZEFSAII (Michael W. Deem and Ramdas Pophale) SiO2 
 PCOD9365803
Probable space group: A B A 2
;
_chemical_formula_sum "Si O2"
_cell_formula_units_Z 48
_cell_length_a 9.403029
_cell_length_b 10.109331
_cell_length_c 19.039865
_cell_angle_alpha 90.000000
_cell_angle_beta 90.000000
_cell_angle_gamma 90.000000
_cell_volume 1809.897819
_symmetry_space_group_name_H-M "A B A 2"
_symmetry_group_IT_number 41
_symmetry_cell_setting 'orthorhombic'
loop_
_space_group_symop_operation_xyz
x,y,z
-x,-y,z
1/2-x,y,1/2+z
1/2+x,-y,1/2+z
x,1/2+y,1/2+z
-x,1/2-y,1/2+z
1/2-x,1/2+y,z
1/2+x,1/2-y,z
loop_
_atom_site_type_symbol
_atom_site_label
_atom_site_fract_x
_atom_site_fract_y
_atom_site_fract_z
Si Si1 0.522891 0.815303 0.750000
Si Si2 0.000000 0.000000 0.869789
Si Si3 0.000000 0.000000 0.630211
Si Si4 0.995462 0.195635 0.407943
Si Si5 0.172478 0.569141 0.250000
Si Si6 0.249999 0.748989 0.500000
Si Si7 0.504541 0.195634 0.592058
O O1 0.478942 0.858308 0.828754
O O2 0.459700 0.669743 0.750000
O O3 0.688977 0.843437 0.749999
O O4 0.478938 0.858308 0.671246
O O5 0.990671 0.857962 0.906068
O O6 0.856504 0.008077 0.821400
O O7 0.990670 0.857961 0.593933
O O8 0.856504 0.008078 0.678600
O O9 0.145411 0.169072 0.446688
O O10 0.858084 0.163615 0.453849
O O11 0.358081 0.836385 0.546152
O O12 0.145409 0.669071 0.553311
#
# Coordination Sequence:
#
# PCOD9365803 Si02
#       7
#     8   4   4   8   8   8   8
#     4  10  18  34  60  80 106 148 192 228 274 342
#     4   9  18  32  54  80 110 141 182 234 284 325
#     4   9  18  32  54  80 110 141 182 234 284 325
#     4  10  20  36  56  79 109 146 188 232 281 335
#     4   9  18  32  56  85 108 142 188 233 278 328
#     4  10  22  36  54  80 110 148 190 230 282 342
#     4  10  20  36  56  79 109 146 188 232 281 335
#
# _framework density 26.520834000000001
#
# number of rings (size 3 to 8) (size 9 to 14) (size 15 to 20)
#    0.000    2.333    0.000    5.000    0.000    1.333 
#    0.000    0.000    0.000   50.000    0.000    0.000 
#    0.000    1.333    0.000    0.000    0.000    0.000 
#
# Total GULP energy -133809.789503 kJ/mol
# GULP energy per Si atom -5575.407896 kJ/mol
# Density = 2.646047 g / cm^3
# Si number density = 26.520834 Si / 1000 Ang^3
#
#
#
# Elastic Constant Matrix: (Units=GPa)
#
#
# Indices 1 2 3 4 5 6 
#
# 1 177.1623 8.6553 73.1613 0.0000 0.0000 0.0000
# 2 8.6553 113.0081 1.5936 0.0000 0.0000 0.0000
# 3 73.1613 1.5936 215.3752 0.0000 0.0000 0.0000
# 4 0.0000 0.0000 0.0000 -13.0517 0.0000 0.0000
# 5 0.0000 0.0000 0.0000 0.0000 47.8851 0.0000
# 6 0.0000 0.0000 0.0000 0.0000 0.0000 -12.5181
#
#
#
# Elastic Compliance Matrix: (Units=1/GPa)
#
#
# Indices 1 2 3 4 5 6 
#
# 1 0.006591 -0.000473 -0.002235 0.000000 0.000000 0.000000
# 2 -0.000473 0.008884 0.000095 0.000000 0.000000 0.000000
# 3 -0.002235 0.000095 0.005402 0.000000 0.000000 0.000000
# 4 0.000000 0.000000 0.000000 -0.076618 0.000000 0.000000
# 5 0.000000 0.000000 0.000000 0.000000 0.020883 0.000000
# 6 0.000000 0.000000 0.000000 0.000000 0.000000 -0.079884
#
#
# Mechanical properties :
#
#
# Convention : Reuss Voigt Hill
#
# Bulk Modulus (GPa) = 63.90126 74.70735 69.30431
# Shear Modulus (GPa) = -47.93899 32.60540 -7.66679
#
# Velocity S-wave (km/s) = -4.25620 3.51012 -1.70210
# Velocity P-wave (km/s) = 0.08107 6.68269 4.72503
#
# Compressibility (1/GPa) = 0.01564914
#
# Stress axis : x y z
#
# Youngs Moduli (GPa) = 151.72732 112.56409 185.12755
#
# Poissons Ratio (x) = 0.05327 0.41382
# Poissons Ratio (y) = 0.07181 -0.01759
# Poissons Ratio (z) = 0.33916 -0.01070
#
# Static dielectric constant tensor:
#      x y z
#    x 2.040470 0.000000 0.000000 
#    y 0.000000 2.054020 0.000000 
#    z 0.000000 0.000000 2.245690 
# 
# From -- ./inp_files/11147.got.cif
#   From: 2010.05.17/outbox.cif.g08.bks.cpg/sg41_6_cif.got.tgz:11147.got - 2010.06.03 18:54:24.
