data_PCOD9365458
_publ_section_title
;
Structure prediction by ZEFSAII (Michael W. Deem and Ramdas Pophale) SiO2 
 PCOD9365458
Probable space group: A M A 2
;
_chemical_formula_sum "Si O2"
_cell_formula_units_Z 64
_cell_length_a 28.235872
_cell_length_b 12.055751
_cell_length_c 8.909086
_cell_angle_alpha 90.000000
_cell_angle_beta 90.000000
_cell_angle_gamma 90.000000
_cell_volume 3032.694231
_symmetry_space_group_name_H-M "A M A 2"
_symmetry_group_IT_number 40
_symmetry_cell_setting 'orthorhombic'
loop_
_space_group_symop_operation_xyz
x,y,z
-x,-y,z
1/2-x,y,z
1/2+x,-y,z
x,1/2+y,1/2+z
-x,1/2-y,1/2+z
1/2-x,1/2+y,1/2+z
1/2+x,1/2-y,1/2+z
loop_
_atom_site_type_symbol
_atom_site_label
_atom_site_fract_x
_atom_site_fract_y
_atom_site_fract_z
Si Si1 0.855274 0.936683 0.640750
Si Si2 0.652568 0.011127 0.296141
Si Si3 0.475262 0.394803 0.096268
Si Si4 0.113228 0.341934 0.290807
Si Si5 0.304523 0.251245 0.808144
Si Si6 0.050020 0.452441 0.770296
Si Si7 0.434114 0.742249 0.082267
Si Si8 0.195851 0.692812 0.656476
O O1 0.844201 0.983555 0.474384
O O2 0.815854 0.852432 0.701680
O O3 0.901393 0.859329 0.630390
O O4 0.865998 0.035984 0.756405
O O5 0.688180 0.934070 0.204695
O O6 0.663709 0.140896 0.275987
O O7 0.599211 0.985560 0.237618
O O8 0.500000 0.500000 0.180101
O O9 0.452444 0.449084 0.949557
O O10 0.515340 0.310204 0.040070
O O11 0.433774 0.336313 0.187404
O O12 0.093532 0.309360 0.453331
O O13 0.155604 0.260009 0.245509
O O14 0.250000 0.284902 0.792564
O O15 0.312263 0.213457 0.980090
O O16 0.055445 0.328122 0.713414
O O17 0.000000 0.500000 0.713539
O O18 0.250000 0.727401 0.690903
#
# Coordination Sequence:
#
# PCOD9365458 Si02
#       8
#     8   8   8   8   8   8   8   8
#     4  12  24  45  70 103 137 182 228 287 348 419
#     4  12  23  48  73  98 143 183 228 289 353 414
#     4  11  22  43  68 100 139 187 230 281 343 417
#     4  12  25  45  73 104 142 189 233 293 350 417
#     4  11  26  46  72 104 134 180 237 292 355 416
#     4  11  24  43  67 100 139 185 228 282 344 419
#     4  12  25  43  65 106 145 179 236 282 347 423
#     4  11  26  46  72 102 135 184 238 292 352 413
#
# _framework density 21.103348
#
# number of rings (size 3 to 8) (size 9 to 14) (size 15 to 20)
#    0.000    0.500    6.250    1.875    3.500    2.000 
#    2.250    0.000    0.000    0.000    0.000    0.000 
#    0.000    0.000    0.000    0.000    0.000    0.000 
#
# Total GULP energy -178839.443944 kJ/mol
# GULP energy per Si atom -5588.732623 kJ/mol
# Density = 2.105532 g / cm^3
# Si number density = 21.103348 Si / 1000 Ang^3
#
#
#
# Elastic Constant Matrix: (Units=GPa)
#
#
# Indices 1 2 3 4 5 6 
#
# 1 105.6113 21.7208 26.8040 0.0000 0.0000 0.0000
# 2 21.7208 108.6657 27.7528 0.0000 0.0000 0.0000
# 3 26.8040 27.7528 21.8671 0.0000 0.0000 0.0000
# 4 0.0000 0.0000 0.0000 34.8707 0.0000 0.0000
# 5 0.0000 0.0000 0.0000 0.0000 27.6060 0.0000
# 6 0.0000 0.0000 0.0000 0.0000 0.0000 44.5231
#
#
#
# Elastic Compliance Matrix: (Units=1/GPa)
#
#
# Indices 1 2 3 4 5 6 
#
# 1 0.014145 0.002369 -0.020344 0.000000 0.000000 0.000000
# 2 0.002369 0.014013 -0.020687 0.000000 0.000000 0.000000
# 3 -0.020344 -0.020687 0.096924 0.000000 0.000000 0.000000
# 4 0.000000 0.000000 0.000000 0.028677 0.000000 0.000000
# 5 0.000000 0.000000 0.000000 0.000000 0.036224 0.000000
# 6 0.000000 0.000000 0.000000 0.000000 0.000000 0.022460
#
#
# Mechanical properties :
#
#
# Convention : Reuss Voigt Hill
#
# Bulk Modulus (GPa) = 20.94030 43.18881 32.06455
# Shear Modulus (GPa) = 16.35653 32.05771 24.20712
#
# Velocity S-wave (km/s) = 2.78702 3.90177 3.39052
# Velocity P-wave (km/s) = 4.50566 6.38813 5.52762
#
# Compressibility (1/GPa) = 0.04775482
#
# Stress axis : x y z
#
# Youngs Moduli (GPa) = 70.69650 71.36450 10.31736
#
# Poissons Ratio (x) = -0.16903 0.20990
# Poissons Ratio (y) = -0.16744 0.21344
# Poissons Ratio (z) = 1.43828 1.47634
#
# Static dielectric constant tensor:
#      x y z
#    x 1.803840 0.000000 0.000000 
#    y 0.000000 1.780170 0.000000 
#    z 0.000000 0.000000 1.738450 
# 
# From -- ./inp_files/9454.got.cif
#   From: 2010.05.17/outbox.cif.g08.bks.cpg/sg40_5_cif.got.tgz:9454.got - 2010.06.03 18:35:42.
