data_PCOD9365977
_publ_section_title
;
Structure prediction by ZEFSAII (Michael W. Deem and Ramdas Pophale) SiO2 
 PCOD9365977
Probable space group: A B A 2
;
_chemical_formula_sum "Si O2"
_cell_formula_units_Z 60
_cell_length_a 22.477309
_cell_length_b 22.370161
_cell_length_c 5.377184
_cell_angle_alpha 90.000000
_cell_angle_beta 90.000000
_cell_angle_gamma 90.000000
_cell_volume 2703.761150
_symmetry_space_group_name_H-M "A B A 2"
_symmetry_group_IT_number 41
_symmetry_cell_setting 'orthorhombic'
loop_
_space_group_symop_operation_xyz
x,y,z
-x,-y,z
1/2-x,y,1/2+z
1/2+x,-y,1/2+z
x,1/2+y,1/2+z
-x,1/2-y,1/2+z
1/2-x,1/2+y,z
1/2+x,1/2-y,z
loop_
_atom_site_type_symbol
_atom_site_label
_atom_site_fract_x
_atom_site_fract_y
_atom_site_fract_z
Si Si1 0.900920 0.005405 0.335700
Si Si2 0.961556 0.606497 0.109571
Si Si3 0.500000 0.000000 0.464266
Si Si4 0.575679 0.281489 0.906827
Si Si5 0.722716 0.862702 0.851678
Si Si6 0.068583 0.781716 0.899386
Si Si7 0.405539 0.114879 0.070717
Si Si8 0.770229 0.502518 0.791852
O O1 0.922988 0.070936 0.409648
O O2 0.837799 0.006601 0.207861
O O3 0.948059 0.979272 0.145679
O O4 0.899844 0.957290 0.561794
O O5 0.981104 0.555076 0.298493
O O6 0.924788 0.653684 0.270543
O O7 0.025059 0.629880 0.996346
O O8 0.591469 0.237646 0.672227
O O9 0.503571 0.279294 0.917370
O O10 0.597885 0.347129 0.825048
O O11 0.593331 0.260928 0.181009
O O12 0.742934 0.835638 0.589227
O O13 0.652438 0.866056 0.912307
O O14 0.744535 0.932385 0.830266
O O15 0.732779 0.529403 0.567743
#
# Coordination Sequence:
#
# PCOD9365977 Si02
#       8
#     8   8   4   8   8   8   8   8
#     4  11  22  36  52  89 118 152 193 235 302 360
#     4  11  22  36  51  84 120 158 188 237 292 354
#     4  12  22  32  56  84 122 162 190 232 304 364
#     4   9  19  34  53  78 100 150 184 228 274 331
#     4   9  19  33  50  78 108 145 185 231 288 345
#     4   9  20  35  52  74 112 143 192 223 269 337
#     4  10  19  36  55  79 120 145 188 237 293 359
#     4   9  20  36  55  75 109 152 194 239 281 342
#
# _framework density 22.191310000000001
#
# number of rings (size 3 to 8) (size 9 to 14) (size 15 to 20)
#    0.000    2.133    2.667    0.000    3.733    7.467 
#    0.000    0.000    0.000    0.000    0.000    5.600 
#    0.000    0.000    0.000    0.000    0.000    0.000 
#
# Total GULP energy -167224.427984 kJ/mol
# GULP energy per Si atom -5574.147599 kJ/mol
# Density = 2.214080 g / cm^3
# Si number density = 22.191310 Si / 1000 Ang^3
#
#
#
# Elastic Constant Matrix: (Units=GPa)
#
#
# Indices 1 2 3 4 5 6 
#
# 1 49.3889 6.4486 19.3988 0.0000 0.0000 0.0000
# 2 6.4486 54.8729 8.4225 0.0000 0.0000 0.0000
# 3 19.3988 8.4225 109.8903 0.0000 0.0000 0.0000
# 4 0.0000 0.0000 0.0000 25.2440 0.0000 0.0000
# 5 0.0000 0.0000 0.0000 0.0000 -4.1768 0.0000
# 6 0.0000 0.0000 0.0000 0.0000 0.0000 9.0206
#
#
#
# Elastic Compliance Matrix: (Units=1/GPa)
#
#
# Indices 1 2 3 4 5 6 
#
# 1 0.021973 -0.002011 -0.003725 0.000000 0.000000 0.000000
# 2 -0.002011 0.018625 -0.001073 0.000000 0.000000 0.000000
# 3 -0.003725 -0.001073 0.009840 0.000000 0.000000 0.000000
# 4 0.000000 0.000000 0.000000 0.039613 0.000000 0.000000
# 5 0.000000 0.000000 0.000000 0.000000 -0.239416 0.000000
# 6 0.000000 0.000000 0.000000 0.000000 0.000000 0.110858
#
#
# Mechanical properties :
#
#
# Convention : Reuss Voigt Hill
#
# Bulk Modulus (GPa) = 27.15783 31.41022 29.28403
# Shear Modulus (GPa) = -396.26245 18.00970 -189.12638
#
# Velocity S-wave (km/s) = -13.37737 2.85189 -9.24178
# Velocity P-wave (km/s) = 15.04463 5.00294 10.03273
#
# Compressibility (1/GPa) = 0.03682179
#
# Stress axis : x y z
#
# Youngs Moduli (GPa) = 45.51050 53.69170 101.62888
#
# Poissons Ratio (x) = 0.10795 0.37854
# Poissons Ratio (y) = 0.09150 0.10901
# Poissons Ratio (z) = 0.16952 0.05759
#
# Static dielectric constant tensor:
#      x y z
#    x 1.844900 0.000000 0.000000 
#    y 0.000000 1.862490 0.000000 
#    z 0.000000 0.000000 1.917310 
# 
# From -- ./inp_files/799.got.cif
#   From: 2010.05.17/outbox.cif.g08.bks.cpg/sg41_1_cif.got.tgz:799.got - 2010.06.03 18:54:24.
