data_PCOD9365315
_publ_section_title
;
Structure prediction by ZEFSAII (Michael W. Deem and Ramdas Pophale) SiO2 
 PCOD9365315
Probable space group: A M A 2
;
_chemical_formula_sum "Si O2"
_cell_formula_units_Z 48
_cell_length_a 21.648402
_cell_length_b 18.180252
_cell_length_c 5.522807
_cell_angle_alpha 90.000000
_cell_angle_beta 90.000000
_cell_angle_gamma 90.000000
_cell_volume 2173.629949
_symmetry_space_group_name_H-M "A M A 2"
_symmetry_group_IT_number 40
_symmetry_cell_setting 'orthorhombic'
loop_
_space_group_symop_operation_xyz
x,y,z
-x,-y,z
1/2-x,y,z
1/2+x,-y,z
x,1/2+y,1/2+z
-x,1/2-y,1/2+z
1/2-x,1/2+y,1/2+z
1/2+x,1/2-y,1/2+z
loop_
_atom_site_type_symbol
_atom_site_label
_atom_site_fract_x
_atom_site_fract_y
_atom_site_fract_z
Si Si1 0.320915 0.384163 0.376690
Si Si2 0.881480 0.062087 0.373318
Si Si3 0.377001 0.611831 0.921793
Si Si4 0.423127 0.700172 0.306419
Si Si5 0.182028 0.233867 0.155948
Si Si6 0.005282 0.346382 0.693905
O O1 0.250000 0.406332 0.334757
O O2 0.341448 0.411782 0.640452
O O3 0.324015 0.295322 0.365336
O O4 0.359210 0.410622 0.139217
O O5 0.948395 0.093405 0.297694
O O6 0.879769 0.974045 0.386706
O O7 0.374271 0.643560 0.190030
O O8 0.325669 0.652892 0.765909
O O9 0.443329 0.648185 0.852627
O O10 0.377630 0.743608 0.489514
O O11 0.475646 0.648433 0.427444
O O12 0.460516 0.767885 0.190711
O O13 0.250000 0.244714 0.044242
#
# Coordination Sequence:
#
# PCOD9365315 Si02
#       6
#     8   8   8   8   8   8
#     4  11  26  48  73 101 139 190 245 295 355 432
#     4  12  27  46  71 105 147 188 236 296 371 435
#     4  11  26  44  65 106 140 187 234 298 372 428
#     4  11  22  42  73 101 139 185 242 298 366 427
#     4  10  24  45  71 102 136 187 250 298 353 433
#     4  11  23  41  69 101 138 185 234 296 353 439
#
# _framework density 22.082878000000001
#
# number of rings (size 3 to 8) (size 9 to 14) (size 15 to 20)
#    0.000    1.000    3.333    2.000    9.333    2.000 
#    0.000    0.000    0.000    0.000    0.000    0.000 
#    0.000    0.000    0.000    0.000    0.000    0.000 
#
# Total GULP energy -133793.200089 kJ/mol
# GULP energy per Si atom -5574.716670 kJ/mol
# Density = 2.203262 g / cm^3
# Si number density = 22.082878 Si / 1000 Ang^3
#
#
#
# Elastic Constant Matrix: (Units=GPa)
#
#
# Indices 1 2 3 4 5 6 
#
# 1 83.3560 -4.0509 -0.4045 0.0000 0.0000 0.0000
# 2 -4.0509 109.6116 -3.0171 0.0000 0.0000 0.0000
# 3 -0.4045 -3.0171 44.0023 0.0000 0.0000 0.0000
# 4 0.0000 0.0000 0.0000 24.9931 0.0000 0.0000
# 5 0.0000 0.0000 0.0000 0.0000 4.8758 0.0000
# 6 0.0000 0.0000 0.0000 0.0000 0.0000 16.1643
#
#
#
# Elastic Compliance Matrix: (Units=1/GPa)
#
#
# Indices 1 2 3 4 5 6 
#
# 1 0.012019 0.000448 0.000141 0.000000 0.000000 0.000000
# 2 0.000448 0.009157 0.000632 0.000000 0.000000 0.000000
# 3 0.000141 0.000632 0.022771 0.000000 0.000000 0.000000
# 4 0.000000 0.000000 0.000000 0.040011 0.000000 0.000000
# 5 0.000000 0.000000 0.000000 0.000000 0.205096 0.000000
# 6 0.000000 0.000000 0.000000 0.000000 0.000000 0.061865
#
#
# Mechanical properties :
#
#
# Convention : Reuss Voigt Hill
#
# Bulk Modulus (GPa) = 21.55658 24.66944 23.11301
# Shear Modulus (GPa) = 13.73853 25.50278 19.62066
#
# Velocity S-wave (km/s) = 2.49697 3.40202 2.98401
# Velocity P-wave (km/s) = 4.25394 5.16015 4.72881
#
# Compressibility (1/GPa) = 0.04638954
#
# Stress axis : x y z
#
# Youngs Moduli (GPa) = 83.20019 109.20518 43.91607
#
# Poissons Ratio (x) = -0.04893 -0.00620
# Poissons Ratio (y) = -0.03728 -0.02775
# Poissons Ratio (z) = -0.01175 -0.06902
#
# Static dielectric constant tensor:
#      x y z
#    x 1.810080 0.000000 0.000000 
#    y 0.000000 1.772670 0.000000 
#    z 0.000000 0.000000 2.189720 
# 
# From -- ./inp_files/2731.got.cif
#   From: 2010.05.17/outbox.cif.g08.bks.cpg/sg40_2_cif.got.tgz:2731.got - 2010.06.03 18:35:42.
