data_PCOD9365418
_publ_section_title
;
Structure prediction by ZEFSAII (Michael W. Deem and Ramdas Pophale) SiO2 
 PCOD9365418
Probable space group: A M A 2
;
_chemical_formula_sum "Si O2"
_cell_formula_units_Z 64
_cell_length_a 31.148289
_cell_length_b 11.162050
_cell_length_c 9.297369
_cell_angle_alpha 90.000000
_cell_angle_beta 90.000000
_cell_angle_gamma 90.000000
_cell_volume 3232.497718
_symmetry_space_group_name_H-M "A M A 2"
_symmetry_group_IT_number 40
_symmetry_cell_setting 'orthorhombic'
loop_
_space_group_symop_operation_xyz
x,y,z
-x,-y,z
1/2-x,y,z
1/2+x,-y,z
x,1/2+y,1/2+z
-x,1/2-y,1/2+z
1/2-x,1/2+y,1/2+z
1/2+x,1/2-y,1/2+z
loop_
_atom_site_type_symbol
_atom_site_label
_atom_site_fract_x
_atom_site_fract_y
_atom_site_fract_z
Si Si1 0.612903 0.322176 0.106810
Si Si2 0.369054 0.437902 0.598947
Si Si3 0.702436 0.960293 0.601487
Si Si4 0.797401 0.430448 0.781407
Si Si5 0.541065 0.920134 0.094982
Si Si6 0.955431 0.472794 0.282640
Si Si7 0.330980 0.334148 0.298424
Si Si8 0.079678 0.766240 0.799029
O O1 0.617551 0.188657 0.169143
O O2 0.660517 0.377266 0.115380
O O3 0.580287 0.406530 0.191069
O O4 0.594282 0.303832 0.944122
O O5 0.333882 0.513999 0.683035
O O6 0.412852 0.513213 0.596273
O O7 0.347530 0.397278 0.446206
O O8 0.750000 0.905921 0.628193
O O9 0.695374 0.071785 0.706260
O O10 0.701980 0.997302 0.434424
O O11 0.750000 0.441961 0.716182
O O12 0.805960 0.290405 0.818044
O O13 0.547734 0.808466 0.199959
O O14 0.500000 0.000000 0.139276
O O15 0.534384 0.895347 0.925350
O O16 0.939301 0.603576 0.332763
O O17 0.000000 0.500000 0.202383
O O18 0.375289 0.295340 0.219925
#
# Coordination Sequence:
#
# PCOD9365418 Si02
#       8
#     8   8   8   8   8   8   8   8
#     4  11  22  43  64  90 130 162 208 259 313 374
#     4  11  22  42  65  91 125 169 205 257 319 372
#     4  11  22  39  64  91 120 162 207 254 310 369
#     4  11  24  42  63  91 123 161 208 258 312 374
#     4  11  23  41  63  94 130 164 213 263 310 373
#     4  11  25  42  64  96 128 165 212 262 315 374
#     4  11  21  43  66  88 126 164 205 257 312 370
#     4  11  22  42  66  89 126 169 207 256 316 374
#
# _framework density 19.798932000000001
#
# number of rings (size 3 to 8) (size 9 to 14) (size 15 to 20)
#    0.000    1.000    7.500    0.375    1.750    3.000 
#    4.500    0.000    0.000    0.000    0.000    0.000 
#    0.000    0.000    0.000    0.000    0.000    0.000 
#
# Total GULP energy -178397.463473 kJ/mol
# GULP energy per Si atom -5574.920734 kJ/mol
# Density = 1.975387 g / cm^3
# Si number density = 19.798932 Si / 1000 Ang^3
#
#
#
# Elastic Constant Matrix: (Units=GPa)
#
#
# Indices 1 2 3 4 5 6 
#
# 1 128.2918 21.8439 23.2591 0.0000 0.0000 0.0000
# 2 21.8439 76.5450 43.6627 0.0000 0.0000 0.0000
# 3 23.2591 43.6627 57.6513 0.0000 0.0000 0.0000
# 4 0.0000 0.0000 0.0000 23.3759 0.0000 0.0000
# 5 0.0000 0.0000 0.0000 0.0000 26.3281 0.0000
# 6 0.0000 0.0000 0.0000 0.0000 0.0000 27.4705
#
#
#
# Elastic Compliance Matrix: (Units=1/GPa)
#
#
# Indices 1 2 3 4 5 6 
#
# 1 0.008439 -0.000821 -0.002783 0.000000 0.000000 0.000000
# 2 -0.000821 0.023081 -0.017149 0.000000 0.000000 0.000000
# 3 -0.002783 -0.017149 0.031457 0.000000 0.000000 0.000000
# 4 0.000000 0.000000 0.000000 0.042779 0.000000 0.000000
# 5 0.000000 0.000000 0.000000 0.000000 0.037982 0.000000
# 6 0.000000 0.000000 0.000000 0.000000 0.000000 0.036403
#
#
# Mechanical properties :
#
#
# Convention : Reuss Voigt Hill
#
# Bulk Modulus (GPa) = 46.57619 48.89106 47.73362
# Shear Modulus (GPa) = 21.85287 27.01641 24.43464
#
# Velocity S-wave (km/s) = 3.32586 3.69797 3.51684
# Velocity P-wave (km/s) = 6.19065 6.55597 6.37593
#
# Compressibility (1/GPa) = 0.02147020
#
# Stress axis : x y z
#
# Youngs Moduli (GPa) = 118.49683 43.32635 31.78990
#
# Poissons Ratio (x) = 0.03556 0.08847
# Poissons Ratio (y) = 0.09726 0.54517
# Poissons Ratio (z) = 0.32979 0.74301
#
# Static dielectric constant tensor:
#      x y z
#    x 1.742480 0.000000 0.000000 
#    y 0.000000 1.705060 0.000000 
#    z 0.000000 0.000000 1.707280 
# 
# From -- ./inp_files/9414.got.cif
#   From: 2010.05.17/outbox.cif.g08.bks.cpg/sg40_5_cif.got.tgz:9414.got - 2010.06.03 18:35:42.
