data_PCOD9365927
_publ_section_title
;
Structure prediction by ZEFSAII (Michael W. Deem and Ramdas Pophale) SiO2 
 PCOD9365927
Probable space group: A B A 2
;
_chemical_formula_sum "Si O2"
_cell_formula_units_Z 64
_cell_length_a 16.632133
_cell_length_b 22.322237
_cell_length_c 8.198437
_cell_angle_alpha 90.000000
_cell_angle_beta 90.000000
_cell_angle_gamma 90.000000
_cell_volume 3043.804311
_symmetry_space_group_name_H-M "A B A 2"
_symmetry_group_IT_number 41
_symmetry_cell_setting 'orthorhombic'
loop_
_space_group_symop_operation_xyz
x,y,z
-x,-y,z
1/2-x,y,1/2+z
1/2+x,-y,1/2+z
x,1/2+y,1/2+z
-x,1/2-y,1/2+z
1/2-x,1/2+y,z
1/2+x,1/2-y,z
loop_
_atom_site_type_symbol
_atom_site_label
_atom_site_fract_x
_atom_site_fract_y
_atom_site_fract_z
Si Si1 0.556934 0.818616 0.977920
Si Si2 0.449238 0.287049 0.202901
Si Si3 0.285674 0.931025 0.961595
Si Si4 0.790464 0.781949 0.283098
Si Si5 0.466945 0.595403 0.776246
Si Si6 0.296893 0.841346 0.698743
Si Si7 0.866342 0.307310 0.431718
Si Si8 0.370190 0.973388 0.265206
O O1 0.511628 0.825292 0.805933
O O2 0.645763 0.796372 0.925762
O O3 0.518275 0.764474 0.085425
O O4 0.551494 0.874396 0.099736
O O5 0.377839 0.320183 0.110909
O O6 0.400520 0.251637 0.344243
O O7 0.328330 0.892742 0.821847
O O8 0.206912 0.961540 0.881135
O O9 0.259042 0.877493 0.079395
O O10 0.338628 0.972452 0.077899
O O11 0.755918 0.713691 0.271850
O O12 0.712103 0.822234 0.321141
O O13 0.832602 0.795991 0.111235
O O14 0.435223 0.643212 0.909036
O O15 0.414252 0.535818 0.797950
O O16 0.560652 0.577328 0.785357
#
# Coordination Sequence:
#
# PCOD9365927 Si02
#       8
#     8   8   8   8   8   8   8   8
#     4  11  22  35  57  85 121 164 200 247 309 377
#     4  10  20  33  51  83 117 152 196 238 304 380
#     4  10  21  36  63  87 108 153 201 245 299 351
#     4  11  21  36  56  89 127 163 204 245 305 386
#     4  10  23  43  62  85 123 161 201 261 314 359
#     4  10  19  34  55  82 117 148 188 248 298 353
#     4  10  21  36  57  85 121 165 202 246 308 375
#     4  10  23  43  63  87 116 155 212 264 307 353
#
# _framework density 21.026318
#
# number of rings (size 3 to 8) (size 9 to 14) (size 15 to 20)
#    0.000    1.750    0.000    6.000    0.000   10.000 
#    0.000    1.250    0.000    7.500    0.000    0.000 
#    0.000    0.000    0.000    0.000    0.000    0.000 
#
# Total GULP energy -178382.720147 kJ/mol
# GULP energy per Si atom -5574.460005 kJ/mol
# Density = 2.097846 g / cm^3
# Si number density = 21.026318 Si / 1000 Ang^3
#
#
#
# Elastic Constant Matrix: (Units=GPa)
#
#
# Indices 1 2 3 4 5 6 
#
# 1 75.0118 2.9355 6.8711 0.0000 0.0000 0.0000
# 2 2.9355 36.8389 -9.7209 0.0000 0.0000 0.0000
# 3 6.8711 -9.7209 57.2681 0.0000 0.0000 0.0000
# 4 0.0000 0.0000 0.0000 17.5987 0.0000 0.0000
# 5 0.0000 0.0000 0.0000 0.0000 37.2144 0.0000
# 6 0.0000 0.0000 0.0000 0.0000 0.0000 23.8242
#
#
#
# Elastic Compliance Matrix: (Units=1/GPa)
#
#
# Indices 1 2 3 4 5 6 
#
# 1 0.013567 -0.001581 -0.001896 0.000000 0.000000 0.000000
# 2 -0.001581 0.028602 0.005045 0.000000 0.000000 0.000000
# 3 -0.001896 0.005045 0.018546 0.000000 0.000000 0.000000
# 4 0.000000 0.000000 0.000000 0.056823 0.000000 0.000000
# 5 0.000000 0.000000 0.000000 0.000000 0.026871 0.000000
# 6 0.000000 0.000000 0.000000 0.000000 0.000000 0.041974
#
#
# Mechanical properties :
#
#
# Convention : Reuss Voigt Hill
#
# Bulk Modulus (GPa) = 15.66188 18.81000 17.23594
# Shear Modulus (GPa) = 24.44613 26.99634 25.72123
#
# Velocity S-wave (km/s) = 3.41346 3.58709 3.50135
# Velocity P-wave (km/s) = 4.79588 5.11093 4.95591
#
# Compressibility (1/GPa) = 0.06384930
#
# Stress axis : x y z
#
# Youngs Moduli (GPa) = 73.70930 34.96202 53.92120
#
# Poissons Ratio (x) = 0.05529 0.10225
# Poissons Ratio (y) = 0.11657 -0.27202
# Poissons Ratio (z) = 0.13977 -0.17638
#
# Static dielectric constant tensor:
#      x y z
#    x 1.830410 0.000000 0.000000 
#    y 0.000000 1.772110 0.000000 
#    z 0.000000 0.000000 1.804850 
# 
# From -- ./inp_files/2814.got.cif
#   From: 2010.05.17/outbox.cif.g08.bks.cpg/sg41_2_cif.got.tgz:2814.got - 2010.06.03 18:54:24.
