data_PCOD9365391
_publ_section_title
;
Structure prediction by ZEFSAII (Michael W. Deem and Ramdas Pophale) SiO2 
 PCOD9365391
Probable space group: A M A 2
;
_chemical_formula_sum "Si O2"
_cell_formula_units_Z 64
_cell_length_a 7.799702
_cell_length_b 31.834600
_cell_length_c 14.867928
_cell_angle_alpha 90.000000
_cell_angle_beta 90.000000
_cell_angle_gamma 90.000000
_cell_volume 3691.712370
_symmetry_space_group_name_H-M "A M A 2"
_symmetry_group_IT_number 40
_symmetry_cell_setting 'orthorhombic'
loop_
_space_group_symop_operation_xyz
x,y,z
-x,-y,z
1/2-x,y,z
1/2+x,-y,z
x,1/2+y,1/2+z
-x,1/2-y,1/2+z
1/2-x,1/2+y,1/2+z
1/2+x,1/2-y,1/2+z
loop_
_atom_site_type_symbol
_atom_site_label
_atom_site_fract_x
_atom_site_fract_y
_atom_site_fract_z
Si Si1 0.043617 0.047532 0.010270
Si Si2 0.543882 0.452475 0.303242
Si Si3 0.458833 0.632158 0.584660
Si Si4 0.550726 0.787120 0.189035
Si Si5 0.458209 0.676152 0.400262
Si Si6 0.959662 0.868546 0.716771
Si Si7 0.951376 0.729469 0.888471
Si Si8 0.452630 0.702144 0.082653
O O1 0.250000 0.050813 0.006034
O O2 0.982428 0.083777 0.078595
O O3 0.981260 0.054206 0.906637
O O4 0.000000 0.000000 0.036125
O O5 0.500000 0.500000 0.277300
O O6 0.750000 0.448938 0.307283
O O7 0.483894 0.416452 0.234328
O O8 0.250000 0.630919 0.593481
O O9 0.520925 0.668418 0.652397
O O10 0.506520 0.650031 0.486911
O O11 0.750000 0.785886 0.162757
O O12 0.534286 0.786466 0.296543
O O13 0.478514 0.744742 0.142139
O O14 0.250000 0.676713 0.400324
O O15 0.511531 0.655355 0.307760
O O16 0.519594 0.723631 0.406225
O O17 0.750000 0.868617 0.712518
O O18 0.019607 0.838872 0.635770
O O19 0.750000 0.732295 0.867743
O O20 0.972932 0.706027 0.982730
O O21 0.250000 0.697390 0.072045
#
# Coordination Sequence:
#
# PCOD9365391 Si02
#       8
#     8   8   8   8   8   8   8   8
#     4   9  16  27  45  67  93 124 158 192 232 282
#     4   9  16  27  45  67  93 124 158 192 232 282
#     4   9  16  28  47  68  93 130 167 192 228 290
#     4  11  21  33  50  73  98 128 168 206 242 287
#     4   9  14  25  46  68  90 125 164 191 221 279
#     4   9  16  28  47  68  93 130 167 192 228 290
#     4  11  21  35  51  68  97 133 167 204 247 286
#     4  11  21  33  50  73  98 128 168 206 242 287
#
# _framework density 17.336129
#
# number of rings (size 3 to 8) (size 9 to 14) (size 15 to 20)
#    0.000    2.250    3.750    1.125    0.000    0.000 
#    0.000    2.500    0.000    0.000    0.000    0.875 
#    0.000    0.000    0.000    0.000    0.000    0.000 
#
# Total GULP energy -178289.429333 kJ/mol
# GULP energy per Si atom -5571.544667 kJ/mol
# Density = 1.729667 g / cm^3
# Si number density = 17.336129 Si / 1000 Ang^3
#
#
#
# Elastic Constant Matrix: (Units=GPa)
#
#
# Indices 1 2 3 4 5 6 
#
# 1 20.1624 -2.4301 -10.9867 0.0000 0.0000 0.0000
# 2 -2.4301 126.4833 29.1090 0.0000 0.0000 0.0000
# 3 -10.9867 29.1090 53.8207 0.0000 0.0000 0.0000
# 4 0.0000 0.0000 0.0000 20.6371 0.0000 0.0000
# 5 0.0000 0.0000 0.0000 0.0000 17.0075 0.0000
# 6 0.0000 0.0000 0.0000 0.0000 0.0000 15.2358
#
#
#
# Elastic Compliance Matrix: (Units=1/GPa)
#
#
# Indices 1 2 3 4 5 6 
#
# 1 0.056154 -0.001781 0.012426 0.000000 0.000000 0.000000
# 2 -0.001781 0.009087 -0.005278 0.000000 0.000000 0.000000
# 3 0.012426 -0.005278 0.023971 0.000000 0.000000 0.000000
# 4 0.000000 0.000000 0.000000 0.048456 0.000000 0.000000
# 5 0.000000 0.000000 0.000000 0.000000 0.058798 0.000000
# 6 0.000000 0.000000 0.000000 0.000000 0.000000 0.065635
#
#
# Mechanical properties :
#
#
# Convention : Reuss Voigt Hill
#
# Bulk Modulus (GPa) = 10.00538 25.76121 17.88329
# Shear Modulus (GPa) = 17.56346 22.89436 20.22891
#
# Velocity S-wave (km/s) = 3.18640 3.63797 3.41965
# Velocity P-wave (km/s) = 4.39562 5.70426 5.09215
#
# Compressibility (1/GPa) = 0.09994623
#
# Stress axis : x y z
#
# Youngs Moduli (GPa) = 17.80826 110.05138 41.71621
#
# Poissons Ratio (x) = 0.19599 -0.51837
# Poissons Ratio (y) = 0.03171 0.22018
# Poissons Ratio (z) = -0.22129 0.58086
#
# Static dielectric constant tensor:
#      x y z
#    x 1.644630 0.000000 0.000000 
#    y 0.000000 1.628260 0.000000 
#    z 0.000000 0.000000 1.571970 
# 
# From -- ./inp_files/15869.got.cif
#   From: 2010.05.17/outbox.cif.g08.bks.cpg/sg40_8_cif.got.tgz:15869.got - 2010.06.03 18:35:42.
