data_PCOD9365333
_publ_section_title
;
Structure prediction by ZEFSAII (Michael W. Deem and Ramdas Pophale) SiO2 
 PCOD9365333
Probable space group: A M A 2
;
_chemical_formula_sum "Si O2"
_cell_formula_units_Z 32
_cell_length_a 8.787796
_cell_length_b 4.610876
_cell_length_c 29.877901
_cell_angle_alpha 90.000000
_cell_angle_beta 90.000000
_cell_angle_gamma 90.000000
_cell_volume 1210.635747
_symmetry_space_group_name_H-M "A M A 2"
_symmetry_group_IT_number 40
_symmetry_cell_setting 'orthorhombic'
loop_
_space_group_symop_operation_xyz
x,y,z
-x,-y,z
1/2-x,y,z
1/2+x,-y,z
x,1/2+y,1/2+z
-x,1/2-y,1/2+z
1/2-x,1/2+y,1/2+z
1/2+x,1/2-y,1/2+z
loop_
_atom_site_type_symbol
_atom_site_label
_atom_site_fract_x
_atom_site_fract_y
_atom_site_fract_z
Si Si1 0.250000 0.312256 0.152750
Si Si2 0.750000 0.814417 0.330318
Si Si3 0.500000 0.000000 0.953650
Si Si4 0.250000 0.181955 0.892714
Si Si5 0.000000 0.500000 0.595387
Si Si6 0.250000 0.309707 0.713881
Si Si7 0.000000 0.500000 0.272233
Si Si8 0.250000 0.306627 0.524538
O O1 0.397154 0.210267 0.125607
O O2 0.250000 0.645869 0.166155
O O3 0.250000 0.144357 0.200605
O O4 0.750000 0.652647 0.377738
O O5 0.895004 0.704525 0.302949
O O6 0.750000 0.145067 0.346047
O O7 0.600741 0.788797 0.922658
O O8 0.382517 0.833348 0.985661
O O9 0.883537 0.673079 0.563419
O O10 0.394740 0.202252 0.741392
#
# Coordination Sequence:
#
# PCOD9365333 Si02
#       8
#     4   4   4   4   4   4   4   4
#     4  11  22  38  64  96 131 174 223 276 333 398
#     4  11  26  44  66  97 130 172 226 284 344 406
#     4   9  19  38  68  96 134 178 224 280 342 408
#     4  11  24  42  68  97 130 172 226 284 339 404
#     4   9  18  34  65  96 134 174 220 276 333 400
#     4  11  24  42  65  95 131 176 225 276 338 406
#     4  10  25  44  67  94 134 178 224 284 347 408
#     4   8  16  36  65  97 134 176 222 272 338 406
#
# _framework density 26.432389000000001
#
# number of rings (size 3 to 8) (size 9 to 14) (size 15 to 20)
#    0.000    2.000    0.000    2.250    0.000   10.000 
#    0.000    3.750    0.000  105.000    0.000    0.000 
#    0.000    0.000    0.000    0.000    0.000    0.000 
#
# Total GULP energy -89307.486981 kJ/mol
# GULP energy per Si atom -5581.717936 kJ/mol
# Density = 2.637223 g / cm^3
# Si number density = 26.432389 Si / 1000 Ang^3
#
#
#
# Elastic Constant Matrix: (Units=GPa)
#
#
# Indices 1 2 3 4 5 6 
#
# 1 236.7876 33.6893 87.2007 0.0000 0.0000 0.0000
# 2 33.6893 74.8236 28.3735 0.0000 0.0000 0.0000
# 3 87.2007 28.3735 162.7124 0.0000 0.0000 0.0000
# 4 0.0000 0.0000 0.0000 -59.1907 0.0000 0.0000
# 5 0.0000 0.0000 0.0000 0.0000 73.0312 0.0000
# 6 0.0000 0.0000 0.0000 0.0000 0.0000 19.7456
#
#
#
# Elastic Compliance Matrix: (Units=1/GPa)
#
#
# Indices 1 2 3 4 5 6 
#
# 1 0.005401 -0.001429 -0.002645 0.000000 0.000000 0.000000
# 2 -0.001429 0.014689 -0.001796 0.000000 0.000000 0.000000
# 3 -0.002645 -0.001796 0.007877 0.000000 0.000000 0.000000
# 4 0.000000 0.000000 0.000000 -0.016895 0.000000 0.000000
# 5 0.000000 0.000000 0.000000 0.000000 0.013693 0.000000
# 6 0.000000 0.000000 0.000000 0.000000 0.000000 0.050644
#
#
# Mechanical properties :
#
#
# Convention : Reuss Voigt Hill
#
# Bulk Modulus (GPa) = 61.62574 85.87229 73.74902
# Shear Modulus (GPa) = 54.02106 28.38791 41.20449
#
# Velocity S-wave (km/s) = 4.52568 3.28072 3.95253
# Velocity P-wave (km/s) = 7.11858 6.84901 6.98509
#
# Compressibility (1/GPa) = 0.01622699
#
# Stress axis : x y z
#
# Youngs Moduli (GPa) = 185.16592 68.07828 126.95897
#
# Poissons Ratio (x) = 0.09725 0.33583
# Poissons Ratio (y) = 0.26452 0.22800
# Poissons Ratio (z) = 0.48979 0.12226
#
# Static dielectric constant tensor:
#      x y z
#    x 2.011990 0.000000 0.000000 
#    y 0.000000 2.043000 0.000000 
#    z 0.000000 0.000000 1.990160 
# 
# From -- ./inp_files/25120.got.cif
#   From: 2010.05.17/outbox.cif.g08.bks.cpg/sg40_13_cif.got.tgz:25120.got - 2010.06.03 18:35:42.
