data_PCOD9365666
_publ_section_title
;
Structure prediction by ZEFSAII (Michael W. Deem and Ramdas Pophale) SiO2 
 PCOD9365666
Probable space group: A M A 2
;
_chemical_formula_sum "Si O2"
_cell_formula_units_Z 30
_cell_length_a 24.000000
_cell_length_b 15.000000
_cell_length_c 9.000000
_cell_angle_alpha 90.000000
_cell_angle_beta 90.000000
_cell_angle_gamma 90.000000
_cell_volume 3240.000000
_symmetry_space_group_name_H-M "A M A 2"
_symmetry_group_IT_number 40
_symmetry_cell_setting 'orthorhombic'
loop_
_space_group_symop_operation_xyz
x,y,z
-x,-y,z
1/2-x,y,z
1/2+x,-y,z
x,1/2+y,1/2+z
-x,1/2-y,1/2+z
1/2-x,1/2+y,1/2+z
1/2+x,1/2-y,1/2+z
loop_
_atom_site_type_symbol
_atom_site_label
_atom_site_fract_x
_atom_site_fract_y
_atom_site_fract_z
Si Si1 0.399203 0.006316 0.792070
Si Si2 0.684932 0.345678 0.813129
Si Si3 0.392714 0.322825 0.689413
Si Si4 0.510908 0.852865 0.316418
Si Si5 0.000000 0.000000 0.570797
Si Si6 0.183210 0.153186 0.671525
Si Si7 0.395345 0.301281 0.337388
Si Si8 0.400576 0.027852 0.148483
O O1 0.396657 0.899381 0.768971
O O2 0.450090 0.028590 0.681701
O O3 0.346893 0.067515 0.744235
O O4 0.406792 0.022672 0.969532
O O5 0.750000 0.353429 0.784814
O O6 0.659916 0.248379 0.782010
O O7 0.649548 0.411717 0.710663
O O8 0.675335 0.357552 0.991753
O O9 0.454260 0.309182 0.755198
O O10 0.348498 0.244024 0.728557
O O11 0.392897 0.316955 0.512479
O O12 0.386352 0.429617 0.714816
O O13 0.554374 0.770234 0.323668
O O14 0.543534 0.924893 0.212488
O O15 0.495495 0.912680 0.462213
O O16 0.250000 0.157936 0.698528
#
# Coordination Sequence:
#
# PCOD9365666 Si02
#       8
#     8   8   8   8   4   8   8   8
#     4  11  25  39  60  93 126 164 200 256 318 370
#     4   9  19  41  67  88 118 163 210 254 305 373
#     4  10  20  37  62  86 117 163 207 248 301 369
#     4  11  22  39  62  90 126 166 203 256 304 387
#     4  12  24  38  62  90 130 162 202 252 322 374
#     4  10  23  43  63  89 127 164 206 259 311 366
#     4   9  22  37  59  92 122 158 202 252 310 362
#     4  10  21  39  61  92 125 159 209 254 312 370
#
# _framework density 9.2592590000000001
#
# number of rings (size 3 to 8) (size 9 to 14) (size 15 to 20)
#    0.000    1.867    1.333    2.400    7.467    1.600 
#    2.400    2.667    0.000    0.000    0.000    0.000 
#    0.000    0.000    0.000    0.000    0.000    0.000 
#
# Total GULP energy -167019.772606 kJ/mol
# GULP energy per Si atom -5567.325754 kJ/mol
# Density = 0.923818 g / cm^3
# Si number density = 9.259259 Si / 1000 Ang^3
#
#
#
# Elastic Constant Matrix: (Units=GPa)
#
#
# Indices 1 2 3 4 5 6 
#
# 1 120.1896 47.3956 33.3856 0.0000 0.0000 0.0000
# 2 47.3956 125.1976 27.3798 0.0000 0.0000 0.0000
# 3 33.3856 27.3798 44.0084 0.0000 0.0000 0.0000
# 4 0.0000 0.0000 0.0000 28.0641 0.0000 0.0000
# 5 0.0000 0.0000 0.0000 0.0000 26.8824 0.0000
# 6 0.0000 0.0000 0.0000 0.0000 0.0000 30.0750
#
#
#
# Elastic Compliance Matrix: (Units=1/GPa)
#
#
# Indices 1 2 3 4 5 6 
#
# 1 0.011324 -0.002787 -0.006856 0.000000 0.000000 0.000000
# 2 -0.002787 0.009931 -0.004064 0.000000 0.000000 0.000000
# 3 -0.006856 -0.004064 0.030453 0.000000 0.000000 0.000000
# 4 0.000000 0.000000 0.000000 0.035633 0.000000 0.000000
# 5 0.000000 0.000000 0.000000 0.000000 0.037199 0.000000
# 6 0.000000 0.000000 0.000000 0.000000 0.000000 0.033250
#
#
# Mechanical properties :
#
#
# Convention : Reuss Voigt Hill
#
# Bulk Modulus (GPa) = 41.16550 56.19085 48.67817
# Shear Modulus (GPa) = 25.86605 29.08660 27.47632
#
# Velocity S-wave (km/s) = 3.74139 3.96748 3.85609
# Velocity P-wave (km/s) = 6.39856 7.16915 6.79479
#
# Compressibility (1/GPa) = 0.02429219
#
# Stress axis : x y z
#
# Youngs Moduli (GPa) = 88.30887 100.69061 32.83763
#
# Poissons Ratio (x) = 0.28067 0.22515
# Poissons Ratio (y) = 0.24615 0.13346
# Poissons Ratio (z) = 0.60548 0.40923
#
# Static dielectric constant tensor:
#      x y z
#    x 1.645830 0.000000 0.000000 
#    y 0.000000 1.689810 0.000000 
#    z 0.000000 0.000000 1.647930 
# 
# From -- ./inp_files/8887.got.cif
#   From: 2010.05.17/outbox.ucp.g08.bks.cvg/sg40_5_cif.got.tgz:8887.got - 2010.06.11 16:26:39.
