data_PCOD9365668
_publ_section_title
;
Structure prediction by ZEFSAII (Michael W. Deem and Ramdas Pophale) SiO2 
 PCOD9365668
Probable space group: A M A 2
;
_chemical_formula_sum "Si O2"
_cell_formula_units_Z 32
_cell_length_a 18.000000
_cell_length_b 12.000000
_cell_length_c 15.000000
_cell_angle_alpha 90.000000
_cell_angle_beta 90.000000
_cell_angle_gamma 90.000000
_cell_volume 3240.000000
_symmetry_space_group_name_H-M "A M A 2"
_symmetry_group_IT_number 40
_symmetry_cell_setting 'orthorhombic'
loop_
_space_group_symop_operation_xyz
x,y,z
-x,-y,z
1/2-x,y,z
1/2+x,-y,z
x,1/2+y,1/2+z
-x,1/2-y,1/2+z
1/2-x,1/2+y,1/2+z
1/2+x,1/2-y,1/2+z
loop_
_atom_site_type_symbol
_atom_site_label
_atom_site_fract_x
_atom_site_fract_y
_atom_site_fract_z
Si Si1 0.088731 0.017848 0.509510
Si Si2 0.932198 0.248765 0.795643
Si Si3 0.900866 0.193003 0.252510
Si Si4 0.571343 0.069430 0.952879
Si Si5 0.839422 0.973935 0.328215
Si Si6 0.163990 0.103474 0.839796
Si Si7 0.660394 0.247993 0.062410
Si Si8 0.162462 0.424251 0.183264
O O1 0.135417 0.980290 0.424237
O O2 0.115431 0.145244 0.525506
O O3 0.117859 0.951714 0.594552
O O4 0.000000 0.000000 0.497127
O O5 0.949741 0.162946 0.877467
O O6 0.882524 0.356258 0.820294
O O7 0.880433 0.175890 0.731024
O O8 0.010082 0.290079 0.753456
O O9 0.871086 0.275104 0.329540
O O10 0.859427 0.239252 0.165701
O O11 0.874141 0.066191 0.262819
O O12 0.500000 0.000000 0.987780
O O13 0.621011 0.974315 0.908066
O O14 0.623441 0.138605 0.019271
O O15 0.750000 0.963233 0.320036
O O16 0.250000 0.113080 0.862787
O O17 0.158325 0.032098 0.747912
O O18 0.750000 0.257466 0.047202
O O19 0.250000 0.401444 0.168566
#
# Coordination Sequence:
#
# PCOD9365668 Si02
#       8
#     8   8   8   8   8   8   8   8
#     4  12  24  40  65  99 132 174 225 281 334 396
#     4  11  23  42  67  95 134 173 222 276 337 398
#     4  12  24  43  66  97 133 177 220 270 334 405
#     4  11  23  40  67  98 130 168 222 282 335 392
#     4  12  26  44  67  95 134 178 222 271 335 406
#     4  10  20  37  63  94 127 164 215 269 326 389
#     4  12  25  44  69  97 135 180 228 274 334 411
#     4  10  21  37  64  97 128 166 220 278 330 385
#
# _framework density 9.8765429999999999
#
# number of rings (size 3 to 8) (size 9 to 14) (size 15 to 20)
#    0.000    0.750    3.750    4.875    0.000    2.000 
#    0.000    1.250    0.000    0.000    0.000    0.000 
#    0.000    0.000    0.000    0.000    0.000    0.000 
#
# Total GULP energy -178673.348231 kJ/mol
# GULP energy per Si atom -5583.542132 kJ/mol
# Density = 0.985406 g / cm^3
# Si number density = 9.876543 Si / 1000 Ang^3
#
#
#
# Elastic Constant Matrix: (Units=GPa)
#
#
# Indices 1 2 3 4 5 6 
#
# 1 159.8431 56.5947 11.1103 0.0000 0.0000 0.0000
# 2 56.5947 117.4482 27.5852 0.0000 0.0000 0.0000
# 3 11.1103 27.5852 32.8475 0.0000 0.0000 0.0000
# 4 0.0000 0.0000 0.0000 22.5891 0.0000 0.0000
# 5 0.0000 0.0000 0.0000 0.0000 469.3454 0.0000
# 6 0.0000 0.0000 0.0000 0.0000 0.0000 28.9531
#
#
#
# Elastic Compliance Matrix: (Units=1/GPa)
#
#
# Indices 1 2 3 4 5 6 
#
# 1 0.007553 -0.003787 0.000625 0.000000 0.000000 0.000000
# 2 -0.003787 0.012505 -0.009221 0.000000 0.000000 0.000000
# 3 0.000625 -0.009221 0.037976 0.000000 0.000000 0.000000
# 4 0.000000 0.000000 0.000000 0.044269 0.000000 0.000000
# 5 0.000000 0.000000 0.000000 0.000000 0.002131 0.000000
# 6 0.000000 0.000000 0.000000 0.000000 0.000000 0.034539
#
#
# Mechanical properties :
#
#
# Convention : Reuss Voigt Hill
#
# Bulk Modulus (GPa) = 30.05743 55.63546 42.84644
# Shear Modulus (GPa) = 28.59983 118.50076 73.55030
#
# Velocity S-wave (km/s) = 3.80921 7.75379 6.10866
# Velocity P-wave (km/s) = 5.88187 10.41097 8.45531
#
# Compressibility (1/GPa) = 0.03326965
#
# Stress axis : x y z
#
# Youngs Moduli (GPa) = 132.39126 79.97013 26.33260
#
# Poissons Ratio (x) = 0.30281 -0.01646
# Poissons Ratio (y) = 0.50131 0.24280
# Poissons Ratio (z) = -0.08276 0.73737
#
# Static dielectric constant tensor:
#      x y z
#    x 1.454400 0.000000 0.000000 
#    y 0.000000 1.701250 0.000000 
#    z 0.000000 0.000000 1.819510 
# 
# From -- ./inp_files/17896.got.cif
#   From: 2010.05.17/outbox.ucp.g08.bks.cvg/sg40_9_cif.got.tgz:17896.got - 2010.06.11 16:26:39.
