data_PCOD9365057
_publ_section_title
;
Structure prediction by ZEFSAII (Michael W. Deem and Ramdas Pophale) SiO2 
 PCOD9365057
Probable space group: A M A 2
;
_chemical_formula_sum "Si O2"
_cell_formula_units_Z 56
_cell_length_a 22.526770
_cell_length_b 11.906811
_cell_length_c 9.873614
_cell_angle_alpha 90.000000
_cell_angle_beta 90.000000
_cell_angle_gamma 90.000000
_cell_volume 2648.320424
_symmetry_space_group_name_H-M "A M A 2"
_symmetry_group_IT_number 40
_symmetry_cell_setting 'orthorhombic'
loop_
_space_group_symop_operation_xyz
x,y,z
-x,-y,z
1/2-x,y,z
1/2+x,-y,z
x,1/2+y,1/2+z
-x,1/2-y,1/2+z
1/2-x,1/2+y,1/2+z
1/2+x,1/2-y,1/2+z
loop_
_atom_site_type_symbol
_atom_site_label
_atom_site_fract_x
_atom_site_fract_y
_atom_site_fract_z
Si Si1 0.062782 0.653016 0.656040
Si Si2 0.061842 0.471197 0.412846
Si Si3 0.065785 0.546041 0.935213
Si Si4 0.853430 0.158055 0.528794
Si Si5 0.313496 0.496338 0.262128
Si Si6 0.314381 0.259731 0.742058
Si Si7 0.435976 0.268138 0.597574
O O1 0.060856 0.554364 0.543190
O O2 0.085962 0.603994 0.796277
O O3 0.104276 0.750410 0.598497
O O4 0.995974 0.700771 0.677367
O O5 0.124276 0.485427 0.339677
O O6 0.059051 0.343818 0.463404
O O7 0.000000 0.500000 0.336286
O O8 0.000000 0.500000 0.913326
O O9 0.106456 0.441731 0.970216
O O10 0.065229 0.639137 0.053018
O O11 0.815373 0.094521 0.642162
O O12 0.820700 0.215668 0.402231
O O13 0.250000 0.480541 0.337255
O O14 0.313269 0.626036 0.215592
O O15 0.250000 0.305669 0.696040
O O16 0.374969 0.300940 0.672073
#
# Coordination Sequence:
#
# PCOD9365057 Si02
#       7
#     8   8   8   8   8   8   8
#     4  11  23  40  67  99 136 174 220 279 340 397
#     4  10  22  42  66  99 133 174 225 281 334 403
#     4  12  23  40  64 101 136 172 215 276 338 398
#     4  12  23  43  69  97 134 175 223 274 337 398
#     4  11  24  42  66  96 134 176 224 276 335 407
#     4  11  24  43  66  90 132 181 222 274 337 402
#     4  11  23  41  66  96 133 174 218 280 337 399
#
# _framework density 21.145478000000001
#
# number of rings (size 3 to 8) (size 9 to 14) (size 15 to 20)
#    0.000    0.857    4.286    4.286    0.000    2.286 
#    0.000    0.000    0.000    4.286    0.000    0.000 
#    0.000    0.000    0.000    0.000    0.000    0.000 
#
# Total GULP energy -156469.163686 kJ/mol
# GULP energy per Si atom -5588.184417 kJ/mol
# Density = 2.109735 g / cm^3
# Si number density = 21.145478 Si / 1000 Ang^3
#
#
#
# Elastic Constant Matrix: (Units=GPa)
#
#
# Indices 1 2 3 4 5 6 
#
# 1 134.6053 26.6965 32.3751 0.0000 0.0000 0.0000
# 2 26.6965 100.6941 19.1935 0.0000 0.0000 0.0000
# 3 32.3751 19.1935 56.4201 0.0000 0.0000 0.0000
# 4 0.0000 0.0000 0.0000 36.2126 0.0000 0.0000
# 5 0.0000 0.0000 0.0000 0.0000 3.1397 0.0000
# 6 0.0000 0.0000 0.0000 0.0000 0.0000 1.3702
#
#
#
# Elastic Compliance Matrix: (Units=1/GPa)
#
#
# Indices 1 2 3 4 5 6 
#
# 1 0.008817 -0.001468 -0.004560 0.000000 0.000000 0.000000
# 2 -0.001468 0.010864 -0.002853 0.000000 0.000000 0.000000
# 3 -0.004560 -0.002853 0.021311 0.000000 0.000000 0.000000
# 4 0.000000 0.000000 0.000000 0.027615 0.000000 0.000000
# 5 0.000000 0.000000 0.000000 0.000000 0.318501 0.000000
# 6 0.000000 0.000000 0.000000 0.000000 0.000000 0.729817
#
#
# Mechanical properties :
#
#
# Convention : Reuss Voigt Hill
#
# Bulk Modulus (GPa) = 43.04868 49.80553 46.42710
# Shear Modulus (GPa) = 4.37663 22.37479 13.37571
#
# Velocity S-wave (km/s) = 1.44023 3.25643 2.51780
# Velocity P-wave (km/s) = 4.81334 6.14361 5.51870
#
# Compressibility (1/GPa) = 0.02322952
#
# Stress axis : x y z
#
# Youngs Moduli (GPa) = 113.41576 92.04492 46.92320
#
# Poissons Ratio (x) = 0.13516 0.21397
# Poissons Ratio (y) = 0.16655 0.13388
# Poissons Ratio (z) = 0.51717 0.26263
#
# Static dielectric constant tensor:
#      x y z
#    x 1.800590 0.000000 0.000000 
#    y 0.000000 1.733510 0.000000 
#    z 0.000000 0.000000 1.786510 
# 
# From -- ./inp_files/13572.got.cif
#   From: 2010.05.17/outbox.cif.g08.bks.cpg/sg40_7_cif.got.tgz:13572.got - 2010.06.03 18:35:42.
