data_PCOD9365113
_publ_section_title
;
Structure prediction by ZEFSAII (Michael W. Deem and Ramdas Pophale) SiO2 
 PCOD9365113
Probable space group: A M A 2
;
_chemical_formula_sum "Si O2"
_cell_formula_units_Z 56
_cell_length_a 8.019952
_cell_length_b 17.245220
_cell_length_c 17.747617
_cell_angle_alpha 90.000000
_cell_angle_beta 90.000000
_cell_angle_gamma 90.000000
_cell_volume 2454.599017
_symmetry_space_group_name_H-M "A M A 2"
_symmetry_group_IT_number 40
_symmetry_cell_setting 'orthorhombic'
loop_
_space_group_symop_operation_xyz
x,y,z
-x,-y,z
1/2-x,y,z
1/2+x,-y,z
x,1/2+y,1/2+z
-x,1/2-y,1/2+z
1/2-x,1/2+y,1/2+z
1/2+x,1/2-y,1/2+z
loop_
_atom_site_type_symbol
_atom_site_label
_atom_site_fract_x
_atom_site_fract_y
_atom_site_fract_z
Si Si1 0.445871 0.410864 0.486480
Si Si2 0.551171 0.654737 0.890523
Si Si3 0.500000 0.500000 0.167317
Si Si4 0.445783 0.200690 0.117786
Si Si5 0.559014 0.181158 0.833274
Si Si6 0.441456 0.358892 0.057665
Si Si7 0.750000 0.385169 0.249677
Si Si8 0.050556 0.083383 0.240479
O O1 0.500000 0.500000 0.493164
O O2 0.250000 0.404844 0.503579
O O3 0.538692 0.354033 0.544381
O O4 0.469835 0.380212 0.401292
O O5 0.750000 0.669223 0.890874
O O6 0.456199 0.733711 0.869477
O O7 0.515102 0.594270 0.824589
O O8 0.492640 0.628156 0.973481
O O9 0.439576 0.433690 0.109512
O O10 0.612176 0.449526 0.221679
O O11 0.250000 0.211473 0.136060
O O12 0.523294 0.284426 0.098401
O O13 0.517027 0.152267 0.187578
O O14 0.750000 0.170819 0.803513
O O15 0.402987 0.171371 0.778163
O O16 0.250000 0.335445 0.045990
O O17 0.250000 0.087111 0.241954
O O18 0.000000 0.000000 0.208728
#
# Coordination Sequence:
#
# PCOD9365113 Si02
#       8
#     8   8   4   8   8   8   4   8
#     4  11  24  39  65 102 143 191 241 296 368 448
#     4  11  23  45  77 109 146 196 255 317 384 458
#     4  12  28  52  70 112 154 204 264 318 390 468
#     4  10  22  43  72  98 138 191 238 305 372 445
#     4  11  26  46  73 112 153 199 257 320 381 463
#     4  10  23  47  75 105 148 195 251 317 380 452
#     4  12  30  48  76 108 154 204 258 318 396 458
#     4  11  25  44  67 105 145 193 245 311 380 442
#
# _framework density 22.814316000000002
#
# number of rings (size 3 to 8) (size 9 to 14) (size 15 to 20)
#    0.000    1.143    2.857    1.714    7.000    2.286 
#    3.857    0.000    0.000    0.000    0.000    0.000 
#    0.000    0.000    0.000    0.000    0.000    0.000 
#
# Total GULP energy -155955.834132 kJ/mol
# GULP energy per Si atom -5569.851219 kJ/mol
# Density = 2.276239 g / cm^3
# Si number density = 22.814316 Si / 1000 Ang^3
#
#
#
# Elastic Constant Matrix: (Units=GPa)
#
#
# Indices 1 2 3 4 5 6 
#
# 1 77.3603 -0.8652 21.1500 0.0000 0.0000 0.0000
# 2 -0.8652 97.7820 20.4519 0.0000 0.0000 0.0000
# 3 21.1500 20.4519 58.1765 0.0000 0.0000 0.0000
# 4 0.0000 0.0000 0.0000 35.5913 0.0000 0.0000
# 5 0.0000 0.0000 0.0000 0.0000 5.0553 0.0000
# 6 0.0000 0.0000 0.0000 0.0000 0.0000 43.7376
#
#
#
# Elastic Compliance Matrix: (Units=1/GPa)
#
#
# Indices 1 2 3 4 5 6 
#
# 1 0.014512 0.001330 -0.005743 0.000000 0.000000 0.000000
# 2 0.001330 0.011160 -0.004407 0.000000 0.000000 0.000000
# 3 -0.005743 -0.004407 0.020826 0.000000 0.000000 0.000000
# 4 0.000000 0.000000 0.000000 0.028097 0.000000 0.000000
# 5 0.000000 0.000000 0.000000 0.000000 0.197813 0.000000
# 6 0.000000 0.000000 0.000000 0.000000 0.000000 0.022864
#
#
# Mechanical properties :
#
#
# Convention : Reuss Voigt Hill
#
# Bulk Modulus (GPa) = 34.65302 34.97692 34.81497
# Shear Modulus (GPa) = 15.50237 29.71563 22.60900
#
# Velocity S-wave (km/s) = 2.60955 3.61293 3.15143
# Velocity P-wave (km/s) = 4.92969 5.72440 5.34184
#
# Compressibility (1/GPa) = 0.02885751
#
# Stress axis : x y z
#
# Youngs Moduli (GPa) = 68.91072 89.60320 48.01658
#
# Poissons Ratio (x) = -0.11914 0.27576
# Poissons Ratio (y) = -0.09162 0.21160
# Poissons Ratio (z) = 0.39576 0.39486
#
# Static dielectric constant tensor:
#      x y z
#    x 1.842090 0.000000 0.000000 
#    y 0.000000 1.818160 0.000000 
#    z 0.000000 0.000000 1.886510 
# 
# From -- ./inp_files/19423.got.cif
#   From: 2010.05.17/outbox.cif.g08.bks.cpg/sg40_10_cif.got.tgz:19423.got - 2010.06.03 18:35:42.
