data_PCOD9365939
_publ_section_title
;
Structure prediction by ZEFSAII (Michael W. Deem and Ramdas Pophale) SiO2 
 PCOD9365939
Probable space group: A B A 2
;
_chemical_formula_sum "Si O2"
_cell_formula_units_Z 36
_cell_length_a 12.735408
_cell_length_b 18.643304
_cell_length_c 5.424778
_cell_angle_alpha 90.000000
_cell_angle_beta 90.000000
_cell_angle_gamma 90.000000
_cell_volume 1288.005490
_symmetry_space_group_name_H-M "A B A 2"
_symmetry_group_IT_number 41
_symmetry_cell_setting 'orthorhombic'
loop_
_space_group_symop_operation_xyz
x,y,z
-x,-y,z
1/2-x,y,1/2+z
1/2+x,-y,1/2+z
x,1/2+y,1/2+z
-x,1/2-y,1/2+z
1/2-x,1/2+y,z
1/2+x,1/2-y,z
loop_
_atom_site_type_symbol
_atom_site_label
_atom_site_fract_x
_atom_site_fract_y
_atom_site_fract_z
Si Si1 0.294867 0.997401 0.870970
Si Si2 0.459852 0.350444 0.846825
Si Si3 0.500000 0.000000 0.546591
Si Si4 0.802451 0.332008 0.872323
Si Si5 0.553518 0.198525 0.845671
O O1 0.215342 0.971210 0.653701
O O2 0.403995 0.987982 0.731045
O O3 0.279782 0.083093 0.889157
O O4 0.510153 0.428439 0.881540
O O5 0.543739 0.284358 0.849189
O O6 0.398122 0.332375 0.096908
O O7 0.401961 0.335676 0.592268
O O8 0.748565 0.302532 0.624054
O O9 0.928942 0.325055 0.851701
#
# Coordination Sequence:
#
# PCOD9365939 Si02
#       5
#     8   8   4   8   8
#     4  10  24  40  61  96 131 170 223 271 321 405
#     4  10  23  36  64  87 125 162 218 250 327 390
#     4  12  24  44  70  98 132 186 212 278 340 388
#     4  10  19  34  61  87 120 166 214 265 317 380
#     4  10  20  41  55  92 122 159 211 271 305 392
#
# _framework density 27.950189999999999
#
# number of rings (size 3 to 8) (size 9 to 14) (size 15 to 20)
#    0.000    1.778    2.222    1.333    6.222    3.556 
#    0.000    2.222    0.000    0.000    0.000    0.000 
#    0.000    0.000    0.000    0.000    0.000    0.000 
#
# Total GULP energy -100747.843820 kJ/mol
# GULP energy per Si atom -5597.102434 kJ/mol
# Density = 2.788657 g / cm^3
# Si number density = 27.950190 Si / 1000 Ang^3
#
#
#
# Elastic Constant Matrix: (Units=GPa)
#
#
# Indices 1 2 3 4 5 6 
#
# 1 80.8487 5.7340 -3.1616 0.0000 0.0000 0.0000
# 2 5.7340 171.9912 23.8464 0.0000 0.0000 0.0000
# 3 -3.1616 23.8464 215.4113 0.0000 0.0000 0.0000
# 4 0.0000 0.0000 0.0000 9.1417 0.0000 0.0000
# 5 0.0000 0.0000 0.0000 0.0000 17.7557 0.0000
# 6 0.0000 0.0000 0.0000 0.0000 0.0000 31.4361
#
#
#
# Elastic Compliance Matrix: (Units=1/GPa)
#
#
# Indices 1 2 3 4 5 6 
#
# 1 0.012409 -0.000446 0.000231 0.000000 0.000000 0.000000
# 2 -0.000446 0.005921 -0.000662 0.000000 0.000000 0.000000
# 3 0.000231 -0.000662 0.004719 0.000000 0.000000 0.000000
# 4 0.000000 0.000000 0.000000 0.109389 0.000000 0.000000
# 5 0.000000 0.000000 0.000000 0.000000 0.056320 0.000000
# 6 0.000000 0.000000 0.000000 0.000000 0.000000 0.031811
#
#
# Mechanical properties :
#
#
# Convention : Reuss Voigt Hill
#
# Bulk Modulus (GPa) = 46.95568 57.89875 52.42721
# Shear Modulus (GPa) = 21.79404 41.12219 31.45811
#
# Velocity S-wave (km/s) = 2.79542 3.83987 3.35850
# Velocity P-wave (km/s) = 5.22067 6.35763 5.81699
#
# Compressibility (1/GPa) = 0.02129668
#
# Stress axis : x y z
#
# Youngs Moduli (GPa) = 80.58373 168.89331 211.91092
#
# Poissons Ratio (x) = 0.07529 -0.04905
# Poissons Ratio (y) = 0.03593 0.14028
# Poissons Ratio (z) = -0.01865 0.11181
#
# Static dielectric constant tensor:
#      x y z
#    x 2.184980 0.000000 0.000000 
#    y 0.000000 2.168200 0.000000 
#    z 0.000000 0.000000 2.323450 
# 
# From -- ./inp_files/208.got.cif
#   From: 2010.05.17/outbox.cif.g08.bks.cpg/sg41_1_cif.got.tgz:208.got - 2010.06.03 18:54:24.
