data_PCOD9365994
_publ_section_title
;
Structure prediction by ZEFSAII (Michael W. Deem and Ramdas Pophale) SiO2 
 PCOD9365994
Probable space group: A B A 2
;
_chemical_formula_sum "Si O2"
_cell_formula_units_Z 52
_cell_length_a 7.269681
_cell_length_b 21.981843
_cell_length_c 14.682173
_cell_angle_alpha 90.000000
_cell_angle_beta 90.000000
_cell_angle_gamma 90.000000
_cell_volume 2346.225728
_symmetry_space_group_name_H-M "A B A 2"
_symmetry_group_IT_number 41
_symmetry_cell_setting 'orthorhombic'
loop_
_space_group_symop_operation_xyz
x,y,z
-x,-y,z
1/2-x,y,1/2+z
1/2+x,-y,1/2+z
x,1/2+y,1/2+z
-x,1/2-y,1/2+z
1/2-x,1/2+y,z
1/2+x,1/2-y,z
loop_
_atom_site_type_symbol
_atom_site_label
_atom_site_fract_x
_atom_site_fract_y
_atom_site_fract_z
Si Si1 0.697237 0.806004 0.863280
Si Si2 0.155169 0.808904 0.590747
Si Si3 0.000000 0.000000 0.240406
Si Si4 0.276161 0.671474 0.063340
Si Si5 0.233952 0.096830 0.723988
Si Si6 0.268701 0.331446 0.390400
Si Si7 0.183453 0.910214 0.729526
O O1 0.783803 0.839910 0.777932
O O2 0.693205 0.733353 0.855398
O O3 0.487537 0.827033 0.874141
O O4 0.806594 0.825787 0.954911
O O5 0.156111 0.736379 0.600965
O O6 0.262368 0.828399 0.499114
O O7 0.224236 0.848083 0.674726
O O8 0.944316 0.826540 0.574434
O O9 0.129842 0.053224 0.280933
O O10 0.832368 0.039937 0.199095
O O11 0.326702 0.614578 0.127058
O O12 0.028300 0.071810 0.712855
O O13 0.201497 0.390050 0.335181
#
# Coordination Sequence:
#
# PCOD9365994 Si02
#       7
#     8   8   4   8   8   8   8
#     4  10  19  36  61  96 129 157 193 250 308 365
#     4   9  20  35  61  94 128 154 192 249 307 365
#     4  12  26  44  64  82 120 166 214 254 292 354
#     4   9  20  35  61  94 128 154 192 249 307 365
#     4  11  23  42  64  87 122 161 208 249 302 356
#     4  10  19  36  61  96 129 157 193 250 308 365
#     4  11  23  42  64  87 122 161 208 249 302 356
#
# _framework density 22.163257000000002
#
# number of rings (size 3 to 8) (size 9 to 14) (size 15 to 20)
#    0.000    1.846    1.538    2.308    2.154    3.692 
#    0.000    1.538    0.000    0.000    0.000    0.000 
#    0.000    0.000    0.000    0.000    0.000    0.000 
#
# Total GULP energy -144997.853011 kJ/mol
# GULP energy per Si atom -5576.840500 kJ/mol
# Density = 2.211281 g / cm^3
# Si number density = 22.163257 Si / 1000 Ang^3
#
#
#
# Elastic Constant Matrix: (Units=GPa)
#
#
# Indices 1 2 3 4 5 6 
#
# 1 85.6563 14.2644 6.0402 0.0000 0.0000 0.0000
# 2 14.2644 61.4916 29.2223 0.0000 0.0000 0.0000
# 3 6.0402 29.2223 62.5478 0.0000 0.0000 0.0000
# 4 0.0000 0.0000 0.0000 -0.3211 0.0000 0.0000
# 5 0.0000 0.0000 0.0000 0.0000 18.4124 0.0000
# 6 0.0000 0.0000 0.0000 0.0000 0.0000 39.4939
#
#
#
# Elastic Compliance Matrix: (Units=1/GPa)
#
#
# Indices 1 2 3 4 5 6 
#
# 1 0.012145 -0.002905 0.000184 0.000000 0.000000 0.000000
# 2 -0.002905 0.021598 -0.009810 0.000000 0.000000 0.000000
# 3 0.000184 -0.009810 0.020553 0.000000 0.000000 0.000000
# 4 0.000000 0.000000 0.000000 -3.114305 0.000000 0.000000
# 5 0.000000 0.000000 0.000000 0.000000 0.054311 0.000000
# 6 0.000000 0.000000 0.000000 0.000000 0.000000 0.025320
#
#
# Mechanical properties :
#
#
# Convention : Reuss Voigt Hill
#
# Bulk Modulus (GPa) = 34.20526 34.30548 34.25537
# Shear Modulus (GPa) = -1.69746 22.19498 10.24876
#
# Velocity S-wave (km/s) = -0.87610 3.16797 2.15273
# Velocity P-wave (km/s) = 3.80045 5.37527 4.65494
#
# Compressibility (1/GPa) = 0.02923527
#
# Stress axis : x y z
#
# Youngs Moduli (GPa) = 82.33620 46.30001 48.65405
#
# Poissons Ratio (x) = 0.13450 -0.00897
# Poissons Ratio (y) = 0.23919 0.47730
# Poissons Ratio (z) = -0.01518 0.45421
#
# Static dielectric constant tensor:
#      x y z
#    x 1.866370 0.000000 0.000000 
#    y 0.000000 1.823200 0.000000 
#    z 0.000000 0.000000 1.856680 
# 
# From -- ./inp_files/7403.got.cif
#   From: 2010.05.17/outbox.cif.g08.bks.cpg/sg41_4_cif.got.tgz:7403.got - 2010.06.03 18:54:24.
