data_PCOD9365707
_publ_section_title
;
Structure prediction by ZEFSAII (Michael W. Deem and Ramdas Pophale) SiO2 
 PCOD9365707
Probable space group: A B A 2
;
_chemical_formula_sum "Si O2"
_cell_formula_units_Z 64
_cell_length_a 5.329487
_cell_length_b 34.389946
_cell_length_c 13.514359
_cell_angle_alpha 90.000000
_cell_angle_beta 90.000000
_cell_angle_gamma 90.000000
_cell_volume 2476.922125
_symmetry_space_group_name_H-M "A B A 2"
_symmetry_group_IT_number 41
_symmetry_cell_setting 'orthorhombic'
loop_
_space_group_symop_operation_xyz
x,y,z
-x,-y,z
1/2-x,y,1/2+z
1/2+x,-y,1/2+z
x,1/2+y,1/2+z
-x,1/2-y,1/2+z
1/2-x,1/2+y,z
1/2+x,1/2-y,z
loop_
_atom_site_type_symbol
_atom_site_label
_atom_site_fract_x
_atom_site_fract_y
_atom_site_fract_z
Si Si1 0.177725 0.232891 0.722990
Si Si2 0.791588 0.386755 0.570497
Si Si3 0.981897 0.043918 0.837347
Si Si4 0.159205 0.648941 0.785304
Si Si5 0.842365 0.237052 0.999674
Si Si6 0.203303 0.349221 0.058541
Si Si7 0.845402 0.624371 0.281920
Si Si8 0.520431 0.955970 0.968078
O O1 0.387221 0.264577 0.754205
O O2 0.315769 0.192881 0.749540
O O3 0.154899 0.238681 0.603476
O O4 0.820516 0.378561 0.687761
O O5 0.588288 0.355321 0.531863
O O6 0.638046 0.426020 0.546878
O O7 0.078278 0.380831 0.535102
O O8 0.893460 0.078756 0.766647
O O9 0.757412 0.047648 0.919451
O O10 0.261070 0.048797 0.883652
O O11 0.000000 0.000000 0.796812
O O12 0.414934 0.639665 0.840244
O O13 0.907554 0.635625 0.837380
O O14 0.599807 0.253617 0.946006
O O15 0.805326 0.192218 0.024961
O O16 0.182719 0.352535 0.178845
O O17 0.500000 0.000000 0.007573
#
# Coordination Sequence:
#
# PCOD9365707 Si02
#       8
#     8   8   8   8   8   8   8   8
#     4  10  16  25  41  66 105 136 162 194 233 295
#     4  10  18  32  50  71 104 133 158 205 257 300
#     4  10  21  37  56  75  96 128 173 217 251 292
#     4  10  19  30  48  78 109 133 160 201 254 310
#     4  10  16  25  41  66 105 136 162 194 233 295
#     4  10  19  30  48  78 109 133 160 201 254 310
#     4  10  18  32  50  71 104 133 158 205 257 300
#     4  10  21  37  56  75  96 128 173 217 251 292
#
# _framework density 25.838521
#
# number of rings (size 3 to 8) (size 9 to 14) (size 15 to 20)
#    0.000    2.000    0.000    9.000    0.000    0.000 
#    0.000    2.500    0.000    6.000    0.000    0.000 
#    0.000  244.000    0.000    0.000    0.000    0.000 
#
# Total GULP energy -178685.457917 kJ/mol
# GULP energy per Si atom -5583.920560 kJ/mol
# Density = 2.577971 g / cm^3
# Si number density = 25.838521 Si / 1000 Ang^3
#
#
#
# Elastic Constant Matrix: (Units=GPa)
#
#
# Indices 1 2 3 4 5 6 
#
# 1 245.5367 33.0858 -1.0105 0.0000 0.0000 0.0000
# 2 33.0858 161.0711 -6.3900 0.0000 0.0000 0.0000
# 3 -1.0105 -6.3900 44.2499 0.0000 0.0000 0.0000
# 4 0.0000 0.0000 0.0000 109.5471 0.0000 0.0000
# 5 0.0000 0.0000 0.0000 0.0000 19.1900 0.0000
# 6 0.0000 0.0000 0.0000 0.0000 0.0000 46.1884
#
#
#
# Elastic Compliance Matrix: (Units=1/GPa)
#
#
# Indices 1 2 3 4 5 6 
#
# 1 0.004189 -0.000862 -0.000029 0.000000 0.000000 0.000000
# 2 -0.000862 0.006421 0.000908 0.000000 0.000000 0.000000
# 3 -0.000029 0.000908 0.022729 0.000000 0.000000 0.000000
# 4 0.000000 0.000000 0.000000 0.009128 0.000000 0.000000
# 5 0.000000 0.000000 0.000000 0.000000 0.052110 0.000000
# 6 0.000000 0.000000 0.000000 0.000000 0.000000 0.021650
#
#
# Mechanical properties :
#
#
# Convention : Reuss Voigt Hill
#
# Bulk Modulus (GPa) = 29.96336 55.80313 42.88324
# Shear Modulus (GPa) = 39.27149 63.32995 51.30072
#
# Velocity S-wave (km/s) = 3.90280 4.95612 4.46066
# Velocity P-wave (km/s) = 5.65072 7.37527 6.56983
#
# Compressibility (1/GPa) = 0.03337410
#
# Stress axis : x y z
#
# Youngs Moduli (GPa) = 238.73849 155.72890 43.99599
#
# Poissons Ratio (x) = 0.13417 0.00127
# Poissons Ratio (y) = 0.20568 -0.03993
# Poissons Ratio (z) = 0.00687 -0.14134
#
# Static dielectric constant tensor:
#      x y z
#    x 2.191350 0.000000 0.000000 
#    y 0.000000 2.021280 0.000000 
#    z 0.000000 0.000000 2.086510 
# 
# From -- ./inp_files/9517.got.cif
#   From: 2010.05.17/outbox.cif.g08.bks.cpg/sg41_5_cif.got.tgz:9517.got - 2010.06.03 18:54:24.
