data_PCOD9365767
_publ_section_title
;
Structure prediction by ZEFSAII (Michael W. Deem and Ramdas Pophale) SiO2 
 PCOD9365767
Probable space group: A B A 2
;
_chemical_formula_sum "Si O2"
_cell_formula_units_Z 52
_cell_length_a 17.328017
_cell_length_b 29.502724
_cell_length_c 5.146477
_cell_angle_alpha 90.000000
_cell_angle_beta 90.000000
_cell_angle_gamma 90.000000
_cell_volume 2631.001029
_symmetry_space_group_name_H-M "A B A 2"
_symmetry_group_IT_number 41
_symmetry_cell_setting 'orthorhombic'
loop_
_space_group_symop_operation_xyz
x,y,z
-x,-y,z
1/2-x,y,1/2+z
1/2+x,-y,1/2+z
x,1/2+y,1/2+z
-x,1/2-y,1/2+z
1/2-x,1/2+y,z
1/2+x,1/2-y,z
loop_
_atom_site_type_symbol
_atom_site_label
_atom_site_fract_x
_atom_site_fract_y
_atom_site_fract_z
Si Si1 0.657097 0.503850 0.050060
Si Si2 0.556295 0.651109 0.572464
Si Si3 0.794707 0.903941 0.977526
Si Si4 0.447347 0.150785 0.572607
Si Si5 0.500000 0.000000 0.800573
Si Si6 0.874901 0.057732 0.534275
Si Si7 0.449541 0.250054 0.479006
O O1 0.704022 0.458717 0.994242
O O2 0.571179 0.485441 0.123396
O O3 0.674383 0.535029 0.301832
O O4 0.649696 0.535774 0.802773
O O5 0.492139 0.646967 0.344766
O O6 0.618564 0.611463 0.539928
O O7 0.589659 0.702024 0.542683
O O8 0.511558 0.645761 0.845669
O O9 0.733895 0.889142 0.195829
O O10 0.878338 0.884223 0.040504
O O11 0.412447 0.201629 0.540266
O O12 0.462121 0.960552 0.972536
O O13 0.477569 0.249853 0.180306
#
# Coordination Sequence:
#
# PCOD9365767 Si02
#       7
#     8   8   8   8   4   8   8
#     4  10  21  33  47  71 101 129 170 210 252 298
#     4  10  18  30  53  81 107 132 160 204 273 332
#     4  12  25  38  52  72 101 146 187 210 246 301
#     4  10  20  33  51  72 106 139 168 214 251 313
#     4   8  20  28  50  72 102 132 154 212 260 314
#     4  10  19  28  47  74 102 129 160 202 258 314
#     4   8  16  30  47  74 104 132 156 191 260 312
#
# _framework density 19.764341000000002
#
# number of rings (size 3 to 8) (size 9 to 14) (size 15 to 20)
#    0.923    1.231    0.000    4.154    4.308    0.000 
#    0.000    0.000    0.000    0.000    0.000    6.462 
#    0.000    0.000    0.000    0.000    0.000    0.000 
#
# Total GULP energy -144916.031183 kJ/mol
# GULP energy per Si atom -5573.693507 kJ/mol
# Density = 1.971936 g / cm^3
# Si number density = 19.764341 Si / 1000 Ang^3
#
#
#
# Elastic Constant Matrix: (Units=GPa)
#
#
# Indices 1 2 3 4 5 6 
#
# 1 30.5261 12.1038 0.2667 0.0000 0.0000 0.0000
# 2 12.1038 141.7889 21.9207 0.0000 0.0000 0.0000
# 3 0.2667 21.9207 88.4835 0.0000 0.0000 0.0000
# 4 0.0000 0.0000 0.0000 17.7340 0.0000 0.0000
# 5 0.0000 0.0000 0.0000 0.0000 7.2092 0.0000
# 6 0.0000 0.0000 0.0000 0.0000 0.0000 21.1024
#
#
#
# Elastic Compliance Matrix: (Units=1/GPa)
#
#
# Indices 1 2 3 4 5 6 
#
# 1 0.033941 -0.002996 0.000640 0.000000 0.000000 0.000000
# 2 -0.002996 0.007598 -0.001873 0.000000 0.000000 0.000000
# 3 0.000640 -0.001873 0.011764 0.000000 0.000000 0.000000
# 4 0.000000 0.000000 0.000000 0.056389 0.000000 0.000000
# 5 0.000000 0.000000 0.000000 0.000000 0.138711 0.000000
# 6 0.000000 0.000000 0.000000 0.000000 0.000000 0.047388
#
#
# Mechanical properties :
#
#
# Convention : Reuss Voigt Hill
#
# Bulk Modulus (GPa) = 22.29960 36.59787 29.44874
# Shear Modulus (GPa) = 15.66427 24.30963 19.98695
#
# Velocity S-wave (km/s) = 2.81828 3.51090 3.18349
# Velocity P-wave (km/s) = 4.67948 5.91545 5.33339
#
# Compressibility (1/GPa) = 0.04484385
#
# Stress axis : x y z
#
# Youngs Moduli (GPa) = 29.46266 131.61128 85.00723
#
# Poissons Ratio (x) = 0.39435 -0.05441
# Poissons Ratio (y) = 0.08828 0.15925
# Poissons Ratio (z) = -0.01886 0.24655
#
# Static dielectric constant tensor:
#      x y z
#    x 1.686990 0.000000 0.000000 
#    y 0.000000 1.738540 0.000000 
#    z 0.000000 0.000000 1.696690 
# 
# From -- ./inp_files/561.got.cif
#   From: 2010.05.17/outbox.cif.g08.bks.cpg/sg41_1_cif.got.tgz:561.got - 2010.06.03 18:54:24.
