data_PCOD9365964
_publ_section_title
;
Structure prediction by ZEFSAII (Michael W. Deem and Ramdas Pophale) SiO2 
 PCOD9365964
Probable space group: A B A 2
;
_chemical_formula_sum "Si O2"
_cell_formula_units_Z 64
_cell_length_a 17.859739
_cell_length_b 9.590937
_cell_length_c 20.956384
_cell_angle_alpha 90.000000
_cell_angle_beta 90.000000
_cell_angle_gamma 90.000000
_cell_volume 3589.653207
_symmetry_space_group_name_H-M "A B A 2"
_symmetry_group_IT_number 41
_symmetry_cell_setting 'orthorhombic'
loop_
_space_group_symop_operation_xyz
x,y,z
-x,-y,z
1/2-x,y,1/2+z
1/2+x,-y,1/2+z
x,1/2+y,1/2+z
-x,1/2-y,1/2+z
1/2-x,1/2+y,z
1/2+x,1/2-y,z
loop_
_atom_site_type_symbol
_atom_site_label
_atom_site_fract_x
_atom_site_fract_y
_atom_site_fract_z
Si Si1 0.633030 0.753404 0.142710
Si Si2 0.453804 0.641931 0.530423
Si Si3 0.704730 0.434658 0.469797
Si Si4 0.550736 0.379360 0.963606
Si Si5 0.310478 0.270622 0.399913
Si Si6 0.163220 0.029113 0.070251
Si Si7 0.805659 0.124220 0.255976
Si Si8 0.780416 0.345814 0.689498
O O1 0.564437 0.812127 0.103023
O O2 0.664985 0.626162 0.099355
O O3 0.625625 0.682787 0.212473
O O4 0.698225 0.866266 0.156451
O O5 0.500000 0.500000 0.529523
O O6 0.373650 0.619597 0.496677
O O7 0.499375 0.757790 0.491947
O O8 0.694891 0.589878 0.442410
O O9 0.741189 0.330327 0.417862
O O10 0.765097 0.442128 0.526543
O O11 0.500000 0.500000 0.932949
O O12 0.614480 0.313732 0.918646
O O13 0.593235 0.449077 0.023961
O O14 0.310849 0.322608 0.327343
O O15 0.163419 0.133327 0.130802
O O16 0.733324 0.197786 0.222544
O O17 0.797736 0.961168 0.242620
#
# Coordination Sequence:
#
# PCOD9365964 Si02
#       8
#     8   8   8   8   8   8   8   8
#     4   9  19  34  57  82 117 142 182 244 290 349
#     4  12  22  38  55  87 124 146 193 244 304 350
#     4  11  22  35  59  89 114 155 190 252 296 351
#     4  11  24  38  59  86 120 166 193 244 307 365
#     4  11  23  38  60  85 119 155 207 236 292 357
#     4  10  19  35  60  87 114 145 199 238 305 351
#     4   9  19  36  55  85 114 149 192 242 280 344
#     4   9  18  32  61  85 112 143 188 248 293 328
#
# _framework density 17.82902
#
# number of rings (size 3 to 8) (size 9 to 14) (size 15 to 20)
#    0.750    1.000    3.750    1.500    3.500    1.000 
#    0.000    0.625    0.000    7.500    0.000    0.000 
#    0.000    0.000    0.000    0.000    0.000    0.000 
#
# Total GULP energy -178210.054001 kJ/mol
# GULP energy per Si atom -5569.064188 kJ/mol
# Density = 1.778844 g / cm^3
# Si number density = 17.829020 Si / 1000 Ang^3
#
#
#
# Elastic Constant Matrix: (Units=GPa)
#
#
# Indices 1 2 3 4 5 6 
#
# 1 75.0688 18.8366 14.0121 0.0000 0.0000 0.0000
# 2 18.8366 55.7975 13.2492 0.0000 0.0000 0.0000
# 3 14.0121 13.2492 66.8051 0.0000 0.0000 0.0000
# 4 0.0000 0.0000 0.0000 24.9836 0.0000 0.0000
# 5 0.0000 0.0000 0.0000 0.0000 15.1043 0.0000
# 6 0.0000 0.0000 0.0000 0.0000 0.0000 26.9720
#
#
#
# Elastic Compliance Matrix: (Units=1/GPa)
#
#
# Indices 1 2 3 4 5 6 
#
# 1 0.014863 -0.004489 -0.002227 0.000000 0.000000 0.000000
# 2 -0.004489 0.020163 -0.003057 0.000000 0.000000 0.000000
# 3 -0.002227 -0.003057 0.016042 0.000000 0.000000 0.000000
# 4 0.000000 0.000000 0.000000 0.040026 0.000000 0.000000
# 5 0.000000 0.000000 0.000000 0.000000 0.066207 0.000000
# 6 0.000000 0.000000 0.000000 0.000000 0.000000 0.037075
#
#
# Mechanical properties :
#
#
# Convention : Reuss Voigt Hill
#
# Bulk Modulus (GPa) = 31.72383 32.20747 31.96565
# Shear Modulus (GPa) = 22.27851 23.51686 22.89769
#
# Velocity S-wave (km/s) = 3.53875 3.63577 3.58759
# Velocity P-wave (km/s) = 5.87614 5.97737 5.92697
#
# Compressibility (1/GPa) = 0.03152204
#
# Stress axis : x y z
#
# Youngs Moduli (GPa) = 67.28027 49.59507 62.33460
#
# Poissons Ratio (x) = 0.22262 0.13883
# Poissons Ratio (y) = 0.30201 0.19058
# Poissons Ratio (z) = 0.14985 0.15163
#
# Static dielectric constant tensor:
#      x y z
#    x 1.600510 0.000000 0.000000 
#    y 0.000000 1.619300 0.000000 
#    z 0.000000 0.000000 1.625000 
# 
# From -- ./inp_files/11662.got.cif
#   From: 2010.05.17/outbox.cif.g08.bks.cpg/sg41_6_cif.got.tgz:11662.got - 2010.06.03 18:54:24.
