data_PCOD9365431
_publ_section_title
;
Structure prediction by ZEFSAII (Michael W. Deem and Ramdas Pophale) SiO2 
 PCOD9365431
Probable space group: A M A 2
;
_chemical_formula_sum "Si O2"
_cell_formula_units_Z 56
_cell_length_a 15.062332
_cell_length_b 10.820187
_cell_length_c 15.569838
_cell_angle_alpha 90.000000
_cell_angle_beta 90.000000
_cell_angle_gamma 90.000000
_cell_volume 2537.529363
_symmetry_space_group_name_H-M "A M A 2"
_symmetry_group_IT_number 40
_symmetry_cell_setting 'orthorhombic'
loop_
_space_group_symop_operation_xyz
x,y,z
-x,-y,z
1/2-x,y,z
1/2+x,-y,z
x,1/2+y,1/2+z
-x,1/2-y,1/2+z
1/2-x,1/2+y,1/2+z
1/2+x,1/2-y,1/2+z
loop_
_atom_site_type_symbol
_atom_site_label
_atom_site_fract_x
_atom_site_fract_y
_atom_site_fract_z
Si Si1 0.396011 0.973976 0.334980
Si Si2 0.963687 0.308009 0.508419
Si Si3 0.845507 0.577002 0.012804
Si Si4 0.152134 0.068698 0.151214
Si Si5 0.905709 0.931529 0.669215
Si Si6 0.851711 0.696744 0.561806
Si Si7 0.146280 0.679973 0.345626
O O1 0.355949 0.008076 0.428349
O O2 0.375927 0.825844 0.325537
O O3 0.500000 0.000000 0.338222
O O4 0.361647 0.049578 0.252805
O O5 0.929442 0.167167 0.509288
O O6 0.925762 0.364179 0.597708
O O7 0.909984 0.361746 0.427904
O O8 0.068545 0.319955 0.494163
O O9 0.750000 0.641095 0.003301
O O10 0.847970 0.512517 0.104064
O O11 0.250000 0.125934 0.135949
O O12 0.154048 0.931319 0.112488
O O13 0.896203 0.798356 0.623871
O O14 0.874036 0.905962 0.764812
O O15 0.000000 0.000000 0.670980
O O16 0.750000 0.730113 0.537020
O O17 0.250000 0.672448 0.363710
#
# Coordination Sequence:
#
# PCOD9365431 Si02
#       7
#     8   8   8   8   8   8   8
#     4  11  22  37  64  98 131 177 228 281 330 401
#     4  11  23  42  69 104 135 174 226 287 336 399
#     4  11  23  41  66  97 136 177 224 279 342 406
#     4  11  22  40  68  99 134 175 222 275 338 405
#     4  12  24  43  68  98 134 180 232 282 334 408
#     4  11  23  41  67  97 132 180 229 273 339 412
#     4  11  24  45  70  98 138 186 228 270 343 423
#
# _framework density 22.068708999999998
#
# number of rings (size 3 to 8) (size 9 to 14) (size 15 to 20)
#    0.000    0.857    2.857    6.429    2.000    1.143 
#    0.000    0.000    3.143    1.714    0.000    0.000 
#    0.000    0.000    0.000    0.000    0.000    0.000 
#
# Total GULP energy -156314.742348 kJ/mol
# GULP energy per Si atom -5582.669370 kJ/mol
# Density = 2.201848 g / cm^3
# Si number density = 22.068709 Si / 1000 Ang^3
#
#
#
# Elastic Constant Matrix: (Units=GPa)
#
#
# Indices 1 2 3 4 5 6 
#
# 1 200.9670 23.6549 77.1405 0.0000 0.0000 0.0000
# 2 23.6549 35.8181 29.5776 0.0000 0.0000 0.0000
# 3 77.1405 29.5776 152.5432 0.0000 0.0000 0.0000
# 4 0.0000 0.0000 0.0000 39.0834 0.0000 0.0000
# 5 0.0000 0.0000 0.0000 0.0000 -113.6931 0.0000
# 6 0.0000 0.0000 0.0000 0.0000 0.0000 32.3978
#
#
#
# Elastic Compliance Matrix: (Units=1/GPa)
#
#
# Indices 1 2 3 4 5 6 
#
# 1 0.006272 -0.001813 -0.002820 0.000000 0.000000 0.000000
# 2 -0.001813 0.033765 -0.005630 0.000000 0.000000 0.000000
# 3 -0.002820 -0.005630 0.009073 0.000000 0.000000 0.000000
# 4 0.000000 0.000000 0.000000 0.025586 0.000000 0.000000
# 5 0.000000 0.000000 0.000000 0.000000 -0.008796 0.000000
# 6 0.000000 0.000000 0.000000 0.000000 0.000000 0.030866
#
#
# Mechanical properties :
#
#
# Convention : Reuss Voigt Hill
#
# Bulk Modulus (GPa) = 34.98486 72.23048 53.60767
# Shear Modulus (GPa) = 39.42526 8.82132 24.12329
#
# Velocity S-wave (km/s) = 4.23126 2.00147 3.30979
# Velocity P-wave (km/s) = 6.30544 6.17593 6.24102
#
# Compressibility (1/GPa) = 0.02858379
#
# Stress axis : x y z
#
# Youngs Moduli (GPa) = 159.44269 29.61606 110.21406
#
# Poissons Ratio (x) = 0.05370 0.31081
# Poissons Ratio (y) = 0.28912 0.62051
# Poissons Ratio (z) = 0.44964 0.16674
#
# Static dielectric constant tensor:
#      x y z
#    x 1.865940 0.000000 0.000000 
#    y 0.000000 1.852040 0.000000 
#    z 0.000000 0.000000 1.825190 
# 
# From -- ./inp_files/17071.got.cif
#   From: 2010.05.17/outbox.cif.g08.bks.cpg/sg40_9_cif.got.tgz:17071.got - 2010.06.03 18:35:42.
