data_PCOD9365158
_publ_section_title
;
Structure prediction by ZEFSAII (Michael W. Deem and Ramdas Pophale) SiO2 
 PCOD9365158
Probable space group: A M A 2
;
_chemical_formula_sum "Si O2"
_cell_formula_units_Z 64
_cell_length_a 22.609320
_cell_length_b 8.617382
_cell_length_c 16.914508
_cell_angle_alpha 90.000000
_cell_angle_beta 90.000000
_cell_angle_gamma 90.000000
_cell_volume 3295.506827
_symmetry_space_group_name_H-M "A M A 2"
_symmetry_group_IT_number 40
_symmetry_cell_setting 'orthorhombic'
loop_
_space_group_symop_operation_xyz
x,y,z
-x,-y,z
1/2-x,y,z
1/2+x,-y,z
x,1/2+y,1/2+z
-x,1/2-y,1/2+z
1/2-x,1/2+y,1/2+z
1/2+x,1/2-y,1/2+z
loop_
_atom_site_type_symbol
_atom_site_label
_atom_site_fract_x
_atom_site_fract_y
_atom_site_fract_z
Si Si1 0.590801 0.088249 0.934560
Si Si2 0.816115 0.070874 0.796051
Si Si3 0.060026 0.413951 0.101550
Si Si4 0.967397 0.745817 0.934560
Si Si5 0.134694 0.671124 0.175581
Si Si6 0.365306 0.671124 0.693539
Si Si7 0.060026 0.913951 0.267570
Si Si8 0.816115 0.070874 0.073069
O O1 0.633143 0.102915 0.859522
O O2 0.537207 0.211243 0.934560
O O3 0.564055 0.914086 0.934560
O O4 0.633143 0.102915 0.009598
O O5 0.750000 0.056783 0.828665
O O6 0.820581 0.212498 0.735008
O O7 0.834758 0.918515 0.747551
O O8 0.110168 0.544627 0.113727
O O9 0.080771 0.273904 0.158303
O O10 0.000000 0.500000 0.126796
O O11 0.050304 0.347909 0.013451
O O12 0.949696 0.652091 0.855669
O O13 0.080771 0.773904 0.210817
O O14 0.179419 0.787501 0.134112
O O15 0.389832 0.544627 0.755393
O O16 0.334758 0.581485 0.621569
O O17 0.000000 0.000000 0.242324
O O18 0.750000 0.056783 0.040455
#
# Coordination Sequence:
#
# PCOD9365158 Si02
#       8
#     8   8   8   8   8   8   8   8
#     4  11  23  40  61  91 120 162 202 248 301 368
#     4  11  22  42  64  87 120 161 205 253 301 356
#     4  11  21  38  60  91 127 163 194 250 307 367
#     4  11  23  40  61  89 127 157 200 248 305 360
#     4  10  23  38  61  94 122 152 211 247 305 365
#     4  10  23  38  61  94 122 152 211 247 305 365
#     4  11  21  38  60  91 127 163 194 250 307 367
#     4  11  22  42  64  87 120 161 205 253 301 356
#
# _framework density 19.420383000000001
#
# number of rings (size 3 to 8) (size 9 to 14) (size 15 to 20)
#    0.000    1.250    2.500    3.750    0.000    3.000 
#    0.000    0.000    0.000    0.000    0.000    0.000 
#    0.000    0.000    0.000    0.000    0.000    0.000 
#
# Total GULP energy -178739.491820 kJ/mol
# GULP energy per Si atom -5585.609119 kJ/mol
# Density = 1.937618 g / cm^3
# Si number density = 19.420383 Si / 1000 Ang^3
#
#
#
# Elastic Constant Matrix: (Units=GPa)
#
#
# Indices 1 2 3 4 5 6 
#
# 1 107.7527 27.6829 49.2284 0.0000 0.0000 0.0000
# 2 27.6829 100.4689 44.2138 0.0000 0.0000 0.0000
# 3 49.2284 44.2138 94.2992 0.0000 0.0000 0.0000
# 4 0.0000 0.0000 0.0000 28.8537 0.0000 0.0000
# 5 0.0000 0.0000 0.0000 0.0000 21.4186 0.0000
# 6 0.0000 0.0000 0.0000 0.0000 0.0000 11.0855
#
#
#
# Elastic Compliance Matrix: (Units=1/GPa)
#
#
# Indices 1 2 3 4 5 6 
#
# 1 0.012227 -0.000706 -0.006052 0.000000 0.000000 0.000000
# 2 -0.000706 0.012582 -0.005531 0.000000 0.000000 0.000000
# 3 -0.006052 -0.005531 0.016357 0.000000 0.000000 0.000000
# 4 0.000000 0.000000 0.000000 0.034658 0.000000 0.000000
# 5 0.000000 0.000000 0.000000 0.000000 0.046688 0.000000
# 6 0.000000 0.000000 0.000000 0.000000 0.000000 0.090208
#
#
# Mechanical properties :
#
#
# Convention : Reuss Voigt Hill
#
# Bulk Modulus (GPa) = 60.28179 60.53009 60.40594
# Shear Modulus (GPa) = 20.59085 24.36461 22.47773
#
# Velocity S-wave (km/s) = 3.25971 3.54586 3.40579
# Velocity P-wave (km/s) = 6.72871 6.92822 6.82919
#
# Compressibility (1/GPa) = 0.01658876
#
# Stress axis : x y z
#
# Youngs Moduli (GPa) = 81.78784 79.48049 61.13504
#
# Poissons Ratio (x) = 0.05608 0.37000
# Poissons Ratio (y) = 0.05771 0.33813
# Poissons Ratio (z) = 0.49499 0.43959
#
# Static dielectric constant tensor:
#      x y z
#    x 1.668320 0.000000 0.000000 
#    y 0.000000 1.679260 0.000000 
#    z 0.000000 0.000000 1.669990 
# 
# From -- ./inp_files/18511.got.cif
#   From: 2010.05.17/outbox.cif.g08.bks.cpg/sg40_10_cif.got.tgz:18511.got - 2010.06.03 18:35:42.
