data_PCOD9365587
_publ_section_title
;
Structure prediction by ZEFSAII (Michael W. Deem and Ramdas Pophale) SiO2 
 PCOD9365587
Probable space group: A M A 2
;
_chemical_formula_sum "Si O2"
_cell_formula_units_Z 36
_cell_length_a 13.929988
_cell_length_b 15.443580
_cell_length_c 6.672522
_cell_angle_alpha 90.000000
_cell_angle_beta 90.000000
_cell_angle_gamma 90.000000
_cell_volume 1435.452212
_symmetry_space_group_name_H-M "A M A 2"
_symmetry_group_IT_number 40
_symmetry_cell_setting 'orthorhombic'
loop_
_space_group_symop_operation_xyz
x,y,z
-x,-y,z
1/2-x,y,z
1/2+x,-y,z
x,1/2+y,1/2+z
-x,1/2-y,1/2+z
1/2-x,1/2+y,1/2+z
1/2+x,1/2-y,1/2+z
loop_
_atom_site_type_symbol
_atom_site_label
_atom_site_fract_x
_atom_site_fract_y
_atom_site_fract_z
Si Si1 0.750000 0.242067 0.631130
Si Si2 0.750000 0.538515 0.016545
Si Si3 0.088716 0.319516 0.415910
Si Si4 0.458963 0.651694 0.079811
Si Si5 0.750000 0.878254 0.761459
Si Si6 0.078004 0.943034 0.240424
O O1 0.750000 0.143509 0.538735
O O2 0.839905 0.237523 0.781705
O O3 0.750000 0.321083 0.469676
O O4 0.750000 0.483982 0.225253
O O5 0.842397 0.514926 0.883112
O O6 0.022624 0.252719 0.535304
O O7 0.131519 0.380590 0.585623
O O8 0.025159 0.374795 0.264981
O O9 0.348498 0.646397 0.147414
O O10 0.504455 0.604602 0.890870
O O11 0.000000 0.000000 0.123011
#
# Coordination Sequence:
#
# PCOD9365587 Si02
#       6
#     4   4   8   8   4   8
#     4  12  26  48  76 115 159 212 261 339 422 488
#     4  12  25  49  75 115 159 201 275 331 401 497
#     4  12  25  47  76 110 152 202 263 325 409 494
#     4  12  24  47  73 109 149 196 266 326 397 492
#     4  12  27  45  79 112 158 207 264 340 405 489
#     4  12  26  47  77 111 156 207 258 338 408 477
#
# _framework density 25.079205000000002
#
# number of rings (size 3 to 8) (size 9 to 14) (size 15 to 20)
#    0.000    0.000    6.667    4.000    0.000    2.667 
#    0.000    1.111    0.000    0.000    0.000    0.000 
#    0.000    0.000    0.000    0.000    0.000    0.000 
#
# Total GULP energy -100462.963198 kJ/mol
# GULP energy per Si atom -5581.275733 kJ/mol
# Density = 2.502212 g / cm^3
# Si number density = 25.079205 Si / 1000 Ang^3
#
#
#
# Elastic Constant Matrix: (Units=GPa)
#
#
# Indices 1 2 3 4 5 6 
#
# 1 146.0823 12.8872 62.5082 0.0000 0.0000 0.0000
# 2 12.8872 75.0379 62.1620 0.0000 0.0000 0.0000
# 3 62.5082 62.1620 155.2398 0.0000 0.0000 0.0000
# 4 0.0000 0.0000 0.0000 63.1112 0.0000 0.0000
# 5 0.0000 0.0000 0.0000 0.0000 13.0945 0.0000
# 6 0.0000 0.0000 0.0000 0.0000 0.0000 18.7674
#
#
#
# Elastic Compliance Matrix: (Units=1/GPa)
#
#
# Indices 1 2 3 4 5 6 
#
# 1 0.008477 0.002053 -0.004235 0.000000 0.000000 0.000000
# 2 0.002053 0.020439 -0.009011 0.000000 0.000000 0.000000
# 3 -0.004235 -0.009011 0.011755 0.000000 0.000000 0.000000
# 4 0.000000 0.000000 0.000000 0.015845 0.000000 0.000000
# 5 0.000000 0.000000 0.000000 0.000000 0.076368 0.000000
# 6 0.000000 0.000000 0.000000 0.000000 0.000000 0.053284
#
#
# Mechanical properties :
#
#
# Convention : Reuss Voigt Hill
#
# Bulk Modulus (GPa) = 54.69286 72.38608 63.53947
# Shear Modulus (GPa) = 23.29403 34.91481 29.10442
#
# Velocity S-wave (km/s) = 3.05096 3.73524 3.41031
# Velocity P-wave (km/s) = 5.85376 6.89408 6.39511
#
# Compressibility (1/GPa) = 0.01828392
#
# Stress axis : x y z
#
# Youngs Moduli (GPa) = 117.97279 48.92720 85.07045
#
# Poissons Ratio (x) = -0.10042 0.36027
# Poissons Ratio (y) = -0.24214 0.76653
# Poissons Ratio (z) = 0.49962 0.44086
#
# Static dielectric constant tensor:
#      x y z
#    x 1.997390 0.000000 0.000000 
#    y 0.000000 2.101760 0.000000 
#    z 0.000000 0.000000 1.969590 
# 
# From -- ./inp_files/6096.got.cif
#   From: 2010.05.17/outbox.cif.g08.bks.cpg/sg40_4_cif.got.tgz:6096.got - 2010.06.03 18:35:42.
