data_PCOD9365028
_publ_section_title
;
Structure prediction by ZEFSAII (Michael W. Deem and Ramdas Pophale) SiO2 
 PCOD9365028
Probable space group: A M A 2
;
_chemical_formula_sum "Si O2"
_cell_formula_units_Z 40
_cell_length_a 18.095951
_cell_length_b 10.533401
_cell_length_c 10.152634
_cell_angle_alpha 90.000000
_cell_angle_beta 90.000000
_cell_angle_gamma 90.000000
_cell_volume 1935.212942
_symmetry_space_group_name_H-M "A M A 2"
_symmetry_group_IT_number 40
_symmetry_cell_setting 'orthorhombic'
loop_
_space_group_symop_operation_xyz
x,y,z
-x,-y,z
1/2-x,y,z
1/2+x,-y,z
x,1/2+y,1/2+z
-x,1/2-y,1/2+z
1/2-x,1/2+y,1/2+z
1/2+x,1/2-y,1/2+z
loop_
_atom_site_type_symbol
_atom_site_label
_atom_site_fract_x
_atom_site_fract_y
_atom_site_fract_z
Si Si1 0.885644 0.189641 0.687620
Si Si2 0.932487 0.596654 0.930569
Si Si3 0.472486 0.634217 0.345971
Si Si4 0.838319 0.983362 0.191235
Si Si5 0.168236 0.000057 0.888891
O O1 0.876297 0.112968 0.552183
O O2 0.865664 0.336930 0.682987
O O3 0.838866 0.126035 0.803404
O O4 0.971075 0.162753 0.728524
O O5 0.969489 0.736257 0.925011
O O6 0.887789 0.556563 0.799194
O O7 0.000000 0.500000 0.950558
O O8 0.500000 0.500000 0.407730
O O9 0.387724 0.599063 0.321843
O O10 0.750000 0.988913 0.220483
O O11 0.849545 0.030230 0.041108
O O12 0.250000 0.053970 0.887808
#
# Coordination Sequence:
#
# PCOD9365028 Si02
#       5
#     8   8   8   8   8
#     4  11  23  45  69  99 137 181 227 282 342 406
#     4  12  24  43  71 105 136 178 232 288 343 404
#     4  10  22  41  70 100 130 181 226 272 339 407
#     4  11  25  43  67 101 138 181 228 281 345 404
#     4  10  22  43  67  94 136 183 221 275 344 407
#
# _framework density 20.669560000000001
#
# number of rings (size 3 to 8) (size 9 to 14) (size 15 to 20)
#    0.000    1.200    4.000    2.400    0.000    8.000 
#    7.200    0.000    0.000    0.000    0.000    0.000 
#    0.000    0.000    0.000    0.000    0.000    0.000 
#
# Total GULP energy -111488.588352 kJ/mol
# GULP energy per Si atom -5574.429418 kJ/mol
# Density = 2.062252 g / cm^3
# Si number density = 20.669560 Si / 1000 Ang^3
#
#
#
# Elastic Constant Matrix: (Units=GPa)
#
#
# Indices 1 2 3 4 5 6 
#
# 1 86.4332 21.5545 38.0571 0.0000 0.0000 0.0000
# 2 21.5545 132.3177 46.2879 0.0000 0.0000 0.0000
# 3 38.0571 46.2879 101.7040 0.0000 0.0000 0.0000
# 4 0.0000 0.0000 0.0000 22.9278 0.0000 0.0000
# 5 0.0000 0.0000 0.0000 0.0000 27.1640 0.0000
# 6 0.0000 0.0000 0.0000 0.0000 0.0000 9.8277
#
#
#
# Elastic Compliance Matrix: (Units=1/GPa)
#
#
# Indices 1 2 3 4 5 6 
#
# 1 0.013883 -0.000528 -0.004954 0.000000 0.000000 0.000000
# 2 -0.000528 0.009009 -0.003902 0.000000 0.000000 0.000000
# 3 -0.004954 -0.003902 0.013462 0.000000 0.000000 0.000000
# 4 0.000000 0.000000 0.000000 0.043615 0.000000 0.000000
# 5 0.000000 0.000000 0.000000 0.000000 0.036813 0.000000
# 6 0.000000 0.000000 0.000000 0.000000 0.000000 0.101753
#
#
# Mechanical properties :
#
#
# Convention : Reuss Voigt Hill
#
# Bulk Modulus (GPa) = 56.87071 59.13932 58.00502
# Shear Modulus (GPa) = 20.56196 26.28759 23.42478
#
# Velocity S-wave (km/s) = 3.15746 3.57010 3.37010
# Velocity P-wave (km/s) = 6.39271 6.75782 6.57779
#
# Compressibility (1/GPa) = 0.01758374
#
# Stress axis : x y z
#
# Youngs Moduli (GPa) = 72.03133 111.00269 74.28061
#
# Poissons Ratio (x) = 0.05865 0.36802
# Poissons Ratio (y) = 0.03806 0.28987
# Poissons Ratio (z) = 0.35687 0.43318
#
# Static dielectric constant tensor:
#      x y z
#    x 1.796130 0.000000 0.000000 
#    y 0.000000 1.758640 0.000000 
#    z 0.000000 0.000000 1.779560 
# 
# From -- ./inp_files/13433.got.cif
#   From: 2010.05.17/outbox.cif.g08.bks.cpg/sg40_7_cif.got.tgz:13433.got - 2010.06.03 18:35:42.
