data_PCOD9365565
_publ_section_title
;
Structure prediction by ZEFSAII (Michael W. Deem and Ramdas Pophale) SiO2 
 PCOD9365565
Probable space group: A M A 2
;
_chemical_formula_sum "Si O2"
_cell_formula_units_Z 48
_cell_length_a 23.228848
_cell_length_b 14.073279
_cell_length_c 6.604984
_cell_angle_alpha 90.000000
_cell_angle_beta 90.000000
_cell_angle_gamma 90.000000
_cell_volume 2159.209288
_symmetry_space_group_name_H-M "A M A 2"
_symmetry_group_IT_number 40
_symmetry_cell_setting 'orthorhombic'
loop_
_space_group_symop_operation_xyz
x,y,z
-x,-y,z
1/2-x,y,z
1/2+x,-y,z
x,1/2+y,1/2+z
-x,1/2-y,1/2+z
1/2-x,1/2+y,1/2+z
1/2+x,1/2-y,1/2+z
loop_
_atom_site_type_symbol
_atom_site_label
_atom_site_fract_x
_atom_site_fract_y
_atom_site_fract_z
Si Si1 0.951467 0.657388 0.501300
Si Si2 0.610312 0.945267 0.475081
Si Si3 0.250000 0.543357 0.492846
Si Si4 0.838698 0.593764 0.714562
Si Si5 0.500000 0.500000 0.226910
Si Si6 0.657733 0.306443 0.317485
Si Si7 0.567201 0.797004 0.166734
O O1 0.903963 0.605871 0.634497
O O2 0.991360 0.587355 0.375003
O O3 0.918034 0.719147 0.335781
O O4 0.998715 0.713542 0.631671
O O5 0.556684 0.989609 0.593202
O O6 0.638521 0.865561 0.619184
O O7 0.584689 0.895069 0.275116
O O8 0.656030 0.025657 0.411369
O O9 0.200046 0.464774 0.558657
O O10 0.299543 0.623692 0.435409
O O11 0.819150 0.701556 0.760306
O O12 0.603314 0.286551 0.463468
#
# Coordination Sequence:
#
# PCOD9365565 Si02
#       7
#     8   8   4   8   4   8   8
#     4  12  23  42  75 115 155 199 245 302 387 465
#     4  12  24  47  73 109 156 197 251 312 373 463
#     4  12  28  52  78 104 148 198 266 324 370 448
#     4  12  26  49  77 111 144 201 255 311 385 449
#     4  12  22  38  68 112 154 202 238 294 374 462
#     4  12  26  52  75 108 148 198 256 316 383 446
#     4  12  23  46  73 111 160 195 245 311 383 467
#
# _framework density 22.230360999999998
#
# number of rings (size 3 to 8) (size 9 to 14) (size 15 to 20)
#    0.000    0.000    5.000    6.500    0.000    0.667 
#    0.000    4.167    0.000    0.000    0.000    0.000 
#    0.000    0.000    0.000    0.000    0.000    0.000 
#
# Total GULP energy -133716.191106 kJ/mol
# GULP energy per Si atom -5571.507963 kJ/mol
# Density = 2.217976 g / cm^3
# Si number density = 22.230361 Si / 1000 Ang^3
#
#
#
# Elastic Constant Matrix: (Units=GPa)
#
#
# Indices 1 2 3 4 5 6 
#
# 1 97.1420 24.2598 20.1755 0.0000 0.0000 0.0000
# 2 24.2598 157.4729 50.6392 0.0000 0.0000 0.0000
# 3 20.1755 50.6392 63.5491 0.0000 0.0000 0.0000
# 4 0.0000 0.0000 0.0000 43.3261 0.0000 0.0000
# 5 0.0000 0.0000 0.0000 0.0000 -25.3748 0.0000
# 6 0.0000 0.0000 0.0000 0.0000 0.0000 29.5897
#
#
#
# Elastic Compliance Matrix: (Units=1/GPa)
#
#
# Indices 1 2 3 4 5 6 
#
# 1 0.011091 -0.000775 -0.002904 0.000000 0.000000 0.000000
# 2 -0.000775 0.008592 -0.006601 0.000000 0.000000 0.000000
# 3 -0.002904 -0.006601 0.021918 0.000000 0.000000 0.000000
# 4 0.000000 0.000000 0.000000 0.023081 0.000000 0.000000
# 5 0.000000 0.000000 0.000000 0.000000 -0.039409 0.000000
# 6 0.000000 0.000000 0.000000 0.000000 0.000000 0.033796
#
#
# Mechanical properties :
#
#
# Convention : Reuss Voigt Hill
#
# Bulk Modulus (GPa) = 47.52390 56.47924 52.00157
# Shear Modulus (GPa) = 57.70981 24.38084 41.04532
#
# Velocity S-wave (km/s) = 5.10061 3.31529 4.30159
# Velocity P-wave (km/s) = 7.49084 6.33375 6.93646
#
# Compressibility (1/GPa) = 0.02104205
#
# Stress axis : x y z
#
# Youngs Moduli (GPa) = 90.16500 116.38310 45.62557
#
# Poissons Ratio (x) = 0.09018 0.13248
# Poissons Ratio (y) = 0.06987 0.30116
# Poissons Ratio (z) = 0.26181 0.76822
#
# Static dielectric constant tensor:
#      x y z
#    x 1.813900 0.000000 0.000000 
#    y 0.000000 1.843620 0.000000 
#    z 0.000000 0.000000 1.831520 
# 
# From -- ./inp_files/3116.got.cif
#   From: 2010.05.17/outbox.cif.g08.bks.cpg/sg40_2_cif.got.tgz:3116.got - 2010.06.03 18:35:42.
