data_PCOD9365542
_publ_section_title
;
Structure prediction by ZEFSAII (Michael W. Deem and Ramdas Pophale) SiO2 
 PCOD9365542
Probable space group: A M A 2
;
_chemical_formula_sum "Si O2"
_cell_formula_units_Z 56
_cell_length_a 34.162276
_cell_length_b 13.559470
_cell_length_c 4.889820
_cell_angle_alpha 90.000000
_cell_angle_beta 90.000000
_cell_angle_gamma 90.000000
_cell_volume 2265.073944
_symmetry_space_group_name_H-M "A M A 2"
_symmetry_group_IT_number 40
_symmetry_cell_setting 'orthorhombic'
loop_
_space_group_symop_operation_xyz
x,y,z
-x,-y,z
1/2-x,y,z
1/2+x,-y,z
x,1/2+y,1/2+z
-x,1/2-y,1/2+z
1/2-x,1/2+y,1/2+z
1/2+x,1/2-y,1/2+z
loop_
_atom_site_type_symbol
_atom_site_label
_atom_site_fract_x
_atom_site_fract_y
_atom_site_fract_z
Si Si1 0.705956 0.694756 0.492100
Si Si2 0.414400 0.935389 0.314838
Si Si3 0.375626 0.340766 0.316383
Si Si4 0.174003 0.115110 0.801737
Si Si5 0.090829 0.148289 0.069484
Si Si6 0.706190 0.492923 0.822845
Si Si7 0.525718 0.735331 0.750118
O O1 0.750000 0.703183 0.376671
O O2 0.670481 0.678343 0.279787
O O3 0.694075 0.790616 0.664308
O O4 0.705543 0.600382 0.690826
O O5 0.322477 0.031005 0.570777
O O6 0.398346 0.914525 0.615785
O O7 0.418450 0.047948 0.228154
O O8 0.382580 0.883624 0.116608
O O9 0.397010 0.236464 0.273435
O O10 0.453484 0.371004 0.768520
O O11 0.129520 0.133166 0.885916
O O12 0.195999 0.080071 0.073962
O O13 0.055998 0.186576 0.878207
O O14 0.750000 0.474441 0.928919
O O15 0.512025 0.760646 0.446627
#
# Coordination Sequence:
#
# PCOD9365542 Si02
#       7
#     8   8   8   8   8   8   8
#     4  11  25  45  70 101 144 194 239 298 367 411
#     4  11  26  49  77 105 144 190 233 287 355 420
#     4  11  25  46  71 107 143 183 247 298 337 419
#     4  12  26  45  72 103 139 186 245 296 346 424
#     4  11  27  48  76 105 140 192 234 284 355 418
#     4  11  26  46  68 100 140 183 238 301 359 414
#     4  11  25  49  76 110 149 178 225 288 345 428
#
# _framework density 24.723258000000001
#
# number of rings (size 3 to 8) (size 9 to 14) (size 15 to 20)
#    0.000    0.857    0.000    6.429    0.000   15.429 
#    0.000   13.571    0.000    1.714    0.000    0.000 
#    0.000    0.000    0.000    0.000    0.000    0.000 
#
# Total GULP energy -157202.668881 kJ/mol
# GULP energy per Si atom -5614.381031 kJ/mol
# Density = 2.466699 g / cm^3
# Si number density = 24.723258 Si / 1000 Ang^3
#
#
#
# Elastic Constant Matrix: (Units=GPa)
#
#
# Indices 1 2 3 4 5 6 
#
# 1 111.3512 42.1373 -1.1746 0.0000 0.0000 0.0000
# 2 42.1373 151.7548 1.6280 0.0000 0.0000 0.0000
# 3 -1.1746 1.6280 59.6594 0.0000 0.0000 0.0000
# 4 0.0000 0.0000 0.0000 33.9759 0.0000 0.0000
# 5 0.0000 0.0000 0.0000 0.0000 40.2036 0.0000
# 6 0.0000 0.0000 0.0000 0.0000 0.0000 35.6959
#
#
#
# Elastic Compliance Matrix: (Units=1/GPa)
#
#
# Indices 1 2 3 4 5 6 
#
# 1 0.010039 -0.002791 0.000274 0.000000 0.000000 0.000000
# 2 -0.002791 0.007367 -0.000256 0.000000 0.000000 0.000000
# 3 0.000274 -0.000256 0.016774 0.000000 0.000000 0.000000
# 4 0.000000 0.000000 0.000000 0.029433 0.000000 0.000000
# 5 0.000000 0.000000 0.000000 0.000000 0.024873 0.000000
# 6 0.000000 0.000000 0.000000 0.000000 0.000000 0.028014
#
#
# Mechanical properties :
#
#
# Convention : Reuss Voigt Hill
#
# Bulk Modulus (GPa) = 34.92186 45.32743 40.12464
# Shear Modulus (GPa) = 37.99625 40.65339 39.32482
#
# Velocity S-wave (km/s) = 3.92454 4.05944 3.99256
# Velocity P-wave (km/s) = 5.88997 6.35184 6.12526
#
# Compressibility (1/GPa) = 0.02863536
#
# Stress axis : x y z
#
# Youngs Moduli (GPa) = 99.60668 135.73726 59.61542
#
# Poissons Ratio (x) = 0.37878 -0.01632
# Poissons Ratio (y) = 0.27796 0.01526
# Poissons Ratio (z) = -0.02727 0.03475
#
# Static dielectric constant tensor:
#      x y z
#    x 1.961210 0.000000 0.000000 
#    y 0.000000 1.950150 0.000000 
#    z 0.000000 0.000000 1.907900 
# 
# From -- ./inp_files/3392.got.cif
#   From: 2010.05.17/outbox.cif.g08.bks.cpg/sg40_2_cif.got.tgz:3392.got - 2010.06.03 18:35:42.
