data_PCOD9365672
_publ_section_title
;
Structure prediction by ZEFSAII (Michael W. Deem and Ramdas Pophale) SiO2 
 PCOD9365672
Probable space group: A M A 2
;
_chemical_formula_sum "Si O2"
_cell_formula_units_Z 24
_cell_length_a 9.000000
_cell_length_b 30.000000
_cell_length_c 9.000000
_cell_angle_alpha 90.000000
_cell_angle_beta 90.000000
_cell_angle_gamma 90.000000
_cell_volume 2430.000000
_symmetry_space_group_name_H-M "A M A 2"
_symmetry_group_IT_number 40
_symmetry_cell_setting 'orthorhombic'
loop_
_space_group_symop_operation_xyz
x,y,z
-x,-y,z
1/2-x,y,z
1/2+x,-y,z
x,1/2+y,1/2+z
-x,1/2-y,1/2+z
1/2-x,1/2+y,1/2+z
1/2+x,1/2-y,1/2+z
loop_
_atom_site_type_symbol
_atom_site_label
_atom_site_fract_x
_atom_site_fract_y
_atom_site_fract_z
Si Si1 0.071564 0.547830 0.915540
Si Si2 0.423414 0.373834 0.420353
Si Si3 0.082203 0.702117 0.263859
Si Si4 0.573265 0.452445 0.256582
Si Si5 0.581793 0.279373 0.917201
Si Si6 0.074768 0.632575 0.725671
O O1 0.250000 0.543725 0.907951
O O2 0.025990 0.586698 0.803613
O O3 0.000000 0.500000 0.883800
O O4 0.034732 0.560747 0.086092
O O5 0.250000 0.382127 0.422672
O O6 0.468182 0.336534 0.302232
O O7 0.510512 0.417773 0.372995
O O8 0.481331 0.357937 0.579619
O O9 0.250000 0.686671 0.297596
O O10 0.037766 0.744609 0.360167
O O11 0.074597 0.715179 0.092728
O O12 0.500000 0.500000 0.282205
O O13 0.750000 0.455261 0.266876
O O14 0.750000 0.263845 0.877969
O O15 0.560310 0.327024 0.840498
O O16 0.250000 0.628762 0.687709
#
# Coordination Sequence:
#
# PCOD9365672 Si02
#       6
#     8   8   8   8   8   8
#     4   9  19  36  60  87 115 149 190 235 285 342
#     4  12  25  39  57  85 118 154 197 240 284 339
#     4  11  23  40  62  87 117 152 189 235 289 343
#     4  10  20  38  62  88 117 151 192 238 290 344
#     4  10  22  40  62  88 116 149 192 238 287 345
#     4  10  21  39  60  83 116 155 192 236 289 341
#
# _framework density 9.8765429999999999
#
# number of rings (size 3 to 8) (size 9 to 14) (size 15 to 20)
#    0.000    1.667    0.000    4.500    0.000    9.333 
#    0.000    3.333    0.000    0.000    0.000    0.000 
#    0.000    0.000    0.000    0.000    0.000    0.000 
#
# Total GULP energy -134104.378164 kJ/mol
# GULP energy per Si atom -5587.682423 kJ/mol
# Density = 0.985406 g / cm^3
# Si number density = 9.876543 Si / 1000 Ang^3
#
#
#
# Elastic Constant Matrix: (Units=GPa)
#
#
# Indices 1 2 3 4 5 6 
#
# 1 52.6624 22.0522 25.1620 0.0000 0.0000 0.0000
# 2 22.0522 27.1294 14.9326 0.0000 0.0000 0.0000
# 3 25.1620 14.9326 41.2352 0.0000 0.0000 0.0000
# 4 0.0000 0.0000 0.0000 29.5453 0.0000 0.0000
# 5 0.0000 0.0000 0.0000 0.0000 30.1362 0.0000
# 6 0.0000 0.0000 0.0000 0.0000 0.0000 26.9519
#
#
#
# Elastic Compliance Matrix: (Units=1/GPa)
#
#
# Indices 1 2 3 4 5 6 
#
# 1 0.033784 -0.020126 -0.013327 0.000000 0.000000 0.000000
# 2 -0.020126 0.058026 -0.008732 0.000000 0.000000 0.000000
# 3 -0.013327 -0.008732 0.035546 0.000000 0.000000 0.000000
# 4 0.000000 0.000000 0.000000 0.033846 0.000000 0.000000
# 5 0.000000 0.000000 0.000000 0.000000 0.033183 0.000000
# 6 0.000000 0.000000 0.000000 0.000000 0.000000 0.037103
#
#
# Mechanical properties :
#
#
# Convention : Reuss Voigt Hill
#
# Bulk Modulus (GPa) = 23.26364 27.25786 25.26075
# Shear Modulus (GPa) = 15.14290 21.25203 18.19747
#
# Velocity S-wave (km/s) = 2.77178 3.28363 3.03850
# Velocity P-wave (km/s) = 4.69536 5.31089 5.01258
#
# Compressibility (1/GPa) = 0.04298554
#
# Stress axis : x y z
#
# Youngs Moduli (GPa) = 29.59946 17.23355 28.13292
#
# Poissons Ratio (x) = 0.34685 0.37493
# Poissons Ratio (y) = 0.59573 0.24566
# Poissons Ratio (z) = 0.39448 0.15048
#
# Static dielectric constant tensor:
#      x y z
#    x 1.665530 0.000000 0.000000 
#    y 0.000000 0.448750 0.000000 
#    z 0.000000 0.000000 1.684800 
# 
# From -- ./inp_files/4568.got.cif
#   From: 2010.05.17/outbox.ucp.g08.bks.cvg/sg40_3_cif.got.tgz:4568.got - 2010.06.11 16:26:39.
