data_PCOD9365325
_publ_section_title
;
Structure prediction by ZEFSAII (Michael W. Deem and Ramdas Pophale) SiO2 
 PCOD9365325
Probable space group: A M A 2
;
_chemical_formula_sum "Si O2"
_cell_formula_units_Z 40
_cell_length_a 28.651692
_cell_length_b 7.420404
_cell_length_c 7.233824
_cell_angle_alpha 90.000000
_cell_angle_beta 90.000000
_cell_angle_gamma 90.000000
_cell_volume 1537.962559
_symmetry_space_group_name_H-M "A M A 2"
_symmetry_group_IT_number 40
_symmetry_cell_setting 'orthorhombic'
loop_
_space_group_symop_operation_xyz
x,y,z
-x,-y,z
1/2-x,y,z
1/2+x,-y,z
x,1/2+y,1/2+z
-x,1/2-y,1/2+z
1/2-x,1/2+y,1/2+z
1/2+x,1/2-y,1/2+z
loop_
_atom_site_type_symbol
_atom_site_label
_atom_site_fract_x
_atom_site_fract_y
_atom_site_fract_z
Si Si1 0.052790 0.991242 0.301940
Si Si2 0.197687 0.709914 0.600549
Si Si3 0.802313 0.710161 0.664227
Si Si4 0.947208 0.491369 0.462854
Si Si5 0.377042 0.499877 0.132392
O O1 0.091428 0.973381 0.451141
O O2 0.091431 0.526414 0.313647
O O3 0.056901 0.853679 0.123917
O O4 0.000000 0.000000 0.372049
O O5 0.250000 0.753287 0.669660
O O6 0.188688 0.499877 0.632389
O O7 0.197622 0.749876 0.382388
O O8 0.157777 0.836019 0.678255
O O9 0.750000 0.753534 0.595116
O O10 0.842223 0.836263 0.586521
O O11 0.943081 0.353816 0.640877
O O12 0.000000 0.500000 0.392747
#
# Coordination Sequence:
#
# PCOD9365325 Si02
#       5
#     8   8   8   8   8
#     4  11  29  51  74 108 156 202 255 326 400 471
#     4  10  24  47  72 109 157 199 251 321 392 468
#     4  10  24  47  72 109 157 199 251 321 392 468
#     4  11  29  51  74 108 156 202 255 326 400 471
#     4  12  26  46  82 116 144 210 264 322 384 486
#
# _framework density 26.008436
#
# number of rings (size 3 to 8) (size 9 to 14) (size 15 to 20)
#    0.000    1.200    0.000    2.400   11.200   11.200 
#    0.000    6.000    0.000    3.600    0.000    0.000 
#    0.000    0.000    0.000    0.000    0.000    0.000 
#
# Total GULP energy -111642.717505 kJ/mol
# GULP energy per Si atom -5582.135875 kJ/mol
# Density = 2.594924 g / cm^3
# Si number density = 26.008436 Si / 1000 Ang^3
#
#
#
# Elastic Constant Matrix: (Units=GPa)
#
#
# Indices 1 2 3 4 5 6 
#
# 1 268.1380 114.2973 104.1015 0.0000 0.0000 0.0000
# 2 114.2973 119.4439 62.1901 0.0000 0.0000 0.0000
# 3 104.1015 62.1901 147.4476 0.0000 0.0000 0.0000
# 4 0.0000 0.0000 0.0000 3.5648 0.0000 0.0000
# 5 0.0000 0.0000 0.0000 0.0000 -41.9624 0.0000
# 6 0.0000 0.0000 0.0000 0.0000 0.0000 14.9362
#
#
#
# Elastic Compliance Matrix: (Units=1/GPa)
#
#
# Indices 1 2 3 4 5 6 
#
# 1 0.007068 -0.005337 -0.002739 0.000000 0.000000 0.000000
# 2 -0.005337 0.014758 -0.002457 0.000000 0.000000 0.000000
# 3 -0.002739 -0.002457 0.009752 0.000000 0.000000 0.000000
# 4 0.000000 0.000000 0.000000 0.280522 0.000000 0.000000
# 5 0.000000 0.000000 0.000000 0.000000 -0.023831 0.000000
# 6 0.000000 0.000000 0.000000 0.000000 0.000000 0.066951
#
#
# Mechanical properties :
#
#
# Convention : Reuss Voigt Hill
#
# Bulk Modulus (GPa) = 95.12255 121.80083 108.46169
# Shear Modulus (GPa) = 13.16517 12.27043 12.71780
#
# Velocity S-wave (km/s) = 2.25230 2.17442 2.21371
# Velocity P-wave (km/s) = 6.58915 7.29637 6.95176
#
# Compressibility (1/GPa) = 0.01051275
#
# Stress axis : x y z
#
# Youngs Moduli (GPa) = 141.48567 67.75778 102.54355
#
# Poissons Ratio (x) = 0.36164 0.28086
# Poissons Ratio (y) = 0.75514 0.25191
# Poissons Ratio (z) = 0.38752 0.16645
#
# Static dielectric constant tensor:
#      x y z
#    x 1.985400 0.000000 0.000000 
#    y 0.000000 2.134710 0.000000 
#    z 0.000000 0.000000 2.063850 
# 
# From -- ./inp_files/14090.got.cif
#   From: 2010.05.17/outbox.cif.g08.bks.cpg/sg40_8_cif.got.tgz:14090.got - 2010.06.03 18:35:42.
