data_PCOD9365449
_publ_section_title
;
Structure prediction by ZEFSAII (Michael W. Deem and Ramdas Pophale) SiO2 
 PCOD9365449
Probable space group: A M A 2
;
_chemical_formula_sum "Si O2"
_cell_formula_units_Z 64
_cell_length_a 31.783128
_cell_length_b 11.521810
_cell_length_c 8.469487
_cell_angle_alpha 90.000000
_cell_angle_beta 90.000000
_cell_angle_gamma 90.000000
_cell_volume 3101.519042
_symmetry_space_group_name_H-M "A M A 2"
_symmetry_group_IT_number 40
_symmetry_cell_setting 'orthorhombic'
loop_
_space_group_symop_operation_xyz
x,y,z
-x,-y,z
1/2-x,y,z
1/2+x,-y,z
x,1/2+y,1/2+z
-x,1/2-y,1/2+z
1/2-x,1/2+y,1/2+z
1/2+x,1/2-y,1/2+z
loop_
_atom_site_type_symbol
_atom_site_label
_atom_site_fract_x
_atom_site_fract_y
_atom_site_fract_z
Si Si1 0.297174 0.373308 0.850780
Si Si2 0.340287 0.197730 0.652821
Si Si3 0.152647 0.089964 0.307641
Si Si4 0.004689 0.874400 0.248790
Si Si5 0.127585 0.803832 0.586157
Si Si6 0.901963 0.085976 0.157851
Si Si7 0.605755 0.487454 0.315553
Si Si8 0.546234 0.313221 0.443376
O O1 0.250000 0.379170 0.913894
O O2 0.301395 0.268674 0.724613
O O3 0.310516 0.496583 0.773210
O O4 0.332920 0.348859 0.983120
O O5 0.338331 0.144506 0.478618
O O6 0.376087 0.295926 0.658434
O O7 0.356201 0.095942 0.765888
O O8 0.144466 0.195514 0.188965
O O9 0.111659 0.005343 0.293794
O O10 0.049575 0.883020 0.162533
O O11 0.010362 0.767309 0.366861
O O12 0.000000 0.000000 0.330033
O O13 0.970127 0.858605 0.112416
O O14 0.088335 0.760739 0.480667
O O15 0.108917 0.903221 0.700119
O O16 0.889333 0.026185 0.994901
O O17 0.562182 0.413960 0.324502
#
# Coordination Sequence:
#
# PCOD9365449 Si02
#       8
#     8   8   8   8   8   8   8   8
#     4  11  25  44  68 101 138 170 214 278 336 406
#     4  11  22  41  70 100 128 171 228 270 333 402
#     4  11  22  41  71  98 126 171 220 271 334 405
#     4  12  26  41  62  91 136 176 225 289 338 388
#     4  12  24  44  72  96 132 181 225 269 338 412
#     4  11  22  41  66  93 129 174 226 280 335 394
#     4  12  22  41  70  96 129 180 225 273 333 398
#     4  12  27  44  62  97 135 178 233 281 338 397
#
# _framework density 20.635048999999999
#
# number of rings (size 3 to 8) (size 9 to 14) (size 15 to 20)
#    0.000    0.500    7.500    0.750    1.750    3.000 
#    0.000    0.000    0.000    0.000    0.000    0.000 
#    0.000    0.000    0.000    0.000    0.000    0.000 
#
# Total GULP energy -178678.637941 kJ/mol
# GULP energy per Si atom -5583.707436 kJ/mol
# Density = 2.058808 g / cm^3
# Si number density = 20.635049 Si / 1000 Ang^3
#
#
#
# Elastic Constant Matrix: (Units=GPa)
#
#
# Indices 1 2 3 4 5 6 
#
# 1 78.1477 3.0300 -0.5023 0.0000 0.0000 0.0000
# 2 3.0300 100.0925 20.9042 0.0000 0.0000 0.0000
# 3 -0.5023 20.9042 65.7794 0.0000 0.0000 0.0000
# 4 0.0000 0.0000 0.0000 43.6165 0.0000 0.0000
# 5 0.0000 0.0000 0.0000 0.0000 23.1902 0.0000
# 6 0.0000 0.0000 0.0000 0.0000 0.0000 17.8616
#
#
#
# Elastic Compliance Matrix: (Units=1/GPa)
#
#
# Indices 1 2 3 4 5 6 
#
# 1 0.012815 -0.000437 0.000237 0.000000 0.000000 0.000000
# 2 -0.000437 0.010716 -0.003409 0.000000 0.000000 0.000000
# 3 0.000237 -0.003409 0.016287 0.000000 0.000000 0.000000
# 4 0.000000 0.000000 0.000000 0.022927 0.000000 0.000000
# 5 0.000000 0.000000 0.000000 0.000000 0.043122 0.000000
# 6 0.000000 0.000000 0.000000 0.000000 0.000000 0.055986
#
#
# Mechanical properties :
#
#
# Convention : Reuss Voigt Hill
#
# Bulk Modulus (GPa) = 30.67539 32.32041 31.49790
# Shear Modulus (GPa) = 27.78735 31.63951 29.71343
#
# Velocity S-wave (km/s) = 3.67360 3.91997 3.79878
# Velocity P-wave (km/s) = 5.73513 6.01541 5.87694
#
# Compressibility (1/GPa) = 0.03259943
#
# Stress axis : x y z
#
# Youngs Moduli (GPa) = 78.03502 93.31911 61.39709
#
# Poissons Ratio (x) = 0.04082 -0.01454
# Poissons Ratio (y) = 0.03413 0.20929
# Poissons Ratio (z) = -0.01848 0.31810
#
# Static dielectric constant tensor:
#      x y z
#    x 1.730830 0.000000 0.000000 
#    y 0.000000 1.793620 0.000000 
#    z 0.000000 0.000000 1.762830 
# 
# From -- ./inp_files/9436.got.cif
#   From: 2010.05.17/outbox.cif.g08.bks.cpg/sg40_5_cif.got.tgz:9436.got - 2010.06.03 18:35:42.
