data_PCOD9365774
_publ_section_title
;
Structure prediction by ZEFSAII (Michael W. Deem and Ramdas Pophale) SiO2 
 PCOD9365774
Probable space group: A B A 2
;
_chemical_formula_sum "Si O2"
_cell_formula_units_Z 60
_cell_length_a 19.797163
_cell_length_b 27.511334
_cell_length_c 5.620393
_cell_angle_alpha 90.000000
_cell_angle_beta 90.000000
_cell_angle_gamma 90.000000
_cell_volume 3061.126609
_symmetry_space_group_name_H-M "A B A 2"
_symmetry_group_IT_number 41
_symmetry_cell_setting 'orthorhombic'
loop_
_space_group_symop_operation_xyz
x,y,z
-x,-y,z
1/2-x,y,1/2+z
1/2+x,-y,1/2+z
x,1/2+y,1/2+z
-x,1/2-y,1/2+z
1/2-x,1/2+y,z
1/2+x,1/2-y,z
loop_
_atom_site_type_symbol
_atom_site_label
_atom_site_fract_x
_atom_site_fract_y
_atom_site_fract_z
Si Si1 0.732119 0.497967 0.660170
Si Si2 0.500000 0.500000 0.121730
Si Si3 0.784544 0.296227 0.775138
Si Si4 0.453536 0.804241 0.836686
Si Si5 0.671700 0.903087 0.678914
Si Si6 0.522755 0.407332 0.403558
Si Si7 0.900512 0.948686 0.787489
Si Si8 0.583005 0.233788 0.335529
O O1 0.755588 0.523060 0.416164
O O2 0.779516 0.449655 0.689492
O O3 0.654532 0.480188 0.644729
O O4 0.486981 0.452525 0.278847
O O5 0.566002 0.485906 0.972614
O O6 0.758420 0.282450 0.510309
O O7 0.791866 0.354586 0.760020
O O8 0.856948 0.272385 0.820095
O O9 0.487389 0.857173 0.847863
O O10 0.415066 0.795505 0.585915
O O11 0.513181 0.764049 0.836808
O O12 0.415398 0.796416 0.088377
O O13 0.601648 0.906012 0.823969
O O14 0.642934 0.905981 0.410767
O O15 0.534328 0.423044 0.674114
#
# Coordination Sequence:
#
# PCOD9365774 Si02
#       8
#     8   4   8   8   8   8   8   8
#     4  10  18  32  50  80 114 157 186 226 289 378
#     4  10  24  38  54  90 124 158 220 258 316 370
#     4  12  24  36  59  90 132 166 201 256 317 384
#     4  10  22  37  64  81 127 164 211 253 303 361
#     4  10  21  32  53  91 124 159 200 234 311 397
#     4  11  21  38  59  87 123 170 198 266 313 373
#     4  10  21  35  57  79 130 162 203 253 305 378
#     4  10  22  40  55  93 120 166 212 249 295 378
#
# _framework density 19.600628
#
# number of rings (size 3 to 8) (size 9 to 14) (size 15 to 20)
#    0.000    1.600    2.667    2.800    5.600    1.067 
#    0.000    0.000    0.000    0.000    0.000   16.800 
#    0.000    0.000    0.000    0.000    0.000    0.000 
#
# Total GULP energy -167105.202408 kJ/mol
# GULP energy per Si atom -5570.173414 kJ/mol
# Density = 1.955602 g / cm^3
# Si number density = 19.600628 Si / 1000 Ang^3
#
#
#
# Elastic Constant Matrix: (Units=GPa)
#
#
# Indices 1 2 3 4 5 6 
#
# 1 35.5318 -0.1126 21.5533 0.0000 0.0000 0.0000
# 2 -0.1126 43.6928 25.7466 0.0000 0.0000 0.0000
# 3 21.5533 25.7466 138.3547 0.0000 0.0000 0.0000
# 4 0.0000 0.0000 0.0000 16.0303 0.0000 0.0000
# 5 0.0000 0.0000 0.0000 0.0000 0.4800 0.0000
# 6 0.0000 0.0000 0.0000 0.0000 0.0000 16.5519
#
#
#
# Elastic Compliance Matrix: (Units=1/GPa)
#
#
# Indices 1 2 3 4 5 6 
#
# 1 0.031509 0.003340 -0.005530 0.000000 0.000000 0.000000
# 2 0.003340 0.026060 -0.005370 0.000000 0.000000 0.000000
# 3 -0.005530 -0.005370 0.009089 0.000000 0.000000 0.000000
# 4 0.000000 0.000000 0.000000 0.062382 0.000000 0.000000
# 5 0.000000 0.000000 0.000000 0.000000 2.083147 0.000000
# 6 0.000000 0.000000 0.000000 0.000000 0.000000 0.060416
#
#
# Mechanical properties :
#
#
# Convention : Reuss Voigt Hill
#
# Bulk Modulus (GPa) = 19.40339 34.66155 27.03247
# Shear Modulus (GPa) = 2.16929 17.97191 10.07060
#
# Velocity S-wave (km/s) = 1.05316 3.03133 2.26915
# Velocity P-wave (km/s) = 3.37635 5.47487 4.54829
#
# Compressibility (1/GPa) = 0.05153738
#
# Stress axis : x y z
#
# Youngs Moduli (GPa) = 31.73708 38.37307 110.02832
#
# Poissons Ratio (x) = -0.12816 0.60846
# Poissons Ratio (y) = -0.10600 0.59083
# Poissons Ratio (z) = 0.17551 0.20606
#
# Static dielectric constant tensor:
#      x y z
#    x 1.703420 0.000000 0.000000 
#    y 0.000000 1.639030 0.000000 
#    z 0.000000 0.000000 1.890270 
# 
# From -- ./inp_files/543.got.cif
#   From: 2010.05.17/outbox.cif.g08.bks.cpg/sg41_1_cif.got.tgz:543.got - 2010.06.03 18:54:24.
