data_PCOD9365197
_publ_section_title
;
Structure prediction by ZEFSAII (Michael W. Deem and Ramdas Pophale) SiO2 
 PCOD9365197
Probable space group: A M A 2
;
_chemical_formula_sum "Si O2"
_cell_formula_units_Z 60
_cell_length_a 8.446544
_cell_length_b 27.278142
_cell_length_c 12.567104
_cell_angle_alpha 90.000000
_cell_angle_beta 90.000000
_cell_angle_gamma 90.000000
_cell_volume 2895.536499
_symmetry_space_group_name_H-M "A M A 2"
_symmetry_group_IT_number 40
_symmetry_cell_setting 'orthorhombic'
loop_
_space_group_symop_operation_xyz
x,y,z
-x,-y,z
1/2-x,y,z
1/2+x,-y,z
x,1/2+y,1/2+z
-x,1/2-y,1/2+z
1/2-x,1/2+y,1/2+z
1/2+x,1/2-y,1/2+z
loop_
_atom_site_type_symbol
_atom_site_label
_atom_site_fract_x
_atom_site_fract_y
_atom_site_fract_z
Si Si1 0.561220 0.387503 0.849000
Si Si2 0.069868 0.812079 0.866496
Si Si3 0.057137 0.924517 0.907410
Si Si4 0.935038 0.712093 0.943291
Si Si5 0.439183 0.446574 0.653562
Si Si6 0.926467 0.579985 0.063365
Si Si7 0.072538 0.674355 0.152694
Si Si8 0.000000 0.000000 0.731255
O O1 0.750000 0.386001 0.862500
O O2 0.490800 0.333058 0.868488
O O3 0.516034 0.407601 0.733321
O O4 0.487660 0.422827 0.941722
O O5 0.250000 0.805182 0.902813
O O6 0.019361 0.866969 0.898414
O O7 0.966774 0.766410 0.902203
O O8 0.056220 0.812736 0.739728
O O9 0.250000 0.930681 0.887485
O O10 0.022432 0.939734 0.028490
O O11 0.964957 0.957205 0.819728
O O12 0.750000 0.706081 0.964971
O O13 0.039745 0.705459 0.048338
O O14 0.500000 0.500000 0.686043
O O15 0.250000 0.443473 0.663684
O O16 0.750000 0.601492 0.058240
O O17 0.915036 0.533767 0.141695
O O18 0.044771 0.618423 0.117555
O O19 0.250000 0.681324 0.193531
#
# Coordination Sequence:
#
# PCOD9365197 Si02
#       8
#     8   8   8   8   8   8   8   4
#     4  11  24  44  67  96 129 170 220 270 325 390
#     4  11  22  42  66  94 129 168 215 267 324 389
#     4  10  23  42  65  95 130 171 214 262 319 381
#     4  11  23  42  66  95 128 168 213 268 331 389
#     4  11  23  43  66  93 130 173 218 269 321 383
#     4  11  23  40  64  94 129 169 213 268 326 382
#     4  11  22  39  62  92 127 167 211 263 321 384
#     4  12  22  40  64  98 130 172 214 260 324 390
#
# _framework density 20.721547999999999
#
# number of rings (size 3 to 8) (size 9 to 14) (size 15 to 20)
#    0.000    1.067    2.000    6.800    0.933    3.200 
#    0.000    6.667    0.000    0.000    0.000    0.000 
#    0.000    0.000    0.000    0.000    0.000    0.000 
#
# Total GULP energy -167266.833742 kJ/mol
# GULP energy per Si atom -5575.561125 kJ/mol
# Density = 2.067438 g / cm^3
# Si number density = 20.721548 Si / 1000 Ang^3
#
#
#
# Elastic Constant Matrix: (Units=GPa)
#
#
# Indices 1 2 3 4 5 6 
#
# 1 84.8276 30.1709 14.2284 0.0000 0.0000 0.0000
# 2 30.1709 104.9927 49.4565 0.0000 0.0000 0.0000
# 3 14.2284 49.4565 77.1689 0.0000 0.0000 0.0000
# 4 0.0000 0.0000 0.0000 22.0898 0.0000 0.0000
# 5 0.0000 0.0000 0.0000 0.0000 22.2345 0.0000
# 6 0.0000 0.0000 0.0000 0.0000 0.0000 6.6066
#
#
#
# Elastic Compliance Matrix: (Units=1/GPa)
#
#
# Indices 1 2 3 4 5 6 
#
# 1 0.013131 -0.003771 -0.000004 0.000000 0.000000 0.000000
# 2 -0.003771 0.014726 -0.008743 0.000000 0.000000 0.000000
# 3 -0.000004 -0.008743 0.018562 0.000000 0.000000 0.000000
# 4 0.000000 0.000000 0.000000 0.045270 0.000000 0.000000
# 5 0.000000 0.000000 0.000000 0.000000 0.044975 0.000000
# 6 0.000000 0.000000 0.000000 0.000000 0.000000 0.151364
#
#
# Mechanical properties :
#
#
# Convention : Reuss Voigt Hill
#
# Bulk Modulus (GPa) = 46.76514 50.52234 48.64374
# Shear Modulus (GPa) = 15.61562 21.72839 18.67201
#
# Velocity S-wave (km/s) = 2.74814 3.24171 3.00507
# Velocity P-wave (km/s) = 5.71726 6.20049 5.96377
#
# Compressibility (1/GPa) = 0.02138345
#
# Stress axis : x y z
#
# Youngs Moduli (GPa) = 76.15759 67.90531 53.87257
#
# Poissons Ratio (x) = 0.25610 0.00022
# Poissons Ratio (y) = 0.28722 0.47099
# Poissons Ratio (z) = 0.00031 0.59367
#
# Static dielectric constant tensor:
#      x y z
#    x 1.729120 0.000000 0.000000 
#    y 0.000000 1.755300 0.000000 
#    z 0.000000 0.000000 1.728480 
# 
# From -- ./inp_files/10405.got.cif
#   From: 2010.05.17/outbox.cif.g08.bks.cpg/sg40_6_cif.got.tgz:10405.got - 2010.06.03 18:35:42.
