data_PCOD9365313
_publ_section_title
;
Structure prediction by ZEFSAII (Michael W. Deem and Ramdas Pophale) SiO2 
 PCOD9365313
Probable space group: A M A 2
;
_chemical_formula_sum "Si O2"
_cell_formula_units_Z 40
_cell_length_a 14.651659
_cell_length_b 18.619470
_cell_length_c 6.403017
_cell_angle_alpha 90.000000
_cell_angle_beta 90.000000
_cell_angle_gamma 90.000000
_cell_volume 1746.782257
_symmetry_space_group_name_H-M "A M A 2"
_symmetry_group_IT_number 40
_symmetry_cell_setting 'orthorhombic'
loop_
_space_group_symop_operation_xyz
x,y,z
-x,-y,z
1/2-x,y,z
1/2+x,-y,z
x,1/2+y,1/2+z
-x,1/2-y,1/2+z
1/2-x,1/2+y,1/2+z
1/2+x,1/2-y,1/2+z
loop_
_atom_site_type_symbol
_atom_site_label
_atom_site_fract_x
_atom_site_fract_y
_atom_site_fract_z
Si Si1 0.849734 0.083264 0.904640
Si Si2 0.855200 0.670237 0.016892
Si Si3 0.855919 0.337046 0.434736
Si Si4 0.907455 0.961087 0.631543
Si Si5 0.504404 0.408606 0.741152
O O1 0.750000 0.090986 0.006674
O O2 0.868296 0.154859 0.765451
O O3 0.842102 0.019315 0.735042
O O4 0.929836 0.067025 0.068228
O O5 0.750000 0.646842 0.977146
O O6 0.860688 0.751107 0.930508
O O7 0.937379 0.628338 0.907869
O O8 0.750000 0.355912 0.480293
O O9 0.885595 0.383909 0.232517
O O10 0.926333 0.359397 0.613328
O O11 0.924733 0.954668 0.384314
O O12 0.000000 0.000000 0.702681
#
# Coordination Sequence:
#
# PCOD9365313 Si02
#       5
#     8   8   8   8   8
#     4  11  25  47  73 105 142 187 241 299 358 431
#     4  10  24  45  70 107 144 184 239 294 357 433
#     4  11  27  46  70 106 147 186 234 296 364 431
#     4  12  25  45  68 103 143 186 239 293 360 431
#     4  12  25  42  76 102 138 190 238 295 354 433
#
# _framework density 22.899246999999999
#
# number of rings (size 3 to 8) (size 9 to 14) (size 15 to 20)
#    0.000    0.800    4.000    1.200    8.400    1.600 
#    0.000    4.000    0.000    0.000    0.000    0.000 
#    0.000    0.000    0.000    0.000    0.000    0.000 
#
# Total GULP energy -111425.993683 kJ/mol
# GULP energy per Si atom -5571.299684 kJ/mol
# Density = 2.284713 g / cm^3
# Si number density = 22.899247 Si / 1000 Ang^3
#
#
#
# Elastic Constant Matrix: (Units=GPa)
#
#
# Indices 1 2 3 4 5 6 
#
# 1 147.8539 25.9796 54.1569 0.0000 0.0000 0.0000
# 2 25.9796 101.1757 35.8774 0.0000 0.0000 0.0000
# 3 54.1569 35.8774 97.7597 0.0000 0.0000 0.0000
# 4 0.0000 0.0000 0.0000 30.8958 0.0000 0.0000
# 5 0.0000 0.0000 0.0000 0.0000 -16.1139 0.0000
# 6 0.0000 0.0000 0.0000 0.0000 0.0000 28.5717
#
#
#
# Elastic Compliance Matrix: (Units=1/GPa)
#
#
# Indices 1 2 3 4 5 6 
#
# 1 0.008516 -0.000591 -0.004501 0.000000 0.000000 0.000000
# 2 -0.000591 0.011403 -0.003858 0.000000 0.000000 0.000000
# 3 -0.004501 -0.003858 0.014138 0.000000 0.000000 0.000000
# 4 0.000000 0.000000 0.000000 0.032367 0.000000 0.000000
# 5 0.000000 0.000000 0.000000 0.000000 -0.062058 0.000000
# 6 0.000000 0.000000 0.000000 0.000000 0.000000 0.035000
#
#
# Mechanical properties :
#
#
# Convention : Reuss Voigt Hill
#
# Bulk Modulus (GPa) = 61.88490 64.31301 63.09895
# Shear Modulus (GPa) = 79.80756 24.05575 51.93166
#
# Velocity S-wave (km/s) = 5.90993 3.24466 4.76734
# Velocity P-wave (km/s) = 8.58215 6.49487 7.61040
#
# Compressibility (1/GPa) = 0.01615903
#
# Stress axis : x y z
#
# Youngs Moduli (GPa) = 117.42867 87.69265 70.72974
#
# Poissons Ratio (x) = 0.05180 0.31834
# Poissons Ratio (y) = 0.06936 0.27286
# Poissons Ratio (z) = 0.52852 0.33830
#
# Static dielectric constant tensor:
#      x y z
#    x 2.166070 0.000000 0.000000 
#    y 0.000000 1.956390 0.000000 
#    z 0.000000 0.000000 1.864900 
# 
# From -- ./inp_files/1232.got.cif
#   From: 2010.05.17/outbox.cif.g08.bks.cpg/sg40_1_cif.got.tgz:1232.got - 2010.06.03 18:35:42.
