data_PCOD9365525
_publ_section_title
;
Structure prediction by ZEFSAII (Michael W. Deem and Ramdas Pophale) SiO2 
 PCOD9365525
Probable space group: A M A 2
;
_chemical_formula_sum "Si O2"
_cell_formula_units_Z 44
_cell_length_a 13.049133
_cell_length_b 12.671914
_cell_length_c 13.877937
_cell_angle_alpha 90.000000
_cell_angle_beta 90.000000
_cell_angle_gamma 90.000000
_cell_volume 2294.820845
_symmetry_space_group_name_H-M "A M A 2"
_symmetry_group_IT_number 40
_symmetry_cell_setting 'orthorhombic'
loop_
_space_group_symop_operation_xyz
x,y,z
-x,-y,z
1/2-x,y,z
1/2+x,-y,z
x,1/2+y,1/2+z
-x,1/2-y,1/2+z
1/2-x,1/2+y,1/2+z
1/2+x,1/2-y,1/2+z
loop_
_atom_site_type_symbol
_atom_site_label
_atom_site_fract_x
_atom_site_fract_y
_atom_site_fract_z
Si Si1 0.750000 0.727700 0.764431
Si Si2 0.086246 0.700728 0.935111
Si Si3 0.974238 0.623300 0.747385
Si Si4 0.750000 0.118949 0.662656
Si Si5 0.250000 0.116550 0.952467
Si Si6 0.250000 0.375078 0.391888
Si Si7 0.082960 0.229952 0.072110
Si Si8 0.750000 0.885278 0.577975
O O1 0.855426 0.657744 0.767855
O O2 0.750000 0.808340 0.856624
O O3 0.750000 0.797186 0.664316
O O4 0.151608 0.808256 0.926147
O O5 0.053729 0.661096 0.830199
O O6 0.154336 0.627971 0.005173
O O7 0.980703 0.716741 0.988628
O O8 0.000000 0.500000 0.737553
O O9 0.006654 0.680170 0.649096
O O10 0.750000 0.123026 0.777012
O O11 0.846809 0.183294 0.623096
O O12 0.750000 0.999385 0.626400
O O13 0.250000 0.994447 0.926460
O O14 0.153701 0.144385 0.019655
#
# Coordination Sequence:
#
# PCOD9365525 Si02
#       8
#     4   8   8   4   4   4   8   4
#     4  12  24  48  66 110 134 170 232 296 324 406
#     4  11  25  45  65 101 140 177 229 282 334 411
#     4  12  28  45  72  99 139 181 225 281 346 399
#     4  11  24  44  71 100 135 185 230 277 337 405
#     4  11  25  41  75  98 142 177 228 281 346 398
#     4  11  24  44  71 100 135 185 230 277 337 405
#     4  11  25  45  65 101 140 177 229 282 334 411
#     4  11  25  41  75  98 142 177 228 281 346 398
#
# _framework density 19.173611000000001
#
# number of rings (size 3 to 8) (size 9 to 14) (size 15 to 20)
#    0.000    0.727    6.364    0.000    5.091    2.909 
#    0.000    3.636    0.000    0.000    0.000    0.000 
#    0.000    0.000    0.000    0.000    0.000    0.000 
#
# Total GULP energy -122843.979346 kJ/mol
# GULP energy per Si atom -5583.817243 kJ/mol
# Density = 1.912997 g / cm^3
# Si number density = 19.173611 Si / 1000 Ang^3
#
#
#
# Elastic Constant Matrix: (Units=GPa)
#
#
# Indices 1 2 3 4 5 6 
#
# 1 86.8878 27.2538 1.2852 0.0000 0.0000 0.0000
# 2 27.2538 100.2692 8.2193 0.0000 0.0000 0.0000
# 3 1.2852 8.2193 80.1929 0.0000 0.0000 0.0000
# 4 0.0000 0.0000 0.0000 39.8775 0.0000 0.0000
# 5 0.0000 0.0000 0.0000 0.0000 -1.8852 0.0000
# 6 0.0000 0.0000 0.0000 0.0000 0.0000 -10.2524
#
#
#
# Elastic Compliance Matrix: (Units=1/GPa)
#
#
# Indices 1 2 3 4 5 6 
#
# 1 0.012584 -0.003433 0.000150 0.000000 0.000000 0.000000
# 2 -0.003433 0.010994 -0.001072 0.000000 0.000000 0.000000
# 3 0.000150 -0.001072 0.012577 0.000000 0.000000 0.000000
# 4 0.000000 0.000000 0.000000 0.025077 0.000000 0.000000
# 5 0.000000 0.000000 0.000000 0.000000 -0.530449 0.000000
# 6 0.000000 0.000000 0.000000 0.000000 0.000000 -0.097538
#
#
# Mechanical properties :
#
#
# Convention : Reuss Voigt Hill
#
# Bulk Modulus (GPa) = 36.43459 37.87406 37.15433
# Shear Modulus (GPa) = -9.10917 20.92074 5.90579
#
# Velocity S-wave (km/s) = -2.18202 3.30680 1.75694
# Velocity P-wave (km/s) = 3.56307 5.86310 4.85136
#
# Compressibility (1/GPa) = 0.02744645
#
# Stress axis : x y z
#
# Youngs Moduli (GPa) = 79.46868 90.95860 79.50777
#
# Poissons Ratio (x) = 0.31222 -0.01194
# Poissons Ratio (y) = 0.27278 0.08522
# Poissons Ratio (z) = -0.01193 0.09749
#
# Static dielectric constant tensor:
#      x y z
#    x 1.739220 0.000000 0.000000 
#    y 0.000000 1.641890 0.000000 
#    z 0.000000 0.000000 1.640990 
# 
# From -- ./inp_files/16953.got.cif
#   From: 2010.05.17/outbox.cif.g08.bks.cpg/sg40_9_cif.got.tgz:16953.got - 2010.06.03 18:35:42.
