data_PCOD9365050
_publ_section_title
;
Structure prediction by ZEFSAII (Michael W. Deem and Ramdas Pophale) SiO2 
 PCOD9365050
Probable space group: A M A 2
;
_chemical_formula_sum "Si O2"
_cell_formula_units_Z 64
_cell_length_a 20.828682
_cell_length_b 16.838447
_cell_length_c 8.599163
_cell_angle_alpha 90.000000
_cell_angle_beta 90.000000
_cell_angle_gamma 90.000000
_cell_volume 3015.921303
_symmetry_space_group_name_H-M "A M A 2"
_symmetry_group_IT_number 40
_symmetry_cell_setting 'orthorhombic'
loop_
_space_group_symop_operation_xyz
x,y,z
-x,-y,z
1/2-x,y,z
1/2+x,-y,z
x,1/2+y,1/2+z
-x,1/2-y,1/2+z
1/2-x,1/2+y,1/2+z
1/2+x,1/2-y,1/2+z
loop_
_atom_site_type_symbol
_atom_site_label
_atom_site_fract_x
_atom_site_fract_y
_atom_site_fract_z
Si Si1 0.320534 0.540167 0.201680
Si Si2 0.676110 0.628647 0.368852
Si Si3 0.008264 0.639022 0.827578
Si Si4 0.049807 0.563766 0.365994
Si Si5 0.822598 0.777097 0.151308
Si Si6 0.546045 0.776919 0.016750
Si Si7 0.647281 0.431064 0.850642
Si Si8 0.099854 0.449614 0.635213
O O1 0.250000 0.567718 0.259928
O O2 0.326683 0.448535 0.256841
O O3 0.385082 0.577480 0.271463
O O4 0.323150 0.553531 0.017914
O O5 0.750000 0.636389 0.421828
O O6 0.660181 0.705437 0.268146
O O7 0.630397 0.612479 0.515053
O O8 0.953034 0.586693 0.748616
O O9 0.028040 0.700022 0.691507
O O10 0.071238 0.589153 0.871342
O O11 0.981372 0.692958 0.965592
O O12 0.021695 0.649151 0.411560
O O13 0.070797 0.519575 0.526388
O O14 0.000000 0.500000 0.292819
O O15 0.750000 0.765048 0.094690
O O16 0.876405 0.778691 0.018440
O O17 0.825596 0.857132 0.253530
O O18 0.652383 0.508138 0.742333
#
# Coordination Sequence:
#
# PCOD9365050 Si02
#       8
#     8   8   8   8   8   8   8   8
#     4  10  24  41  64  96 129 166 216 265 319 386
#     4   9  22  42  65  91 124 169 212 255 321 387
#     4  11  25  40  62  93 132 161 219 258 324 388
#     4  11  21  42  65  93 130 169 215 265 326 384
#     4  10  22  42  66  93 127 169 214 262 322 384
#     4  11  25  40  64  95 127 170 208 268 323 385
#     4  11  23  41  64  96 125 167 212 270 318 372
#     4  11  21  42  64  90 128 166 209 263 314 387
#
# _framework density 21.220713
#
# number of rings (size 3 to 8) (size 9 to 14) (size 15 to 20)
#    0.000    1.500    3.750    0.750    7.000    2.500 
#    0.000    0.625    0.000    0.000    0.000    0.000 
#    0.000    0.000    0.000    0.000    0.000    0.000 
#
# Total GULP energy -178768.888119 kJ/mol
# GULP energy per Si atom -5586.527754 kJ/mol
# Density = 2.117241 g / cm^3
# Si number density = 21.220713 Si / 1000 Ang^3
#
#
#
# Elastic Constant Matrix: (Units=GPa)
#
#
# Indices 1 2 3 4 5 6 
#
# 1 81.0595 28.0615 25.9684 0.0000 0.0000 0.0000
# 2 28.0615 50.9677 6.5026 0.0000 0.0000 0.0000
# 3 25.9684 6.5026 38.5717 0.0000 0.0000 0.0000
# 4 0.0000 0.0000 0.0000 28.8434 0.0000 0.0000
# 5 0.0000 0.0000 0.0000 0.0000 31.2140 0.0000
# 6 0.0000 0.0000 0.0000 0.0000 0.0000 25.5385
#
#
#
# Elastic Compliance Matrix: (Units=1/GPa)
#
#
# Indices 1 2 3 4 5 6 
#
# 1 0.019110 -0.009075 -0.011336 0.000000 0.000000 0.000000
# 2 -0.009075 0.024361 0.002003 0.000000 0.000000 0.000000
# 3 -0.011336 0.002003 0.033220 0.000000 0.000000 0.000000
# 4 0.000000 0.000000 0.000000 0.034670 0.000000 0.000000
# 5 0.000000 0.000000 0.000000 0.000000 0.032037 0.000000
# 6 0.000000 0.000000 0.000000 0.000000 0.000000 0.039157
#
#
# Mechanical properties :
#
#
# Convention : Reuss Voigt Hill
#
# Bulk Modulus (GPa) = 25.07841 32.40711 28.74276
# Shear Modulus (GPa) = 21.49040 24.45694 22.97367
#
# Velocity S-wave (km/s) = 3.18576 3.39854 3.29387
# Velocity P-wave (km/s) = 5.03742 5.54118 5.29530
#
# Compressibility (1/GPa) = 0.03987493
#
# Stress axis : x y z
#
# Youngs Moduli (GPa) = 52.32905 41.04878 30.10248
#
# Poissons Ratio (x) = 0.37252 0.34123
# Poissons Ratio (y) = 0.47489 -0.06029
# Poissons Ratio (z) = 0.59319 -0.08222
#
# Static dielectric constant tensor:
#      x y z
#    x 1.839790 0.000000 0.000000 
#    y 0.000000 1.756180 0.000000 
#    z 0.000000 0.000000 1.747490 
# 
# From -- ./inp_files/8449.got.cif
#   From: 2010.05.17/outbox.cif.g08.bks.cpg/sg40_5_cif.got.tgz:8449.got - 2010.06.03 18:35:42.
