data_PCOD9365203
_publ_section_title
;
Structure prediction by ZEFSAII (Michael W. Deem and Ramdas Pophale) SiO2 
 PCOD9365203
Probable space group: A M A 2
;
_chemical_formula_sum "Si O2"
_cell_formula_units_Z 52
_cell_length_a 27.941828
_cell_length_b 14.293313
_cell_length_c 5.325246
_cell_angle_alpha 90.000000
_cell_angle_beta 90.000000
_cell_angle_gamma 90.000000
_cell_volume 2126.803635
_symmetry_space_group_name_H-M "A M A 2"
_symmetry_group_IT_number 40
_symmetry_cell_setting 'orthorhombic'
loop_
_space_group_symop_operation_xyz
x,y,z
-x,-y,z
1/2-x,y,z
1/2+x,-y,z
x,1/2+y,1/2+z
-x,1/2-y,1/2+z
1/2-x,1/2+y,1/2+z
1/2+x,1/2-y,1/2+z
loop_
_atom_site_type_symbol
_atom_site_label
_atom_site_fract_x
_atom_site_fract_y
_atom_site_fract_z
Si Si1 0.250000 0.225674 0.091460
Si Si2 0.088827 0.656658 0.041350
Si Si3 0.077921 0.457108 0.932221
Si Si4 0.852012 0.075884 0.049886
Si Si5 0.250000 0.831238 0.089728
Si Si6 0.050983 0.331194 0.325539
Si Si7 0.000000 0.000000 0.034338
Si Si8 0.853197 0.860532 0.016578
O O1 0.250000 0.247169 0.388186
O O2 0.250000 0.309253 0.886384
O O3 0.200822 0.173820 0.031356
O O4 0.074424 0.549142 0.103502
O O5 0.048368 0.729450 0.948327
O O6 0.122130 0.652687 0.789778
O O7 0.117662 0.688213 0.289340
O O8 0.130839 0.434221 0.839391
O O9 0.047025 0.498029 0.703937
O O10 0.055715 0.361569 0.035685
O O11 0.799834 0.117934 0.028312
O O12 0.850984 0.970209 0.955110
O O13 0.895988 0.132438 0.922032
O O14 0.008078 0.399829 0.405698
#
# Coordination Sequence:
#
# PCOD9365203 Si02
#       8
#     4   8   8   8   4   8   4   8
#     4  12  25  40  61  98 142 171 241 292 332 410
#     4  11  25  42  73  99 135 183 234 274 359 415
#     4  10  23  46  67 101 137 183 228 293 349 430
#     4  10  23  42  68  94 138 181 231 280 352 406
#     4  12  27  40  65 106 132 187 239 280 346 422
#     4  11  22  44  71  95 138 183 224 295 345 421
#     4  10  24  44  66 102 136 172 236 280 358 418
#     4  11  23  44  64  99 136 183 229 291 338 415
#
# _framework density 24.449833999999999
#
# number of rings (size 3 to 8) (size 9 to 14) (size 15 to 20)
#    0.000    1.231    1.538    3.692    8.615    0.000 
#    5.538    2.308    0.000    0.000    0.000    0.000 
#    0.000    0.000    0.000    0.000    0.000    0.000 
#
# Total GULP energy -145128.697179 kJ/mol
# GULP energy per Si atom -5581.872968 kJ/mol
# Density = 2.439419 g / cm^3
# Si number density = 24.449834 Si / 1000 Ang^3
#
#
#
# Elastic Constant Matrix: (Units=GPa)
#
#
# Indices 1 2 3 4 5 6 
#
# 1 105.5016 15.1594 13.8305 0.0000 0.0000 0.0000
# 2 15.1594 86.3087 0.2347 0.0000 0.0000 0.0000
# 3 13.8305 0.2347 56.5258 0.0000 0.0000 0.0000
# 4 0.0000 0.0000 0.0000 28.9180 0.0000 0.0000
# 5 0.0000 0.0000 0.0000 0.0000 28.5104 0.0000
# 6 0.0000 0.0000 0.0000 0.0000 0.0000 43.2431
#
#
#
# Elastic Compliance Matrix: (Units=1/GPa)
#
#
# Indices 1 2 3 4 5 6 
#
# 1 0.010053 -0.001759 -0.002452 0.000000 0.000000 0.000000
# 2 -0.001759 0.011894 0.000381 0.000000 0.000000 0.000000
# 3 -0.002452 0.000381 0.018289 0.000000 0.000000 0.000000
# 4 0.000000 0.000000 0.000000 0.034580 0.000000 0.000000
# 5 0.000000 0.000000 0.000000 0.000000 0.035075 0.000000
# 6 0.000000 0.000000 0.000000 0.000000 0.000000 0.023125
#
#
# Mechanical properties :
#
#
# Convention : Reuss Voigt Hill
#
# Bulk Modulus (GPa) = 30.69768 34.08725 32.39246
# Shear Modulus (GPa) = 32.99539 34.74175 33.86857
#
# Velocity S-wave (km/s) = 3.67756 3.77363 3.72590
# Velocity P-wave (km/s) = 5.53310 5.74099 5.63800
#
# Compressibility (1/GPa) = 0.03257576
#
# Stress axis : x y z
#
# Youngs Moduli (GPa) = 99.47514 84.07427 54.67620
#
# Poissons Ratio (x) = 0.14789 0.13409
# Poissons Ratio (y) = 0.17498 -0.02083
# Poissons Ratio (z) = 0.24395 -0.03203
#
# Static dielectric constant tensor:
#      x y z
#    x 1.915450 0.000000 0.000000 
#    y 0.000000 2.027480 0.000000 
#    z 0.000000 0.000000 2.095230 
# 
# From -- ./inp_files/3157.got.cif
#   From: 2010.05.17/outbox.cif.g08.bks.cpg/sg40_2_cif.got.tgz:3157.got - 2010.06.03 18:35:42.
