data_PCOD9365444
_publ_section_title
;
Structure prediction by ZEFSAII (Michael W. Deem and Ramdas Pophale) SiO2 
 PCOD9365444
Probable space group: A M A 2
;
_chemical_formula_sum "Si O2"
_cell_formula_units_Z 56
_cell_length_a 14.776464
_cell_length_b 15.345428
_cell_length_c 10.915005
_cell_angle_alpha 90.000000
_cell_angle_beta 90.000000
_cell_angle_gamma 90.000000
_cell_volume 2474.990093
_symmetry_space_group_name_H-M "A M A 2"
_symmetry_group_IT_number 40
_symmetry_cell_setting 'orthorhombic'
loop_
_space_group_symop_operation_xyz
x,y,z
-x,-y,z
1/2-x,y,z
1/2+x,-y,z
x,1/2+y,1/2+z
-x,1/2-y,1/2+z
1/2-x,1/2+y,1/2+z
1/2+x,1/2-y,1/2+z
loop_
_atom_site_type_symbol
_atom_site_label
_atom_site_fract_x
_atom_site_fract_y
_atom_site_fract_z
Si Si1 0.150444 0.852719 0.719930
Si Si2 0.351797 0.669181 0.576418
Si Si3 0.847173 0.187118 0.207421
Si Si4 0.152087 0.687093 0.990371
Si Si5 0.607839 0.993430 0.251482
Si Si6 0.995266 0.781280 0.872075
Si Si7 0.107982 0.506810 0.037019
O O1 0.250000 0.858758 0.780153
O O2 0.145362 0.760604 0.649259
O O3 0.064258 0.849794 0.809853
O O4 0.143879 0.929382 0.620259
O O5 0.250000 0.661076 0.522533
O O6 0.364359 0.589591 0.671377
O O7 0.433516 0.676652 0.478527
O O8 0.750000 0.206072 0.267897
O O9 0.846394 0.228124 0.073856
O O10 0.926461 0.234782 0.279813
O O11 0.857995 0.084344 0.198573
O O12 0.250000 0.680148 0.926319
O O13 0.139416 0.602885 0.076302
O O14 0.061808 0.701973 0.913257
O O15 0.637201 0.993552 0.394278
O O16 0.500000 0.000000 0.251873
O O17 0.000000 0.500000 0.040761
#
# Coordination Sequence:
#
# PCOD9365444 Si02
#       7
#     8   8   8   8   8   8   8
#     4  11  24  41  65 100 137 174 222 280 339 399
#     4  11  24  41  65 100 137 174 222 280 339 399
#     4  11  24  42  64  91 126 169 215 263 321 391
#     4  11  24  42  64  91 126 169 215 263 321 391
#     4  11  22  40  68  98 129 169 217 270 328 392
#     4  12  22  42  68  94 134 176 216 274 340 396
#     4  11  22  40  68  98 129 169 217 270 328 392
#
# _framework density 22.626353999999999
#
# number of rings (size 3 to 8) (size 9 to 14) (size 15 to 20)
#    0.000    0.857    0.000    9.429    0.000    4.571 
#    0.000    6.429    0.000   10.286    0.000    0.000 
#    0.000    0.000    0.000    0.000    0.000    0.000 
#
# Total GULP energy -156624.051385 kJ/mol
# GULP energy per Si atom -5593.716121 kJ/mol
# Density = 2.257486 g / cm^3
# Si number density = 22.626354 Si / 1000 Ang^3
#
#
#
# Elastic Constant Matrix: (Units=GPa)
#
#
# Indices 1 2 3 4 5 6 
#
# 1 199.6720 25.0787 54.9897 0.0000 0.0000 0.0000
# 2 25.0787 109.7486 42.2082 0.0000 0.0000 0.0000
# 3 54.9897 42.2082 64.1033 0.0000 0.0000 0.0000
# 4 0.0000 0.0000 0.0000 41.0241 0.0000 0.0000
# 5 0.0000 0.0000 0.0000 0.0000 5.8237 0.0000
# 6 0.0000 0.0000 0.0000 0.0000 0.0000 29.2545
#
#
#
# Elastic Compliance Matrix: (Units=1/GPa)
#
#
# Indices 1 2 3 4 5 6 
#
# 1 0.006623 0.000899 -0.006274 0.000000 0.000000 0.000000
# 2 0.000899 0.012324 -0.008886 0.000000 0.000000 0.000000
# 3 -0.006274 -0.008886 0.026832 0.000000 0.000000 0.000000
# 4 0.000000 0.000000 0.000000 0.024376 0.000000 0.000000
# 5 0.000000 0.000000 0.000000 0.000000 0.171712 0.000000
# 6 0.000000 0.000000 0.000000 0.000000 0.000000 0.034183
#
#
# Mechanical properties :
#
#
# Convention : Reuss Voigt Hill
#
# Bulk Modulus (GPa) = 57.94165 68.67523 63.30844
# Shear Modulus (GPa) = 16.11226 31.97027 24.04127
#
# Velocity S-wave (km/s) = 2.67142 3.76302 3.26319
# Velocity P-wave (km/s) = 5.93118 7.02127 6.49912
#
# Compressibility (1/GPa) = 0.01725874
#
# Stress axis : x y z
#
# Youngs Moduli (GPa) = 150.98898 81.14489 37.26856
#
# Poissons Ratio (x) = -0.07298 0.23381
# Poissons Ratio (y) = -0.13579 0.33116
# Poissons Ratio (z) = 0.94724 0.72104
#
# Static dielectric constant tensor:
#      x y z
#    x 1.905660 0.000000 0.000000 
#    y 0.000000 1.815300 0.000000 
#    z 0.000000 0.000000 1.856790 
# 
# From -- ./inp_files/12251.got.cif
#   From: 2010.05.17/outbox.cif.g08.bks.cpg/sg40_7_cif.got.tgz:12251.got - 2010.06.03 18:35:42.
