data_PCOD9365759
_publ_section_title
;
Structure prediction by ZEFSAII (Michael W. Deem and Ramdas Pophale) SiO2 
 PCOD9365759
Probable space group: A B A 2
;
_chemical_formula_sum "Si O2"
_cell_formula_units_Z 52
_cell_length_a 17.316106
_cell_length_b 7.888486
_cell_length_c 17.707882
_cell_angle_alpha 90.000000
_cell_angle_beta 90.000000
_cell_angle_gamma 90.000000
_cell_volume 2418.858782
_symmetry_space_group_name_H-M "A B A 2"
_symmetry_group_IT_number 41
_symmetry_cell_setting 'orthorhombic'
loop_
_space_group_symop_operation_xyz
x,y,z
-x,-y,z
1/2-x,y,1/2+z
1/2+x,-y,1/2+z
x,1/2+y,1/2+z
-x,1/2-y,1/2+z
1/2-x,1/2+y,z
1/2+x,1/2-y,z
loop_
_atom_site_type_symbol
_atom_site_label
_atom_site_fract_x
_atom_site_fract_y
_atom_site_fract_z
Si Si1 0.500000 0.500000 0.932621
Si Si2 0.448446 0.217598 0.145800
Si Si3 0.705962 0.692638 0.569537
Si Si4 0.410266 0.047095 0.988024
Si Si5 0.608230 0.115666 0.202083
Si Si6 0.868035 0.054781 0.058581
Si Si7 0.452625 0.175758 0.842330
O O1 0.503564 0.328578 0.881422
O O2 0.572667 0.524242 0.989359
O O3 0.539358 0.189855 0.148743
O O4 0.413611 0.403026 0.137395
O O5 0.413235 0.085523 0.206037
O O6 0.421898 0.159310 0.062545
O O7 0.650380 0.592804 0.512176
O O8 0.686638 0.627489 0.654652
O O9 0.794407 0.677882 0.546828
O O10 0.678454 0.882810 0.569609
O O11 0.391557 0.126414 0.907471
O O12 0.500000 0.000000 0.973859
O O13 0.592995 0.226927 0.275780
O O14 0.500000 0.000000 0.819711
#
# Coordination Sequence:
#
# PCOD9365759 Si02
#       7
#     4   8   8   8   8   8   8
#     4  12  24  44  72 110 138 192 254 306 368 450
#     4  10  18  37  65  92 128 179 226 290 336 418
#     4  11  23  39  66  99 134 178 237 306 366 431
#     4  10  17  39  64  93 132 178 227 291 349 423
#     4  10  21  39  65  95 139 179 228 290 364 424
#     4  12  24  39  70 102 134 178 252 303 367 426
#     4  11  24  39  69 104 143 188 237 297 367 446
#
# _framework density 21.497741999999999
#
# number of rings (size 3 to 8) (size 9 to 14) (size 15 to 20)
#    0.000    1.231    4.615    5.538    2.154    0.000 
#    0.000    0.000   10.154    0.000    0.000    0.000 
#    0.000    0.000    0.000    0.000    0.000    0.000 
#
# Total GULP energy -144744.756699 kJ/mol
# GULP energy per Si atom -5567.106027 kJ/mol
# Density = 2.144881 g / cm^3
# Si number density = 21.497742 Si / 1000 Ang^3
#
#
#
# Elastic Constant Matrix: (Units=GPa)
#
#
# Indices 1 2 3 4 5 6 
#
# 1 106.8981 24.1904 33.4418 0.0000 0.0000 0.0000
# 2 24.1904 96.3015 37.7355 0.0000 0.0000 0.0000
# 3 33.4418 37.7355 117.4605 0.0000 0.0000 0.0000
# 4 0.0000 0.0000 0.0000 35.1762 0.0000 0.0000
# 5 0.0000 0.0000 0.0000 0.0000 10.8311 0.0000
# 6 0.0000 0.0000 0.0000 0.0000 0.0000 34.7638
#
#
#
# Elastic Compliance Matrix: (Units=1/GPa)
#
#
# Indices 1 2 3 4 5 6 
#
# 1 0.010501 -0.001677 -0.002451 0.000000 0.000000 0.000000
# 2 -0.001677 0.012147 -0.003425 0.000000 0.000000 0.000000
# 3 -0.002451 -0.003425 0.010312 0.000000 0.000000 0.000000
# 4 0.000000 0.000000 0.000000 0.028428 0.000000 0.000000
# 5 0.000000 0.000000 0.000000 0.000000 0.092327 0.000000
# 6 0.000000 0.000000 0.000000 0.000000 0.000000 0.028766
#
#
# Mechanical properties :
#
#
# Convention : Reuss Voigt Hill
#
# Bulk Modulus (GPa) = 56.01093 56.82172 56.41633
# Shear Modulus (GPa) = 24.56543 31.17371 27.86957
#
# Velocity S-wave (km/s) = 3.38405 3.81214 3.60445
# Velocity P-wave (km/s) = 6.43272 6.77240 6.60475
#
# Compressibility (1/GPa) = 0.01785366
#
# Stress axis : x y z
#
# Youngs Moduli (GPa) = 95.22903 82.32165 96.97856
#
# Poissons Ratio (x) = 0.13809 0.23768
# Poissons Ratio (y) = 0.15974 0.33215
# Poissons Ratio (z) = 0.23339 0.28195
#
# Static dielectric constant tensor:
#      x y z
#    x 1.789170 0.000000 0.000000 
#    y 0.000000 2.224190 0.000000 
#    z 0.000000 0.000000 1.810180 
# 
# From -- ./inp_files/10562.got.cif
#   From: 2010.05.17/outbox.cif.g08.bks.cpg/sg41_6_cif.got.tgz:10562.got - 2010.06.03 18:54:24.
