data_PCOD9365868
_publ_section_title
;
Structure prediction by ZEFSAII (Michael W. Deem and Ramdas Pophale) SiO2 
 PCOD9365868
Probable space group: A B A 2
;
_chemical_formula_sum "Si O2"
_cell_formula_units_Z 56
_cell_length_a 18.474761
_cell_length_b 13.299458
_cell_length_c 8.775400
_cell_angle_alpha 90.000000
_cell_angle_beta 90.000000
_cell_angle_gamma 90.000000
_cell_volume 2156.153584
_symmetry_space_group_name_H-M "A B A 2"
_symmetry_group_IT_number 41
_symmetry_cell_setting 'orthorhombic'
loop_
_space_group_symop_operation_xyz
x,y,z
-x,-y,z
1/2-x,y,1/2+z
1/2+x,-y,1/2+z
x,1/2+y,1/2+z
-x,1/2-y,1/2+z
1/2-x,1/2+y,z
1/2+x,1/2-y,z
loop_
_atom_site_type_symbol
_atom_site_label
_atom_site_fract_x
_atom_site_fract_y
_atom_site_fract_z
Si Si1 0.692700 0.124676 0.896720
Si Si2 0.578497 0.266211 0.011696
Si Si3 0.691842 0.291075 0.288225
Si Si4 0.260531 0.510814 0.123558
Si Si5 0.600933 0.497480 0.957214
Si Si6 0.939250 0.351624 0.973147
Si Si7 0.500000 0.000000 0.212387
Si Si8 0.000000 0.000000 0.224024
O O1 0.618558 0.186281 0.903892
O O2 0.755454 0.207611 0.860942
O O3 0.700498 0.050479 0.756508
O O4 0.696922 0.057333 0.052383
O O5 0.583829 0.378746 0.949601
O O6 0.494465 0.237106 0.016868
O O7 0.629296 0.261386 0.164209
O O8 0.737816 0.376652 0.194814
O O9 0.643236 0.329082 0.430425
O O10 0.314087 0.502244 0.977035
O O11 0.560259 0.550917 0.820189
O O12 0.562801 0.534180 0.110298
O O13 0.969707 0.411083 0.826332
O O14 0.952524 0.427909 0.109667
#
# Coordination Sequence:
#
# PCOD9365868 Si02
#       8
#     8   8   8   8   8   8   4   4
#     4  12  27  49  79 112 150 206 259 306 397 462
#     4  11  25  45  71 110 144 197 252 312 374 459
#     4  11  27  52  71 116 153 200 257 319 384 465
#     4  11  26  47  76 106 153 203 244 326 373 465
#     4  10  23  43  67 102 151 187 245 307 377 447
#     4  11  24  45  73 104 153 188 249 319 369 454
#     4  10  26  40  70 114 134 202 246 302 382 468
#     4  10  18  42  66  94 140 192 226 290 382 430
#
# _framework density 25.972176000000001
#
# number of rings (size 3 to 8) (size 9 to 14) (size 15 to 20)
#    0.000    1.143    4.286    0.857   10.000    2.286 
#    0.000    0.000    0.000    0.000    0.000    0.000 
#    0.000    0.000    0.000    0.000    0.000    0.000 
#
# Total GULP energy -156569.993261 kJ/mol
# GULP energy per Si atom -5591.785474 kJ/mol
# Density = 2.591306 g / cm^3
# Si number density = 25.972176 Si / 1000 Ang^3
#
#
#
# Elastic Constant Matrix: (Units=GPa)
#
#
# Indices 1 2 3 4 5 6 
#
# 1 99.3496 40.1086 28.4564 0.0000 0.0000 0.0000
# 2 40.1086 110.2162 30.3332 0.0000 0.0000 0.0000
# 3 28.4564 30.3332 116.9481 0.0000 0.0000 0.0000
# 4 0.0000 0.0000 0.0000 26.7320 0.0000 0.0000
# 5 0.0000 0.0000 0.0000 0.0000 39.6035 0.0000
# 6 0.0000 0.0000 0.0000 0.0000 0.0000 45.1222
#
#
#
# Elastic Compliance Matrix: (Units=1/GPa)
#
#
# Indices 1 2 3 4 5 6 
#
# 1 0.012201 -0.003902 -0.001957 0.000000 0.000000 0.000000
# 2 -0.003902 0.011018 -0.001908 0.000000 0.000000 0.000000
# 3 -0.001957 -0.001908 0.009522 0.000000 0.000000 0.000000
# 4 0.000000 0.000000 0.000000 0.037408 0.000000 0.000000
# 5 0.000000 0.000000 0.000000 0.000000 0.025250 0.000000
# 6 0.000000 0.000000 0.000000 0.000000 0.000000 0.022162
#
#
# Mechanical properties :
#
#
# Convention : Reuss Voigt Hill
#
# Bulk Modulus (GPa) = 58.11444 58.25670 58.18557
# Shear Modulus (GPa) = 36.01493 37.46591 36.74042
#
# Velocity S-wave (km/s) = 3.72785 3.80220 3.76521
# Velocity P-wave (km/s) = 6.39948 6.46179 6.43071
#
# Compressibility (1/GPa) = 0.01720743
#
# Stress axis : x y z
#
# Youngs Moduli (GPa) = 81.96014 90.75965 105.02030
#
# Poissons Ratio (x) = 0.35410 0.20551
# Poissons Ratio (y) = 0.31977 0.20043
# Poissons Ratio (z) = 0.16039 0.17321
#
# Static dielectric constant tensor:
#      x y z
#    x 2.064640 0.000000 0.000000 
#    y 0.000000 2.068110 0.000000 
#    z 0.000000 0.000000 2.075300 
# 
# From -- ./inp_files/3451.got.cif
#   From: 2010.05.17/outbox.cif.g08.bks.cpg/sg41_2_cif.got.tgz:3451.got - 2010.06.03 18:54:24.
