data_PCOD9365457
_publ_section_title
;
Structure prediction by ZEFSAII (Michael W. Deem and Ramdas Pophale) SiO2 
 PCOD9365457
Probable space group: A M A 2
;
_chemical_formula_sum "Si O2"
_cell_formula_units_Z 48
_cell_length_a 15.060256
_cell_length_b 5.027467
_cell_length_c 29.619669
_cell_angle_alpha 90.000000
_cell_angle_beta 90.000000
_cell_angle_gamma 90.000000
_cell_volume 2242.651463
_symmetry_space_group_name_H-M "A M A 2"
_symmetry_group_IT_number 40
_symmetry_cell_setting 'orthorhombic'
loop_
_space_group_symop_operation_xyz
x,y,z
-x,-y,z
1/2-x,y,z
1/2+x,-y,z
x,1/2+y,1/2+z
-x,1/2-y,1/2+z
1/2-x,1/2+y,1/2+z
1/2+x,1/2-y,1/2+z
loop_
_atom_site_type_symbol
_atom_site_label
_atom_site_fract_x
_atom_site_fract_y
_atom_site_fract_z
Si Si1 0.145681 0.422378 0.582640
Si Si2 0.064061 0.759942 0.326383
Si Si3 0.750000 0.228902 0.706494
Si Si4 0.596340 0.093097 0.638110
Si Si5 0.849806 0.664352 0.480769
Si Si6 0.750000 0.232807 0.271793
Si Si7 0.589422 0.655131 0.932197
O O1 0.250000 0.502998 0.582158
O O2 0.090676 0.675140 0.600423
O O3 0.118878 0.328923 0.532512
O O4 0.136904 0.171169 0.615696
O O5 0.157659 0.747113 0.299945
O O6 0.091808 0.819250 0.378278
O O7 0.000000 0.500000 0.324806
O O8 0.000000 0.000000 0.310536
O O9 0.662648 0.214114 0.675168
O O10 0.750000 0.470774 0.741134
O O11 0.750000 0.970326 0.736822
O O12 0.500000 0.000000 0.655385
O O13 0.750000 0.556572 0.482198
O O14 0.902670 0.446747 0.452392
O O15 0.845488 0.947944 0.456247
O O16 0.500000 0.500000 0.943896
#
# Coordination Sequence:
#
# PCOD9365457 Si02
#       7
#     8   8   4   8   8   4   8
#     4  11  22  43  64  95 142 183 226 287 331 397
#     4  11  25  48  72 105 145 180 232 287 341 421
#     4  12  26  48  70 105 140 165 230 292 346 428
#     4  12  25  43  72  98 134 182 225 278 351 413
#     4  11  24  37  64  98 135 182 233 276 327 395
#     4  12  28  46  80 103 132 191 218 284 376 414
#     4  11  23  42  62  94 139 181 222 287 335 389
#
# _framework density 21.403238000000002
#
# number of rings (size 3 to 8) (size 9 to 14) (size 15 to 20)
#    0.000    0.667    1.667    6.500    2.333    8.667 
#    0.000    0.000    0.000    0.000    0.000    0.000 
#    0.000    0.000    0.000    0.000    0.000    0.000 
#
# Total GULP energy -134123.701461 kJ/mol
# GULP energy per Si atom -5588.487561 kJ/mol
# Density = 2.135452 g / cm^3
# Si number density = 21.403238 Si / 1000 Ang^3
#
#
#
# Elastic Constant Matrix: (Units=GPa)
#
#
# Indices 1 2 3 4 5 6 
#
# 1 135.9688 32.9348 70.4701 0.0000 0.0000 0.0000
# 2 32.9348 146.7991 37.5294 0.0000 0.0000 0.0000
# 3 70.4701 37.5294 81.0199 0.0000 0.0000 0.0000
# 4 0.0000 0.0000 0.0000 2.3404 0.0000 0.0000
# 5 0.0000 0.0000 0.0000 0.0000 -0.2591 0.0000
# 6 0.0000 0.0000 0.0000 0.0000 0.0000 37.7171
#
#
#
# Elastic Compliance Matrix: (Units=1/GPa)
#
#
# Indices 1 2 3 4 5 6 
#
# 1 0.013392 -0.000030 -0.011634 0.000000 0.000000 0.000000
# 2 -0.000030 0.007727 -0.003553 0.000000 0.000000 0.000000
# 3 -0.011634 -0.003553 0.024107 0.000000 0.000000 0.000000
# 4 0.000000 0.000000 0.000000 0.427279 0.000000 0.000000
# 5 0.000000 0.000000 0.000000 0.000000 -3.858952 0.000000
# 6 0.000000 0.000000 0.000000 0.000000 0.000000 0.026513
#
#
# Mechanical properties :
#
#
# Convention : Reuss Voigt Hill
#
# Bulk Modulus (GPa) = 67.60418 71.73959 69.67188
# Shear Modulus (GPa) = -1.50395 22.81657 10.65631
#
# Velocity S-wave (km/s) = -0.83917 3.26856 2.23375
# Velocity P-wave (km/s) = 5.54217 6.91632 6.26702
#
# Compressibility (1/GPa) = 0.01479199
#
# Stress axis : x y z
#
# Youngs Moduli (GPa) = 74.67418 129.41383 41.48115
#
# Poissons Ratio (x) = 0.00391 0.48258
# Poissons Ratio (y) = 0.00226 0.14738
# Poissons Ratio (z) = 0.86874 0.45981
#
# Static dielectric constant tensor:
#      x y z
#    x 1.861770 0.000000 0.000000 
#    y 0.000000 2.024720 0.000000 
#    z 0.000000 0.000000 1.757840 
# 
# From -- ./inp_files/25730.got.cif
#   From: 2010.05.17/outbox.cif.g08.bks.cpg/sg40_13_cif.got.tgz:25730.got - 2010.06.03 18:35:42.
