data_PCOD9365934
_publ_section_title
;
Structure prediction by ZEFSAII (Michael W. Deem and Ramdas Pophale) SiO2 
 PCOD9365934
Probable space group: A B A 2
;
_chemical_formula_sum "Si O2"
_cell_formula_units_Z 52
_cell_length_a 23.786218
_cell_length_b 5.878754
_cell_length_c 13.954959
_cell_angle_alpha 90.000000
_cell_angle_beta 90.000000
_cell_angle_gamma 90.000000
_cell_volume 1951.368306
_symmetry_space_group_name_H-M "A B A 2"
_symmetry_group_IT_number 41
_symmetry_cell_setting 'orthorhombic'
loop_
_space_group_symop_operation_xyz
x,y,z
-x,-y,z
1/2-x,y,1/2+z
1/2+x,-y,1/2+z
x,1/2+y,1/2+z
-x,1/2-y,1/2+z
1/2-x,1/2+y,z
1/2+x,1/2-y,z
loop_
_atom_site_type_symbol
_atom_site_label
_atom_site_fract_x
_atom_site_fract_y
_atom_site_fract_z
Si Si1 0.949613 0.173136 0.324920
Si Si2 0.500000 0.000000 0.167522
Si Si3 0.735090 0.629133 0.699424
Si Si4 0.373576 0.116286 0.919781
Si Si5 0.060354 0.985778 0.004643
Si Si6 0.379280 0.823977 0.100628
Si Si7 0.726796 0.123866 0.479620
O O1 0.942718 0.343336 0.414535
O O2 0.969188 0.315443 0.234626
O O3 0.892416 0.023438 0.327136
O O4 0.000000 0.000000 0.339570
O O5 0.443827 0.903114 0.116733
O O6 0.750105 0.379616 0.742430
O O7 0.667844 0.632083 0.678878
O O8 0.768325 0.629064 0.596316
O O9 0.428357 0.240530 0.962312
O O10 0.329638 0.318985 0.919757
O O11 0.355659 0.947984 0.005353
O O12 0.110071 0.061255 0.074644
O O13 0.000000 0.000000 0.053353
O O14 0.758863 0.362537 0.455674
#
# Coordination Sequence:
#
# PCOD9365934 Si02
#       7
#     8   4   8   8   8   8   8
#     4  11  23  43  59  87 129 184 224 270 344 423
#     4  12  26  44  60  98 146 186 236 276 366 444
#     4  10  19  38  61  95 136 173 224 293 366 416
#     4  11  21  36  66  94 128 175 226 289 349 413
#     4  11  20  37  62  91 128 167 225 285 340 412
#     4  11  24  36  64 101 132 173 231 293 354 427
#     4  10  19  34  58  99 135 165 221 290 361 416
#
# _framework density 26.647969
#
# number of rings (size 3 to 8) (size 9 to 14) (size 15 to 20)
#    0.000    1.231    5.385    2.769    4.308    1.846 
#    0.000    0.000    0.000    1.846    0.000    0.000 
#    0.000    0.000    0.000    0.000    0.000    0.000 
#
# Total GULP energy -145161.148602 kJ/mol
# GULP energy per Si atom -5583.121100 kJ/mol
# Density = 2.658732 g / cm^3
# Si number density = 26.647969 Si / 1000 Ang^3
#
#
#
# Elastic Constant Matrix: (Units=GPa)
#
#
# Indices 1 2 3 4 5 6 
#
# 1 97.6457 41.9858 4.0784 0.0000 0.0000 0.0000
# 2 41.9858 173.8164 31.2727 0.0000 0.0000 0.0000
# 3 4.0784 31.2727 75.0874 0.0000 0.0000 0.0000
# 4 0.0000 0.0000 0.0000 20.0883 0.0000 0.0000
# 5 0.0000 0.0000 0.0000 0.0000 3.6511 0.0000
# 6 0.0000 0.0000 0.0000 0.0000 0.0000 60.4291
#
#
#
# Elastic Compliance Matrix: (Units=1/GPa)
#
#
# Indices 1 2 3 4 5 6 
#
# 1 0.011451 -0.002869 0.000573 0.000000 0.000000 0.000000
# 2 -0.002869 0.006938 -0.002734 0.000000 0.000000 0.000000
# 3 0.000573 -0.002734 0.014425 0.000000 0.000000 0.000000
# 4 0.000000 0.000000 0.000000 0.049780 0.000000 0.000000
# 5 0.000000 0.000000 0.000000 0.000000 0.273889 0.000000
# 6 0.000000 0.000000 0.000000 0.000000 0.000000 0.016548
#
#
# Mechanical properties :
#
#
# Convention : Reuss Voigt Hill
#
# Bulk Modulus (GPa) = 43.94747 55.69147 49.81947
# Shear Modulus (GPa) = 12.79833 34.78121 23.78977
#
# Velocity S-wave (km/s) = 2.19389 3.61669 2.99112
# Velocity P-wave (km/s) = 4.79012 6.19556 5.53760
#
# Compressibility (1/GPa) = 0.02275444
#
# Stress axis : x y z
#
# Youngs Moduli (GPa) = 87.33000 144.13209 69.32282
#
# Poissons Ratio (x) = 0.41352 -0.03972
# Poissons Ratio (y) = 0.25056 0.18951
# Poissons Ratio (z) = -0.05004 0.39402
#
# Static dielectric constant tensor:
#      x y z
#    x 2.189640 0.000000 0.000000 
#    y 0.000000 2.099490 0.000000 
#    z 0.000000 0.000000 2.067830 
# 
# From -- ./inp_files/10779.got.cif
#   From: 2010.05.17/outbox.cif.g08.bks.cpg/sg41_6_cif.got.tgz:10779.got - 2010.06.03 18:54:24.
