data_PCOD9365438
_publ_section_title
;
Structure prediction by ZEFSAII (Michael W. Deem and Ramdas Pophale) SiO2 
 PCOD9365438
Probable space group: A M A 2
;
_chemical_formula_sum "Si O2"
_cell_formula_units_Z 48
_cell_length_a 8.615965
_cell_length_b 9.264539
_cell_length_c 31.155774
_cell_angle_alpha 90.000000
_cell_angle_beta 90.000000
_cell_angle_gamma 90.000000
_cell_volume 2486.945596
_symmetry_space_group_name_H-M "A M A 2"
_symmetry_group_IT_number 40
_symmetry_cell_setting 'orthorhombic'
loop_
_space_group_symop_operation_xyz
x,y,z
-x,-y,z
1/2-x,y,z
1/2+x,-y,z
x,1/2+y,1/2+z
-x,1/2-y,1/2+z
1/2-x,1/2+y,1/2+z
1/2+x,1/2-y,1/2+z
loop_
_atom_site_type_symbol
_atom_site_label
_atom_site_fract_x
_atom_site_fract_y
_atom_site_fract_z
Si Si1 0.935521 0.159975 0.290520
Si Si2 0.435961 0.161222 0.384474
Si Si3 0.064139 0.339633 0.211713
Si Si4 0.064227 0.161381 0.963871
Si Si5 0.063912 0.161991 0.125542
Si Si6 0.935571 0.838005 0.544719
O O1 0.750000 0.153938 0.293453
O O2 0.005377 0.200538 0.336856
O O3 0.989024 0.268234 0.253640
O O4 0.000000 0.000000 0.280287
O O5 0.250000 0.158658 0.385447
O O6 0.501344 0.269108 0.419975
O O7 0.500000 0.000000 0.393402
O O8 0.250000 0.343748 0.216737
O O9 0.027683 0.242173 0.170205
O O10 0.000000 0.500000 0.205204
O O11 0.250000 0.159589 0.963670
O O12 0.000000 0.000000 0.968950
O O13 0.003787 0.258656 0.003041
O O14 0.250000 0.159802 0.120149
O O15 0.989141 0.249885 0.086495
O O16 0.000000 0.000000 0.126187
O O17 0.750000 0.840813 0.542094
O O18 0.000000 0.000000 0.547116
#
# Coordination Sequence:
#
# PCOD9365438 Si02
#       6
#     8   8   8   8   8   8
#     4  11  22  39  63  91 123 161 205 253 306 363
#     4  11  22  40  64  92 124 161 205 252 305 363
#     4  11  24  41  62  90 124 162 205 253 306 363
#     4  12  25  43  64  91 125 162 205 252 305 362
#     4  11  24  42  65  93 125 162 204 251 304 362
#     4  12  25  43  66  93 125 162 204 251 304 361
#
# _framework density 19.300784
#
# number of rings (size 3 to 8) (size 9 to 14) (size 15 to 20)
#    0.000    0.667    0.000   10.000    0.000    6.000 
#    0.000    3.333    0.000    0.000    0.000    0.000 
#    0.000    0.000    0.000    0.000    0.000    0.000 
#
# Total GULP energy -134405.468600 kJ/mol
# GULP energy per Si atom -5600.227858 kJ/mol
# Density = 1.925685 g / cm^3
# Si number density = 19.300784 Si / 1000 Ang^3
#
#
#
# Elastic Constant Matrix: (Units=GPa)
#
#
# Indices 1 2 3 4 5 6 
#
# 1 195.0562 91.4163 83.2562 0.0000 0.0000 0.0000
# 2 91.4163 182.0365 109.8964 0.0000 0.0000 0.0000
# 3 83.2562 109.8964 121.1789 0.0000 0.0000 0.0000
# 4 0.0000 0.0000 0.0000 35.2525 0.0000 0.0000
# 5 0.0000 0.0000 0.0000 0.0000 40.5599 0.0000
# 6 0.0000 0.0000 0.0000 0.0000 0.0000 38.6283
#
#
#
# Elastic Compliance Matrix: (Units=1/GPa)
#
#
# Indices 1 2 3 4 5 6 
#
# 1 0.007419 -0.001433 -0.003798 0.000000 0.000000 0.000000
# 2 -0.001433 0.012417 -0.010276 0.000000 0.000000 0.000000
# 3 -0.003798 -0.010276 0.020181 0.000000 0.000000 0.000000
# 4 0.000000 0.000000 0.000000 0.028367 0.000000 0.000000
# 5 0.000000 0.000000 0.000000 0.000000 0.024655 0.000000
# 6 0.000000 0.000000 0.000000 0.000000 0.000000 0.025888
#
#
# Mechanical properties :
#
#
# Convention : Reuss Voigt Hill
#
# Bulk Modulus (GPa) = 111.07390 118.60103 114.83747
# Shear Modulus (GPa) = 32.69217 37.13498 34.91358
#
# Velocity S-wave (km/s) = 4.12008 4.39112 4.25775
# Velocity P-wave (km/s) = 8.96143 9.34299 9.15420
#
# Compressibility (1/GPa) = 0.00900302
#
# Stress axis : x y z
#
# Youngs Moduli (GPa) = 134.78118 80.53557 49.55188
#
# Poissons Ratio (x) = 0.11542 0.18819
# Poissons Ratio (y) = 0.19317 0.50920
# Poissons Ratio (z) = 0.51187 0.82759
#
# Static dielectric constant tensor:
#      x y z
#    x 1.643700 0.000000 0.000000 
#    y 0.000000 1.635090 0.000000 
#    z 0.000000 0.000000 1.644800 
# 
# From -- ./inp_files/26145.got.cif
#   From: 2010.05.17/outbox.cif.g08.bks.cpg/sg40_14_cif.got.tgz:26145.got - 2010.06.03 18:35:42.
