data_PCOD9365414
_publ_section_title
;
Structure prediction by ZEFSAII (Michael W. Deem and Ramdas Pophale) SiO2 
 PCOD9365414
Probable space group: A M A 2
;
_chemical_formula_sum "Si O2"
_cell_formula_units_Z 40
_cell_length_a 10.169091
_cell_length_b 7.421920
_cell_length_c 23.572454
_cell_angle_alpha 90.000000
_cell_angle_beta 90.000000
_cell_angle_gamma 90.000000
_cell_volume 1779.111633
_symmetry_space_group_name_H-M "A M A 2"
_symmetry_group_IT_number 40
_symmetry_cell_setting 'orthorhombic'
loop_
_space_group_symop_operation_xyz
x,y,z
-x,-y,z
1/2-x,y,z
1/2+x,-y,z
x,1/2+y,1/2+z
-x,1/2-y,1/2+z
1/2-x,1/2+y,1/2+z
1/2+x,1/2-y,1/2+z
loop_
_atom_site_type_symbol
_atom_site_label
_atom_site_fract_x
_atom_site_fract_y
_atom_site_fract_z
Si Si1 0.529324 0.305505 0.710490
Si Si2 0.529324 0.694495 0.914775
Si Si3 0.750000 0.721055 0.827073
Si Si4 0.250000 0.260294 0.129636
Si Si5 0.250000 0.739706 0.495629
Si Si6 0.750000 0.127788 0.923021
Si Si7 0.750000 0.872212 0.702243
Si Si8 0.250000 0.221054 0.298192
O O1 0.500000 0.500000 0.735043
O O2 0.621807 0.332009 0.656086
O O3 0.395006 0.212751 0.691788
O O4 0.623793 0.225298 0.759401
O O5 0.500000 0.500000 0.890222
O O6 0.623793 0.774703 0.865864
O O7 0.395006 0.787249 0.933477
O O8 0.621807 0.667991 0.969178
O O9 0.750000 0.837182 0.770401
O O10 0.750000 0.500000 0.812632
O O11 0.250000 0.250000 0.062632
O O12 0.250000 0.455561 0.160497
O O13 0.250000 0.544438 0.464768
O O14 0.750000 0.162819 0.854864
#
# Coordination Sequence:
#
# PCOD9365414 Si02
#       8
#     8   8   4   4   4   4   4   4
#     4  11  23  42  71 109 147 194 248 298 380 456
#     4  11  23  42  71 109 147 194 248 298 380 456
#     4  11  21  40  73 109 156 192 224 286 372 467
#     4  11  28  50  66  96 145 197 267 324 369 432
#     4  11  28  50  66  96 145 197 267 324 369 432
#     4  12  23  41  74 109 149 193 246 306 376 449
#     4  12  23  41  74 109 149 193 246 306 376 449
#     4  11  21  40  73 109 156 192 224 286 372 467
#
# _framework density 22.483132999999999
#
# number of rings (size 3 to 8) (size 9 to 14) (size 15 to 20)
#    0.000    0.800    4.000    3.600    0.000    6.400 
#    0.000   11.000    0.000    0.000    0.000    0.000 
#    0.000    0.000    0.000    0.000    0.000    0.000 
#
# Total GULP energy -111456.632330 kJ/mol
# GULP energy per Si atom -5572.831616 kJ/mol
# Density = 2.243196 g / cm^3
# Si number density = 22.483133 Si / 1000 Ang^3
#
#
#
# Elastic Constant Matrix: (Units=GPa)
#
#
# Indices 1 2 3 4 5 6 
#
# 1 188.1030 20.9113 52.1919 0.0000 0.0000 0.0000
# 2 20.9113 81.5135 22.0992 0.0000 0.0000 0.0000
# 3 52.1919 22.0992 169.9857 0.0000 0.0000 0.0000
# 4 0.0000 0.0000 0.0000 24.5602 0.0000 0.0000
# 5 0.0000 0.0000 0.0000 0.0000 13.4119 0.0000
# 6 0.0000 0.0000 0.0000 0.0000 0.0000 79.7876
#
#
#
# Elastic Compliance Matrix: (Units=1/GPa)
#
#
# Indices 1 2 3 4 5 6 
#
# 1 0.005898 -0.001060 -0.001673 0.000000 0.000000 0.000000
# 2 -0.001060 0.012906 -0.001353 0.000000 0.000000 0.000000
# 3 -0.001673 -0.001353 0.006572 0.000000 0.000000 0.000000
# 4 0.000000 0.000000 0.000000 0.040716 0.000000 0.000000
# 5 0.000000 0.000000 0.000000 0.000000 0.074561 0.000000
# 6 0.000000 0.000000 0.000000 0.000000 0.000000 0.012533
#
#
# Mechanical properties :
#
#
# Convention : Reuss Voigt Hill
#
# Bulk Modulus (GPa) = 58.11779 70.00078 64.05928
# Shear Modulus (GPa) = 29.92335 46.51191 38.21763
#
# Velocity S-wave (km/s) = 3.65214 4.55328 4.12738
# Velocity P-wave (km/s) = 6.60983 7.67109 7.16015
#
# Compressibility (1/GPa) = 0.01720644
#
# Stress axis : x y z
#
# Youngs Moduli (GPa) = 169.54066 77.48082 152.15035
#
# Poissons Ratio (x) = 0.08209 0.25459
# Poissons Ratio (y) = 0.17963 0.20580
# Poissons Ratio (z) = 0.28368 0.10480
#
# Static dielectric constant tensor:
#      x y z
#    x 5.409350 0.000000 0.000000 
#    y 0.000000 2.040900 0.000000 
#    z 0.000000 0.000000 1.777960 
# 
# From -- ./inp_files/23905.got.cif
#   From: 2010.05.17/outbox.cif.g08.bks.cpg/sg40_12_cif.got.tgz:23905.got - 2010.06.03 18:35:42.
