data_PCOD9365011
_publ_section_title
;
Structure prediction by ZEFSAII (Michael W. Deem and Ramdas Pophale) SiO2 
 PCOD9365011
Probable space group: A M A 2
;
_chemical_formula_sum "Si O2"
_cell_formula_units_Z 48
_cell_length_a 25.066200
_cell_length_b 10.016013
_cell_length_c 9.774265
_cell_angle_alpha 90.000000
_cell_angle_beta 90.000000
_cell_angle_gamma 90.000000
_cell_volume 2453.960057
_symmetry_space_group_name_H-M "A M A 2"
_symmetry_group_IT_number 40
_symmetry_cell_setting 'orthorhombic'
loop_
_space_group_symop_operation_xyz
x,y,z
-x,-y,z
1/2-x,y,z
1/2+x,-y,z
x,1/2+y,1/2+z
-x,1/2-y,1/2+z
1/2-x,1/2+y,1/2+z
1/2+x,1/2-y,1/2+z
loop_
_atom_site_type_symbol
_atom_site_label
_atom_site_fract_x
_atom_site_fract_y
_atom_site_fract_z
Si Si1 0.479927 0.636456 0.463690
Si Si2 0.036802 0.874810 0.250564
Si Si3 0.344518 0.001012 0.270729
Si Si4 0.185908 0.254464 0.447698
Si Si5 0.863516 0.463952 0.475911
Si Si6 0.192006 0.222131 0.770607
O O1 0.500000 0.500000 0.392409
O O2 0.473861 0.756008 0.357410
O O3 0.517798 0.665043 0.595673
O O4 0.422293 0.587141 0.516882
O O5 0.097243 0.929543 0.260974
O O6 0.000000 0.000000 0.288152
O O7 0.309131 0.876077 0.316562
O O8 0.337043 0.128868 0.364996
O O9 0.330089 0.044674 0.116152
O O10 0.250000 0.275031 0.419186
O O11 0.149463 0.386070 0.424678
O O12 0.181395 0.223818 0.609191
O O13 0.848171 0.364823 0.355931
O O14 0.250000 0.162511 0.795023
#
# Coordination Sequence:
#
# PCOD9365011 Si02
#       6
#     8   8   8   8   8   8
#     4  11  24  44  64  94 129 166 215 264 317 383
#     4  11  24  43  64  95 129 166 215 264 318 383
#     4  11  22  42  65  93 130 168 210 263 321 376
#     4  10  24  42  65  96 130 167 213 264 318 381
#     4  11  22  42  66  93 129 168 211 263 319 376
#     4  10  22  41  64  91 127 167 214 262 317 381
#
# _framework density 19.560222
#
# number of rings (size 3 to 8) (size 9 to 14) (size 15 to 20)
#    0.000    1.333    5.000    1.000    2.333    4.000 
#    3.000    0.000    0.000    0.000    0.000    0.000 
#    0.000    0.000    0.000    0.000    0.000    0.000 
#
# Total GULP energy -133746.656303 kJ/mol
# GULP energy per Si atom -5572.777346 kJ/mol
# Density = 1.951570 g / cm^3
# Si number density = 19.560222 Si / 1000 Ang^3
#
#
#
# Elastic Constant Matrix: (Units=GPa)
#
#
# Indices 1 2 3 4 5 6 
#
# 1 80.9346 16.9309 26.8821 0.0000 0.0000 0.0000
# 2 16.9309 125.2180 70.9143 0.0000 0.0000 0.0000
# 3 26.8821 70.9143 65.2594 0.0000 0.0000 0.0000
# 4 0.0000 0.0000 0.0000 41.3218 0.0000 0.0000
# 5 0.0000 0.0000 0.0000 0.0000 20.8709 0.0000
# 6 0.0000 0.0000 0.0000 0.0000 0.0000 27.9057
#
#
#
# Elastic Compliance Matrix: (Units=1/GPa)
#
#
# Indices 1 2 3 4 5 6 
#
# 1 0.014986 0.003821 -0.010326 0.000000 0.000000 0.000000
# 2 0.003821 0.021739 -0.025197 0.000000 0.000000 0.000000
# 3 -0.010326 -0.025197 0.046957 0.000000 0.000000 0.000000
# 4 0.000000 0.000000 0.000000 0.024200 0.000000 0.000000
# 5 0.000000 0.000000 0.000000 0.000000 0.047914 0.000000
# 6 0.000000 0.000000 0.000000 0.000000 0.000000 0.035835
#
#
# Mechanical properties :
#
#
# Convention : Reuss Voigt Hill
#
# Bulk Modulus (GPa) = 49.31019 55.65185 52.48102
# Shear Modulus (GPa) = 19.09901 28.46532 23.78217
#
# Velocity S-wave (km/s) = 3.12816 3.81893 3.49068
# Velocity P-wave (km/s) = 6.18962 6.92524 6.56774
#
# Compressibility (1/GPa) = 0.02027978
#
# Stress axis : x y z
#
# Youngs Moduli (GPa) = 66.72949 46.00004 21.29595
#
# Poissons Ratio (x) = -0.17579 0.21990
# Poissons Ratio (y) = -0.25500 0.53659
# Poissons Ratio (z) = 0.68903 1.15906
#
# Static dielectric constant tensor:
#      x y z
#    x 1.870730 0.000000 0.000000 
#    y 0.000000 1.670560 0.000000 
#    z 0.000000 0.000000 1.665370 
# 
# From -- ./inp_files/9302.got.cif
#   From: 2010.05.17/outbox.cif.g08.bks.cpg/sg40_5_cif.got.tgz:9302.got - 2010.06.03 18:35:42.
