data_PCOD9365625
_publ_section_title
;
Structure prediction by ZEFSAII (Michael W. Deem and Ramdas Pophale) SiO2 
 PCOD9365625
Probable space group: A M A 2
;
_chemical_formula_sum "Si O2"
_cell_formula_units_Z 32
_cell_length_a 9.000000
_cell_length_b 15.000000
_cell_length_c 30.000000
_cell_angle_alpha 90.000000
_cell_angle_beta 90.000000
_cell_angle_gamma 90.000000
_cell_volume 4050.000000
_symmetry_space_group_name_H-M "A M A 2"
_symmetry_group_IT_number 40
_symmetry_cell_setting 'orthorhombic'
loop_
_space_group_symop_operation_xyz
x,y,z
-x,-y,z
1/2-x,y,z
1/2+x,-y,z
x,1/2+y,1/2+z
-x,1/2-y,1/2+z
1/2-x,1/2+y,1/2+z
1/2+x,1/2-y,1/2+z
loop_
_atom_site_type_symbol
_atom_site_label
_atom_site_fract_x
_atom_site_fract_y
_atom_site_fract_z
Si Si1 0.429012 0.098263 0.091190
Si Si2 0.932685 0.899768 0.463015
Si Si3 0.430865 0.724739 0.505406
Si Si4 0.927704 0.097061 0.824804
Si Si5 0.929978 0.598002 0.429282
Si Si6 0.070923 0.097937 0.195660
Si Si7 0.431426 0.901727 0.365198
Si Si8 0.569650 0.287028 0.784476
O O1 0.250000 0.088868 0.089654
O O2 0.468244 0.122113 0.143457
O O3 0.500000 0.000000 0.082037
O O4 0.466820 0.171646 0.052352
O O5 0.750000 0.901930 0.462528
O O6 0.994428 0.822629 0.496623
O O7 0.997279 0.875694 0.413434
O O8 0.000000 0.000000 0.472312
O O9 0.250000 0.732035 0.502871
O O10 0.494707 0.664304 0.464780
O O11 0.750000 0.085743 0.822078
O O12 0.961710 0.120415 0.876998
O O13 0.967221 0.181815 0.793250
O O14 0.000000 0.000000 0.814994
O O15 0.750000 0.597318 0.434934
O O16 0.000000 0.500000 0.436754
O O17 0.250000 0.089501 0.196825
O O18 0.031961 0.167859 0.235947
O O19 0.000000 0.000000 0.204449
O O20 0.250000 0.903536 0.367843
O O21 0.488012 0.840185 0.324510
O O22 0.500000 0.000000 0.356577
O O23 0.750000 0.295236 0.789667
#
# Coordination Sequence:
#
# PCOD9365625 Si02
#       8
#     8   8   8   8   8   8   8   8
#     4   9  19  34  52  75 103 133 165 204 250 301
#     4  11  22  37  54  73 100 133 170 209 250 295
#     4  11  21  33  51  75 101 131 169 208 251 304
#     4   9  19  33  48  67  94 128 163 202 243 287
#     4  10  19  31  47  70 101 134 168 206 250 300
#     4   9  18  33  52  74 101 132 164 202 250 300
#     4  11  21  33  50  74 105 137 168 203 246 295
#     4  10  19  32  51  74 100 132 171 210 251 298
#
# _framework density 7.9012349999999998
#
# number of rings (size 3 to 8) (size 9 to 14) (size 15 to 20)
#    0.000    2.000    0.000    5.250    0.000    5.500 
#    0.000    0.000    0.000    0.750    0.000    1.750 
#    0.000    0.000    0.000    0.000    0.000    0.000 
#
# Total GULP energy -178384.414044 kJ/mol
# GULP energy per Si atom -5574.512939 kJ/mol
# Density = 0.788325 g / cm^3
# Si number density = 7.901235 Si / 1000 Ang^3
#
#
#
# Elastic Constant Matrix: (Units=GPa)
#
#
# Indices 1 2 3 4 5 6 
#
# 1 86.8972 39.5408 37.9714 0.0000 0.0000 0.0000
# 2 39.5408 131.1532 81.1247 0.0000 0.0000 0.0000
# 3 37.9714 81.1247 122.7167 0.0000 0.0000 0.0000
# 4 0.0000 0.0000 0.0000 37.9998 0.0000 0.0000
# 5 0.0000 0.0000 0.0000 0.0000 25.1928 0.0000
# 6 0.0000 0.0000 0.0000 0.0000 0.0000 33.1548
#
#
#
# Elastic Compliance Matrix: (Units=1/GPa)
#
#
# Indices 1 2 3 4 5 6 
#
# 1 0.013801 -0.002570 -0.002571 0.000000 0.000000 0.000000
# 2 -0.002570 0.013378 -0.008048 0.000000 0.000000 0.000000
# 3 -0.002571 -0.008048 0.014265 0.000000 0.000000 0.000000
# 4 0.000000 0.000000 0.000000 0.026316 0.000000 0.000000
# 5 0.000000 0.000000 0.000000 0.000000 0.039694 0.000000
# 6 0.000000 0.000000 0.000000 0.000000 0.000000 0.030162
#
#
# Mechanical properties :
#
#
# Convention : Reuss Voigt Hill
#
# Bulk Modulus (GPa) = 66.38354 73.11566 69.74960
# Shear Modulus (GPa) = 29.58287 31.41150 30.49719
#
# Velocity S-wave (km/s) = 4.33140 4.46327 4.39783
# Velocity P-wave (km/s) = 8.19233 8.53990 8.36792
#
# Compressibility (1/GPa) = 0.01506398
#
# Stress axis : x y z
#
# Youngs Moduli (GPa) = 72.45872 74.74955 70.10146
#
# Poissons Ratio (x) = 0.19214 0.18024
# Poissons Ratio (y) = 0.18625 0.56421
# Poissons Ratio (z) = 0.18630 0.60162
#
# Static dielectric constant tensor:
#      x y z
#    x 1.532520 0.000000 0.000000 
#    y 0.000000 1.540450 0.000000 
#    z 0.000000 0.000000 1.542220 
# 
# From -- ./inp_files/26491.got.cif
#   From: 2010.05.17/outbox.ucp.g08.bks.cvg/sg40_14_cif.got.tgz:26491.got - 2010.06.11 16:26:39.
