data_PCOD9365563
_publ_section_title
;
Structure prediction by ZEFSAII (Michael W. Deem and Ramdas Pophale) SiO2 
 PCOD9365563
Probable space group: A M A 2
;
_chemical_formula_sum "Si O2"
_cell_formula_units_Z 36
_cell_length_a 21.976840
_cell_length_b 13.407483
_cell_length_c 5.751322
_cell_angle_alpha 90.000000
_cell_angle_beta 90.000000
_cell_angle_gamma 90.000000
_cell_volume 1694.650658
_symmetry_space_group_name_H-M "A M A 2"
_symmetry_group_IT_number 40
_symmetry_cell_setting 'orthorhombic'
loop_
_space_group_symop_operation_xyz
x,y,z
-x,-y,z
1/2-x,y,z
1/2+x,-y,z
x,1/2+y,1/2+z
-x,1/2-y,1/2+z
1/2-x,1/2+y,1/2+z
1/2+x,1/2-y,1/2+z
loop_
_atom_site_type_symbol
_atom_site_label
_atom_site_fract_x
_atom_site_fract_y
_atom_site_fract_z
Si Si1 0.250000 0.632261 0.464931
Si Si2 0.068979 0.849722 0.647195
Si Si3 0.449952 0.643897 0.437376
Si Si4 0.500000 0.000000 0.305417
Si Si5 0.350944 0.026188 0.717225
Si Si6 0.250000 0.630048 0.967783
O O1 0.308792 0.561447 0.431742
O O2 0.250000 0.680500 0.717475
O O3 0.250000 0.690983 0.215023
O O4 0.080553 0.743569 0.531976
O O5 0.018498 0.834709 0.848782
O O6 0.036607 0.921081 0.458687
O O7 0.127269 0.912772 0.725679
O O8 0.455610 0.561697 0.637168
O O9 0.410830 0.594873 0.232714
O O10 0.309026 0.059184 0.501590
#
# Coordination Sequence:
#
# PCOD9365563 Si02
#       6
#     4   8   8   4   8   4
#     4   8  20  38  64  92 114 166 218 260 324 364
#     4  12  23  37  59  96 123 167 205 250 320 386
#     4  12  23  37  59  96 123 167 205 250 320 386
#     4  12  22  36  60  82 140 156 206 256 304 382
#     4   9  21  38  62  86 129 161 210 264 316 363
#     4   8  20  38  64  92 114 166 218 260 324 364
#
# _framework density 21.243317000000001
#
# number of rings (size 3 to 8) (size 9 to 14) (size 15 to 20)
#    1.333    0.000    6.667    0.000    3.111    0.000 
#    0.000    4.444    0.000    2.667    0.000    0.000 
#    0.000    0.000    0.000    0.000    0.000    0.000 
#
# Total GULP energy -100286.969079 kJ/mol
# GULP energy per Si atom -5571.498282 kJ/mol
# Density = 2.119497 g / cm^3
# Si number density = 21.243317 Si / 1000 Ang^3
#
#
#
# Elastic Constant Matrix: (Units=GPa)
#
#
# Indices 1 2 3 4 5 6 
#
# 1 49.4530 -1.4214 -1.0214 0.0000 0.0000 0.0000
# 2 -1.4214 95.3288 6.5247 0.0000 0.0000 0.0000
# 3 -1.0214 6.5247 100.9343 0.0000 0.0000 0.0000
# 4 0.0000 0.0000 0.0000 24.5840 0.0000 0.0000
# 5 0.0000 0.0000 0.0000 0.0000 10.8195 0.0000
# 6 0.0000 0.0000 0.0000 0.0000 0.0000 -5.9460
#
#
#
# Elastic Compliance Matrix: (Units=1/GPa)
#
#
# Indices 1 2 3 4 5 6 
#
# 1 0.020233 0.000289 0.000186 0.000000 0.000000 0.000000
# 2 0.000289 0.010541 -0.000678 0.000000 0.000000 0.000000
# 3 0.000186 -0.000678 0.009953 0.000000 0.000000 0.000000
# 4 0.000000 0.000000 0.000000 0.040677 0.000000 0.000000
# 5 0.000000 0.000000 0.000000 0.000000 0.092426 0.000000
# 6 0.000000 0.000000 0.000000 0.000000 0.000000 -0.168181
#
#
# Mechanical properties :
#
#
# Convention : Reuss Voigt Hill
#
# Bulk Modulus (GPa) = 24.80132 28.20887 26.50509
# Shear Modulus (GPa) = 256.46865 22.00044 139.23455
#
# Velocity S-wave (km/s) = 10.99960 3.22163 8.10463
# Velocity P-wave (km/s) = 13.15378 5.21021 10.00420
#
# Compressibility (1/GPa) = 0.04032044
#
# Stress axis : x y z
#
# Youngs Moduli (GPa) = 49.42330 94.86982 100.47042
#
# Poissons Ratio (x) = -0.02741 -0.01869
# Poissons Ratio (y) = -0.01428 0.06817
# Poissons Ratio (z) = -0.00920 0.06437
#
# Static dielectric constant tensor:
#      x y z
#    x 1.833390 0.000000 0.000000 
#    y 0.000000 1.711470 0.000000 
#    z 0.000000 0.000000 1.828080 
# 
# From -- ./inp_files/2636.got.cif
#   From: 2010.05.17/outbox.cif.g08.bks.cpg/sg40_2_cif.got.tgz:2636.got - 2010.06.03 18:35:42.
