data_PCOD9365955
_publ_section_title
;
Structure prediction by ZEFSAII (Michael W. Deem and Ramdas Pophale) SiO2 
 PCOD9365955
Probable space group: A B A 2
;
_chemical_formula_sum "Si O2"
_cell_formula_units_Z 64
_cell_length_a 14.342098
_cell_length_b 14.989045
_cell_length_c 16.209523
_cell_angle_alpha 90.000000
_cell_angle_beta 90.000000
_cell_angle_gamma 90.000000
_cell_volume 3484.631708
_symmetry_space_group_name_H-M "A B A 2"
_symmetry_group_IT_number 41
_symmetry_cell_setting 'orthorhombic'
loop_
_space_group_symop_operation_xyz
x,y,z
-x,-y,z
1/2-x,y,1/2+z
1/2+x,-y,1/2+z
x,1/2+y,1/2+z
-x,1/2-y,1/2+z
1/2-x,1/2+y,z
1/2+x,1/2-y,z
loop_
_atom_site_type_symbol
_atom_site_label
_atom_site_fract_x
_atom_site_fract_y
_atom_site_fract_z
Si Si1 0.802632 0.554247 0.500000
Si Si2 0.170771 0.147805 0.342017
Si Si3 0.144259 0.827682 0.754189
Si Si4 0.802632 0.054247 0.323061
Si Si5 0.670771 0.852195 0.481044
Si Si6 0.976458 0.603962 0.917407
Si Si7 0.144259 0.327682 0.068872
Si Si8 0.976458 0.603962 0.405654
O O1 0.750000 0.552320 0.411530
O O2 0.819361 0.450638 0.520853
O O3 0.733793 0.607697 0.558777
O O4 0.899803 0.602810 0.479055
O O5 0.175219 0.227900 0.277800
O O6 0.180639 0.049363 0.302208
O O7 0.250000 0.159084 0.411530
O O8 0.571092 0.350230 0.388218
O O9 0.107655 0.832752 0.661530
O O10 0.069856 0.856595 0.823675
O O11 0.233794 0.892303 0.764284
O O12 0.899804 0.102810 0.344006
O O13 0.675219 0.772100 0.545261
O O14 0.571091 0.850230 0.434843
O O15 0.000000 0.500000 0.933284
O O16 0.930144 0.643406 0.999386
O O17 0.000000 0.500000 0.389778
#
# Coordination Sequence:
#
# PCOD9365955 Si02
#       8
#     8   8   8   8   8   8   8   8
#     4   8  17  35  56  76 101 137 179 218 257 308
#     4  10  19  35  58  78 102 143 186 218 253 312
#     4  11  22  34  52  82 114 138 168 218 273 317
#     4   8  17  35  56  76 101 137 179 218 257 308
#     4  10  19  35  58  78 102 143 186 218 253 312
#     4   9  18  36  59  78 100 138 184 221 257 311
#     4  11  22  34  52  82 114 138 168 218 273 317
#     4   9  18  36  59  78 100 138 184 221 257 311
#
# _framework density 18.366358999999999
#
# number of rings (size 3 to 8) (size 9 to 14) (size 15 to 20)
#    0.000    2.500    0.000    4.500    0.000    1.500 
#    0.000    5.000    0.000    4.500    0.000    0.000 
#    0.000    0.000    0.000    0.000    0.000    0.000 
#
# Total GULP energy -178497.961298 kJ/mol
# GULP energy per Si atom -5578.061291 kJ/mol
# Density = 1.832456 g / cm^3
# Si number density = 18.366359 Si / 1000 Ang^3
#
#
#
# Elastic Constant Matrix: (Units=GPa)
#
#
# Indices 1 2 3 4 5 6 
#
# 1 103.8760 35.7786 10.2248 0.0000 0.0000 0.0000
# 2 35.7786 76.9266 46.3821 0.0000 0.0000 0.0000
# 3 10.2248 46.3821 52.0137 0.0000 0.0000 0.0000
# 4 0.0000 0.0000 0.0000 -23.6426 0.0000 0.0000
# 5 0.0000 0.0000 0.0000 0.0000 11.7054 0.0000
# 6 0.0000 0.0000 0.0000 0.0000 0.0000 8.7216
#
#
#
# Elastic Compliance Matrix: (Units=1/GPa)
#
#
# Indices 1 2 3 4 5 6 
#
# 1 0.012213 -0.009155 0.005763 0.000000 0.000000 0.000000
# 2 -0.009155 0.034979 -0.029392 0.000000 0.000000 0.000000
# 3 0.005763 -0.029392 0.044303 0.000000 0.000000 0.000000
# 4 0.000000 0.000000 0.000000 -0.042297 0.000000 0.000000
# 5 0.000000 0.000000 0.000000 0.000000 0.085431 0.000000
# 6 0.000000 0.000000 0.000000 0.000000 0.000000 0.114658
#
#
# Mechanical properties :
#
#
# Convention : Reuss Voigt Hill
#
# Bulk Modulus (GPa) = 38.57096 46.39858 42.48477
# Shear Modulus (GPa) = 15.45610 8.71894 12.08752
#
# Velocity S-wave (km/s) = 2.90409 2.18118 2.56819
# Velocity P-wave (km/s) = 5.68255 5.62681 5.65475
#
# Compressibility (1/GPa) = 0.02592624
#
# Stress axis : x y z
#
# Youngs Moduli (GPa) = 81.88090 28.58864 22.57207
#
# Poissons Ratio (x) = 0.26172 -0.13008
# Poissons Ratio (y) = 0.74961 0.66344
# Poissons Ratio (z) = -0.47187 0.84028
#
# Static dielectric constant tensor:
#      x y z
#    x 1.652870 0.000000 0.000000 
#    y 0.000000 1.659130 0.000000 
#    z 0.000000 0.000000 1.581690 
# 
# From -- ./inp_files/10466.got.cif
#   From: 2010.05.17/outbox.cif.g08.bks.cpg/sg41_6_cif.got.tgz:10466.got - 2010.06.03 18:54:24.
