data_PCOD9365874
_publ_section_title
;
Structure prediction by ZEFSAII (Michael W. Deem and Ramdas Pophale) SiO2 
 PCOD9365874
Probable space group: A B A 2
;
_chemical_formula_sum "Si O2"
_cell_formula_units_Z 44
_cell_length_a 12.787347
_cell_length_b 17.032564
_cell_length_c 7.613201
_cell_angle_alpha 90.000000
_cell_angle_beta 90.000000
_cell_angle_gamma 90.000000
_cell_volume 1658.165122
_symmetry_space_group_name_H-M "A B A 2"
_symmetry_group_IT_number 41
_symmetry_cell_setting 'orthorhombic'
loop_
_space_group_symop_operation_xyz
x,y,z
-x,-y,z
1/2-x,y,1/2+z
1/2+x,-y,1/2+z
x,1/2+y,1/2+z
-x,1/2-y,1/2+z
1/2-x,1/2+y,z
1/2+x,1/2-y,z
loop_
_atom_site_type_symbol
_atom_site_label
_atom_site_fract_x
_atom_site_fract_y
_atom_site_fract_z
Si Si1 0.152512 0.372173 0.039870
Si Si2 0.361213 0.738548 0.760420
Si Si3 0.297774 0.573935 0.762562
Si Si4 0.852699 0.517029 0.583681
Si Si5 0.000000 0.000000 0.553325
Si Si6 0.434675 0.839270 0.428558
O O1 0.126057 0.351152 0.242346
O O2 0.054145 0.423702 0.968426
O O3 0.170793 0.302125 0.905093
O O4 0.257973 0.421605 0.049410
O O5 0.284696 0.665511 0.725103
O O6 0.391637 0.780450 0.578011
O O7 0.459655 0.697115 0.852941
O O8 0.187687 0.526124 0.757016
O O9 0.335066 0.555694 0.956538
O O10 0.397778 0.536192 0.656372
O O11 0.944669 0.575684 0.528147
#
# Coordination Sequence:
#
# PCOD9365874 Si02
#       6
#     8   8   8   8   4   8
#     4  11  24  46  74 107 144 196 237 315 359 449
#     4  12  25  44  73 107 145 182 259 298 377 430
#     4  11  22  43  66 102 136 187 232 305 348 449
#     4  11  23  44  69  96 147 190 242 292 383 421
#     4  10  18  44  76  88 138 186 244 280 354 430
#     4  12  23  46  75 106 141 196 238 314 365 450
#
# _framework density 26.535354999999999
#
# number of rings (size 3 to 8) (size 9 to 14) (size 15 to 20)
#    0.000    0.727    7.273    1.091    0.000    1.455 
#    3.273    4.545    0.000    0.000    0.000    0.000 
#    0.000    0.000    0.000    0.000    0.000    0.000 
#
# Total GULP energy -122855.582779 kJ/mol
# GULP energy per Si atom -5584.344672 kJ/mol
# Density = 2.647496 g / cm^3
# Si number density = 26.535355 Si / 1000 Ang^3
#
#
#
# Elastic Constant Matrix: (Units=GPa)
#
#
# Indices 1 2 3 4 5 6 
#
# 1 49.0322 21.3811 32.1611 0.0000 0.0000 0.0000
# 2 21.3811 177.3449 64.2822 0.0000 0.0000 0.0000
# 3 32.1611 64.2822 127.1978 0.0000 0.0000 0.0000
# 4 0.0000 0.0000 0.0000 52.7081 0.0000 0.0000
# 5 0.0000 0.0000 0.0000 0.0000 34.6811 0.0000
# 6 0.0000 0.0000 0.0000 0.0000 0.0000 37.3635
#
#
#
# Elastic Compliance Matrix: (Units=1/GPa)
#
#
# Indices 1 2 3 4 5 6 
#
# 1 0.024559 -0.000869 -0.005770 0.000000 0.000000 0.000000
# 2 -0.000869 0.006934 -0.003284 0.000000 0.000000 0.000000
# 3 -0.005770 -0.003284 0.010981 0.000000 0.000000 0.000000
# 4 0.000000 0.000000 0.000000 0.018972 0.000000 0.000000
# 5 0.000000 0.000000 0.000000 0.000000 0.028834 0.000000
# 6 0.000000 0.000000 0.000000 0.000000 0.000000 0.026764
#
#
# Mechanical properties :
#
#
# Convention : Reuss Voigt Hill
#
# Bulk Modulus (GPa) = 44.19821 65.46930 54.83375
# Shear Modulus (GPa) = 34.61800 40.66725 37.64262
#
# Velocity S-wave (km/s) = 3.61584 3.91905 3.77050
# Velocity P-wave (km/s) = 5.84165 6.72344 6.29800
#
# Compressibility (1/GPa) = 0.02262535
#
# Stress axis : x y z
#
# Youngs Moduli (GPa) = 40.71894 144.21557 91.06976
#
# Poissons Ratio (x) = 0.12537 0.52549
# Poissons Ratio (y) = 0.03540 0.29912
# Poissons Ratio (z) = 0.23495 0.47367
#
# Static dielectric constant tensor:
#      x y z
#    x 2.312730 0.000000 0.000000 
#    y 0.000000 2.136090 0.000000 
#    z 0.000000 0.000000 2.197300 
# 
# From -- ./inp_files/2501.got.cif
#   From: 2010.05.17/outbox.cif.g08.bks.cpg/sg41_2_cif.got.tgz:2501.got - 2010.06.03 18:54:24.
