data_PCOD9365720
_publ_section_title
;
Structure prediction by ZEFSAII (Michael W. Deem and Ramdas Pophale) SiO2 
 PCOD9365720
Probable space group: A B A 2
;
_chemical_formula_sum "Si O2"
_cell_formula_units_Z 52
_cell_length_a 18.390874
_cell_length_b 9.339080
_cell_length_c 16.112891
_cell_angle_alpha 90.000000
_cell_angle_beta 90.000000
_cell_angle_gamma 90.000000
_cell_volume 2767.450960
_symmetry_space_group_name_H-M "A B A 2"
_symmetry_group_IT_number 41
_symmetry_cell_setting 'orthorhombic'
loop_
_space_group_symop_operation_xyz
x,y,z
-x,-y,z
1/2-x,y,1/2+z
1/2+x,-y,1/2+z
x,1/2+y,1/2+z
-x,1/2-y,1/2+z
1/2-x,1/2+y,z
1/2+x,1/2-y,z
loop_
_atom_site_type_symbol
_atom_site_label
_atom_site_fract_x
_atom_site_fract_y
_atom_site_fract_z
Si Si1 0.947691 0.792910 0.832880
Si Si2 0.834219 0.320967 0.478801
Si Si3 0.075630 0.135888 0.513639
Si Si4 0.309725 0.351950 0.942237
Si Si5 0.597426 0.087818 0.289678
Si Si6 0.420575 0.341277 0.600977
Si Si7 0.000000 0.500000 0.856664
O O1 0.901797 0.792090 0.917019
O O2 0.027654 0.860332 0.842657
O O3 0.960690 0.628053 0.807163
O O4 0.906541 0.914862 0.779651
O O5 0.811145 0.485015 0.472880
O O6 0.767900 0.221454 0.451375
O O7 0.865256 0.275882 0.567237
O O8 0.133607 0.259070 0.496940
O O9 0.053892 0.077120 0.422098
O O10 0.002094 0.180763 0.563557
O O11 0.102817 0.996136 0.563597
O O12 0.335464 0.362487 0.845762
O O13 0.583789 0.152558 0.199629
#
# Coordination Sequence:
#
# PCOD9365720 Si02
#       7
#     8   8   8   8   8   8   4
#     4  10  18  35  59  87 115 157 191 240 284 354
#     4  11  22  37  60  85 118 159 200 238 293 361
#     4  10  18  35  61  87 116 158 195 231 288 357
#     4  11  23  38  62  85 115 157 204 239 288 365
#     4  10  21  38  60  91 121 149 195 251 303 341
#     4  10  20  39  62  87 122 151 190 247 307 340
#     4  10  16  30  60  88 114 148 202 248 258 354
#
# _framework density 18.789854999999999
#
# number of rings (size 3 to 8) (size 9 to 14) (size 15 to 20)
#    0.000    1.846    4.615    2.769    0.000    0.615 
#    0.000   10.769    0.000    0.000    0.000    0.000 
#    0.000    0.000    0.000    0.000    0.000    0.000 
#
# Total GULP energy -144836.566764 kJ/mol
# GULP energy per Si atom -5570.637183 kJ/mol
# Density = 1.874709 g / cm^3
# Si number density = 18.789855 Si / 1000 Ang^3
#
#
#
# Elastic Constant Matrix: (Units=GPa)
#
#
# Indices 1 2 3 4 5 6 
#
# 1 69.7631 49.6508 50.9539 0.0000 0.0000 0.0000
# 2 49.6508 122.4091 34.3729 0.0000 0.0000 0.0000
# 3 50.9539 34.3729 75.8016 0.0000 0.0000 0.0000
# 4 0.0000 0.0000 0.0000 17.7963 0.0000 0.0000
# 5 0.0000 0.0000 0.0000 0.0000 6.0747 0.0000
# 6 0.0000 0.0000 0.0000 0.0000 0.0000 33.6671
#
#
#
# Elastic Compliance Matrix: (Units=1/GPa)
#
#
# Indices 1 2 3 4 5 6 
#
# 1 0.034584 -0.008594 -0.019350 0.000000 0.000000 0.000000
# 2 -0.008594 0.011497 0.000564 0.000000 0.000000 0.000000
# 3 -0.019350 0.000564 0.025944 0.000000 0.000000 0.000000
# 4 0.000000 0.000000 0.000000 0.056191 0.000000 0.000000
# 5 0.000000 0.000000 0.000000 0.000000 0.164617 0.000000
# 6 0.000000 0.000000 0.000000 0.000000 0.000000 0.029703
#
#
# Mechanical properties :
#
#
# Convention : Reuss Voigt Hill
#
# Bulk Modulus (GPa) = 57.92629 59.76987 58.84808
# Shear Modulus (GPa) = 13.05308 20.37403 16.71355
#
# Velocity S-wave (km/s) = 2.63855 3.29646 2.98568
# Velocity P-wave (km/s) = 6.33861 6.80937 6.57821
#
# Compressibility (1/GPa) = 0.01726332
#
# Stress axis : x y z
#
# Youngs Moduli (GPa) = 28.91530 86.97969 38.54450
#
# Poissons Ratio (x) = 0.74751 0.74584
# Poissons Ratio (y) = 0.24850 -0.02172
# Poissons Ratio (z) = 0.55952 -0.04902
#
# Static dielectric constant tensor:
#      x y z
#    x 1.658830 0.000000 0.000000 
#    y 0.000000 1.716400 0.000000 
#    z 0.000000 0.000000 1.642840 
# 
# From -- ./inp_files/10552.got.cif
#   From: 2010.05.17/outbox.cif.g08.bks.cpg/sg41_6_cif.got.tgz:10552.got - 2010.06.03 18:54:24.
