data_PCOD9365805
_publ_section_title
;
Structure prediction by ZEFSAII (Michael W. Deem and Ramdas Pophale) SiO2 
 PCOD9365805
Probable space group: A B A 2
;
_chemical_formula_sum "Si O2"
_cell_formula_units_Z 56
_cell_length_a 13.241548
_cell_length_b 19.647230
_cell_length_c 9.002116
_cell_angle_alpha 90.000000
_cell_angle_beta 90.000000
_cell_angle_gamma 90.000000
_cell_volume 2341.988150
_symmetry_space_group_name_H-M "A B A 2"
_symmetry_group_IT_number 41
_symmetry_cell_setting 'orthorhombic'
loop_
_space_group_symop_operation_xyz
x,y,z
-x,-y,z
1/2-x,y,1/2+z
1/2+x,-y,1/2+z
x,1/2+y,1/2+z
-x,1/2-y,1/2+z
1/2-x,1/2+y,z
1/2+x,1/2-y,z
loop_
_atom_site_type_symbol
_atom_site_label
_atom_site_fract_x
_atom_site_fract_y
_atom_site_fract_z
Si Si1 0.000000 0.500000 0.542760
Si Si2 0.149279 0.537981 0.283165
Si Si3 0.500000 0.500000 0.525866
Si Si4 0.327868 0.901405 0.246166
Si Si5 0.201537 0.325200 0.953042
Si Si6 0.068487 0.223122 0.091929
Si Si7 0.981156 0.613623 0.780108
Si Si8 0.536837 0.339263 0.775011
O O1 0.912085 0.472194 0.436504
O O2 0.960359 0.561026 0.646334
O O3 0.224476 0.472749 0.295538
O O4 0.143192 0.619530 0.261564
O O5 0.096000 0.510994 0.132174
O O6 0.496583 0.565600 0.419537
O O7 0.297829 0.838766 0.354003
O O8 0.449585 0.896634 0.259775
O O9 0.297142 0.881155 0.081891
O O10 0.111300 0.340220 0.836149
O O11 0.174224 0.256887 0.041604
O O12 0.066086 0.164667 0.216527
O O13 0.995495 0.283523 0.152817
O O14 0.029207 0.192378 0.937835
#
# Coordination Sequence:
#
# PCOD9365805 Si02
#       8
#     4   8   4   8   8   8   8   8
#     4  10  20  30  66  94 120 156 214 286 310 376
#     4  11  18  37  60  95 128 162 220 272 333 391
#     4  10  18  34  62  92 126 154 216 286 322 380
#     4  11  23  39  62  93 130 171 220 274 349 401
#     4  11  25  40  62  94 133 179 215 279 349 408
#     4  11  22  38  61  96 129 174 231 276 325 406
#     4  11  20  37  60  98 125 162 228 279 318 393
#     4  11  21  37  65  94 127 172 225 272 325 399
#
# _framework density 23.911307999999998
#
# number of rings (size 3 to 8) (size 9 to 14) (size 15 to 20)
#    0.000    1.143    7.143    0.857    4.000    0.000 
#    0.000    0.000    0.000   15.429    0.000    0.000 
#    0.000    0.000    0.000    0.000    0.000    0.000 
#
# Total GULP energy -155965.129705 kJ/mol
# GULP energy per Si atom -5570.183204 kJ/mol
# Density = 2.385688 g / cm^3
# Si number density = 23.911308 Si / 1000 Ang^3
#
#
#
# Elastic Constant Matrix: (Units=GPa)
#
#
# Indices 1 2 3 4 5 6 
#
# 1 20.1783 5.2312 7.5604 0.0000 0.0000 0.0000
# 2 5.2312 124.7731 36.8182 0.0000 0.0000 0.0000
# 3 7.5604 36.8182 121.6889 0.0000 0.0000 0.0000
# 4 0.0000 0.0000 0.0000 52.1805 0.0000 0.0000
# 5 0.0000 0.0000 0.0000 0.0000 13.2018 0.0000
# 6 0.0000 0.0000 0.0000 0.0000 0.0000 12.6377
#
#
#
# Elastic Compliance Matrix: (Units=1/GPa)
#
#
# Indices 1 2 3 4 5 6 
#
# 1 0.050936 -0.001320 -0.002765 0.000000 0.000000 0.000000
# 2 -0.001320 0.008834 -0.002591 0.000000 0.000000 0.000000
# 3 -0.002765 -0.002591 0.009173 0.000000 0.000000 0.000000
# 4 0.000000 0.000000 0.000000 0.019164 0.000000 0.000000
# 5 0.000000 0.000000 0.000000 0.000000 0.075747 0.000000
# 6 0.000000 0.000000 0.000000 0.000000 0.000000 0.079128
#
#
# Mechanical properties :
#
#
# Convention : Reuss Voigt Hill
#
# Bulk Modulus (GPa) = 17.98804 40.65111 29.31957
# Shear Modulus (GPa) = 18.19063 30.07270 24.13167
#
# Velocity S-wave (km/s) = 2.76117 3.55022 3.18026
# Velocity P-wave (km/s) = 4.20768 5.81748 5.07679
#
# Compressibility (1/GPa) = 0.05559250
#
# Stress axis : x y z
#
# Youngs Moduli (GPa) = 19.63231 113.19371 109.01078
#
# Poissons Ratio (x) = 0.14937 0.30145
# Poissons Ratio (y) = 0.02591 0.28244
# Poissons Ratio (z) = 0.05429 0.29328
#
# Static dielectric constant tensor:
#      x y z
#    x 2.022310 0.000000 0.000000 
#    y 0.000000 2.095540 0.000000 
#    z 0.000000 0.000000 1.872860 
# 
# From -- ./inp_files/2725.got.cif
#   From: 2010.05.17/outbox.cif.g08.bks.cpg/sg41_2_cif.got.tgz:2725.got - 2010.06.03 18:54:24.
