data_PCOD9365437
_publ_section_title
;
Structure prediction by ZEFSAII (Michael W. Deem and Ramdas Pophale) SiO2 
 PCOD9365437
Probable space group: A M A 2
;
_chemical_formula_sum "Si O2"
_cell_formula_units_Z 44
_cell_length_a 27.767301
_cell_length_b 5.194396
_cell_length_c 13.559678
_cell_angle_alpha 90.000000
_cell_angle_beta 90.000000
_cell_angle_gamma 90.000000
_cell_volume 1955.771441
_symmetry_space_group_name_H-M "A M A 2"
_symmetry_group_IT_number 40
_symmetry_cell_setting 'orthorhombic'
loop_
_space_group_symop_operation_xyz
x,y,z
-x,-y,z
1/2-x,y,z
1/2+x,-y,z
x,1/2+y,1/2+z
-x,1/2-y,1/2+z
1/2-x,1/2+y,1/2+z
1/2+x,1/2-y,1/2+z
loop_
_atom_site_type_symbol
_atom_site_label
_atom_site_fract_x
_atom_site_fract_y
_atom_site_fract_z
Si Si1 0.045172 0.329074 0.518360
Si Si2 0.750000 0.590159 0.478445
Si Si3 0.449102 0.621698 0.810065
Si Si4 0.000000 0.000000 0.690216
Si Si5 0.250000 0.408388 0.843882
Si Si6 0.852856 0.979900 0.975248
Si Si7 0.149222 0.017271 0.340614
O O1 0.053319 0.132371 0.428446
O O2 0.095978 0.476099 0.528650
O O3 0.000000 0.500000 0.483350
O O4 0.025643 0.197025 0.615815
O O5 0.750000 0.378870 0.388771
O O6 0.801692 0.533944 0.528894
O O7 0.750000 0.879502 0.433716
O O8 0.500000 0.500000 0.784780
O O9 0.457169 0.896005 0.759464
O O10 0.399407 0.494849 0.778218
O O11 0.200125 0.464469 0.789267
O O12 0.851545 0.195970 0.887565
O O13 0.852380 0.697280 0.927179
#
# Coordination Sequence:
#
# PCOD9365437 Si02
#       7
#     8   4   8   4   4   8   8
#     4  11  22  39  61  86 125 163 210 255 314 367
#     4   8  14  28  48  85 117 149 199 243 298 362
#     4  11  22  39  61  86 125 163 210 255 314 367
#     4  12  26  40  60  90 120 172 206 260 310 380
#     4   8  14  28  48  85 117 149 199 243 298 362
#     4   9  18  31  57  85 120 159 198 251 303 363
#     4   9  18  31  57  85 120 159 198 251 303 363
#
# _framework density 22.497517999999999
#
# number of rings (size 3 to 8) (size 9 to 14) (size 15 to 20)
#    0.000    2.182    1.818    1.636    5.091    0.000 
#    0.000    0.000    0.000    1.091    0.000    5.091 
#    0.000    0.000    0.000    0.000    0.000    0.000 
#
# Total GULP energy -122576.379496 kJ/mol
# GULP energy per Si atom -5571.653613 kJ/mol
# Density = 2.244631 g / cm^3
# Si number density = 22.497518 Si / 1000 Ang^3
#
#
#
# Elastic Constant Matrix: (Units=GPa)
#
#
# Indices 1 2 3 4 5 6 
#
# 1 256.2142 13.3527 14.5233 0.0000 0.0000 0.0000
# 2 13.3527 77.6188 6.2172 0.0000 0.0000 0.0000
# 3 14.5233 6.2172 60.2535 0.0000 0.0000 0.0000
# 4 0.0000 0.0000 0.0000 15.8794 0.0000 0.0000
# 5 0.0000 0.0000 0.0000 0.0000 -6.4489 0.0000
# 6 0.0000 0.0000 0.0000 0.0000 0.0000 38.4992
#
#
#
# Elastic Compliance Matrix: (Units=1/GPa)
#
#
# Indices 1 2 3 4 5 6 
#
# 1 0.003986 -0.000614 -0.000897 0.000000 0.000000 0.000000
# 2 -0.000614 0.013085 -0.001202 0.000000 0.000000 0.000000
# 3 -0.000897 -0.001202 0.016937 0.000000 0.000000 0.000000
# 4 0.000000 0.000000 0.000000 0.062975 0.000000 0.000000
# 5 0.000000 0.000000 0.000000 0.000000 -0.155065 0.000000
# 6 0.000000 0.000000 0.000000 0.000000 0.000000 0.025975
#
#
# Mechanical properties :
#
#
# Convention : Reuss Voigt Hill
#
# Bulk Modulus (GPa) = 34.98804 51.36366 43.17585
# Shear Modulus (GPa) = -291.48566 33.58549 -128.95008
#
# Velocity S-wave (km/s) = -11.39494 3.86794 -7.57904
# Velocity P-wave (km/s) = 12.55152 6.54433 7.57338
#
# Compressibility (1/GPa) = 0.02858120
#
# Stress axis : x y z
#
# Youngs Moduli (GPa) = 250.88806 76.42126 59.04266
#
# Poissons Ratio (x) = 0.04691 0.05298
# Poissons Ratio (y) = 0.15399 0.07098
# Poissons Ratio (z) = 0.22515 0.09188
#
# Static dielectric constant tensor:
#      x y z
#    x 1.956740 0.000000 0.000000 
#    y 0.000000 1.977230 0.000000 
#    z 0.000000 0.000000 1.745510 
# 
# From -- ./inp_files/3066.got.cif
#   From: 2010.05.17/outbox.cif.g08.bks.cpg/sg40_2_cif.got.tgz:3066.got - 2010.06.03 18:35:42.
