data_PCOD9365039
_publ_section_title
;
Structure prediction by ZEFSAII (Michael W. Deem and Ramdas Pophale) SiO2 
 PCOD9365039
Probable space group: A M A 2
;
_chemical_formula_sum "Si O2"
_cell_formula_units_Z 48
_cell_length_a 9.013207
_cell_length_b 27.656804
_cell_length_c 9.622119
_cell_angle_alpha 90.000000
_cell_angle_beta 90.000000
_cell_angle_gamma 90.000000
_cell_volume 2398.568141
_symmetry_space_group_name_H-M "A M A 2"
_symmetry_group_IT_number 40
_symmetry_cell_setting 'orthorhombic'
loop_
_space_group_symop_operation_xyz
x,y,z
-x,-y,z
1/2-x,y,z
1/2+x,-y,z
x,1/2+y,1/2+z
-x,1/2-y,1/2+z
1/2-x,1/2+y,1/2+z
1/2+x,1/2-y,1/2+z
loop_
_atom_site_type_symbol
_atom_site_label
_atom_site_fract_x
_atom_site_fract_y
_atom_site_fract_z
Si Si1 0.579306 0.915000 0.798810
Si Si2 0.077599 0.549513 0.991222
Si Si3 0.071946 0.221758 0.414154
Si Si4 0.074337 0.449497 0.570850
Si Si5 0.572477 0.627115 0.803600
Si Si6 0.927870 0.302937 0.233318
O O1 0.750000 0.916248 0.850151
O O2 0.573173 0.945065 0.657043
O O3 0.542927 0.859545 0.759989
O O4 0.474642 0.936615 0.915517
O O5 0.250000 0.551421 0.947361
O O6 0.000000 0.500000 0.948266
O O7 0.987388 0.593938 0.928161
O O8 0.250000 0.220689 0.408003
O O9 0.029042 0.212505 0.575790
O O10 0.004821 0.178559 0.321208
O O11 0.009732 0.270844 0.348284
O O12 0.250000 0.455355 0.581170
O O13 0.031535 0.404112 0.667755
O O14 0.000000 0.500000 0.613153
O O15 0.750000 0.632712 0.808102
O O16 0.750000 0.295682 0.244425
#
# Coordination Sequence:
#
# PCOD9365039 Si02
#       6
#     8   8   8   8   8   8
#     4  10  22  42  65  90 125 164 206 258 309 367
#     4  11  22  39  63  93 124 161 206 256 311 372
#     4  11  24  43  67  95 127 165 208 258 313 376
#     4  11  25  42  62  92 127 166 211 258 308 370
#     4  11  24  42  64  92 126 164 209 262 311 369
#     4  10  23  44  65  94 129 162 207 258 310 374
#
# _framework density 20.011939000000002
#
# number of rings (size 3 to 8) (size 9 to 14) (size 15 to 20)
#    0.000    1.333    1.667    3.000    2.333    8.667 
#    0.000    0.000    0.000    0.000    0.000    0.000 
#    0.000    0.000    0.000    0.000    0.000    0.000 
#
# Total GULP energy -134196.459557 kJ/mol
# GULP energy per Si atom -5591.519148 kJ/mol
# Density = 1.996639 g / cm^3
# Si number density = 20.011939 Si / 1000 Ang^3
#
#
#
# Elastic Constant Matrix: (Units=GPa)
#
#
# Indices 1 2 3 4 5 6 
#
# 1 29.6627 18.0936 16.0547 0.0000 0.0000 0.0000
# 2 18.0936 71.5234 -7.2758 0.0000 0.0000 0.0000
# 3 16.0547 -7.2758 55.2222 0.0000 0.0000 0.0000
# 4 0.0000 0.0000 0.0000 23.9173 0.0000 0.0000
# 5 0.0000 0.0000 0.0000 0.0000 15.9347 0.0000
# 6 0.0000 0.0000 0.0000 0.0000 0.0000 17.7012
#
#
#
# Elastic Compliance Matrix: (Units=1/GPa)
#
#
# Indices 1 2 3 4 5 6 
#
# 1 0.052063 -0.014910 -0.017101 0.000000 0.000000 0.000000
# 2 -0.014910 0.018441 0.006765 0.000000 0.000000 0.000000
# 3 -0.017101 0.006765 0.023972 0.000000 0.000000 0.000000
# 4 0.000000 0.000000 0.000000 0.041811 0.000000 0.000000
# 5 0.000000 0.000000 0.000000 0.000000 0.062756 0.000000
# 6 0.000000 0.000000 0.000000 0.000000 0.000000 0.056493
#
#
# Mechanical properties :
#
#
# Convention : Reuss Voigt Hill
#
# Bulk Modulus (GPa) = 22.73586 23.35036 23.04311
# Shear Modulus (GPa) = 15.59141 20.14637 17.86889
#
# Velocity S-wave (km/s) = 2.79427 3.17632 2.99140
# Velocity P-wave (km/s) = 4.66867 5.01454 4.84469
#
# Compressibility (1/GPa) = 0.04398338
#
# Stress axis : x y z
#
# Youngs Moduli (GPa) = 19.20758 54.22558 41.71604
#
# Poissons Ratio (x) = 0.80851 0.71337
# Poissons Ratio (y) = 0.28639 -0.28219
# Poissons Ratio (z) = 0.32846 -0.36681
#
# Static dielectric constant tensor:
#      x y z
#    x 1.670700 0.000000 0.000000 
#    y 0.000000 1.652560 0.000000 
#    z 0.000000 0.000000 1.706210 
# 
# From -- ./inp_files/4580.got.cif
#   From: 2010.05.17/outbox.cif.g08.bks.cpg/sg40_3_cif.got.tgz:4580.got - 2010.06.03 18:35:42.
