data_PCOD9365199
_publ_section_title
;
Structure prediction by ZEFSAII (Michael W. Deem and Ramdas Pophale) SiO2 
 PCOD9365199
Probable space group: A M A 2
;
_chemical_formula_sum "Si O2"
_cell_formula_units_Z 40
_cell_length_a 15.001222
_cell_length_b 19.602500
_cell_length_c 5.019212
_cell_angle_alpha 90.000000
_cell_angle_beta 90.000000
_cell_angle_gamma 90.000000
_cell_volume 1475.956780
_symmetry_space_group_name_H-M "A M A 2"
_symmetry_group_IT_number 40
_symmetry_cell_setting 'orthorhombic'
loop_
_space_group_symop_operation_xyz
x,y,z
-x,-y,z
1/2-x,y,z
1/2+x,-y,z
x,1/2+y,1/2+z
-x,1/2-y,1/2+z
1/2-x,1/2+y,1/2+z
1/2+x,1/2-y,1/2+z
loop_
_atom_site_type_symbol
_atom_site_label
_atom_site_fract_x
_atom_site_fract_y
_atom_site_fract_z
Si Si1 0.424395 0.085548 0.371390
Si Si2 0.250000 0.003769 0.835790
Si Si3 0.608236 0.057720 0.239293
Si Si4 0.250000 0.378729 0.020627
Si Si5 0.750000 0.863438 0.069451
Si Si6 0.054561 0.722892 0.130331
Si Si7 0.250000 0.760467 0.902840
O O1 0.509463 0.082495 0.175798
O O2 0.337997 0.112847 0.222388
O O3 0.446292 0.140654 0.596566
O O4 0.407814 0.006584 0.439786
O O5 0.250000 0.959994 0.572426
O O6 0.334254 0.975506 0.004939
O O7 0.250000 0.085959 0.814007
O O8 0.659851 0.123451 0.354751
O O9 0.250000 0.336721 0.288270
O O10 0.750000 0.782946 0.122290
O O11 0.157739 0.743239 0.057041
O O12 0.986782 0.753837 0.909585
#
# Coordination Sequence:
#
# PCOD9365199 Si02
#       7
#     8   4   8   4   4   8   4
#     4   9  18  39  63  85 122 168 216 268 333 402
#     4   9  19  34  58  86 120 159 208 271 327 398
#     4   9  19  37  59  87 123 162 212 270 330 402
#     4  11  21  36  62  93 126 162 222 276 342 402
#     4   8  17  38  59  83 122 165 217 264 334 409
#     4  11  25  45  69 101 141 184 235 290 348 426
#     4  10  23  42  67 100 138 186 233 293 361 421
#
# _framework density 27.101064000000001
#
# number of rings (size 3 to 8) (size 9 to 14) (size 15 to 20)
#    0.000    2.400    0.000    1.800    2.800    0.800 
#   10.800    4.000    0.000    0.000    0.000    0.000 
#    0.000    0.000    0.000    0.000    0.000    0.000 
#
# Total GULP energy -111791.520882 kJ/mol
# GULP energy per Si atom -5589.576044 kJ/mol
# Density = 2.703938 g / cm^3
# Si number density = 27.101064 Si / 1000 Ang^3
#
#
#
# Elastic Constant Matrix: (Units=GPa)
#
#
# Indices 1 2 3 4 5 6 
#
# 1 223.6685 21.6593 18.0698 0.0000 0.0000 0.0000
# 2 21.6593 114.5640 24.5841 0.0000 0.0000 0.0000
# 3 18.0698 24.5841 68.8315 0.0000 0.0000 0.0000
# 4 0.0000 0.0000 0.0000 33.7496 0.0000 0.0000
# 5 0.0000 0.0000 0.0000 0.0000 -0.4763 0.0000
# 6 0.0000 0.0000 0.0000 0.0000 0.0000 27.1161
#
#
#
# Elastic Compliance Matrix: (Units=1/GPa)
#
#
# Indices 1 2 3 4 5 6 
#
# 1 0.004614 -0.000663 -0.000974 0.000000 0.000000 0.000000
# 2 -0.000663 0.009549 -0.003236 0.000000 0.000000 0.000000
# 3 -0.000974 -0.003236 0.015940 0.000000 0.000000 0.000000
# 4 0.000000 0.000000 0.000000 0.029630 0.000000 0.000000
# 5 0.000000 0.000000 0.000000 0.000000 -2.099701 0.000000
# 6 0.000000 0.000000 0.000000 0.000000 0.000000 0.036879
#
#
# Mechanical properties :
#
#
# Convention : Reuss Voigt Hill
#
# Bulk Modulus (GPa) = 49.12890 59.52115 54.32503
# Shear Modulus (GPa) = -2.51692 34.92795 16.20552
#
# Velocity S-wave (km/s) = -0.96474 3.59389 2.44799
# Velocity P-wave (km/s) = 4.11417 6.26352 5.29897
#
# Compressibility (1/GPa) = 0.02035462
#
# Stress axis : x y z
#
# Youngs Moduli (GPa) = 216.73920 104.72739 62.73555
#
# Poissons Ratio (x) = 0.06945 0.06113
# Poissons Ratio (y) = 0.14374 0.20303
# Poissons Ratio (z) = 0.21118 0.33893
#
# Static dielectric constant tensor:
#      x y z
#    x 2.390960 0.000000 0.000000 
#    y 0.000000 2.147410 0.000000 
#    z 0.000000 0.000000 2.071320 
# 
# From -- ./inp_files/1250.got.cif
#   From: 2010.05.17/outbox.cif.g08.bks.cpg/sg40_1_cif.got.tgz:1250.got - 2010.06.03 18:35:42.
