data_PCOD9365125
_publ_section_title
;
Structure prediction by ZEFSAII (Michael W. Deem and Ramdas Pophale) SiO2 
 PCOD9365125
Probable space group: A M A 2
;
_chemical_formula_sum "Si O2"
_cell_formula_units_Z 56
_cell_length_a 15.377196
_cell_length_b 5.184142
_cell_length_c 30.458554
_cell_angle_alpha 90.000000
_cell_angle_beta 90.000000
_cell_angle_gamma 90.000000
_cell_volume 2428.081838
_symmetry_space_group_name_H-M "A M A 2"
_symmetry_group_IT_number 40
_symmetry_cell_setting 'orthorhombic'
loop_
_space_group_symop_operation_xyz
x,y,z
-x,-y,z
1/2-x,y,z
1/2+x,-y,z
x,1/2+y,1/2+z
-x,1/2-y,1/2+z
1/2-x,1/2+y,1/2+z
1/2+x,1/2-y,1/2+z
loop_
_atom_site_type_symbol
_atom_site_label
_atom_site_fract_x
_atom_site_fract_y
_atom_site_fract_z
Si Si1 0.750000 0.492032 0.724260
Si Si2 0.145030 0.987588 0.408761
Si Si3 0.919609 0.335509 0.777645
Si Si4 0.402565 0.882311 0.154113
Si Si5 0.347453 0.388483 0.553352
Si Si6 0.406191 0.391011 0.008030
Si Si7 0.000000 0.000000 0.702017
Si Si8 0.144969 0.990164 0.856366
O O1 0.829369 0.471866 0.762211
O O2 0.673294 0.510475 0.685444
O O3 0.250000 0.981515 0.411549
O O4 0.110045 0.914071 0.456273
O O5 0.118826 0.770447 0.373499
O O6 0.120366 0.271412 0.392125
O O7 0.893815 0.107423 0.810798
O O8 0.000000 0.500000 0.796534
O O9 0.963062 0.212855 0.734660
O O10 0.378459 0.884034 0.103364
O O11 0.420630 0.595007 0.172327
O O12 0.500000 0.000000 0.157285
O O13 0.250000 0.489753 0.552828
O O14 0.397922 0.599864 0.524646
O O15 0.348011 0.102881 0.532967
O O16 0.500000 0.500000 0.018908
O O17 0.250000 0.987814 0.852280
#
# Coordination Sequence:
#
# PCOD9365125 Si02
#       8
#     4   8   8   8   8   8   4   8
#     4  12  22  50  70  98 148 198 244 306 378 448
#     4  10  22  44  73 105 143 186 239 297 369 451
#     4  12  26  47  69 108 147 192 254 309 374 448
#     4  12  26  48  70 108 146 190 250 309 370 440
#     4  12  27  47  76 109 148 199 252 308 372 458
#     4  12  26  48  74 111 150 194 245 313 384 451
#     4  12  26  46  72 104 146 190 248 316 364 432
#     4  10  23  43  72 105 141 189 240 302 366 445
#
# _framework density 23.063475
#
# number of rings (size 3 to 8) (size 9 to 14) (size 15 to 20)
#    0.000    0.571    4.286    3.429    5.000    2.286 
#    5.143    0.000    0.000    0.000    0.000    0.000 
#    0.000    0.000    0.000    0.000    0.000    0.000 
#
# Total GULP energy -156073.431188 kJ/mol
# GULP energy per Si atom -5574.051114 kJ/mol
# Density = 2.301098 g / cm^3
# Si number density = 23.063475 Si / 1000 Ang^3
#
#
#
# Elastic Constant Matrix: (Units=GPa)
#
#
# Indices 1 2 3 4 5 6 
#
# 1 138.8737 19.2589 20.9874 0.0000 0.0000 0.0000
# 2 19.2589 58.3377 -11.4602 0.0000 0.0000 0.0000
# 3 20.9874 -11.4602 74.2577 0.0000 0.0000 0.0000
# 4 0.0000 0.0000 0.0000 30.8695 0.0000 0.0000
# 5 0.0000 0.0000 0.0000 0.0000 32.9946 0.0000
# 6 0.0000 0.0000 0.0000 0.0000 0.0000 49.8749
#
#
#
# Elastic Compliance Matrix: (Units=1/GPa)
#
#
# Indices 1 2 3 4 5 6 
#
# 1 0.008065 -0.003207 -0.002774 0.000000 0.000000 0.000000
# 2 -0.003207 0.018953 0.003832 0.000000 0.000000 0.000000
# 3 -0.002774 0.003832 0.014842 0.000000 0.000000 0.000000
# 4 0.000000 0.000000 0.000000 0.032394 0.000000 0.000000
# 5 0.000000 0.000000 0.000000 0.000000 0.030308 0.000000
# 6 0.000000 0.000000 0.000000 0.000000 0.000000 0.020050
#
#
# Mechanical properties :
#
#
# Convention : Reuss Voigt Hill
#
# Bulk Modulus (GPa) = 26.62438 36.56014 31.59226
# Shear Modulus (GPa) = 35.35242 38.92668 37.13955
#
# Velocity S-wave (km/s) = 3.91939 4.11275 4.01723
# Velocity P-wave (km/s) = 5.66137 6.19994 5.93677
#
# Compressibility (1/GPa) = 0.03755956
#
# Stress axis : x y z
#
# Youngs Moduli (GPa) = 123.99448 52.76167 67.37609
#
# Poissons Ratio (x) = 0.16923 0.18693
# Poissons Ratio (y) = 0.39771 -0.25816
# Poissons Ratio (z) = 0.34401 -0.20216
#
# Static dielectric constant tensor:
#      x y z
#    x 1.899360 0.000000 0.000000 
#    y 0.000000 1.922150 0.000000 
#    z 0.000000 0.000000 1.812970 
# 
# From -- ./inp_files/26613.got.cif
#   From: 2010.05.17/outbox.cif.g08.bks.cpg/sg40_14_cif.got.tgz:26613.got - 2010.06.03 18:35:42.
