data_PCOD9365617
_publ_section_title
;
Structure prediction by ZEFSAII (Michael W. Deem and Ramdas Pophale) SiO2 
 PCOD9365617
Probable space group: A M A 2
;
_chemical_formula_sum "Si O2"
_cell_formula_units_Z 32
_cell_length_a 9.000000
_cell_length_b 30.000000
_cell_length_c 15.000000
_cell_angle_alpha 90.000000
_cell_angle_beta 90.000000
_cell_angle_gamma 90.000000
_cell_volume 4050.000000
_symmetry_space_group_name_H-M "A M A 2"
_symmetry_group_IT_number 40
_symmetry_cell_setting 'orthorhombic'
loop_
_space_group_symop_operation_xyz
x,y,z
-x,-y,z
1/2-x,y,z
1/2+x,-y,z
x,1/2+y,1/2+z
-x,1/2-y,1/2+z
1/2-x,1/2+y,1/2+z
1/2+x,1/2-y,1/2+z
loop_
_atom_site_type_symbol
_atom_site_label
_atom_site_fract_x
_atom_site_fract_y
_atom_site_fract_z
Si Si1 0.428057 0.290646 0.105310
Si Si2 0.071006 0.547087 0.516229
Si Si3 0.071006 0.047087 0.810039
Si Si4 0.428057 0.290648 0.720966
Si Si5 0.425346 0.222386 0.413137
Si Si6 0.916921 0.311797 0.413136
Si Si7 0.423560 0.637233 0.600919
Si Si8 0.076440 0.637233 0.225354
O O1 0.250000 0.284743 0.101711
O O2 0.500000 0.249999 0.163138
O O3 0.475645 0.334894 0.158580
O O4 0.496615 0.292527 0.005629
O O5 0.250000 0.544341 0.517426
O O6 0.027916 0.557315 0.413134
O O7 0.028181 0.586700 0.582435
O O8 0.000000 0.500000 0.539667
O O9 0.250000 0.044341 0.808843
O O10 0.028181 0.086700 0.743834
O O11 0.000000 0.000000 0.786602
O O12 0.250000 0.284746 0.724565
O O13 0.496615 0.292529 0.820647
O O14 0.475645 0.334896 0.667695
O O15 0.250000 0.212104 0.413138
O O16 0.455415 0.275356 0.413135
O O17 0.750000 0.290702 0.413135
O O18 0.926714 0.340180 0.502959
O O19 0.926715 0.340182 0.323315
O O20 0.250000 0.638632 0.630068
O O21 0.250000 0.638633 0.196206
#
# Coordination Sequence:
#
# PCOD9365617 Si02
#       8
#     8   8   8   8   8   8   8   8
#     4  12  24  37  53  76 105 138 176 218 262 309
#     4   9  17  30  48  73 104 139 173 212 259 307
#     4   9  17  30  48  73 104 139 173 212 259 307
#     4  12  24  37  53  76 105 138 176 218 262 309
#     4  12  24  38  54  75 102 137 179 219 261 307
#     4  10  18  30  51  73 103 141 177 215 257 299
#     4  10  19  33  52  75 104 141 180 216 259 308
#     4  10  19  33  52  75 104 141 180 216 259 308
#
# _framework density 7.9012349999999998
#
# number of rings (size 3 to 8) (size 9 to 14) (size 15 to 20)
#    0.000    1.500    3.750    3.375    0.000    1.000 
#    0.000    0.000    0.000    0.000    0.000    0.875 
#    0.000    0.000    0.000    0.000    0.000    0.000 
#
# Total GULP energy -178551.574915 kJ/mol
# GULP energy per Si atom -5579.736716 kJ/mol
# Density = 0.788325 g / cm^3
# Si number density = 7.901235 Si / 1000 Ang^3
#
#
#
# Elastic Constant Matrix: (Units=GPa)
#
#
# Indices 1 2 3 4 5 6 
#
# 1 102.7828 43.7089 56.9704 0.0000 0.0000 0.0000
# 2 43.7089 109.1488 49.1923 0.0000 0.0000 0.0000
# 3 56.9704 49.1923 113.0425 0.0000 0.0000 0.0000
# 4 0.0000 0.0000 0.0000 19.1772 0.0000 0.0000
# 5 0.0000 0.0000 0.0000 0.0000 23.0458 0.0000
# 6 0.0000 0.0000 0.0000 0.0000 0.0000 26.4014
#
#
#
# Elastic Compliance Matrix: (Units=1/GPa)
#
#
# Indices 1 2 3 4 5 6 
#
# 1 0.014287 -0.003080 -0.005860 0.000000 0.000000 0.000000
# 2 -0.003080 0.012061 -0.003696 0.000000 0.000000 0.000000
# 3 -0.005860 -0.003696 0.013408 0.000000 0.000000 0.000000
# 4 0.000000 0.000000 0.000000 0.052145 0.000000 0.000000
# 5 0.000000 0.000000 0.000000 0.000000 0.043392 0.000000
# 6 0.000000 0.000000 0.000000 0.000000 0.000000 0.037877
#
#
# Mechanical properties :
#
#
# Convention : Reuss Voigt Hill
#
# Bulk Modulus (GPa) = 69.04457 69.41304 69.22880
# Shear Modulus (GPa) = 24.59773 25.39840 24.99806
#
# Velocity S-wave (km/s) = 3.94963 4.01339 3.98164
# Velocity P-wave (km/s) = 8.03657 8.09304 8.06485
#
# Compressibility (1/GPa) = 0.01448340
#
# Stress axis : x y z
#
# Youngs Moduli (GPa) = 69.99261 82.91067 74.58265
#
# Poissons Ratio (x) = 0.25539 0.43705
# Poissons Ratio (y) = 0.21560 0.27567
# Poissons Ratio (z) = 0.41015 0.30646
#
# Static dielectric constant tensor:
#      x y z
#    x 1.526480 0.000000 0.000000 
#    y 0.000000 1.544000 0.000000 
#    z 0.000000 0.000000 1.539250 
# 
# From -- ./inp_files/15923.got.cif
#   From: 2010.05.17/outbox.ucp.g08.bks.cvg/sg40_8_cif.got.tgz:15923.got - 2010.06.11 16:26:39.
