data_PCOD9365245
_publ_section_title
;
Structure prediction by ZEFSAII (Michael W. Deem and Ramdas Pophale) SiO2 
 PCOD9365245
Probable space group: A M A 2
;
_chemical_formula_sum "Si O2"
_cell_formula_units_Z 32
_cell_length_a 12.083998
_cell_length_b 17.819149
_cell_length_c 6.231796
_cell_angle_alpha 90.000000
_cell_angle_beta 90.000000
_cell_angle_gamma 90.000000
_cell_volume 1341.871201
_symmetry_space_group_name_H-M "A M A 2"
_symmetry_group_IT_number 40
_symmetry_cell_setting 'orthorhombic'
loop_
_space_group_symop_operation_xyz
x,y,z
-x,-y,z
1/2-x,y,z
1/2+x,-y,z
x,1/2+y,1/2+z
-x,1/2-y,1/2+z
1/2-x,1/2+y,1/2+z
1/2+x,1/2-y,1/2+z
loop_
_atom_site_type_symbol
_atom_site_label
_atom_site_fract_x
_atom_site_fract_y
_atom_site_fract_z
Si Si1 0.372711 0.480354 0.984270
Si Si2 0.949346 0.143641 0.767504
Si Si3 0.375055 0.582319 0.593177
Si Si4 0.370872 0.709272 0.962595
O O1 0.500000 0.500000 0.050782
O O2 0.250000 0.511944 0.050072
O O3 0.376582 0.505748 0.734985
O O4 0.375008 0.399037 0.092470
O O5 0.880049 0.204631 0.895893
O O6 0.037397 0.191442 0.634308
O O7 0.026058 0.093338 0.925505
O O8 0.250000 0.587497 0.502265
O O9 0.386125 0.650540 0.765735
O O10 0.250000 0.694573 0.053245
#
# Coordination Sequence:
#
# PCOD9365245 Si02
#       4
#     8   8   8   8
#     4  11  25  47  73 106 149 191 245 301 364 438
#     4  12  23  45  73 105 144 187 244 305 361 440
#     4  10  23  45  71 102 145 199 243 300 369 436
#     4  11  23  42  70 105 142 187 242 303 369 434
#
# _framework density 23.847297000000001
#
# number of rings (size 3 to 8) (size 9 to 14) (size 15 to 20)
#    0.000    1.000    5.000    1.500    0.000    2.000 
#    0.000    7.500    0.000    0.000    0.000    0.000 
#    0.000    0.000    0.000    0.000    0.000    0.000 
#
# Total GULP energy -89131.848135 kJ/mol
# GULP energy per Si atom -5570.740508 kJ/mol
# Density = 2.379302 g / cm^3
# Si number density = 23.847297 Si / 1000 Ang^3
#
#
#
# Elastic Constant Matrix: (Units=GPa)
#
#
# Indices 1 2 3 4 5 6 
#
# 1 166.5867 27.8679 10.9655 0.0000 0.0000 0.0000
# 2 27.8679 90.8309 53.5001 0.0000 0.0000 0.0000
# 3 10.9655 53.5001 56.4130 0.0000 0.0000 0.0000
# 4 0.0000 0.0000 0.0000 46.2195 0.0000 0.0000
# 5 0.0000 0.0000 0.0000 0.0000 -7.8270 0.0000
# 6 0.0000 0.0000 0.0000 0.0000 0.0000 13.3861
#
#
#
# Elastic Compliance Matrix: (Units=1/GPa)
#
#
# Indices 1 2 3 4 5 6 
#
# 1 0.006376 -0.002778 0.001395 0.000000 0.000000 0.000000
# 2 -0.002778 0.026152 -0.024262 0.000000 0.000000 0.000000
# 3 0.001395 -0.024262 0.040464 0.000000 0.000000 0.000000
# 4 0.000000 0.000000 0.000000 0.021636 0.000000 0.000000
# 5 0.000000 0.000000 0.000000 0.000000 -0.127764 0.000000
# 6 0.000000 0.000000 0.000000 0.000000 0.000000 0.074704
#
#
# Mechanical properties :
#
#
# Convention : Reuss Voigt Hill
#
# Bulk Modulus (GPa) = 46.07645 55.38861 50.73253
# Shear Modulus (GPa) = 49.95381 25.12219 37.53800
#
# Velocity S-wave (km/s) = 4.58179 3.24923 3.97180
# Velocity P-wave (km/s) = 6.88141 6.11175 6.50797
#
# Compressibility (1/GPa) = 0.02170306
#
# Stress axis : x y z
#
# Youngs Moduli (GPa) = 156.84419 38.23776 24.71314
#
# Poissons Ratio (x) = 0.10622 -0.03448
# Poissons Ratio (y) = 0.43570 0.59959
# Poissons Ratio (z) = -0.21882 0.92772
#
# Static dielectric constant tensor:
#      x y z
#    x 1.884780 0.000000 0.000000 
#    y 0.000000 1.983310 0.000000 
#    z 0.000000 0.000000 1.908520 
# 
# From -- ./inp_files/634.got.cif
#   From: 2010.05.17/outbox.cif.g08.bks.cpg/sg40_1_cif.got.tgz:634.got - 2010.06.03 18:35:42.
