data_PCOD9365145
_publ_section_title
;
Structure prediction by ZEFSAII (Michael W. Deem and Ramdas Pophale) SiO2 
 PCOD9365145
Probable space group: A M A 2
;
_chemical_formula_sum "Si O2"
_cell_formula_units_Z 32
_cell_length_a 14.246328
_cell_length_b 7.247467
_cell_length_c 12.747424
_cell_angle_alpha 90.000000
_cell_angle_beta 90.000000
_cell_angle_gamma 90.000000
_cell_volume 1316.168877
_symmetry_space_group_name_H-M "A M A 2"
_symmetry_group_IT_number 40
_symmetry_cell_setting 'orthorhombic'
loop_
_space_group_symop_operation_xyz
x,y,z
-x,-y,z
1/2-x,y,z
1/2+x,-y,z
x,1/2+y,1/2+z
-x,1/2-y,1/2+z
1/2-x,1/2+y,1/2+z
1/2+x,1/2-y,1/2+z
loop_
_atom_site_type_symbol
_atom_site_label
_atom_site_fract_x
_atom_site_fract_y
_atom_site_fract_z
Si Si1 0.640370 0.434684 0.182240
Si Si2 0.641718 0.163127 0.380784
Si Si3 0.481351 0.802248 0.026205
Si Si4 0.861831 0.244146 0.827105
O O1 0.750000 0.436055 0.149553
O O2 0.633442 0.310432 0.287403
O O3 0.611094 0.638687 0.220679
O O4 0.577503 0.337431 0.096330
O O5 0.750000 0.160193 0.415576
O O6 0.573992 0.213350 0.475928
O O7 0.618936 0.961449 0.333838
O O8 0.415982 0.843291 0.924609
O O9 0.500000 0.000000 0.078664
O O10 0.750000 0.216501 0.838536
#
# Coordination Sequence:
#
# PCOD9365145 Si02
#       4
#     8   8   8   8
#     4  10  23  47  76 107 150 201 254 314 384 455
#     4  10  23  48  74 102 151 205 255 316 380 449
#     4  12  24  43  76 116 154 201 252 312 382 458
#     4  10  22  47  75 101 144 200 254 316 378 443
#
# _framework density 24.312987
#
# number of rings (size 3 to 8) (size 9 to 14) (size 15 to 20)
#    0.000    1.500    2.500    1.500    0.000    3.000 
#   18.000    0.000    0.000    1.500    0.000    0.000 
#    0.000    0.000    0.000    0.000    0.000    0.000 
#
# Total GULP energy -89756.763595 kJ/mol
# GULP energy per Si atom -5609.797725 kJ/mol
# Density = 2.425765 g / cm^3
# Si number density = 24.312987 Si / 1000 Ang^3
#
#
#
# Elastic Constant Matrix: (Units=GPa)
#
#
# Indices 1 2 3 4 5 6 
#
# 1 143.1585 71.9977 85.9701 0.0000 0.0000 0.0000
# 2 71.9977 178.4953 54.9987 0.0000 0.0000 0.0000
# 3 85.9701 54.9987 121.5932 0.0000 0.0000 0.0000
# 4 0.0000 0.0000 0.0000 35.4579 0.0000 0.0000
# 5 0.0000 0.0000 0.0000 0.0000 44.1714 0.0000
# 6 0.0000 0.0000 0.0000 0.0000 0.0000 29.9946
#
#
#
# Elastic Compliance Matrix: (Units=1/GPa)
#
#
# Indices 1 2 3 4 5 6 
#
# 1 0.013291 -0.002865 -0.008101 0.000000 0.000000 0.000000
# 2 -0.002865 0.007127 -0.001198 0.000000 0.000000 0.000000
# 3 -0.008101 -0.001198 0.014494 0.000000 0.000000 0.000000
# 4 0.000000 0.000000 0.000000 0.028202 0.000000 0.000000
# 5 0.000000 0.000000 0.000000 0.000000 0.022639 0.000000
# 6 0.000000 0.000000 0.000000 0.000000 0.000000 0.033339
#
#
# Mechanical properties :
#
#
# Convention : Reuss Voigt Hill
#
# Bulk Modulus (GPa) = 94.48746 96.57555 95.53151
# Shear Modulus (GPa) = 34.02515 37.27680 35.65098
#
# Velocity S-wave (km/s) = 3.74500 3.91986 3.83343
# Velocity P-wave (km/s) = 7.59259 7.76499 7.67927
#
# Compressibility (1/GPa) = 0.01058341
#
# Stress axis : x y z
#
# Youngs Moduli (GPa) = 75.23782 140.30862 68.99367
#
# Poissons Ratio (x) = 0.40197 0.55895
# Poissons Ratio (y) = 0.21555 0.08267
# Poissons Ratio (z) = 0.60954 0.16812
#
# Static dielectric constant tensor:
#      x y z
#    x 1.924610 0.000000 0.000000 
#    y 0.000000 1.997330 0.000000 
#    z 0.000000 0.000000 1.898950 
# 
# From -- ./inp_files/11726.got.cif
#   From: 2010.05.17/outbox.cif.g08.bks.cpg/sg40_6_cif.got.tgz:11726.got - 2010.06.03 18:35:42.
