data_PCOD9365181
_publ_section_title
;
Structure prediction by ZEFSAII (Michael W. Deem and Ramdas Pophale) SiO2 
 PCOD9365181
Probable space group: A M A 2
;
_chemical_formula_sum "Si O2"
_cell_formula_units_Z 60
_cell_length_a 29.929193
_cell_length_b 5.261248
_cell_length_c 18.256320
_cell_angle_alpha 90.000000
_cell_angle_beta 90.000000
_cell_angle_gamma 90.000000
_cell_volume 2874.729728
_symmetry_space_group_name_H-M "A M A 2"
_symmetry_group_IT_number 40
_symmetry_cell_setting 'orthorhombic'
loop_
_space_group_symop_operation_xyz
x,y,z
-x,-y,z
1/2-x,y,z
1/2+x,-y,z
x,1/2+y,1/2+z
-x,1/2-y,1/2+z
1/2-x,1/2+y,1/2+z
1/2+x,1/2-y,1/2+z
loop_
_atom_site_type_symbol
_atom_site_label
_atom_site_fract_x
_atom_site_fract_y
_atom_site_fract_z
Si Si1 0.429930 0.922735 0.893440
Si Si2 0.040384 0.181914 0.523377
Si Si3 0.660898 0.212815 0.821690
Si Si4 0.945654 0.680156 0.675265
Si Si5 0.198048 0.798231 0.395480
Si Si6 0.000000 0.000000 0.770878
Si Si7 0.887767 0.206135 0.676390
Si Si8 0.619606 0.700422 0.007721
O O1 0.387743 0.770613 0.861327
O O2 0.456892 0.015259 0.823162
O O3 0.466745 0.778242 0.941777
O O4 0.408674 0.116799 0.952810
O O5 0.088100 0.045091 0.514888
O O6 0.044585 0.376168 0.589885
O O7 0.000000 0.000000 0.544467
O O8 0.687379 0.466122 0.841992
O O9 0.651445 0.178579 0.735636
O O10 0.684041 0.964163 0.856003
O O11 0.917301 0.445048 0.704049
O O12 0.916090 0.942744 0.675437
O O13 0.990311 0.763749 0.717365
O O14 0.250000 0.793244 0.414587
O O15 0.166286 0.834929 0.466245
O O16 0.873680 0.274306 0.592946
#
# Coordination Sequence:
#
# PCOD9365181 Si02
#       8
#     8   8   8   8   8   4   8   8
#     4  11  22  40  58  93 126 175 221 273 316 379
#     4  11  21  38  60  91 131 179 219 269 313 381
#     4  11  23  42  68  98 129 164 217 265 335 394
#     4  11  24  41  58  92 131 181 222 267 320 370
#     4  11  24  45  71  99 132 165 209 273 340 405
#     4  12  24  40  58  96 134 184 232 274 308 388
#     4  11  23  43  68  90 130 174 218 271 326 386
#     4  10  23  41  65  92 129 170 220 264 332 388
#
# _framework density 20.87153
#
# number of rings (size 3 to 8) (size 9 to 14) (size 15 to 20)
#    0.000    1.067    4.667    2.000    1.867    1.600 
#    2.400    1.333    0.000    0.000    0.000    0.000 
#    0.000    0.000    0.000    0.000    0.000    0.000 
#
# Total GULP energy -167494.017981 kJ/mol
# GULP energy per Si atom -5583.133933 kJ/mol
# Density = 2.082402 g / cm^3
# Si number density = 20.871530 Si / 1000 Ang^3
#
#
#
# Elastic Constant Matrix: (Units=GPa)
#
#
# Indices 1 2 3 4 5 6 
#
# 1 126.1001 29.8807 42.8586 0.0000 0.0000 0.0000
# 2 29.8807 90.1466 15.2232 0.0000 0.0000 0.0000
# 3 42.8586 15.2232 145.7146 0.0000 0.0000 0.0000
# 4 0.0000 0.0000 0.0000 7.6466 0.0000 0.0000
# 5 0.0000 0.0000 0.0000 0.0000 0.5875 0.0000
# 6 0.0000 0.0000 0.0000 0.0000 0.0000 20.8334
#
#
#
# Elastic Compliance Matrix: (Units=1/GPa)
#
#
# Indices 1 2 3 4 5 6 
#
# 1 0.009416 -0.002701 -0.002487 0.000000 0.000000 0.000000
# 2 -0.002701 0.012067 -0.000466 0.000000 0.000000 0.000000
# 3 -0.002487 -0.000466 0.007643 0.000000 0.000000 0.000000
# 4 0.000000 0.000000 0.000000 0.130776 0.000000 0.000000
# 5 0.000000 0.000000 0.000000 0.000000 1.702012 0.000000
# 6 0.000000 0.000000 0.000000 0.000000 0.000000 0.048000
#
#
# Mechanical properties :
#
#
# Convention : Reuss Voigt Hill
#
# Bulk Modulus (GPa) = 56.12674 59.76515 57.94594
# Shear Modulus (GPa) = 2.59449 24.08010 13.33729
#
# Velocity S-wave (km/s) = 1.11614 3.40034 2.53062
# Velocity P-wave (km/s) = 5.34892 6.64179 6.03010
#
# Compressibility (1/GPa) = 0.01781682
#
# Stress axis : x y z
#
# Youngs Moduli (GPa) = 106.20707 82.87025 130.83874
#
# Poissons Ratio (x) = 0.22383 0.32542
# Poissons Ratio (y) = 0.28686 0.06101
# Poissons Ratio (z) = 0.26416 0.03864
#
# Static dielectric constant tensor:
#      x y z
#    x 1.747420 0.000000 0.000000 
#    y 0.000000 1.871010 0.000000 
#    z 0.000000 0.000000 1.765960 
# 
# From -- ./inp_files/21609.got.cif
#   From: 2010.05.17/outbox.cif.g08.bks.cpg/sg40_11_cif.got.tgz:21609.got - 2010.06.03 18:35:42.
