data_PCOD9365084
_publ_section_title
;
Structure prediction by ZEFSAII (Michael W. Deem and Ramdas Pophale) SiO2 
 PCOD9365084
Probable space group: A M A 2
;
_chemical_formula_sum "Si O2"
_cell_formula_units_Z 40
_cell_length_a 17.280807
_cell_length_b 18.274978
_cell_length_c 4.993345
_cell_angle_alpha 90.000000
_cell_angle_beta 90.000000
_cell_angle_gamma 90.000000
_cell_volume 1576.930147
_symmetry_space_group_name_H-M "A M A 2"
_symmetry_group_IT_number 40
_symmetry_cell_setting 'orthorhombic'
loop_
_space_group_symop_operation_xyz
x,y,z
-x,-y,z
1/2-x,y,z
1/2+x,-y,z
x,1/2+y,1/2+z
-x,1/2-y,1/2+z
1/2-x,1/2+y,1/2+z
1/2+x,1/2-y,1/2+z
loop_
_atom_site_type_symbol
_atom_site_label
_atom_site_fract_x
_atom_site_fract_y
_atom_site_fract_z
Si Si1 0.339231 0.736303 0.622600
Si Si2 0.962032 0.572760 0.842096
Si Si3 0.598525 0.344415 0.144152
Si Si4 0.666858 0.994585 0.693594
Si Si5 0.335196 0.866898 0.008554
O O1 0.250000 0.722470 0.542759
O O2 0.396912 0.714606 0.382616
O O3 0.343483 0.818779 0.739320
O O4 0.360164 0.688890 0.884070
O O5 0.915682 0.631727 0.665610
O O6 0.000000 0.500000 0.697391
O O7 0.979245 0.381830 0.030400
O O8 0.899359 0.530907 0.019690
O O9 0.646430 0.412385 0.261982
O O10 0.750000 0.997198 0.554015
O O11 0.671456 0.047653 0.944385
O O12 0.250000 0.844155 0.124536
#
# Coordination Sequence:
#
# PCOD9365084 Si02
#       5
#     8   8   8   8   8
#     4  11  25  48  75 109 149 195 253 316 378 451
#     4  10  24  43  72 108 155 199 254 316 380 454
#     4  11  26  46  75 110 150 199 245 317 386 448
#     4  10  22  42  72 105 142 198 256 307 368 451
#     4  10  24  45  78 110 149 200 255 313 377 454
#
# _framework density 25.365739000000001
#
# number of rings (size 3 to 8) (size 9 to 14) (size 15 to 20)
#    0.000    1.600    0.000    2.400   11.200    0.800 
#    3.600    0.000    0.000    0.000    0.000    0.000 
#    0.000    2.000    0.000    0.000    0.000    0.000 
#
# Total GULP energy -111776.496175 kJ/mol
# GULP energy per Si atom -5588.824809 kJ/mol
# Density = 2.530801 g / cm^3
# Si number density = 25.365739 Si / 1000 Ang^3
#
#
#
# Elastic Constant Matrix: (Units=GPa)
#
#
# Indices 1 2 3 4 5 6 
#
# 1 131.4480 51.5434 46.5567 0.0000 0.0000 0.0000
# 2 51.5434 146.7807 55.4093 0.0000 0.0000 0.0000
# 3 46.5567 55.4093 104.4758 0.0000 0.0000 0.0000
# 4 0.0000 0.0000 0.0000 47.9987 0.0000 0.0000
# 5 0.0000 0.0000 0.0000 0.0000 313.9266 0.0000
# 6 0.0000 0.0000 0.0000 0.0000 0.0000 307.9398
#
#
#
# Elastic Compliance Matrix: (Units=1/GPa)
#
#
# Indices 1 2 3 4 5 6 
#
# 1 0.009564 -0.002188 -0.003102 0.000000 0.000000 0.000000
# 2 -0.002188 0.009019 -0.003808 0.000000 0.000000 0.000000
# 3 -0.003102 -0.003808 0.012974 0.000000 0.000000 0.000000
# 4 0.000000 0.000000 0.000000 0.020834 0.000000 0.000000
# 5 0.000000 0.000000 0.000000 0.000000 0.003185 0.000000
# 6 0.000000 0.000000 0.000000 0.000000 0.000000 0.003247
#
#
# Mechanical properties :
#
#
# Convention : Reuss Voigt Hill
#
# Bulk Modulus (GPa) = 74.84454 76.63591 75.74022
# Shear Modulus (GPa) = 61.37101 149.25270 105.31185
#
# Velocity S-wave (km/s) = 4.92412 7.67906 6.45039
# Velocity P-wave (km/s) = 7.86762 10.43561 9.24125
#
# Compressibility (1/GPa) = 0.01336103
#
# Stress axis : x y z
#
# Youngs Moduli (GPa) = 104.55945 110.88081 77.08006
#
# Poissons Ratio (x) = 0.24256 0.23908
# Poissons Ratio (y) = 0.22873 0.29354
# Poissons Ratio (z) = 0.32431 0.42227
#
# Static dielectric constant tensor:
#      x y z
#    x 2.084860 0.000000 0.000000 
#    y 0.000000 2.010500 0.000000 
#    z 0.000000 0.000000 2.021460 
# 
# From -- ./inp_files/2245.got.cif
#   From: 2010.05.17/outbox.cif.g08.bks.cpg/sg40_2_cif.got.tgz:2245.got - 2010.06.03 18:35:42.
