data_PCOD9365883
_publ_section_title
;
Structure prediction by ZEFSAII (Michael W. Deem and Ramdas Pophale) SiO2 
 PCOD9365883
Probable space group: A B A 2
;
_chemical_formula_sum "Si O2"
_cell_formula_units_Z 44
_cell_length_a 25.755222
_cell_length_b 13.902555
_cell_length_c 5.001778
_cell_angle_alpha 90.000000
_cell_angle_beta 90.000000
_cell_angle_gamma 90.000000
_cell_volume 1790.953589
_symmetry_space_group_name_H-M "A B A 2"
_symmetry_group_IT_number 41
_symmetry_cell_setting 'orthorhombic'
loop_
_space_group_symop_operation_xyz
x,y,z
-x,-y,z
1/2-x,y,1/2+z
1/2+x,-y,1/2+z
x,1/2+y,1/2+z
-x,1/2-y,1/2+z
1/2-x,1/2+y,z
1/2+x,1/2-y,z
loop_
_atom_site_type_symbol
_atom_site_label
_atom_site_fract_x
_atom_site_fract_y
_atom_site_fract_z
Si Si1 0.777785 0.828108 0.736970
Si Si2 0.482779 0.698259 0.950968
Si Si3 0.218609 0.938270 0.697867
Si Si4 0.500000 0.500000 0.647891
Si Si5 0.385142 0.002401 0.038265
Si Si6 0.874670 0.864121 0.046156
O O1 0.768613 0.797618 0.434830
O O2 0.778092 0.944880 0.722911
O O3 0.829209 0.804982 0.903175
O O4 0.480981 0.765371 0.689204
O O5 0.497557 0.594679 0.832625
O O6 0.426255 0.696512 0.086578
O O7 0.262240 0.906208 0.487647
O O8 0.159814 0.923137 0.591214
O O9 0.446384 0.486147 0.479097
O O10 0.388282 0.056699 0.321297
O O11 0.363443 0.074981 0.811894
#
# Coordination Sequence:
#
# PCOD9365883 Si02
#       6
#     8   8   8   4   8   8
#     4   9  15  24  43  72 107 143 180 230 287 337
#     4  11  24  41  62  88 119 159 201 245 299 354
#     4   9  15  25  42  71 108 142 185 235 282 342
#     4  10  24  42  62  90 124 156 202 252 298 360
#     4  10  19  31  52  78 112 154 189 239 298 343
#     4  10  19  32  50  79 114 147 192 241 283 348
#
# _framework density 24.567916
#
# number of rings (size 3 to 8) (size 9 to 14) (size 15 to 20)
#    0.000    2.182    0.000    7.636    0.000    6.545 
#    0.000    0.000    0.000    0.000    0.000    7.636 
#    0.000    0.000    0.000    0.182    0.000    0.182 
#
# Total GULP energy -122739.229812 kJ/mol
# GULP energy per Si atom -5579.055901 kJ/mol
# Density = 2.451200 g / cm^3
# Si number density = 24.567916 Si / 1000 Ang^3
#
#
#
# Elastic Constant Matrix: (Units=GPa)
#
#
# Indices 1 2 3 4 5 6 
#
# 1 128.2761 -8.4090 12.8821 0.0000 0.0000 0.0000
# 2 -8.4090 72.9045 -6.9001 0.0000 0.0000 0.0000
# 3 12.8821 -6.9001 103.4242 0.0000 0.0000 0.0000
# 4 0.0000 0.0000 0.0000 -8.6157 0.0000 0.0000
# 5 0.0000 0.0000 0.0000 0.0000 41.1856 0.0000
# 6 0.0000 0.0000 0.0000 0.0000 0.0000 1.7616
#
#
#
# Elastic Compliance Matrix: (Units=1/GPa)
#
#
# Indices 1 2 3 4 5 6 
#
# 1 0.007944 0.000828 -0.000934 0.000000 0.000000 0.000000
# 2 0.000828 0.013890 0.000824 0.000000 0.000000 0.000000
# 3 -0.000934 0.000824 0.009840 0.000000 0.000000 0.000000
# 4 0.000000 0.000000 0.000000 -0.116067 0.000000 0.000000
# 5 0.000000 0.000000 0.000000 0.000000 0.024280 0.000000
# 6 0.000000 0.000000 0.000000 0.000000 0.000000 0.567674
#
#
# Mechanical properties :
#
#
# Convention : Reuss Voigt Hill
#
# Bulk Modulus (GPa) = 30.20378 33.30562 31.75470
# Shear Modulus (GPa) = 9.66814 27.33509 18.50161
#
# Velocity S-wave (km/s) = 1.98590 3.33923 2.74721
# Velocity P-wave (km/s) = 4.19274 5.33416 4.79752
#
# Compressibility (1/GPa) = 0.03310844
#
# Stress axis : x y z
#
# Youngs Moduli (GPa) = 125.88475 71.99416 101.62367
#
# Poissons Ratio (x) = -0.05960 0.09494
# Poissons Ratio (y) = -0.10421 -0.08370
# Poissons Ratio (z) = 0.11760 -0.05929
#
# Static dielectric constant tensor:
#      x y z
#    x 2.196410 0.000000 0.000000 
#    y 0.000000 2.004270 0.000000 
#    z 0.000000 0.000000 1.859820 
# 
# From -- ./inp_files/1307.got.cif
#   From: 2010.05.17/outbox.cif.g08.bks.cpg/sg41_1_cif.got.tgz:1307.got - 2010.06.03 18:54:24.
