data_PCOD9365255
_publ_section_title
;
Structure prediction by ZEFSAII (Michael W. Deem and Ramdas Pophale) SiO2 
 PCOD9365255
Probable space group: A M A 2
;
_chemical_formula_sum "Si O2"
_cell_formula_units_Z 32
_cell_length_a 12.272654
_cell_length_b 14.536357
_cell_length_c 7.089685
_cell_angle_alpha 90.000000
_cell_angle_beta 90.000000
_cell_angle_gamma 90.000000
_cell_volume 1264.797534
_symmetry_space_group_name_H-M "A M A 2"
_symmetry_group_IT_number 40
_symmetry_cell_setting 'orthorhombic'
loop_
_space_group_symop_operation_xyz
x,y,z
-x,-y,z
1/2-x,y,z
1/2+x,-y,z
x,1/2+y,1/2+z
-x,1/2-y,1/2+z
1/2-x,1/2+y,1/2+z
1/2+x,1/2-y,1/2+z
loop_
_atom_site_type_symbol
_atom_site_label
_atom_site_fract_x
_atom_site_fract_y
_atom_site_fract_z
Si Si1 0.622974 0.151616 0.354460
Si Si2 0.376211 0.556945 0.925253
Si Si3 0.062588 0.207466 0.139313
Si Si4 0.621204 0.455931 0.372868
O O1 0.750000 0.157292 0.327613
O O2 0.586363 0.045341 0.357044
O O3 0.565854 0.202846 0.179187
O O4 0.598764 0.194347 0.562780
O O5 0.250000 0.550795 0.875489
O O6 0.406125 0.654954 0.832056
O O7 0.385991 0.556476 0.149581
O O8 0.111149 0.139959 0.982093
O O9 0.500000 0.500000 0.425748
O O10 0.750000 0.491141 0.409192
#
# Coordination Sequence:
#
# PCOD9365255 Si02
#       4
#     8   8   8   8
#     4  11  26  48  73 110 151 195 256 316 383 461
#     4  10  23  47  74 105 151 198 247 316 381 452
#     4  12  26  46  74 107 149 196 250 313 381 455
#     4  11  24  43  74 110 148 198 254 310 385 458
#
# _framework density 25.300492999999999
#
# number of rings (size 3 to 8) (size 9 to 14) (size 15 to 20)
#    0.000    1.000    0.000    6.000    7.000    3.000 
#    0.000    2.500    0.000    0.000    0.000    0.000 
#    0.000    0.000    0.000    0.000    0.000    0.000 
#
# Total GULP energy -89137.859259 kJ/mol
# GULP energy per Si atom -5571.116204 kJ/mol
# Density = 2.524291 g / cm^3
# Si number density = 25.300493 Si / 1000 Ang^3
#
#
#
# Elastic Constant Matrix: (Units=GPa)
#
#
# Indices 1 2 3 4 5 6 
#
# 1 147.6394 94.2727 28.4474 0.0000 0.0000 0.0000
# 2 94.2727 85.7938 26.1164 0.0000 0.0000 0.0000
# 3 28.4474 26.1164 98.4819 0.0000 0.0000 0.0000
# 4 0.0000 0.0000 0.0000 33.5132 0.0000 0.0000
# 5 0.0000 0.0000 0.0000 0.0000 13.9184 0.0000
# 6 0.0000 0.0000 0.0000 0.0000 0.0000 26.8104
#
#
#
# Elastic Compliance Matrix: (Units=1/GPa)
#
#
# Indices 1 2 3 4 5 6 
#
# 1 0.022702 -0.024965 0.000063 0.000000 0.000000 0.000000
# 2 -0.024965 0.040132 -0.003431 0.000000 0.000000 0.000000
# 3 0.000063 -0.003431 0.011046 0.000000 0.000000 0.000000
# 4 0.000000 0.000000 0.000000 0.029839 0.000000 0.000000
# 5 0.000000 0.000000 0.000000 0.000000 0.071847 0.000000
# 6 0.000000 0.000000 0.000000 0.000000 0.000000 0.037299
#
#
# Mechanical properties :
#
#
# Convention : Reuss Voigt Hill
#
# Bulk Modulus (GPa) = 58.09381 69.95427 64.02404
# Shear Modulus (GPa) = 18.16399 27.05363 22.60881
#
# Velocity S-wave (km/s) = 2.68233 3.27355 2.99258
# Velocity P-wave (km/s) = 5.71004 6.48055 6.10746
#
# Compressibility (1/GPa) = 0.01721354
#
# Stress axis : x y z
#
# Youngs Moduli (GPa) = 44.04913 24.91762 90.53037
#
# Poissons Ratio (x) = 0.62206 -0.00568
# Poissons Ratio (y) = 1.09967 0.31065
# Poissons Ratio (z) = -0.00276 0.08550
#
# Static dielectric constant tensor:
#      x y z
#    x 2.325620 0.000000 0.000000 
#    y 0.000000 2.058960 0.000000 
#    z 0.000000 0.000000 1.952640 
# 
# From -- ./inp_files/4060.got.cif
#   From: 2010.05.17/outbox.cif.g08.bks.cpg/sg40_3_cif.got.tgz:4060.got - 2010.06.03 18:35:42.
