data_PCOD9365538
_publ_section_title
;
Structure prediction by ZEFSAII (Michael W. Deem and Ramdas Pophale) SiO2 
 PCOD9365538
Probable space group: A M A 2
;
_chemical_formula_sum "Si O2"
_cell_formula_units_Z 52
_cell_length_a 16.150654
_cell_length_b 8.534198
_cell_length_c 17.421389
_cell_angle_alpha 90.000000
_cell_angle_beta 90.000000
_cell_angle_gamma 90.000000
_cell_volume 2401.240203
_symmetry_space_group_name_H-M "A M A 2"
_symmetry_group_IT_number 40
_symmetry_cell_setting 'orthorhombic'
loop_
_space_group_symop_operation_xyz
x,y,z
-x,-y,z
1/2-x,y,z
1/2+x,-y,z
x,1/2+y,1/2+z
-x,1/2-y,1/2+z
1/2-x,1/2+y,1/2+z
1/2+x,1/2-y,1/2+z
loop_
_atom_site_type_symbol
_atom_site_label
_atom_site_fract_x
_atom_site_fract_y
_atom_site_fract_z
Si Si1 0.843078 0.829846 0.232840
Si Si2 0.339303 0.809298 0.903554
Si Si3 0.844182 0.843399 0.839916
Si Si4 0.984808 0.174690 0.436586
Si Si5 0.979329 0.833136 0.604697
Si Si6 0.500000 0.500000 0.683553
Si Si7 0.848668 0.983950 0.674356
O O1 0.750000 0.880729 0.210130
O O2 0.839615 0.773198 0.320303
O O3 0.866373 0.671751 0.184596
O O4 0.914587 0.958269 0.226282
O O5 0.250000 0.769371 0.940724
O O6 0.427846 0.765797 0.937861
O O7 0.339371 0.993480 0.886025
O O8 0.750000 0.776199 0.838242
O O9 0.913671 0.746139 0.884128
O O10 0.870810 0.891125 0.753569
O O11 0.966862 0.163082 0.527454
O O12 0.000000 0.000000 0.408106
O O13 0.882589 0.881896 0.603090
O O14 0.984448 0.659800 0.637085
O O15 0.000000 0.000000 0.649397
O O16 0.750000 0.982439 0.672634
#
# Coordination Sequence:
#
# PCOD9365538 Si02
#       7
#     8   8   8   8   8   4   8
#     4   9  20  39  65 100 127 161 217 272 327 386
#     4   9  20  39  64  93 126 159 209 271 321 383
#     4   9  20  40  68  94 118 167 220 262 322 392
#     4  11  25  39  60  91 131 172 210 263 322 384
#     4  11  25  42  58  94 131 170 219 261 320 398
#     4  12  24  38  70  88 130 176 204 274 334 386
#     4   9  19  41  68  92 128 168 216 279 329 384
#
# _framework density 21.655477000000001
#
# number of rings (size 3 to 8) (size 9 to 14) (size 15 to 20)
#    0.000    2.154    1.538    2.308    5.385    1.846 
#    0.000    6.154    0.000    0.000    0.000    0.000 
#    0.000    0.000    0.000    0.000    0.000    0.000 
#
# Total GULP energy -144747.153712 kJ/mol
# GULP energy per Si atom -5567.198220 kJ/mol
# Density = 2.160619 g / cm^3
# Si number density = 21.655477 Si / 1000 Ang^3
#
#
#
# Elastic Constant Matrix: (Units=GPa)
#
#
# Indices 1 2 3 4 5 6 
#
# 1 126.7538 76.7890 46.9076 0.0000 0.0000 0.0000
# 2 76.7890 117.9306 37.6136 0.0000 0.0000 0.0000
# 3 46.9076 37.6136 42.9840 0.0000 0.0000 0.0000
# 4 0.0000 0.0000 0.0000 30.2786 0.0000 0.0000
# 5 0.0000 0.0000 0.0000 0.0000 23.4421 0.0000
# 6 0.0000 0.0000 0.0000 0.0000 0.0000 29.3454
#
#
#
# Elastic Compliance Matrix: (Units=1/GPa)
#
#
# Indices 1 2 3 4 5 6 
#
# 1 0.016519 -0.006945 -0.011949 0.000000 0.000000 0.000000
# 2 -0.006945 0.014682 -0.005269 0.000000 0.000000 0.000000
# 3 -0.011949 -0.005269 0.040915 0.000000 0.000000 0.000000
# 4 0.000000 0.000000 0.000000 0.033027 0.000000 0.000000
# 5 0.000000 0.000000 0.000000 0.000000 0.042658 0.000000
# 6 0.000000 0.000000 0.000000 0.000000 0.000000 0.034077
#
#
# Mechanical properties :
#
#
# Convention : Reuss Voigt Hill
#
# Bulk Modulus (GPa) = 42.03506 67.80987 54.92246
# Shear Modulus (GPa) = 20.99658 25.03709 23.01684
#
# Velocity S-wave (km/s) = 3.11718 3.40392 3.26370
# Velocity P-wave (km/s) = 5.69286 6.84324 6.29438
#
# Compressibility (1/GPa) = 0.02378966
#
# Stress axis : x y z
#
# Youngs Moduli (GPa) = 60.53807 68.11041 24.44070
#
# Poissons Ratio (x) = 0.47300 0.29205
# Poissons Ratio (y) = 0.42041 0.12878
# Poissons Ratio (z) = 0.72339 0.35888
#
# Static dielectric constant tensor:
#      x y z
#    x 2.729740 0.000000 0.000000 
#    y 0.000000 1.789660 0.000000 
#    z 0.000000 0.000000 1.867960 
# 
# From -- ./inp_files/23019.got.cif
#   From: 2010.05.17/outbox.cif.g08.bks.cpg/sg40_12_cif.got.tgz:23019.got - 2010.06.03 18:35:42.
