data_PCOD9365291
_publ_section_title
;
Structure prediction by ZEFSAII (Michael W. Deem and Ramdas Pophale) SiO2 
 PCOD9365291
Probable space group: A M A 2
;
_chemical_formula_sum "Si O2"
_cell_formula_units_Z 36
_cell_length_a 9.659546
_cell_length_b 8.684714
_cell_length_c 19.923030
_cell_angle_alpha 90.000000
_cell_angle_beta 90.000000
_cell_angle_gamma 90.000000
_cell_volume 1671.350844
_symmetry_space_group_name_H-M "A M A 2"
_symmetry_group_IT_number 40
_symmetry_cell_setting 'orthorhombic'
loop_
_space_group_symop_operation_xyz
x,y,z
-x,-y,z
1/2-x,y,z
1/2+x,-y,z
x,1/2+y,1/2+z
-x,1/2-y,1/2+z
1/2-x,1/2+y,1/2+z
1/2+x,1/2-y,1/2+z
loop_
_atom_site_type_symbol
_atom_site_label
_atom_site_fract_x
_atom_site_fract_y
_atom_site_fract_z
Si Si1 0.750000 0.079461 0.148090
Si Si2 0.750000 0.914346 0.652741
Si Si3 0.907854 0.652424 0.344053
Si Si4 0.900510 0.241443 0.456296
Si Si5 0.750000 0.751696 0.225054
Si Si6 0.000000 0.500000 0.553610
Si Si7 0.000000 0.500000 0.060677
O O1 0.750000 0.244402 0.187473
O O2 0.886032 0.077475 0.101116
O O3 0.750000 0.911455 0.184722
O O4 0.750000 0.082555 0.689355
O O5 0.612397 0.918995 0.607496
O O6 0.750000 0.609599 0.364748
O O7 0.882706 0.742580 0.274637
O O8 0.000000 0.500000 0.334837
O O9 0.980753 0.753595 0.400643
O O10 0.750000 0.236075 0.423828
O O11 0.918724 0.389874 0.503002
O O12 0.917676 0.108761 0.510381
#
# Coordination Sequence:
#
# PCOD9365291 Si02
#       7
#     4   4   8   8   4   4   4
#     4  12  26  45  76 105 152 192 242 307 374 437
#     4  12  26  45  77 105 149 198 240 305 390 432
#     4  10  24  43  74  99 147 198 250 304 361 437
#     4  12  24  43  73 107 147 184 240 307 383 447
#     4  10  28  48  69 106 151 194 260 300 342 461
#     4  12  24  40  72 110 138 180 240 300 374 454
#     4  12  26  44  70 114 146 182 242 318 382 456
#
# _framework density 21.539465
#
# number of rings (size 3 to 8) (size 9 to 14) (size 15 to 20)
#    0.667    0.000    5.556    2.000    4.667    0.000 
#    0.000    3.333    2.444    0.000    0.000    0.000 
#    0.000    0.000    0.000    0.000    0.000    0.000 
#
# Total GULP energy -100417.989815 kJ/mol
# GULP energy per Si atom -5578.777212 kJ/mol
# Density = 2.149044 g / cm^3
# Si number density = 21.539465 Si / 1000 Ang^3
#
#
#
# Elastic Constant Matrix: (Units=GPa)
#
#
# Indices 1 2 3 4 5 6 
#
# 1 149.1765 21.8293 28.1074 0.0000 0.0000 0.0000
# 2 21.8293 116.5807 44.8893 0.0000 0.0000 0.0000
# 3 28.1074 44.8893 87.3817 0.0000 0.0000 0.0000
# 4 0.0000 0.0000 0.0000 17.5213 0.0000 0.0000
# 5 0.0000 0.0000 0.0000 0.0000 21.1861 0.0000
# 6 0.0000 0.0000 0.0000 0.0000 0.0000 14.2084
#
#
#
# Elastic Compliance Matrix: (Units=1/GPa)
#
#
# Indices 1 2 3 4 5 6 
#
# 1 0.007166 -0.000566 -0.002014 0.000000 0.000000 0.000000
# 2 -0.000566 0.010738 -0.005334 0.000000 0.000000 0.000000
# 3 -0.002014 -0.005334 0.014832 0.000000 0.000000 0.000000
# 4 0.000000 0.000000 0.000000 0.057073 0.000000 0.000000
# 5 0.000000 0.000000 0.000000 0.000000 0.047201 0.000000
# 6 0.000000 0.000000 0.000000 0.000000 0.000000 0.070381
#
#
# Mechanical properties :
#
#
# Convention : Reuss Voigt Hill
#
# Bulk Modulus (GPa) = 59.14739 60.31010 59.72874
# Shear Modulus (GPa) = 21.84794 27.80402 24.82598
#
# Velocity S-wave (km/s) = 3.18830 3.59673 3.39865
# Velocity P-wave (km/s) = 6.40884 6.73121 6.57200
#
# Compressibility (1/GPa) = 0.01690692
#
# Stress axis : x y z
#
# Youngs Moduli (GPa) = 139.55142 93.13074 67.42174
#
# Poissons Ratio (x) = 0.05274 0.13579
# Poissons Ratio (y) = 0.07902 0.35962
# Poissons Ratio (z) = 0.28107 0.49675
#
# Static dielectric constant tensor:
#      x y z
#    x 1.767070 0.000000 0.000000 
#    y 0.000000 1.832080 0.000000 
#    z 0.000000 0.000000 1.768470 
# 
# From -- ./inp_files/21871.got.cif
#   From: 2010.05.17/outbox.cif.g08.bks.cpg/sg40_11_cif.got.tgz:21871.got - 2010.06.03 18:35:42.
