data_PCOD9365200
_publ_section_title
;
Structure prediction by ZEFSAII (Michael W. Deem and Ramdas Pophale) SiO2 
 PCOD9365200
Probable space group: A M A 2
;
_chemical_formula_sum "Si O2"
_cell_formula_units_Z 64
_cell_length_a 20.413791
_cell_length_b 25.941913
_cell_length_c 5.158345
_cell_angle_alpha 90.000000
_cell_angle_beta 90.000000
_cell_angle_gamma 90.000000
_cell_volume 2731.719154
_symmetry_space_group_name_H-M "A M A 2"
_symmetry_group_IT_number 40
_symmetry_cell_setting 'orthorhombic'
loop_
_space_group_symop_operation_xyz
x,y,z
-x,-y,z
1/2-x,y,z
1/2+x,-y,z
x,1/2+y,1/2+z
-x,1/2-y,1/2+z
1/2-x,1/2+y,1/2+z
1/2+x,1/2-y,1/2+z
loop_
_atom_site_type_symbol
_atom_site_label
_atom_site_fract_x
_atom_site_fract_y
_atom_site_fract_z
Si Si1 0.321182 0.012303 0.956670
Si Si2 0.898387 0.648604 0.885524
Si Si3 0.397535 0.233458 0.040930
Si Si4 0.826287 0.307022 0.044983
Si Si5 0.173436 0.391642 0.390024
Si Si6 0.955892 0.451102 0.203631
Si Si7 0.523592 0.858035 0.043336
Si Si8 0.130927 0.089250 0.327471
O O1 0.250000 0.019618 0.829671
O O2 0.383934 0.035154 0.813336
O O3 0.331329 0.951255 0.983101
O O4 0.321858 0.046091 0.218324
O O5 0.904005 0.706121 0.994371
O O6 0.852289 0.642343 0.630761
O O7 0.969175 0.635476 0.762875
O O8 0.867793 0.616252 0.125036
O O9 0.346140 0.213641 0.825109
O O10 0.465378 0.202187 0.984369
O O11 0.370548 0.221881 0.329489
O O12 0.750000 0.298586 0.989450
O O13 0.840280 0.368825 0.024821
O O14 0.250000 0.380579 0.336501
O O15 0.988216 0.399617 0.319079
O O16 0.000000 0.500000 0.245457
O O17 0.934998 0.440842 0.911102
O O18 0.598205 0.872941 0.118538
#
# Coordination Sequence:
#
# PCOD9365200 Si02
#       8
#     8   8   8   8   8   8   8   8
#     4  10  24  44  68 101 143 190 239 298 366 443
#     4  12  27  45  77  99 140 198 239 300 376 426
#     4  11  25  45  68 106 141 185 243 305 360 438
#     4  11  23  43  71 103 144 186 235 301 372 438
#     4  11  27  48  70 106 145 186 247 303 356 441
#     4  11  23  42  71 101 141 182 239 297 366 443
#     4  10  25  45  66 101 141 178 237 296 358 437
#     4  10  23  42  67 103 141 183 239 296 363 444
#
# _framework density 23.428467999999999
#
# number of rings (size 3 to 8) (size 9 to 14) (size 15 to 20)
#    0.000    1.250    1.250    2.625    5.250    9.000 
#    0.000    0.000    0.000    0.000    0.000    0.000 
#    0.000    0.000    0.000    0.000    0.000    0.000 
#
# Total GULP energy -178656.608161 kJ/mol
# GULP energy per Si atom -5583.019005 kJ/mol
# Density = 2.337514 g / cm^3
# Si number density = 23.428468 Si / 1000 Ang^3
#
#
#
# Elastic Constant Matrix: (Units=GPa)
#
#
# Indices 1 2 3 4 5 6 
#
# 1 125.3996 50.0432 27.7419 0.0000 0.0000 0.0000
# 2 50.0432 94.4551 25.7521 0.0000 0.0000 0.0000
# 3 27.7419 25.7521 80.4156 0.0000 0.0000 0.0000
# 4 0.0000 0.0000 0.0000 32.2093 0.0000 0.0000
# 5 0.0000 0.0000 0.0000 0.0000 36.0646 0.0000
# 6 0.0000 0.0000 0.0000 0.0000 0.0000 22.4621
#
#
#
# Elastic Compliance Matrix: (Units=1/GPa)
#
#
# Indices 1 2 3 4 5 6 
#
# 1 0.010397 -0.004964 -0.001997 0.000000 0.000000 0.000000
# 2 -0.004964 0.013970 -0.002761 0.000000 0.000000 0.000000
# 3 -0.001997 -0.002761 0.014009 0.000000 0.000000 0.000000
# 4 0.000000 0.000000 0.000000 0.031047 0.000000 0.000000
# 5 0.000000 0.000000 0.000000 0.000000 0.027728 0.000000
# 6 0.000000 0.000000 0.000000 0.000000 0.000000 0.044519
#
#
# Mechanical properties :
#
#
# Convention : Reuss Voigt Hill
#
# Bulk Modulus (GPa) = 52.82360 56.37162 54.59761
# Shear Modulus (GPa) = 29.86403 31.26274 30.56339
#
# Velocity S-wave (km/s) = 3.57415 3.65690 3.61576
# Velocity P-wave (km/s) = 6.29511 6.47641 6.38641
#
# Compressibility (1/GPa) = 0.01893093
#
# Stress axis : x y z
#
# Youngs Moduli (GPa) = 96.17824 71.58269 71.38459
#
# Poissons Ratio (x) = 0.35534 0.14257
# Poissons Ratio (y) = 0.47744 0.19710
# Poissons Ratio (z) = 0.19209 0.19765
#
# Static dielectric constant tensor:
#      x y z
#    x 1.893750 0.000000 0.000000 
#    y 0.000000 1.935770 0.000000 
#    z 0.000000 0.000000 1.994290 
# 
# From -- ./inp_files/2468.got.cif
#   From: 2010.05.17/outbox.cif.g08.bks.cpg/sg40_2_cif.got.tgz:2468.got - 2010.06.03 18:35:42.
