data_PCOD9365911
_publ_section_title
;
Structure prediction by ZEFSAII (Michael W. Deem and Ramdas Pophale) SiO2 
 PCOD9365911
Probable space group: A B A 2
;
_chemical_formula_sum "Si O2"
_cell_formula_units_Z 56
_cell_length_a 13.246640
_cell_length_b 5.089786
_cell_length_c 39.308776
_cell_angle_alpha 90.000000
_cell_angle_beta 90.000000
_cell_angle_gamma 90.000000
_cell_volume 2650.298419
_symmetry_space_group_name_H-M "A B A 2"
_symmetry_group_IT_number 41
_symmetry_cell_setting 'orthorhombic'
loop_
_space_group_symop_operation_xyz
x,y,z
-x,-y,z
1/2-x,y,1/2+z
1/2+x,-y,1/2+z
x,1/2+y,1/2+z
-x,1/2-y,1/2+z
1/2-x,1/2+y,z
1/2+x,1/2-y,z
loop_
_atom_site_type_symbol
_atom_site_label
_atom_site_fract_x
_atom_site_fract_y
_atom_site_fract_z
Si Si1 0.819988 0.933044 0.255340
Si Si2 0.688171 0.295481 0.898306
Si Si3 0.926918 0.747961 0.966416
Si Si4 0.570064 0.249857 0.041893
Si Si5 0.000000 0.000000 0.306995
Si Si6 0.679878 0.460578 0.179823
Si Si7 0.315124 0.715900 0.111363
Si Si8 0.000000 0.500000 0.354686
O O1 0.770422 0.645310 0.258550
O O2 0.902628 0.012817 0.282776
O O3 0.866897 0.937159 0.217144
O O4 0.778073 0.499212 0.890354
O O5 0.657277 0.289728 0.937952
O O6 0.592478 0.405930 0.878078
O O7 0.000000 0.500000 0.958660
O O8 0.882463 0.706890 0.004470
O O9 0.000000 0.000000 0.965692
O O10 0.500000 0.500000 0.037579
O O11 0.637448 0.311133 0.074391
O O12 0.500000 0.000000 0.049452
O O13 0.981155 0.748070 0.330513
O O14 0.727108 0.751075 0.179192
O O15 0.623325 0.376200 0.145054
O O16 0.220838 0.515540 0.113186
#
# Coordination Sequence:
#
# PCOD9365911 Si02
#       8
#     8   8   8   8   4   8   8   4
#     4  10  21  40  65  90 126 162 206 260 305 369
#     4  12  26  43  70  98 124 170 218 251 321 393
#     4  10  21  40  64  85 125 169 203 266 323 360
#     4  10  21  36  55  85 123 162 200 251 317 358
#     4  12  26  42  68  96 121 170 211 242 330 392
#     4   8  16  32  55  81 112 157 195 243 308 351
#     4  10  19  33  56  81 117 159 203 251 302 359
#     4  12  28  46  64  94 139 158 197 278 314 374
#
# _framework density 21.129695000000002
#
# number of rings (size 3 to 8) (size 9 to 14) (size 15 to 20)
#    0.000    1.714    0.714    3.429    1.000    4.571 
#    1.286    0.000    1.571    0.000    0.000    0.000 
#    0.000    0.000    0.000    0.000    0.000    0.000 
#
# Total GULP energy -156199.673321 kJ/mol
# GULP energy per Si atom -5578.559761 kJ/mol
# Density = 2.108160 g / cm^3
# Si number density = 21.129695 Si / 1000 Ang^3
#
#
#
# Elastic Constant Matrix: (Units=GPa)
#
#
# Indices 1 2 3 4 5 6 
#
# 1 36.9290 5.1632 42.2126 0.0000 0.0000 0.0000
# 2 5.1632 115.5061 15.8863 0.0000 0.0000 0.0000
# 3 42.2126 15.8863 143.5146 0.0000 0.0000 0.0000
# 4 0.0000 0.0000 0.0000 35.2510 0.0000 0.0000
# 5 0.0000 0.0000 0.0000 0.0000 40.9470 0.0000
# 6 0.0000 0.0000 0.0000 0.0000 0.0000 23.0649
#
#
#
# Elastic Compliance Matrix: (Units=1/GPa)
#
#
# Indices 1 2 3 4 5 6 
#
# 1 0.040799 -0.000176 -0.011981 0.000000 0.000000 0.000000
# 2 -0.000176 0.008792 -0.000921 0.000000 0.000000 0.000000
# 3 -0.011981 -0.000921 0.010594 0.000000 0.000000 0.000000
# 4 0.000000 0.000000 0.000000 0.028368 0.000000 0.000000
# 5 0.000000 0.000000 0.000000 0.000000 0.024422 0.000000
# 6 0.000000 0.000000 0.000000 0.000000 0.000000 0.043356
#
#
# Mechanical properties :
#
#
# Convention : Reuss Voigt Hill
#
# Bulk Modulus (GPa) = 29.38743 46.94155 38.16449
# Shear Modulus (GPa) = 25.79587 35.36508 30.58047
#
# Velocity S-wave (km/s) = 3.49784 4.09554 3.80843
# Velocity P-wave (km/s) = 5.50013 6.68048 6.11883
#
# Compressibility (1/GPa) = 0.03402815
#
# Stress axis : x y z
#
# Youngs Moduli (GPa) = 24.51067 113.73773 94.39383
#
# Poissons Ratio (x) = 0.02001 1.13091
# Poissons Ratio (y) = 0.00431 0.08698
# Poissons Ratio (z) = 0.29366 0.10481
#
# Static dielectric constant tensor:
#      x y z
#    x 1.747910 0.000000 0.000000 
#    y 0.000000 1.724090 0.000000 
#    z 0.000000 0.000000 1.864010 
# 
# From -- ./inp_files/12750.got.cif
#   From: 2010.05.17/outbox.cif.g08.bks.cpg/sg41_7_cif.got.tgz:12750.got - 2010.06.03 18:54:24.
