data_PCOD9365743
_publ_section_title
;
Structure prediction by ZEFSAII (Michael W. Deem and Ramdas Pophale) SiO2 
 PCOD9365743
Probable space group: A B A 2
;
_chemical_formula_sum "Si O2"
_cell_formula_units_Z 64
_cell_length_a 23.208212
_cell_length_b 8.843485
_cell_length_c 16.980435
_cell_angle_alpha 90.000000
_cell_angle_beta 90.000000
_cell_angle_gamma 90.000000
_cell_volume 3485.089520
_symmetry_space_group_name_H-M "A B A 2"
_symmetry_group_IT_number 41
_symmetry_cell_setting 'orthorhombic'
loop_
_space_group_symop_operation_xyz
x,y,z
-x,-y,z
1/2-x,y,1/2+z
1/2+x,-y,1/2+z
x,1/2+y,1/2+z
-x,1/2-y,1/2+z
1/2-x,1/2+y,z
1/2+x,1/2-y,z
loop_
_atom_site_type_symbol
_atom_site_label
_atom_site_fract_x
_atom_site_fract_y
_atom_site_fract_z
Si Si1 0.019806 0.162777 0.738630
Si Si2 0.367443 0.338572 0.251074
Si Si3 0.176111 0.788497 0.083366
Si Si4 0.433075 0.799246 0.023106
Si Si5 0.056434 0.153813 0.554319
Si Si6 0.745880 0.459622 0.000503
Si Si7 0.943337 0.899328 0.176921
Si Si8 0.323656 0.287713 0.418579
O O1 0.078451 0.230109 0.772043
O O2 0.034163 0.153556 0.644715
O O3 0.967868 0.281866 0.741260
O O4 0.000000 0.000000 0.767202
O O5 0.331440 0.277985 0.177050
O O6 0.396708 0.491198 0.216494
O O7 0.330543 0.343557 0.329561
O O8 0.112379 0.757275 0.048889
O O9 0.218672 0.659735 0.052193
O O10 0.200833 0.947322 0.053632
O O11 0.501573 0.788068 0.004774
O O12 0.422720 0.695801 0.100868
O O13 0.427245 0.979934 0.038307
O O14 0.386258 0.761889 0.957712
O O15 0.790187 0.580733 0.965290
O O16 0.712971 0.364384 0.933254
O O17 0.000000 0.000000 0.154295
#
# Coordination Sequence:
#
# PCOD9365743 Si02
#       8
#     8   8   8   8   8   8   8   8
#     4   9  15  32  54  80 119 155 192 226 286 344
#     4  10  22  35  55  85 122 143 193 250 296 344
#     4  10  20  40  62  87 105 154 207 240 282 348
#     4  10  17  32  60  86 114 149 193 229 289 343
#     4   9  16  31  59  89 112 149 191 241 276 350
#     4  10  23  41  64  76 112 156 204 244 281 350
#     4   9  17  32  55  86 118 159 193 235 275 353
#     4  11  23  41  56  87 118 152 187 246 306 343
#
# _framework density 18.363948000000001
#
# number of rings (size 3 to 8) (size 9 to 14) (size 15 to 20)
#    0.000    2.250    3.750    1.500    0.000    1.000 
#    6.750    4.375    0.000    0.000    0.000    0.000 
#    0.000    0.000    0.000    0.000    0.000    0.000 
#
# Total GULP energy -178339.763956 kJ/mol
# GULP energy per Si atom -5573.117624 kJ/mol
# Density = 1.832215 g / cm^3
# Si number density = 18.363948 Si / 1000 Ang^3
#
#
#
# Elastic Constant Matrix: (Units=GPa)
#
#
# Indices 1 2 3 4 5 6 
#
# 1 97.0483 34.5910 44.1230 0.0000 0.0000 0.0000
# 2 34.5910 83.4429 23.1026 0.0000 0.0000 0.0000
# 3 44.1230 23.1026 71.4984 0.0000 0.0000 0.0000
# 4 0.0000 0.0000 0.0000 8.5139 0.0000 0.0000
# 5 0.0000 0.0000 0.0000 0.0000 16.3759 0.0000
# 6 0.0000 0.0000 0.0000 0.0000 0.0000 12.0048
#
#
#
# Elastic Compliance Matrix: (Units=1/GPa)
#
#
# Indices 1 2 3 4 5 6 
#
# 1 0.015533 -0.004157 -0.008243 0.000000 0.000000 0.000000
# 2 -0.004157 0.014274 -0.002047 0.000000 0.000000 0.000000
# 3 -0.008243 -0.002047 0.019734 0.000000 0.000000 0.000000
# 4 0.000000 0.000000 0.000000 0.117454 0.000000 0.000000
# 5 0.000000 0.000000 0.000000 0.000000 0.061065 0.000000
# 6 0.000000 0.000000 0.000000 0.000000 0.000000 0.083300
#
#
# Mechanical properties :
#
#
# Convention : Reuss Voigt Hill
#
# Bulk Modulus (GPa) = 48.42922 50.62477 49.52700
# Shear Modulus (GPa) = 14.40348 17.39046 15.89697
#
# Velocity S-wave (km/s) = 2.80364 3.08066 2.94541
# Velocity P-wave (km/s) = 6.07533 6.34675 6.21252
#
# Compressibility (1/GPa) = 0.02064869
#
# Stress axis : x y z
#
# Youngs Moduli (GPa) = 64.37720 70.05599 50.67280
#
# Poissons Ratio (x) = 0.29124 0.41768
# Poissons Ratio (y) = 0.26763 0.10372
# Poissons Ratio (z) = 0.53064 0.14339
#
# Static dielectric constant tensor:
#      x y z
#    x 1.653230 0.000000 0.000000 
#    y 0.000000 1.662250 0.000000 
#    z 0.000000 0.000000 1.608460 
# 
# From -- ./inp_files/10755.got.cif
#   From: 2010.05.17/outbox.cif.g08.bks.cpg/sg41_6_cif.got.tgz:10755.got - 2010.06.03 18:54:24.
