data_PCOD9365060
_publ_section_title
;
Structure prediction by ZEFSAII (Michael W. Deem and Ramdas Pophale) SiO2 
 PCOD9365060
Probable space group: A M A 2
;
_chemical_formula_sum "Si O2"
_cell_formula_units_Z 32
_cell_length_a 18.396154
_cell_length_b 13.659111
_cell_length_c 4.918117
_cell_angle_alpha 90.000000
_cell_angle_beta 90.000000
_cell_angle_gamma 90.000000
_cell_volume 1235.800388
_symmetry_space_group_name_H-M "A M A 2"
_symmetry_group_IT_number 40
_symmetry_cell_setting 'orthorhombic'
loop_
_space_group_symop_operation_xyz
x,y,z
-x,-y,z
1/2-x,y,z
1/2+x,-y,z
x,1/2+y,1/2+z
-x,1/2-y,1/2+z
1/2-x,1/2+y,1/2+z
1/2+x,1/2-y,1/2+z
loop_
_atom_site_type_symbol
_atom_site_label
_atom_site_fract_x
_atom_site_fract_y
_atom_site_fract_z
Si Si1 0.599979 0.427481 0.588290
Si Si2 0.332269 0.763689 0.868615
Si Si3 0.334454 0.470676 0.071765
Si Si4 0.028393 0.800182 0.196470
O O1 0.643338 0.332722 0.704975
O O2 0.629529 0.459532 0.297719
O O3 0.516207 0.394370 0.594998
O O4 0.620382 0.512484 0.799585
O O5 0.250000 0.752752 0.969862
O O6 0.335242 0.860795 0.684025
O O7 0.389641 0.782947 0.107728
O O8 0.250000 0.496954 0.025350
O O9 0.012225 0.783841 0.512704
#
# Coordination Sequence:
#
# PCOD9365060 Si02
#       4
#     8   8   8   8
#     4  11  23  43  67  95 137 175 212 271 328 382
#     4  10  23  44  69  97 133 172 215 274 329 379
#     4  11  24  41  67 101 129 169 225 264 320 399
#     4  10  22  42  67  96 129 172 222 264 321 397
#
# _framework density 25.894151999999998
#
# number of rings (size 3 to 8) (size 9 to 14) (size 15 to 20)
#    0.000    1.500    0.000    5.250    0.000    7.000 
#    0.000   21.250    0.000    0.000    0.000    0.000 
#    0.000    0.000    0.000    0.000    0.000    0.000 
#
# Total GULP energy -89787.451773 kJ/mol
# GULP energy per Si atom -5611.715736 kJ/mol
# Density = 2.583522 g / cm^3
# Si number density = 25.894152 Si / 1000 Ang^3
#
#
#
# Elastic Constant Matrix: (Units=GPa)
#
#
# Indices 1 2 3 4 5 6 
#
# 1 219.0378 21.7420 44.2980 0.0000 0.0000 0.0000
# 2 21.7420 109.6535 -4.7057 0.0000 0.0000 0.0000
# 3 44.2980 -4.7057 97.4089 0.0000 0.0000 0.0000
# 4 0.0000 0.0000 0.0000 46.8751 0.0000 0.0000
# 5 0.0000 0.0000 0.0000 0.0000 36.2978 0.0000
# 6 0.0000 0.0000 0.0000 0.0000 0.0000 28.1155
#
#
#
# Elastic Compliance Matrix: (Units=1/GPa)
#
#
# Indices 1 2 3 4 5 6 
#
# 1 0.005163 -0.001127 -0.002402 0.000000 0.000000 0.000000
# 2 -0.001127 0.009385 0.000966 0.000000 0.000000 0.000000
# 3 -0.002402 0.000966 0.011405 0.000000 0.000000 0.000000
# 4 0.000000 0.000000 0.000000 0.021333 0.000000 0.000000
# 5 0.000000 0.000000 0.000000 0.000000 0.027550 0.000000
# 6 0.000000 0.000000 0.000000 0.000000 0.000000 0.035568
#
#
# Mechanical properties :
#
#
# Convention : Reuss Voigt Hill
#
# Bulk Modulus (GPa) = 48.01718 60.97431 54.49574
# Shear Modulus (GPa) = 40.82547 46.57540 43.70043
#
# Velocity S-wave (km/s) = 3.97499 4.24569 4.11257
# Velocity P-wave (km/s) = 6.29692 6.90168 6.60622
#
# Compressibility (1/GPa) = 0.02082588
#
# Stress axis : x y z
#
# Youngs Moduli (GPa) = 193.68046 106.55859 87.67926
#
# Poissons Ratio (x) = 0.12007 0.21064
# Poissons Ratio (y) = 0.21825 -0.08468
# Poissons Ratio (z) = 0.46531 -0.10291
#
# Static dielectric constant tensor:
#      x y z
#    x 2.029580 0.000000 0.000000 
#    y 0.000000 2.087360 0.000000 
#    z 0.000000 0.000000 1.944560 
# 
# From -- ./inp_files/1628.got.cif
#   From: 2010.05.17/outbox.cif.g08.bks.cpg/sg40_1_cif.got.tgz:1628.got - 2010.06.03 18:35:42.
