data_PCOD9365070
_publ_section_title
;
Structure prediction by ZEFSAII (Michael W. Deem and Ramdas Pophale) SiO2 
 PCOD9365070
Probable space group: A M A 2
;
_chemical_formula_sum "Si O2"
_cell_formula_units_Z 64
_cell_length_a 15.280987
_cell_length_b 15.391266
_cell_length_c 11.944361
_cell_angle_alpha 90.000000
_cell_angle_beta 90.000000
_cell_angle_gamma 90.000000
_cell_volume 2809.238884
_symmetry_space_group_name_H-M "A M A 2"
_symmetry_group_IT_number 40
_symmetry_cell_setting 'orthorhombic'
loop_
_space_group_symop_operation_xyz
x,y,z
-x,-y,z
1/2-x,y,z
1/2+x,-y,z
x,1/2+y,1/2+z
-x,1/2-y,1/2+z
1/2-x,1/2+y,1/2+z
1/2+x,1/2-y,1/2+z
loop_
_atom_site_type_symbol
_atom_site_label
_atom_site_fract_x
_atom_site_fract_y
_atom_site_fract_z
Si Si1 0.353482 0.001986 0.028290
Si Si2 0.150318 0.307141 0.538195
Si Si3 0.146993 0.488274 0.066104
Si Si4 0.851341 0.858338 0.420158
Si Si5 0.088732 0.266410 0.776195
Si Si6 0.420591 0.644676 0.684779
Si Si7 0.146113 0.296336 0.027474
Si Si8 0.082262 0.564360 0.294961
O O1 0.250000 0.001417 0.059419
O O2 0.407789 0.055990 0.118371
O O3 0.387818 0.902999 0.022558
O O4 0.363849 0.047915 0.908343
O O5 0.250000 0.316533 0.496669
O O6 0.106112 0.229396 0.469318
O O7 0.149571 0.278685 0.667376
O O8 0.250000 0.475993 0.042621
O O9 0.110863 0.390825 0.064685
O O10 0.134294 0.534082 0.185008
O O11 0.109904 0.554074 0.972958
O O12 0.750000 0.856888 0.459120
O O13 0.853627 0.856143 0.287730
O O14 0.059249 0.165779 0.782636
O O15 0.010630 0.332266 0.746484
O O16 0.131713 0.287885 0.894718
O O17 0.401449 0.721121 0.596575
O O18 0.250000 0.288215 0.051519
O O19 0.000000 0.500000 0.301724
#
# Coordination Sequence:
#
# PCOD9365070 Si02
#       8
#     8   8   8   8   8   8   8   8
#     4  11  26  46  72 101 138 187 237 286 349 425
#     4  10  24  44  71 101 136 183 237 285 344 421
#     4  10  23  44  71 100 133 179 233 285 343 415
#     4  10  22  42  68  98 134 176 225 284 341 406
#     4  12  27  44  70  99 141 186 231 291 353 421
#     4  12  27  43  69 100 141 180 228 292 350 415
#     4  11  25  46  72 103 139 184 235 284 348 425
#     4  12  26  44  69 101 141 182 231 291 353 422
#
# _framework density 22.781970999999999
#
# number of rings (size 3 to 8) (size 9 to 14) (size 15 to 20)
#    0.000    1.000    2.500    2.625    8.750    2.000 
#    0.000    0.000    0.000    0.000    0.000    0.000 
#    0.000    0.000    0.000    0.000    0.000    0.000 
#
# Total GULP energy -178995.480776 kJ/mol
# GULP energy per Si atom -5593.608774 kJ/mol
# Density = 2.273012 g / cm^3
# Si number density = 22.781971 Si / 1000 Ang^3
#
#
#
# Elastic Constant Matrix: (Units=GPa)
#
#
# Indices 1 2 3 4 5 6 
#
# 1 38.9058 -1.4357 -26.9950 0.0000 0.0000 0.0000
# 2 -1.4357 109.7418 10.7371 0.0000 0.0000 0.0000
# 3 -26.9950 10.7371 105.7929 0.0000 0.0000 0.0000
# 4 0.0000 0.0000 0.0000 35.4447 0.0000 0.0000
# 5 0.0000 0.0000 0.0000 0.0000 50.2107 0.0000
# 6 0.0000 0.0000 0.0000 0.0000 0.0000 14.6731
#
#
#
# Elastic Compliance Matrix: (Units=1/GPa)
#
#
# Indices 1 2 3 4 5 6 
#
# 1 0.031248 -0.000375 0.008012 0.000000 0.000000 0.000000
# 2 -0.000375 0.009208 -0.001030 0.000000 0.000000 0.000000
# 3 0.008012 -0.001030 0.011601 0.000000 0.000000 0.000000
# 4 0.000000 0.000000 0.000000 0.028213 0.000000 0.000000
# 5 0.000000 0.000000 0.000000 0.000000 0.019916 0.000000
# 6 0.000000 0.000000 0.000000 0.000000 0.000000 0.068152
#
#
# Mechanical properties :
#
#
# Convention : Reuss Voigt Hill
#
# Bulk Modulus (GPa) = 15.32091 24.33925 19.83008
# Shear Modulus (GPa) = 28.26732 38.20799 33.23766
#
# Velocity S-wave (km/s) = 3.52629 4.09970 3.82376
# Velocity P-wave (km/s) = 4.82900 5.75472 5.31206
#
# Compressibility (1/GPa) = 0.06527027
#
# Stress axis : x y z
#
# Youngs Moduli (GPa) = 32.00188 108.59899 86.19730
#
# Poissons Ratio (x) = 0.04073 -0.69058
# Poissons Ratio (y) = 0.01200 0.08880
# Poissons Ratio (z) = -0.25639 0.11188
#
# Static dielectric constant tensor:
#      x y z
#    x 1.863490 0.000000 0.000000 
#    y 0.000000 1.862810 0.000000 
#    z 0.000000 0.000000 1.781720 
# 
# From -- ./inp_files/13117.got.cif
#   From: 2010.05.17/outbox.cif.g08.bks.cpg/sg40_7_cif.got.tgz:13117.got - 2010.06.03 18:35:42.
