data_PCOD9365982
_publ_section_title
;
Structure prediction by ZEFSAII (Michael W. Deem and Ramdas Pophale) SiO2 
 PCOD9365982
Probable space group: A B A 2
;
_chemical_formula_sum "Si O2"
_cell_formula_units_Z 56
_cell_length_a 13.711767
_cell_length_b 23.812848
_cell_length_c 7.800039
_cell_angle_alpha 90.000000
_cell_angle_beta 90.000000
_cell_angle_gamma 90.000000
_cell_volume 2546.839277
_symmetry_space_group_name_H-M "A B A 2"
_symmetry_group_IT_number 41
_symmetry_cell_setting 'orthorhombic'
loop_
_space_group_symop_operation_xyz
x,y,z
-x,-y,z
1/2-x,y,1/2+z
1/2+x,-y,1/2+z
x,1/2+y,1/2+z
-x,1/2-y,1/2+z
1/2-x,1/2+y,z
1/2+x,1/2-y,z
loop_
_atom_site_type_symbol
_atom_site_label
_atom_site_fract_x
_atom_site_fract_y
_atom_site_fract_z
Si Si1 0.500000 0.500000 0.056751
Si Si2 0.870577 0.598879 0.549888
Si Si3 0.646185 0.587806 0.459257
Si Si4 0.016701 0.186198 0.137261
Si Si5 0.146185 0.587806 0.724266
Si Si6 0.129423 0.098879 0.633635
Si Si7 0.483299 0.313802 0.546261
Si Si8 0.500000 0.500000 0.626773
O O1 0.564859 0.548918 0.972557
O O2 0.417182 0.535191 0.159899
O O3 0.761419 0.589705 0.487403
O O4 0.871777 0.591501 0.756260
O O5 0.925188 0.659035 0.533376
O O6 0.603456 0.641256 0.562941
O O7 0.582818 0.535191 0.523624
O O8 0.000000 0.186324 0.341761
O O9 0.103456 0.141256 0.120580
O O10 0.037702 0.250000 0.091760
O O11 0.128223 0.591501 0.927263
O O12 0.261420 0.589705 0.696121
O O13 0.074812 0.159035 0.650147
O O14 0.064859 0.048918 0.710966
#
# Coordination Sequence:
#
# PCOD9365982 Si02
#       8
#     4   8   8   8   8   8   8   4
#     4  10  19  36  57  76 107 142 171 208 259 312
#     4  10  20  35  55  79 105 137 173 212 258 308
#     4  10  20  35  55  79 105 137 173 212 258 308
#     4   9  20  37  55  75 104 139 174 212 258 307
#     4  10  20  35  55  79 105 137 173 212 258 308
#     4  10  20  35  55  79 105 137 173 212 258 308
#     4   9  20  37  55  75 104 139 174 212 258 307
#     4  10  19  36  57  76 107 142 171 208 259 312
#
# _framework density 21.988040000000002
#
# number of rings (size 3 to 8) (size 9 to 14) (size 15 to 20)
#    0.000    2.286    0.000    5.143    0.000    3.429 
#    0.000   11.429    0.000    0.000    0.000    0.000 
#    0.000    0.000    0.000    0.000    0.000    0.000 
#
# Total GULP energy -156277.990304 kJ/mol
# GULP energy per Si atom -5581.356797 kJ/mol
# Density = 2.193799 g / cm^3
# Si number density = 21.988040 Si / 1000 Ang^3
#
#
#
# Elastic Constant Matrix: (Units=GPa)
#
#
# Indices 1 2 3 4 5 6 
#
# 1 167.5247 76.9635 28.6247 0.0000 0.0000 0.0000
# 2 76.9635 189.8059 23.3474 0.0000 0.0000 0.0000
# 3 28.6247 23.3474 39.8992 0.0000 0.0000 0.0000
# 4 0.0000 0.0000 0.0000 13.3947 0.0000 0.0000
# 5 0.0000 0.0000 0.0000 0.0000 35.8917 0.0000
# 6 0.0000 0.0000 0.0000 0.0000 0.0000 14.1331
#
#
#
# Elastic Compliance Matrix: (Units=1/GPa)
#
#
# Indices 1 2 3 4 5 6 
#
# 1 0.007911 -0.002704 -0.004093 0.000000 0.000000 0.000000
# 2 -0.002704 0.006602 -0.001923 0.000000 0.000000 0.000000
# 3 -0.004093 -0.001923 0.029125 0.000000 0.000000 0.000000
# 4 0.000000 0.000000 0.000000 0.074656 0.000000 0.000000
# 5 0.000000 0.000000 0.000000 0.000000 0.027862 0.000000
# 6 0.000000 0.000000 0.000000 0.000000 0.000000 0.070756
#
#
# Mechanical properties :
#
#
# Convention : Reuss Voigt Hill
#
# Bulk Modulus (GPa) = 38.17244 72.78900 55.48072
# Shear Modulus (GPa) = 20.56899 30.57019 25.56959
#
# Velocity S-wave (km/s) = 3.06185 3.73273 3.41381
# Velocity P-wave (km/s) = 5.46792 7.19399 6.38951
#
# Compressibility (1/GPa) = 0.02619691
#
# Stress axis : x y z
#
# Youngs Moduli (GPa) = 126.40509 151.47775 34.33495
#
# Poissons Ratio (x) = 0.40965 0.14054
# Poissons Ratio (y) = 0.34184 0.06602
# Poissons Ratio (z) = 0.51739 0.29127
#
# Static dielectric constant tensor:
#      x y z
#    x 1.798630 0.000000 0.000000 
#    y 0.000000 1.813220 0.000000 
#    z 0.000000 0.000000 1.920210 
# 
# From -- ./inp_files/5168.got.cif
#   From: 2010.05.17/outbox.cif.g08.bks.cpg/sg41_3_cif.got.tgz:5168.got - 2010.06.03 18:54:24.
