data_PCOD9365067
_publ_section_title
;
Structure prediction by ZEFSAII (Michael W. Deem and Ramdas Pophale) SiO2 
 PCOD9365067
Probable space group: A M A 2
;
_chemical_formula_sum "Si O2"
_cell_formula_units_Z 40
_cell_length_a 15.363805
_cell_length_b 13.294982
_cell_length_c 7.608467
_cell_angle_alpha 90.000000
_cell_angle_beta 90.000000
_cell_angle_gamma 90.000000
_cell_volume 1554.116965
_symmetry_space_group_name_H-M "A M A 2"
_symmetry_group_IT_number 40
_symmetry_cell_setting 'orthorhombic'
loop_
_space_group_symop_operation_xyz
x,y,z
-x,-y,z
1/2-x,y,z
1/2+x,-y,z
x,1/2+y,1/2+z
-x,1/2-y,1/2+z
1/2-x,1/2+y,1/2+z
1/2+x,1/2-y,1/2+z
loop_
_atom_site_type_symbol
_atom_site_label
_atom_site_fract_x
_atom_site_fract_y
_atom_site_fract_z
Si Si1 0.060554 0.203505 0.434830
Si Si2 0.158583 0.002730 0.859296
Si Si3 0.103109 0.533491 0.745498
Si Si4 0.120998 0.733369 0.298657
Si Si5 0.000000 0.500000 0.134074
Si Si6 0.250000 0.407312 0.912520
O O1 0.106322 0.154933 0.264834
O O2 0.115216 0.255271 0.588082
O O3 0.976865 0.263443 0.373330
O O4 0.029638 0.097310 0.524563
O O5 0.250000 0.957865 0.794134
O O6 0.156865 0.121831 0.821808
O O7 0.077175 0.960854 0.756796
O O8 0.146392 0.994167 0.066316
O O9 0.170303 0.491243 0.891767
O O10 0.000000 0.500000 0.730779
O O11 0.175393 0.818256 0.393065
#
# Coordination Sequence:
#
# PCOD9365067 Si02
#       6
#     8   8   8   8   4   4
#     4  11  23  44  69  96 132 184 217 279 343 398
#     4  11  23  42  66  97 131 175 217 283 332 405
#     4  12  23  43  70  95 135 177 230 272 341 405
#     4  11  24  43  67  98 137 171 226 283 343 396
#     4  10  22  42  68  94 130 172 224 268 334 406
#     4  12  24  40  66  98 132 174 228 280 322 408
#
# _framework density 25.738091000000001
#
# number of rings (size 3 to 8) (size 9 to 14) (size 15 to 20)
#    0.000    0.800    6.000    1.200    0.000    0.800 
#   10.800    0.000    0.000    0.000    0.000    0.000 
#    0.000    0.000    0.000    0.000    0.000    0.000 
#
# Total GULP energy -111379.252086 kJ/mol
# GULP energy per Si atom -5568.962604 kJ/mol
# Density = 2.567951 g / cm^3
# Si number density = 25.738091 Si / 1000 Ang^3
#
#
#
# Elastic Constant Matrix: (Units=GPa)
#
#
# Indices 1 2 3 4 5 6 
#
# 1 131.2018 30.8900 -11.1661 0.0000 0.0000 0.0000
# 2 30.8900 74.3759 -19.3414 0.0000 0.0000 0.0000
# 3 -11.1661 -19.3414 38.3757 0.0000 0.0000 0.0000
# 4 0.0000 0.0000 0.0000 -1.8464 0.0000 0.0000
# 5 0.0000 0.0000 0.0000 0.0000 -2.0713 0.0000
# 6 0.0000 0.0000 0.0000 0.0000 0.0000 56.3827
#
#
#
# Elastic Compliance Matrix: (Units=1/GPa)
#
#
# Indices 1 2 3 4 5 6 
#
# 1 0.008469 -0.003310 0.000796 0.000000 0.000000 0.000000
# 2 -0.003310 0.016767 0.007487 0.000000 0.000000 0.000000
# 3 0.000796 0.007487 0.030063 0.000000 0.000000 0.000000
# 4 0.000000 0.000000 0.000000 -0.541600 0.000000 0.000000
# 5 0.000000 0.000000 0.000000 0.000000 -0.482784 0.000000
# 6 0.000000 0.000000 0.000000 0.000000 0.000000 0.017736
#
#
# Mechanical properties :
#
#
# Convention : Reuss Voigt Hill
#
# Bulk Modulus (GPa) = 15.32679 27.19092 21.25886
# Shear Modulus (GPa) = -5.32172 26.73106 10.70467
#
# Velocity S-wave (km/s) = -1.43949 3.22620 2.04159
# Velocity P-wave (km/s) = 1.79025 4.94623 3.71956
#
# Compressibility (1/GPa) = 0.06524524
#
# Stress axis : x y z
#
# Youngs Moduli (GPa) = 118.07802 59.64012 33.26301
#
# Poissons Ratio (x) = 0.19743 -0.02647
# Poissons Ratio (y) = 0.39089 -0.24906
# Poissons Ratio (z) = -0.09396 -0.44655
#
# Static dielectric constant tensor:
#      x y z
#    x 2.143380 0.000000 0.000000 
#    y 0.000000 2.020120 0.000000 
#    z 0.000000 0.000000 2.248910 
# 
# From -- ./inp_files/6168.got.cif
#   From: 2010.05.17/outbox.cif.g08.bks.cpg/sg40_4_cif.got.tgz:6168.got - 2010.06.03 18:35:42.
