data_PCOD9365343
_publ_section_title
;
Structure prediction by ZEFSAII (Michael W. Deem and Ramdas Pophale) SiO2 
 PCOD9365343
Probable space group: A M A 2
;
_chemical_formula_sum "Si O2"
_cell_formula_units_Z 60
_cell_length_a 17.509788
_cell_length_b 16.951033
_cell_length_c 8.741691
_cell_angle_alpha 90.000000
_cell_angle_beta 90.000000
_cell_angle_gamma 90.000000
_cell_volume 2594.612513
_symmetry_space_group_name_H-M "A M A 2"
_symmetry_group_IT_number 40
_symmetry_cell_setting 'orthorhombic'
loop_
_space_group_symop_operation_xyz
x,y,z
-x,-y,z
1/2-x,y,z
1/2+x,-y,z
x,1/2+y,1/2+z
-x,1/2-y,1/2+z
1/2-x,1/2+y,1/2+z
1/2+x,1/2-y,1/2+z
loop_
_atom_site_type_symbol
_atom_site_label
_atom_site_fract_x
_atom_site_fract_y
_atom_site_fract_z
Si Si1 0.970595 0.578666 0.225350
Si Si2 0.107970 0.123087 0.949779
Si Si3 0.250000 0.667169 0.228403
Si Si4 0.339857 0.550426 0.747922
Si Si5 0.167129 0.381053 0.409672
Si Si6 0.865491 0.292676 0.945402
Si Si7 0.046552 0.287043 0.983795
Si Si8 0.161330 0.375671 0.775404
O O1 0.896514 0.567457 0.329108
O O2 0.000000 0.500000 0.144464
O O3 0.038566 0.604427 0.336553
O O4 0.948117 0.646185 0.110077
O O5 0.183041 0.137966 0.849585
O O6 0.083875 0.205067 0.030698
O O7 0.117639 0.061594 0.087436
O O8 0.182667 0.695082 0.102035
O O9 0.250000 0.549072 0.712042
O O10 0.354796 0.625873 0.853706
O O11 0.354772 0.465806 0.826534
O O12 0.250000 0.413262 0.370506
O O13 0.163168 0.288184 0.366841
O O14 0.157832 0.379053 0.592413
O O15 0.956206 0.278317 0.959546
O O16 0.097477 0.318303 0.842193
O O17 0.250000 0.351651 0.815876
#
# Coordination Sequence:
#
# PCOD9365343 Si02
#       8
#     8   8   4   8   8   8   8   8
#     4  12  28  48  67 109 149 187 235 303 373 429
#     4  12  26  46  75 106 144 187 249 297 361 433
#     4  12  24  44  76 110 144 190 232 310 364 426
#     4  11  24  45  71 108 136 187 242 300 356 435
#     4  11  23  46  74 102 140 191 240 297 357 434
#     4  12  24  43  74 105 144 186 244 296 364 423
#     4  12  28  44  70 105 144 191 240 297 361 434
#     4  10  26  46  72 101 145 188 243 293 363 429
#
# _framework density 23.124839000000001
#
# number of rings (size 3 to 8) (size 9 to 14) (size 15 to 20)
#    0.000    0.533    4.667    2.400    6.533    0.533 
#    1.200    0.000    0.000    0.000    0.000    0.000 
#    0.000    0.000    0.000    0.000    0.000    0.000 
#
# Total GULP energy -167412.114143 kJ/mol
# GULP energy per Si atom -5580.403805 kJ/mol
# Density = 2.307221 g / cm^3
# Si number density = 23.124839 Si / 1000 Ang^3
#
#
#
# Elastic Constant Matrix: (Units=GPa)
#
#
# Indices 1 2 3 4 5 6 
#
# 1 179.9520 15.0773 39.1311 0.0000 0.0000 0.0000
# 2 15.0773 55.3474 -8.9293 0.0000 0.0000 0.0000
# 3 39.1311 -8.9293 28.4678 0.0000 0.0000 0.0000
# 4 0.0000 0.0000 0.0000 31.9447 0.0000 0.0000
# 5 0.0000 0.0000 0.0000 0.0000 10.8212 0.0000
# 6 0.0000 0.0000 0.0000 0.0000 0.0000 12.5801
#
#
#
# Elastic Compliance Matrix: (Units=1/GPa)
#
#
# Indices 1 2 3 4 5 6 
#
# 1 0.008934 -0.004650 -0.013740 0.000000 0.000000 0.000000
# 2 -0.004650 0.021451 0.013121 0.000000 0.000000 0.000000
# 3 -0.013740 0.013121 0.058129 0.000000 0.000000 0.000000
# 4 0.000000 0.000000 0.000000 0.031304 0.000000 0.000000
# 5 0.000000 0.000000 0.000000 0.000000 0.092411 0.000000
# 6 0.000000 0.000000 0.000000 0.000000 0.000000 0.079491
#
#
# Mechanical properties :
#
#
# Convention : Reuss Voigt Hill
#
# Bulk Modulus (GPa) = 12.82440 39.36948 26.09694
# Shear Modulus (GPa) = 15.23224 25.63509 20.43366
#
# Velocity S-wave (km/s) = 2.56929 3.33310 2.97581
# Velocity P-wave (km/s) = 3.78939 5.64575 4.80801
#
# Compressibility (1/GPa) = 0.07797634
#
# Stress axis : x y z
#
# Youngs Moduli (GPa) = 111.92689 46.61707 17.20311
#
# Poissons Ratio (x) = 0.21679 0.23636
# Poissons Ratio (y) = 0.52051 -0.22572
# Poissons Ratio (z) = 1.53784 -0.61166
#
# Static dielectric constant tensor:
#      x y z
#    x 1.843010 0.000000 0.000000 
#    y 0.000000 1.952290 0.000000 
#    z 0.000000 0.000000 1.860810 
# 
# From -- ./inp_files/7700.got.cif
#   From: 2010.05.17/outbox.cif.g08.bks.cpg/sg40_4_cif.got.tgz:7700.got - 2010.06.03 18:35:42.
