data_PCOD9365233
_publ_section_title
;
Structure prediction by ZEFSAII (Michael W. Deem and Ramdas Pophale) SiO2 
 PCOD9365233
Probable space group: A M A 2
;
_chemical_formula_sum "Si O2"
_cell_formula_units_Z 40
_cell_length_a 21.533202
_cell_length_b 8.381181
_cell_length_c 9.819797
_cell_angle_alpha 90.000000
_cell_angle_beta 90.000000
_cell_angle_gamma 90.000000
_cell_volume 1772.214739
_symmetry_space_group_name_H-M "A M A 2"
_symmetry_group_IT_number 40
_symmetry_cell_setting 'orthorhombic'
loop_
_space_group_symop_operation_xyz
x,y,z
-x,-y,z
1/2-x,y,z
1/2+x,-y,z
x,1/2+y,1/2+z
-x,1/2-y,1/2+z
1/2-x,1/2+y,1/2+z
1/2+x,1/2-y,1/2+z
loop_
_atom_site_type_symbol
_atom_site_label
_atom_site_fract_x
_atom_site_fract_y
_atom_site_fract_z
Si Si1 0.750000 0.881382 0.887730
Si Si2 0.750000 0.295747 0.123934
Si Si3 0.618684 0.448091 0.058325
Si Si4 0.045508 0.651522 0.800413
Si Si5 0.250000 0.782352 0.805973
Si Si6 0.647344 0.304657 0.593580
Si Si7 0.000000 0.500000 0.249917
O O1 0.750000 0.731642 0.782294
O O2 0.750000 0.028225 0.783891
O O3 0.688972 0.893370 0.981663
O O4 0.679063 0.362931 0.116660
O O5 0.750000 0.229458 0.967881
O O6 0.593300 0.365843 0.923920
O O7 0.637567 0.630313 0.030277
O O8 0.561292 0.460732 0.162066
O O9 0.082113 0.639267 0.655779
O O10 0.000000 0.500000 0.810644
O O11 0.015218 0.827766 0.817173
O O12 0.308425 0.712935 0.725490
#
# Coordination Sequence:
#
# PCOD9365233 Si02
#       7
#     4   4   8   8   4   8   4
#     4  11  24  41  67 105 144 194 236 306 376 449
#     4  12  23  40  73 105 142 192 247 299 385 450
#     4  11  22  46  73 102 149 199 239 313 383 433
#     4  11  24  48  75 106 145 201 255 309 379 450
#     4  11  21  41  64 106 142 190 237 303 373 445
#     4  10  23  44  69 100 149 185 245 310 368 441
#     4  10  26  48  70 106 154 196 250 314 362 452
#
# _framework density 22.570630000000001
#
# number of rings (size 3 to 8) (size 9 to 14) (size 15 to 20)
#    0.000    1.200    5.000    0.600    0.000    4.800 
#    1.800    0.000    0.000    0.000    0.000    0.000 
#    0.000    0.000    0.000    0.000    0.000    0.000 
#
# Total GULP energy -111418.782519 kJ/mol
# GULP energy per Si atom -5570.939126 kJ/mol
# Density = 2.251926 g / cm^3
# Si number density = 22.570630 Si / 1000 Ang^3
#
#
#
# Elastic Constant Matrix: (Units=GPa)
#
#
# Indices 1 2 3 4 5 6 
#
# 1 131.3943 48.2858 37.3152 0.0000 0.0000 0.0000
# 2 48.2858 49.0439 32.5535 0.0000 0.0000 0.0000
# 3 37.3152 32.5535 102.0858 0.0000 0.0000 0.0000
# 4 0.0000 0.0000 0.0000 22.5549 0.0000 0.0000
# 5 0.0000 0.0000 0.0000 0.0000 26.0200 0.0000
# 6 0.0000 0.0000 0.0000 0.0000 0.0000 27.9552
#
#
#
# Elastic Compliance Matrix: (Units=1/GPa)
#
#
# Indices 1 2 3 4 5 6 
#
# 1 0.011975 -0.011269 -0.000783 0.000000 0.000000 0.000000
# 2 -0.011269 0.036470 -0.007510 0.000000 0.000000 0.000000
# 3 -0.000783 -0.007510 0.012477 0.000000 0.000000 0.000000
# 4 0.000000 0.000000 0.000000 0.044336 0.000000 0.000000
# 5 0.000000 0.000000 0.000000 0.000000 0.038432 0.000000
# 6 0.000000 0.000000 0.000000 0.000000 0.000000 0.035772
#
#
# Mechanical properties :
#
#
# Convention : Reuss Voigt Hill
#
# Bulk Modulus (GPa) = 45.88165 57.64810 51.76487
# Shear Modulus (GPa) = 22.13826 26.26399 24.20113
#
# Velocity S-wave (km/s) = 3.13524 3.41491 3.27806
# Velocity P-wave (km/s) = 5.78606 6.41447 6.10835
#
# Compressibility (1/GPa) = 0.02179521
#
# Stress axis : x y z
#
# Youngs Moduli (GPa) = 83.51053 27.41957 80.14747
#
# Poissons Ratio (x) = 0.30900 0.06279
# Poissons Ratio (y) = 0.94112 0.60195
# Poissons Ratio (z) = 0.06542 0.20593
#
# Static dielectric constant tensor:
#      x y z
#    x 1.879750 0.000000 0.000000 
#    y 0.000000 1.918490 0.000000 
#    z 0.000000 0.000000 1.886460 
# 
# From -- ./inp_files/8628.got.cif
#   From: 2010.05.17/outbox.cif.g08.bks.cpg/sg40_5_cif.got.tgz:8628.got - 2010.06.03 18:35:42.
