data_PCOD9365459
_publ_section_title
;
Structure prediction by ZEFSAII (Michael W. Deem and Ramdas Pophale) SiO2 
 PCOD9365459
Probable space group: A M A 2
;
_chemical_formula_sum "Si O2"
_cell_formula_units_Z 40
_cell_length_a 19.867682
_cell_length_b 17.197189
_cell_length_c 5.105462
_cell_angle_alpha 90.000000
_cell_angle_beta 90.000000
_cell_angle_gamma 90.000000
_cell_volume 1744.374432
_symmetry_space_group_name_H-M "A M A 2"
_symmetry_group_IT_number 40
_symmetry_cell_setting 'orthorhombic'
loop_
_space_group_symop_operation_xyz
x,y,z
-x,-y,z
1/2-x,y,z
1/2+x,-y,z
x,1/2+y,1/2+z
-x,1/2-y,1/2+z
1/2-x,1/2+y,1/2+z
1/2+x,1/2-y,1/2+z
loop_
_atom_site_type_symbol
_atom_site_label
_atom_site_fract_x
_atom_site_fract_y
_atom_site_fract_z
Si Si1 0.825652 0.050290 0.701950
Si Si2 0.004694 0.625290 0.554162
Si Si3 0.170747 0.263875 0.220838
Si Si4 0.581690 0.272200 0.210581
Si Si5 0.395774 0.001650 0.181785
O O1 0.750000 0.037720 0.605051
O O2 0.832455 0.142415 0.758445
O O3 0.874206 0.026529 0.466176
O O4 0.837375 0.001134 0.965619
O O5 0.035898 0.653505 0.279384
O O6 0.066274 0.583026 0.696967
O O7 0.970880 0.700976 0.680410
O O8 0.947157 0.560625 0.553027
O O9 0.250000 0.242552 0.211548
O O10 0.129871 0.226876 0.460633
O O11 0.130623 0.243496 0.957182
#
# Coordination Sequence:
#
# PCOD9365459 Si02
#       5
#     8   8   8   8   8
#     4  11  22  43  71  99 132 179 235 287 344 414
#     4  11  26  43  69  99 145 176 231 276 361 409
#     4  11  23  42  68  97 131 177 234 284 339 412
#     4  12  24  43  67 100 132 185 221 288 338 422
#     4  11  25  44  68 104 133 182 224 295 343 426
#
# _framework density 22.930855999999999
#
# number of rings (size 3 to 8) (size 9 to 14) (size 15 to 20)
#    0.000    0.800    4.000    2.400    0.000   12.800 
#    0.000    6.000    0.000    0.000    0.000    0.000 
#    0.000    0.000    0.000    0.000    0.000    0.000 
#
# Total GULP energy -111926.043508 kJ/mol
# GULP energy per Si atom -5596.302175 kJ/mol
# Density = 2.287866 g / cm^3
# Si number density = 22.930856 Si / 1000 Ang^3
#
#
#
# Elastic Constant Matrix: (Units=GPa)
#
#
# Indices 1 2 3 4 5 6 
#
# 1 98.2799 43.3156 55.0628 0.0000 0.0000 0.0000
# 2 43.3156 57.7626 26.5045 0.0000 0.0000 0.0000
# 3 55.0628 26.5045 155.9950 0.0000 0.0000 0.0000
# 4 0.0000 0.0000 0.0000 12.4910 0.0000 0.0000
# 5 0.0000 0.0000 0.0000 0.0000 32.3352 0.0000
# 6 0.0000 0.0000 0.0000 0.0000 0.0000 24.8336
#
#
#
# Elastic Compliance Matrix: (Units=1/GPa)
#
#
# Indices 1 2 3 4 5 6 
#
# 1 0.017486 -0.011150 -0.004278 0.000000 0.000000 0.000000
# 2 -0.011150 0.025885 -0.000463 0.000000 0.000000 0.000000
# 3 -0.004278 -0.000463 0.007999 0.000000 0.000000 0.000000
# 4 0.000000 0.000000 0.000000 0.080057 0.000000 0.000000
# 5 0.000000 0.000000 0.000000 0.000000 0.030926 0.000000
# 6 0.000000 0.000000 0.000000 0.000000 0.000000 0.040268
#
#
# Mechanical properties :
#
#
# Convention : Reuss Voigt Hill
#
# Bulk Modulus (GPa) = 51.04503 62.42260 56.73382
# Shear Modulus (GPa) = 20.75281 26.40893 23.58087
#
# Velocity S-wave (km/s) = 3.01161 3.39732 3.21026
# Velocity P-wave (km/s) = 5.86531 6.53224 6.20774
#
# Compressibility (1/GPa) = 0.01959054
#
# Stress axis : x y z
#
# Youngs Moduli (GPa) = 57.18966 38.63180 125.01590
#
# Poissons Ratio (x) = 0.43073 0.53478
# Poissons Ratio (y) = 0.63764 0.05783
# Poissons Ratio (z) = 0.24464 0.01787
#
# Static dielectric constant tensor:
#      x y z
#    x 1.879190 0.000000 0.000000 
#    y 0.000000 1.860100 0.000000 
#    z 0.000000 0.000000 1.829830 
# 
# From -- ./inp_files/1744.got.cif
#   From: 2010.05.17/outbox.cif.g08.bks.cpg/sg40_1_cif.got.tgz:1744.got - 2010.06.03 18:35:42.
