data_PCOD9365266
_publ_section_title
;
Structure prediction by ZEFSAII (Michael W. Deem and Ramdas Pophale) SiO2 
 PCOD9365266
Probable space group: A M A 2
;
_chemical_formula_sum "Si O2"
_cell_formula_units_Z 32
_cell_length_a 26.862209
_cell_length_b 9.096493
_cell_length_c 5.319743
_cell_angle_alpha 90.000000
_cell_angle_beta 90.000000
_cell_angle_gamma 90.000000
_cell_volume 1299.889289
_symmetry_space_group_name_H-M "A M A 2"
_symmetry_group_IT_number 40
_symmetry_cell_setting 'orthorhombic'
loop_
_space_group_symop_operation_xyz
x,y,z
-x,-y,z
1/2-x,y,z
1/2+x,-y,z
x,1/2+y,1/2+z
-x,1/2-y,1/2+z
1/2-x,1/2+y,1/2+z
1/2+x,1/2-y,1/2+z
loop_
_atom_site_type_symbol
_atom_site_label
_atom_site_fract_x
_atom_site_fract_y
_atom_site_fract_z
Si Si1 0.808617 0.340556 0.737680
Si Si2 0.607693 0.992311 0.421673
Si Si3 0.865701 0.561257 0.419000
Si Si4 0.517704 0.829887 0.256173
O O1 0.750000 0.350785 0.716022
O O2 0.834125 0.447429 0.943248
O O3 0.836995 0.410144 0.496713
O O4 0.826947 0.181323 0.821942
O O5 0.593859 0.037314 0.700609
O O6 0.575614 0.855132 0.326338
O O7 0.608698 0.103333 0.186571
O O8 0.507839 0.754912 0.988473
O O9 0.500000 0.000000 0.252634
#
# Coordination Sequence:
#
# PCOD9365266 Si02
#       4
#     8   8   8   8
#     4  10  24  42  66  98 133 179 228 280 343 414
#     4  10  26  44  70  95 141 174 233 280 358 406
#     4  10  24  40  66  93 134 175 222 279 343 407
#     4  12  28  46  77 107 144 187 243 297 362 430
#
# _framework density 24.617483
#
# number of rings (size 3 to 8) (size 9 to 14) (size 15 to 20)
#    1.500    0.000    0.000    3.000   10.500    2.000 
#    0.000    0.000    0.000    0.000    0.000    0.000 
#    0.000    0.000    0.000    0.000    0.000    0.000 
#
# Total GULP energy -89245.347109 kJ/mol
# GULP energy per Si atom -5577.834194 kJ/mol
# Density = 2.456145 g / cm^3
# Si number density = 24.617483 Si / 1000 Ang^3
#
#
#
# Elastic Constant Matrix: (Units=GPa)
#
#
# Indices 1 2 3 4 5 6 
#
# 1 93.4117 17.1950 27.7314 0.0000 0.0000 0.0000
# 2 17.1950 124.1910 73.7006 0.0000 0.0000 0.0000
# 3 27.7314 73.7006 185.3092 0.0000 0.0000 0.0000
# 4 0.0000 0.0000 0.0000 43.2075 0.0000 0.0000
# 5 0.0000 0.0000 0.0000 0.0000 21.0359 0.0000
# 6 0.0000 0.0000 0.0000 0.0000 0.0000 40.0336
#
#
#
# Elastic Compliance Matrix: (Units=1/GPa)
#
#
# Indices 1 2 3 4 5 6 
#
# 1 0.011254 -0.000731 -0.001393 0.000000 0.000000 0.000000
# 2 -0.000731 0.010587 -0.004101 0.000000 0.000000 0.000000
# 3 -0.001393 -0.004101 0.007236 0.000000 0.000000 0.000000
# 4 0.000000 0.000000 0.000000 0.023144 0.000000 0.000000
# 5 0.000000 0.000000 0.000000 0.000000 0.047538 0.000000
# 6 0.000000 0.000000 0.000000 0.000000 0.000000 0.024979
#
#
# Mechanical properties :
#
#
# Convention : Reuss Voigt Hill
#
# Bulk Modulus (GPa) = 60.14981 71.12954 65.63968
# Shear Modulus (GPa) = 35.03092 39.80774 37.41933
#
# Velocity S-wave (km/s) = 3.77637 4.02562 3.90299
# Velocity P-wave (km/s) = 6.59556 7.11085 6.85805
#
# Compressibility (1/GPa) = 0.01662516
#
# Stress axis : x y z
#
# Youngs Moduli (GPa) = 88.86106 94.45311 138.19722
#
# Poissons Ratio (x) = 0.06908 0.19254
# Poissons Ratio (y) = 0.06499 0.56679
# Poissons Ratio (z) = 0.12380 0.38738
#
# Static dielectric constant tensor:
#      x y z
#    x 2.034180 0.000000 0.000000 
#    y 0.000000 1.980690 0.000000 
#    z 0.000000 0.000000 2.067050 
# 
# From -- ./inp_files/3255.got.cif
#   From: 2010.05.17/outbox.cif.g08.bks.cpg/sg40_2_cif.got.tgz:3255.got - 2010.06.03 18:35:42.
