data_PCOD9365105
_publ_section_title
;
Structure prediction by ZEFSAII (Michael W. Deem and Ramdas Pophale) SiO2 
 PCOD9365105
Probable space group: A M A 2
;
_chemical_formula_sum "Si O2"
_cell_formula_units_Z 52
_cell_length_a 15.344572
_cell_length_b 22.137796
_cell_length_c 7.773647
_cell_angle_alpha 90.000000
_cell_angle_beta 90.000000
_cell_angle_gamma 90.000000
_cell_volume 2640.669054
_symmetry_space_group_name_H-M "A M A 2"
_symmetry_group_IT_number 40
_symmetry_cell_setting 'orthorhombic'
loop_
_space_group_symop_operation_xyz
x,y,z
-x,-y,z
1/2-x,y,z
1/2+x,-y,z
x,1/2+y,1/2+z
-x,1/2-y,1/2+z
1/2-x,1/2+y,1/2+z
1/2+x,1/2-y,1/2+z
loop_
_atom_site_type_symbol
_atom_site_label
_atom_site_fract_x
_atom_site_fract_y
_atom_site_fract_z
Si Si1 0.750000 0.321071 0.750000
Si Si2 0.909038 0.744891 0.742237
Si Si3 0.605229 0.727258 0.148783
Si Si4 0.648100 0.589655 0.109997
Si Si5 0.901155 0.016499 0.935051
Si Si6 0.853166 0.613461 0.721480
Si Si7 0.750000 0.327718 0.128803
Si Si8 0.250000 0.081977 0.943084
O O1 0.666875 0.276652 0.736117
O O2 0.750000 0.370045 0.598774
O O3 0.750000 0.351705 0.935481
O O4 0.900528 0.676085 0.677982
O O5 0.835219 0.786430 0.658825
O O6 0.005868 0.768222 0.709061
O O7 0.890694 0.741373 0.945579
O O8 0.638215 0.658963 0.172297
O O9 0.750000 0.573292 0.112643
O O10 0.602006 0.545865 0.244809
O O11 0.618025 0.589738 0.910564
O O12 0.835306 0.960278 0.947093
O O13 0.868276 0.065512 0.072815
O O14 0.000000 0.000000 0.976487
O O15 0.750000 0.627182 0.737500
O O16 0.750000 0.380092 0.268276
#
# Coordination Sequence:
#
# PCOD9365105 Si02
#       8
#     4   8   8   8   8   8   4   4
#     4  12  26  43  67  99 139 186 216 279 352 402
#     4  11  23  41  67 104 142 173 222 284 342 409
#     4  11  23  41  67 104 142 173 222 284 342 409
#     4  10  22  43  70  98 128 175 230 280 329 391
#     4  12  28  46  72  96 134 186 227 281 327 404
#     4  10  22  43  70  98 128 175 230 280 329 391
#     4  12  26  43  67  99 139 186 216 279 352 402
#     4  12  28  50  62  98 146 176 232 276 340 414
#
# _framework density 19.691980000000001
#
# number of rings (size 3 to 8) (size 9 to 14) (size 15 to 20)
#    0.000    0.923    4.615    0.923    8.615    1.846 
#    0.000    0.000    0.000    0.000    0.000    0.000 
#    0.000    0.000    0.000    0.000    0.000    0.000 
#
# Total GULP energy -145417.961338 kJ/mol
# GULP energy per Si atom -5592.998513 kJ/mol
# Density = 1.964716 g / cm^3
# Si number density = 19.691980 Si / 1000 Ang^3
#
#
#
# Elastic Constant Matrix: (Units=GPa)
#
#
# Indices 1 2 3 4 5 6 
#
# 1 95.6593 18.9741 7.5839 0.0000 0.0000 0.0000
# 2 18.9741 52.5094 16.5229 0.0000 0.0000 0.0000
# 3 7.5839 16.5229 53.9283 0.0000 0.0000 0.0000
# 4 0.0000 0.0000 0.0000 18.9790 0.0000 0.0000
# 5 0.0000 0.0000 0.0000 0.0000 26.9984 0.0000
# 6 0.0000 0.0000 0.0000 0.0000 0.0000 19.2559
#
#
#
# Elastic Compliance Matrix: (Units=1/GPa)
#
#
# Indices 1 2 3 4 5 6 
#
# 1 0.011268 -0.003954 -0.000373 0.000000 0.000000 0.000000
# 2 -0.003954 0.022464 -0.006326 0.000000 0.000000 0.000000
# 3 -0.000373 -0.006326 0.020534 0.000000 0.000000 0.000000
# 4 0.000000 0.000000 0.000000 0.052690 0.000000 0.000000
# 5 0.000000 0.000000 0.000000 0.000000 0.037039 0.000000
# 6 0.000000 0.000000 0.000000 0.000000 0.000000 0.051932
#
#
# Mechanical properties :
#
#
# Convention : Reuss Voigt Hill
#
# Bulk Modulus (GPa) = 30.34172 32.02875 31.18523
# Shear Modulus (GPa) = 21.90871 23.64775 22.77823
#
# Velocity S-wave (km/s) = 3.33914 3.46913 3.40476
# Velocity P-wave (km/s) = 5.50528 5.68742 5.59709
#
# Compressibility (1/GPa) = 0.03295792
#
# Stress axis : x y z
#
# Youngs Moduli (GPa) = 88.74963 44.51619 48.69986
#
# Poissons Ratio (x) = 0.17602 0.01817
# Poissons Ratio (y) = 0.35093 0.30810
# Poissons Ratio (z) = 0.03311 0.28163
#
# Static dielectric constant tensor:
#      x y z
#    x 1.655050 0.000000 0.000000 
#    y 0.000000 1.662510 0.000000 
#    z 0.000000 0.000000 1.701750 
# 
# From -- ./inp_files/6692.got.cif
#   From: 2010.05.17/outbox.cif.g08.bks.cpg/sg40_4_cif.got.tgz:6692.got - 2010.06.03 18:35:42.
