data_PCOD9365235
_publ_section_title
;
Structure prediction by ZEFSAII (Michael W. Deem and Ramdas Pophale) SiO2 
 PCOD9365235
Probable space group: A M A 2
;
_chemical_formula_sum "Si O2"
_cell_formula_units_Z 48
_cell_length_a 21.733923
_cell_length_b 9.642173
_cell_length_c 10.969345
_cell_angle_alpha 90.000000
_cell_angle_beta 90.000000
_cell_angle_gamma 90.000000
_cell_volume 2298.760570
_symmetry_space_group_name_H-M "A M A 2"
_symmetry_group_IT_number 40
_symmetry_cell_setting 'orthorhombic'
loop_
_space_group_symop_operation_xyz
x,y,z
-x,-y,z
1/2-x,y,z
1/2+x,-y,z
x,1/2+y,1/2+z
-x,1/2-y,1/2+z
1/2-x,1/2+y,1/2+z
1/2+x,1/2-y,1/2+z
loop_
_atom_site_type_symbol
_atom_site_label
_atom_site_fract_x
_atom_site_fract_y
_atom_site_fract_z
Si Si1 0.679639 0.034391 0.912970
Si Si2 0.972667 0.360062 0.521651
Si Si3 0.104403 0.686198 0.291280
Si Si4 0.678175 0.354125 0.888792
Si Si5 0.943885 0.398631 0.048562
Si Si6 0.881220 0.009326 0.174844
O O1 0.750000 0.022761 0.947009
O O2 0.669299 0.190012 0.865090
O O3 0.662965 0.909012 0.823029
O O4 0.642245 0.024841 0.037767
O O5 0.927453 0.295939 0.422102
O O6 0.940593 0.409501 0.648641
O O7 0.000000 0.500000 0.466295
O O8 0.027598 0.253681 0.534975
O O9 0.068520 0.592152 0.192879
O O10 0.111177 0.838159 0.232830
O O11 0.750000 0.374456 0.930362
O O12 0.666038 0.432230 0.762714
O O13 0.621975 0.404549 0.978056
O O14 0.000000 0.500000 0.010037
#
# Coordination Sequence:
#
# PCOD9365235 Si02
#       6
#     8   8   8   8   8   8
#     4  10  23  44  69  99 139 185 235 287 350 419
#     4  11  23  42  65 101 139 179 229 286 354 417
#     4  11  23  42  67 101 137 183 228 289 353 419
#     4  11  25  46  71 101 142 190 237 295 360 425
#     4  12  25  41  69 106 141 184 234 300 352 430
#     4  11  23  44  70  99 141 185 231 292 348 425
#
# _framework density 20.880817
#
# number of rings (size 3 to 8) (size 9 to 14) (size 15 to 20)
#    0.000    1.000    3.333    3.000    4.667    2.667 
#    0.000    0.000    0.000    0.000    0.000    0.000 
#    0.000    0.000    0.000    0.000    0.000    0.000 
#
# Total GULP energy -133765.610008 kJ/mol
# GULP energy per Si atom -5573.567084 kJ/mol
# Density = 2.083329 g / cm^3
# Si number density = 20.880817 Si / 1000 Ang^3
#
#
#
# Elastic Constant Matrix: (Units=GPa)
#
#
# Indices 1 2 3 4 5 6 
#
# 1 121.2827 53.1297 30.0033 0.0000 0.0000 0.0000
# 2 53.1297 100.8998 49.3675 0.0000 0.0000 0.0000
# 3 30.0033 49.3675 58.2344 0.0000 0.0000 0.0000
# 4 0.0000 0.0000 0.0000 35.9977 0.0000 0.0000
# 5 0.0000 0.0000 0.0000 0.0000 32.8376 0.0000
# 6 0.0000 0.0000 0.0000 0.0000 0.0000 36.9744
#
#
#
# Elastic Compliance Matrix: (Units=1/GPa)
#
#
# Indices 1 2 3 4 5 6 
#
# 1 0.010772 -0.005052 -0.001267 0.000000 0.000000 0.000000
# 2 -0.005052 0.019305 -0.013762 0.000000 0.000000 0.000000
# 3 -0.001267 -0.013762 0.029492 0.000000 0.000000 0.000000
# 4 0.000000 0.000000 0.000000 0.027780 0.000000 0.000000
# 5 0.000000 0.000000 0.000000 0.000000 0.030453 0.000000
# 6 0.000000 0.000000 0.000000 0.000000 0.000000 0.027046
#
#
# Mechanical properties :
#
#
# Convention : Reuss Voigt Hill
#
# Bulk Modulus (GPa) = 51.53248 60.60199 56.06723
# Shear Modulus (GPa) = 26.11277 31.02303 28.56790
#
# Velocity S-wave (km/s) = 3.54017 3.85868 3.70285
# Velocity P-wave (km/s) = 6.43765 6.99560 6.72241
#
# Compressibility (1/GPa) = 0.01940524
#
# Stress axis : x y z
#
# Youngs Moduli (GPa) = 92.83526 51.80116 33.90799
#
# Poissons Ratio (x) = 0.26170 0.04296
# Poissons Ratio (y) = 0.46901 0.46665
# Poissons Ratio (z) = 0.11762 0.71290
#
# Static dielectric constant tensor:
#      x y z
#    x 1.829520 0.000000 0.000000 
#    y 0.000000 1.823420 0.000000 
#    z 0.000000 0.000000 1.735670 
# 
# From -- ./inp_files/13906.got.cif
#   From: 2010.05.17/outbox.cif.g08.bks.cpg/sg40_7_cif.got.tgz:13906.got - 2010.06.03 18:35:42.
