data_PCOD9365288
_publ_section_title
;
Structure prediction by ZEFSAII (Michael W. Deem and Ramdas Pophale) SiO2 
 PCOD9365288
Probable space group: A M A 2
;
_chemical_formula_sum "Si O2"
_cell_formula_units_Z 56
_cell_length_a 33.329360
_cell_length_b 5.464406
_cell_length_c 13.560838
_cell_angle_alpha 90.000000
_cell_angle_beta 90.000000
_cell_angle_gamma 90.000000
_cell_volume 2469.769719
_symmetry_space_group_name_H-M "A M A 2"
_symmetry_group_IT_number 40
_symmetry_cell_setting 'orthorhombic'
loop_
_space_group_symop_operation_xyz
x,y,z
-x,-y,z
1/2-x,y,z
1/2+x,-y,z
x,1/2+y,1/2+z
-x,1/2-y,1/2+z
1/2-x,1/2+y,1/2+z
1/2+x,1/2-y,1/2+z
loop_
_atom_site_type_symbol
_atom_site_label
_atom_site_fract_x
_atom_site_fract_y
_atom_site_fract_z
Si Si1 0.666166 0.600908 0.380790
Si Si2 0.081310 0.632094 0.878909
Si Si3 0.092231 0.443537 0.085390
Si Si4 0.250000 0.786217 0.534583
Si Si5 0.475368 0.250180 0.211575
Si Si6 0.666334 0.379779 0.588277
Si Si7 0.628521 0.710468 0.752559
Si Si8 0.750000 0.719906 0.407221
O O1 0.623344 0.726883 0.366349
O O2 0.669799 0.572469 0.499112
O O3 0.660814 0.350245 0.320174
O O4 0.707591 0.729622 0.350521
O O5 0.045481 0.752977 0.819061
O O6 0.092690 0.382378 0.822319
O O7 0.073871 0.586992 0.993417
O O8 0.060562 0.257203 0.132136
O O9 0.132042 0.304059 0.050691
O O10 0.107781 0.615518 0.172474
O O11 0.290953 0.752134 0.595352
O O12 0.250000 0.554306 0.457509
O O13 0.250000 0.048861 0.481330
O O14 0.500000 0.500000 0.197331
O O15 0.500000 0.000000 0.201878
O O16 0.650242 0.502465 0.687537
#
# Coordination Sequence:
#
# PCOD9365288 Si02
#       8
#     8   8   8   4   8   8   8   4
#     4  11  23  42  75 106 152 200 255 304 373 435
#     4  12  25  47  77 107 147 199 244 300 374 452
#     4  12  25  47  77 107 147 199 244 300 374 452
#     4  10  24  43  69 109 157 201 256 318 365 431
#     4  12  29  52  78 112 150 185 241 314 376 453
#     4  11  23  42  75 106 152 200 255 304 373 435
#     4  12  23  43  72 113 144 194 253 306 358 448
#     4  10  24  43  69 109 157 201 256 318 365 431
#
# _framework density 22.674178000000001
#
# number of rings (size 3 to 8) (size 9 to 14) (size 15 to 20)
#    0.000    0.571    5.714    1.714    4.000    1.143 
#    0.000    7.143    0.000    0.000    0.000    0.000 
#    0.000    0.000    0.000    0.000    0.000    0.000 
#
# Total GULP energy -156576.258867 kJ/mol
# GULP energy per Si atom -5592.009245 kJ/mol
# Density = 2.262257 g / cm^3
# Si number density = 22.674178 Si / 1000 Ang^3
#
#
#
# Elastic Constant Matrix: (Units=GPa)
#
#
# Indices 1 2 3 4 5 6 
#
# 1 108.3347 26.6070 9.8679 0.0000 0.0000 0.0000
# 2 26.6070 74.8049 8.6346 0.0000 0.0000 0.0000
# 3 9.8679 8.6346 93.6042 0.0000 0.0000 0.0000
# 4 0.0000 0.0000 0.0000 33.6404 0.0000 0.0000
# 5 0.0000 0.0000 0.0000 0.0000 13.8235 0.0000
# 6 0.0000 0.0000 0.0000 0.0000 0.0000 42.2612
#
#
#
# Elastic Compliance Matrix: (Units=1/GPa)
#
#
# Indices 1 2 3 4 5 6 
#
# 1 0.010165 -0.003530 -0.000746 0.000000 0.000000 0.000000
# 2 -0.003530 0.014738 -0.000987 0.000000 0.000000 0.000000
# 3 -0.000746 -0.000987 0.010853 0.000000 0.000000 0.000000
# 4 0.000000 0.000000 0.000000 0.029726 0.000000 0.000000
# 5 0.000000 0.000000 0.000000 0.000000 0.072340 0.000000
# 6 0.000000 0.000000 0.000000 0.000000 0.000000 0.023662
#
#
# Mechanical properties :
#
#
# Convention : Reuss Voigt Hill
#
# Bulk Modulus (GPa) = 39.63549 40.77364 40.20457
# Shear Modulus (GPa) = 27.71297 33.38731 30.55014
#
# Velocity S-wave (km/s) = 3.49983 3.84146 3.67461
# Velocity P-wave (km/s) = 5.81809 6.13980 5.98111
#
# Compressibility (1/GPa) = 0.02522992
#
# Stress axis : x y z
#
# Youngs Moduli (GPa) = 98.37218 67.85411 92.14027
#
# Poissons Ratio (x) = 0.23950 0.06874
# Poissons Ratio (y) = 0.34721 0.09098
# Poissons Ratio (z) = 0.07339 0.06700
#
# Static dielectric constant tensor:
#      x y z
#    x 1.849640 0.000000 0.000000 
#    y 0.000000 1.933790 0.000000 
#    z 0.000000 0.000000 1.826900 
# 
# From -- ./inp_files/18755.got.cif
#   From: 2010.05.17/outbox.cif.g08.bks.cpg/sg40_10_cif.got.tgz:18755.got - 2010.06.03 18:35:42.
