data_PCOD9365688
_publ_section_title
;
Structure prediction by ZEFSAII (Michael W. Deem and Ramdas Pophale) SiO2 
 PCOD9365688
Probable space group: A M A 2
;
_chemical_formula_sum "Si O2"
_cell_formula_units_Z 28
_cell_length_a 15.000000
_cell_length_b 9.000000
_cell_length_c 21.000000
_cell_angle_alpha 90.000000
_cell_angle_beta 90.000000
_cell_angle_gamma 90.000000
_cell_volume 2835.000000
_symmetry_space_group_name_H-M "A M A 2"
_symmetry_group_IT_number 40
_symmetry_cell_setting 'orthorhombic'
loop_
_space_group_symop_operation_xyz
x,y,z
-x,-y,z
1/2-x,y,z
1/2+x,-y,z
x,1/2+y,1/2+z
-x,1/2-y,1/2+z
1/2-x,1/2+y,1/2+z
1/2+x,1/2-y,1/2+z
loop_
_atom_site_type_symbol
_atom_site_label
_atom_site_fract_x
_atom_site_fract_y
_atom_site_fract_z
Si Si1 0.351518 0.700481 0.150030
Si Si2 0.088746 0.788801 0.291376
Si Si3 0.500000 0.500000 0.077510
Si Si4 0.117925 0.618968 0.780870
Si Si5 0.750000 0.165053 0.859475
Si Si6 0.645572 0.731193 0.028026
Si Si7 0.399806 0.562897 0.407473
Si Si8 0.393514 0.031172 0.137530
O O1 0.250000 0.640510 0.142018
O O2 0.371925 0.727575 0.224920
O O3 0.431248 0.601551 0.119661
O O4 0.354477 0.868384 0.122380
O O5 0.102152 0.665747 0.344585
O O6 0.984330 0.825757 0.282649
O O7 0.128503 0.951301 0.308521
O O8 0.569287 0.603964 0.037588
O O9 0.174161 0.738167 0.819233
O O10 0.138144 0.592210 0.706118
O O11 0.671113 0.068250 0.896209
O O12 0.750000 0.679525 0.027884
O O13 0.630917 0.845752 0.086224
O O14 0.626818 0.828641 0.965301
O O15 0.500000 0.500000 0.417125
O O16 0.500000 0.000000 0.141389
#
# Coordination Sequence:
#
# PCOD9365688 Si02
#       8
#     8   8   4   8   4   8   8   8
#     4  11  24  42  69 105 139 183 232 296 361 422
#     4  10  22  43  67  98 144 181 221 291 362 418
#     4  12  26  46  70 102 146 182 246 304 360 418
#     4  10  21  42  72 105 134 175 232 294 358 431
#     4  12  26  44  70 110 132 178 250 284 362 432
#     4  12  27  48  72 101 143 198 244 297 356 434
#     4  12  27  48  69 100 145 192 239 296 355 430
#     4  11  20  45  74 102 144 185 233 288 361 432
#
# _framework density 9.8765429999999999
#
# number of rings (size 3 to 8) (size 9 to 14) (size 15 to 20)
#    0.000    0.857    6.429    1.286    7.000    2.286 
#    0.000    0.000    0.000    0.000    0.000    0.000 
#    0.000    0.000    0.000    0.000    0.000    0.000 
#
# Total GULP energy -155925.853892 kJ/mol
# GULP energy per Si atom -5568.780496 kJ/mol
# Density = 0.985406 g / cm^3
# Si number density = 9.876543 Si / 1000 Ang^3
#
#
#
# Elastic Constant Matrix: (Units=GPa)
#
#
# Indices 1 2 3 4 5 6 
#
# 1 186.7917 58.9297 38.5139 0.0000 0.0000 0.0000
# 2 58.9297 99.1442 52.2632 0.0000 0.0000 0.0000
# 3 38.5139 52.2632 59.5073 0.0000 0.0000 0.0000
# 4 0.0000 0.0000 0.0000 42.8233 0.0000 0.0000
# 5 0.0000 0.0000 0.0000 0.0000 10.3790 0.0000
# 6 0.0000 0.0000 0.0000 0.0000 0.0000 31.8101
#
#
#
# Elastic Compliance Matrix: (Units=1/GPa)
#
#
# Indices 1 2 3 4 5 6 
#
# 1 0.006665 -0.003143 -0.001554 0.000000 0.000000 0.000000
# 2 -0.003143 0.020264 -0.015763 0.000000 0.000000 0.000000
# 3 -0.001554 -0.015763 0.031654 0.000000 0.000000 0.000000
# 4 0.000000 0.000000 0.000000 0.023352 0.000000 0.000000
# 5 0.000000 0.000000 0.000000 0.000000 0.096348 0.000000
# 6 0.000000 0.000000 0.000000 0.000000 0.000000 0.031437
#
#
# Mechanical properties :
#
#
# Convention : Reuss Voigt Hill
#
# Bulk Modulus (GPa) = 56.61045 71.65077 64.13061
# Shear Modulus (GPa) = 19.49117 30.05157 24.77137
#
# Velocity S-wave (km/s) = 3.14465 3.90469 3.54510
# Velocity P-wave (km/s) = 6.47351 7.52867 7.02094
#
# Compressibility (1/GPa) = 0.01766458
#
# Stress axis : x y z
#
# Youngs Moduli (GPa) = 150.02834 49.34967 31.59137
#
# Poissons Ratio (x) = 0.15509 0.04909
# Poissons Ratio (y) = 0.47150 0.49797
# Poissons Ratio (z) = 0.23311 0.77789
#
# Static dielectric constant tensor:
#      x y z
#    x 1.726850 0.000000 0.000000 
#    y 0.000000 1.694730 0.000000 
#    z 0.000000 0.000000 1.682950 
# 
# From -- ./inp_files/23137.got.cif
#   From: 2010.05.17/outbox.ucp.g08.bks.cvg/sg40_12_cif.got.tgz:23137.got - 2010.06.11 16:26:39.
