data_PCOD9365929
_publ_section_title
;
Structure prediction by ZEFSAII (Michael W. Deem and Ramdas Pophale) SiO2 
 PCOD9365929
Probable space group: A B A 2
;
_chemical_formula_sum "Si O2"
_cell_formula_units_Z 64
_cell_length_a 22.536173
_cell_length_b 8.568719
_cell_length_c 16.504296
_cell_angle_alpha 90.000000
_cell_angle_beta 90.000000
_cell_angle_gamma 90.000000
_cell_volume 3187.080791
_symmetry_space_group_name_H-M "A B A 2"
_symmetry_group_IT_number 41
_symmetry_cell_setting 'orthorhombic'
loop_
_space_group_symop_operation_xyz
x,y,z
-x,-y,z
1/2-x,y,1/2+z
1/2+x,-y,1/2+z
x,1/2+y,1/2+z
-x,1/2-y,1/2+z
1/2-x,1/2+y,z
1/2+x,1/2-y,z
loop_
_atom_site_type_symbol
_atom_site_label
_atom_site_fract_x
_atom_site_fract_y
_atom_site_fract_z
Si Si1 0.663756 0.466986 0.223750
Si Si2 0.684423 0.560981 0.871768
Si Si3 0.929343 0.848623 0.103018
Si Si4 0.962883 0.840930 0.553473
Si Si5 0.231741 0.345654 0.195629
Si Si6 0.438438 0.939155 0.443870
Si Si7 0.695537 0.408447 0.407112
Si Si8 0.645057 0.037965 0.068638
O O1 0.601568 0.429798 0.180350
O O2 0.697939 0.625945 0.200762
O O3 0.709158 0.331573 0.192895
O O4 0.665341 0.450445 0.320865
O O5 0.702416 0.592203 0.779144
O O6 0.616208 0.522054 0.885905
O O7 0.734427 0.444831 0.903296
O O8 0.690625 0.724194 0.919240
O O9 0.889046 0.700973 0.078975
O O10 0.995161 0.772467 0.107573
O O11 0.928697 0.966877 0.027816
O O12 0.947188 0.739750 0.473303
O O13 0.901725 0.902304 0.591995
O O14 0.000000 0.000000 0.535190
O O15 0.202677 0.442072 0.123292
O O16 0.500000 0.000000 0.407981
O O17 0.664782 0.503758 0.477722
#
# Coordination Sequence:
#
# PCOD9365929 Si02
#       8
#     8   8   8   8   8   8   8   8
#     4   9  19  37  51  80 112 155 181 242 284 353
#     4  10  21  37  52  82 116 152 185 241 292 357
#     4   9  20  34  57  79 113 145 192 234 292 341
#     4   9  18  36  58  82 108 146 192 244 282 346
#     4   9  20  34  52  77 114 144 186 229 293 337
#     4  10  20  36  58  83 113 150 192 243 287 351
#     4  10  21  34  57  80 119 149 195 237 299 346
#     4  10  19  34  57  83 108 148 190 236 287 350
#
# _framework density 20.081071999999999
#
# number of rings (size 3 to 8) (size 9 to 14) (size 15 to 20)
#    0.000    2.500    1.250    0.000    3.500    2.000 
#    0.000    4.375    0.000    5.250    0.000    0.000 
#    0.000    0.000    0.000    0.000    0.000    0.000 
#
# Total GULP energy -178390.346876 kJ/mol
# GULP energy per Si atom -5574.698340 kJ/mol
# Density = 2.003537 g / cm^3
# Si number density = 20.081072 Si / 1000 Ang^3
#
#
#
# Elastic Constant Matrix: (Units=GPa)
#
#
# Indices 1 2 3 4 5 6 
#
# 1 95.9428 1.6783 31.9151 0.0000 0.0000 0.0000
# 2 1.6783 18.0702 5.3325 0.0000 0.0000 0.0000
# 3 31.9151 5.3325 51.2494 0.0000 0.0000 0.0000
# 4 0.0000 0.0000 0.0000 14.3629 0.0000 0.0000
# 5 0.0000 0.0000 0.0000 0.0000 26.2702 0.0000
# 6 0.0000 0.0000 0.0000 0.0000 0.0000 17.3029
#
#
#
# Elastic Compliance Matrix: (Units=1/GPa)
#
#
# Indices 1 2 3 4 5 6 
#
# 1 0.013173 0.001235 -0.008332 0.000000 0.000000 0.000000
# 2 0.001235 0.057208 -0.006722 0.000000 0.000000 0.000000
# 3 -0.008332 -0.006722 0.025400 0.000000 0.000000 0.000000
# 4 0.000000 0.000000 0.000000 0.069624 0.000000 0.000000
# 5 0.000000 0.000000 0.000000 0.000000 0.038066 0.000000
# 6 0.000000 0.000000 0.000000 0.000000 0.000000 0.057794
#
#
# Mechanical properties :
#
#
# Convention : Reuss Voigt Hill
#
# Bulk Modulus (GPa) = 14.67459 27.01270 20.84365
# Shear Modulus (GPa) = 16.04536 20.00965 18.02750
#
# Velocity S-wave (km/s) = 2.82978 3.16007 2.99947
# Velocity P-wave (km/s) = 4.24269 5.17646 4.73266
#
# Compressibility (1/GPa) = 0.06814501
#
# Stress axis : x y z
#
# Youngs Moduli (GPa) = 75.91391 17.47992 39.36952
#
# Poissons Ratio (x) = -0.02159 0.32802
# Poissons Ratio (y) = -0.09377 0.26463
# Poissons Ratio (z) = 0.63250 0.11750
#
# Static dielectric constant tensor:
#      x y z
#    x 1.763060 0.000000 0.000000 
#    y 0.000000 1.768840 0.000000 
#    z 0.000000 0.000000 1.682240 
# 
# From -- ./inp_files/9178.got.cif
#   From: 2010.05.17/outbox.cif.g08.bks.cpg/sg41_5_cif.got.tgz:9178.got - 2010.06.03 18:54:24.
