data_PCOD9365463
_publ_section_title
;
Structure prediction by ZEFSAII (Michael W. Deem and Ramdas Pophale) SiO2 
 PCOD9365463
Probable space group: A M A 2
;
_chemical_formula_sum "Si O2"
_cell_formula_units_Z 64
_cell_length_a 30.093690
_cell_length_b 11.437301
_cell_length_c 8.634634
_cell_angle_alpha 90.000000
_cell_angle_beta 90.000000
_cell_angle_gamma 90.000000
_cell_volume 2971.959777
_symmetry_space_group_name_H-M "A M A 2"
_symmetry_group_IT_number 40
_symmetry_cell_setting 'orthorhombic'
loop_
_space_group_symop_operation_xyz
x,y,z
-x,-y,z
1/2-x,y,z
1/2+x,-y,z
x,1/2+y,1/2+z
-x,1/2-y,1/2+z
1/2-x,1/2+y,1/2+z
1/2+x,1/2-y,1/2+z
loop_
_atom_site_type_symbol
_atom_site_label
_atom_site_fract_x
_atom_site_fract_y
_atom_site_fract_z
Si Si1 0.444846 0.235786 0.665830
Si Si2 0.199611 0.726434 0.151347
Si Si3 0.579589 0.022738 0.578888
Si Si4 0.200169 0.305413 0.299711
Si Si5 0.367771 0.403557 0.776079
Si Si6 0.464375 0.245990 0.026516
Si Si7 0.351396 0.033719 0.804467
Si Si8 0.628787 0.346056 0.620312
O O1 0.432716 0.115164 0.575905
O O2 0.403901 0.325438 0.681697
O O3 0.487739 0.292406 0.585910
O O4 0.457823 0.213791 0.846263
O O5 0.250000 0.705267 0.205059
O O6 0.177680 0.833475 0.247059
O O7 0.168387 0.614956 0.171967
O O8 0.200324 0.749392 0.969158
O O9 0.604171 0.029127 0.744645
O O10 0.613918 0.073446 0.449361
O O11 0.539410 0.113445 0.555591
O O12 0.250000 0.299517 0.233869
O O13 0.185024 0.436842 0.335350
O O14 0.163798 0.244329 0.191197
O O15 0.365491 0.531888 0.706730
O O16 0.422327 0.195426 0.121076
O O17 0.360384 0.121686 0.943556
#
# Coordination Sequence:
#
# PCOD9365463 Si02
#       8
#     8   8   8   8   8   8   8   8
#     4  11  25  45  68  98 138 174 233 281 341 409
#     4  11  24  45  69 100 139 178 228 283 340 406
#     4  11  22  45  71  94 136 180 226 280 345 408
#     4  11  26  45  69 102 137 180 230 285 342 405
#     4  11  25  43  70 101 137 187 223 279 347 408
#     4  11  25  43  67 103 131 181 228 283 342 409
#     4  12  22  45  73  95 134 181 225 280 341 409
#     4  12  25  43  69 101 138 179 231 279 346 406
#
# _framework density 21.534611000000002
#
# number of rings (size 3 to 8) (size 9 to 14) (size 15 to 20)
#    0.000    0.750    5.000    2.250    1.750    3.000 
#    2.250    0.625    0.000    0.000    0.000    0.000 
#    0.000    0.000    0.000    0.000    0.000    0.000 
#
# Total GULP energy -178748.951099 kJ/mol
# GULP energy per Si atom -5585.904722 kJ/mol
# Density = 2.148560 g / cm^3
# Si number density = 21.534611 Si / 1000 Ang^3
#
#
#
# Elastic Constant Matrix: (Units=GPa)
#
#
# Indices 1 2 3 4 5 6 
#
# 1 100.8489 14.1620 12.0400 0.0000 0.0000 0.0000
# 2 14.1620 70.0081 -1.2352 0.0000 0.0000 0.0000
# 3 12.0400 -1.2352 44.0377 0.0000 0.0000 0.0000
# 4 0.0000 0.0000 0.0000 40.1373 0.0000 0.0000
# 5 0.0000 0.0000 0.0000 0.0000 27.7302 0.0000
# 6 0.0000 0.0000 0.0000 0.0000 0.0000 22.0770
#
#
#
# Elastic Compliance Matrix: (Units=1/GPa)
#
#
# Indices 1 2 3 4 5 6 
#
# 1 0.010576 -0.002192 -0.002953 0.000000 0.000000 0.000000
# 2 -0.002192 0.014745 0.001013 0.000000 0.000000 0.000000
# 3 -0.002953 0.001013 0.023544 0.000000 0.000000 0.000000
# 4 0.000000 0.000000 0.000000 0.024914 0.000000 0.000000
# 5 0.000000 0.000000 0.000000 0.000000 0.036062 0.000000
# 6 0.000000 0.000000 0.000000 0.000000 0.000000 0.045296
#
#
# Mechanical properties :
#
#
# Convention : Reuss Voigt Hill
#
# Bulk Modulus (GPa) = 24.62969 29.42535 27.02752
# Shear Modulus (GPa) = 28.25903 30.65077 29.45490
#
# Velocity S-wave (km/s) = 3.62644 3.77679 3.70238
# Velocity P-wave (km/s) = 5.38488 5.71951 5.55471
#
# Compressibility (1/GPa) = 0.04060140
#
# Stress axis : x y z
#
# Youngs Moduli (GPa) = 94.55262 67.81835 42.47445
#
# Poissons Ratio (x) = 0.14863 0.12543
# Poissons Ratio (y) = 0.20722 -0.04302
# Poissons Ratio (z) = 0.27921 -0.06868
#
# Static dielectric constant tensor:
#      x y z
#    x 1.768500 0.000000 0.000000 
#    y 0.000000 1.789590 0.000000 
#    z 0.000000 0.000000 1.808520 
# 
# From -- ./inp_files/9440.got.cif
#   From: 2010.05.17/outbox.cif.g08.bks.cpg/sg40_5_cif.got.tgz:9440.got - 2010.06.03 18:35:42.
