data_PCOD9365764
_publ_section_title
;
Structure prediction by ZEFSAII (Michael W. Deem and Ramdas Pophale) SiO2 
 PCOD9365764
Probable space group: A B A 2
;
_chemical_formula_sum "Si O2"
_cell_formula_units_Z 56
_cell_length_a 16.838602
_cell_length_b 28.084279
_cell_length_c 5.556593
_cell_angle_alpha 90.000000
_cell_angle_beta 90.000000
_cell_angle_gamma 90.000000
_cell_volume 2627.712810
_symmetry_space_group_name_H-M "A B A 2"
_symmetry_group_IT_number 41
_symmetry_cell_setting 'orthorhombic'
loop_
_space_group_symop_operation_xyz
x,y,z
-x,-y,z
1/2-x,y,1/2+z
1/2+x,-y,1/2+z
x,1/2+y,1/2+z
-x,1/2-y,1/2+z
1/2-x,1/2+y,z
1/2+x,1/2-y,z
loop_
_atom_site_type_symbol
_atom_site_label
_atom_site_fract_x
_atom_site_fract_y
_atom_site_fract_z
Si Si1 0.581267 0.468316 0.045670
Si Si2 0.546025 0.259809 0.954548
Si Si3 0.208531 0.412939 0.963639
Si Si4 0.991232 0.362755 0.528436
Si Si5 0.792074 0.202792 0.463867
Si Si6 0.417958 0.029567 0.046028
Si Si7 0.540610 0.110649 0.031673
O O1 0.500000 0.500000 0.049233
O O2 0.552566 0.413557 0.039860
O O3 0.625313 0.476904 0.294694
O O4 0.624743 0.478799 0.797193
O O5 0.508461 0.253044 0.687634
O O6 0.623414 0.227915 0.974547
O O7 0.561509 0.316366 0.987041
O O8 0.243467 0.427282 0.703994
O O9 0.205993 0.354848 0.965301
O O10 0.115280 0.424340 0.995399
O O11 0.048865 0.365447 0.294333
O O12 0.034816 0.359102 0.786469
O O13 0.746773 0.216819 0.708902
O O14 0.456926 0.082635 0.045386
O O15 0.500000 0.000000 0.048426
#
# Coordination Sequence:
#
# PCOD9365764 Si02
#       7
#     8   8   8   8   8   8   8
#     4   8  14  25  41  63  92 116 141 181 234 296
#     4  12  23  35  53  77 105 138 176 219 260 299
#     4  10  19  30  44  61  85 122 164 197 234 286
#     4  10  19  30  47  70  97 124 154 197 250 291
#     4  10  21  36  51  68  97 138 175 208 254 310
#     4   8  14  24  40  62  89 116 141 173 231 296
#     4  10  18  30  46  67  97 122 152 203 248 294
#
# _framework density 21.311308
#
# number of rings (size 3 to 8) (size 9 to 14) (size 15 to 20)
#    0.000    2.286    0.000    4.286    0.000    2.286 
#    0.000    0.000    0.000    0.000    0.000    0.000 
#    0.000  109.714    0.000    0.000    0.000    0.000 
#
# Total GULP energy -156005.447682 kJ/mol
# GULP energy per Si atom -5571.623131 kJ/mol
# Density = 2.126280 g / cm^3
# Si number density = 21.311308 Si / 1000 Ang^3
#
#
#
# Elastic Constant Matrix: (Units=GPa)
#
#
# Indices 1 2 3 4 5 6 
#
# 1 31.5292 -3.3014 9.8417 0.0000 0.0000 0.0000
# 2 -3.3014 82.1465 -6.6874 0.0000 0.0000 0.0000
# 3 9.8417 -6.6874 222.4518 0.0000 0.0000 0.0000
# 4 0.0000 0.0000 0.0000 11.0113 0.0000 0.0000
# 5 0.0000 0.0000 0.0000 0.0000 23.1932 0.0000
# 6 0.0000 0.0000 0.0000 0.0000 0.0000 21.0862
#
#
#
# Elastic Compliance Matrix: (Units=1/GPa)
#
#
# Indices 1 2 3 4 5 6 
#
# 1 0.032275 0.001184 -0.001392 0.000000 0.000000 0.000000
# 2 0.001184 0.012247 0.000316 0.000000 0.000000 0.000000
# 3 -0.001392 0.000316 0.004566 0.000000 0.000000 0.000000
# 4 0.000000 0.000000 0.000000 0.090816 0.000000 0.000000
# 5 0.000000 0.000000 0.000000 0.000000 0.043116 0.000000
# 6 0.000000 0.000000 0.000000 0.000000 0.000000 0.047424
#
#
# Mechanical properties :
#
#
# Convention : Reuss Voigt Hill
#
# Bulk Modulus (GPa) = 20.28285 37.31479 28.79882
# Shear Modulus (GPa) = 20.27044 33.47644 26.87344
#
# Velocity S-wave (km/s) = 3.08743 3.96767 3.55490
# Velocity P-wave (km/s) = 4.71675 6.20784 5.51294
#
# Compressibility (1/GPa) = 0.04930275
#
# Stress axis : x y z
#
# Youngs Moduli (GPa) = 30.98355 81.65490 218.98855
#
# Poissons Ratio (x) = -0.09666 0.30490
# Poissons Ratio (y) = -0.03668 -0.06916
# Poissons Ratio (z) = 0.04314 -0.02579
#
# Static dielectric constant tensor:
#      x y z
#    x 1.706860 0.000000 0.000000 
#    y 0.000000 1.833730 0.000000 
#    z 0.000000 0.000000 1.908410 
# 
# From -- ./inp_files/323.got.cif
#   From: 2010.05.17/outbox.cif.g08.bks.cpg/sg41_1_cif.got.tgz:323.got - 2010.06.03 18:54:24.
