data_PCOD9365146
_publ_section_title
;
Structure prediction by ZEFSAII (Michael W. Deem and Ramdas Pophale) SiO2 
 PCOD9365146
Probable space group: A M A 2
;
_chemical_formula_sum "Si O2"
_cell_formula_units_Z 60
_cell_length_a 28.714926
_cell_length_b 9.114697
_cell_length_c 9.295526
_cell_angle_alpha 90.000000
_cell_angle_beta 90.000000
_cell_angle_gamma 90.000000
_cell_volume 2432.898033
_symmetry_space_group_name_H-M "A M A 2"
_symmetry_group_IT_number 40
_symmetry_cell_setting 'orthorhombic'
loop_
_space_group_symop_operation_xyz
x,y,z
-x,-y,z
1/2-x,y,z
1/2+x,-y,z
x,1/2+y,1/2+z
-x,1/2-y,1/2+z
1/2-x,1/2+y,1/2+z
1/2+x,1/2-y,1/2+z
loop_
_atom_site_type_symbol
_atom_site_label
_atom_site_fract_x
_atom_site_fract_y
_atom_site_fract_z
Si Si1 0.338545 0.364428 0.543310
Si Si2 0.656086 0.193021 0.653137
Si Si3 0.865037 0.918228 0.816398
Si Si4 0.596828 0.842529 0.382671
Si Si5 0.558015 0.168886 0.338943
Si Si6 0.750000 0.675776 0.338098
Si Si7 0.696420 0.183927 0.341467
Si Si8 0.513161 0.667007 0.521565
O O1 0.366331 0.495905 0.467580
O O2 0.365317 0.213567 0.502106
O O3 0.290188 0.351822 0.461014
O O4 0.326591 0.397153 0.707534
O O5 0.630940 0.043694 0.700407
O O6 0.622176 0.307818 0.731356
O O7 0.707675 0.206911 0.721651
O O8 0.666988 0.179349 0.486079
O O9 0.902520 0.791010 0.808611
O O10 0.812318 0.853814 0.797988
O O11 0.577680 0.507504 0.874220
O O12 0.554489 0.733960 0.423947
O O13 0.529511 0.228678 0.475983
O O14 0.528145 0.166271 0.189876
O O15 0.750000 0.144617 0.360312
O O16 0.500000 0.500000 0.482681
#
# Coordination Sequence:
#
# PCOD9365146 Si02
#       8
#     8   8   8   8   8   4   8   8
#     4  10  22  47  77 109 156 211 260 331 385 465
#     4  10  23  46  76 109 157 210 259 329 389 462
#     4  10  26  47  76 103 159 204 259 317 395 470
#     4  10  24  48  79 112 162 210 258 315 395 479
#     4  12  28  53  81 119 154 205 259 323 394 478
#     4   8  16  40  74 102 144 204 256 310 382 450
#     4  12  25  40  75 116 147 200 276 337 391 452
#     4  12  26  49  83 119 157 198 256 322 393 475
#
# _framework density 24.661946
#
# number of rings (size 3 to 8) (size 9 to 14) (size 15 to 20)
#    0.000    1.600    1.333    3.600    3.733    8.533 
#    0.000   13.333    8.800    0.000    0.000    1.867 
#    0.000    0.000    0.000    0.000    0.000    0.000 
#
# Total GULP energy -167239.632251 kJ/mol
# GULP energy per Si atom -5574.654408 kJ/mol
# Density = 2.460581 g / cm^3
# Si number density = 24.661946 Si / 1000 Ang^3
#
#
#
# Elastic Constant Matrix: (Units=GPa)
#
#
# Indices 1 2 3 4 5 6 
#
# 1 134.6783 82.5892 55.6839 0.0000 0.0000 0.0000
# 2 82.5892 184.3090 55.1384 0.0000 0.0000 0.0000
# 3 55.6839 55.1384 173.2878 0.0000 0.0000 0.0000
# 4 0.0000 0.0000 0.0000 34.4563 0.0000 0.0000
# 5 0.0000 0.0000 0.0000 0.0000 41.4375 0.0000
# 6 0.0000 0.0000 0.0000 0.0000 0.0000 16.0995
#
#
#
# Elastic Compliance Matrix: (Units=1/GPa)
#
#
# Indices 1 2 3 4 5 6 
#
# 1 0.010923 -0.004249 -0.002158 0.000000 0.000000 0.000000
# 2 -0.004249 0.007649 -0.001069 0.000000 0.000000 0.000000
# 3 -0.002158 -0.001069 0.006804 0.000000 0.000000 0.000000
# 4 0.000000 0.000000 0.000000 0.029022 0.000000 0.000000
# 5 0.000000 0.000000 0.000000 0.000000 0.024133 0.000000
# 6 0.000000 0.000000 0.000000 0.000000 0.000000 0.062114
#
#
# Mechanical properties :
#
#
# Convention : Reuss Voigt Hill
#
# Bulk Modulus (GPa) = 95.91974 97.67759 96.79867
# Shear Modulus (GPa) = 31.43241 38.32290 34.87765
#
# Velocity S-wave (km/s) = 3.57393 3.94627 3.76470
# Velocity P-wave (km/s) = 7.48391 7.77538 7.63104
#
# Compressibility (1/GPa) = 0.01042538
#
# Stress axis : x y z
#
# Youngs Moduli (GPa) = 91.55020 130.73023 146.96822
#
# Poissons Ratio (x) = 0.55548 0.31715
# Poissons Ratio (y) = 0.38900 0.15705
# Poissons Ratio (z) = 0.19756 0.13969
#
# Static dielectric constant tensor:
#      x y z
#    x 1.969800 0.000000 0.000000 
#    y 0.000000 2.043910 0.000000 
#    z 0.000000 0.000000 2.051900 
# 
# From -- ./inp_files/9410.got.cif
#   From: 2010.05.17/outbox.cif.g08.bks.cpg/sg40_5_cif.got.tgz:9410.got - 2010.06.03 18:35:42.
