data_PCOD9365335
_publ_section_title
;
Structure prediction by ZEFSAII (Michael W. Deem and Ramdas Pophale) SiO2 
 PCOD9365335
Probable space group: A M A 2
;
_chemical_formula_sum "Si O2"
_cell_formula_units_Z 24
_cell_length_a 9.162668
_cell_length_b 5.230597
_cell_length_c 19.403368
_cell_angle_alpha 90.000000
_cell_angle_beta 90.000000
_cell_angle_gamma 90.000000
_cell_volume 929.930156
_symmetry_space_group_name_H-M "A M A 2"
_symmetry_group_IT_number 40
_symmetry_cell_setting 'orthorhombic'
loop_
_space_group_symop_operation_xyz
x,y,z
-x,-y,z
1/2-x,y,z
1/2+x,-y,z
x,1/2+y,1/2+z
-x,1/2-y,1/2+z
1/2-x,1/2+y,1/2+z
1/2+x,1/2-y,1/2+z
loop_
_atom_site_type_symbol
_atom_site_label
_atom_site_fract_x
_atom_site_fract_y
_atom_site_fract_z
Si Si1 0.250000 0.217497 0.331630
Si Si2 0.750000 0.834831 0.723554
Si Si3 0.250000 0.337559 0.949130
Si Si4 0.250000 0.837975 0.599738
Si Si5 0.500000 0.500000 0.674288
Si Si6 0.500000 0.500000 0.411723
O O1 0.250000 0.391331 0.262165
O O2 0.395602 0.325639 0.366788
O O3 0.250000 0.937350 0.369326
O O4 0.605068 0.660797 0.727116
O O5 0.750000 0.910179 0.644770
O O6 0.394140 0.171382 0.955373
O O7 0.250000 0.465534 0.023372
O O8 0.392228 0.673204 0.626392
#
# Coordination Sequence:
#
# PCOD9365335 Si02
#       6
#     4   4   4   4   4   4
#     4  11  26  46  71 106 147 199 253 314 378 452
#     4  11  26  48  72 113 149 199 258 315 390 448
#     4  11  24  48  76 108 156 202 255 316 377 464
#     4  11  24  44  77 115 148 196 256 317 383 452
#     4  10  25  46  72 114 154 201 244 328 370 481
#     4  10  25  46  68 102 146 205 248 296 380 461
#
# _framework density 25.808391
#
# number of rings (size 3 to 8) (size 9 to 14) (size 15 to 20)
#    0.000    1.333    0.000    3.000    4.667   16.000 
#    0.000    0.000    0.000    0.000    0.000    0.000 
#    0.000    0.000    0.000    0.000    0.000    0.000 
#
# Total GULP energy -66882.051883 kJ/mol
# GULP energy per Si atom -5573.504324 kJ/mol
# Density = 2.574965 g / cm^3
# Si number density = 25.808391 Si / 1000 Ang^3
#
#
#
# Elastic Constant Matrix: (Units=GPa)
#
#
# Indices 1 2 3 4 5 6 
#
# 1 156.0125 25.8610 13.2005 0.0000 0.0000 0.0000
# 2 25.8610 82.6045 17.8596 0.0000 0.0000 0.0000
# 3 13.2005 17.8596 134.0304 0.0000 0.0000 0.0000
# 4 0.0000 0.0000 0.0000 14.1054 0.0000 0.0000
# 5 0.0000 0.0000 0.0000 0.0000 -5.6772 0.0000
# 6 0.0000 0.0000 0.0000 0.0000 0.0000 14.7496
#
#
#
# Elastic Compliance Matrix: (Units=1/GPa)
#
#
# Indices 1 2 3 4 5 6 
#
# 1 0.006781 -0.002037 -0.000396 0.000000 0.000000 0.000000
# 2 -0.002037 0.013077 -0.001542 0.000000 0.000000 0.000000
# 3 -0.000396 -0.001542 0.007705 0.000000 0.000000 0.000000
# 4 0.000000 0.000000 0.000000 0.070895 0.000000 0.000000
# 5 0.000000 0.000000 0.000000 0.000000 -0.176144 0.000000
# 6 0.000000 0.000000 0.000000 0.000000 0.000000 0.067799
#
#
# Mechanical properties :
#
#
# Convention : Reuss Voigt Hill
#
# Bulk Modulus (GPa) = 50.98782 54.05440 52.52111
# Shear Modulus (GPa) = 1086.69156 25.68398 556.18777
#
# Velocity S-wave (km/s) = 20.54204 3.15807 14.69607
# Velocity P-wave (km/s) = 24.13365 5.85558 17.56020
#
# Compressibility (1/GPa) = 0.01961253
#
# Stress axis : x y z
#
# Youngs Moduli (GPa) = 147.47133 76.46995 129.77765
#
# Poissons Ratio (x) = 0.15579 0.05144
# Poissons Ratio (y) = 0.30043 0.20010
# Poissons Ratio (z) = 0.05846 0.11791
#
# Static dielectric constant tensor:
#      x y z
#    x 2.615410 0.000000 0.000000 
#    y 0.000000 2.299120 0.000000 
#    z 0.000000 0.000000 2.049960 
# 
# From -- ./inp_files/18827.got.cif
#   From: 2010.05.17/outbox.cif.g08.bks.cpg/sg40_10_cif.got.tgz:18827.got - 2010.06.03 18:35:42.
