data_PCOD9365881
_publ_section_title
;
Structure prediction by ZEFSAII (Michael W. Deem and Ramdas Pophale) SiO2 
 PCOD9365881
Probable space group: A B A 2
;
_chemical_formula_sum "Si O2"
_cell_formula_units_Z 56
_cell_length_a 14.426808
_cell_length_b 5.126401
_cell_length_c 34.921874
_cell_angle_alpha 90.000000
_cell_angle_beta 90.000000
_cell_angle_gamma 90.000000
_cell_volume 2582.738092
_symmetry_space_group_name_H-M "A B A 2"
_symmetry_group_IT_number 41
_symmetry_cell_setting 'orthorhombic'
loop_
_space_group_symop_operation_xyz
x,y,z
-x,-y,z
1/2-x,y,1/2+z
1/2+x,-y,1/2+z
x,1/2+y,1/2+z
-x,1/2-y,1/2+z
1/2-x,1/2+y,z
1/2+x,1/2-y,z
loop_
_atom_site_type_symbol
_atom_site_label
_atom_site_fract_x
_atom_site_fract_y
_atom_site_fract_z
Si Si1 0.886300 0.005692 0.395950
Si Si2 0.889015 0.498502 0.530324
Si Si3 0.113502 0.509650 0.983883
Si Si4 0.110419 0.002748 0.850520
Si Si5 0.311223 0.234767 0.273416
Si Si6 0.686575 0.596826 0.113522
Si Si7 0.184816 0.213555 0.689588
O O1 0.855591 0.992709 0.439891
O O2 0.857902 0.779132 0.365925
O O3 0.854694 0.281978 0.380054
O O4 0.000000 0.000000 0.396521
O O5 0.855890 0.718565 0.501433
O O6 0.862695 0.590341 0.572841
O O7 0.000000 0.500000 0.529268
O O8 0.858505 0.220471 0.513203
O O9 0.000000 0.500000 0.982873
O O10 0.132578 0.120538 0.808899
O O11 0.000000 0.000000 0.853125
O O12 0.276545 0.533956 0.274888
O O13 0.359546 0.219974 0.231704
O O14 0.769016 0.809760 0.114815
O O15 0.630429 0.693232 0.151445
O O16 0.268277 0.428378 0.688747
#
# Coordination Sequence:
#
# PCOD9365881 Si02
#       7
#     8   8   8   8   8   8   8
#     4   9  17  30  49  72  97 129 168 204 240 291
#     4  10  19  31  51  76 100 126 163 210 251 289
#     4   9  17  30  49  72  97 129 168 204 240 291
#     4  10  19  31  51  76 100 126 163 210 251 289
#     4  10  19  33  53  74  99 131 167 202 243 296
#     4  10  19  33  53  74  99 131 167 202 243 296
#     4   8  16  30  50  72  92 124 164 194 224 284
#
# _framework density 21.682414999999999
#
# number of rings (size 3 to 8) (size 9 to 14) (size 15 to 20)
#    0.000    2.571    0.000    2.571    0.000    3.429 
#    0.000    0.000    0.000   32.571    0.000    0.000 
#    0.000    0.000    0.000    0.000    0.000    0.000 
#
# Total GULP energy -155970.546374 kJ/mol
# GULP energy per Si atom -5570.376656 kJ/mol
# Density = 2.163306 g / cm^3
# Si number density = 21.682415 Si / 1000 Ang^3
#
#
#
# Elastic Constant Matrix: (Units=GPa)
#
#
# Indices 1 2 3 4 5 6 
#
# 1 33.3024 -7.7335 11.3617 0.0000 0.0000 0.0000
# 2 -7.7335 98.8128 35.8739 0.0000 0.0000 0.0000
# 3 11.3617 35.8739 199.6359 0.0000 0.0000 0.0000
# 4 0.0000 0.0000 0.0000 36.1080 0.0000 0.0000
# 5 0.0000 0.0000 0.0000 0.0000 523.7443 0.0000
# 6 0.0000 0.0000 0.0000 0.0000 0.0000 -6.1633
#
#
#
# Elastic Compliance Matrix: (Units=1/GPa)
#
#
# Indices 1 2 3 4 5 6 
#
# 1 0.031624 0.003347 -0.002401 0.000000 0.000000 0.000000
# 2 0.003347 0.011181 -0.002200 0.000000 0.000000 0.000000
# 3 -0.002401 -0.002200 0.005541 0.000000 0.000000 0.000000
# 4 0.000000 0.000000 0.000000 0.027695 0.000000 0.000000
# 5 0.000000 0.000000 0.000000 0.000000 0.001909 0.000000
# 6 0.000000 0.000000 0.000000 0.000000 0.000000 -0.162252
#
#
# Mechanical properties :
#
#
# Convention : Reuss Voigt Hill
#
# Bulk Modulus (GPa) = 21.81595 45.63945 33.72770
# Shear Modulus (GPa) = -75.17142 130.22108 27.52483
#
# Velocity S-wave (km/s) = -5.89445 7.75814 3.56681
# Velocity P-wave (km/s) = 6.02019 10.06710 5.70543
#
# Compressibility (1/GPa) = 0.04583802
#
# Stress axis : x y z
#
# Youngs Moduli (GPa) = 31.62124 89.44026 180.47168
#
# Poissons Ratio (x) = -0.29934 0.43335
# Poissons Ratio (y) = -0.10583 0.39696
# Poissons Ratio (z) = 0.07593 0.19673
#
# Static dielectric constant tensor:
#      x y z
#    x 1.809610 0.000000 0.000000 
#    y 0.000000 1.766820 0.000000 
#    z 0.000000 0.000000 1.904420 
# 
# From -- ./inp_files/9279.got.cif
#   From: 2010.05.17/outbox.cif.g08.bks.cpg/sg41_5_cif.got.tgz:9279.got - 2010.06.03 18:54:24.
