data_PCOD9365052
_publ_section_title
;
Structure prediction by ZEFSAII (Michael W. Deem and Ramdas Pophale) SiO2 
 PCOD9365052
Probable space group: A M A 2
;
_chemical_formula_sum "Si O2"
_cell_formula_units_Z 48
_cell_length_a 17.240719
_cell_length_b 11.999008
_cell_length_c 10.039548
_cell_angle_alpha 90.000000
_cell_angle_beta 90.000000
_cell_angle_gamma 90.000000
_cell_volume 2076.896607
_symmetry_space_group_name_H-M "A M A 2"
_symmetry_group_IT_number 40
_symmetry_cell_setting 'orthorhombic'
loop_
_space_group_symop_operation_xyz
x,y,z
-x,-y,z
1/2-x,y,z
1/2+x,-y,z
x,1/2+y,1/2+z
-x,1/2-y,1/2+z
1/2-x,1/2+y,1/2+z
1/2+x,1/2-y,1/2+z
loop_
_atom_site_type_symbol
_atom_site_label
_atom_site_fract_x
_atom_site_fract_y
_atom_site_fract_z
Si Si1 0.608139 0.721349 0.461640
Si Si2 0.924015 0.745208 0.986239
Si Si3 0.589683 0.519126 0.115808
Si Si4 0.662379 0.310485 0.239861
Si Si5 0.159909 0.569463 0.845511
Si Si6 0.407798 0.008761 0.073527
O O1 0.517362 0.751385 0.481333
O O2 0.654232 0.759430 0.592845
O O3 0.640813 0.797864 0.343399
O O4 0.612193 0.587871 0.468087
O O5 0.898347 0.650388 0.090156
O O6 0.892276 0.737807 0.835967
O O7 0.893838 0.867300 0.022556
O O8 0.500000 0.500000 0.151109
O O9 0.607908 0.473604 0.967454
O O10 0.637145 0.439317 0.214950
O O11 0.750000 0.304628 0.288828
O O12 0.250000 0.553205 0.877374
O O13 0.138170 0.505535 0.711594
O O14 0.500000 0.000000 0.101676
#
# Coordination Sequence:
#
# PCOD9365052 Si02
#       6
#     8   8   8   8   8   8
#     4  10  22  42  66  95 133 172 229 279 336 411
#     4  11  24  41  67  98 130 178 230 278 335 414
#     4  11  21  41  68  96 128 176 234 278 329 416
#     4  11  25  43  68 101 139 176 222 288 350 394
#     4  11  23  39  67  97 129 174 226 280 346 404
#     4  10  24  41  62  95 132 174 222 279 336 406
#
# _framework density 23.111404
#
# number of rings (size 3 to 8) (size 9 to 14) (size 15 to 20)
#    0.000    1.333    3.333    3.500    4.667    8.000 
#    0.000    1.667    0.000    0.000    0.000    0.000 
#    0.000    0.000    0.000    0.000    0.000    0.000 
#
# Total GULP energy -134075.457459 kJ/mol
# GULP energy per Si atom -5586.477394 kJ/mol
# Density = 2.305880 g / cm^3
# Si number density = 23.111404 Si / 1000 Ang^3
#
#
#
# Elastic Constant Matrix: (Units=GPa)
#
#
# Indices 1 2 3 4 5 6 
#
# 1 51.4192 13.7953 -2.5463 0.0000 0.0000 0.0000
# 2 13.7953 160.6908 9.3924 0.0000 0.0000 0.0000
# 3 -2.5463 9.3924 29.1195 0.0000 0.0000 0.0000
# 4 0.0000 0.0000 0.0000 19.2718 0.0000 0.0000
# 5 0.0000 0.0000 0.0000 0.0000 9.8024 0.0000
# 6 0.0000 0.0000 0.0000 0.0000 0.0000 18.9927
#
#
#
# Elastic Compliance Matrix: (Units=1/GPa)
#
#
# Indices 1 2 3 4 5 6 
#
# 1 0.020064 -0.001860 0.002354 0.000000 0.000000 0.000000
# 2 -0.001860 0.006515 -0.002264 0.000000 0.000000 0.000000
# 3 0.002354 -0.002264 0.035277 0.000000 0.000000 0.000000
# 4 0.000000 0.000000 0.000000 0.051889 0.000000 0.000000
# 5 0.000000 0.000000 0.000000 0.000000 0.102016 0.000000
# 6 0.000000 0.000000 0.000000 0.000000 0.000000 0.052652
#
#
# Mechanical properties :
#
#
# Convention : Reuss Voigt Hill
#
# Bulk Modulus (GPa) = 17.14776 31.39023 24.26899
# Shear Modulus (GPa) = 17.15906 24.31927 20.73916
#
# Velocity S-wave (km/s) = 2.72775 3.24738 2.99884
# Velocity P-wave (km/s) = 4.16612 5.26044 4.74493
#
# Compressibility (1/GPa) = 0.05831667
#
# Stress axis : x y z
#
# Youngs Moduli (GPa) = 49.84143 153.48836 28.34677
#
# Poissons Ratio (x) = 0.28550 -0.06674
# Poissons Ratio (y) = 0.09271 0.06418
# Poissons Ratio (z) = -0.11735 0.34751
#
# Static dielectric constant tensor:
#      x y z
#    x 1.798280 0.000000 0.000000 
#    y 0.000000 1.984900 0.000000 
#    z 0.000000 0.000000 1.903760 
# 
# From -- ./inp_files/12916.got.cif
#   From: 2010.05.17/outbox.cif.g08.bks.cpg/sg40_7_cif.got.tgz:12916.got - 2010.06.03 18:35:42.
