data_PCOD9365406
_publ_section_title
;
Structure prediction by ZEFSAII (Michael W. Deem and Ramdas Pophale) SiO2 
 PCOD9365406
Probable space group: A M A 2
;
_chemical_formula_sum "Si O2"
_cell_formula_units_Z 40
_cell_length_a 25.311084
_cell_length_b 5.080063
_cell_length_c 14.139896
_cell_angle_alpha 90.000000
_cell_angle_beta 90.000000
_cell_angle_gamma 90.000000
_cell_volume 1818.134712
_symmetry_space_group_name_H-M "A M A 2"
_symmetry_group_IT_number 40
_symmetry_cell_setting 'orthorhombic'
loop_
_space_group_symop_operation_xyz
x,y,z
-x,-y,z
1/2-x,y,z
1/2+x,-y,z
x,1/2+y,1/2+z
-x,1/2-y,1/2+z
1/2-x,1/2+y,1/2+z
1/2+x,1/2-y,1/2+z
loop_
_atom_site_type_symbol
_atom_site_label
_atom_site_fract_x
_atom_site_fract_y
_atom_site_fract_z
Si Si1 0.625561 0.596730 0.501240
Si Si2 0.555377 0.109823 0.525593
Si Si3 0.189422 0.350220 0.689818
Si Si4 0.534634 0.239117 0.746835
Si Si5 0.346651 0.335661 0.300800
O O1 0.581531 0.372206 0.484646
O O2 0.657419 0.553230 0.597901
O O3 0.662891 0.601122 0.410131
O O4 0.596819 0.875076 0.515148
O O5 0.545144 0.179371 0.635753
O O6 0.500000 0.000000 0.485869
O O7 0.250000 0.289463 0.666036
O O8 0.186253 0.590135 0.763244
O O9 0.163279 0.091570 0.736325
O O10 0.500000 0.500000 0.753500
O O11 0.591849 0.250727 0.793686
O O12 0.500000 0.000000 0.785872
#
# Coordination Sequence:
#
# PCOD9365406 Si02
#       5
#     8   8   8   8   8
#     4  12  24  45  70 101 136 179 227 278 339 409
#     4  11  22  40  69 100 141 183 221 268 333 407
#     4  12  26  48  71  97 135 177 230 295 351 396
#     4  11  21  38  65  98 138 180 217 263 326 402
#     4  12  26  45  71 104 136 177 231 280 342 412
#
# _framework density 22.00057
#
# number of rings (size 3 to 8) (size 9 to 14) (size 15 to 20)
#    0.000    0.400    4.000    6.000    0.000    4.000 
#    0.000    0.000    0.000    0.000    0.000    0.000 
#    0.000    0.000    0.000    0.000    0.000    0.000 
#
# Total GULP energy -112007.093069 kJ/mol
# GULP energy per Si atom -5600.354653 kJ/mol
# Density = 2.195050 g / cm^3
# Si number density = 22.000570 Si / 1000 Ang^3
#
#
#
# Elastic Constant Matrix: (Units=GPa)
#
#
# Indices 1 2 3 4 5 6 
#
# 1 70.6761 20.3244 33.1628 0.0000 0.0000 0.0000
# 2 20.3244 140.8668 29.7492 0.0000 0.0000 0.0000
# 3 33.1628 29.7492 85.7842 0.0000 0.0000 0.0000
# 4 0.0000 0.0000 0.0000 222.8899 0.0000 0.0000
# 5 0.0000 0.0000 0.0000 0.0000 11.1933 0.0000
# 6 0.0000 0.0000 0.0000 0.0000 0.0000 15.3646
#
#
#
# Elastic Compliance Matrix: (Units=1/GPa)
#
#
# Indices 1 2 3 4 5 6 
#
# 1 0.017464 -0.001180 -0.006342 0.000000 0.000000 0.000000
# 2 -0.001180 0.007740 -0.002228 0.000000 0.000000 0.000000
# 3 -0.006342 -0.002228 0.014881 0.000000 0.000000 0.000000
# 4 0.000000 0.000000 0.000000 0.004487 0.000000 0.000000
# 5 0.000000 0.000000 0.000000 0.000000 0.089339 0.000000
# 6 0.000000 0.000000 0.000000 0.000000 0.000000 0.065085
#
#
# Mechanical properties :
#
#
# Convention : Reuss Voigt Hill
#
# Bulk Modulus (GPa) = 48.57891 51.53332 50.05612
# Shear Modulus (GPa) = 22.18689 64.16228 43.17458
#
# Velocity S-wave (km/s) = 3.17909 5.40622 4.43474
# Velocity P-wave (km/s) = 5.96692 7.90216 7.00172
#
# Compressibility (1/GPa) = 0.02058506
#
# Stress axis : x y z
#
# Youngs Moduli (GPa) = 57.25955 129.20427 67.19778
#
# Poissons Ratio (x) = 0.15251 0.42617
# Poissons Ratio (y) = 0.06759 0.14970
# Poissons Ratio (z) = 0.36314 0.28783
#
# Static dielectric constant tensor:
#      x y z
#    x 1.801950 0.000000 0.000000 
#    y 0.000000 1.648300 0.000000 
#    z 0.000000 0.000000 1.844280 
# 
# From -- ./inp_files/18373.got.cif
#   From: 2010.05.17/outbox.cif.g08.bks.cpg/sg40_10_cif.got.tgz:18373.got - 2010.06.03 18:35:42.
