data_PCOD9365308
_publ_section_title
;
Structure prediction by ZEFSAII (Michael W. Deem and Ramdas Pophale) SiO2 
 PCOD9365308
Probable space group: A M A 2
;
_chemical_formula_sum "Si O2"
_cell_formula_units_Z 36
_cell_length_a 14.667242
_cell_length_b 5.239545
_cell_length_c 19.128101
_cell_angle_alpha 90.000000
_cell_angle_beta 90.000000
_cell_angle_gamma 90.000000
_cell_volume 1469.988335
_symmetry_space_group_name_H-M "A M A 2"
_symmetry_group_IT_number 40
_symmetry_cell_setting 'orthorhombic'
loop_
_space_group_symop_operation_xyz
x,y,z
-x,-y,z
1/2-x,y,z
1/2+x,-y,z
x,1/2+y,1/2+z
-x,1/2-y,1/2+z
1/2-x,1/2+y,1/2+z
1/2+x,1/2-y,1/2+z
loop_
_atom_site_type_symbol
_atom_site_label
_atom_site_fract_x
_atom_site_fract_y
_atom_site_fract_z
Si Si1 0.860568 0.109937 0.448250
Si Si2 0.639936 0.115646 0.866696
Si Si3 0.601439 0.906786 0.085260
Si Si4 0.250000 0.278486 0.634957
Si Si5 0.104847 0.448152 0.207443
O O1 0.750000 0.104158 0.452645
O O2 0.886403 0.339138 0.395609
O O3 0.894834 0.204133 0.523087
O O4 0.893223 0.842165 0.417050
O O5 0.750000 0.128238 0.866051
O O6 0.609138 0.141308 0.786946
O O7 0.640471 0.767137 0.154186
O O8 0.500000 0.000000 0.095535
O O9 0.670656 0.139386 0.077204
O O10 0.169771 0.184863 0.690377
O O11 0.000000 0.500000 0.189079
#
# Coordination Sequence:
#
# PCOD9365308 Si02
#       5
#     8   8   8   4   8
#     4  10  24  44  73 106 147 196 248 310 386 458
#     4  10  24  44  73 106 147 196 248 310 386 458
#     4  12  27  46  77 112 151 205 263 318 395 474
#     4  12  26  48  76 110 160 200 252 340 380 468
#     4  12  27  46  77 112 151 205 263 318 395 474
#
# _framework density 24.489988
#
# number of rings (size 3 to 8) (size 9 to 14) (size 15 to 20)
#    0.000    0.889    4.444    0.667    6.222    0.889 
#    0.000    2.222    0.000    0.000    0.000    0.000 
#    0.000    0.000    0.000    0.000    0.000    0.000 
#
# Total GULP energy -100389.815773 kJ/mol
# GULP energy per Si atom -5577.211987 kJ/mol
# Density = 2.443425 g / cm^3
# Si number density = 24.489988 Si / 1000 Ang^3
#
#
#
# Elastic Constant Matrix: (Units=GPa)
#
#
# Indices 1 2 3 4 5 6 
#
# 1 126.0833 -4.1184 36.3173 0.0000 0.0000 0.0000
# 2 -4.1184 34.5502 51.1837 0.0000 0.0000 0.0000
# 3 36.3173 51.1837 88.8141 0.0000 0.0000 0.0000
# 4 0.0000 0.0000 0.0000 45.7361 0.0000 0.0000
# 5 0.0000 0.0000 0.0000 0.0000 34.1026 0.0000
# 6 0.0000 0.0000 0.0000 0.0000 0.0000 11.2256
#
#
#
# Elastic Compliance Matrix: (Units=1/GPa)
#
#
# Indices 1 2 3 4 5 6 
#
# 1 -0.077323 -0.383294 0.252511 0.000000 0.000000 0.000000
# 2 -0.383294 -1.702111 1.137663 0.000000 0.000000 0.000000
# 3 0.252511 1.137663 -0.747632 0.000000 0.000000 0.000000
# 4 0.000000 0.000000 0.000000 0.021865 0.000000 0.000000
# 5 0.000000 0.000000 0.000000 0.000000 0.029323 0.000000
# 6 0.000000 0.000000 0.000000 0.000000 0.000000 0.089082
#
#
# Mechanical properties :
#
#
# Convention : Reuss Voigt Hill
#
# Bulk Modulus (GPa) = -1.94816 46.24587 22.14885
# Shear Modulus (GPa) = -1.09370 29.28385 14.09508
#
# Velocity S-wave (km/s) = -0.66900 3.46171 2.40165
# Velocity P-wave (km/s) = 1.18066 5.90783 4.09320
#
# Compressibility (1/GPa) = -0.51330557
#
# Stress axis : x y z
#
# Youngs Moduli (GPa) = -12.93282 -0.58751 -1.33756
#
# Poissons Ratio (x) = -0.22519 0.33775
# Poissons Ratio (y) = -4.95707 1.52169
# Poissons Ratio (z) = 3.26568 0.66838
#
# Static dielectric constant tensor:
#      x y z
#    x 1.917130 0.000000 0.000000 
#    y 0.000000 2.159620 0.000000 
#    z 0.000000 0.000000 1.932100 
# 
# From -- ./inp_files/22916.got.cif
#   From: 2010.05.17/outbox.cif.g08.bks.cpg/sg40_12_cif.got.tgz:22916.got - 2010.06.03 18:35:42.
