data_PCOD9365560
_publ_section_title
;
Structure prediction by ZEFSAII (Michael W. Deem and Ramdas Pophale) SiO2 
 PCOD9365560
Probable space group: A M A 2
;
_chemical_formula_sum "Si O2"
_cell_formula_units_Z 32
_cell_length_a 10.392492
_cell_length_b 18.784653
_cell_length_c 7.064183
_cell_angle_alpha 90.000000
_cell_angle_beta 90.000000
_cell_angle_gamma 90.000000
_cell_volume 1379.065256
_symmetry_space_group_name_H-M "A M A 2"
_symmetry_group_IT_number 40
_symmetry_cell_setting 'orthorhombic'
loop_
_space_group_symop_operation_xyz
x,y,z
-x,-y,z
1/2-x,y,z
1/2+x,-y,z
x,1/2+y,1/2+z
-x,1/2-y,1/2+z
1/2-x,1/2+y,1/2+z
1/2+x,1/2-y,1/2+z
loop_
_atom_site_type_symbol
_atom_site_label
_atom_site_fract_x
_atom_site_fract_y
_atom_site_fract_z
Si Si1 0.750000 0.202976 0.134620
Si Si2 0.750000 0.562159 0.380288
Si Si3 0.000000 0.000000 0.076067
Si Si4 0.494715 0.783193 0.743785
Si Si5 0.900602 0.855245 0.125641
Si Si6 0.750000 0.143615 0.544305
O O1 0.628066 0.254804 0.154252
O O2 0.750000 0.152495 0.320806
O O3 0.750000 0.144115 0.966341
O O4 0.876233 0.522100 0.452949
O O5 0.750000 0.569184 0.153904
O O6 0.038493 0.070572 0.187875
O O7 0.535731 0.829795 0.925564
O O8 0.426692 0.706653 0.774821
O O9 0.384318 0.820624 0.617178
O O10 0.750000 0.862660 0.093929
#
# Coordination Sequence:
#
# PCOD9365560 Si02
#       6
#     4   4   4   8   8   4
#     4  12  24  41  66 103 138 174 228 292 336 409
#     4  12  26  44  70  96 140 182 226 280 358 394
#     4  12  24  40  70  92 130 182 226 268 348 404
#     4  12  20  40  64  96 130 174 222 278 332 404
#     4  12  24  40  66 101 132 172 230 283 333 409
#     4  12  24  41  66 103 138 174 228 292 336 409
#
# _framework density 23.204122999999999
#
# number of rings (size 3 to 8) (size 9 to 14) (size 15 to 20)
#    0.000    0.000   11.250    0.000    0.000    0.000 
#    0.000    1.250    5.500    0.000    0.000    0.000 
#    0.000    0.000    0.000    0.000    0.000    0.000 
#
# Total GULP energy -89346.923779 kJ/mol
# GULP energy per Si atom -5584.182736 kJ/mol
# Density = 2.315131 g / cm^3
# Si number density = 23.204123 Si / 1000 Ang^3
#
#
#
# Elastic Constant Matrix: (Units=GPa)
#
#
# Indices 1 2 3 4 5 6 
#
# 1 152.6350 -5.6894 -2.8203 0.0000 0.0000 0.0000
# 2 -5.6894 73.0157 -13.6240 0.0000 0.0000 0.0000
# 3 -2.8203 -13.6240 78.1696 0.0000 0.0000 0.0000
# 4 0.0000 0.0000 0.0000 17.5010 0.0000 0.0000
# 5 0.0000 0.0000 0.0000 0.0000 27.8617 0.0000
# 6 0.0000 0.0000 0.0000 0.0000 0.0000 46.4274
#
#
#
# Elastic Compliance Matrix: (Units=1/GPa)
#
#
# Indices 1 2 3 4 5 6 
#
# 1 0.006579 0.000576 0.000338 0.000000 0.000000 0.000000
# 2 0.000576 0.014206 0.002497 0.000000 0.000000 0.000000
# 3 0.000338 0.002497 0.013240 0.000000 0.000000 0.000000
# 4 0.000000 0.000000 0.000000 0.057140 0.000000 0.000000
# 5 0.000000 0.000000 0.000000 0.000000 0.035892 0.000000
# 6 0.000000 0.000000 0.000000 0.000000 0.000000 0.021539
#
#
# Mechanical properties :
#
#
# Convention : Reuss Voigt Hill
#
# Bulk Modulus (GPa) = 24.48221 28.83924 26.66073
# Shear Modulus (GPa) = 32.17693 40.08830 36.13261
#
# Velocity S-wave (km/s) = 3.72787 4.16099 3.95037
# Velocity P-wave (km/s) = 5.39472 5.96160 5.68523
#
# Compressibility (1/GPa) = 0.04084599
#
# Stress axis : x y z
#
# Youngs Moduli (GPa) = 151.99248 70.39079 75.52849
#
# Poissons Ratio (x) = -0.04052 -0.02551
# Poissons Ratio (y) = -0.08750 -0.18858
# Poissons Ratio (z) = -0.05133 -0.17575
#
# Static dielectric constant tensor:
#      x y z
#    x 1.926650 0.000000 0.000000 
#    y 0.000000 1.883070 0.000000 
#    z 0.000000 0.000000 1.898020 
# 
# From -- ./inp_files/5112.got.cif
#   From: 2010.05.17/outbox.cif.g08.bks.cpg/sg40_3_cif.got.tgz:5112.got - 2010.06.03 18:35:42.
