data_PCOD9365049
_publ_section_title
;
Structure prediction by ZEFSAII (Michael W. Deem and Ramdas Pophale) SiO2 
 PCOD9365049
Probable space group: A M A 2
;
_chemical_formula_sum "Si O2"
_cell_formula_units_Z 64
_cell_length_a 22.705057
_cell_length_b 16.122197
_cell_length_c 8.347366
_cell_angle_alpha 90.000000
_cell_angle_beta 90.000000
_cell_angle_gamma 90.000000
_cell_volume 3055.598416
_symmetry_space_group_name_H-M "A M A 2"
_symmetry_group_IT_number 40
_symmetry_cell_setting 'orthorhombic'
loop_
_space_group_symop_operation_xyz
x,y,z
-x,-y,z
1/2-x,y,z
1/2+x,-y,z
x,1/2+y,1/2+z
-x,1/2-y,1/2+z
1/2-x,1/2+y,1/2+z
1/2+x,1/2-y,1/2+z
loop_
_atom_site_type_symbol
_atom_site_label
_atom_site_fract_x
_atom_site_fract_y
_atom_site_fract_z
Si Si1 0.569189 0.688191 0.429270
Si Si2 0.524393 0.710388 0.084714
Si Si3 0.431937 0.485337 0.361819
Si Si4 0.120780 0.642769 0.540476
Si Si5 0.320217 0.072108 0.362854
Si Si6 0.108047 0.924474 0.519436
Si Si7 0.181886 0.782116 0.368956
Si Si8 0.317828 0.745899 0.010035
O O1 0.529460 0.689067 0.270675
O O2 0.539615 0.756877 0.540356
O O3 0.569928 0.593202 0.483031
O O4 0.635418 0.714944 0.389052
O O5 0.568358 0.789207 0.062343
O O6 0.546511 0.627357 0.991929
O O7 0.500000 0.500000 0.319348
O O8 0.405012 0.565305 0.444368
O O9 0.397688 0.458201 0.200580
O O10 0.152288 0.611196 0.701540
O O11 0.168718 0.691771 0.437335
O O12 0.250000 0.048904 0.344224
O O13 0.321569 0.146762 0.492904
O O14 0.364372 0.998728 0.415560
O O15 0.152107 0.849096 0.483264
O O16 0.250000 0.799944 0.365473
O O17 0.162580 0.780502 0.183185
O O18 0.250000 0.768767 0.979553
#
# Coordination Sequence:
#
# PCOD9365049 Si02
#       8
#     8   8   8   8   8   8   8   8
#     4  11  23  42  65 100 133 173 222 273 336 398
#     4  10  23  40  64  95 132 175 213 273 335 398
#     4  11  24  44  65  95 135 171 218 275 332 397
#     4  11  22  42  64  95 128 172 218 271 335 393
#     4  11  23  42  66  97 134 173 224 278 329 394
#     4  10  24  41  63  96 130 172 217 271 327 393
#     4  10  22  42  66  92 127 174 221 269 329 396
#     4  10  23  42  67  93 131 178 223 275 330 396
#
# _framework density 20.945160999999999
#
# number of rings (size 3 to 8) (size 9 to 14) (size 15 to 20)
#    0.000    1.500    2.500    1.500    5.250    2.000 
#    0.000    5.000    0.000    0.000    0.000    0.000 
#    0.000    0.000    0.000    0.000    0.000    0.000 
#
# Total GULP energy -178442.020211 kJ/mol
# GULP energy per Si atom -5576.313132 kJ/mol
# Density = 2.089749 g / cm^3
# Si number density = 20.945161 Si / 1000 Ang^3
#
#
#
# Elastic Constant Matrix: (Units=GPa)
#
#
# Indices 1 2 3 4 5 6 
#
# 1 84.1601 29.6800 25.8398 0.0000 0.0000 0.0000
# 2 29.6800 101.2371 16.2287 0.0000 0.0000 0.0000
# 3 25.8398 16.2287 55.9667 0.0000 0.0000 0.0000
# 4 0.0000 0.0000 0.0000 36.0851 0.0000 0.0000
# 5 0.0000 0.0000 0.0000 0.0000 24.2999 0.0000
# 6 0.0000 0.0000 0.0000 0.0000 0.0000 29.2018
#
#
#
# Elastic Compliance Matrix: (Units=1/GPa)
#
#
# Indices 1 2 3 4 5 6 
#
# 1 0.014896 -0.003424 -0.005885 0.000000 0.000000 0.000000
# 2 -0.003424 0.011146 -0.001651 0.000000 0.000000 0.000000
# 3 -0.005885 -0.001651 0.021064 0.000000 0.000000 0.000000
# 4 0.000000 0.000000 0.000000 0.027712 0.000000 0.000000
# 5 0.000000 0.000000 0.000000 0.000000 0.041152 0.000000
# 6 0.000000 0.000000 0.000000 0.000000 0.000000 0.034244
#
#
# Mechanical properties :
#
#
# Convention : Reuss Voigt Hill
#
# Bulk Modulus (GPa) = 39.70414 42.76235 41.23325
# Shear Modulus (GPa) = 27.69607 29.22504 28.46056
#
# Velocity S-wave (km/s) = 3.64031 3.73944 3.69021
# Velocity P-wave (km/s) = 6.05529 6.25342 6.15515
#
# Compressibility (1/GPa) = 0.02518629
#
# Stress axis : x y z
#
# Youngs Moduli (GPa) = 67.13025 89.71592 47.47523
#
# Poissons Ratio (x) = 0.30718 0.27938
# Poissons Ratio (y) = 0.22985 0.07840
# Poissons Ratio (z) = 0.39505 0.14815
#
# Static dielectric constant tensor:
#      x y z
#    x 1.765710 0.000000 0.000000 
#    y 0.000000 1.774540 0.000000 
#    z 0.000000 0.000000 1.799280 
# 
# From -- ./inp_files/8919.got.cif
#   From: 2010.05.17/outbox.cif.g08.bks.cpg/sg40_5_cif.got.tgz:8919.got - 2010.06.03 18:35:42.
