data_PCOD9365500
_publ_section_title
;
Structure prediction by ZEFSAII (Michael W. Deem and Ramdas Pophale) SiO2 
 PCOD9365500
Probable space group: A M A 2
;
_chemical_formula_sum "Si O2"
_cell_formula_units_Z 48
_cell_length_a 24.305470
_cell_length_b 17.328610
_cell_length_c 5.183943
_cell_angle_alpha 90.000000
_cell_angle_beta 90.000000
_cell_angle_gamma 90.000000
_cell_volume 2183.373167
_symmetry_space_group_name_H-M "A M A 2"
_symmetry_group_IT_number 40
_symmetry_cell_setting 'orthorhombic'
loop_
_space_group_symop_operation_xyz
x,y,z
-x,-y,z
1/2-x,y,z
1/2+x,-y,z
x,1/2+y,1/2+z
-x,1/2-y,1/2+z
1/2-x,1/2+y,1/2+z
1/2+x,1/2-y,1/2+z
loop_
_atom_site_type_symbol
_atom_site_label
_atom_site_fract_x
_atom_site_fract_y
_atom_site_fract_z
Si Si1 0.857327 0.027854 0.255390
Si Si2 0.750000 0.130979 0.339968
Si Si3 0.369706 0.575226 0.253816
Si Si4 0.855819 0.294330 0.601432
Si Si5 0.448060 0.180356 0.493795
Si Si6 0.250000 0.766655 0.848615
Si Si7 0.072954 0.826428 0.329335
O O1 0.802969 0.079535 0.276329
O O2 0.908158 0.087133 0.278716
O O3 0.853521 0.967178 0.490540
O O4 0.864259 0.985511 0.983499
O O5 0.750000 0.164691 0.630798
O O6 0.750000 0.200652 0.135374
O O7 0.338181 0.650329 0.366198
O O8 0.428730 0.614804 0.193589
O O9 0.908758 0.330778 0.746469
O O10 0.805010 0.280995 0.788421
O O11 0.879529 0.213433 0.499922
O O12 0.512601 0.175681 0.452086
O O13 0.432855 0.266240 0.592895
#
# Coordination Sequence:
#
# PCOD9365500 Si02
#       7
#     8   4   8   8   8   4   8
#     4  12  26  48  71 104 144 190 232 293 358 423
#     4  12  26  46  73 109 138 179 244 296 351 420
#     4  11  27  48  67 104 149 183 236 282 362 431
#     4  11  24  48  71 109 140 184 240 292 358 417
#     4  11  23  47  69 109 141 189 243 295 353 424
#     4  12  26  44  79 107 136 181 240 304 341 426
#     4  11  24  41  78  99 143 189 241 298 350 414
#
# _framework density 21.984332999999999
#
# number of rings (size 3 to 8) (size 9 to 14) (size 15 to 20)
#    0.000    0.667    5.000    2.000    4.667    2.000 
#    3.000    0.833    0.000    0.000    0.000    0.000 
#    0.000    0.000    0.000    0.000    0.000    0.000 
#
# Total GULP energy -134129.323982 kJ/mol
# GULP energy per Si atom -5588.721833 kJ/mol
# Density = 2.193430 g / cm^3
# Si number density = 21.984333 Si / 1000 Ang^3
#
#
#
# Elastic Constant Matrix: (Units=GPa)
#
#
# Indices 1 2 3 4 5 6 
#
# 1 74.9161 25.8750 12.9785 0.0000 0.0000 0.0000
# 2 25.8750 56.3175 9.5493 0.0000 0.0000 0.0000
# 3 12.9785 9.5493 82.9303 0.0000 0.0000 0.0000
# 4 0.0000 0.0000 0.0000 53.7016 0.0000 0.0000
# 5 0.0000 0.0000 0.0000 0.0000 22.1293 0.0000
# 6 0.0000 0.0000 0.0000 0.0000 0.0000 8.4558
#
#
#
# Elastic Compliance Matrix: (Units=1/GPa)
#
#
# Indices 1 2 3 4 5 6 
#
# 1 0.016098 -0.007108 -0.001701 0.000000 0.000000 0.000000
# 2 -0.007108 0.021248 -0.001334 0.000000 0.000000 0.000000
# 3 -0.001701 -0.001334 0.012478 0.000000 0.000000 0.000000
# 4 0.000000 0.000000 0.000000 0.018621 0.000000 0.000000
# 5 0.000000 0.000000 0.000000 0.000000 0.045189 0.000000
# 6 0.000000 0.000000 0.000000 0.000000 0.000000 0.118262
#
#
# Mechanical properties :
#
#
# Convention : Reuss Voigt Hill
#
# Bulk Modulus (GPa) = 33.85417 34.55217 34.20317
# Shear Modulus (GPa) = 19.08188 27.90808 23.49498
#
# Velocity S-wave (km/s) = 2.94934 3.56680 3.27267
# Velocity P-wave (km/s) = 5.19912 5.71958 5.46555
#
# Compressibility (1/GPa) = 0.02953846
#
# Stress axis : x y z
#
# Youngs Moduli (GPa) = 62.12018 47.06248 80.14004
#
# Poissons Ratio (x) = 0.33451 0.13631
# Poissons Ratio (y) = 0.44153 0.10694
# Poissons Ratio (z) = 0.10566 0.06280
#
# Static dielectric constant tensor:
#      x y z
#    x 1.765170 0.000000 0.000000 
#    y 0.000000 1.818690 0.000000 
#    z 0.000000 0.000000 1.861440 
# 
# From -- ./inp_files/2744.got.cif
#   From: 2010.05.17/outbox.cif.g08.bks.cpg/sg40_2_cif.got.tgz:2744.got - 2010.06.03 18:35:42.
