data_PCOD9365148
_publ_section_title
;
Structure prediction by ZEFSAII (Michael W. Deem and Ramdas Pophale) SiO2 
 PCOD9365148
Probable space group: A M A 2
;
_chemical_formula_sum "Si O2"
_cell_formula_units_Z 52
_cell_length_a 18.785074
_cell_length_b 9.885078
_cell_length_c 14.352190
_cell_angle_alpha 90.000000
_cell_angle_beta 90.000000
_cell_angle_gamma 90.000000
_cell_volume 2665.085742
_symmetry_space_group_name_H-M "A M A 2"
_symmetry_group_IT_number 40
_symmetry_cell_setting 'orthorhombic'
loop_
_space_group_symop_operation_xyz
x,y,z
-x,-y,z
1/2-x,y,z
1/2+x,-y,z
x,1/2+y,1/2+z
-x,1/2-y,1/2+z
1/2-x,1/2+y,1/2+z
1/2+x,1/2-y,1/2+z
loop_
_atom_site_type_symbol
_atom_site_label
_atom_site_fract_x
_atom_site_fract_y
_atom_site_fract_z
Si Si1 0.585260 0.487701 0.802220
Si Si2 0.990261 0.159696 0.012709
Si Si3 0.617768 0.690620 0.345242
Si Si4 0.425207 0.419179 0.010329
Si Si5 0.666183 0.998021 0.686908
Si Si6 0.366233 0.805635 0.150443
Si Si7 0.250000 0.331860 0.488510
O O1 0.500000 0.500000 0.788966
O O2 0.608855 0.333056 0.793268
O O3 0.624300 0.582663 0.729120
O O4 0.600169 0.533816 0.908422
O O5 0.949121 0.177665 0.914890
O O6 0.941104 0.211712 0.096979
O O7 0.000000 0.000000 0.027070
O O8 0.057685 0.259179 0.010421
O O9 0.625464 0.571973 0.270413
O O10 0.687388 0.688660 0.409560
O O11 0.500000 0.500000 0.025954
O O12 0.369310 0.458272 0.089375
O O13 0.750000 0.032293 0.689085
O O14 0.657611 0.836890 0.692871
O O15 0.311490 0.846049 0.070072
#
# Coordination Sequence:
#
# PCOD9365148 Si02
#       7
#     8   8   8   8   8   8   4
#     4  11  24  43  68 106 134 170 230 284 347 402
#     4  11  24  42  69 103 135 177 223 287 342 399
#     4  11  24  44  71  94 137 180 226 282 338 408
#     4  11  22  45  69 102 136 181 229 275 344 407
#     4  12  26  45  67 102 136 186 232 281 347 414
#     4  11  24  42  70  95 135 178 222 282 333 408
#     4  10  22  48  66  90 130 184 222 262 348 396
#
# _framework density 19.511568
#
# number of rings (size 3 to 8) (size 9 to 14) (size 15 to 20)
#    0.000    0.923    6.154    1.385    6.462    1.231 
#    1.385    0.000    0.000    0.000    0.000    0.000 
#    0.000    0.000    0.000    0.000    0.000    0.000 
#
# Total GULP energy -144807.057381 kJ/mol
# GULP energy per Si atom -5569.502207 kJ/mol
# Density = 1.946716 g / cm^3
# Si number density = 19.511568 Si / 1000 Ang^3
#
#
#
# Elastic Constant Matrix: (Units=GPa)
#
#
# Indices 1 2 3 4 5 6 
#
# 1 28.9135 10.2381 24.7960 0.0000 0.0000 0.0000
# 2 10.2381 73.4723 29.4788 0.0000 0.0000 0.0000
# 3 24.7960 29.4788 95.2349 0.0000 0.0000 0.0000
# 4 0.0000 0.0000 0.0000 27.7771 0.0000 0.0000
# 5 0.0000 0.0000 0.0000 0.0000 -6.9360 0.0000
# 6 0.0000 0.0000 0.0000 0.0000 0.0000 7.2670
#
#
#
# Elastic Compliance Matrix: (Units=1/GPa)
#
#
# Indices 1 2 3 4 5 6 
#
# 1 0.044732 -0.001782 -0.011095 0.000000 0.000000 0.000000
# 2 -0.001782 0.015612 -0.004369 0.000000 0.000000 0.000000
# 3 -0.011095 -0.004369 0.014741 0.000000 0.000000 0.000000
# 4 0.000000 0.000000 0.000000 0.036001 0.000000 0.000000
# 5 0.000000 0.000000 0.000000 0.000000 -0.144175 0.000000
# 6 0.000000 0.000000 0.000000 0.000000 0.000000 0.137609
#
#
# Mechanical properties :
#
#
# Convention : Reuss Voigt Hill
#
# Bulk Modulus (GPa) = 24.63399 36.29406 30.46403
# Shear Modulus (GPa) = 32.77789 14.49545 23.63667
#
# Velocity S-wave (km/s) = 4.10313 2.72861 3.48432
# Velocity P-wave (km/s) = 5.92455 5.34497 5.64221
#
# Compressibility (1/GPa) = 0.04059432
#
# Stress axis : x y z
#
# Youngs Moduli (GPa) = 22.35534 64.05500 67.83610
#
# Poissons Ratio (x) = 0.11412 0.75266
# Poissons Ratio (y) = 0.03983 0.29634
# Poissons Ratio (z) = 0.24804 0.27983
#
# Static dielectric constant tensor:
#      x y z
#    x 1.685960 0.000000 0.000000 
#    y 0.000000 1.734370 0.000000 
#    z 0.000000 0.000000 1.658530 
# 
# From -- ./inp_files/18162.got.cif
#   From: 2010.05.17/outbox.cif.g08.bks.cpg/sg40_10_cif.got.tgz:18162.got - 2010.06.03 18:35:42.
