data_PCOD9365243
_publ_section_title
;
Structure prediction by ZEFSAII (Michael W. Deem and Ramdas Pophale) SiO2 
 PCOD9365243
Probable space group: A M A 2
;
_chemical_formula_sum "Si O2"
_cell_formula_units_Z 64
_cell_length_a 18.850524
_cell_length_b 11.366726
_cell_length_c 14.336680
_cell_angle_alpha 90.000000
_cell_angle_beta 90.000000
_cell_angle_gamma 90.000000
_cell_volume 3071.902378
_symmetry_space_group_name_H-M "A M A 2"
_symmetry_group_IT_number 40
_symmetry_cell_setting 'orthorhombic'
loop_
_space_group_symop_operation_xyz
x,y,z
-x,-y,z
1/2-x,y,z
1/2+x,-y,z
x,1/2+y,1/2+z
-x,1/2-y,1/2+z
1/2-x,1/2+y,1/2+z
1/2+x,1/2-y,1/2+z
loop_
_atom_site_type_symbol
_atom_site_label
_atom_site_fract_x
_atom_site_fract_y
_atom_site_fract_z
Si Si1 0.333406 0.278022 0.036210
Si Si2 0.832574 0.953124 0.596764
Si Si3 0.423741 0.022979 0.764243
Si Si4 0.413927 0.247746 0.510342
Si Si5 0.666014 0.894575 0.202919
Si Si6 0.559959 0.099435 0.195018
Si Si7 0.448548 0.245882 0.881065
Si Si8 0.667197 0.187025 0.842765
O O1 0.250000 0.258055 0.016313
O O2 0.339176 0.407257 0.082024
O O3 0.357912 0.181500 0.112422
O O4 0.380619 0.275480 0.944182
O O5 0.750000 0.921562 0.587693
O O6 0.882206 0.881108 0.527729
O O7 0.865362 0.921165 0.696696
O O8 0.387074 0.904302 0.797805
O O9 0.500000 0.000000 0.715856
O O10 0.440923 0.111469 0.847443
O O11 0.432159 0.315978 0.605541
O O12 0.482765 0.241421 0.445596
O O13 0.352169 0.311487 0.451287
O O14 0.750000 0.907786 0.194555
O O15 0.653286 0.812633 0.293485
O O16 0.629655 0.020054 0.208278
O O17 0.545671 0.175110 0.288080
O O18 0.500000 0.000000 0.180404
O O19 0.750000 0.157288 0.825338
#
# Coordination Sequence:
#
# PCOD9365243 Si02
#       8
#     8   8   8   8   8   8   8   8
#     4  10  24  44  70 102 139 186 234 287 351 418
#     4  11  25  47  73 103 138 183 236 293 349 410
#     4  12  25  45  72 104 139 182 235 293 345 411
#     4  12  27  46  71 102 138 183 236 295 350 417
#     4  10  23  45  70 101 142 183 227 280 343 417
#     4  12  28  46  67  98 141 181 225 285 351 422
#     4  12  28  46  69 104 139 185 234 293 354 415
#     4  11  24  45  73 101 140 188 233 285 350 420
#
# _framework density 20.833994000000001
#
# number of rings (size 3 to 8) (size 9 to 14) (size 15 to 20)
#    0.000    0.750    3.750    2.250    8.750    2.500 
#    0.000    0.000    0.000    0.000    0.000    0.000 
#    0.000    0.000    0.000    0.000    0.000    0.000 
#
# Total GULP energy -178913.294434 kJ/mol
# GULP energy per Si atom -5591.040451 kJ/mol
# Density = 2.078657 g / cm^3
# Si number density = 20.833994 Si / 1000 Ang^3
#
#
#
# Elastic Constant Matrix: (Units=GPa)
#
#
# Indices 1 2 3 4 5 6 
#
# 1 98.2460 47.5734 54.1629 0.0000 0.0000 0.0000
# 2 47.5734 85.9432 38.6393 0.0000 0.0000 0.0000
# 3 54.1629 38.6393 114.2146 0.0000 0.0000 0.0000
# 4 0.0000 0.0000 0.0000 26.9726 0.0000 0.0000
# 5 0.0000 0.0000 0.0000 0.0000 31.3848 0.0000
# 6 0.0000 0.0000 0.0000 0.0000 0.0000 38.5818
#
#
#
# Elastic Compliance Matrix: (Units=1/GPa)
#
#
# Indices 1 2 3 4 5 6 
#
# 1 0.016442 -0.006600 -0.005564 0.000000 0.000000 0.000000
# 2 -0.006600 0.016372 -0.002409 0.000000 0.000000 0.000000
# 3 -0.005564 -0.002409 0.012209 0.000000 0.000000 0.000000
# 4 0.000000 0.000000 0.000000 0.037075 0.000000 0.000000
# 5 0.000000 0.000000 0.000000 0.000000 0.031863 0.000000
# 6 0.000000 0.000000 0.000000 0.000000 0.000000 0.025919
#
#
# Mechanical properties :
#
#
# Convention : Reuss Voigt Hill
#
# Bulk Modulus (GPa) = 62.98465 64.35056 63.66761
# Shear Modulus (GPa) = 28.68331 29.92305 29.30318
#
# Velocity S-wave (km/s) = 3.71449 3.79391 3.75441
# Velocity P-wave (km/s) = 6.97810 7.08139 7.02993
#
# Compressibility (1/GPa) = 0.01587688
#
# Stress axis : x y z
#
# Youngs Moduli (GPa) = 60.82028 61.08050 81.90562
#
# Poissons Ratio (x) = 0.40311 0.45576
# Poissons Ratio (y) = 0.40139 0.19731
# Poissons Ratio (z) = 0.33843 0.14714
#
# Static dielectric constant tensor:
#      x y z
#    x 1.749680 0.000000 0.000000 
#    y 0.000000 1.746150 0.000000 
#    z 0.000000 0.000000 1.772910 
# 
# From -- ./inp_files/17823.got.cif
#   From: 2010.05.17/outbox.cif.g08.bks.cpg/sg40_9_cif.got.tgz:17823.got - 2010.06.03 18:35:42.
