data_PCOD9365249
_publ_section_title
;
Structure prediction by ZEFSAII (Michael W. Deem and Ramdas Pophale) SiO2 
 PCOD9365249
Probable space group: A M A 2
;
_chemical_formula_sum "Si O2"
_cell_formula_units_Z 56
_cell_length_a 20.731725
_cell_length_b 15.254059
_cell_length_c 7.783798
_cell_angle_alpha 90.000000
_cell_angle_beta 90.000000
_cell_angle_gamma 90.000000
_cell_volume 2461.571291
_symmetry_space_group_name_H-M "A M A 2"
_symmetry_group_IT_number 40
_symmetry_cell_setting 'orthorhombic'
loop_
_space_group_symop_operation_xyz
x,y,z
-x,-y,z
1/2-x,y,z
1/2+x,-y,z
x,1/2+y,1/2+z
-x,1/2-y,1/2+z
1/2-x,1/2+y,1/2+z
1/2+x,1/2-y,1/2+z
loop_
_atom_site_type_symbol
_atom_site_label
_atom_site_fract_x
_atom_site_fract_y
_atom_site_fract_z
Si Si1 0.887610 0.655904 0.536700
Si Si2 0.173728 0.177741 0.614127
Si Si3 0.100518 0.115912 0.899830
Si Si4 0.321443 0.498091 0.642540
Si Si5 0.966740 0.609371 0.221030
Si Si6 0.019952 0.177870 0.227171
Si Si7 0.911274 0.964609 0.461897
O O1 0.861245 0.751923 0.491933
O O2 0.825643 0.604225 0.601491
O O3 0.917912 0.601673 0.380096
O O4 0.946003 0.660765 0.673087
O O5 0.250000 0.182461 0.611134
O O6 0.140647 0.190452 0.800128
O O7 0.145869 0.082524 0.567744
O O8 0.040102 0.084188 0.779388
O O9 0.063329 0.148799 0.067174
O O10 0.154084 0.050987 0.976414
O O11 0.250000 0.526601 0.693659
O O12 0.374916 0.507881 0.788855
O O13 0.972522 0.716377 0.221756
O O14 0.939163 0.549893 0.064127
O O15 0.041541 0.115542 0.388635
#
# Coordination Sequence:
#
# PCOD9365249 Si02
#       7
#     8   8   8   8   8   8   8
#     4  11  24  43  68 101 145 186 234 302 367 437
#     4  12  24  42  66  98 140 191 239 290 360 440
#     4  10  24  42  70 102 139 189 232 307 374 435
#     4  11  25  47  68  99 144 192 247 295 355 454
#     4  11  23  45  73 107 143 181 241 310 379 440
#     4  10  23  46  69 108 145 176 239 311 372 441
#     4  11  26  44  76 104 141 188 237 307 370 432
#
# _framework density 22.749697000000001
#
# number of rings (size 3 to 8) (size 9 to 14) (size 15 to 20)
#    0.000    1.143    2.857    2.143    2.000   10.286 
#    0.000    2.143    0.000    0.000    0.000    0.000 
#    0.000    0.000    0.000    0.000    0.000    0.000 
#
# Total GULP energy -156039.559557 kJ/mol
# GULP energy per Si atom -5572.841413 kJ/mol
# Density = 2.269792 g / cm^3
# Si number density = 22.749697 Si / 1000 Ang^3
#
#
#
# Elastic Constant Matrix: (Units=GPa)
#
#
# Indices 1 2 3 4 5 6 
#
# 1 165.3905 64.0640 51.6292 0.0000 0.0000 0.0000
# 2 64.0640 114.0497 48.6122 0.0000 0.0000 0.0000
# 3 51.6292 48.6122 77.7146 0.0000 0.0000 0.0000
# 4 0.0000 0.0000 0.0000 38.1375 0.0000 0.0000
# 5 0.0000 0.0000 0.0000 0.0000 20.7983 0.0000
# 6 0.0000 0.0000 0.0000 0.0000 0.0000 31.0279
#
#
#
# Elastic Compliance Matrix: (Units=1/GPa)
#
#
# Indices 1 2 3 4 5 6 
#
# 1 0.008402 -0.003191 -0.003585 0.000000 0.000000 0.000000
# 2 -0.003191 0.013168 -0.006117 0.000000 0.000000 0.000000
# 3 -0.003585 -0.006117 0.019076 0.000000 0.000000 0.000000
# 4 0.000000 0.000000 0.000000 0.026221 0.000000 0.000000
# 5 0.000000 0.000000 0.000000 0.000000 0.048081 0.000000
# 6 0.000000 0.000000 0.000000 0.000000 0.000000 0.032229
#
#
# Mechanical properties :
#
#
# Convention : Reuss Voigt Hill
#
# Bulk Modulus (GPa) = 67.30147 76.19619 71.74883
# Shear Modulus (GPa) = 28.10324 30.84938 29.47631
#
# Velocity S-wave (km/s) = 3.51853 3.68643 3.60346
# Velocity P-wave (km/s) = 6.79370 7.18928 6.99429
#
# Compressibility (1/GPa) = 0.01485852
#
# Stress axis : x y z
#
# Youngs Moduli (GPa) = 119.02458 75.94276 52.42257
#
# Poissons Ratio (x) = 0.24234 0.18796
# Poissons Ratio (y) = 0.37982 0.32066
# Poissons Ratio (z) = 0.42676 0.46452
#
# Static dielectric constant tensor:
#      x y z
#    x 1.816050 0.000000 0.000000 
#    y 0.000000 1.951630 0.000000 
#    z 0.000000 0.000000 1.979580 
# 
# From -- ./inp_files/8417.got.cif
#   From: 2010.05.17/outbox.cif.g08.bks.cpg/sg40_5_cif.got.tgz:8417.got - 2010.06.03 18:35:42.
