data_PCOD9365708
_publ_section_title
;
Structure prediction by ZEFSAII (Michael W. Deem and Ramdas Pophale) SiO2 
 PCOD9365708
Probable space group: A B A 2
;
_chemical_formula_sum "Si O2"
_cell_formula_units_Z 60
_cell_length_a 5.412454
_cell_length_b 32.223485
_cell_length_c 13.233346
_cell_angle_alpha 90.000000
_cell_angle_beta 90.000000
_cell_angle_gamma 90.000000
_cell_volume 2308.003133
_symmetry_space_group_name_H-M "A B A 2"
_symmetry_group_IT_number 41
_symmetry_cell_setting 'orthorhombic'
loop_
_space_group_symop_operation_xyz
x,y,z
-x,-y,z
1/2-x,y,1/2+z
1/2+x,-y,1/2+z
x,1/2+y,1/2+z
-x,1/2-y,1/2+z
1/2-x,1/2+y,z
1/2+x,1/2-y,z
loop_
_atom_site_type_symbol
_atom_site_label
_atom_site_fract_x
_atom_site_fract_y
_atom_site_fract_z
Si Si1 0.510224 0.771701 0.179160
Si Si2 0.869138 0.641215 0.201077
Si Si3 0.621397 0.090339 0.000652
Si Si4 0.752630 0.978665 0.247104
Si Si5 0.361609 0.117599 0.735985
Si Si6 0.119439 0.632502 0.491776
Si Si7 0.027992 0.225763 0.922445
Si Si8 0.000000 0.500000 0.048284
O O1 0.795255 0.761581 0.154275
O O2 0.403221 0.815784 0.141427
O O3 0.512411 0.775048 0.300691
O O4 0.621085 0.637585 0.264705
O O5 0.111301 0.639162 0.269508
O O6 0.869750 0.603003 0.121165
O O7 0.385008 0.114882 0.957549
O O8 0.576532 0.041550 0.991728
O O9 0.885397 0.104560 0.960159
O O10 0.809989 0.930265 0.257700
O O11 0.500000 0.000000 0.289863
O O12 0.000000 0.000000 0.283379
O O13 0.715879 0.986860 0.126786
O O14 0.368088 0.126446 0.614272
O O15 0.069395 0.680202 0.467306
O O16 0.265046 0.253945 0.950354
#
# Coordination Sequence:
#
# PCOD9365708 Si02
#       8
#     8   8   8   8   8   8   8   4
#     4  10  21  37  55  74  95 129 175 216 251 296
#     4  10  18  33  48  71 105 130 163 207 250 304
#     4  10  20  30  49  76 107 135 164 200 251 302
#     4  10  16  25  42  65  99 132 160 193 227 282
#     4  10  18  30  44  72 104 133 156 200 248 305
#     4  10  18  34  48  73 106 129 164 209 249 304
#     4  10  21  37  56  74  96 130 174 216 250 298
#     4  10  18  28  48  70 108 136 168 198 232 300
#
# _framework density 25.996497999999999
#
# number of rings (size 3 to 8) (size 9 to 14) (size 15 to 20)
#    0.400    1.600    2.667    4.000    0.000    0.000 
#    0.000   16.000    0.000    0.000    0.000    1.867 
#    8.000    0.000    0.000    0.000    0.000    0.000 
#
# Total GULP energy -167838.476990 kJ/mol
# GULP energy per Si atom -5594.615900 kJ/mol
# Density = 2.593733 g / cm^3
# Si number density = 25.996498 Si / 1000 Ang^3
#
#
#
# Elastic Constant Matrix: (Units=GPa)
#
#
# Indices 1 2 3 4 5 6 
#
# 1 256.9614 79.2606 6.5919 0.0000 0.0000 0.0000
# 2 79.2606 193.1998 16.6059 0.0000 0.0000 0.0000
# 3 6.5919 16.6059 103.9043 0.0000 0.0000 0.0000
# 4 0.0000 0.0000 0.0000 25.9393 0.0000 0.0000
# 5 0.0000 0.0000 0.0000 0.0000 -9.0588 0.0000
# 6 0.0000 0.0000 0.0000 0.0000 0.0000 37.5191
#
#
#
# Elastic Compliance Matrix: (Units=1/GPa)
#
#
# Indices 1 2 3 4 5 6 
#
# 1 0.004455 -0.001829 0.000010 0.000000 0.000000 0.000000
# 2 -0.001829 0.005999 -0.000843 0.000000 0.000000 0.000000
# 3 0.000010 -0.000843 0.009758 0.000000 0.000000 0.000000
# 4 0.000000 0.000000 0.000000 0.038552 0.000000 0.000000
# 5 0.000000 0.000000 0.000000 0.000000 -0.110390 0.000000
# 6 0.000000 0.000000 0.000000 0.000000 0.000000 0.026653
#
#
# Mechanical properties :
#
#
# Convention : Reuss Voigt Hill
#
# Bulk Modulus (GPa) = 67.16430 84.33138 75.74784
# Shear Modulus (GPa) = -340.44457 40.98707 -149.72875
#
# Velocity S-wave (km/s) = -11.45610 3.97500 -7.59742
# Velocity P-wave (km/s) = 12.21055 7.31966 6.91087
#
# Compressibility (1/GPa) = 0.01488886
#
# Stress axis : x y z
#
# Youngs Moduli (GPa) = 224.44414 166.70446 102.47675
#
# Poissons Ratio (x) = 0.30485 -0.00098
# Poissons Ratio (y) = 0.41044 0.08636
# Poissons Ratio (z) = -0.00215 0.14048
#
# Static dielectric constant tensor:
#      x y z
#    x 2.079930 0.000000 0.000000 
#    y 0.000000 2.019360 0.000000 
#    z 0.000000 0.000000 2.131670 
# 
# From -- ./inp_files/9491.got.cif
#   From: 2010.05.17/outbox.cif.g08.bks.cpg/sg41_5_cif.got.tgz:9491.got - 2010.06.03 18:54:24.
