data_PCOD9365880
_publ_section_title
;
Structure prediction by ZEFSAII (Michael W. Deem and Ramdas Pophale) SiO2 
 PCOD9365880
Probable space group: A B A 2
;
_chemical_formula_sum "Si O2"
_cell_formula_units_Z 60
_cell_length_a 20.307372
_cell_length_b 28.212943
_cell_length_c 5.554043
_cell_angle_alpha 90.000000
_cell_angle_beta 90.000000
_cell_angle_gamma 90.000000
_cell_volume 3182.081903
_symmetry_space_group_name_H-M "A B A 2"
_symmetry_group_IT_number 41
_symmetry_cell_setting 'orthorhombic'
loop_
_space_group_symop_operation_xyz
x,y,z
-x,-y,z
1/2-x,y,1/2+z
1/2+x,-y,1/2+z
x,1/2+y,1/2+z
-x,1/2-y,1/2+z
1/2-x,1/2+y,z
1/2+x,1/2-y,z
loop_
_atom_site_type_symbol
_atom_site_label
_atom_site_fract_x
_atom_site_fract_y
_atom_site_fract_z
Si Si1 0.713364 0.924879 0.066250
Si Si2 0.000000 0.500000 0.658878
Si Si3 0.411687 0.228392 0.892267
Si Si4 0.571587 0.353425 0.065478
Si Si5 0.212644 0.688971 0.099015
Si Si6 0.589905 0.942899 0.318779
Si Si7 0.468049 0.316598 0.669843
Si Si8 0.015399 0.408316 0.953256
O O1 0.759086 0.935959 0.299985
O O2 0.701615 0.867923 0.073852
O O3 0.645813 0.952945 0.124645
O O4 0.938454 0.480957 0.502093
O O5 0.030427 0.456426 0.811780
O O6 0.394015 0.191598 0.679529
O O7 0.416781 0.281000 0.790079
O O8 0.484489 0.213632 0.990062
O O9 0.356644 0.216866 0.088216
O O10 0.615092 0.395262 0.954283
O O11 0.518117 0.334611 0.876436
O O12 0.534958 0.380456 0.280741
O O13 0.247413 0.700305 0.352927
O O14 0.524290 0.926840 0.182145
O O15 0.440037 0.364292 0.543531
#
# Coordination Sequence:
#
# PCOD9365880 Si02
#       8
#     8   4   8   8   8   8   8   8
#     4  10  22  35  54  79 113 154 196 236 282 348
#     4  10  20  34  58  78 112 144 182 240 302 362
#     4  11  20  31  51  75 112 150 190 240 277 346
#     4   9  18  30  48  73 109 139 178 225 281 337
#     4  10  23  36  52  77 113 161 203 235 282 344
#     4  10  20  34  53  79 108 148 185 232 292 351
#     4  10  19  31  50  80 107 145 187 232 296 329
#     4   9  19  33  51  77 108 140 179 228 288 359
#
# _framework density 18.855581000000001
#
# number of rings (size 3 to 8) (size 9 to 14) (size 15 to 20)
#    0.000    2.133    1.333    2.800   11.200    0.000 
#    0.000    0.000    0.000    0.000    0.000    1.867 
#    0.000    0.000    0.000    0.000    0.000    0.000 
#
# Total GULP energy -167115.833024 kJ/mol
# GULP energy per Si atom -5570.527767 kJ/mol
# Density = 1.881266 g / cm^3
# Si number density = 18.855581 Si / 1000 Ang^3
#
#
#
# Elastic Constant Matrix: (Units=GPa)
#
#
# Indices 1 2 3 4 5 6 
#
# 1 43.0657 25.5372 15.3903 0.0000 0.0000 0.0000
# 2 25.5372 107.0329 42.9995 0.0000 0.0000 0.0000
# 3 15.3903 42.9995 83.0938 0.0000 0.0000 0.0000
# 4 0.0000 0.0000 0.0000 29.2816 0.0000 0.0000
# 5 0.0000 0.0000 0.0000 0.0000 12.3970 0.0000
# 6 0.0000 0.0000 0.0000 0.0000 0.0000 9.6900
#
#
#
# Elastic Compliance Matrix: (Units=1/GPa)
#
#
# Indices 1 2 3 4 5 6 
#
# 1 0.027343 -0.005667 -0.002131 0.000000 0.000000 0.000000
# 2 -0.005667 0.012970 -0.005662 0.000000 0.000000 0.000000
# 3 -0.002131 -0.005662 0.015359 0.000000 0.000000 0.000000
# 4 0.000000 0.000000 0.000000 0.034151 0.000000 0.000000
# 5 0.000000 0.000000 0.000000 0.000000 0.080664 0.000000
# 6 0.000000 0.000000 0.000000 0.000000 0.000000 0.103200
#
#
# Mechanical properties :
#
#
# Convention : Reuss Voigt Hill
#
# Bulk Modulus (GPa) = 34.78249 44.56071 39.67160
# Shear Modulus (GPa) = 16.11904 20.22475 18.17190
#
# Velocity S-wave (km/s) = 2.92699 3.27863 3.10779
# Velocity P-wave (km/s) = 5.46899 6.16575 5.82779
#
# Compressibility (1/GPa) = 0.02875010
#
# Stress axis : x y z
#
# Youngs Moduli (GPa) = 36.57275 77.10246 65.10705
#
# Poissons Ratio (x) = 0.43697 0.13878
# Poissons Ratio (y) = 0.20727 0.36863
# Poissons Ratio (z) = 0.07795 0.43655
#
# Static dielectric constant tensor:
#      x y z
#    x 1.691260 0.000000 0.000000 
#    y 0.000000 1.685440 0.000000 
#    z 0.000000 0.000000 1.757800 
# 
# From -- ./inp_files/845.got.cif
#   From: 2010.05.17/outbox.cif.g08.bks.cpg/sg41_1_cif.got.tgz:845.got - 2010.06.03 18:54:24.
