data_PCOD9365030
_publ_section_title
;
Structure prediction by ZEFSAII (Michael W. Deem and Ramdas Pophale) SiO2 
 PCOD9365030
Probable space group: A M A 2
;
_chemical_formula_sum "Si O2"
_cell_formula_units_Z 56
_cell_length_a 14.472690
_cell_length_b 5.524820
_cell_length_c 28.872029
_cell_angle_alpha 90.000000
_cell_angle_beta 90.000000
_cell_angle_gamma 90.000000
_cell_volume 2308.578774
_symmetry_space_group_name_H-M "A M A 2"
_symmetry_group_IT_number 40
_symmetry_cell_setting 'orthorhombic'
loop_
_space_group_symop_operation_xyz
x,y,z
-x,-y,z
1/2-x,y,z
1/2+x,-y,z
x,1/2+y,1/2+z
-x,1/2-y,1/2+z
1/2-x,1/2+y,1/2+z
1/2+x,1/2-y,1/2+z
loop_
_atom_site_type_symbol
_atom_site_label
_atom_site_fract_x
_atom_site_fract_y
_atom_site_fract_z
Si Si1 0.403372 0.370050 0.530030
Si Si2 0.139237 0.064339 0.898606
Si Si3 0.103189 0.892102 0.705300
Si Si4 0.137093 0.562143 0.947116
Si Si5 0.853784 0.327650 0.293333
Si Si6 0.112499 0.520102 0.103877
Si Si7 0.750000 0.797909 0.041852
Si Si8 0.000000 0.000000 0.242829
O O1 0.500000 0.500000 0.532534
O O2 0.401448 0.133225 0.497554
O O3 0.329272 0.558464 0.511673
O O4 0.367402 0.278230 0.580047
O O5 0.250000 0.070997 0.902855
O O6 0.105359 0.311877 0.923580
O O7 0.121123 0.074689 0.843758
O O8 0.110881 0.802370 0.917938
O O9 0.141375 0.984253 0.656991
O O10 0.078467 0.611268 0.709044
O O11 0.150461 0.972861 0.752558
O O12 0.000000 0.000000 0.707389
O O13 0.250000 0.548769 0.952485
O O14 0.750000 0.215708 0.296444
O O15 0.937246 0.160404 0.276504
O O16 0.168787 0.327992 0.073780
O O17 0.000000 0.500000 0.101057
#
# Coordination Sequence:
#
# PCOD9365030 Si02
#       8
#     8   8   8   8   8   8   4   4
#     4  12  26  46  71 105 143 186 245 305 370 448
#     4   9  21  40  68 104 139 189 238 299 362 438
#     4   9  22  43  66  98 141 182 231 300 353 429
#     4  10  22  41  70  98 143 189 242 299 369 435
#     4  10  22  42  69 100 143 187 238 290 364 428
#     4  11  25  46  72 101 145 186 245 301 365 440
#     4  12  26  44  74 102 140 198 234 308 378 430
#     4  10  22  44  70 100 140 186 234 294 362 422
#
# _framework density 24.257348
#
# number of rings (size 3 to 8) (size 9 to 14) (size 15 to 20)
#    0.000    1.714    2.143    0.429    5.000    4.000 
#    6.429    0.000    0.000    0.000    0.000    0.000 
#    0.000    0.000    0.000    0.000    0.000    0.000 
#
# Total GULP energy -155939.786350 kJ/mol
# GULP energy per Si atom -5569.278084 kJ/mol
# Density = 2.420214 g / cm^3
# Si number density = 24.257348 Si / 1000 Ang^3
#
#
#
# Elastic Constant Matrix: (Units=GPa)
#
#
# Indices 1 2 3 4 5 6 
#
# 1 126.1878 35.5237 28.0788 0.0000 0.0000 0.0000
# 2 35.5237 80.0025 49.6851 0.0000 0.0000 0.0000
# 3 28.0788 49.6851 161.0540 0.0000 0.0000 0.0000
# 4 0.0000 0.0000 0.0000 27.4677 0.0000 0.0000
# 5 0.0000 0.0000 0.0000 0.0000 66.4574 0.0000
# 6 0.0000 0.0000 0.0000 0.0000 0.0000 -0.4716
#
#
#
# Elastic Compliance Matrix: (Units=1/GPa)
#
#
# Indices 1 2 3 4 5 6 
#
# 1 0.009080 -0.003771 -0.000420 0.000000 0.000000 0.000000
# 2 -0.003771 0.017028 -0.004596 0.000000 0.000000 0.000000
# 3 -0.000420 -0.004596 0.007700 0.000000 0.000000 0.000000
# 4 0.000000 0.000000 0.000000 0.036406 0.000000 0.000000
# 5 0.000000 0.000000 0.000000 0.000000 0.015047 0.000000
# 6 0.000000 0.000000 0.000000 0.000000 0.000000 -2.120408
#
#
# Mechanical properties :
#
#
# Convention : Reuss Voigt Hill
#
# Bulk Modulus (GPa) = 61.59493 65.97997 63.78745
# Shear Modulus (GPa) = -2.48489 35.62113 16.56812
#
# Velocity S-wave (km/s) = -1.01322 3.83622 2.61629
# Velocity P-wave (km/s) = 4.90699 6.84698 5.95650
#
# Compressibility (1/GPa) = 0.01623510
#
# Stress axis : x y z
#
# Youngs Moduli (GPa) = 110.13606 58.72589 129.86941
#
# Poissons Ratio (x) = 0.22146 0.05449
# Poissons Ratio (y) = 0.41533 0.59685
# Poissons Ratio (z) = 0.04621 0.26989
#
# Static dielectric constant tensor:
#      x y z
#    x 1.850240 0.000000 0.000000 
#    y 0.000000 2.268380 0.000000 
#    z 0.000000 0.000000 1.935690 
# 
# From -- ./inp_files/26655.got.cif
#   From: 2010.05.17/outbox.cif.g08.bks.cpg/sg40_14_cif.got.tgz:26655.got - 2010.06.03 18:35:42.
