data_PCOD9365090
_publ_section_title
;
Structure prediction by ZEFSAII (Michael W. Deem and Ramdas Pophale) SiO2 
 PCOD9365090
Probable space group: A M A 2
;
_chemical_formula_sum "Si O2"
_cell_formula_units_Z 32
_cell_length_a 14.277240
_cell_length_b 21.374763
_cell_length_c 5.142498
_cell_angle_alpha 90.000000
_cell_angle_beta 90.000000
_cell_angle_gamma 90.000000
_cell_volume 1569.349595
_symmetry_space_group_name_H-M "A M A 2"
_symmetry_group_IT_number 40
_symmetry_cell_setting 'orthorhombic'
loop_
_space_group_symop_operation_xyz
x,y,z
-x,-y,z
1/2-x,y,z
1/2+x,-y,z
x,1/2+y,1/2+z
-x,1/2-y,1/2+z
1/2-x,1/2+y,1/2+z
1/2+x,1/2-y,1/2+z
loop_
_atom_site_type_symbol
_atom_site_label
_atom_site_fract_x
_atom_site_fract_y
_atom_site_fract_z
Si Si1 0.989572 0.289402 0.522030
Si Si2 0.048028 0.416445 0.339863
Si Si3 0.857960 0.399307 0.560962
Si Si4 0.640304 0.021878 0.344352
O O1 0.057207 0.342125 0.393956
O O2 0.971616 0.242151 0.283713
O O3 0.897828 0.329710 0.607214
O O4 0.098032 0.449251 0.581702
O O5 0.935604 0.424757 0.359574
O O6 0.087495 0.444812 0.078464
O O7 0.750000 0.400461 0.476649
O O8 0.867192 0.446969 0.802401
O O9 0.750000 0.035858 0.367299
#
# Coordination Sequence:
#
# PCOD9365090 Si02
#       4
#     8   8   8   8
#     4  10  22  43  66  94 135 175 232 274 325 396
#     4  10  23  40  69  97 135 175 222 280 344 383
#     4   9  23  42  71 100 134 178 229 276 340 408
#     4  11  22  42  65 102 137 174 222 278 343 413
#
# _framework density 20.390613999999999
#
# number of rings (size 3 to 8) (size 9 to 14) (size 15 to 20)
#    1.500    0.500    0.000    3.000    0.000    6.000 
#    0.000   17.500    0.000    1.500    0.000    0.000 
#    0.000    0.000    0.000    0.000    0.000    0.000 
#
# Total GULP energy -89150.466171 kJ/mol
# GULP energy per Si atom -5571.904136 kJ/mol
# Density = 2.034420 g / cm^3
# Si number density = 20.390614 Si / 1000 Ang^3
#
#
#
# Elastic Constant Matrix: (Units=GPa)
#
#
# Indices 1 2 3 4 5 6 
#
# 1 144.3950 45.8009 39.4381 0.0000 0.0000 0.0000
# 2 45.8009 114.2166 46.7106 0.0000 0.0000 0.0000
# 3 39.4381 46.7106 112.8256 0.0000 0.0000 0.0000
# 4 0.0000 0.0000 0.0000 10.9768 0.0000 0.0000
# 5 0.0000 0.0000 0.0000 0.0000 -4.8144 0.0000
# 6 0.0000 0.0000 0.0000 0.0000 0.0000 28.1137
#
#
#
# Elastic Compliance Matrix: (Units=1/GPa)
#
#
# Indices 1 2 3 4 5 6 
#
# 1 0.008234 -0.002558 -0.001819 0.000000 0.000000 0.000000
# 2 -0.002558 0.011334 -0.003798 0.000000 0.000000 0.000000
# 3 -0.001819 -0.003798 0.011072 0.000000 0.000000 0.000000
# 4 0.000000 0.000000 0.000000 0.091101 0.000000 0.000000
# 5 0.000000 0.000000 0.000000 0.000000 -0.207710 0.000000
# 6 0.000000 0.000000 0.000000 0.000000 0.000000 0.035570
#
#
# Mechanical properties :
#
#
# Convention : Reuss Voigt Hill
#
# Bulk Modulus (GPa) = 69.98367 70.59294 70.28831
# Shear Modulus (GPa) = -170.73484 22.82105 -73.95690
#
# Velocity S-wave (km/s) = -9.16045 3.34906 -6.02900
# Velocity P-wave (km/s) = 8.80279 7.04631 3.73086
#
# Compressibility (1/GPa) = 0.01428905
#
# Stress axis : x y z
#
# Youngs Moduli (GPa) = 121.45383 88.22712 90.32029
#
# Poissons Ratio (x) = 0.22566 0.16430
# Poissons Ratio (y) = 0.31064 0.34308
# Poissons Ratio (z) = 0.22094 0.33513
#
# Static dielectric constant tensor:
#      x y z
#    x 1.723270 0.000000 0.000000 
#    y 0.000000 1.809640 0.000000 
#    z 0.000000 0.000000 1.709540 
# 
# From -- ./inp_files/1116.got.cif
#   From: 2010.05.17/outbox.cif.g08.bks.cpg/sg40_1_cif.got.tgz:1116.got - 2010.06.03 18:35:42.
