data_PCOD9365979
_publ_section_title
;
Structure prediction by ZEFSAII (Michael W. Deem and Ramdas Pophale) SiO2 
 PCOD9365979
Probable space group: A B A 2
;
_chemical_formula_sum "Si O2"
_cell_formula_units_Z 56
_cell_length_a 15.663999
_cell_length_b 9.262285
_cell_length_c 16.431930
_cell_angle_alpha 90.000000
_cell_angle_beta 90.000000
_cell_angle_gamma 90.000000
_cell_volume 2384.017082
_symmetry_space_group_name_H-M "A B A 2"
_symmetry_group_IT_number 41
_symmetry_cell_setting 'orthorhombic'
loop_
_space_group_symop_operation_xyz
x,y,z
-x,-y,z
1/2-x,y,1/2+z
1/2+x,-y,1/2+z
x,1/2+y,1/2+z
-x,1/2-y,1/2+z
1/2-x,1/2+y,z
1/2+x,1/2-y,z
loop_
_atom_site_type_symbol
_atom_site_label
_atom_site_fract_x
_atom_site_fract_y
_atom_site_fract_z
Si Si1 0.608808 0.142247 0.355040
Si Si2 0.566983 0.868758 0.733852
Si Si3 0.790857 0.596762 0.769040
Si Si4 0.247758 0.437056 0.582781
Si Si5 0.364486 0.173317 0.387168
Si Si6 0.195153 0.171279 0.480281
Si Si7 0.574668 0.882340 0.550999
O O1 0.553619 0.234340 0.292507
O O2 0.704225 0.120744 0.318414
O O3 0.619706 0.245534 0.434005
O O4 0.588167 0.975550 0.367636
O O5 0.655989 0.946526 0.761821
O O6 0.500000 0.000000 0.739317
O O7 0.564033 0.814389 0.640474
O O8 0.757980 0.610651 0.676071
O O9 0.853054 0.712944 0.814117
O O10 0.241719 0.293801 0.531646
O O11 0.319888 0.540406 0.543169
O O12 0.160822 0.524334 0.563688
O O13 0.267356 0.128748 0.414414
O O14 0.412016 0.216962 0.471585
O O15 0.500000 0.000000 0.539582
#
# Coordination Sequence:
#
# PCOD9365979 Si02
#       7
#     8   8   8   8   8   8   8
#     4  11  21  37  60  90 121 159 205 263 306 375
#     4  10  23  41  61  87 126 166 208 258 322 382
#     4  10  22  36  59  93 124 158 207 256 313 371
#     4  10  21  34  59  87 118 158 200 255 308 366
#     4  10  21  35  57  89 117 155 200 257 303 365
#     4  10  19  36  55  87 121 152 200 253 306 358
#     4   9  19  39  58  81 115 161 203 242 306 377
#
# _framework density 23.489765999999999
#
# number of rings (size 3 to 8) (size 9 to 14) (size 15 to 20)
#    0.000    2.000    2.857    1.714   10.000    1.143 
#    0.000    0.000    0.000    0.000    0.000    0.000 
#    0.000    0.000    0.000    0.000    0.000    0.000 
#
# Total GULP energy -156082.686810 kJ/mol
# GULP energy per Si atom -5574.381672 kJ/mol
# Density = 2.343630 g / cm^3
# Si number density = 23.489766 Si / 1000 Ang^3
#
#
#
# Elastic Constant Matrix: (Units=GPa)
#
#
# Indices 1 2 3 4 5 6 
#
# 1 47.9763 -18.2536 1.6278 0.0000 0.0000 0.0000
# 2 -18.2536 98.0553 82.0093 0.0000 0.0000 0.0000
# 3 1.6278 82.0093 167.2778 0.0000 0.0000 0.0000
# 4 0.0000 0.0000 0.0000 31.4675 0.0000 0.0000
# 5 0.0000 0.0000 0.0000 0.0000 34.2918 0.0000
# 6 0.0000 0.0000 0.0000 0.0000 0.0000 12.3634
#
#
#
# Elastic Compliance Matrix: (Units=1/GPa)
#
#
# Indices 1 2 3 4 5 6 
#
# 1 0.023989 0.007900 -0.004107 0.000000 0.000000 0.000000
# 2 0.007900 0.019888 -0.009827 0.000000 0.000000 0.000000
# 3 -0.004107 -0.009827 0.010836 0.000000 0.000000 0.000000
# 4 0.000000 0.000000 0.000000 0.031779 0.000000 0.000000
# 5 0.000000 0.000000 0.000000 0.000000 0.029161 0.000000
# 6 0.000000 0.000000 0.000000 0.000000 0.000000 0.080884
#
#
# Mechanical properties :
#
#
# Convention : Reuss Voigt Hill
#
# Bulk Modulus (GPa) = 23.44905 49.34181 36.39543
# Shear Modulus (GPa) = 22.43971 32.15292 27.29632
#
# Velocity S-wave (km/s) = 3.09414 3.70375 3.41259
# Velocity P-wave (km/s) = 4.77172 6.27229 5.57274
#
# Compressibility (1/GPa) = 0.04264566
#
# Stress axis : x y z
#
# Youngs Moduli (GPa) = 41.68619 50.28162 92.28611
#
# Poissons Ratio (x) = -0.39724 0.37898
# Poissons Ratio (y) = -0.32933 0.90691
# Poissons Ratio (z) = 0.17119 0.49412
#
# Static dielectric constant tensor:
#      x y z
#    x 0.514200 0.000000 0.000000 
#    y 0.000000 1.880380 0.000000 
#    z 0.000000 0.000000 2.021910 
# 
# From -- ./inp_files/10665.got.cif
#   From: 2010.05.17/outbox.cif.g08.bks.cpg/sg41_6_cif.got.tgz:10665.got - 2010.06.03 18:54:24.
