data_PCOD9365852
_publ_section_title
;
Structure prediction by ZEFSAII (Michael W. Deem and Ramdas Pophale) SiO2 
 PCOD9365852
Probable space group: A B A 2
;
_chemical_formula_sum "Si O2"
_cell_formula_units_Z 56
_cell_length_a 20.672760
_cell_length_b 9.204512
_cell_length_c 13.080841
_cell_angle_alpha 90.000000
_cell_angle_beta 90.000000
_cell_angle_gamma 90.000000
_cell_volume 2489.057319
_symmetry_space_group_name_H-M "A B A 2"
_symmetry_group_IT_number 41
_symmetry_cell_setting 'orthorhombic'
loop_
_space_group_symop_operation_xyz
x,y,z
-x,-y,z
1/2-x,y,1/2+z
1/2+x,-y,1/2+z
x,1/2+y,1/2+z
-x,1/2-y,1/2+z
1/2-x,1/2+y,z
1/2+x,1/2-y,z
loop_
_atom_site_type_symbol
_atom_site_label
_atom_site_fract_x
_atom_site_fract_y
_atom_site_fract_z
Si Si1 0.203302 0.570252 0.067420
Si Si2 0.526346 0.336977 0.634736
Si Si3 0.072999 0.486189 0.830021
Si Si4 0.149924 0.228891 0.753945
Si Si5 0.829751 0.441961 0.454587
Si Si6 0.901402 0.176901 0.548372
Si Si7 0.885779 0.747986 0.441927
O O1 0.196988 0.679886 0.162597
O O2 0.150343 0.443213 0.086186
O O3 0.269749 0.507782 0.024538
O O4 0.179480 0.670545 0.974509
O O5 0.500000 0.500000 0.619911
O O6 0.576803 0.329568 0.727159
O O7 0.456068 0.268317 0.626971
O O8 0.566595 0.275055 0.538514
O O9 0.129695 0.397521 0.771175
O O10 0.089895 0.652863 0.850982
O O11 0.000000 0.500000 0.787806
O O12 0.071718 0.397279 0.940805
O O13 0.180633 0.150002 0.851230
O O14 0.865712 0.323223 0.521086
O O15 0.872637 0.580679 0.425651
#
# Coordination Sequence:
#
# PCOD9365852 Si02
#       7
#     8   8   8   8   8   8   8
#     4  10  21  46  67  89 142 189 232 285 356 422
#     4  11  18  42  67  93 138 185 224 281 369 426
#     4  10  18  39  65  99 136 178 218 281 360 424
#     4  10  24  40  70 101 134 185 237 291 358 427
#     4  11  24  41  67 105 131 184 246 290 340 436
#     4  10  19  40  69  89 132 194 220 286 366 411
#     4  10  20  39  68  96 132 182 228 289 357 411
#
# _framework density 22.498479
#
# number of rings (size 3 to 8) (size 9 to 14) (size 15 to 20)
#    0.000    1.714    5.714    0.857    0.000    1.714 
#    5.143   17.143    0.000    0.000    0.000    0.000 
#    0.000    0.000    0.000    0.000    0.000    0.000 
#
# Total GULP energy -155894.251158 kJ/mol
# GULP energy per Si atom -5567.651827 kJ/mol
# Density = 2.244727 g / cm^3
# Si number density = 22.498479 Si / 1000 Ang^3
#
#
#
# Elastic Constant Matrix: (Units=GPa)
#
#
# Indices 1 2 3 4 5 6 
#
# 1 72.4977 15.5457 44.0441 0.0000 0.0000 0.0000
# 2 15.5457 87.3985 15.9073 0.0000 0.0000 0.0000
# 3 44.0441 15.9073 57.4515 0.0000 0.0000 0.0000
# 4 0.0000 0.0000 0.0000 15.6402 0.0000 0.0000
# 5 0.0000 0.0000 0.0000 0.0000 29.2140 0.0000
# 6 0.0000 0.0000 0.0000 0.0000 0.0000 -31.5652
#
#
#
# Elastic Compliance Matrix: (Units=1/GPa)
#
#
# Indices 1 2 3 4 5 6 
#
# 1 0.025909 -0.001046 -0.019573 0.000000 0.000000 0.000000
# 2 -0.001046 0.012091 -0.002546 0.000000 0.000000 0.000000
# 3 -0.019573 -0.002546 0.033116 0.000000 0.000000 0.000000
# 4 0.000000 0.000000 0.000000 0.063938 0.000000 0.000000
# 5 0.000000 0.000000 0.000000 0.000000 0.034230 0.000000
# 6 0.000000 0.000000 0.000000 0.000000 0.000000 -0.031680
#
#
# Mechanical properties :
#
#
# Convention : Reuss Voigt Hill
#
# Bulk Modulus (GPa) = 40.34452 40.92686 40.63569
# Shear Modulus (GPa) = 26.01514 12.11450 19.06482
#
# Velocity S-wave (km/s) = 3.40414 2.32299 2.91414
# Velocity P-wave (km/s) = 5.78117 5.04237 5.42436
#
# Compressibility (1/GPa) = 0.02478651
#
# Stress axis : x y z
#
# Youngs Moduli (GPa) = 38.59689 82.70416 30.19678
#
# Poissons Ratio (x) = 0.08651 0.59104
# Poissons Ratio (y) = 0.04037 0.07688
# Poissons Ratio (z) = 0.75545 0.21056
#
# Static dielectric constant tensor:
#      x y z
#    x 2.047810 0.000000 0.000000 
#    y 0.000000 2.651820 0.000000 
#    z 0.000000 0.000000 1.899600 
# 
# From -- ./inp_files/9028.got.cif
#   From: 2010.05.17/outbox.cif.g08.bks.cpg/sg41_5_cif.got.tgz:9028.got - 2010.06.03 18:54:24.
