data_PCOD9365101
_publ_section_title
;
Structure prediction by ZEFSAII (Michael W. Deem and Ramdas Pophale) SiO2 
 PCOD9365101
Probable space group: A M A 2
;
_chemical_formula_sum "Si O2"
_cell_formula_units_Z 48
_cell_length_a 23.225958
_cell_length_b 12.130579
_cell_length_c 7.568618
_cell_angle_alpha 90.000000
_cell_angle_beta 90.000000
_cell_angle_gamma 90.000000
_cell_volume 2132.415119
_symmetry_space_group_name_H-M "A M A 2"
_symmetry_group_IT_number 40
_symmetry_cell_setting 'orthorhombic'
loop_
_space_group_symop_operation_xyz
x,y,z
-x,-y,z
1/2-x,y,z
1/2+x,-y,z
x,1/2+y,1/2+z
-x,1/2-y,1/2+z
1/2-x,1/2+y,1/2+z
1/2+x,1/2-y,1/2+z
loop_
_atom_site_type_symbol
_atom_site_label
_atom_site_fract_x
_atom_site_fract_y
_atom_site_fract_z
Si Si1 0.070997 0.174206 0.031070
Si Si2 0.314169 0.697576 0.718578
Si Si3 0.535381 0.792459 0.632686
Si Si4 0.815768 0.548955 0.331992
Si Si5 0.620418 0.959835 0.486245
Si Si6 0.905098 0.061126 0.141065
O O1 0.138008 0.193933 0.066507
O O2 0.059885 0.051752 0.106896
O O3 0.032175 0.267819 0.122679
O O4 0.053306 0.177317 0.829388
O O5 0.250000 0.665931 0.663421
O O6 0.313094 0.822026 0.786290
O O7 0.336597 0.619325 0.876223
O O8 0.562161 0.888960 0.514610
O O9 0.564689 0.674621 0.588135
O O10 0.750000 0.507132 0.336941
O O11 0.852087 0.492829 0.173281
O O12 0.849041 0.544124 0.518048
O O13 0.609005 0.059546 0.349918
#
# Coordination Sequence:
#
# PCOD9365101 Si02
#       6
#     8   8   8   8   8   8
#     4  11  24  43  69 100 136 182 224 280 338 403
#     4  10  22  43  69  99 137 177 225 280 333 402
#     4  12  24  45  67 101 139 174 231 278 338 404
#     4  11  23  42  68  99 136 182 227 273 336 401
#     4  11  23  44  69  98 135 177 225 275 339 397
#     4  11  24  43  67  99 135 176 225 278 336 399
#
# _framework density 22.509689000000002
#
# number of rings (size 3 to 8) (size 9 to 14) (size 15 to 20)
#    0.000    1.000    3.333    4.000    0.000    3.333 
#    0.000    3.333    0.000    0.000    0.000    0.000 
#    0.000    0.000    0.000    0.000    0.000    0.000 
#
# Total GULP energy -134246.140214 kJ/mol
# GULP energy per Si atom -5593.589176 kJ/mol
# Density = 2.245846 g / cm^3
# Si number density = 22.509689 Si / 1000 Ang^3
#
#
#
# Elastic Constant Matrix: (Units=GPa)
#
#
# Indices 1 2 3 4 5 6 
#
# 1 92.4920 -9.4007 9.2124 0.0000 0.0000 0.0000
# 2 -9.4007 47.5314 -1.7755 0.0000 0.0000 0.0000
# 3 9.2124 -1.7755 98.1429 0.0000 0.0000 0.0000
# 4 0.0000 0.0000 0.0000 32.3303 0.0000 0.0000
# 5 0.0000 0.0000 0.0000 0.0000 29.2346 0.0000
# 6 0.0000 0.0000 0.0000 0.0000 0.0000 37.2821
#
#
#
# Elastic Compliance Matrix: (Units=1/GPa)
#
#
# Indices 1 2 3 4 5 6 
#
# 1 0.011132 0.002164 -0.001006 0.000000 0.000000 0.000000
# 2 0.002164 0.021474 0.000185 0.000000 0.000000 0.000000
# 3 -0.001006 0.000185 0.010287 0.000000 0.000000 0.000000
# 4 0.000000 0.000000 0.000000 0.030931 0.000000 0.000000
# 5 0.000000 0.000000 0.000000 0.000000 0.034206 0.000000
# 6 0.000000 0.000000 0.000000 0.000000 0.000000 0.026823
#
#
# Mechanical properties :
#
#
# Convention : Reuss Voigt Hill
#
# Bulk Modulus (GPa) = 21.93955 26.02654 23.98305
# Shear Modulus (GPa) = 33.93103 35.77808 34.85456
#
# Velocity S-wave (km/s) = 3.88673 3.99112 3.93927
# Velocity P-wave (km/s) = 5.46902 5.72941 5.60073
#
# Compressibility (1/GPa) = 0.04557978
#
# Stress axis : x y z
#
# Youngs Moduli (GPa) = 89.83216 46.56871 97.21017
#
# Poissons Ratio (x) = -0.10078 0.09777
# Poissons Ratio (y) = -0.19440 -0.01802
# Poissons Ratio (z) = 0.09035 -0.00863
#
# Static dielectric constant tensor:
#      x y z
#    x 1.864720 0.000000 0.000000 
#    y 0.000000 1.843330 0.000000 
#    z 0.000000 0.000000 1.814640 
# 
# From -- ./inp_files/8178.got.cif
#   From: 2010.05.17/outbox.cif.g08.bks.cpg/sg40_5_cif.got.tgz:8178.got - 2010.06.03 18:35:42.
