data_PCOD9365509
_publ_section_title
;
Structure prediction by ZEFSAII (Michael W. Deem and Ramdas Pophale) SiO2 
 PCOD9365509
Probable space group: A M A 2
;
_chemical_formula_sum "Si O2"
_cell_formula_units_Z 44
_cell_length_a 9.435405
_cell_length_b 22.893957
_cell_length_c 9.539093
_cell_angle_alpha 90.000000
_cell_angle_beta 90.000000
_cell_angle_gamma 90.000000
_cell_volume 2060.575311
_symmetry_space_group_name_H-M "A M A 2"
_symmetry_group_IT_number 40
_symmetry_cell_setting 'orthorhombic'
loop_
_space_group_symop_operation_xyz
x,y,z
-x,-y,z
1/2-x,y,z
1/2+x,-y,z
x,1/2+y,1/2+z
-x,1/2-y,1/2+z
1/2-x,1/2+y,1/2+z
1/2+x,1/2-y,1/2+z
loop_
_atom_site_type_symbol
_atom_site_label
_atom_site_fract_x
_atom_site_fract_y
_atom_site_fract_z
Si Si1 0.000000 0.500000 0.265000
Si Si2 0.911605 0.801589 0.576835
Si Si3 0.913441 0.216803 0.823912
Si Si4 0.905069 0.088305 0.537831
Si Si5 0.583362 0.059504 0.208894
Si Si6 0.417155 0.609725 0.460063
O O1 0.092887 0.463159 0.152643
O O2 0.063667 0.550220 0.366880
O O3 0.750000 0.799587 0.627550
O O4 0.918570 0.771473 0.426797
O O5 0.017288 0.766882 0.677103
O O6 0.969989 0.867010 0.571025
O O7 0.750000 0.198107 0.813600
O O8 0.008129 0.163361 0.880572
O O9 0.750000 0.117411 0.545971
O O10 0.923474 0.069811 0.376042
O O11 0.750000 0.056444 0.170490
O O12 0.501742 0.103710 0.106796
O O13 0.500000 0.000000 0.182210
O O14 0.250000 0.619103 0.481111
#
# Coordination Sequence:
#
# PCOD9365509 Si02
#       6
#     4   8   8   8   8   8
#     4  12  24  42  70 108 138 182 222 286 340 412
#     4  11  26  46  70 101 134 177 230 284 342 410
#     4  11  26  47  70 100 136 178 228 286 343 408
#     4  11  25  44  69  99 137 181 225 282 344 408
#     4  11  24  42  64  95 133 177 221 270 331 400
#     4  12  26  43  69 101 137 182 228 283 342 413
#
# _framework density 21.353259999999999
#
# number of rings (size 3 to 8) (size 9 to 14) (size 15 to 20)
#    0.000    0.727    3.636    2.727    2.545    6.545 
#    0.000    0.000    0.000    0.000    0.000    0.000 
#    0.000    0.000    0.000    0.000    0.000    0.000 
#
# Total GULP energy -122903.836773 kJ/mol
# GULP energy per Si atom -5586.538035 kJ/mol
# Density = 2.130466 g / cm^3
# Si number density = 21.353260 Si / 1000 Ang^3
#
#
#
# Elastic Constant Matrix: (Units=GPa)
#
#
# Indices 1 2 3 4 5 6 
#
# 1 163.1561 14.6223 31.8822 0.0000 0.0000 0.0000
# 2 14.6223 43.6058 -7.0948 0.0000 0.0000 0.0000
# 3 31.8822 -7.0948 85.5864 0.0000 0.0000 0.0000
# 4 0.0000 0.0000 0.0000 34.5263 0.0000 0.0000
# 5 0.0000 0.0000 0.0000 0.0000 36.1010 0.0000
# 6 0.0000 0.0000 0.0000 0.0000 0.0000 11.1984
#
#
#
# Elastic Compliance Matrix: (Units=1/GPa)
#
#
# Indices 1 2 3 4 5 6 
#
# 1 0.006928 -0.002780 -0.002811 0.000000 0.000000 0.000000
# 2 -0.002780 0.024362 0.003055 0.000000 0.000000 0.000000
# 3 -0.002811 0.003055 0.012985 0.000000 0.000000 0.000000
# 4 0.000000 0.000000 0.000000 0.028963 0.000000 0.000000
# 5 0.000000 0.000000 0.000000 0.000000 0.027700 0.000000
# 6 0.000000 0.000000 0.000000 0.000000 0.000000 0.089298
#
#
# Mechanical properties :
#
#
# Convention : Reuss Voigt Hill
#
# Bulk Modulus (GPa) = 25.50897 41.24083 33.37490
# Shear Modulus (GPa) = 23.99507 33.22770 28.61138
#
# Velocity S-wave (km/s) = 3.35583 3.94902 3.66445
# Velocity P-wave (km/s) = 5.19495 6.33628 5.79379
#
# Compressibility (1/GPa) = 0.03920189
#
# Stress axis : x y z
#
# Youngs Moduli (GPa) = 144.35012 41.04722 77.01451
#
# Poissons Ratio (x) = 0.11413 0.21650
# Poissons Ratio (y) = 0.40135 -0.23530
# Poissons Ratio (z) = 0.40579 -0.12541
#
# Static dielectric constant tensor:
#      x y z
#    x 1.739320 0.000000 0.000000 
#    y 0.000000 1.764650 0.000000 
#    z 0.000000 0.000000 1.804270 
# 
# From -- ./inp_files/10189.got.cif
#   From: 2010.05.17/outbox.cif.g08.bks.cpg/sg40_6_cif.got.tgz:10189.got - 2010.06.03 18:35:42.
