data_PCOD9365844
_publ_section_title
;
Structure prediction by ZEFSAII (Michael W. Deem and Ramdas Pophale) SiO2 
 PCOD9365844
Probable space group: A B A 2
;
_chemical_formula_sum "Si O2"
_cell_formula_units_Z 60
_cell_length_a 12.580170
_cell_length_b 18.059296
_cell_length_c 14.214231
_cell_angle_alpha 90.000000
_cell_angle_beta 90.000000
_cell_angle_gamma 90.000000
_cell_volume 3229.317122
_symmetry_space_group_name_H-M "A B A 2"
_symmetry_group_IT_number 41
_symmetry_cell_setting 'orthorhombic'
loop_
_space_group_symop_operation_xyz
x,y,z
-x,-y,z
1/2-x,y,1/2+z
1/2+x,-y,1/2+z
x,1/2+y,1/2+z
-x,1/2-y,1/2+z
1/2-x,1/2+y,z
1/2+x,1/2-y,z
loop_
_atom_site_type_symbol
_atom_site_label
_atom_site_fract_x
_atom_site_fract_y
_atom_site_fract_z
Si Si1 0.076506 0.209608 0.338050
Si Si2 0.815053 0.442800 0.807668
Si Si3 0.597565 0.441776 0.104488
Si Si4 0.492520 0.282703 0.130492
Si Si5 0.174243 0.327985 0.480853
Si Si6 0.624061 0.006447 0.414641
Si Si7 0.000000 0.000000 0.447410
Si Si8 0.925109 0.654115 0.000256
O O1 0.163924 0.145143 0.320093
O O2 0.015651 0.228347 0.241037
O O3 0.132453 0.274149 0.397947
O O4 0.985012 0.177252 0.404908
O O5 0.838590 0.458562 0.698750
O O6 0.702651 0.477243 0.835227
O O7 0.902909 0.478906 0.877355
O O8 0.500000 0.500000 0.105176
O O9 0.558754 0.357255 0.106802
O O10 0.652882 0.456400 0.005581
O O11 0.379887 0.302145 0.079720
O O12 0.532108 0.208773 0.079867
O O13 0.140306 0.409968 0.449382
O O14 0.300414 0.331796 0.490829
O O15 0.500000 0.000000 0.389972
O O16 0.959015 0.068569 0.509738
#
# Coordination Sequence:
#
# PCOD9365844 Si02
#       8
#     8   8   8   8   8   8   4   8
#     4   9  23  39  63  91 124 163 210 263 310 381
#     4  10  20  37  64  91 120 159 211 261 307 367
#     4  10  19  37  66  89 115 162 212 251 299 378
#     4  10  21  41  60  92 122 159 212 255 310 382
#     4  11  21  39  63  89 122 169 201 260 320 368
#     4  11  22  37  63  91 126 160 208 257 311 375
#     4  10  18  38  62  92 122 160 212 262 308 364
#     4  10  22  37  64  92 125 160 211 259 315 376
#
# _framework density 18.579778999999998
#
# number of rings (size 3 to 8) (size 9 to 14) (size 15 to 20)
#    0.000    1.867    4.667    0.000    1.867    1.067 
#    2.400    1.333    2.933    0.000    0.000    0.000 
#    0.000    0.000    0.000    0.000    0.000    0.000 
#
# Total GULP energy -167206.837013 kJ/mol
# GULP energy per Si atom -5573.561234 kJ/mol
# Density = 1.853749 g / cm^3
# Si number density = 18.579779 Si / 1000 Ang^3
#
#
#
# Elastic Constant Matrix: (Units=GPa)
#
#
# Indices 1 2 3 4 5 6 
#
# 1 118.1957 40.6960 27.8711 0.0000 0.0000 0.0000
# 2 40.6960 90.1371 46.1550 0.0000 0.0000 0.0000
# 3 27.8711 46.1550 81.9589 0.0000 0.0000 0.0000
# 4 0.0000 0.0000 0.0000 19.7154 0.0000 0.0000
# 5 0.0000 0.0000 0.0000 0.0000 13.3372 0.0000
# 6 0.0000 0.0000 0.0000 0.0000 0.0000 17.2809
#
#
#
# Elastic Compliance Matrix: (Units=1/GPa)
#
#
# Indices 1 2 3 4 5 6 
#
# 1 0.010104 -0.003938 -0.001218 0.000000 0.000000 0.000000
# 2 -0.003938 0.017124 -0.008304 0.000000 0.000000 0.000000
# 3 -0.001218 -0.008304 0.017292 0.000000 0.000000 0.000000
# 4 0.000000 0.000000 0.000000 0.050722 0.000000 0.000000
# 5 0.000000 0.000000 0.000000 0.000000 0.074978 0.000000
# 6 0.000000 0.000000 0.000000 0.000000 0.000000 0.057867
#
#
# Mechanical properties :
#
#
# Convention : Reuss Voigt Hill
#
# Bulk Modulus (GPa) = 56.82127 57.74845 57.28486
# Shear Modulus (GPa) = 19.16627 21.77135 20.46881
#
# Velocity S-wave (km/s) = 3.21528 3.42684 3.32274
# Velocity P-wave (km/s) = 6.66579 6.84152 6.75423
#
# Compressibility (1/GPa) = 0.01759904
#
# Stress axis : x y z
#
# Youngs Moduli (GPa) = 98.97390 58.39597 57.82959
#
# Poissons Ratio (x) = 0.22996 0.07045
# Poissons Ratio (y) = 0.38975 0.48025
# Poissons Ratio (z) = 0.12058 0.48495
#
# Static dielectric constant tensor:
#      x y z
#    x 1.634560 0.000000 0.000000 
#    y 0.000000 1.673830 0.000000 
#    z 0.000000 0.000000 1.637160 
# 
# From -- ./inp_files/8054.got.cif
#   From: 2010.05.17/outbox.cif.g08.bks.cpg/sg41_5_cif.got.tgz:8054.got - 2010.06.03 18:54:24.
