data_PCOD9365407
_publ_section_title
;
Structure prediction by ZEFSAII (Michael W. Deem and Ramdas Pophale) SiO2 
 PCOD9365407
Probable space group: A M A 2
;
_chemical_formula_sum "Si O2"
_cell_formula_units_Z 56
_cell_length_a 21.790173
_cell_length_b 9.643503
_cell_length_c 12.588061
_cell_angle_alpha 90.000000
_cell_angle_beta 90.000000
_cell_angle_gamma 90.000000
_cell_volume 2645.174559
_symmetry_space_group_name_H-M "A M A 2"
_symmetry_group_IT_number 40
_symmetry_cell_setting 'orthorhombic'
loop_
_space_group_symop_operation_xyz
x,y,z
-x,-y,z
1/2-x,y,z
1/2+x,-y,z
x,1/2+y,1/2+z
-x,1/2-y,1/2+z
1/2-x,1/2+y,1/2+z
1/2+x,1/2-y,1/2+z
loop_
_atom_site_type_symbol
_atom_site_label
_atom_site_fract_x
_atom_site_fract_y
_atom_site_fract_z
Si Si1 0.991092 0.652018 0.010940
Si Si2 0.176997 0.947954 0.213986
Si Si3 0.353808 0.243013 0.301126
Si Si4 0.820498 0.458851 0.228322
Si Si5 0.368866 0.733957 0.042496
Si Si6 0.016658 0.849271 0.750743
Si Si7 0.100111 0.245788 0.844571
O O1 0.966549 0.625698 0.129138
O O2 0.000000 0.500000 0.958583
O O3 0.057935 0.720432 0.023477
O O4 0.938779 0.737154 0.950688
O O5 0.250000 0.928974 0.213932
O O6 0.161725 0.108043 0.232873
O O7 0.150066 0.871121 0.109348
O O8 0.145099 0.869680 0.313564
O O9 0.325377 0.377718 0.244779
O O10 0.337318 0.229174 0.426159
O O11 0.426669 0.272019 0.301249
O O12 0.750000 0.414904 0.234922
O O13 0.847780 0.393015 0.119798
O O14 0.860224 0.391087 0.323591
O O15 0.955365 0.759917 0.759533
O O16 0.000000 0.000000 0.798799
#
# Coordination Sequence:
#
# PCOD9365407 Si02
#       7
#     8   8   8   8   8   8   8
#     4  11  21  38  68 102 140 179 231 291 359 426
#     4  11  26  46  67 104 147 183 238 293 343 430
#     4  12  25  44  73 105 139 187 237 294 356 411
#     4  11  24  45  72 100 140 191 236 282 346 426
#     4  11  23  46  72  99 139 192 233 285 357 419
#     4  11  21  41  66 100 143 173 234 297 347 423
#     4  11  21  40  69 102 135 181 232 289 355 414
#
# _framework density 21.170625000000001
#
# number of rings (size 3 to 8) (size 9 to 14) (size 15 to 20)
#    0.000    0.857    5.714    3.857    0.000    3.429 
#    0.000    2.857    0.000    8.571    0.000    0.000 
#    0.000    0.000    0.000    0.000    0.000    0.000 
#
# Total GULP energy -156312.100922 kJ/mol
# GULP energy per Si atom -5582.575033 kJ/mol
# Density = 2.112244 g / cm^3
# Si number density = 21.170625 Si / 1000 Ang^3
#
#
#
# Elastic Constant Matrix: (Units=GPa)
#
#
# Indices 1 2 3 4 5 6 
#
# 1 168.4507 49.6858 33.9064 0.0000 0.0000 0.0000
# 2 49.6858 155.8953 54.2177 0.0000 0.0000 0.0000
# 3 33.9064 54.2177 103.6953 0.0000 0.0000 0.0000
# 4 0.0000 0.0000 0.0000 9.9879 0.0000 0.0000
# 5 0.0000 0.0000 0.0000 0.0000 18.4442 0.0000
# 6 0.0000 0.0000 0.0000 0.0000 0.0000 21.6508
#
#
#
# Elastic Compliance Matrix: (Units=1/GPa)
#
#
# Indices 1 2 3 4 5 6 
#
# 1 0.006695 -0.001678 -0.001312 0.000000 0.000000 0.000000
# 2 -0.001678 0.008261 -0.003771 0.000000 0.000000 0.000000
# 3 -0.001312 -0.003771 0.012044 0.000000 0.000000 0.000000
# 4 0.000000 0.000000 0.000000 0.100121 0.000000 0.000000
# 5 0.000000 0.000000 0.000000 0.000000 0.054218 0.000000
# 6 0.000000 0.000000 0.000000 0.000000 0.000000 0.046188
#
#
# Mechanical properties :
#
#
# Convention : Reuss Voigt Hill
#
# Bulk Modulus (GPa) = 74.18634 78.18456 76.18545
# Shear Modulus (GPa) = 20.36331 29.36535 24.86433
#
# Velocity S-wave (km/s) = 3.10476 3.72839 3.43078
# Velocity P-wave (km/s) = 6.92610 7.45288 7.19431
#
# Compressibility (1/GPa) = 0.01347957
#
# Stress axis : x y z
#
# Youngs Moduli (GPa) = 149.35683 121.05724 83.02797
#
# Poissons Ratio (x) = 0.20308 0.10894
# Poissons Ratio (y) = 0.25056 0.31306
# Poissons Ratio (z) = 0.19598 0.45645
#
# Static dielectric constant tensor:
#      x y z
#    x 1.774280 0.000000 0.000000 
#    y 0.000000 1.813660 0.000000 
#    z 0.000000 0.000000 1.822570 
# 
# From -- ./inp_files/18240.got.cif
#   From: 2010.05.17/outbox.cif.g08.bks.cpg/sg40_10_cif.got.tgz:18240.got - 2010.06.03 18:35:42.
