data_PCOD9365064
_publ_section_title
;
Structure prediction by ZEFSAII (Michael W. Deem and Ramdas Pophale) SiO2 
 PCOD9365064
Probable space group: A M A 2
;
_chemical_formula_sum "Si O2"
_cell_formula_units_Z 64
_cell_length_a 31.027400
_cell_length_b 7.510724
_cell_length_c 11.835221
_cell_angle_alpha 90.000000
_cell_angle_beta 90.000000
_cell_angle_gamma 90.000000
_cell_volume 2758.059046
_symmetry_space_group_name_H-M "A M A 2"
_symmetry_group_IT_number 40
_symmetry_cell_setting 'orthorhombic'
loop_
_space_group_symop_operation_xyz
x,y,z
-x,-y,z
1/2-x,y,z
1/2+x,-y,z
x,1/2+y,1/2+z
-x,1/2-y,1/2+z
1/2-x,1/2+y,1/2+z
1/2+x,1/2-y,1/2+z
loop_
_atom_site_type_symbol
_atom_site_label
_atom_site_fract_x
_atom_site_fract_y
_atom_site_fract_z
Si Si1 0.178426 0.454769 0.170600
Si Si2 0.894079 0.951882 0.828449
Si Si3 0.297599 0.299770 0.570425
Si Si4 0.985956 0.796685 0.585228
Si Si5 0.604901 0.281616 0.984143
Si Si6 0.702388 0.919343 0.253601
Si Si7 0.146191 0.374366 0.931871
Si Si8 0.984966 0.297597 0.329570
O O1 0.130841 0.502975 0.214394
O O2 0.203195 0.640924 0.164154
O O3 0.194763 0.291602 0.245555
O O4 0.175501 0.386815 0.042797
O O5 0.862984 0.830005 0.905141
O O6 0.933944 0.821017 0.816140
O O7 0.905352 0.139756 0.885655
O O8 0.250000 0.289950 0.512218
O O9 0.344677 0.264066 0.514311
O O10 0.300010 0.489313 0.631107
O O11 0.934781 0.758617 0.570096
O O12 0.000406 0.713719 0.708267
O O13 0.004243 0.760999 0.457924
O O14 0.000000 0.000000 0.600787
O O15 0.605996 0.491502 0.954196
O O16 0.750000 0.954157 0.298289
O O17 0.668972 0.025695 0.328913
O O18 0.000000 0.500000 0.330317
#
# Coordination Sequence:
#
# PCOD9365064 Si02
#       8
#     8   8   8   8   8   8   8   8
#     4  11  23  43  68  96 134 184 230 295 357 421
#     4  12  23  45  72 101 140 184 236 296 360 434
#     4  10  22  42  68 101 142 187 239 299 357 427
#     4  11  25  47  72 106 144 191 238 305 370 444
#     4  11  23  45  72 103 143 190 239 296 364 433
#     4  11  23  41  65  98 138 182 238 291 350 427
#     4  11  24  41  66 100 133 179 232 287 353 419
#     4  11  24  45  71 102 145 181 237 299 362 435
#
# _framework density 23.204725
#
# number of rings (size 3 to 8) (size 9 to 14) (size 15 to 20)
#    0.000    1.000    3.750    3.375    0.000    4.000 
#    0.000    0.625    0.000    0.000    0.000    0.000 
#    0.000    0.000    0.000    0.000    0.000    0.000 
#
# Total GULP energy -178214.274916 kJ/mol
# GULP energy per Si atom -5569.196091 kJ/mol
# Density = 2.315191 g / cm^3
# Si number density = 23.204725 Si / 1000 Ang^3
#
#
#
# Elastic Constant Matrix: (Units=GPa)
#
#
# Indices 1 2 3 4 5 6 
#
# 1 80.6347 -11.6620 19.3023 0.0000 0.0000 0.0000
# 2 -11.6620 88.7782 15.6715 0.0000 0.0000 0.0000
# 3 19.3023 15.6715 114.1351 0.0000 0.0000 0.0000
# 4 0.0000 0.0000 0.0000 57.9611 0.0000 0.0000
# 5 0.0000 0.0000 0.0000 0.0000 23.5616 0.0000
# 6 0.0000 0.0000 0.0000 0.0000 0.0000 15.1130
#
#
#
# Elastic Compliance Matrix: (Units=1/GPa)
#
#
# Indices 1 2 3 4 5 6 
#
# 1 0.013332 0.002203 -0.002557 0.000000 0.000000 0.000000
# 2 0.002203 0.011908 -0.002008 0.000000 0.000000 0.000000
# 3 -0.002557 -0.002008 0.009470 0.000000 0.000000 0.000000
# 4 0.000000 0.000000 0.000000 0.017253 0.000000 0.000000
# 5 0.000000 0.000000 0.000000 0.000000 0.042442 0.000000
# 6 0.000000 0.000000 0.000000 0.000000 0.000000 0.066168
#
#
# Mechanical properties :
#
#
# Convention : Reuss Voigt Hill
#
# Bulk Modulus (GPa) = 33.34912 36.68573 35.01743
# Shear Modulus (GPa) = 28.52383 36.67622 32.60002
#
# Velocity S-wave (km/s) = 3.50983 3.97993 3.75225
# Velocity P-wave (km/s) = 5.55231 6.07977 5.82202
#
# Compressibility (1/GPa) = 0.02998580
#
# Stress axis : x y z
#
# Youngs Moduli (GPa) = 75.00570 83.97887 105.60036
#
# Poissons Ratio (x) = -0.18498 0.27004
# Poissons Ratio (y) = -0.16522 0.21200
# Poissons Ratio (z) = 0.19180 0.16859
#
# Static dielectric constant tensor:
#      x y z
#    x 1.917040 0.000000 0.000000 
#    y 0.000000 1.834510 0.000000 
#    z 0.000000 0.000000 1.947470 
# 
# From -- ./inp_files/14420.got.cif
#   From: 2010.05.17/outbox.cif.g08.bks.cpg/sg40_8_cif.got.tgz:14420.got - 2010.06.03 18:35:42.
