data_PCOD9365014
_publ_section_title
;
Structure prediction by ZEFSAII (Michael W. Deem and Ramdas Pophale) SiO2 
 PCOD9365014
Probable space group: A M A 2
;
_chemical_formula_sum "Si O2"
_cell_formula_units_Z 48
_cell_length_a 30.454292
_cell_length_b 15.571083
_cell_length_c 5.049736
_cell_angle_alpha 90.000000
_cell_angle_beta 90.000000
_cell_angle_gamma 90.000000
_cell_volume 2394.616667
_symmetry_space_group_name_H-M "A M A 2"
_symmetry_group_IT_number 40
_symmetry_cell_setting 'orthorhombic'
loop_
_space_group_symop_operation_xyz
x,y,z
-x,-y,z
1/2-x,y,z
1/2+x,-y,z
x,1/2+y,1/2+z
-x,1/2-y,1/2+z
1/2-x,1/2+y,1/2+z
1/2+x,1/2-y,1/2+z
loop_
_atom_site_type_symbol
_atom_site_label
_atom_site_fract_x
_atom_site_fract_y
_atom_site_fract_z
Si Si1 0.379084 0.196082 0.532600
Si Si2 0.700380 0.210619 0.816823
Si Si3 0.159630 0.351314 0.810688
Si Si4 0.472419 0.267174 0.467283
Si Si5 0.045814 0.459675 0.556961
Si Si6 0.600420 0.498400 0.047712
O O1 0.336196 0.215337 0.354914
O O2 0.371647 0.267332 0.764750
O O3 0.426308 0.220378 0.410370
O O4 0.380604 0.096164 0.598704
O O5 0.750000 0.236313 0.877593
O O6 0.695630 0.175277 0.523964
O O7 0.682826 0.139574 0.026415
O O8 0.133699 0.432418 0.921506
O O9 0.500693 0.220498 0.695539
O O10 0.461800 0.359153 0.595017
O O11 0.062392 0.504694 0.824362
O O12 0.000000 0.500000 0.469432
O O13 0.081091 0.468862 0.323792
#
# Coordination Sequence:
#
# PCOD9365014 Si02
#       6
#     8   8   8   8   8   8
#     4  10  25  40  68  91 130 168 214 258 335 378
#     4  10  22  43  70  93 128 165 213 269 332 394
#     4  10  22  41  66  89 126 164 210 258 331 385
#     4  12  24  39  62  92 128 172 218 261 319 385
#     4  12  24  40  59  94 131 170 227 273 321 383
#     4  12  23  41  65  91 130 171 215 271 327 393
#
# _framework density 20.044962000000002
#
# number of rings (size 3 to 8) (size 9 to 14) (size 15 to 20)
#    1.000    0.000    1.667    6.000    4.667    0.000 
#    0.000    1.667    0.000    0.000    0.000    0.000 
#    0.000    0.000    0.000    0.000    0.000    0.000 
#
# Total GULP energy -133871.773088 kJ/mol
# GULP energy per Si atom -5577.990545 kJ/mol
# Density = 1.999934 g / cm^3
# Si number density = 20.044962 Si / 1000 Ang^3
#
#
#
# Elastic Constant Matrix: (Units=GPa)
#
#
# Indices 1 2 3 4 5 6 
#
# 1 115.3719 24.9394 11.8749 0.0000 0.0000 0.0000
# 2 24.9394 99.5128 -7.6742 0.0000 0.0000 0.0000
# 3 11.8749 -7.6742 63.9072 0.0000 0.0000 0.0000
# 4 0.0000 0.0000 0.0000 -137.0318 0.0000 0.0000
# 5 0.0000 0.0000 0.0000 0.0000 32.3456 0.0000
# 6 0.0000 0.0000 0.0000 0.0000 0.0000 14.0601
#
#
#
# Elastic Compliance Matrix: (Units=1/GPa)
#
#
# Indices 1 2 3 4 5 6 
#
# 1 0.009424 -0.002520 -0.002054 0.000000 0.000000 0.000000
# 2 -0.002520 0.010817 0.001767 0.000000 0.000000 0.000000
# 3 -0.002054 0.001767 0.016242 0.000000 0.000000 0.000000
# 4 0.000000 0.000000 0.000000 -0.007298 0.000000 0.000000
# 5 0.000000 0.000000 0.000000 0.000000 0.030916 0.000000
# 6 0.000000 0.000000 0.000000 0.000000 0.000000 0.071123
#
#
# Mechanical properties :
#
#
# Convention : Reuss Voigt Hill
#
# Bulk Modulus (GPa) = 32.39510 37.45246 34.92378
# Shear Modulus (GPa) = 33.98430 -1.48177 16.25126
#
# Velocity S-wave (km/s) = 4.12199 -0.86071 2.85044
# Velocity P-wave (km/s) = 6.23304 4.21153 5.31920
#
# Compressibility (1/GPa) = 0.03086886
#
# Stress axis : x y z
#
# Youngs Moduli (GPa) = 106.11466 92.44854 61.57064
#
# Poissons Ratio (x) = 0.23298 0.12645
# Poissons Ratio (y) = 0.26742 -0.10881
# Poissons Ratio (z) = 0.21793 -0.16338
#
# Static dielectric constant tensor:
#      x y z
#    x 1.720900 0.000000 0.000000 
#    y 0.000000 2.054360 0.000000 
#    z 0.000000 0.000000 1.711030 
# 
# From -- ./inp_files/3072.got.cif
#   From: 2010.05.17/outbox.cif.g08.bks.cpg/sg40_2_cif.got.tgz:3072.got - 2010.06.03 18:35:42.
