data_PCOD9365812
_publ_section_title
;
Structure prediction by ZEFSAII (Michael W. Deem and Ramdas Pophale) SiO2 
 PCOD9365812
Probable space group: A B A 2
;
_chemical_formula_sum "Si O2"
_cell_formula_units_Z 56
_cell_length_a 15.888738
_cell_length_b 18.567858
_cell_length_c 8.550369
_cell_angle_alpha 90.000000
_cell_angle_beta 90.000000
_cell_angle_gamma 90.000000
_cell_volume 2522.528417
_symmetry_space_group_name_H-M "A B A 2"
_symmetry_group_IT_number 41
_symmetry_cell_setting 'orthorhombic'
loop_
_space_group_symop_operation_xyz
x,y,z
-x,-y,z
1/2-x,y,1/2+z
1/2+x,-y,1/2+z
x,1/2+y,1/2+z
-x,1/2-y,1/2+z
1/2-x,1/2+y,z
1/2+x,1/2-y,z
loop_
_atom_site_type_symbol
_atom_site_label
_atom_site_fract_x
_atom_site_fract_y
_atom_site_fract_z
Si Si1 0.294021 0.994327 0.371280
Si Si2 0.501958 0.413116 0.595891
Si Si3 0.177354 0.625004 0.940175
Si Si4 0.787239 0.611621 0.634824
Si Si5 0.643047 0.175416 0.934155
Si Si6 0.045658 0.571669 0.420582
Si Si7 0.151847 0.677521 0.603124
O O1 0.212002 0.044869 0.392693
O O2 0.369673 0.046596 0.328711
O O3 0.274801 0.934028 0.245614
O O4 0.323482 0.952061 0.526791
O O5 0.500000 0.500000 0.586379
O O6 0.589472 0.382998 0.528410
O O7 0.426011 0.379889 0.497554
O O8 0.492540 0.392981 0.780420
O O9 0.162596 0.675994 0.789414
O O10 0.255930 0.654774 0.039636
O O11 0.731908 0.658895 0.518485
O O12 0.844092 0.659669 0.749759
O O13 0.623074 0.253670 0.002569
O O14 0.080893 0.618931 0.559719
O O15 0.000000 0.500000 0.475124
#
# Coordination Sequence:
#
# PCOD9365812 Si02
#       7
#     8   8   8   8   8   8   8
#     4  10  18  35  61  88 115 157 208 262 316 377
#     4  11  23  40  64  94 127 162 210 275 332 379
#     4  11  22  39  64  91 125 166 216 268 321 389
#     4  10  20  36  60  87 121 160 207 255 313 385
#     4  11  24  41  62  91 129 171 212 263 325 396
#     4  10  21  38  60  86 120 158 205 266 323 378
#     4  11  24  41  62  89 127 176 218 257 325 402
#
# _framework density 22.199946000000001
#
# number of rings (size 3 to 8) (size 9 to 14) (size 15 to 20)
#    0.000    1.429    0.000    8.571    0.000    2.857 
#    0.000    2.857    0.000    0.000    0.000    0.000 
#    0.000    0.000    0.000    0.000    0.000    0.000 
#
# Total GULP energy -156337.197702 kJ/mol
# GULP energy per Si atom -5583.471346 kJ/mol
# Density = 2.214942 g / cm^3
# Si number density = 22.199946 Si / 1000 Ang^3
#
#
#
# Elastic Constant Matrix: (Units=GPa)
#
#
# Indices 1 2 3 4 5 6 
#
# 1 65.3672 4.8988 14.1076 0.0000 0.0000 0.0000
# 2 4.8988 47.1695 5.2780 0.0000 0.0000 0.0000
# 3 14.1076 5.2780 93.9284 0.0000 0.0000 0.0000
# 4 0.0000 0.0000 0.0000 28.7514 0.0000 0.0000
# 5 0.0000 0.0000 0.0000 0.0000 31.5287 0.0000
# 6 0.0000 0.0000 0.0000 0.0000 0.0000 21.0125
#
#
#
# Elastic Compliance Matrix: (Units=1/GPa)
#
#
# Indices 1 2 3 4 5 6 
#
# 1 0.015901 -0.001393 -0.002310 0.000000 0.000000 0.000000
# 2 -0.001393 0.021456 -0.000996 0.000000 0.000000 0.000000
# 3 -0.002310 -0.000996 0.011049 0.000000 0.000000 0.000000
# 4 0.000000 0.000000 0.000000 0.034781 0.000000 0.000000
# 5 0.000000 0.000000 0.000000 0.000000 0.031717 0.000000
# 6 0.000000 0.000000 0.000000 0.000000 0.000000 0.047591
#
#
# Mechanical properties :
#
#
# Convention : Reuss Voigt Hill
#
# Bulk Modulus (GPa) = 25.63578 28.33711 26.98645
# Shear Modulus (GPa) = 27.04209 28.40391 27.72300
#
# Velocity S-wave (km/s) = 3.49394 3.58083 3.53765
# Velocity P-wave (km/s) = 5.27727 5.46705 5.37300
#
# Compressibility (1/GPa) = 0.03900798
#
# Stress axis : x y z
#
# Youngs Moduli (GPa) = 62.88860 46.60638 90.50308
#
# Poissons Ratio (x) = 0.06492 0.20906
# Poissons Ratio (y) = 0.08760 0.09018
# Poissons Ratio (z) = 0.14527 0.04644
#
# Static dielectric constant tensor:
#      x y z
#    x 1.866430 0.000000 0.000000 
#    y 0.000000 1.865180 0.000000 
#    z 0.000000 0.000000 1.848250 
# 
# From -- ./inp_files/2686.got.cif
#   From: 2010.05.17/outbox.cif.g08.bks.cpg/sg41_2_cif.got.tgz:2686.got - 2010.06.03 18:54:24.
