data_PCOD9365381
_publ_section_title
;
Structure prediction by ZEFSAII (Michael W. Deem and Ramdas Pophale) SiO2 
 PCOD9365381
Probable space group: A M A 2
;
_chemical_formula_sum "Si O2"
_cell_formula_units_Z 48
_cell_length_a 14.881267
_cell_length_b 13.643047
_cell_length_c 11.420107
_cell_angle_alpha 90.000000
_cell_angle_beta 90.000000
_cell_angle_gamma 90.000000
_cell_volume 2318.576646
_symmetry_space_group_name_H-M "A M A 2"
_symmetry_group_IT_number 40
_symmetry_cell_setting 'orthorhombic'
loop_
_space_group_symop_operation_xyz
x,y,z
-x,-y,z
1/2-x,y,z
1/2+x,-y,z
x,1/2+y,1/2+z
-x,1/2-y,1/2+z
1/2-x,1/2+y,1/2+z
1/2+x,1/2-y,1/2+z
loop_
_atom_site_type_symbol
_atom_site_label
_atom_site_fract_x
_atom_site_fract_y
_atom_site_fract_z
Si Si1 0.250000 0.698726 0.535600
Si Si2 0.750000 0.032363 0.957478
Si Si3 0.081653 0.874937 0.079341
Si Si4 0.646028 0.330573 0.176203
Si Si5 0.500000 0.000000 0.278763
Si Si6 0.750000 0.235280 0.812485
Si Si7 0.405353 0.634323 0.931150
Si Si8 0.936260 0.283288 0.419041
O O1 0.250000 0.586691 0.479830
O O2 0.250000 0.728185 0.675425
O O3 0.157225 0.739236 0.483026
O O4 0.750000 0.116880 0.848163
O O5 0.842058 0.059903 0.022071
O O6 0.131357 0.775972 0.118545
O O7 0.036974 0.917540 0.193838
O O8 0.999504 0.856605 0.991482
O O9 0.750000 0.347915 0.205481
O O10 0.586536 0.328811 0.292499
O O11 0.617120 0.394515 0.064499
O O12 0.416773 0.038759 0.353634
O O13 0.665197 0.288924 0.874987
O O14 0.501949 0.686893 0.920339
#
# Coordination Sequence:
#
# PCOD9365381 Si02
#       8
#     4   4   8   8   4   4   8   8
#     4  12  28  40  67 104 137 180 239 291 350 432
#     4  12  22  41  68 103 134 181 231 285 361 416
#     4  11  21  38  65  99 129 171 227 281 338 409
#     4  11  20  42  67  87 132 184 219 266 351 426
#     4  12  24  40  66 106 134 172 242 292 332 434
#     4  12  22  45  67 101 145 177 228 300 351 420
#     4  11  23  41  68 100 132 183 229 283 359 412
#     4  11  23  42  65  95 138 180 222 281 353 420
#
# _framework density 20.702356999999999
#
# number of rings (size 3 to 8) (size 9 to 14) (size 15 to 20)
#    0.000    0.667    7.500    3.000    2.333    0.000 
#    0.000    5.000    0.000    0.000    0.000    0.000 
#    0.000    0.000    0.000    0.000    0.000    0.000 
#
# Total GULP energy -133727.582818 kJ/mol
# GULP energy per Si atom -5571.982617 kJ/mol
# Density = 2.065524 g / cm^3
# Si number density = 20.702357 Si / 1000 Ang^3
#
#
#
# Elastic Constant Matrix: (Units=GPa)
#
#
# Indices 1 2 3 4 5 6 
#
# 1 125.5425 2.3654 43.8238 0.0000 0.0000 0.0000
# 2 2.3654 35.1574 19.0691 0.0000 0.0000 0.0000
# 3 43.8238 19.0691 161.7570 0.0000 0.0000 0.0000
# 4 0.0000 0.0000 0.0000 -8.0689 0.0000 0.0000
# 5 0.0000 0.0000 0.0000 0.0000 38.5754 0.0000
# 6 0.0000 0.0000 0.0000 0.0000 0.0000 16.8976
#
#
#
# Elastic Compliance Matrix: (Units=1/GPa)
#
#
# Indices 1 2 3 4 5 6 
#
# 1 0.008816 0.000750 -0.002477 0.000000 0.000000 0.000000
# 2 0.000750 0.030450 -0.003793 0.000000 0.000000 0.000000
# 3 -0.002477 -0.003793 0.007300 0.000000 0.000000 0.000000
# 4 0.000000 0.000000 0.000000 -0.123932 0.000000 0.000000
# 5 0.000000 0.000000 0.000000 0.000000 0.025923 0.000000
# 6 0.000000 0.000000 0.000000 0.000000 0.000000 0.059180
#
#
# Mechanical properties :
#
#
# Convention : Reuss Voigt Hill
#
# Bulk Modulus (GPa) = 28.14728 50.33039 39.23884
# Shear Modulus (GPa) = 163.29700 26.62739 94.96220
#
# Velocity S-wave (km/s) = 8.89099 3.59025 6.78010
# Velocity P-wave (km/s) = 10.90987 6.44599 8.96036
#
# Compressibility (1/GPa) = 0.03552741
#
# Stress axis : x y z
#
# Youngs Moduli (GPa) = 113.43125 32.84039 136.98051
#
# Poissons Ratio (x) = -0.02464 0.33929
# Poissons Ratio (y) = -0.08511 0.51957
# Poissons Ratio (z) = 0.28096 0.12456
#
# Static dielectric constant tensor:
#      x y z
#    x 1.779830 0.000000 0.000000 
#    y 0.000000 1.848050 0.000000 
#    z 0.000000 0.000000 1.777380 
# 
# From -- ./inp_files/12201.got.cif
#   From: 2010.05.17/outbox.cif.g08.bks.cpg/sg40_7_cif.got.tgz:12201.got - 2010.06.03 18:35:42.
