data_PCOD9365878
_publ_section_title
;
Structure prediction by ZEFSAII (Michael W. Deem and Ramdas Pophale) SiO2 
 PCOD9365878
Probable space group: A B A 2
;
_chemical_formula_sum "Si O2"
_cell_formula_units_Z 48
_cell_length_a 5.287677
_cell_length_b 14.131995
_cell_length_c 27.839810
_cell_angle_alpha 90.000000
_cell_angle_beta 90.000000
_cell_angle_gamma 90.000000
_cell_volume 2080.341632
_symmetry_space_group_name_H-M "A B A 2"
_symmetry_group_IT_number 41
_symmetry_cell_setting 'orthorhombic'
loop_
_space_group_symop_operation_xyz
x,y,z
-x,-y,z
1/2-x,y,1/2+z
1/2+x,-y,1/2+z
x,1/2+y,1/2+z
-x,1/2-y,1/2+z
1/2-x,1/2+y,z
1/2+x,1/2-y,z
loop_
_atom_site_type_symbol
_atom_site_label
_atom_site_fract_x
_atom_site_fract_y
_atom_site_fract_z
Si Si1 0.716527 0.357081 0.438640
Si Si2 0.779483 0.645094 0.481218
Si Si3 0.038105 0.885455 0.784892
Si Si4 0.747255 0.065702 0.581877
Si Si5 0.962989 0.885908 0.331842
Si Si6 0.750697 0.065196 0.688492
O O1 0.475060 0.401846 0.463304
O O2 0.729372 0.250926 0.460040
O O3 0.660365 0.359024 0.382451
O O4 0.977219 0.399549 0.456433
O O5 0.774452 0.639482 0.538509
O O6 0.248900 0.852056 0.823320
O O7 0.177409 0.870205 0.733866
O O8 0.749358 0.853546 0.793090
O O9 0.000000 0.000000 0.789258
O O10 0.730289 0.109359 0.635498
O O11 0.500000 0.000000 0.577498
O O12 0.000000 0.000000 0.577734
O O13 0.000000 0.000000 0.330046
O O14 0.500000 0.000000 0.697641
O O15 0.000000 0.000000 0.684752
#
# Coordination Sequence:
#
# PCOD9365878 Si02
#       6
#     8   8   8   8   8   8
#     4  10  21  36  53  73 100 144 186 218 263 315
#     4  10  21  37  53  73 101 141 183 220 266 316
#     4   9  16  28  46  72 107 137 162 204 259 312
#     4  10  20  33  53  81 108 135 173 222 266 310
#     4  10  19  30  48  76 105 134 173 216 252 298
#     4   9  16  28  47  73 107 139 164 202 262 321
#
# _framework density 23.073135000000001
#
# number of rings (size 3 to 8) (size 9 to 14) (size 15 to 20)
#    0.000    2.333    0.000    4.500    0.000    2.000 
#    0.000    0.000    0.000    0.000    0.000   28.000 
#    0.000    0.000    0.000    0.000    0.000    1.000 
#
# Total GULP energy -133828.035120 kJ/mol
# GULP energy per Si atom -5576.168130 kJ/mol
# Density = 2.302062 g / cm^3
# Si number density = 23.073135 Si / 1000 Ang^3
#
#
#
# Elastic Constant Matrix: (Units=GPa)
#
#
# Indices 1 2 3 4 5 6 
#
# 1 227.5343 12.1084 77.6770 0.0000 0.0000 0.0000
# 2 12.1084 91.2734 11.6030 0.0000 0.0000 0.0000
# 3 77.6770 11.6030 181.3467 0.0000 0.0000 0.0000
# 4 0.0000 0.0000 0.0000 28.9761 0.0000 0.0000
# 5 0.0000 0.0000 0.0000 0.0000 40.3141 0.0000
# 6 0.0000 0.0000 0.0000 0.0000 0.0000 -36.5494
#
#
#
# Elastic Compliance Matrix: (Units=1/GPa)
#
#
# Indices 1 2 3 4 5 6 
#
# 1 0.005163 -0.000407 -0.002185 0.000000 0.000000 0.000000
# 2 -0.000407 0.011078 -0.000534 0.000000 0.000000 0.000000
# 3 -0.002185 -0.000534 0.006485 0.000000 0.000000 0.000000
# 4 0.000000 0.000000 0.000000 0.034511 0.000000 0.000000
# 5 0.000000 0.000000 0.000000 0.000000 0.024805 0.000000
# 6 0.000000 0.000000 0.000000 0.000000 0.000000 -0.027360
#
#
# Mechanical properties :
#
#
# Convention : Reuss Voigt Hill
#
# Bulk Modulus (GPa) = 60.71054 78.10344 69.40699
# Shear Modulus (GPa) = 75.27224 33.13255 54.20239
#
# Velocity S-wave (km/s) = 5.71788 3.79354 4.85207
# Velocity P-wave (km/s) = 8.36430 7.28779 7.84453
#
# Compressibility (1/GPa) = 0.01647161
#
# Stress axis : x y z
#
# Youngs Moduli (GPa) = 193.69971 90.26870 154.21327
#
# Poissons Ratio (x) = 0.03675 0.33700
# Poissons Ratio (y) = 0.07885 0.08242
# Poissons Ratio (z) = 0.42329 0.04824
#
# Static dielectric constant tensor:
#      x y z
#    x 1.908580 0.000000 0.000000 
#    y 0.000000 1.845340 0.000000 
#    z 0.000000 0.000000 1.919590 
# 
# From -- ./inp_files/12385.got.cif
#   From: 2010.05.17/outbox.cif.g08.bks.cpg/sg41_7_cif.got.tgz:12385.got - 2010.06.03 18:54:24.
