data_PCOD9365789
_publ_section_title
;
Structure prediction by ZEFSAII (Michael W. Deem and Ramdas Pophale) SiO2 
 PCOD9365789
Probable space group: A B A 2
;
_chemical_formula_sum "Si O2"
_cell_formula_units_Z 52
_cell_length_a 13.697585
_cell_length_b 17.645338
_cell_length_c 8.891819
_cell_angle_alpha 90.000000
_cell_angle_beta 90.000000
_cell_angle_gamma 90.000000
_cell_volume 2149.139467
_symmetry_space_group_name_H-M "A B A 2"
_symmetry_group_IT_number 41
_symmetry_cell_setting 'orthorhombic'
loop_
_space_group_symop_operation_xyz
x,y,z
-x,-y,z
1/2-x,y,1/2+z
1/2+x,-y,1/2+z
x,1/2+y,1/2+z
-x,1/2-y,1/2+z
1/2-x,1/2+y,z
1/2+x,1/2-y,z
loop_
_atom_site_type_symbol
_atom_site_label
_atom_site_fract_x
_atom_site_fract_y
_atom_site_fract_z
Si Si1 0.632200 0.894444 0.549940
Si Si2 0.610993 0.714559 0.588105
Si Si3 0.618936 0.821313 0.110396
Si Si4 0.301326 0.027093 0.835866
Si Si5 0.254133 0.762899 0.355666
Si Si6 0.500000 0.000000 0.371431
Si Si7 0.145697 0.496260 0.132104
O O1 0.619791 0.804861 0.552867
O O2 0.643950 0.915739 0.725611
O O3 0.718615 0.931657 0.442793
O O4 0.540580 0.935381 0.477826
O O5 0.496544 0.694852 0.593694
O O6 0.667275 0.700334 0.743772
O O7 0.684362 0.684444 0.458151
O O8 0.677531 0.782188 0.247849
O O9 0.630945 0.911557 0.136645
O O10 0.678430 0.788630 0.966845
O O11 0.248477 0.977485 0.708826
O O12 0.364684 0.982085 0.956637
O O13 0.427011 0.962811 0.252122
#
# Coordination Sequence:
#
# PCOD9365789 Si02
#       7
#     8   8   8   8   8   4   8
#     4  10  18  33  53  79 103 135 181 228 277 325
#     4  11  20  33  56  81 111 146 184 232 285 330
#     4  11  20  33  56  81 111 146 184 232 285 330
#     4   9  17  32  57  76  98 133 185 240 267 302
#     4  10  20  33  52  84 111 140 190 236 272 328
#     4  10  22  32  50  76 110 138 170 226 274 330
#     4  10  18  33  53  79 103 135 181 228 277 325
#
# _framework density 24.195730000000001
#
# number of rings (size 3 to 8) (size 9 to 14) (size 15 to 20)
#    0.000    1.846    0.000    9.231    0.000    0.615 
#    0.000    0.000    0.000   29.538    0.000    0.000 
#    0.000    0.000    0.000    0.000    0.000    0.000 
#
# Total GULP energy -144969.182356 kJ/mol
# GULP energy per Si atom -5575.737783 kJ/mol
# Density = 2.414066 g / cm^3
# Si number density = 24.195730 Si / 1000 Ang^3
#
#
#
# Elastic Constant Matrix: (Units=GPa)
#
#
# Indices 1 2 3 4 5 6 
#
# 1 154.3563 20.7564 68.3363 0.0000 0.0000 0.0000
# 2 20.7564 83.5885 33.3890 0.0000 0.0000 0.0000
# 3 68.3363 33.3890 212.9526 0.0000 0.0000 0.0000
# 4 0.0000 0.0000 0.0000 -1.7496 0.0000 0.0000
# 5 0.0000 0.0000 0.0000 0.0000 31.3117 0.0000
# 6 0.0000 0.0000 0.0000 0.0000 0.0000 24.3841
#
#
#
# Elastic Compliance Matrix: (Units=1/GPa)
#
#
# Indices 1 2 3 4 5 6 
#
# 1 0.007625 -0.000977 -0.002294 0.000000 0.000000 0.000000
# 2 -0.000977 0.012888 -0.001707 0.000000 0.000000 0.000000
# 3 -0.002294 -0.001707 0.005700 0.000000 0.000000 0.000000
# 4 0.000000 0.000000 0.000000 -0.571571 0.000000 0.000000
# 5 0.000000 0.000000 0.000000 0.000000 0.031937 0.000000
# 6 0.000000 0.000000 0.000000 0.000000 0.000000 0.041010
#
#
# Mechanical properties :
#
#
# Convention : Reuss Voigt Hill
#
# Bulk Modulus (GPa) = 61.51320 77.31786 69.41553
# Shear Modulus (GPa) = -10.94006 32.68363 10.87179
#
# Velocity S-wave (km/s) = -2.12869 3.67931 2.12203
# Velocity P-wave (km/s) = 4.40870 7.07632 5.89538
#
# Compressibility (1/GPa) = 0.01625667
#
# Stress axis : x y z
#
# Youngs Moduli (GPa) = 131.14029 77.59189 175.45077
#
# Poissons Ratio (x) = 0.07583 0.40244
# Poissons Ratio (y) = 0.12816 0.29951
# Poissons Ratio (z) = 0.30080 0.13246
#
# Static dielectric constant tensor:
#      x y z
#    x 2.089310 0.000000 0.000000 
#    y 0.000000 1.995710 0.000000 
#    z 0.000000 0.000000 1.987050 
# 
# From -- ./inp_files/2650.got.cif
#   From: 2010.05.17/outbox.cif.g08.bks.cpg/sg41_2_cif.got.tgz:2650.got - 2010.06.03 18:54:24.
