data_PCOD9365933
_publ_section_title
;
Structure prediction by ZEFSAII (Michael W. Deem and Ramdas Pophale) SiO2 
 PCOD9365933
Probable space group: A B A 2
;
_chemical_formula_sum "Si O2"
_cell_formula_units_Z 52
_cell_length_a 15.790518
_cell_length_b 17.305232
_cell_length_c 8.197329
_cell_angle_alpha 90.000000
_cell_angle_beta 90.000000
_cell_angle_gamma 90.000000
_cell_volume 2239.990461
_symmetry_space_group_name_H-M "A B A 2"
_symmetry_group_IT_number 41
_symmetry_cell_setting 'orthorhombic'
loop_
_space_group_symop_operation_xyz
x,y,z
-x,-y,z
1/2-x,y,1/2+z
1/2+x,-y,1/2+z
x,1/2+y,1/2+z
-x,1/2-y,1/2+z
1/2-x,1/2+y,z
1/2+x,1/2-y,z
loop_
_atom_site_type_symbol
_atom_site_label
_atom_site_fract_x
_atom_site_fract_y
_atom_site_fract_z
Si Si1 0.762387 0.419856 0.308810
Si Si2 0.922428 0.873835 0.961143
Si Si3 0.669925 0.252365 0.311932
Si Si4 0.000000 0.500000 0.239713
Si Si5 0.368706 0.528737 0.506202
Si Si6 0.481642 0.652738 0.330186
Si Si7 0.847368 0.210736 0.440349
O O1 0.710494 0.339275 0.303035
O O2 0.695907 0.486699 0.359018
O O3 0.833973 0.420458 0.450179
O O4 0.811998 0.426348 0.140203
O O5 0.981714 0.925686 0.849828
O O6 0.889335 0.793129 0.887246
O O7 0.961185 0.860106 0.138935
O O8 0.576056 0.271852 0.383382
O O9 0.748365 0.206154 0.391727
O O10 0.653613 0.216135 0.135557
O O11 0.920594 0.524635 0.127569
O O12 0.440105 0.582996 0.428928
O O13 0.581398 0.655315 0.366147
#
# Coordination Sequence:
#
# PCOD9365933 Si02
#       7
#     8   8   8   4   8   8   8
#     4   9  16  32  56  81 107 137 189 245 279 319
#     4   9  20  36  56  82 110 145 189 242 293 337
#     4   9  18  32  52  83 112 143 185 232 279 329
#     4  10  22  36  56  80 110 146 188 242 292 348
#     4  10  19  34  58  85 109 142 188 239 291 341
#     4  10  20  35  59  87 116 150 192 241 293 347
#     4  10  20  34  57  86 115 146 187 237 289 344
#
# _framework density 23.214385
#
# number of rings (size 3 to 8) (size 9 to 14) (size 15 to 20)
#    0.000    2.462    0.000    4.615    0.000   10.462 
#    0.000    0.000    0.000   18.462    0.000    0.000 
#    0.000    0.000    0.000    0.000    0.000    0.000 
#
# Total GULP energy -144743.077280 kJ/mol
# GULP energy per Si atom -5567.041434 kJ/mol
# Density = 2.316155 g / cm^3
# Si number density = 23.214385 Si / 1000 Ang^3
#
#
#
# Elastic Constant Matrix: (Units=GPa)
#
#
# Indices 1 2 3 4 5 6 
#
# 1 93.2731 9.9605 21.3704 0.0000 0.0000 0.0000
# 2 9.9605 22.6504 17.5966 0.0000 0.0000 0.0000
# 3 21.3704 17.5966 74.9853 0.0000 0.0000 0.0000
# 4 0.0000 0.0000 0.0000 18.4075 0.0000 0.0000
# 5 0.0000 0.0000 0.0000 0.0000 28.3459 0.0000
# 6 0.0000 0.0000 0.0000 0.0000 0.0000 38.2828
#
#
#
# Elastic Compliance Matrix: (Units=1/GPa)
#
#
# Indices 1 2 3 4 5 6 
#
# 1 0.011647 -0.003110 -0.002589 0.000000 0.000000 0.000000
# 2 -0.003110 0.054823 -0.011979 0.000000 0.000000 0.000000
# 3 -0.002589 -0.011979 0.016885 0.000000 0.000000 0.000000
# 4 0.000000 0.000000 0.000000 0.054326 0.000000 0.000000
# 5 0.000000 0.000000 0.000000 0.000000 0.035278 0.000000
# 6 0.000000 0.000000 0.000000 0.000000 0.000000 0.026121
#
#
# Mechanical properties :
#
#
# Convention : Reuss Voigt Hill
#
# Bulk Modulus (GPa) = 20.83411 32.08485 26.45948
# Shear Modulus (GPa) = 19.96519 26.47266 23.21892
#
# Velocity S-wave (km/s) = 2.93582 3.38058 3.16602
# Velocity P-wave (km/s) = 4.52616 5.39341 4.97871
#
# Compressibility (1/GPa) = 0.04799821
#
# Stress axis : x y z
#
# Youngs Moduli (GPa) = 85.86203 18.24050 59.22426
#
# Poissons Ratio (x) = 0.05673 0.15336
# Poissons Ratio (y) = 0.26702 0.70944
# Poissons Ratio (z) = 0.22233 0.21850
#
# Static dielectric constant tensor:
#      x y z
#    x 1.970620 0.000000 0.000000 
#    y 0.000000 2.016100 0.000000 
#    z 0.000000 0.000000 1.882620 
# 
# From -- ./inp_files/2734.got.cif
#   From: 2010.05.17/outbox.cif.g08.bks.cpg/sg41_2_cif.got.tgz:2734.got - 2010.06.03 18:54:24.
