data_PCOD9365744
_publ_section_title
;
Structure prediction by ZEFSAII (Michael W. Deem and Ramdas Pophale) SiO2 
 PCOD9365744
Probable space group: A B A 2
;
_chemical_formula_sum "Si O2"
_cell_formula_units_Z 64
_cell_length_a 8.915571
_cell_length_b 22.322959
_cell_length_c 16.557498
_cell_angle_alpha 90.000000
_cell_angle_beta 90.000000
_cell_angle_gamma 90.000000
_cell_volume 3295.305140
_symmetry_space_group_name_H-M "A B A 2"
_symmetry_group_IT_number 41
_symmetry_cell_setting 'orthorhombic'
loop_
_space_group_symop_operation_xyz
x,y,z
-x,-y,z
1/2-x,y,1/2+z
1/2+x,-y,1/2+z
x,1/2+y,1/2+z
-x,1/2-y,1/2+z
1/2-x,1/2+y,z
1/2+x,1/2-y,z
loop_
_atom_site_type_symbol
_atom_site_label
_atom_site_fract_x
_atom_site_fract_y
_atom_site_fract_z
Si Si1 0.253074 0.637494 0.603560
Si Si2 0.942310 0.129625 0.665293
Si Si3 0.914601 0.268493 0.703799
Si Si4 0.349636 0.856307 0.736830
Si Si5 0.092245 0.560915 0.317404
Si Si6 0.605111 0.445110 0.228900
Si Si7 0.305833 0.274714 0.868741
Si Si8 0.909411 0.327537 0.439265
O O1 0.431023 0.624057 0.595920
O O2 0.219266 0.691853 0.666771
O O3 0.177020 0.581272 0.647544
O O4 0.163301 0.655834 0.524448
O O5 0.922829 0.201167 0.672919
O O6 0.768726 0.110299 0.677818
O O7 0.020660 0.096181 0.740767
O O8 0.896487 0.261959 0.800041
O O9 0.068764 0.303199 0.687944
O O10 0.488950 0.896385 0.763331
O O11 0.268325 0.827661 0.814651
O O12 0.259784 0.543068 0.290280
O O13 0.096682 0.611978 0.385699
O O14 0.000000 0.500000 0.335203
O O15 0.500000 0.500000 0.210721
O O16 0.420004 0.303104 0.933292
O O17 0.189240 0.227541 0.904565
#
# Coordination Sequence:
#
# PCOD9365744 Si02
#       8
#     8   8   8   8   8   8   8   8
#     4  10  24  36  56  90 128 166 199 261 329 392
#     4  10  18  35  57  86 117 155 213 251 309 372
#     4  10  18  35  58  85 116 160 208 256 307 373
#     4  10  17  32  61  86 113 154 212 268 308 362
#     4  11  22  39  67  93 120 167 219 273 313 385
#     4  10  22  40  65  88 118 160 228 270 311 374
#     4  11  21  37  61  85 128 165 210 263 318 386
#     4  12  24  40  58  96 135 168 205 260 341 392
#
# _framework density 19.421571
#
# number of rings (size 3 to 8) (size 9 to 14) (size 15 to 20)
#    0.000    1.500    3.750    4.500    1.750    0.500 
#    0.000    0.000    0.000    3.000    0.000    0.000 
#    0.000    0.000    0.000    0.000    0.000    0.000 
#
# Total GULP energy -178235.087460 kJ/mol
# GULP energy per Si atom -5569.846483 kJ/mol
# Density = 1.937737 g / cm^3
# Si number density = 19.421571 Si / 1000 Ang^3
#
#
#
# Elastic Constant Matrix: (Units=GPa)
#
#
# Indices 1 2 3 4 5 6 
#
# 1 136.9676 32.4923 17.5962 0.0000 0.0000 0.0000
# 2 32.4923 83.8480 9.4438 0.0000 0.0000 0.0000
# 3 17.5962 9.4438 42.2984 0.0000 0.0000 0.0000
# 4 0.0000 0.0000 0.0000 9.3204 0.0000 0.0000
# 5 0.0000 0.0000 0.0000 0.0000 15.2560 0.0000
# 6 0.0000 0.0000 0.0000 0.0000 0.0000 37.0118
#
#
#
# Elastic Compliance Matrix: (Units=1/GPa)
#
#
# Indices 1 2 3 4 5 6 
#
# 1 0.008357 -0.002920 -0.002824 0.000000 0.000000 0.000000
# 2 -0.002920 0.013254 -0.001744 0.000000 0.000000 0.000000
# 3 -0.002824 -0.001744 0.025206 0.000000 0.000000 0.000000
# 4 0.000000 0.000000 0.000000 0.107291 0.000000 0.000000
# 5 0.000000 0.000000 0.000000 0.000000 0.065548 0.000000
# 6 0.000000 0.000000 0.000000 0.000000 0.000000 0.027018
#
#
# Mechanical properties :
#
#
# Convention : Reuss Voigt Hill
#
# Bulk Modulus (GPa) = 31.40809 42.46431 36.93620
# Shear Modulus (GPa) = 18.36442 25.88976 22.12709
#
# Velocity S-wave (km/s) = 3.07835 3.65505 3.37902
# Velocity P-wave (km/s) = 5.37046 6.30273 5.85518
#
# Compressibility (1/GPa) = 0.03183893
#
# Stress axis : x y z
#
# Youngs Moduli (GPa) = 119.66601 75.44643 39.67314
#
# Poissons Ratio (x) = 0.22032 0.11205
# Poissons Ratio (y) = 0.34945 0.06921
# Poissons Ratio (z) = 0.33798 0.13161
#
# Static dielectric constant tensor:
#      x y z
#    x 1.769720 0.000000 0.000000 
#    y 0.000000 1.725940 0.000000 
#    z 0.000000 0.000000 1.670670 
# 
# From -- ./inp_files/7585.got.cif
#   From: 2010.05.17/outbox.cif.g08.bks.cpg/sg41_4_cif.got.tgz:7585.got - 2010.06.03 18:54:24.
