data_PCOD9365294
_publ_section_title
;
Structure prediction by ZEFSAII (Michael W. Deem and Ramdas Pophale) SiO2 
 PCOD9365294
Probable space group: A M A 2
;
_chemical_formula_sum "Si O2"
_cell_formula_units_Z 48
_cell_length_a 23.518168
_cell_length_b 6.644432
_cell_length_c 12.275384
_cell_angle_alpha 90.000000
_cell_angle_beta 90.000000
_cell_angle_gamma 90.000000
_cell_volume 1918.211261
_symmetry_space_group_name_H-M "A M A 2"
_symmetry_group_IT_number 40
_symmetry_cell_setting 'orthorhombic'
loop_
_space_group_symop_operation_xyz
x,y,z
-x,-y,z
1/2-x,y,z
1/2+x,-y,z
x,1/2+y,1/2+z
-x,1/2-y,1/2+z
1/2-x,1/2+y,1/2+z
1/2+x,1/2-y,1/2+z
loop_
_atom_site_type_symbol
_atom_site_label
_atom_site_fract_x
_atom_site_fract_y
_atom_site_fract_z
Si Si1 0.750000 0.354324 0.985020
Si Si2 0.513856 0.765875 0.884053
Si Si3 0.500000 0.500000 0.685041
Si Si4 0.581919 0.234105 0.041572
Si Si5 0.836237 0.982154 0.671931
Si Si6 0.861211 0.378138 0.412436
Si Si7 0.750000 0.914360 0.017522
Si Si8 0.750000 0.327819 0.743812
O O1 0.750000 0.434617 0.860877
O O2 0.800205 0.402126 0.069011
O O3 0.750000 0.119586 0.951173
O O4 0.495272 0.683578 0.767637
O O5 0.580604 0.750663 0.911337
O O6 0.500000 0.000000 0.883544
O O7 0.469721 0.682263 0.971011
O O8 0.554906 0.553328 0.614347
O O9 0.603496 0.414383 0.119311
O O10 0.622609 0.103329 0.959098
O O11 0.838930 0.872577 0.788855
O O12 0.805418 0.188637 0.713648
O O13 0.808524 0.306321 0.486109
O O14 0.750000 0.980671 0.142804
#
# Coordination Sequence:
#
# PCOD9365294 Si02
#       8
#     4   8   4   8   8   8   4   4
#     4  11  22  45  63  93 134 177 220 286 344 401
#     4  10  24  44  67 102 141 179 230 292 349 422
#     4  12  22  44  70  98 134 186 230 278 356 426
#     4  11  22  43  67  99 138 177 229 292 352 415
#     4  11  21  43  71  90 135 183 219 286 348 409
#     4  11  21  44  69  92 135 180 220 286 354 403
#     4  12  23  42  69  95 130 184 221 279 348 409
#     4  11  25  43  62 102 136 171 239 279 346 424
#
# _framework density 25.023313000000002
#
# number of rings (size 3 to 8) (size 9 to 14) (size 15 to 20)
#    0.000    1.000    7.500    0.500    0.000    1.333 
#   16.500    0.000    0.000    0.000    0.000    0.000 
#    0.000    0.000    0.000    0.000    0.000    0.000 
#
# Total GULP energy -133717.244334 kJ/mol
# GULP energy per Si atom -5571.551847 kJ/mol
# Density = 2.496636 g / cm^3
# Si number density = 25.023313 Si / 1000 Ang^3
#
#
#
# Elastic Constant Matrix: (Units=GPa)
#
#
# Indices 1 2 3 4 5 6 
#
# 1 124.0416 20.8821 64.8513 0.0000 0.0000 0.0000
# 2 20.8821 68.5580 13.3267 0.0000 0.0000 0.0000
# 3 64.8513 13.3267 212.6265 0.0000 0.0000 0.0000
# 4 0.0000 0.0000 0.0000 38.6229 0.0000 0.0000
# 5 0.0000 0.0000 0.0000 0.0000 46.7692 0.0000
# 6 0.0000 0.0000 0.0000 0.0000 0.0000 -5.0627
#
#
#
# Elastic Compliance Matrix: (Units=1/GPa)
#
#
# Indices 1 2 3 4 5 6 
#
# 1 0.009991 -0.002481 -0.002892 0.000000 0.000000 0.000000
# 2 -0.002481 0.015382 -0.000207 0.000000 0.000000 0.000000
# 3 -0.002892 -0.000207 0.005598 0.000000 0.000000 0.000000
# 4 0.000000 0.000000 0.000000 0.025891 0.000000 0.000000
# 5 0.000000 0.000000 0.000000 0.000000 0.021382 0.000000
# 6 0.000000 0.000000 0.000000 0.000000 0.000000 -0.197523
#
#
# Mechanical properties :
#
#
# Convention : Reuss Voigt Hill
#
# Bulk Modulus (GPa) = 50.47701 67.03848 58.75774
# Shear Modulus (GPa) = -49.25445 36.47694 -6.38876
#
# Velocity S-wave (km/s) = -4.44141 3.82215 -1.59958
# Velocity P-wave (km/s) = 2.46693 6.80639 4.48560
#
# Compressibility (1/GPa) = 0.01981100
#
# Stress axis : x y z
#
# Youngs Moduli (GPa) = 100.08569 65.01004 178.63179
#
# Poissons Ratio (x) = 0.16130 0.51658
# Poissons Ratio (y) = 0.24833 0.03704
# Poissons Ratio (z) = 0.28944 0.01348
#
# Static dielectric constant tensor:
#      x y z
#    x 2.192620 0.000000 0.000000 
#    y 0.000000 2.041010 0.000000 
#    z 0.000000 0.000000 1.947670 
# 
# From -- ./inp_files/14165.got.cif
#   From: 2010.05.17/outbox.cif.g08.bks.cpg/sg40_8_cif.got.tgz:14165.got - 2010.06.03 18:35:42.
