data_PCOD9365845
_publ_section_title
;
Structure prediction by ZEFSAII (Michael W. Deem and Ramdas Pophale) SiO2 
 PCOD9365845
Probable space group: A B A 2
;
_chemical_formula_sum "Si O2"
_cell_formula_units_Z 32
_cell_length_a 22.823995
_cell_length_b 14.121118
_cell_length_c 4.909842
_cell_angle_alpha 90.000000
_cell_angle_beta 90.000000
_cell_angle_gamma 90.000000
_cell_volume 1582.443680
_symmetry_space_group_name_H-M "A B A 2"
_symmetry_group_IT_number 41
_symmetry_cell_setting 'orthorhombic'
loop_
_space_group_symop_operation_xyz
x,y,z
-x,-y,z
1/2-x,y,1/2+z
1/2+x,-y,1/2+z
x,1/2+y,1/2+z
-x,1/2-y,1/2+z
1/2-x,1/2+y,z
1/2+x,1/2-y,z
loop_
_atom_site_type_symbol
_atom_site_label
_atom_site_fract_x
_atom_site_fract_y
_atom_site_fract_z
Si Si1 0.212919 0.953526 0.063070
Si Si2 0.461394 0.735991 0.164131
Si Si3 0.156041 0.758982 0.902869
Si Si4 0.857541 0.365167 0.434434
O O1 0.229707 0.968089 0.376114
O O2 0.191873 0.847445 0.006638
O O3 0.166061 0.030180 0.964829
O O4 0.506530 0.717143 0.407409
O O5 0.408032 0.794587 0.299661
O O6 0.423993 0.647832 0.045246
O O7 0.146633 0.682058 0.139752
O O8 0.179915 0.702474 0.640397
#
# Coordination Sequence:
#
# PCOD9365845 Si02
#       4
#     8   8   8   8
#     4  12  26  40  63  92 125 162 204 248 300 360
#     4  10  18  38  66  84 118 162 194 252 310 348
#     4  10  22  40  63  88 126 154 206 246 297 367
#     4  10  22  40  63  88 126 154 206 246 297 367
#
# _framework density 20.221889999999998
#
# number of rings (size 3 to 8) (size 9 to 14) (size 15 to 20)
#    1.500    0.000    2.500    3.000    0.000    6.000 
#    0.000    1.250   11.000    0.000    0.000    0.000 
#    0.000    0.000    0.000    0.000    0.000    0.000 
#
# Total GULP energy -89148.784859 kJ/mol
# GULP energy per Si atom -5571.799054 kJ/mol
# Density = 2.017586 g / cm^3
# Si number density = 20.221890 Si / 1000 Ang^3
#
#
#
# Elastic Constant Matrix: (Units=GPa)
#
#
# Indices 1 2 3 4 5 6 
#
# 1 23.5525 -8.2980 3.8510 0.0000 0.0000 0.0000
# 2 -8.2980 29.9888 -0.3126 0.0000 0.0000 0.0000
# 3 3.8510 -0.3126 92.4262 0.0000 0.0000 0.0000
# 4 0.0000 0.0000 0.0000 17.2306 0.0000 0.0000
# 5 0.0000 0.0000 0.0000 0.0000 30.4189 0.0000
# 6 0.0000 0.0000 0.0000 0.0000 0.0000 11.5749
#
#
#
# Elastic Compliance Matrix: (Units=1/GPa)
#
#
# Indices 1 2 3 4 5 6 
#
# 1 0.047386 0.013092 -0.001930 0.000000 0.000000 0.000000
# 2 0.013092 0.036964 -0.000420 0.000000 0.000000 0.000000
# 3 -0.001930 -0.000420 0.010898 0.000000 0.000000 0.000000
# 4 0.000000 0.000000 0.000000 0.058036 0.000000 0.000000
# 5 0.000000 0.000000 0.000000 0.000000 0.032874 0.000000
# 6 0.000000 0.000000 0.000000 0.000000 0.000000 0.086394
#
#
# Mechanical properties :
#
#
# Convention : Reuss Voigt Hill
#
# Bulk Modulus (GPa) = 8.56667 15.16090 11.86379
# Shear Modulus (GPa) = 17.24250 21.89335 19.56793
#
# Velocity S-wave (km/s) = 2.92321 3.29394 3.11410
# Velocity P-wave (km/s) = 3.95463 4.68832 4.33701
#
# Compressibility (1/GPa) = 0.11673146
#
# Stress axis : x y z
#
# Youngs Moduli (GPa) = 21.10311 27.05335 91.75621
#
# Poissons Ratio (x) = -0.35418 0.17710
# Poissons Ratio (y) = -0.27628 0.03858
# Poissons Ratio (z) = 0.04073 0.01137
#
# Static dielectric constant tensor:
#      x y z
#    x 1.781670 0.000000 0.000000 
#    y 0.000000 1.680970 0.000000 
#    z 0.000000 0.000000 1.731270 
# 
# From -- ./inp_files/605.got.cif
#   From: 2010.05.17/outbox.cif.g08.bks.cpg/sg41_1_cif.got.tgz:605.got - 2010.06.03 18:54:24.
