data_PCOD9365387
_publ_section_title
;
Structure prediction by ZEFSAII (Michael W. Deem and Ramdas Pophale) SiO2 
 PCOD9365387
Probable space group: A M A 2
;
_chemical_formula_sum "Si O2"
_cell_formula_units_Z 48
_cell_length_a 14.302794
_cell_length_b 9.503402
_cell_length_c 16.206806
_cell_angle_alpha 90.000000
_cell_angle_beta 90.000000
_cell_angle_gamma 90.000000
_cell_volume 2202.913365
_symmetry_space_group_name_H-M "A M A 2"
_symmetry_group_IT_number 40
_symmetry_cell_setting 'orthorhombic'
loop_
_space_group_symop_operation_xyz
x,y,z
-x,-y,z
1/2-x,y,z
1/2+x,-y,z
x,1/2+y,1/2+z
-x,1/2-y,1/2+z
1/2-x,1/2+y,1/2+z
1/2+x,1/2-y,1/2+z
loop_
_atom_site_type_symbol
_atom_site_label
_atom_site_fract_x
_atom_site_fract_y
_atom_site_fract_z
Si Si1 0.860988 0.002064 0.303010
Si Si2 0.359723 0.271062 0.232710
Si Si3 0.643399 0.964830 0.645125
Si Si4 0.087712 0.396541 0.980919
Si Si5 0.140151 0.621380 0.553408
Si Si6 0.635736 0.151978 0.136520
O O1 0.750000 0.988964 0.289815
O O2 0.899014 0.841232 0.298319
O O3 0.874954 0.074658 0.389983
O O4 0.895359 0.092710 0.225375
O O5 0.250000 0.295724 0.252762
O O6 0.399765 0.424233 0.210042
O O7 0.362413 0.184110 0.146640
O O8 0.750000 0.938184 0.672753
O O9 0.647851 0.045150 0.557794
O O10 0.600234 0.811379 0.630502
O O11 0.000000 0.500000 0.987426
O O12 0.082407 0.229842 0.997730
O O13 0.250000 0.624360 0.527243
O O14 0.108463 0.460235 0.566269
O O15 0.750000 0.151960 0.133144
#
# Coordination Sequence:
#
# PCOD9365387 Si02
#       6
#     8   8   8   8   8   8
#     4   9  16  30  49  69  93 124 157 197 243 287
#     4   7  12  24  47  71  89 112 147 186 232 282
#     4   9  16  31  53  75  94 117 154 205 249 290
#     4  11  21  31  44  68 100 134 168 196 231 288
#     4   8  14  29  50  70  91 121 157 198 242 287
#     4   8  15  29  54  79  93 112 157 208 250 292
#
# _framework density 21.789325000000002
#
# number of rings (size 3 to 8) (size 9 to 14) (size 15 to 20)
#    0.000    3.333    0.000    4.500    0.000    0.000 
#    0.000    7.500    0.000    6.000    0.000    0.000 
#    0.000    0.000    0.000    0.000    0.000    0.000 
#
# Total GULP energy -133641.978123 kJ/mol
# GULP energy per Si atom -5568.415755 kJ/mol
# Density = 2.173973 g / cm^3
# Si number density = 21.789325 Si / 1000 Ang^3
#
#
#
# Elastic Constant Matrix: (Units=GPa)
#
#
# Indices 1 2 3 4 5 6 
#
# 1 28.8691 -11.8035 -11.9340 0.0000 0.0000 0.0000
# 2 -11.8035 198.0008 57.9346 0.0000 0.0000 0.0000
# 3 -11.9340 57.9346 73.7936 0.0000 0.0000 0.0000
# 4 0.0000 0.0000 0.0000 29.5589 0.0000 0.0000
# 5 0.0000 0.0000 0.0000 0.0000 -13.1234 0.0000
# 6 0.0000 0.0000 0.0000 0.0000 0.0000 67.2643
#
#
#
# Elastic Compliance Matrix: (Units=1/GPa)
#
#
# Indices 1 2 3 4 5 6 
#
# 1 0.037174 0.000593 0.005546 0.000000 0.000000 0.000000
# 2 0.000593 0.006566 -0.005059 0.000000 0.000000 0.000000
# 3 0.005546 -0.005059 0.018420 0.000000 0.000000 0.000000
# 4 0.000000 0.000000 0.000000 0.033831 0.000000 0.000000
# 5 0.000000 0.000000 0.000000 0.000000 -0.076200 0.000000
# 6 0.000000 0.000000 0.000000 0.000000 0.000000 0.014867
#
#
# Mechanical properties :
#
#
# Convention : Reuss Voigt Hill
#
# Bulk Modulus (GPa) = 15.54697 41.00641 28.27669
# Shear Modulus (GPa) = 92.69961 34.50439 63.60200
#
# Velocity S-wave (km/s) = 6.52962 3.98370 5.40859
# Velocity P-wave (km/s) = 7.99991 6.32615 7.21175
#
# Compressibility (1/GPa) = 0.06432123
#
# Stress axis : x y z
#
# Youngs Moduli (GPa) = 26.90025 152.29703 54.28875
#
# Poissons Ratio (x) = -0.09036 -0.30109
# Poissons Ratio (y) = -0.01596 0.27465
# Poissons Ratio (z) = -0.14919 0.77048
#
# Static dielectric constant tensor:
#      x y z
#    x 1.884650 0.000000 0.000000 
#    y 0.000000 1.875560 0.000000 
#    z 0.000000 0.000000 1.767090 
# 
# From -- ./inp_files/17640.got.cif
#   From: 2010.05.17/outbox.cif.g08.bks.cpg/sg40_9_cif.got.tgz:17640.got - 2010.06.03 18:35:42.
