data_PCOD9365412
_publ_section_title
;
Structure prediction by ZEFSAII (Michael W. Deem and Ramdas Pophale) SiO2 
 PCOD9365412
Probable space group: A M A 2
;
_chemical_formula_sum "Si O2"
_cell_formula_units_Z 44
_cell_length_a 16.594420
_cell_length_b 24.137317
_cell_length_c 5.156141
_cell_angle_alpha 90.000000
_cell_angle_beta 90.000000
_cell_angle_gamma 90.000000
_cell_volume 2065.265342
_symmetry_space_group_name_H-M "A M A 2"
_symmetry_group_IT_number 40
_symmetry_cell_setting 'orthorhombic'
loop_
_space_group_symop_operation_xyz
x,y,z
-x,-y,z
1/2-x,y,z
1/2+x,-y,z
x,1/2+y,1/2+z
-x,1/2-y,1/2+z
1/2-x,1/2+y,1/2+z
1/2+x,1/2-y,1/2+z
loop_
_atom_site_type_symbol
_atom_site_label
_atom_site_fract_x
_atom_site_fract_y
_atom_site_fract_z
Si Si1 0.006387 0.216544 0.094080
Si Si2 0.540290 0.100988 0.306834
Si Si3 0.342700 0.975786 0.587923
Si Si4 0.873331 0.406030 0.005034
Si Si5 0.834956 0.340273 0.493985
Si Si6 0.500000 0.500000 0.441554
O O1 0.957389 0.160842 0.171583
O O2 0.030043 0.245880 0.365890
O O3 0.089012 0.198164 0.956713
O O4 0.621968 0.075842 0.424520
O O5 0.470094 0.101955 0.523662
O O6 0.501863 0.054899 0.116883
O O7 0.250000 0.966899 0.678284
O O8 0.416225 0.991718 0.784406
O O9 0.344872 0.032776 0.426280
O O10 0.844502 0.365593 0.779085
O O11 0.838488 0.388385 0.280283
O O12 0.750000 0.310584 0.468885
#
# Coordination Sequence:
#
# PCOD9365412 Si02
#       6
#     8   8   8   8   8   4
#     4  11  25  44  70  95 128 184 237 280 338 415
#     4  11  24  42  68  95 139 180 228 283 349 410
#     4  12  24  38  63 102 143 186 226 274 350 429
#     4  11  21  40  65 100 136 175 220 279 348 410
#     4  11  23  40  67 100 131 167 229 300 345 390
#     4  12  22  44  68  98 140 190 226 292 344 422
#
# _framework density 21.304769
#
# number of rings (size 3 to 8) (size 9 to 14) (size 15 to 20)
#    0.000    0.727    3.636    6.000    2.545    0.727 
#    0.000    1.818    0.000    0.000    0.000    0.000 
#    0.000    0.000    0.000    0.000    0.000    0.000 
#
# Total GULP energy -122733.232204 kJ/mol
# GULP energy per Si atom -5578.783282 kJ/mol
# Density = 2.125628 g / cm^3
# Si number density = 21.304769 Si / 1000 Ang^3
#
#
#
# Elastic Constant Matrix: (Units=GPa)
#
#
# Indices 1 2 3 4 5 6 
#
# 1 144.2717 17.3186 26.7464 0.0000 0.0000 0.0000
# 2 17.3186 102.1241 31.4796 0.0000 0.0000 0.0000
# 3 26.7464 31.4796 82.9634 0.0000 0.0000 0.0000
# 4 0.0000 0.0000 0.0000 35.3746 0.0000 0.0000
# 5 0.0000 0.0000 0.0000 0.0000 -13.2235 0.0000
# 6 0.0000 0.0000 0.0000 0.0000 0.0000 11.7705
#
#
#
# Elastic Compliance Matrix: (Units=1/GPa)
#
#
# Indices 1 2 3 4 5 6 
#
# 1 0.007403 -0.000589 -0.002163 0.000000 0.000000 0.000000
# 2 -0.000589 0.011136 -0.004036 0.000000 0.000000 0.000000
# 3 -0.002163 -0.004036 0.014282 0.000000 0.000000 0.000000
# 4 0.000000 0.000000 0.000000 0.028269 0.000000 0.000000
# 5 0.000000 0.000000 0.000000 0.000000 -0.075623 0.000000
# 6 0.000000 0.000000 0.000000 0.000000 0.000000 0.084958
#
#
# Mechanical properties :
#
#
# Convention : Reuss Voigt Hill
#
# Bulk Modulus (GPa) = 51.95879 53.38316 52.67098
# Shear Modulus (GPa) = 55.30028 23.70530 39.50279
#
# Velocity S-wave (km/s) = 5.10030 3.33930 4.31069
# Velocity P-wave (km/s) = 7.68931 6.32291 7.03934
#
# Compressibility (1/GPa) = 0.01924602
#
# Stress axis : x y z
#
# Youngs Moduli (GPa) = 135.07892 89.80057 70.01720
#
# Poissons Ratio (x) = 0.05286 0.15147
# Poissons Ratio (y) = 0.07951 0.28256
# Poissons Ratio (z) = 0.29222 0.36240
#
# Static dielectric constant tensor:
#      x y z
#    x 1.861800 0.000000 0.000000 
#    y 0.000000 1.819560 0.000000 
#    z 0.000000 0.000000 1.810590 
# 
# From -- ./inp_files/1842.got.cif
#   From: 2010.05.17/outbox.cif.g08.bks.cpg/sg40_1_cif.got.tgz:1842.got - 2010.06.03 18:35:42.
