data_PCOD9365214
_publ_section_title
;
Structure prediction by ZEFSAII (Michael W. Deem and Ramdas Pophale) SiO2 
 PCOD9365214
Probable space group: A M A 2
;
_chemical_formula_sum "Si O2"
_cell_formula_units_Z 48
_cell_length_a 21.432362
_cell_length_b 8.988720
_cell_length_c 11.274320
_cell_angle_alpha 90.000000
_cell_angle_beta 90.000000
_cell_angle_gamma 90.000000
_cell_volume 2171.992122
_symmetry_space_group_name_H-M "A M A 2"
_symmetry_group_IT_number 40
_symmetry_cell_setting 'orthorhombic'
loop_
_space_group_symop_operation_xyz
x,y,z
-x,-y,z
1/2-x,y,z
1/2+x,-y,z
x,1/2+y,1/2+z
-x,1/2-y,1/2+z
1/2-x,1/2+y,1/2+z
1/2+x,1/2-y,1/2+z
loop_
_atom_site_type_symbol
_atom_site_label
_atom_site_fract_x
_atom_site_fract_y
_atom_site_fract_z
Si Si1 0.630637 0.458206 0.943060
Si Si2 0.097539 0.771503 0.569236
Si Si3 0.957737 0.798411 0.611673
Si Si4 0.682240 0.144478 0.948571
Si Si5 0.621422 0.034279 0.176078
Si Si6 0.071124 0.555378 0.352157
O O1 0.677898 0.321910 0.936252
O O2 0.625332 0.539060 0.816931
O O3 0.640555 0.589420 0.038066
O O4 0.568468 0.371283 0.990935
O O5 0.122843 0.641295 0.650679
O O6 0.081104 0.685071 0.447941
O O7 0.031108 0.822548 0.620685
O O8 0.939697 0.624455 0.628662
O O9 0.923447 0.876616 0.721475
O O10 0.750000 0.089567 0.909246
O O11 0.624714 0.065844 0.880204
O O12 0.672396 0.106196 0.088371
O O13 0.000000 0.500000 0.366186
#
# Coordination Sequence:
#
# PCOD9365214 Si02
#       6
#     8   8   8   8   8   8
#     4  11  23  40  66  96 130 177 234 284 338 413
#     4  11  22  37  63  99 139 183 226 279 346 416
#     4  11  23  37  62 104 147 182 226 281 350 422
#     4  10  25  48  70  96 135 185 238 295 356 426
#     4  10  23  43  66  93 138 180 230 283 346 416
#     4  11  22  41  66 102 146 185 230 288 356 421
#
# _framework density 22.099526999999998
#
# number of rings (size 3 to 8) (size 9 to 14) (size 15 to 20)
#    0.000    1.333    1.667    5.000    7.000    2.000 
#    0.000    6.667    0.000    0.000    0.000    0.000 
#    0.000    0.000    0.000    0.000    0.000    0.000 
#
# Total GULP energy -133979.927297 kJ/mol
# GULP energy per Si atom -5582.496971 kJ/mol
# Density = 2.204923 g / cm^3
# Si number density = 22.099527 Si / 1000 Ang^3
#
#
#
# Elastic Constant Matrix: (Units=GPa)
#
#
# Indices 1 2 3 4 5 6 
#
# 1 95.0200 32.2307 14.4507 0.0000 0.0000 0.0000
# 2 32.2307 121.8717 25.2166 0.0000 0.0000 0.0000
# 3 14.4507 25.2166 76.0294 0.0000 0.0000 0.0000
# 4 0.0000 0.0000 0.0000 28.6845 0.0000 0.0000
# 5 0.0000 0.0000 0.0000 0.0000 1.4182 0.0000
# 6 0.0000 0.0000 0.0000 0.0000 0.0000 2.3646
#
#
#
# Elastic Compliance Matrix: (Units=1/GPa)
#
#
# Indices 1 2 3 4 5 6 
#
# 1 0.011677 -0.002823 -0.001283 0.000000 0.000000 0.000000
# 2 -0.002823 0.009492 -0.002612 0.000000 0.000000 0.000000
# 3 -0.001283 -0.002612 0.014263 0.000000 0.000000 0.000000
# 4 0.000000 0.000000 0.000000 0.034862 0.000000 0.000000
# 5 0.000000 0.000000 0.000000 0.000000 0.705143 0.000000
# 6 0.000000 0.000000 0.000000 0.000000 0.000000 0.422900
#
#
# Mechanical properties :
#
#
# Convention : Reuss Voigt Hill
#
# Bulk Modulus (GPa) = 45.46127 48.52410 46.99269
# Shear Modulus (GPa) = 4.10137 21.22833 12.66485
#
# Velocity S-wave (km/s) = 1.36378 3.10268 2.39651
# Velocity P-wave (km/s) = 4.80580 5.90256 5.38219
#
# Compressibility (1/GPa) = 0.02199674
#
# Stress axis : x y z
#
# Youngs Moduli (GPa) = 85.64092 105.34940 70.11173
#
# Poissons Ratio (x) = 0.29735 0.08997
# Poissons Ratio (y) = 0.24173 0.18312
# Poissons Ratio (z) = 0.10989 0.27515
#
# Static dielectric constant tensor:
#      x y z
#    x 1.836320 0.000000 0.000000 
#    y 0.000000 1.867630 0.000000 
#    z 0.000000 0.000000 1.836300 
# 
# From -- ./inp_files/13909.got.cif
#   From: 2010.05.17/outbox.cif.g08.bks.cpg/sg40_7_cif.got.tgz:13909.got - 2010.06.03 18:35:42.
