data_PCOD9365234
_publ_section_title
;
Structure prediction by ZEFSAII (Michael W. Deem and Ramdas Pophale) SiO2 
 PCOD9365234
Probable space group: A M A 2
;
_chemical_formula_sum "Si O2"
_cell_formula_units_Z 64
_cell_length_a 29.037140
_cell_length_b 8.385755
_cell_length_c 11.719404
_cell_angle_alpha 90.000000
_cell_angle_beta 90.000000
_cell_angle_gamma 90.000000
_cell_volume 2853.655443
_symmetry_space_group_name_H-M "A M A 2"
_symmetry_group_IT_number 40
_symmetry_cell_setting 'orthorhombic'
loop_
_space_group_symop_operation_xyz
x,y,z
-x,-y,z
1/2-x,y,z
1/2+x,-y,z
x,1/2+y,1/2+z
-x,1/2-y,1/2+z
1/2-x,1/2+y,1/2+z
1/2+x,1/2-y,1/2+z
loop_
_atom_site_type_symbol
_atom_site_label
_atom_site_fract_x
_atom_site_fract_y
_atom_site_fract_z
Si Si1 0.068562 0.401827 0.850570
Si Si2 0.023421 0.348604 0.616711
Si Si3 0.437708 0.368552 0.104624
Si Si4 0.302018 0.234173 0.871773
Si Si5 0.879270 0.671255 0.505481
Si Si6 0.651933 0.856780 0.110281
Si Si7 0.336722 0.084230 0.353724
Si Si8 0.389528 0.567343 0.297425
O O1 0.039474 0.417878 0.737736
O O2 0.111992 0.515669 0.836131
O O3 0.082758 0.216264 0.847491
O O4 0.051824 0.431198 0.977840
O O5 0.069689 0.291825 0.552553
O O6 0.000000 0.500000 0.552617
O O7 0.985061 0.215325 0.640564
O O8 0.396605 0.236560 0.100461
O O9 0.415664 0.499371 0.188015
O O10 0.250000 0.183335 0.851315
O O11 0.306510 0.425618 0.863192
O O12 0.338202 0.142689 0.789041
O O13 0.318074 0.193763 0.001104
O O14 0.857179 0.545559 0.593526
O O15 0.843932 0.809391 0.466929
O O16 0.887092 0.573342 0.388799
O O17 0.673643 0.825926 0.234796
#
# Coordination Sequence:
#
# PCOD9365234 Si02
#       8
#     8   8   8   8   8   8   8   8
#     4  11  24  42  62  98 140 188 238 294 344 412
#     4  12  25  40  62 100 146 186 250 293 333 403
#     4  12  23  41  67  98 140 194 236 287 349 418
#     4  10  24  48  75 105 140 175 233 302 367 452
#     4  11  22  41  69  96 137 189 231 286 344 414
#     4  11  21  44  68  99 142 183 223 286 359 415
#     4  11  22  41  74  99 137 188 228 282 370 423
#     4  10  23  44  69  96 135 184 235 284 374 422
#
# _framework density 22.427375000000001
#
# number of rings (size 3 to 8) (size 9 to 14) (size 15 to 20)
#    0.000    1.000    7.500    0.000    3.500    1.000 
#    0.000    3.125    0.000    0.000    0.000    0.000 
#    0.000    0.000    0.000    0.000    0.000    0.000 
#
# Total GULP energy -178763.442918 kJ/mol
# GULP energy per Si atom -5586.357591 kJ/mol
# Density = 2.237633 g / cm^3
# Si number density = 22.427375 Si / 1000 Ang^3
#
#
#
# Elastic Constant Matrix: (Units=GPa)
#
#
# Indices 1 2 3 4 5 6 
#
# 1 75.8489 16.4267 5.7860 0.0000 0.0000 0.0000
# 2 16.4267 76.9703 18.0253 0.0000 0.0000 0.0000
# 3 5.7860 18.0253 78.8853 0.0000 0.0000 0.0000
# 4 0.0000 0.0000 0.0000 -712.7053 0.0000 0.0000
# 5 0.0000 0.0000 0.0000 0.0000 10.4938 0.0000
# 6 0.0000 0.0000 0.0000 0.0000 0.0000 -19.8842
#
#
#
# Elastic Compliance Matrix: (Units=1/GPa)
#
#
# Indices 1 2 3 4 5 6 
#
# 1 0.013833 -0.002868 -0.000359 0.000000 0.000000 0.000000
# 2 -0.002868 0.014321 -0.003062 0.000000 0.000000 0.000000
# 3 -0.000359 -0.003062 0.013403 0.000000 0.000000 0.000000
# 4 0.000000 0.000000 0.000000 -0.001403 0.000000 0.000000
# 5 0.000000 0.000000 0.000000 0.000000 0.095295 0.000000
# 6 0.000000 0.000000 0.000000 0.000000 0.000000 -0.050291
#
#
# Mechanical properties :
#
#
# Convention : Reuss Voigt Hill
#
# Bulk Modulus (GPa) = 34.50900 34.68673 34.59786
# Shear Modulus (GPa) = 46.55722 -131.65471 -42.54875
#
# Velocity S-wave (km/s) = 4.56116 -7.67008 -4.36039
# Velocity P-wave (km/s) = 6.56957 7.93350 3.14492
#
# Compressibility (1/GPa) = 0.02897795
#
# Stress axis : x y z
#
# Youngs Moduli (GPa) = 72.29283 69.82668 74.61210
#
# Poissons Ratio (x) = 0.20026 0.02680
# Poissons Ratio (y) = 0.20733 0.22846
# Poissons Ratio (z) = 0.02597 0.21381
#
# Static dielectric constant tensor:
#      x y z
#    x 1.823670 0.000000 0.000000 
#    y 0.000000 3.779040 0.000000 
#    z 0.000000 0.000000 1.868870 
# 
# From -- ./inp_files/14408.got.cif
#   From: 2010.05.17/outbox.cif.g08.bks.cpg/sg40_8_cif.got.tgz:14408.got - 2010.06.03 18:35:42.
