data_PCOD9365225
_publ_section_title
;
Structure prediction by ZEFSAII (Michael W. Deem and Ramdas Pophale) SiO2 
 PCOD9365225
Probable space group: A M A 2
;
_chemical_formula_sum "Si O2"
_cell_formula_units_Z 40
_cell_length_a 14.251448
_cell_length_b 16.230159
_cell_length_c 6.971405
_cell_angle_alpha 90.000000
_cell_angle_beta 90.000000
_cell_angle_gamma 90.000000
_cell_volume 1612.508752
_symmetry_space_group_name_H-M "A M A 2"
_symmetry_group_IT_number 40
_symmetry_cell_setting 'orthorhombic'
loop_
_space_group_symop_operation_xyz
x,y,z
-x,-y,z
1/2-x,y,z
1/2+x,-y,z
x,1/2+y,1/2+z
-x,1/2-y,1/2+z
1/2-x,1/2+y,1/2+z
1/2+x,1/2-y,1/2+z
loop_
_atom_site_type_symbol
_atom_site_label
_atom_site_fract_x
_atom_site_fract_y
_atom_site_fract_z
Si Si1 0.353514 0.353438 0.971350
Si Si2 0.060111 0.173230 0.438178
Si Si3 0.857310 0.970486 0.680973
Si Si4 0.459924 0.081561 0.056228
Si Si5 0.647549 0.156623 0.018870
O O1 0.250000 0.316204 0.018252
O O2 0.350207 0.368450 0.742256
O O3 0.451394 0.303932 0.985461
O O4 0.363228 0.438152 0.090010
O O5 0.928350 0.354526 0.717147
O O6 0.081674 0.092033 0.558034
O O7 0.129899 0.246232 0.495059
O O8 0.750000 0.945368 0.659662
O O9 0.887211 0.952523 0.900578
O O10 0.549811 0.119416 0.945494
O O11 0.500000 0.000000 0.159849
O O12 0.750000 0.132719 0.939030
#
# Coordination Sequence:
#
# PCOD9365225 Si02
#       5
#     8   8   8   8   8
#     4   9  20  42  70 101 142 194 246 297 360 437
#     4  11  22  42  72 105 146 189 234 306 372 431
#     4  11  24  43  72 105 141 192 249 302 361 432
#     4  11  25  44  71 105 144 191 245 299 356 440
#     4  10  23  43  71 106 145 190 239 300 371 440
#
# _framework density 24.806068
#
# number of rings (size 3 to 8) (size 9 to 14) (size 15 to 20)
#    0.000    1.600    0.000    4.800    5.600    2.400 
#    0.000    1.000    0.000    0.000    0.000    0.000 
#    0.000    0.000    0.000    0.000    0.000    0.000 
#
# Total GULP energy -111760.212518 kJ/mol
# GULP energy per Si atom -5588.010626 kJ/mol
# Density = 2.474961 g / cm^3
# Si number density = 24.806068 Si / 1000 Ang^3
#
#
#
# Elastic Constant Matrix: (Units=GPa)
#
#
# Indices 1 2 3 4 5 6 
#
# 1 145.1936 2.9563 19.5939 0.0000 0.0000 0.0000
# 2 2.9563 65.8498 32.9936 0.0000 0.0000 0.0000
# 3 19.5939 32.9936 147.5254 0.0000 0.0000 0.0000
# 4 0.0000 0.0000 0.0000 21.4637 0.0000 0.0000
# 5 0.0000 0.0000 0.0000 0.0000 32.3778 0.0000
# 6 0.0000 0.0000 0.0000 0.0000 0.0000 26.0991
#
#
#
# Elastic Compliance Matrix: (Units=1/GPa)
#
#
# Indices 1 2 3 4 5 6 
#
# 1 0.007015 0.000171 -0.000970 0.000000 0.000000 0.000000
# 2 0.000171 0.017107 -0.003849 0.000000 0.000000 0.000000
# 3 -0.000970 -0.003849 0.007768 0.000000 0.000000 0.000000
# 4 0.000000 0.000000 0.000000 0.046590 0.000000 0.000000
# 5 0.000000 0.000000 0.000000 0.000000 0.030885 0.000000
# 6 0.000000 0.000000 0.000000 0.000000 0.000000 0.038315
#
#
# Mechanical properties :
#
#
# Convention : Reuss Voigt Hill
#
# Bulk Modulus (GPa) = 44.25840 52.18406 48.22123
# Shear Modulus (GPa) = 30.39383 36.18979 33.29181
#
# Velocity S-wave (km/s) = 3.50417 3.82371 3.66742
# Velocity P-wave (km/s) = 5.85258 6.36999 6.11676
#
# Compressibility (1/GPa) = 0.02259458
#
# Stress axis : x y z
#
# Youngs Moduli (GPa) = 142.55640 58.45664 128.73265
#
# Poissons Ratio (x) = -0.01000 0.12486
# Poissons Ratio (y) = -0.02438 0.49544
# Poissons Ratio (z) = 0.13827 0.22497
#
# Static dielectric constant tensor:
#      x y z
#    x 1.979400 0.000000 0.000000 
#    y 0.000000 1.964970 0.000000 
#    z 0.000000 0.000000 1.983390 
# 
# From -- ./inp_files/6301.got.cif
#   From: 2010.05.17/outbox.cif.g08.bks.cpg/sg40_4_cif.got.tgz:6301.got - 2010.06.03 18:35:42.
