data_PCOD9365724
_publ_section_title
;
Structure prediction by ZEFSAII (Michael W. Deem and Ramdas Pophale) SiO2 
 PCOD9365724
Probable space group: A B A 2
;
_chemical_formula_sum "Si O2"
_cell_formula_units_Z 60
_cell_length_a 22.790941
_cell_length_b 15.265575
_cell_length_c 8.174053
_cell_angle_alpha 90.000000
_cell_angle_beta 90.000000
_cell_angle_gamma 90.000000
_cell_volume 2843.890519
_symmetry_space_group_name_H-M "A B A 2"
_symmetry_group_IT_number 41
_symmetry_cell_setting 'orthorhombic'
loop_
_space_group_symop_operation_xyz
x,y,z
-x,-y,z
1/2-x,y,1/2+z
1/2+x,-y,1/2+z
x,1/2+y,1/2+z
-x,1/2-y,1/2+z
1/2-x,1/2+y,z
1/2+x,1/2-y,z
loop_
_atom_site_type_symbol
_atom_site_label
_atom_site_fract_x
_atom_site_fract_y
_atom_site_fract_z
Si Si1 0.175022 0.743921 0.027690
Si Si2 0.092498 0.865636 0.579680
Si Si3 0.093239 0.397782 0.465521
Si Si4 0.073540 0.652525 0.214752
Si Si5 0.394855 0.590881 0.075319
Si Si6 0.000000 0.000000 0.536599
Si Si7 0.192452 0.235725 0.140219
Si Si8 0.991341 0.799014 0.129952
O O1 0.142389 0.836191 0.044221
O O2 0.131152 0.672493 0.106069
O O3 0.239224 0.741627 0.103445
O O4 0.181053 0.738352 0.833108
O O5 0.155496 0.815549 0.553062
O O6 0.057291 0.940604 0.475148
O O7 0.050476 0.781037 0.580591
O O8 0.098011 0.902858 0.767504
O O9 0.099378 0.488312 0.559814
O O10 0.030956 0.351679 0.500987
O O11 0.088628 0.622559 0.394226
O O12 0.039572 0.745175 0.229258
O O13 0.033627 0.577091 0.134761
O O14 0.333632 0.639903 0.098733
O O15 0.444363 0.630989 0.198102
#
# Coordination Sequence:
#
# PCOD9365724 Si02
#       8
#     8   8   8   8   8   4   8   8
#     4  10  22  43  63  83 120 162 207 252 314 372
#     4   9  18  32  55  87 117 156 197 243 294 369
#     4  10  19  34  58  89 118 156 204 253 298 360
#     4  10  20  34  63  90 120 164 203 246 304 371
#     4  11  20  35  63  92 121 158 208 255 304 357
#     4  10  16  32  58  92 122 152 198 236 302 358
#     4  10  22  41  63  86 120 161 206 255 311 372
#     4   9  18  28  52  88 124 153 190 237 293 362
#
# _framework density 21.097859
#
# number of rings (size 3 to 8) (size 9 to 14) (size 15 to 20)
#    0.000    2.133    1.333    2.800    0.000    1.067 
#    2.400    1.333   32.267    0.000    0.000    0.000 
#    0.000    0.000    0.000    0.000    0.000    0.000 
#
# Total GULP energy -167004.401697 kJ/mol
# GULP energy per Si atom -5566.813390 kJ/mol
# Density = 2.104984 g / cm^3
# Si number density = 21.097859 Si / 1000 Ang^3
#
#
#
# Elastic Constant Matrix: (Units=GPa)
#
#
# Indices 1 2 3 4 5 6 
#
# 1 159.6179 56.2555 27.4514 0.0000 0.0000 0.0000
# 2 56.2555 137.2063 21.0950 0.0000 0.0000 0.0000
# 3 27.4514 21.0950 26.4736 0.0000 0.0000 0.0000
# 4 0.0000 0.0000 0.0000 20.4497 0.0000 0.0000
# 5 0.0000 0.0000 0.0000 0.0000 21.9170 0.0000
# 6 0.0000 0.0000 0.0000 0.0000 0.0000 24.1353
#
#
#
# Elastic Compliance Matrix: (Units=1/GPa)
#
#
# Indices 1 2 3 4 5 6 
#
# 1 0.008242 -0.002354 -0.006671 0.000000 0.000000 0.000000
# 2 -0.002354 0.008978 -0.004713 0.000000 0.000000 0.000000
# 3 -0.006671 -0.004713 0.048446 0.000000 0.000000 0.000000
# 4 0.000000 0.000000 0.000000 0.048901 0.000000 0.000000
# 5 0.000000 0.000000 0.000000 0.000000 0.045627 0.000000
# 6 0.000000 0.000000 0.000000 0.000000 0.000000 0.041433
#
#
# Mechanical properties :
#
#
# Convention : Reuss Voigt Hill
#
# Bulk Modulus (GPa) = 26.18447 59.21130 42.69789
# Shear Modulus (GPa) = 20.67554 27.86681 24.27117
#
# Velocity S-wave (km/s) = 3.13386 3.63827 3.39545
# Velocity P-wave (km/s) = 5.05299 6.76575 5.97110
#
# Compressibility (1/GPa) = 0.03819057
#
# Stress axis : x y z
#
# Youngs Moduli (GPa) = 121.33445 111.38423 20.64141
#
# Poissons Ratio (x) = 0.26215 0.13769
# Poissons Ratio (y) = 0.28557 0.09729
# Poissons Ratio (z) = 0.80939 0.52500
#
# Static dielectric constant tensor:
#      x y z
#    x 1.814690 0.000000 0.000000 
#    y 0.000000 1.797000 0.000000 
#    z 0.000000 0.000000 1.839350 
# 
# From -- ./inp_files/3668.got.cif
#   From: 2010.05.17/outbox.cif.g08.bks.cpg/sg41_2_cif.got.tgz:3668.got - 2010.06.03 18:54:24.
