data_PCOD9365906
_publ_section_title
;
Structure prediction by ZEFSAII (Michael W. Deem and Ramdas Pophale) SiO2 
 PCOD9365906
Probable space group: A B A 2
;
_chemical_formula_sum "Si O2"
_cell_formula_units_Z 64
_cell_length_a 24.476590
_cell_length_b 26.517776
_cell_length_c 5.253025
_cell_angle_alpha 90.000000
_cell_angle_beta 90.000000
_cell_angle_gamma 90.000000
_cell_volume 3409.553258
_symmetry_space_group_name_H-M "A B A 2"
_symmetry_group_IT_number 41
_symmetry_cell_setting 'orthorhombic'
loop_
_space_group_symop_operation_xyz
x,y,z
-x,-y,z
1/2-x,y,1/2+z
1/2+x,-y,1/2+z
x,1/2+y,1/2+z
-x,1/2-y,1/2+z
1/2-x,1/2+y,z
1/2+x,1/2-y,z
loop_
_atom_site_type_symbol
_atom_site_label
_atom_site_fract_x
_atom_site_fract_y
_atom_site_fract_z
Si Si1 0.667709 0.146122 0.251830
Si Si2 0.495069 0.716879 0.397957
Si Si3 0.781531 0.248336 0.709031
Si Si4 0.312526 0.006857 0.976533
Si Si5 0.810904 0.536908 0.465622
Si Si6 0.390859 0.317080 0.247853
Si Si7 0.786205 0.875676 0.492540
Si Si8 0.373414 0.709247 0.513436
O O1 0.714860 0.188132 0.240939
O O2 0.690479 0.093226 0.354220
O O3 0.624564 0.161018 0.472431
O O4 0.640986 0.153524 0.972256
O O5 0.511831 0.744834 0.659942
O O6 0.545228 0.681986 0.313891
O O7 0.435407 0.694736 0.453463
O O8 0.756181 0.264451 0.444883
O O9 0.841973 0.267946 0.767513
O O10 0.306843 0.066701 0.968393
O O11 0.250466 0.984951 0.996954
O O12 0.336885 0.976880 0.736825
O O13 0.340448 0.993385 0.241614
O O14 0.375024 0.257115 0.209799
O O15 0.741384 0.868313 0.715234
O O16 0.836005 0.838922 0.568128
#
# Coordination Sequence:
#
# PCOD9365906 Si02
#       8
#     8   8   8   8   8   8   8   8
#     4  11  22  34  56  80 111 146 186 224 281 339
#     4  10  20  37  61  77 108 148 188 239 270 320
#     4  11  22  33  44  73 113 147 169 210 251 327
#     4  10  19  35  52  77 106 139 192 226 255 321
#     4  10  19  33  55  75 104 144 184 224 274 315
#     4  10  21  39  53  85 112 138 189 238 274 331
#     4  12  22  38  56  82 116 154 183 234 267 325
#     4  10  23  37  57  81 111 154 189 215 284 332
#
# _framework density 18.770788
#
# number of rings (size 3 to 8) (size 9 to 14) (size 15 to 20)
#    0.000    1.500    2.500    5.250    3.500    5.000 
#    0.000    0.000    0.000    0.000    0.000    5.250 
#    0.000    0.000    0.000    0.000    0.000    0.000 
#
# Total GULP energy -178320.169106 kJ/mol
# GULP energy per Si atom -5572.505285 kJ/mol
# Density = 1.872807 g / cm^3
# Si number density = 18.770788 Si / 1000 Ang^3
#
#
#
# Elastic Constant Matrix: (Units=GPa)
#
#
# Indices 1 2 3 4 5 6 
#
# 1 31.9413 10.9710 7.7834 0.0000 0.0000 0.0000
# 2 10.9710 85.3252 -13.3519 0.0000 0.0000 0.0000
# 3 7.7834 -13.3519 97.2953 0.0000 0.0000 0.0000
# 4 0.0000 0.0000 0.0000 25.1107 0.0000 0.0000
# 5 0.0000 0.0000 0.0000 0.0000 18.1025 0.0000
# 6 0.0000 0.0000 0.0000 0.0000 0.0000 11.3419
#
#
#
# Elastic Compliance Matrix: (Units=1/GPa)
#
#
# Indices 1 2 3 4 5 6 
#
# 1 0.033804 -0.004874 -0.003373 0.000000 0.000000 0.000000
# 2 -0.004874 0.012680 0.002130 0.000000 0.000000 0.000000
# 3 -0.003373 0.002130 0.010840 0.000000 0.000000 0.000000
# 4 0.000000 0.000000 0.000000 0.039824 0.000000 0.000000
# 5 0.000000 0.000000 0.000000 0.000000 0.055241 0.000000
# 6 0.000000 0.000000 0.000000 0.000000 0.000000 0.088169
#
#
# Mechanical properties :
#
#
# Convention : Reuss Voigt Hill
#
# Bulk Modulus (GPa) = 22.17843 25.04075 23.60959
# Shear Modulus (GPa) = 18.66918 24.85499 21.76208
#
# Velocity S-wave (km/s) = 3.15713 3.64281 3.40863
# Velocity P-wave (km/s) = 5.01308 5.57339 5.30064
#
# Compressibility (1/GPa) = 0.04508886
#
# Stress axis : x y z
#
# Youngs Moduli (GPa) = 29.58273 78.86499 92.24980
#
# Poissons Ratio (x) = 0.38441 0.31117
# Poissons Ratio (y) = 0.14419 -0.19649
# Poissons Ratio (z) = 0.09979 -0.16798
#
# Static dielectric constant tensor:
#      x y z
#    x 2.256930 0.000000 0.000000 
#    y 0.000000 1.746850 0.000000 
#    z 0.000000 0.000000 1.746590 
# 
# From -- ./inp_files/823.got.cif
#   From: 2010.05.17/outbox.cif.g08.bks.cpg/sg41_1_cif.got.tgz:823.got - 2010.06.03 18:54:24.
