data_PCOD9365393
_publ_section_title
;
Structure prediction by ZEFSAII (Michael W. Deem and Ramdas Pophale) SiO2 
 PCOD9365393
Probable space group: A M A 2
;
_chemical_formula_sum "Si O2"
_cell_formula_units_Z 56
_cell_length_a 8.591128
_cell_length_b 14.440722
_cell_length_c 23.587646
_cell_angle_alpha 90.000000
_cell_angle_beta 90.000000
_cell_angle_gamma 90.000000
_cell_volume 2926.332687
_symmetry_space_group_name_H-M "A M A 2"
_symmetry_group_IT_number 40
_symmetry_cell_setting 'orthorhombic'
loop_
_space_group_symop_operation_xyz
x,y,z
-x,-y,z
1/2-x,y,z
1/2+x,-y,z
x,1/2+y,1/2+z
-x,1/2-y,1/2+z
1/2-x,1/2+y,1/2+z
1/2+x,1/2-y,1/2+z
loop_
_atom_site_type_symbol
_atom_site_label
_atom_site_fract_x
_atom_site_fract_y
_atom_site_fract_z
Si Si1 0.573132 0.141409 0.423030
Si Si2 0.926320 0.858166 0.889247
Si Si3 0.436706 0.603867 0.157363
Si Si4 0.061347 0.205190 0.772364
Si Si5 0.561173 0.905012 0.010172
Si Si6 0.932206 0.903338 0.306150
Si Si7 0.061588 0.801154 0.544514
O O1 0.750000 0.103488 0.420141
O O2 0.585235 0.250112 0.406851
O O3 0.468872 0.100030 0.373603
O O4 0.513941 0.142740 0.487522
O O5 0.750000 0.895708 0.884205
O O6 0.998136 0.854490 0.826685
O O7 0.001213 0.901570 0.945058
O O8 0.500000 0.500000 0.159882
O O9 0.250000 0.601681 0.156657
O O10 0.487096 0.660419 0.213300
O O11 0.496607 0.653542 0.100820
O O12 0.250000 0.204532 0.775940
O O13 0.008119 0.311052 0.779950
O O14 0.750000 0.906093 0.008432
O O15 0.500000 0.000000 0.036906
O O16 0.515507 0.807145 0.038268
O O17 0.750000 0.900072 0.296631
O O18 0.000000 0.000000 0.283902
O O19 0.250000 0.803625 0.544641
#
# Coordination Sequence:
#
# PCOD9365393 Si02
#       7
#     8   8   8   8   8   8   8
#     4   8  15  31  53  75 103 141 180 220 266 316
#     4   7  12  27  50  72  99 134 170 207 254 308
#     4  11  24  40  60  82 106 139 181 229 278 326
#     4   9  19  38  58  77 107 146 184 224 269 320
#     4   9  17  30  51  80 110 142 175 213 264 321
#     4  11  21  33  54  84 115 146 179 221 272 329
#     4   9  19  37  58  78 108 148 188 230 274 320
#
# _framework density 19.136581
#
# number of rings (size 3 to 8) (size 9 to 14) (size 15 to 20)
#    0.000    2.857    0.000    4.286    0.000    3.429 
#    0.000    6.429    0.000    1.714    0.000    0.000 
#    0.000    0.000    0.000    0.000    0.000    0.000 
#
# Total GULP energy -156018.338186 kJ/mol
# GULP energy per Si atom -5572.083507 kJ/mol
# Density = 1.909302 g / cm^3
# Si number density = 19.136581 Si / 1000 Ang^3
#
#
#
# Elastic Constant Matrix: (Units=GPa)
#
#
# Indices 1 2 3 4 5 6 
#
# 1 22.7844 19.9654 20.8921 0.0000 0.0000 0.0000
# 2 19.9654 118.0135 58.5423 0.0000 0.0000 0.0000
# 3 20.8921 58.5423 142.5752 0.0000 0.0000 0.0000
# 4 0.0000 0.0000 0.0000 18.5607 0.0000 0.0000
# 5 0.0000 0.0000 0.0000 0.0000 21.4980 0.0000
# 6 0.0000 0.0000 0.0000 0.0000 0.0000 25.0828
#
#
#
# Elastic Compliance Matrix: (Units=1/GPa)
#
#
# Indices 1 2 3 4 5 6 
#
# 1 0.054516 -0.006606 -0.005276 0.000000 0.000000 0.000000
# 2 -0.006606 0.011441 -0.003730 0.000000 0.000000 0.000000
# 3 -0.005276 -0.003730 0.009319 0.000000 0.000000 0.000000
# 4 0.000000 0.000000 0.000000 0.053877 0.000000 0.000000
# 5 0.000000 0.000000 0.000000 0.000000 0.046516 0.000000
# 6 0.000000 0.000000 0.000000 0.000000 0.000000 0.039868
#
#
# Mechanical properties :
#
#
# Convention : Reuss Voigt Hill
#
# Bulk Modulus (GPa) = 22.70024 53.57475 38.13749
# Shear Modulus (GPa) = 19.12450 25.29319 22.20885
#
# Velocity S-wave (km/s) = 3.16471 3.63949 3.41037
# Velocity P-wave (km/s) = 5.02412 6.76150 5.95650
#
# Compressibility (1/GPa) = 0.04405240
#
# Stress axis : x y z
#
# Youngs Moduli (GPa) = 18.34327 87.40150 107.31309
#
# Poissons Ratio (x) = 0.57734 0.56620
# Poissons Ratio (y) = 0.12117 0.40028
# Poissons Ratio (z) = 0.09678 0.32601
#
# Static dielectric constant tensor:
#      x y z
#    x 1.661380 0.000000 0.000000 
#    y 0.000000 1.673600 0.000000 
#    z 0.000000 0.000000 1.687860 
# 
# From -- ./inp_files/22201.got.cif
#   From: 2010.05.17/outbox.cif.g08.bks.cpg/sg40_12_cif.got.tgz:22201.got - 2010.06.03 18:35:42.
