data_PCOD9365483
_publ_section_title
;
Structure prediction by ZEFSAII (Michael W. Deem and Ramdas Pophale) SiO2 
 PCOD9365483
Probable space group: A M A 2
;
_chemical_formula_sum "Si O2"
_cell_formula_units_Z 40
_cell_length_a 9.440726
_cell_length_b 18.318382
_cell_length_c 9.910757
_cell_angle_alpha 90.000000
_cell_angle_beta 90.000000
_cell_angle_gamma 90.000000
_cell_volume 1713.954673
_symmetry_space_group_name_H-M "A M A 2"
_symmetry_group_IT_number 40
_symmetry_cell_setting 'orthorhombic'
loop_
_space_group_symop_operation_xyz
x,y,z
-x,-y,z
1/2-x,y,z
1/2+x,-y,z
x,1/2+y,1/2+z
-x,1/2-y,1/2+z
1/2-x,1/2+y,1/2+z
1/2+x,1/2-y,1/2+z
loop_
_atom_site_type_symbol
_atom_site_label
_atom_site_fract_x
_atom_site_fract_y
_atom_site_fract_z
Si Si1 0.902103 0.812975 0.227180
Si Si2 0.550002 0.722287 0.962395
Si Si3 0.411077 0.622546 0.339911
Si Si4 0.412486 0.429954 0.078986
Si Si5 0.417792 0.429083 0.603057
O O1 0.750000 0.848802 0.196795
O O2 0.903285 0.787091 0.381465
O O3 0.923945 0.751800 0.112997
O O4 0.035457 0.864060 0.200510
O O5 0.603583 0.790339 0.870061
O O6 0.493504 0.599193 0.205284
O O7 0.598037 0.638830 0.978791
O O8 0.250000 0.593191 0.341521
O O9 0.507366 0.591761 0.461268
O O10 0.500000 0.500000 0.026009
O O11 0.250000 0.449570 0.116462
O O12 0.500000 0.500000 0.652671
O O13 0.250000 0.437647 0.591781
#
# Coordination Sequence:
#
# PCOD9365483 Si02
#       5
#     8   8   8   8   8
#     4  11  25  46  72 105 142 188 244 304 364 438
#     4  11  24  46  74 105 144 190 243 305 367 437
#     4  11  23  43  71 104 140 189 245 304 366 441
#     4  12  26  46  70 106 150 196 245 306 372 445
#     4  11  23  41  67 100 139 186 235 296 364 435
#
# _framework density 23.337841000000001
#
# number of rings (size 3 to 8) (size 9 to 14) (size 15 to 20)
#    0.000    0.800    2.000    6.600    0.000    8.000 
#    0.000    0.000    0.000    0.000    0.000    0.000 
#    0.000    0.000    0.000    0.000    0.000    0.000 
#
# Total GULP energy -111384.962630 kJ/mol
# GULP energy per Si atom -5569.248132 kJ/mol
# Density = 2.328472 g / cm^3
# Si number density = 23.337841 Si / 1000 Ang^3
#
#
#
# Elastic Constant Matrix: (Units=GPa)
#
#
# Indices 1 2 3 4 5 6 
#
# 1 236.6298 48.4623 45.5787 0.0000 0.0000 0.0000
# 2 48.4623 129.3168 -4.9570 0.0000 0.0000 0.0000
# 3 45.5787 -4.9570 80.2774 0.0000 0.0000 0.0000
# 4 0.0000 0.0000 0.0000 21.9308 0.0000 0.0000
# 5 0.0000 0.0000 0.0000 0.0000 -3.2859 0.0000
# 6 0.0000 0.0000 0.0000 0.0000 0.0000 135.1563
#
#
#
# Elastic Compliance Matrix: (Units=1/GPa)
#
#
# Indices 1 2 3 4 5 6 
#
# 1 0.005253 -0.002088 -0.003111 0.000000 0.000000 0.000000
# 2 -0.002088 0.008581 0.001715 0.000000 0.000000 0.000000
# 3 -0.003111 0.001715 0.014329 0.000000 0.000000 0.000000
# 4 0.000000 0.000000 0.000000 0.045598 0.000000 0.000000
# 5 0.000000 0.000000 0.000000 0.000000 -0.304331 0.000000
# 6 0.000000 0.000000 0.000000 0.000000 0.000000 0.007399
#
#
# Mechanical properties :
#
#
# Convention : Reuss Voigt Hill
#
# Bulk Modulus (GPa) = 47.17992 69.37689 58.27841
# Shear Modulus (GPa) = -23.90765 54.56958 15.33097
#
# Velocity S-wave (km/s) = -3.20412 4.84079 2.56581
# Velocity P-wave (km/s) = 2.56348 7.81256 5.81410
#
# Compressibility (1/GPa) = 0.02119546
#
# Stress axis : x y z
#
# Youngs Moduli (GPa) = 190.37132 116.53489 69.78748
#
# Poissons Ratio (x) = 0.24330 0.21713
# Poissons Ratio (y) = 0.39746 -0.11970
# Poissons Ratio (z) = 0.59231 -0.19989
#
# Static dielectric constant tensor:
#      x y z
#    x 1.824200 0.000000 0.000000 
#    y 0.000000 1.952170 0.000000 
#    z 0.000000 0.000000 1.927260 
# 
# From -- ./inp_files/14807.got.cif
#   From: 2010.05.17/outbox.cif.g08.bks.cpg/sg40_8_cif.got.tgz:14807.got - 2010.06.03 18:35:42.
