data_PCOD9365460
_publ_section_title
;
Structure prediction by ZEFSAII (Michael W. Deem and Ramdas Pophale) SiO2 
 PCOD9365460
Probable space group: A M A 2
;
_chemical_formula_sum "Si O2"
_cell_formula_units_Z 44
_cell_length_a 15.903062
_cell_length_b 19.837944
_cell_length_c 6.773584
_cell_angle_alpha 90.000000
_cell_angle_beta 90.000000
_cell_angle_gamma 90.000000
_cell_volume 2136.957736
_symmetry_space_group_name_H-M "A M A 2"
_symmetry_group_IT_number 40
_symmetry_cell_setting 'orthorhombic'
loop_
_space_group_symop_operation_xyz
x,y,z
-x,-y,z
1/2-x,y,z
1/2+x,-y,z
x,1/2+y,1/2+z
-x,1/2-y,1/2+z
1/2-x,1/2+y,1/2+z
1/2+x,1/2-y,1/2+z
loop_
_atom_site_type_symbol
_atom_site_label
_atom_site_fract_x
_atom_site_fract_y
_atom_site_fract_z
Si Si1 0.750000 0.392561 0.154280
Si Si2 0.000000 0.000000 0.698532
Si Si3 0.381601 0.635773 0.822249
Si Si4 0.898854 0.492335 0.553237
Si Si5 0.250000 0.853398 0.454938
Si Si6 0.750000 0.301892 0.544402
Si Si7 0.564118 0.098276 0.366091
Si Si8 0.250000 0.457329 0.302373
O O1 0.750000 0.356731 0.367481
O O2 0.750000 0.473613 0.173574
O O3 0.669023 0.370485 0.026249
O O4 0.050261 0.949157 0.558707
O O5 0.057683 0.038916 0.857338
O O6 0.370018 0.564358 0.706314
O O7 0.331927 0.687131 0.682283
O O8 0.481354 0.645686 0.856040
O O9 0.827239 0.535691 0.448825
O O10 0.946193 0.549311 0.679115
O O11 0.250000 0.773253 0.465010
O O12 0.340863 0.874416 0.364276
O O13 0.250000 0.892272 0.665401
#
# Coordination Sequence:
#
# PCOD9365460 Si02
#       8
#     4   4   8   8   4   4   8   4
#     4  11  22  43  76 100 127 178 238 298 345 417
#     4  12  20  36  68 106 142 174 222 292 360 422
#     4  11  22  43  72  99 134 177 240 294 346 433
#     4  12  21  38  67 110 136 169 230 299 356 416
#     4  12  28  48  64 103 151 191 234 298 371 437
#     4  11  27  50  65  98 144 183 247 294 359 437
#     4  12  24  43  67 104 146 177 235 292 358 431
#     4  12  21  39  71  97 136 186 217 290 369 403
#
# _framework density 20.590019000000002
#
# number of rings (size 3 to 8) (size 9 to 14) (size 15 to 20)
#    0.000    0.364    7.273    3.273    0.000    0.000 
#    9.818    0.000    0.000    0.000    0.000    0.000 
#    0.000    0.000    0.000    0.000    0.000    0.000 
#
# Total GULP energy -122691.237055 kJ/mol
# GULP energy per Si atom -5576.874412 kJ/mol
# Density = 2.054316 g / cm^3
# Si number density = 20.590019 Si / 1000 Ang^3
#
#
#
# Elastic Constant Matrix: (Units=GPa)
#
#
# Indices 1 2 3 4 5 6 
#
# 1 158.8061 19.4846 41.4889 0.0000 0.0000 0.0000
# 2 19.4846 45.1701 4.0851 0.0000 0.0000 0.0000
# 3 41.4889 4.0851 103.8777 0.0000 0.0000 0.0000
# 4 0.0000 0.0000 0.0000 10.5322 0.0000 0.0000
# 5 0.0000 0.0000 0.0000 0.0000 38.6153 0.0000
# 6 0.0000 0.0000 0.0000 0.0000 0.0000 21.4075
#
#
#
# Elastic Compliance Matrix: (Units=1/GPa)
#
#
# Indices 1 2 3 4 5 6 
#
# 1 0.007399 -0.002935 -0.002840 0.000000 0.000000 0.000000
# 2 -0.002935 0.023382 0.000253 0.000000 0.000000 0.000000
# 3 -0.002840 0.000253 0.010751 0.000000 0.000000 0.000000
# 4 0.000000 0.000000 0.000000 0.094947 0.000000 0.000000
# 5 0.000000 0.000000 0.000000 0.000000 0.025897 0.000000
# 6 0.000000 0.000000 0.000000 0.000000 0.000000 0.046713
#
#
# Mechanical properties :
#
#
# Convention : Reuss Voigt Hill
#
# Bulk Modulus (GPa) = 32.79999 48.66344 40.73171
# Shear Modulus (GPa) = 21.71141 30.29736 26.00438
#
# Velocity S-wave (km/s) = 3.25077 3.84012 3.55767
# Velocity P-wave (km/s) = 5.48221 6.58391 6.05815
#
# Compressibility (1/GPa) = 0.03048782
#
# Stress axis : x y z
#
# Youngs Moduli (GPa) = 135.15396 42.76858 93.01493
#
# Poissons Ratio (x) = 0.12552 0.26414
# Poissons Ratio (y) = 0.39665 -0.02350
# Poissons Ratio (z) = 0.38380 -0.01081
#
# Static dielectric constant tensor:
#      x y z
#    x 2.002120 0.000000 0.000000 
#    y 0.000000 1.674490 0.000000 
#    z 0.000000 0.000000 1.718570 
# 
# From -- ./inp_files/1861.got.cif
#   From: 2010.05.17/outbox.cif.g08.bks.cpg/sg40_1_cif.got.tgz:1861.got - 2010.06.03 18:35:42.
