data_PCOD9365594
_publ_section_title
;
Structure prediction by ZEFSAII (Michael W. Deem and Ramdas Pophale) SiO2 
 PCOD9365594
Probable space group: A M A 2
;
_chemical_formula_sum "Si O2"
_cell_formula_units_Z 32
_cell_length_a 26.667414
_cell_length_b 9.182521
_cell_length_c 5.240807
_cell_angle_alpha 90.000000
_cell_angle_beta 90.000000
_cell_angle_gamma 90.000000
_cell_volume 1283.337840
_symmetry_space_group_name_H-M "A M A 2"
_symmetry_group_IT_number 40
_symmetry_cell_setting 'orthorhombic'
loop_
_space_group_symop_operation_xyz
x,y,z
-x,-y,z
1/2-x,y,z
1/2+x,-y,z
x,1/2+y,1/2+z
-x,1/2-y,1/2+z
1/2-x,1/2+y,1/2+z
1/2+x,1/2-y,1/2+z
loop_
_atom_site_type_symbol
_atom_site_label
_atom_site_fract_x
_atom_site_fract_y
_atom_site_fract_z
Si Si1 0.846824 0.792130 0.065970
Si Si2 0.458133 0.894772 0.274354
Si Si3 0.809872 0.623527 0.565818
Si Si4 0.061116 0.690365 0.877903
O O1 0.823019 0.724064 0.322274
O O2 0.833058 0.961809 0.039172
O O3 0.827234 0.702678 0.825630
O O4 0.906949 0.782610 0.123342
O O5 0.423398 0.808989 0.083820
O O6 0.500675 0.798797 0.407344
O O7 0.500000 0.000000 0.127809
O O8 0.430611 0.019213 0.438697
O O9 0.750000 0.605751 0.576726
#
# Coordination Sequence:
#
# PCOD9365594 Si02
#       4
#     8   8   8   8
#     4  12  26  45  75 101 138 178 234 281 335 425
#     4   8  20  37  59  87 133 170 214 268 323 386
#     4  12  26  47  71 102 136 178 224 292 354 404
#     4   9  20  41  60  97 127 180 220 270 330 389
#
# _framework density 24.934975999999999
#
# number of rings (size 3 to 8) (size 9 to 14) (size 15 to 20)
#    1.500    0.000    0.000    5.250    0.000    6.000 
#    9.000    0.000    0.000    0.000    0.000    0.000 
#    0.000    0.000    0.000    0.000    0.000    0.000 
#
# Total GULP energy -89269.402361 kJ/mol
# GULP energy per Si atom -5579.337648 kJ/mol
# Density = 2.487822 g / cm^3
# Si number density = 24.934976 Si / 1000 Ang^3
#
#
#
# Elastic Constant Matrix: (Units=GPa)
#
#
# Indices 1 2 3 4 5 6 
#
# 1 116.1409 10.0497 0.6745 0.0000 0.0000 0.0000
# 2 10.0497 161.0086 52.3254 0.0000 0.0000 0.0000
# 3 0.6745 52.3254 104.7470 0.0000 0.0000 0.0000
# 4 0.0000 0.0000 0.0000 48.4444 0.0000 0.0000
# 5 0.0000 0.0000 0.0000 0.0000 37.7727 0.0000
# 6 0.0000 0.0000 0.0000 0.0000 0.0000 29.6712
#
#
#
# Elastic Compliance Matrix: (Units=1/GPa)
#
#
# Indices 1 2 3 4 5 6 
#
# 1 0.008663 -0.000624 0.000256 0.000000 0.000000 0.000000
# 2 -0.000624 0.007459 -0.003722 0.000000 0.000000 0.000000
# 3 0.000256 -0.003722 0.011405 0.000000 0.000000 0.000000
# 4 0.000000 0.000000 0.000000 0.020642 0.000000 0.000000
# 5 0.000000 0.000000 0.000000 0.000000 0.026474 0.000000
# 6 0.000000 0.000000 0.000000 0.000000 0.000000 0.033703
#
#
# Mechanical properties :
#
#
# Convention : Reuss Voigt Hill
#
# Bulk Modulus (GPa) = 51.68968 56.44397 54.06682
# Shear Modulus (GPa) = 40.65859 44.43412 42.54636
#
# Velocity S-wave (km/s) = 4.04243 4.22595 4.13521
# Velocity P-wave (km/s) = 6.52404 6.81888 6.67309
#
# Compressibility (1/GPa) = 0.01934622
#
# Stress axis : x y z
#
# Youngs Moduli (GPa) = 115.43709 134.05764 87.68394
#
# Poissons Ratio (x) = 0.08363 -0.02243
# Poissons Ratio (y) = 0.07202 0.32639
# Poissons Ratio (z) = -0.02954 0.49900
#
# Static dielectric constant tensor:
#      x y z
#    x 2.012420 0.000000 0.000000 
#    y 0.000000 2.158940 0.000000 
#    z 0.000000 0.000000 2.032210 
# 
# From -- ./inp_files/3254.got.cif
#   From: 2010.05.17/outbox.cif.g08.bks.cpg/sg40_2_cif.got.tgz:3254.got - 2010.06.03 18:35:42.
