data_PCOD9365306
_publ_section_title
;
Structure prediction by ZEFSAII (Michael W. Deem and Ramdas Pophale) SiO2 
 PCOD9365306
Probable space group: A M A 2
;
_chemical_formula_sum "Si O2"
_cell_formula_units_Z 28
_cell_length_a 26.118049
_cell_length_b 5.203184
_cell_length_c 8.028168
_cell_angle_alpha 90.000000
_cell_angle_beta 90.000000
_cell_angle_gamma 90.000000
_cell_volume 1091.004064
_symmetry_space_group_name_H-M "A M A 2"
_symmetry_group_IT_number 40
_symmetry_cell_setting 'orthorhombic'
loop_
_space_group_symop_operation_xyz
x,y,z
-x,-y,z
1/2-x,y,z
1/2+x,-y,z
x,1/2+y,1/2+z
-x,1/2-y,1/2+z
1/2-x,1/2+y,1/2+z
1/2+x,1/2-y,1/2+z
loop_
_atom_site_type_symbol
_atom_site_label
_atom_site_fract_x
_atom_site_fract_y
_atom_site_fract_z
Si Si1 0.034813 0.753307 0.455850
Si Si2 0.603710 0.564605 0.661435
Si Si3 0.327730 0.175102 0.414975
Si Si4 0.250000 0.975542 0.695122
O O1 0.076598 0.694326 0.597968
O O2 0.064859 0.796564 0.284237
O O3 0.000000 0.500000 0.448594
O O4 0.000000 0.000000 0.487547
O O5 0.620766 0.721948 0.500058
O O6 0.655502 0.505735 0.762908
O O7 0.294287 0.400615 0.334304
O O8 0.294237 0.031723 0.552536
#
# Coordination Sequence:
#
# PCOD9365306 Si02
#       4
#     8   8   8   4
#     4  12  29  50  77 111 152 201 253 312 377 448
#     4  12  27  47  74 108 150 194 250 307 373 442
#     4  11  25  44  71 106 144 192 243 304 369 443
#     4  10  24  44  72 104 146 190 244 300 372 442
#
# _framework density 25.664434
#
# number of rings (size 3 to 8) (size 9 to 14) (size 15 to 20)
#    0.000    0.571    0.000    6.000    0.000   20.571 
#    0.000    0.000    0.000    0.000    0.000    0.000 
#    0.000    0.000    0.000    0.000    0.000    0.000 
#
# Total GULP energy -78088.794061 kJ/mol
# GULP energy per Si atom -5577.771004 kJ/mol
# Density = 2.560602 g / cm^3
# Si number density = 25.664434 Si / 1000 Ang^3
#
#
#
# Elastic Constant Matrix: (Units=GPa)
#
#
# Indices 1 2 3 4 5 6 
#
# 1 106.5464 34.6174 37.2901 0.0000 0.0000 0.0000
# 2 34.6174 102.3032 33.9826 0.0000 0.0000 0.0000
# 3 37.2901 33.9826 151.6788 0.0000 0.0000 0.0000
# 4 0.0000 0.0000 0.0000 47.6686 0.0000 0.0000
# 5 0.0000 0.0000 0.0000 0.0000 73.2439 0.0000
# 6 0.0000 0.0000 0.0000 0.0000 0.0000 240.2353
#
#
#
# Elastic Compliance Matrix: (Units=1/GPa)
#
#
# Indices 1 2 3 4 5 6 
#
# 1 0.011099 -0.003079 -0.002039 0.000000 0.000000 0.000000
# 2 -0.003079 0.011415 -0.001801 0.000000 0.000000 0.000000
# 3 -0.002039 -0.001801 0.007498 0.000000 0.000000 0.000000
# 4 0.000000 0.000000 0.000000 0.020978 0.000000 0.000000
# 5 0.000000 0.000000 0.000000 0.000000 0.013653 0.000000
# 6 0.000000 0.000000 0.000000 0.000000 0.000000 0.004163
#
#
# Mechanical properties :
#
#
# Convention : Reuss Voigt Hill
#
# Bulk Modulus (GPa) = 61.82197 63.58984 62.70591
# Shear Modulus (GPa) = 56.79655 89.20544 73.00099
#
# Velocity S-wave (km/s) = 4.70940 5.90202 5.33912
# Velocity P-wave (km/s) = 7.32886 8.44253 7.90533
#
# Compressibility (1/GPa) = 0.01617548
#
# Stress axis : x y z
#
# Youngs Moduli (GPa) = 90.09445 87.60664 133.37637
#
# Poissons Ratio (x) = 0.26970 0.27196
# Poissons Ratio (y) = 0.27736 0.24015
# Poissons Ratio (z) = 0.18371 0.15774
#
# Static dielectric constant tensor:
#      x y z
#    x 1.940960 0.000000 0.000000 
#    y 0.000000 2.032830 0.000000 
#    z 0.000000 0.000000 1.926550 
# 
# From -- ./inp_files/2920.got.cif
#   From: 2010.05.17/outbox.cif.g08.bks.cpg/sg40_2_cif.got.tgz:2920.got - 2010.06.03 18:35:42.
