data_PCOD9365971
_publ_section_title
;
Structure prediction by ZEFSAII (Michael W. Deem and Ramdas Pophale) SiO2 
 PCOD9365971
Probable space group: A B A 2
;
_chemical_formula_sum "Si O2"
_cell_formula_units_Z 52
_cell_length_a 8.133875
_cell_length_b 14.509024
_cell_length_c 19.682510
_cell_angle_alpha 90.000000
_cell_angle_beta 90.000000
_cell_angle_gamma 90.000000
_cell_volume 2322.823300
_symmetry_space_group_name_H-M "A B A 2"
_symmetry_group_IT_number 41
_symmetry_cell_setting 'orthorhombic'
loop_
_space_group_symop_operation_xyz
x,y,z
-x,-y,z
1/2-x,y,1/2+z
1/2+x,-y,1/2+z
x,1/2+y,1/2+z
-x,1/2-y,1/2+z
1/2-x,1/2+y,z
1/2+x,1/2-y,z
loop_
_atom_site_type_symbol
_atom_site_label
_atom_site_fract_x
_atom_site_fract_y
_atom_site_fract_z
Si Si1 0.314550 0.667493 0.033950
Si Si2 0.000000 0.000000 0.416509
Si Si3 0.349314 0.072628 0.387879
Si Si4 0.659184 0.883528 0.241476
Si Si5 0.016837 0.610794 0.668894
Si Si6 0.565859 0.127569 0.039944
Si Si7 0.832451 0.590216 0.182360
O O1 0.437043 0.629171 0.090963
O O2 0.340721 0.776497 0.033893
O O3 0.127122 0.644720 0.053588
O O4 0.347765 0.624892 0.959777
O O5 0.931173 0.076781 0.468259
O O6 0.163758 0.031851 0.378030
O O7 0.369959 0.133409 0.320570
O O8 0.500000 0.000000 0.388607
O O9 0.832760 0.851208 0.212868
O O10 0.494981 0.854357 0.202351
O O11 0.668131 0.995111 0.224975
O O12 0.000000 0.500000 0.676637
O O13 0.837036 0.644227 0.690342
O O14 0.646196 0.070708 0.101766
#
# Coordination Sequence:
#
# PCOD9365971 Si02
#       7
#     8   4   8   8   8   8   8
#     4  11  24  40  63  98 130 166 217 271 329 387
#     4  10  26  40  66  94 122 170 224 258 322 390
#     4  11  24  39  66  94 131 176 212 265 328 396
#     4  10  20  38  62  96 129 165 216 261 316 392
#     4  10  21  35  66  93 128 166 218 267 315 381
#     4  11  23  42  66  95 130 164 216 280 318 382
#     4  10  19  35  62  90 122 165 210 271 308 366
#
# _framework density 22.38655
#
# number of rings (size 3 to 8) (size 9 to 14) (size 15 to 20)
#    0.000    1.538    3.077    2.308   14.000    0.000 
#    0.000    0.000   10.154    0.000    0.000    0.000 
#    0.000    0.000    0.000    0.000    0.000    0.000 
#
# Total GULP energy -145293.995966 kJ/mol
# GULP energy per Si atom -5588.230614 kJ/mol
# Density = 2.233560 g / cm^3
# Si number density = 22.386550 Si / 1000 Ang^3
#
#
#
# Elastic Constant Matrix: (Units=GPa)
#
#
# Indices 1 2 3 4 5 6 
#
# 1 126.1724 2.9934 43.5988 0.0000 0.0000 0.0000
# 2 2.9934 49.2973 -2.3803 0.0000 0.0000 0.0000
# 3 43.5988 -2.3803 109.1753 0.0000 0.0000 0.0000
# 4 0.0000 0.0000 0.0000 -16.4651 0.0000 0.0000
# 5 0.0000 0.0000 0.0000 0.0000 181.9623 0.0000
# 6 0.0000 0.0000 0.0000 0.0000 0.0000 26.7413
#
#
#
# Elastic Compliance Matrix: (Units=1/GPa)
#
#
# Indices 1 2 3 4 5 6 
#
# 1 0.009221 -0.000739 -0.003699 0.000000 0.000000 0.000000
# 2 -0.000739 0.020366 0.000739 0.000000 0.000000 0.000000
# 3 -0.003699 0.000739 0.010653 0.000000 0.000000 0.000000
# 4 0.000000 0.000000 0.000000 -0.060734 0.000000 0.000000
# 5 0.000000 0.000000 0.000000 0.000000 0.005496 0.000000
# 6 0.000000 0.000000 0.000000 0.000000 0.000000 0.037395
#
#
# Mechanical properties :
#
#
# Convention : Reuss Voigt Hill
#
# Bulk Modulus (GPa) = 30.44761 41.45207 35.94984
# Shear Modulus (GPa) = 122.72942 54.47658 88.60300
#
# Velocity S-wave (km/s) = 7.41228 4.93835 6.29798
# Velocity P-wave (km/s) = 9.32128 7.14655 8.30540
#
# Compressibility (1/GPa) = 0.03284330
#
# Stress axis : x y z
#
# Youngs Moduli (GPa) = 108.44552 49.10235 93.87286
#
# Poissons Ratio (x) = 0.03626 0.34719
# Poissons Ratio (y) = 0.08009 -0.06937
# Poissons Ratio (z) = 0.40109 -0.03628
#
# Static dielectric constant tensor:
#      x y z
#    x 1.866510 0.000000 0.000000 
#    y 0.000000 1.901920 0.000000 
#    z 0.000000 0.000000 1.774950 
# 
# From -- ./inp_files/9737.got.cif
#   From: 2010.05.17/outbox.cif.g08.bks.cpg/sg41_5_cif.got.tgz:9737.got - 2010.06.03 18:54:24.
