data_PCOD9365273
_publ_section_title
;
Structure prediction by ZEFSAII (Michael W. Deem and Ramdas Pophale) SiO2 
 PCOD9365273
Probable space group: A M A 2
;
_chemical_formula_sum "Si O2"
_cell_formula_units_Z 60
_cell_length_a 14.370567
_cell_length_b 17.791247
_cell_length_c 9.758731
_cell_angle_alpha 90.000000
_cell_angle_beta 90.000000
_cell_angle_gamma 90.000000
_cell_volume 2495.017751
_symmetry_space_group_name_H-M "A M A 2"
_symmetry_group_IT_number 40
_symmetry_cell_setting 'orthorhombic'
loop_
_space_group_symop_operation_xyz
x,y,z
-x,-y,z
1/2-x,y,z
1/2+x,-y,z
x,1/2+y,1/2+z
-x,1/2-y,1/2+z
1/2-x,1/2+y,1/2+z
1/2+x,1/2-y,1/2+z
loop_
_atom_site_type_symbol
_atom_site_label
_atom_site_fract_x
_atom_site_fract_y
_atom_site_fract_z
Si Si1 0.853758 0.827010 0.162420
Si Si2 0.112562 0.571994 0.903888
Si Si3 0.750000 0.631340 0.102416
Si Si4 0.577346 0.935676 0.699741
Si Si5 0.642734 0.967307 0.993854
Si Si6 0.362404 0.365081 0.558155
Si Si7 0.922781 0.178319 0.774251
Si Si8 0.394776 0.901496 0.359619
O O1 0.750000 0.800657 0.114098
O O2 0.843354 0.866233 0.308820
O O3 0.915506 0.755305 0.190302
O O4 0.895045 0.892273 0.066930
O O5 0.132690 0.489747 0.841363
O O6 0.002666 0.591406 0.899621
O O7 0.137242 0.570937 0.063019
O O8 0.668595 0.628804 0.981429
O O9 0.832794 0.632334 0.220528
O O10 0.634963 0.957180 0.832494
O O11 0.517845 0.862682 0.737686
O O12 0.500000 0.000000 0.674298
O O13 0.750000 0.968032 0.038737
O O14 0.603278 0.048917 0.028476
O O15 0.250000 0.361163 0.543692
O O16 0.408119 0.315041 0.438499
O O17 0.383807 0.355503 0.719044
#
# Coordination Sequence:
#
# PCOD9365273 Si02
#       8
#     8   8   4   8   8   8   8   8
#     4  11  25  47  66  95 140 187 221 271 356 420
#     4  11  24  41  63  99 137 175 226 278 347 402
#     4  12  22  44  66  96 136 176 214 282 348 400
#     4  12  23  43  66 105 134 170 237 291 337 397
#     4  10  24  41  68  97 133 178 226 279 336 406
#     4  11  21  38  66 103 125 170 234 272 329 401
#     4  12  25  43  72  96 136 181 220 285 348 408
#     4  11  23  39  67 101 130 170 224 290 328 396
#
# _framework density 24.047923000000001
#
# number of rings (size 3 to 8) (size 9 to 14) (size 15 to 20)
#    0.000    0.800    7.333    0.000    2.800    1.600 
#    0.000    0.000    0.000    0.000    0.000    0.000 
#    0.000    0.000    0.000    0.000    0.000    0.000 
#
# Total GULP energy -167409.686265 kJ/mol
# GULP energy per Si atom -5580.322875 kJ/mol
# Density = 2.399319 g / cm^3
# Si number density = 24.047923 Si / 1000 Ang^3
#
#
#
# Elastic Constant Matrix: (Units=GPa)
#
#
# Indices 1 2 3 4 5 6 
#
# 1 82.9256 7.3358 7.9710 0.0000 0.0000 0.0000
# 2 7.3358 38.3962 -5.5464 0.0000 0.0000 0.0000
# 3 7.9710 -5.5464 121.0460 0.0000 0.0000 0.0000
# 4 0.0000 0.0000 0.0000 26.4331 0.0000 0.0000
# 5 0.0000 0.0000 0.0000 0.0000 31.0869 0.0000
# 6 0.0000 0.0000 0.0000 0.0000 0.0000 -6.6518
#
#
#
# Elastic Compliance Matrix: (Units=1/GPa)
#
#
# Indices 1 2 3 4 5 6 
#
# 1 0.012369 -0.002497 -0.000929 0.000000 0.000000 0.000000
# 2 -0.002497 0.026722 0.001389 0.000000 0.000000 0.000000
# 3 -0.000929 0.001389 0.008386 0.000000 0.000000 0.000000
# 4 0.000000 0.000000 0.000000 0.037831 0.000000 0.000000
# 5 0.000000 0.000000 0.000000 0.000000 0.032168 0.000000
# 6 0.000000 0.000000 0.000000 0.000000 0.000000 -0.150334
#
#
# Mechanical properties :
#
#
# Convention : Reuss Voigt Hill
#
# Bulk Modulus (GPa) = 23.04022 29.09874 26.06948
# Shear Modulus (GPa) = -349.27467 25.68080 -161.79694
#
# Velocity S-wave (km/s) = -12.06468 3.27142 -8.21140
# Velocity P-wave (km/s) = 13.58210 5.13772 8.89037
#
# Compressibility (1/GPa) = 0.04340237
#
# Stress axis : x y z
#
# Youngs Moduli (GPa) = 80.84585 37.42237 119.24450
#
# Poissons Ratio (x) = 0.09346 0.11077
# Poissons Ratio (y) = 0.20190 -0.16562
# Poissons Ratio (z) = 0.07510 -0.05197
#
# Static dielectric constant tensor:
#      x y z
#    x 1.919740 0.000000 0.000000 
#    y 0.000000 1.976480 0.000000 
#    z 0.000000 0.000000 1.896040 
# 
# From -- ./inp_files/7692.got.cif
#   From: 2010.05.17/outbox.cif.g08.bks.cpg/sg40_4_cif.got.tgz:7692.got - 2010.06.03 18:35:42.
