data_PCOD9365182
_publ_section_title
;
Structure prediction by ZEFSAII (Michael W. Deem and Ramdas Pophale) SiO2 
 PCOD9365182
Probable space group: A M A 2
;
_chemical_formula_sum "Si O2"
_cell_formula_units_Z 64
_cell_length_a 15.317340
_cell_length_b 15.529723
_cell_length_c 12.080841
_cell_angle_alpha 90.000000
_cell_angle_beta 90.000000
_cell_angle_gamma 90.000000
_cell_volume 2873.718543
_symmetry_space_group_name_H-M "A M A 2"
_symmetry_group_IT_number 40
_symmetry_cell_setting 'orthorhombic'
loop_
_space_group_symop_operation_xyz
x,y,z
-x,-y,z
1/2-x,y,z
1/2+x,-y,z
x,1/2+y,1/2+z
-x,1/2-y,1/2+z
1/2-x,1/2+y,1/2+z
1/2+x,1/2-y,1/2+z
loop_
_atom_site_type_symbol
_atom_site_label
_atom_site_fract_x
_atom_site_fract_y
_atom_site_fract_z
Si Si1 0.855184 0.198409 0.138620
Si Si2 0.854794 0.842178 0.231895
Si Si3 0.591163 0.548383 0.017294
Si Si4 0.892966 0.010499 0.758692
Si Si5 0.893133 0.826409 0.820310
Si Si6 0.907394 0.183345 0.883632
Si Si7 0.148314 0.968655 0.270949
Si Si8 0.651936 0.727975 0.027491
O O1 0.750000 0.204426 0.147511
O O2 0.893098 0.282264 0.200091
O O3 0.887663 0.114307 0.206735
O O4 0.879591 0.189255 0.010638
O O5 0.750000 0.847791 0.244332
O O6 0.884889 0.771738 0.320646
O O7 0.891795 0.938091 0.244292
O O8 0.873036 0.803300 0.111421
O O9 0.500000 0.500000 0.001808
O O10 0.642475 0.541326 0.902905
O O11 0.584063 0.650537 0.037540
O O12 0.633294 0.513350 0.129977
O O13 0.869001 0.098749 0.821231
O O14 0.858816 0.923454 0.814100
O O15 0.000000 0.000000 0.757474
O O16 0.843942 0.763863 0.904055
O O17 0.989603 0.828581 0.870580
O O18 0.250000 0.971568 0.237984
O O19 0.750000 0.697183 0.058540
#
# Coordination Sequence:
#
# PCOD9365182 Si02
#       8
#     8   8   8   8   8   8   8   8
#     4  11  25  46  68  98 139 180 224 282 348 409
#     4  10  23  41  65  96 131 174 223 276 338 405
#     4  11  22  40  67  96 129 171 224 278 335 401
#     4   9  22  43  62  95 132 165 217 279 338 396
#     4  11  25  42  69  98 132 176 225 280 338 412
#     4  11  24  43  68  97 135 174 220 287 340 402
#     4  10  23  43  64  94 133 173 221 274 333 409
#     4  11  23  44  68  94 132 178 224 275 339 413
#
# _framework density 22.270797000000002
#
# number of rings (size 3 to 8) (size 9 to 14) (size 15 to 20)
#    0.000    1.500    2.500    1.125    7.000    0.000 
#    0.000    3.750    0.000    0.000    0.000    0.000 
#    0.000    0.000    0.000    0.000    0.000    0.000 
#
# Total GULP energy -178886.511528 kJ/mol
# GULP energy per Si atom -5590.203485 kJ/mol
# Density = 2.222011 g / cm^3
# Si number density = 22.270797 Si / 1000 Ang^3
#
#
#
# Elastic Constant Matrix: (Units=GPa)
#
#
# Indices 1 2 3 4 5 6 
#
# 1 38.9559 9.8967 0.9873 0.0000 0.0000 0.0000
# 2 9.8967 109.7434 11.3725 0.0000 0.0000 0.0000
# 3 0.9873 11.3725 98.8867 0.0000 0.0000 0.0000
# 4 0.0000 0.0000 0.0000 34.1602 0.0000 0.0000
# 5 0.0000 0.0000 0.0000 0.0000 30.0798 0.0000
# 6 0.0000 0.0000 0.0000 0.0000 0.0000 12.2173
#
#
#
# Elastic Compliance Matrix: (Units=1/GPa)
#
#
# Indices 1 2 3 4 5 6 
#
# 1 0.026272 -0.002370 0.000010 0.000000 0.000000 0.000000
# 2 -0.002370 0.009436 -0.001062 0.000000 0.000000 0.000000
# 3 0.000010 -0.001062 0.010235 0.000000 0.000000 0.000000
# 4 0.000000 0.000000 0.000000 0.029274 0.000000 0.000000
# 5 0.000000 0.000000 0.000000 0.000000 0.033245 0.000000
# 6 0.000000 0.000000 0.000000 0.000000 0.000000 0.081851
#
#
# Mechanical properties :
#
#
# Convention : Reuss Voigt Hill
#
# Bulk Modulus (GPa) = 25.57579 32.45543 29.01561
# Shear Modulus (GPa) = 23.78813 30.31341 27.05077
#
# Velocity S-wave (km/s) = 3.27177 3.69335 3.48893
# Velocity P-wave (km/s) = 5.07756 5.72647 5.41175
#
# Compressibility (1/GPa) = 0.03909947
#
# Stress axis : x y z
#
# Youngs Moduli (GPa) = 38.06336 105.97806 97.70814
#
# Poissons Ratio (x) = 0.25120 -0.00101
# Poissons Ratio (y) = 0.09022 0.10372
# Poissons Ratio (z) = -0.00039 0.11250
#
# Static dielectric constant tensor:
#      x y z
#    x 1.816470 0.000000 0.000000 
#    y 0.000000 1.829270 0.000000 
#    z 0.000000 0.000000 1.781820 
# 
# From -- ./inp_files/13145.got.cif
#   From: 2010.05.17/outbox.cif.g08.bks.cpg/sg40_7_cif.got.tgz:13145.got - 2010.06.03 18:35:42.
