data_PCOD9365415
_publ_section_title
;
Structure prediction by ZEFSAII (Michael W. Deem and Ramdas Pophale) SiO2 
 PCOD9365415
Probable space group: A M A 2
;
_chemical_formula_sum "Si O2"
_cell_formula_units_Z 48
_cell_length_a 14.298341
_cell_length_b 17.137795
_cell_length_c 9.901741
_cell_angle_alpha 90.000000
_cell_angle_beta 90.000000
_cell_angle_gamma 90.000000
_cell_volume 2426.342783
_symmetry_space_group_name_H-M "A M A 2"
_symmetry_group_IT_number 40
_symmetry_cell_setting 'orthorhombic'
loop_
_space_group_symop_operation_xyz
x,y,z
-x,-y,z
1/2-x,y,z
1/2+x,-y,z
x,1/2+y,1/2+z
-x,1/2-y,1/2+z
1/2-x,1/2+y,1/2+z
1/2+x,1/2-y,1/2+z
loop_
_atom_site_type_symbol
_atom_site_label
_atom_site_fract_x
_atom_site_fract_y
_atom_site_fract_z
Si Si1 0.540740 0.415445 0.314340
Si Si2 0.449423 0.870333 0.543435
Si Si3 0.054316 0.424342 0.742718
Si Si4 0.750000 0.702891 0.451896
Si Si5 0.750000 0.452760 0.366607
Si Si6 0.750000 0.046236 0.132749
Si Si7 0.456290 0.792308 0.019176
Si Si8 0.250000 0.890218 0.682688
O O1 0.500000 0.500000 0.357379
O O2 0.516725 0.405379 0.157643
O O3 0.651539 0.410809 0.339104
O O4 0.485685 0.348805 0.396098
O O5 0.467699 0.906203 0.397112
O O6 0.473101 0.778823 0.533769
O O7 0.343760 0.884882 0.594298
O O8 0.160872 0.449231 0.725801
O O9 0.040093 0.348002 0.650404
O O10 0.000000 0.500000 0.691043
O O11 0.750000 0.622581 0.537414
O O12 0.649616 0.738978 0.492075
O O13 0.750000 0.678651 0.294903
O O14 0.750000 0.477289 0.523983
O O15 0.750000 0.529718 0.270297
#
# Coordination Sequence:
#
# PCOD9365415 Si02
#       8
#     8   8   8   4   4   4   8   4
#     4  12  22  42  69  97 125 175 234 274 319 403
#     4  12  25  40  64 101 134 170 214 274 342 399
#     4  11  23  40  62  94 132 167 205 270 333 384
#     4   9  18  39  68  86 120 174 220 252 320 390
#     4  11  22  38  73  99 122 171 245 283 310 395
#     4   9  19  40  62  94 119 171 215 263 318 396
#     4  11  23  42  68  95 131 173 224 269 324 404
#     4  11  21  41  67  91 129 176 210 268 344 401
#
# _framework density 19.782861
#
# number of rings (size 3 to 8) (size 9 to 14) (size 15 to 20)
#    0.000    1.000    3.333    5.500    0.000    1.333 
#    0.000    3.333    0.000    0.000    0.000    0.000 
#    0.000    0.000    0.000    0.000    0.000    0.000 
#
# Total GULP energy -134103.000533 kJ/mol
# GULP energy per Si atom -5587.625022 kJ/mol
# Density = 1.973783 g / cm^3
# Si number density = 19.782861 Si / 1000 Ang^3
#
#
#
# Elastic Constant Matrix: (Units=GPa)
#
#
# Indices 1 2 3 4 5 6 
#
# 1 99.2334 16.0792 9.2562 0.0000 0.0000 0.0000
# 2 16.0792 63.8183 11.6993 0.0000 0.0000 0.0000
# 3 9.2562 11.6993 108.0223 0.0000 0.0000 0.0000
# 4 0.0000 0.0000 0.0000 17.3143 0.0000 0.0000
# 5 0.0000 0.0000 0.0000 0.0000 31.0212 0.0000
# 6 0.0000 0.0000 0.0000 0.0000 0.0000 17.7519
#
#
#
# Elastic Compliance Matrix: (Units=1/GPa)
#
#
# Indices 1 2 3 4 5 6 
#
# 1 0.010548 -0.002542 -0.000628 0.000000 0.000000 0.000000
# 2 -0.002542 0.016600 -0.001580 0.000000 0.000000 0.000000
# 3 -0.000628 -0.001580 0.009482 0.000000 0.000000 0.000000
# 4 0.000000 0.000000 0.000000 0.057756 0.000000 0.000000
# 5 0.000000 0.000000 0.000000 0.000000 0.032236 0.000000
# 6 0.000000 0.000000 0.000000 0.000000 0.000000 0.056332
#
#
# Mechanical properties :
#
#
# Convention : Reuss Voigt Hill
#
# Bulk Modulus (GPa) = 36.86195 38.34927 37.60561
# Shear Modulus (GPa) = 24.81417 28.82011 26.81714
#
# Velocity S-wave (km/s) = 3.54549 3.82097 3.68581
# Velocity P-wave (km/s) = 5.95268 6.23648 6.09623
#
# Compressibility (1/GPa) = 0.02712824
#
# Stress axis : x y z
#
# Youngs Moduli (GPa) = 94.80628 60.24216 105.45944
#
# Poissons Ratio (x) = 0.15316 0.06628
# Poissons Ratio (y) = 0.24103 0.16662
# Poissons Ratio (z) = 0.05958 0.09518
#
# Static dielectric constant tensor:
#      x y z
#    x 1.693240 0.000000 0.000000 
#    y 0.000000 1.683090 0.000000 
#    z 0.000000 0.000000 1.682810 
# 
# From -- ./inp_files/6531.got.cif
#   From: 2010.05.17/outbox.cif.g08.bks.cpg/sg40_4_cif.got.tgz:6531.got - 2010.06.03 18:35:42.
