data_PCOD9365102
_publ_section_title
;
Structure prediction by ZEFSAII (Michael W. Deem and Ramdas Pophale) SiO2 
 PCOD9365102
Probable space group: A M A 2
;
_chemical_formula_sum "Si O2"
_cell_formula_units_Z 36
_cell_length_a 14.834265
_cell_length_b 5.088997
_cell_length_c 20.155920
_cell_angle_alpha 90.000000
_cell_angle_beta 90.000000
_cell_angle_gamma 90.000000
_cell_volume 1521.601241
_symmetry_space_group_name_H-M "A M A 2"
_symmetry_group_IT_number 40
_symmetry_cell_setting 'orthorhombic'
loop_
_space_group_symop_operation_xyz
x,y,z
-x,-y,z
1/2-x,y,z
1/2+x,-y,z
x,1/2+y,1/2+z
-x,1/2-y,1/2+z
1/2-x,1/2+y,1/2+z
1/2+x,1/2-y,1/2+z
loop_
_atom_site_type_symbol
_atom_site_label
_atom_site_fract_x
_atom_site_fract_y
_atom_site_fract_z
Si Si1 0.146676 0.772484 0.492360
Si Si2 0.652516 0.384173 0.210382
Si Si3 0.900778 0.407179 0.634821
Si Si4 0.500000 0.500000 0.305527
Si Si5 0.644596 0.242147 0.901065
O O1 0.250000 0.827895 0.512643
O O2 0.097602 0.698747 0.559984
O O3 0.145746 0.521337 0.444850
O O4 0.116675 0.020015 0.449235
O O5 0.750000 0.374748 0.244475
O O6 0.635207 0.671053 0.179871
O O7 0.570762 0.337584 0.260782
O O8 0.653166 0.171797 0.151266
O O9 0.000000 0.500000 0.651782
O O10 0.567600 0.686529 0.346986
O O11 0.750000 0.289735 0.878616
#
# Coordination Sequence:
#
# PCOD9365102 Si02
#       5
#     8   8   8   4   8
#     4  10  22  43  70 102 138 180 233 295 368 431
#     4  12  26  46  74 106 148 196 242 305 371 435
#     4  12  24  46  73 112 144 186 242 308 373 444
#     4  12  26  48  68 106 148 194 256 292 350 438
#     4  10  24  44  69 100 139 189 238 294 358 425
#
# _framework density 23.659289999999999
#
# number of rings (size 3 to 8) (size 9 to 14) (size 15 to 20)
#    0.000    0.889    2.222    4.000    1.556    6.222 
#    0.000    4.444    0.000    0.000    0.000    0.000 
#    0.000    0.000    0.000    0.000    0.000    0.000 
#
# Total GULP energy -100708.669603 kJ/mol
# GULP energy per Si atom -5594.926089 kJ/mol
# Density = 2.360544 g / cm^3
# Si number density = 23.659290 Si / 1000 Ang^3
#
#
#
# Elastic Constant Matrix: (Units=GPa)
#
#
# Indices 1 2 3 4 5 6 
#
# 1 179.6182 38.7049 63.3585 0.0000 0.0000 0.0000
# 2 38.7049 152.7148 45.2935 0.0000 0.0000 0.0000
# 3 63.3585 45.2935 97.1656 0.0000 0.0000 0.0000
# 4 0.0000 0.0000 0.0000 42.8029 0.0000 0.0000
# 5 0.0000 0.0000 0.0000 0.0000 63.1871 0.0000
# 6 0.0000 0.0000 0.0000 0.0000 0.0000 22.2256
#
#
#
# Elastic Compliance Matrix: (Units=1/GPa)
#
#
# Indices 1 2 3 4 5 6 
#
# 1 0.007264 -0.000506 -0.004501 0.000000 0.000000 0.000000
# 2 -0.000506 0.007634 -0.003228 0.000000 0.000000 0.000000
# 3 -0.004501 -0.003228 0.014731 0.000000 0.000000 0.000000
# 4 0.000000 0.000000 0.000000 0.023363 0.000000 0.000000
# 5 0.000000 0.000000 0.000000 0.000000 0.015826 0.000000
# 6 0.000000 0.000000 0.000000 0.000000 0.000000 0.044993
#
#
# Mechanical properties :
#
#
# Convention : Reuss Voigt Hill
#
# Bulk Modulus (GPa) = 75.99534 80.46802 78.23168
# Shear Modulus (GPa) = 37.12826 44.45257 40.79042
#
# Velocity S-wave (km/s) = 3.96572 4.33929 4.15670
# Velocity P-wave (km/s) = 7.29107 7.69356 7.49502
#
# Compressibility (1/GPa) = 0.01315870
#
# Stress axis : x y z
#
# Youngs Moduli (GPa) = 137.66525 130.99328 67.88227
#
# Poissons Ratio (x) = 0.06631 0.30551
# Poissons Ratio (y) = 0.06968 0.21916
# Poissons Ratio (z) = 0.61958 0.42291
#
# Static dielectric constant tensor:
#      x y z
#    x 1.944420 0.000000 0.000000 
#    y 0.000000 1.868050 0.000000 
#    z 0.000000 0.000000 1.901080 
# 
# From -- ./inp_files/22946.got.cif
#   From: 2010.05.17/outbox.cif.g08.bks.cpg/sg40_12_cif.got.tgz:22946.got - 2010.06.03 18:35:42.
