data_PCOD9365262
_publ_section_title
;
Structure prediction by ZEFSAII (Michael W. Deem and Ramdas Pophale) SiO2 
 PCOD9365262
Probable space group: A M A 2
;
_chemical_formula_sum "Si O2"
_cell_formula_units_Z 44
_cell_length_a 15.208502
_cell_length_b 5.068092
_cell_length_c 24.415514
_cell_angle_alpha 90.000000
_cell_angle_beta 90.000000
_cell_angle_gamma 90.000000
_cell_volume 1881.901120
_symmetry_space_group_name_H-M "A M A 2"
_symmetry_group_IT_number 40
_symmetry_cell_setting 'orthorhombic'
loop_
_space_group_symop_operation_xyz
x,y,z
-x,-y,z
1/2-x,y,z
1/2+x,-y,z
x,1/2+y,1/2+z
-x,1/2-y,1/2+z
1/2-x,1/2+y,1/2+z
1/2+x,1/2-y,1/2+z
loop_
_atom_site_type_symbol
_atom_site_label
_atom_site_fract_x
_atom_site_fract_y
_atom_site_fract_z
Si Si1 0.750000 0.865136 0.464500
Si Si2 0.855458 0.434731 0.613221
Si Si3 0.849356 0.650652 0.309409
Si Si4 0.854813 0.246712 0.225768
Si Si5 0.500000 0.500000 0.804751
Si Si6 0.750000 0.350947 0.391199
Si Si7 0.595311 0.927512 0.549052
O O1 0.750000 0.062675 0.414156
O O2 0.667596 0.939186 0.502217
O O3 0.750000 0.568935 0.440055
O O4 0.750000 0.439223 0.606634
O O5 0.874398 0.594071 0.669316
O O6 0.884088 0.135171 0.599096
O O7 0.899486 0.628272 0.569590
O O8 0.750000 0.774736 0.310039
O O9 0.863309 0.554515 0.246100
O O10 0.831558 0.408485 0.350873
O O11 0.934943 0.793653 0.332929
O O12 0.750000 0.205794 0.233588
O O13 0.926816 0.130677 0.266216
O O14 0.500000 0.000000 0.528178
#
# Coordination Sequence:
#
# PCOD9365262 Si02
#       7
#     4   8   8   8   4   4   8
#     4  12  24  52  74 103 139 186 242 302 382 413
#     4  11  23  45  72 105 144 196 234 284 361 428
#     4   9  23  44  66 102 137 190 231 294 358 423
#     4  10  24  40  64  99 148 189 232 278 344 440
#     4  12  22  38  68  98 146 180 236 284 352 410
#     4  10  26  46  82  93 139 186 236 304 366 429
#     4  12  26  45  74 106 145 184 240 303 359 433
#
# _framework density 23.380610999999998
#
# number of rings (size 3 to 8) (size 9 to 14) (size 15 to 20)
#    0.545    0.727    1.818    2.727    7.636    0.000 
#    1.636    0.000    0.000    0.000    0.000    0.000 
#    0.000    0.000    0.000    0.000    0.000    0.000 
#
# Total GULP energy -122562.435940 kJ/mol
# GULP energy per Si atom -5571.019815 kJ/mol
# Density = 2.332740 g / cm^3
# Si number density = 23.380611 Si / 1000 Ang^3
#
#
#
# Elastic Constant Matrix: (Units=GPa)
#
#
# Indices 1 2 3 4 5 6 
#
# 1 107.4505 11.4343 22.6454 0.0000 0.0000 0.0000
# 2 11.4343 90.4107 18.2668 0.0000 0.0000 0.0000
# 3 22.6454 18.2668 70.0335 0.0000 0.0000 0.0000
# 4 0.0000 0.0000 0.0000 173.3536 0.0000 0.0000
# 5 0.0000 0.0000 0.0000 0.0000 -677.6674 0.0000
# 6 0.0000 0.0000 0.0000 0.0000 0.0000 35.6915
#
#
#
# Elastic Compliance Matrix: (Units=1/GPa)
#
#
# Indices 1 2 3 4 5 6 
#
# 1 0.010023 -0.000647 -0.003072 0.000000 0.000000 0.000000
# 2 -0.000647 0.011718 -0.002847 0.000000 0.000000 0.000000
# 3 -0.003072 -0.002847 0.016015 0.000000 0.000000 0.000000
# 4 0.000000 0.000000 0.000000 0.005769 0.000000 0.000000
# 5 0.000000 0.000000 0.000000 0.000000 -0.001476 0.000000
# 6 0.000000 0.000000 0.000000 0.000000 0.000000 0.028018
#
#
# Mechanical properties :
#
#
# Convention : Reuss Voigt Hill
#
# Bulk Modulus (GPa) = 40.61236 41.39863 41.00549
# Shear Modulus (GPa) = 54.70075 -79.35459 -12.32692
#
# Velocity S-wave (km/s) = 4.84217 -5.83215 -2.29864
# Velocity P-wave (km/s) = 6.97638 5.25425 3.24520
#
# Compressibility (1/GPa) = 0.02462305
#
# Stress axis : x y z
#
# Youngs Moduli (GPa) = 99.77137 85.34102 62.44190
#
# Poissons Ratio (x) = 0.05521 0.19183
# Poissons Ratio (y) = 0.06454 0.17778
# Poissons Ratio (z) = 0.30652 0.24298
#
# Static dielectric constant tensor:
#      x y z
#    x 2.049880 0.000000 0.000000 
#    y 0.000000 2.088710 0.000000 
#    z 0.000000 0.000000 1.906400 
# 
# From -- ./inp_files/25695.got.cif
#   From: 2010.05.17/outbox.cif.g08.bks.cpg/sg40_13_cif.got.tgz:25695.got - 2010.06.03 18:35:42.
