data_PCOD9365781
_publ_section_title
;
Structure prediction by ZEFSAII (Michael W. Deem and Ramdas Pophale) SiO2 
 PCOD9365781
Probable space group: A B A 2
;
_chemical_formula_sum "Si O2"
_cell_formula_units_Z 64
_cell_length_a 20.769240
_cell_length_b 9.266804
_cell_length_c 15.997787
_cell_angle_alpha 90.000000
_cell_angle_beta 90.000000
_cell_angle_gamma 90.000000
_cell_volume 3079.005697
_symmetry_space_group_name_H-M "A B A 2"
_symmetry_group_IT_number 41
_symmetry_cell_setting 'orthorhombic'
loop_
_space_group_symop_operation_xyz
x,y,z
-x,-y,z
1/2-x,y,1/2+z
1/2+x,-y,1/2+z
x,1/2+y,1/2+z
-x,1/2-y,1/2+z
1/2-x,1/2+y,z
1/2+x,1/2-y,z
loop_
_atom_site_type_symbol
_atom_site_label
_atom_site_fract_x
_atom_site_fract_y
_atom_site_fract_z
Si Si1 0.367326 0.793911 0.980990
Si Si2 0.267535 0.928227 0.224621
Si Si3 0.065017 0.590563 0.733243
Si Si4 0.499502 0.334070 0.961280
Si Si5 0.815720 0.349932 0.636339
Si Si6 0.019640 0.157122 0.759443
Si Si7 0.336859 0.204782 0.293015
Si Si8 0.427571 0.071494 0.928983
O O1 0.438745 0.737673 0.003069
O O2 0.350986 0.735505 0.889469
O O3 0.377230 0.966183 0.974046
O O4 0.319903 0.719585 0.045669
O O5 0.310470 0.793823 0.194303
O O6 0.207961 0.837358 0.263354
O O7 0.240958 0.035459 0.152304
O O8 0.303701 0.046977 0.281962
O O9 0.120743 0.566631 0.667347
O O10 0.088973 0.577823 0.829805
O O11 0.000000 0.500000 0.726540
O O12 0.035049 0.746458 0.719807
O O13 0.500000 0.500000 0.987386
O O14 0.510670 0.331925 0.860400
O O15 0.437871 0.229230 0.969474
O O16 0.093921 0.200152 0.745881
O O17 0.000000 0.000000 0.732515
O O18 0.500000 0.000000 0.930833
#
# Coordination Sequence:
#
# PCOD9365781 Si02
#       8
#     8   8   8   8   8   8   8   8
#     4  10  20  34  55  81 112 142 185 236 281 328
#     4  10  23  41  59  75 109 154 197 233 275 341
#     4  10  18  32  58  85 111 145 184 225 279 344
#     4   8  15  29  50  80 115 147 178 220 274 333
#     4  11  23  39  56  83 115 147 183 238 296 335
#     4   9  16  29  54  85 112 137 179 233 277 328
#     4  10  20  39  61  82 106 151 200 234 272 338
#     4   8  15  31  54  79 111 151 184 217 269 341
#
# _framework density 20.78593
#
# number of rings (size 3 to 8) (size 9 to 14) (size 15 to 20)
#    0.000    2.500    0.000    4.500    0.000    2.500 
#    0.000    8.125    0.000    0.000    0.000    0.000 
#    0.000    0.000    0.000    0.000    0.000    0.000 
#
# Total GULP energy -178241.781753 kJ/mol
# GULP energy per Si atom -5570.055680 kJ/mol
# Density = 2.073862 g / cm^3
# Si number density = 20.785930 Si / 1000 Ang^3
#
#
#
# Elastic Constant Matrix: (Units=GPa)
#
#
# Indices 1 2 3 4 5 6 
#
# 1 53.4494 8.4057 11.1709 0.0000 0.0000 0.0000
# 2 8.4057 102.0090 10.1283 0.0000 0.0000 0.0000
# 3 11.1709 10.1283 36.7699 0.0000 0.0000 0.0000
# 4 0.0000 0.0000 0.0000 13.8798 0.0000 0.0000
# 5 0.0000 0.0000 0.0000 0.0000 16.6817 0.0000
# 6 0.0000 0.0000 0.0000 0.0000 0.0000 33.4040
#
#
#
# Elastic Compliance Matrix: (Units=1/GPa)
#
#
# Indices 1 2 3 4 5 6 
#
# 1 0.020093 -0.001079 -0.005807 0.000000 0.000000 0.000000
# 2 -0.001079 0.010137 -0.002464 0.000000 0.000000 0.000000
# 3 -0.005807 -0.002464 0.029639 0.000000 0.000000 0.000000
# 4 0.000000 0.000000 0.000000 0.072047 0.000000 0.000000
# 5 0.000000 0.000000 0.000000 0.000000 0.059946 0.000000
# 6 0.000000 0.000000 0.000000 0.000000 0.000000 0.029937
#
#
# Mechanical properties :
#
#
# Convention : Reuss Voigt Hill
#
# Bulk Modulus (GPa) = 24.29097 27.95981 26.12539
# Shear Modulus (GPa) = 19.66789 23.62800 21.64795
#
# Velocity S-wave (km/s) = 3.07939 3.37520 3.23068
# Velocity P-wave (km/s) = 4.93510 5.35442 5.14903
#
# Compressibility (1/GPa) = 0.04116757
#
# Stress axis : x y z
#
# Youngs Moduli (GPa) = 49.76944 98.65192 33.73912
#
# Poissons Ratio (x) = 0.10646 0.19592
# Poissons Ratio (y) = 0.05371 0.08314
# Poissons Ratio (z) = 0.28901 0.24311
#
# Static dielectric constant tensor:
#      x y z
#    x 1.799530 0.000000 0.000000 
#    y 0.000000 1.745700 0.000000 
#    z 0.000000 0.000000 1.749510 
# 
# From -- ./inp_files/10679.got.cif
#   From: 2010.05.17/outbox.cif.g08.bks.cpg/sg41_6_cif.got.tgz:10679.got - 2010.06.03 18:54:24.
