data_PCOD9365384
_publ_section_title
;
Structure prediction by ZEFSAII (Michael W. Deem and Ramdas Pophale) SiO2 
 PCOD9365384
Probable space group: A M A 2
;
_chemical_formula_sum "Si O2"
_cell_formula_units_Z 48
_cell_length_a 15.725018
_cell_length_b 8.514934
_cell_length_c 18.591008
_cell_angle_alpha 90.000000
_cell_angle_beta 90.000000
_cell_angle_gamma 90.000000
_cell_volume 2489.289316
_symmetry_space_group_name_H-M "A M A 2"
_symmetry_group_IT_number 40
_symmetry_cell_setting 'orthorhombic'
loop_
_space_group_symop_operation_xyz
x,y,z
-x,-y,z
1/2-x,y,z
1/2+x,-y,z
x,1/2+y,1/2+z
-x,1/2-y,1/2+z
1/2-x,1/2+y,1/2+z
1/2+x,1/2-y,1/2+z
loop_
_atom_site_type_symbol
_atom_site_label
_atom_site_fract_x
_atom_site_fract_y
_atom_site_fract_z
Si Si1 0.081939 0.675539 0.820420
Si Si2 0.750000 0.778160 0.797142
Si Si3 0.918535 0.096178 0.071919
Si Si4 0.580212 0.658587 0.739503
Si Si5 0.250000 0.872034 0.856286
Si Si6 0.081925 0.589344 0.982514
Si Si7 0.750000 0.968285 0.010948
Si Si8 0.250000 0.384045 0.949765
O O1 0.094723 0.508735 0.780085
O O2 0.167083 0.777805 0.828860
O O3 0.055915 0.644939 0.902583
O O4 0.000871 0.741314 0.776946
O O5 0.665813 0.752809 0.751525
O O6 0.750000 0.655479 0.864400
O O7 0.750000 0.953793 0.825724
O O8 0.933616 0.128878 0.155771
O O9 0.833847 0.997260 0.057565
O O10 0.903899 0.259059 0.030944
O O11 0.000000 0.000000 0.043204
O O12 0.250000 0.908881 0.942678
O O13 0.165980 0.482299 0.971936
O O14 0.000000 0.500000 0.013091
O O15 0.750000 0.789022 0.984105
#
# Coordination Sequence:
#
# PCOD9365384 Si02
#       8
#     8   4   8   8   4   8   4   4
#     4  11  20  43  69  94 126 173 231 269 329 406
#     4  11  22  41  66  97 132 171 228 276 333 398
#     4  12  25  44  65 100 138 175 225 280 348 406
#     4  11  23  43  68  93 130 181 222 270 337 417
#     4  11  24  40  66 104 128 170 223 294 336 377
#     4  12  22  41  68  95 127 173 227 279 328 399
#     4  11  24  43  66  99 138 171 222 282 346 405
#     4  11  22  40  66  98 126 168 225 278 331 394
#
# _framework density 19.282609999999998
#
# number of rings (size 3 to 8) (size 9 to 14) (size 15 to 20)
#    0.000    0.667    6.667    3.000    0.000    2.000 
#    3.000    1.667    0.000    0.000    0.000    0.000 
#    0.000    0.000    0.000    0.000    0.000    0.000 
#
# Total GULP energy -134015.773290 kJ/mol
# GULP energy per Si atom -5583.990554 kJ/mol
# Density = 1.923872 g / cm^3
# Si number density = 19.282610 Si / 1000 Ang^3
#
#
#
# Elastic Constant Matrix: (Units=GPa)
#
#
# Indices 1 2 3 4 5 6 
#
# 1 169.0954 40.8192 23.0708 0.0000 0.0000 0.0000
# 2 40.8192 73.5148 31.9979 0.0000 0.0000 0.0000
# 3 23.0708 31.9979 95.7285 0.0000 0.0000 0.0000
# 4 0.0000 0.0000 0.0000 21.0548 0.0000 0.0000
# 5 0.0000 0.0000 0.0000 0.0000 7.9846 0.0000
# 6 0.0000 0.0000 0.0000 0.0000 0.0000 2.1274
#
#
#
# Elastic Compliance Matrix: (Units=1/GPa)
#
#
# Indices 1 2 3 4 5 6 
#
# 1 0.006845 -0.003608 -0.000444 0.000000 0.000000 0.000000
# 2 -0.003608 0.017820 -0.005087 0.000000 0.000000 0.000000
# 3 -0.000444 -0.005087 0.012254 0.000000 0.000000 0.000000
# 4 0.000000 0.000000 0.000000 0.047495 0.000000 0.000000
# 5 0.000000 0.000000 0.000000 0.000000 0.125242 0.000000
# 6 0.000000 0.000000 0.000000 0.000000 0.000000 0.470061
#
#
# Mechanical properties :
#
#
# Convention : Reuss Voigt Hill
#
# Bulk Modulus (GPa) = 53.64285 58.90160 56.27223
# Shear Modulus (GPa) = 7.10018 22.39674 14.74846
#
# Velocity S-wave (km/s) = 1.92098 3.41178 2.76861
# Velocity P-wave (km/s) = 5.72712 6.79213 6.28224
#
# Compressibility (1/GPa) = 0.01864181
#
# Stress axis : x y z
#
# Youngs Moduli (GPa) = 146.08662 56.11666 81.60903
#
# Poissons Ratio (x) = 0.20245 0.03622
# Poissons Ratio (y) = 0.52703 0.41515
# Poissons Ratio (z) = 0.06484 0.28547
#
# Static dielectric constant tensor:
#      x y z
#    x 1.724920 0.000000 0.000000 
#    y 0.000000 1.678730 0.000000 
#    z 0.000000 0.000000 1.654160 
# 
# From -- ./inp_files/20627.got.cif
#   From: 2010.05.17/outbox.cif.g08.bks.cpg/sg40_11_cif.got.tgz:20627.got - 2010.06.03 18:35:42.
