data_PCOD9365140
_publ_section_title
;
Structure prediction by ZEFSAII (Michael W. Deem and Ramdas Pophale) SiO2 
 PCOD9365140
Probable space group: A M A 2
;
_chemical_formula_sum "Si O2"
_cell_formula_units_Z 52
_cell_length_a 21.394845
_cell_length_b 13.564503
_cell_length_c 8.408758
_cell_angle_alpha 90.000000
_cell_angle_beta 90.000000
_cell_angle_gamma 90.000000
_cell_volume 2440.309352
_symmetry_space_group_name_H-M "A M A 2"
_symmetry_group_IT_number 40
_symmetry_cell_setting 'orthorhombic'
loop_
_space_group_symop_operation_xyz
x,y,z
-x,-y,z
1/2-x,y,z
1/2+x,-y,z
x,1/2+y,1/2+z
-x,1/2-y,1/2+z
1/2-x,1/2+y,1/2+z
1/2+x,1/2-y,1/2+z
loop_
_atom_site_type_symbol
_atom_site_label
_atom_site_fract_x
_atom_site_fract_y
_atom_site_fract_z
Si Si1 0.645112 0.563755 0.840780
Si Si2 0.071211 0.257133 0.337380
Si Si3 0.178644 0.644761 0.974695
Si Si4 0.129262 0.146714 0.831928
Si Si5 0.250000 0.264034 0.882654
Si Si6 0.569939 0.035475 0.015867
Si Si7 0.545954 0.689312 0.978948
O O1 0.695301 0.651623 0.846187
O O2 0.612832 0.551540 0.669903
O O3 0.675435 0.462406 0.896977
O O4 0.588573 0.593654 0.959226
O O5 0.141248 0.219240 0.362237
O O6 0.063916 0.361417 0.424129
O O7 0.052859 0.268664 0.154992
O O8 0.024885 0.179804 0.422608
O O9 0.250000 0.676886 0.001902
O O10 0.145966 0.641202 0.146328
O O11 0.193753 0.182356 0.912994
O O12 0.076636 0.229268 0.862423
O O13 0.102596 0.046097 0.904474
O O14 0.500000 0.000000 0.059484
#
# Coordination Sequence:
#
# PCOD9365140 Si02
#       7
#     8   8   8   8   4   8   8
#     4  11  25  46  72 104 146 184 244 293 360 428
#     4  12  25  46  73 105 147 179 241 289 366 421
#     4  12  26  47  71 107 140 192 237 296 350 434
#     4  11  23  46  72 102 147 179 240 290 356 423
#     4  10  22  46  72 100 138 194 228 292 352 426
#     4  12  26  45  72 112 140 189 240 301 360 434
#     4  11  24  45  74 106 136 192 228 301 353 426
#
# _framework density 21.308772999999999
#
# number of rings (size 3 to 8) (size 9 to 14) (size 15 to 20)
#    0.000    0.615    3.077    5.538    2.154    0.615 
#   12.462    0.000    0.000    0.000    0.000    0.000 
#    0.000    0.000    0.000    0.000    0.000    0.000 
#
# Total GULP energy -144995.535006 kJ/mol
# GULP energy per Si atom -5576.751346 kJ/mol
# Density = 2.126027 g / cm^3
# Si number density = 21.308773 Si / 1000 Ang^3
#
#
#
# Elastic Constant Matrix: (Units=GPa)
#
#
# Indices 1 2 3 4 5 6 
#
# 1 104.0634 11.8682 29.0502 0.0000 0.0000 0.0000
# 2 11.8682 51.5471 -9.3866 0.0000 0.0000 0.0000
# 3 29.0502 -9.3866 95.0055 0.0000 0.0000 0.0000
# 4 0.0000 0.0000 0.0000 19.9515 0.0000 0.0000
# 5 0.0000 0.0000 0.0000 0.0000 14.9198 0.0000
# 6 0.0000 0.0000 0.0000 0.0000 0.0000 34.5128
#
#
#
# Elastic Compliance Matrix: (Units=1/GPa)
#
#
# Indices 1 2 3 4 5 6 
#
# 1 0.011002 -0.003203 -0.003681 0.000000 0.000000 0.000000
# 2 -0.003203 0.020688 0.003024 0.000000 0.000000 0.000000
# 3 -0.003681 0.003024 0.011950 0.000000 0.000000 0.000000
# 4 0.000000 0.000000 0.000000 0.050121 0.000000 0.000000
# 5 0.000000 0.000000 0.000000 0.000000 0.067025 0.000000
# 6 0.000000 0.000000 0.000000 0.000000 0.000000 0.028975
#
#
# Mechanical properties :
#
#
# Convention : Reuss Voigt Hill
#
# Bulk Modulus (GPa) = 27.84056 34.85327 31.34691
# Shear Modulus (GPa) = 23.87138 28.48243 26.17690
#
# Velocity S-wave (km/s) = 3.35066 3.65999 3.50874
# Velocity P-wave (km/s) = 5.29744 5.85257 5.58191
#
# Compressibility (1/GPa) = 0.03591882
#
# Stress axis : x y z
#
# Youngs Moduli (GPa) = 90.88937 48.33747 83.68268
#
# Poissons Ratio (x) = 0.15485 0.30801
# Poissons Ratio (y) = 0.29116 -0.25302
# Poissons Ratio (z) = 0.33454 -0.14615
#
# Static dielectric constant tensor:
#      x y z
#    x 1.774700 0.000000 0.000000 
#    y 0.000000 1.752650 0.000000 
#    z 0.000000 0.000000 1.775160 
# 
# From -- ./inp_files/8208.got.cif
#   From: 2010.05.17/outbox.cif.g08.bks.cpg/sg40_5_cif.got.tgz:8208.got - 2010.06.03 18:35:42.
