data_PCOD9365198
_publ_section_title
;
Structure prediction by ZEFSAII (Michael W. Deem and Ramdas Pophale) SiO2 
 PCOD9365198
Probable space group: A M A 2
;
_chemical_formula_sum "Si O2"
_cell_formula_units_Z 48
_cell_length_a 8.801859
_cell_length_b 27.518399
_cell_length_c 9.742417
_cell_angle_alpha 90.000000
_cell_angle_beta 90.000000
_cell_angle_gamma 90.000000
_cell_volume 2359.740710
_symmetry_space_group_name_H-M "A M A 2"
_symmetry_group_IT_number 40
_symmetry_cell_setting 'orthorhombic'
loop_
_space_group_symop_operation_xyz
x,y,z
-x,-y,z
1/2-x,y,z
1/2+x,-y,z
x,1/2+y,1/2+z
-x,1/2-y,1/2+z
1/2-x,1/2+y,1/2+z
1/2+x,1/2-y,1/2+z
loop_
_atom_site_type_symbol
_atom_site_label
_atom_site_fract_x
_atom_site_fract_y
_atom_site_fract_z
Si Si1 0.067843 0.447590 0.635990
Si Si2 0.425798 0.953575 0.686693
Si Si3 0.569999 0.278934 0.271696
Si Si4 0.929824 0.412537 0.919558
Si Si5 0.573295 0.129915 0.910958
Si Si6 0.068387 0.307225 0.980123
O O1 0.250000 0.450596 0.626790
O O2 0.019255 0.403187 0.537264
O O3 0.000000 0.500000 0.598561
O O4 0.014799 0.433854 0.787942
O O5 0.250000 0.962846 0.653701
O O6 0.522264 0.943530 0.551484
O O7 0.431386 0.906343 0.781564
O O8 0.500000 0.000000 0.759313
O O9 0.750000 0.280668 0.245480
O O10 0.522153 0.323167 0.371302
O O11 0.535416 0.229938 0.355858
O O12 0.485200 0.285643 0.126588
O O13 0.750000 0.413959 0.898254
O O14 0.985625 0.357928 0.950846
O O15 0.750000 0.143956 0.934624
O O16 0.250000 0.315372 0.986204
#
# Coordination Sequence:
#
# PCOD9365198 Si02
#       6
#     8   8   8   8   8   8
#     4  11  24  43  65  95 131 174 218 266 321 381
#     4  11  22  39  64  94 126 166 209 262 319 380
#     4  11  25  43  68  99 129 168 215 263 319 384
#     4  12  25  42  65  94 127 170 216 267 320 381
#     4  10  23  42  66  93 129 170 211 263 321 377
#     4  11  25  45  67  97 132 168 212 265 321 384
#
# _framework density 20.341218000000001
#
# number of rings (size 3 to 8) (size 9 to 14) (size 15 to 20)
#    0.000    1.000    1.667    4.500    2.333    4.667 
#    0.000    0.000    0.000    0.000    0.000    0.000 
#    0.000    0.000    0.000    0.000    0.000    0.000 
#
# Total GULP energy -134276.565261 kJ/mol
# GULP energy per Si atom -5594.856886 kJ/mol
# Density = 2.029492 g / cm^3
# Si number density = 20.341218 Si / 1000 Ang^3
#
#
#
# Elastic Constant Matrix: (Units=GPa)
#
#
# Indices 1 2 3 4 5 6 
#
# 1 50.9114 21.1393 -6.9055 0.0000 0.0000 0.0000
# 2 21.1393 74.2310 -11.8192 0.0000 0.0000 0.0000
# 3 -6.9055 -11.8192 58.4194 0.0000 0.0000 0.0000
# 4 0.0000 0.0000 0.0000 35.8017 0.0000 0.0000
# 5 0.0000 0.0000 0.0000 0.0000 -5.0767 0.0000
# 6 0.0000 0.0000 0.0000 0.0000 0.0000 28.2498
#
#
#
# Elastic Compliance Matrix: (Units=1/GPa)
#
#
# Indices 1 2 3 4 5 6 
#
# 1 0.022386 -0.006152 0.001402 0.000000 0.000000 0.000000
# 2 -0.006152 0.015610 0.002431 0.000000 0.000000 0.000000
# 3 0.001402 0.002431 0.017775 0.000000 0.000000 0.000000
# 4 0.000000 0.000000 0.000000 0.027932 0.000000 0.000000
# 5 0.000000 0.000000 0.000000 0.000000 -0.196979 0.000000
# 6 0.000000 0.000000 0.000000 0.000000 0.000000 0.035398
#
#
# Mechanical properties :
#
#
# Convention : Reuss Voigt Hill
#
# Bulk Modulus (GPa) = 19.55675 20.93236 20.24455
# Shear Modulus (GPa) = -88.97768 23.87144 -32.55312
#
# Velocity S-wave (km/s) = -6.62099 3.42943 -4.00478
# Velocity P-wave (km/s) = 6.98676 5.09846 3.37791
#
# Compressibility (1/GPa) = 0.05113324
#
# Stress axis : x y z
#
# Youngs Moduli (GPa) = 44.66980 64.05948 56.25848
#
# Poissons Ratio (x) = 0.39409 -0.07885
# Poissons Ratio (y) = 0.27481 -0.13677
# Poissons Ratio (z) = -0.06261 -0.15573
#
# Static dielectric constant tensor:
#      x y z
#    x 1.683750 0.000000 0.000000 
#    y 0.000000 1.638000 0.000000 
#    z 0.000000 0.000000 1.707720 
# 
# From -- ./inp_files/4583.got.cif
#   From: 2010.05.17/outbox.cif.g08.bks.cpg/sg40_3_cif.got.tgz:4583.got - 2010.06.03 18:35:42.
