data_PCOD9365484
_publ_section_title
;
Structure prediction by ZEFSAII (Michael W. Deem and Ramdas Pophale) SiO2 
 PCOD9365484
Probable space group: A M A 2
;
_chemical_formula_sum "Si O2"
_cell_formula_units_Z 40
_cell_length_a 14.355647
_cell_length_b 12.218325
_cell_length_c 8.743187
_cell_angle_alpha 90.000000
_cell_angle_beta 90.000000
_cell_angle_gamma 90.000000
_cell_volume 1533.572142
_symmetry_space_group_name_H-M "A M A 2"
_symmetry_group_IT_number 40
_symmetry_cell_setting 'orthorhombic'
loop_
_space_group_symop_operation_xyz
x,y,z
-x,-y,z
1/2-x,y,z
1/2+x,-y,z
x,1/2+y,1/2+z
-x,1/2-y,1/2+z
1/2-x,1/2+y,1/2+z
1/2+x,1/2-y,1/2+z
loop_
_atom_site_type_symbol
_atom_site_label
_atom_site_fract_x
_atom_site_fract_y
_atom_site_fract_z
Si Si1 0.494076 0.152785 0.696970
Si Si2 0.650766 0.154886 0.901626
Si Si3 0.360537 0.221192 0.967035
Si Si4 0.610854 0.000871 0.149435
Si Si5 0.850671 0.409819 0.968469
O O1 0.564261 0.101655 0.818601
O O2 0.418562 0.216379 0.806654
O O3 0.568458 0.215735 0.584729
O O4 0.430970 0.079924 0.589181
O O5 0.750000 0.128252 0.829656
O O6 0.640397 0.285514 0.904260
O O7 0.647377 0.110210 0.072105
O O8 0.250000 0.256761 0.956655
O O9 0.357026 0.099813 0.042612
O O10 0.642790 0.986483 0.322648
O O11 0.500000 0.000000 0.153255
O O12 0.750000 0.420095 0.042610
#
# Coordination Sequence:
#
# PCOD9365484 Si02
#       5
#     8   8   8   8   8
#     4  12  22  44  71 110 148 199 257 306 384 470
#     4  11  23  41  73 107 142 199 257 312 384 463
#     4  12  24  42  73 109 154 207 255 321 393 457
#     4  12  23  45  72 105 149 198 253 323 387 455
#     4  11  24  45  75 109 149 197 252 319 392 463
#
# _framework density 26.082895000000001
#
# number of rings (size 3 to 8) (size 9 to 14) (size 15 to 20)
#    0.000    0.400    6.000    3.000    0.000    0.000 
#    3.600    0.000    0.000    4.800    0.000    0.000 
#    0.000    0.000    0.000    0.000    0.000    0.000 
#
# Total GULP energy -111999.074157 kJ/mol
# GULP energy per Si atom -5599.953708 kJ/mol
# Density = 2.602353 g / cm^3
# Si number density = 26.082895 Si / 1000 Ang^3
#
#
#
# Elastic Constant Matrix: (Units=GPa)
#
#
# Indices 1 2 3 4 5 6 
#
# 1 288.7459 30.6483 88.8664 0.0000 0.0000 0.0000
# 2 30.6483 34.2523 49.6273 0.0000 0.0000 0.0000
# 3 88.8664 49.6273 161.9237 0.0000 0.0000 0.0000
# 4 0.0000 0.0000 0.0000 48.6588 0.0000 0.0000
# 5 0.0000 0.0000 0.0000 0.0000 17.4134 0.0000
# 6 0.0000 0.0000 0.0000 0.0000 0.0000 27.9707
#
#
#
# Elastic Compliance Matrix: (Units=1/GPa)
#
#
# Indices 1 2 3 4 5 6 
#
# 1 0.004178 -0.000749 -0.002063 0.000000 0.000000 0.000000
# 2 -0.000749 0.052649 -0.015725 0.000000 0.000000 0.000000
# 3 -0.002063 -0.015725 0.012128 0.000000 0.000000 0.000000
# 4 0.000000 0.000000 0.000000 0.020551 0.000000 0.000000
# 5 0.000000 0.000000 0.000000 0.000000 0.057427 0.000000
# 6 0.000000 0.000000 0.000000 0.000000 0.000000 0.035752
#
#
# Mechanical properties :
#
#
# Convention : Reuss Voigt Hill
#
# Bulk Modulus (GPa) = 31.36780 91.46734 61.41757
# Shear Modulus (GPa) = 21.70277 39.86058 30.78168
#
# Velocity S-wave (km/s) = 2.88769 3.91350 3.43906
# Velocity P-wave (km/s) = 4.81359 7.45417 6.27436
#
# Compressibility (1/GPa) = 0.03187983
#
# Stress axis : x y z
#
# Youngs Moduli (GPa) = 239.36314 18.99377 82.45557
#
# Poissons Ratio (x) = 0.01422 0.17014
# Poissons Ratio (y) = 0.17918 1.29664
# Poissons Ratio (z) = 0.49390 0.29868
#
# Static dielectric constant tensor:
#      x y z
#    x 2.030020 0.000000 0.000000 
#    y 0.000000 2.139800 0.000000 
#    z 0.000000 0.000000 2.022760 
# 
# From -- ./inp_files/6137.got.cif
#   From: 2010.05.17/outbox.cif.g08.bks.cpg/sg40_4_cif.got.tgz:6137.got - 2010.06.03 18:35:42.
