data_PCOD9365536
_publ_section_title
;
Structure prediction by ZEFSAII (Michael W. Deem and Ramdas Pophale) SiO2 
 PCOD9365536
Probable space group: A M A 2
;
_chemical_formula_sum "Si O2"
_cell_formula_units_Z 16
_cell_length_a 13.401046
_cell_length_b 6.997654
_cell_length_c 7.493055
_cell_angle_alpha 90.000000
_cell_angle_beta 90.000000
_cell_angle_gamma 90.000000
_cell_volume 702.667850
_symmetry_space_group_name_H-M "A M A 2"
_symmetry_group_IT_number 40
_symmetry_cell_setting 'orthorhombic'
loop_
_space_group_symop_operation_xyz
x,y,z
-x,-y,z
1/2-x,y,z
1/2+x,-y,z
x,1/2+y,1/2+z
-x,1/2-y,1/2+z
1/2-x,1/2+y,1/2+z
1/2+x,1/2-y,1/2+z
loop_
_atom_site_type_symbol
_atom_site_label
_atom_site_fract_x
_atom_site_fract_y
_atom_site_fract_z
Si Si1 0.964598 0.302576 0.771550
Si Si2 0.633660 0.434301 0.399533
O O1 0.911340 0.365493 0.588658
O O2 0.000000 0.500000 0.862177
O O3 0.066896 0.181297 0.756982
O O4 0.890408 0.157414 0.870342
O O5 0.750000 0.394777 0.386612
#
# Coordination Sequence:
#
# PCOD9365536 Si02
#       2
#     8   8
#     4  11  24  49  73 107 151 188 248 305 356 445
#     4  11  26  47  77 110 149 198 244 303 372 435
#
# _framework density 22.770357000000001
#
# number of rings (size 3 to 8) (size 9 to 14) (size 15 to 20)
#    0.000    1.000    5.000    1.500    7.000    4.000 
#    0.000    0.000    0.000    0.000    0.000    0.000 
#    0.000    0.000    0.000    0.000    0.000    0.000 
#
# Total GULP energy -44689.030929 kJ/mol
# GULP energy per Si atom -5586.128866 kJ/mol
# Density = 2.271853 g / cm^3
# Si number density = 22.770357 Si / 1000 Ang^3
#
#
#
# Elastic Constant Matrix: (Units=GPa)
#
#
# Indices 1 2 3 4 5 6 
#
# 1 219.4223 41.8645 40.5327 0.0000 0.0000 0.0000
# 2 41.8645 157.2146 56.3713 0.0000 0.0000 0.0000
# 3 40.5327 56.3713 119.7090 0.0000 0.0000 0.0000
# 4 0.0000 0.0000 0.0000 48.1068 0.0000 0.0000
# 5 0.0000 0.0000 0.0000 0.0000 33.8712 0.0000
# 6 0.0000 0.0000 0.0000 0.0000 0.0000 20.5115
#
#
#
# Elastic Compliance Matrix: (Units=1/GPa)
#
#
# Indices 1 2 3 4 5 6 
#
# 1 0.004957 -0.000864 -0.001272 0.000000 0.000000 0.000000
# 2 -0.000864 0.007804 -0.003382 0.000000 0.000000 0.000000
# 3 -0.001272 -0.003382 0.010377 0.000000 0.000000 0.000000
# 4 0.000000 0.000000 0.000000 0.020787 0.000000 0.000000
# 5 0.000000 0.000000 0.000000 0.000000 0.029524 0.000000
# 6 0.000000 0.000000 0.000000 0.000000 0.000000 0.048753
#
#
# Mechanical properties :
#
#
# Convention : Reuss Voigt Hill
#
# Bulk Modulus (GPa) = 82.63152 85.98697 84.30925
# Shear Modulus (GPa) = 36.42431 44.33638 40.38034
#
# Velocity S-wave (km/s) = 4.00389 4.41739 4.21571
# Velocity P-wave (km/s) = 7.59886 7.99140 7.79760
#
# Compressibility (1/GPa) = 0.01210192
#
# Stress axis : x y z
#
# Youngs Moduli (GPa) = 201.72780 128.14701 96.36897
#
# Poissons Ratio (x) = 0.11073 0.12254
# Poissons Ratio (y) = 0.17431 0.32593
# Poissons Ratio (z) = 0.25651 0.43341
#
# Static dielectric constant tensor:
#      x y z
#    x 1.791390 0.000000 0.000000 
#    y 0.000000 1.894040 0.000000 
#    z 0.000000 0.000000 1.944000 
# 
# From -- ./inp_files/5726.got.cif
#   From: 2010.05.17/outbox.cif.g08.bks.cpg/sg40_3_cif.got.tgz:5726.got - 2010.06.03 18:35:42.
