data_PCOD9365429
_publ_section_title
;
Structure prediction by ZEFSAII (Michael W. Deem and Ramdas Pophale) SiO2 
 PCOD9365429
Probable space group: A M A 2
;
_chemical_formula_sum "Si O2"
_cell_formula_units_Z 64
_cell_length_a 19.530941
_cell_length_b 20.313603
_cell_length_c 9.082434
_cell_angle_alpha 90.000000
_cell_angle_beta 90.000000
_cell_angle_gamma 90.000000
_cell_volume 3603.399212
_symmetry_space_group_name_H-M "A M A 2"
_symmetry_group_IT_number 40
_symmetry_cell_setting 'orthorhombic'
loop_
_space_group_symop_operation_xyz
x,y,z
-x,-y,z
1/2-x,y,z
1/2+x,-y,z
x,1/2+y,1/2+z
-x,1/2-y,1/2+z
1/2-x,1/2+y,1/2+z
1/2+x,1/2-y,1/2+z
loop_
_atom_site_type_symbol
_atom_site_label
_atom_site_fract_x
_atom_site_fract_y
_atom_site_fract_z
Si Si1 0.961455 0.314700 0.014330
Si Si2 0.827725 0.896793 0.451900
Si Si3 0.672275 0.603207 0.773536
Si Si4 0.470391 0.569764 0.525752
Si Si5 0.538545 0.185300 0.211105
Si Si6 0.172693 0.962193 0.597164
Si Si7 0.327306 0.537807 0.628271
Si Si8 0.970391 0.569764 0.199683
O O1 0.957106 0.250000 0.112718
O O2 0.004484 0.371323 0.097610
O O3 0.886688 0.344881 0.983006
O O4 0.000000 0.299502 0.862718
O O5 0.750000 0.871864 0.470621
O O6 0.833474 0.924391 0.284977
O O7 0.835848 0.960767 0.556752
O O8 0.750000 0.628136 0.754815
O O9 0.613313 0.655119 0.742428
O O10 0.664152 0.539233 0.668683
O O11 0.666525 0.575609 0.940458
O O12 0.500000 0.500000 0.583598
O O13 0.495516 0.628677 0.627825
O O14 0.388493 0.562417 0.526457
O O15 0.500000 0.578874 0.362718
O O16 0.250000 0.952088 0.653387
O O17 0.111507 0.937583 0.698979
O O18 0.250000 0.547912 0.572048
O O19 0.000000 0.500000 0.141837
#
# Coordination Sequence:
#
# PCOD9365429 Si02
#       8
#     8   8   8   8   8   8   8   8
#     4  12  24  39  60  85 121 161 203 250 298 354
#     4   9  18  34  61  93 118 151 197 244 301 365
#     4   9  18  34  61  93 118 151 197 244 301 365
#     4  11  22  37  59  91 122 155 198 248 297 356
#     4  12  24  39  60  85 121 161 203 250 298 354
#     4   9  17  34  62  93 120 150 195 246 301 362
#     4   9  17  34  62  93 120 150 195 246 301 362
#     4  11  22  37  59  91 122 155 198 248 297 356
#
# _framework density 17.761006999999999
#
# number of rings (size 3 to 8) (size 9 to 14) (size 15 to 20)
#    0.000    1.750    5.000    2.250    0.000    1.000 
#    0.000    3.750    0.000    6.000    0.000    0.000 
#    0.000    0.000    0.000    0.000    0.000    0.000 
#
# Total GULP energy -178666.139074 kJ/mol
# GULP energy per Si atom -5583.316846 kJ/mol
# Density = 1.772058 g / cm^3
# Si number density = 17.761007 Si / 1000 Ang^3
#
#
#
# Elastic Constant Matrix: (Units=GPa)
#
#
# Indices 1 2 3 4 5 6 
#
# 1 200.1221 66.8574 69.1730 0.0000 0.0000 0.0000
# 2 66.8574 110.4973 45.8260 0.0000 0.0000 0.0000
# 3 69.1730 45.8260 75.4865 0.0000 0.0000 0.0000
# 4 0.0000 0.0000 0.0000 16.6774 0.0000 0.0000
# 5 0.0000 0.0000 0.0000 0.0000 30.2146 0.0000
# 6 0.0000 0.0000 0.0000 0.0000 0.0000 -15.5621
#
#
#
# Elastic Compliance Matrix: (Units=1/GPa)
#
#
# Indices 1 2 3 4 5 6 
#
# 1 0.007737 -0.002327 -0.005677 0.000000 0.000000 0.000000
# 2 -0.002327 0.012795 -0.005635 0.000000 0.000000 0.000000
# 3 -0.005677 -0.005635 0.021871 0.000000 0.000000 0.000000
# 4 0.000000 0.000000 0.000000 0.059961 0.000000 0.000000
# 5 0.000000 0.000000 0.000000 0.000000 0.033097 0.000000
# 6 0.000000 0.000000 0.000000 0.000000 0.000000 -0.064258
#
#
# Mechanical properties :
#
#
# Convention : Reuss Voigt Hill
#
# Bulk Modulus (GPa) = 66.12007 83.31318 74.71662
# Shear Modulus (GPa) = 48.29942 19.88262 34.09102
#
# Velocity S-wave (km/s) = 5.22045 3.34945 4.38588
# Velocity P-wave (km/s) = 8.58172 7.87199 8.23451
#
# Compressibility (1/GPa) = 0.01512400
#
# Stress axis : x y z
#
# Youngs Moduli (GPa) = 129.25697 78.15614 45.72325
#
# Poissons Ratio (x) = 0.18184 0.25957
# Poissons Ratio (y) = 0.30074 0.25767
# Poissons Ratio (z) = 0.73379 0.44044
#
# Static dielectric constant tensor:
#      x y z
#    x 1.614710 0.000000 0.000000 
#    y 0.000000 1.576450 0.000000 
#    z 0.000000 0.000000 1.601070 
# 
# From -- ./inp_files/7843.got.cif
#   From: 2010.05.17/outbox.cif.g08.bks.cpg/sg40_4_cif.got.tgz:7843.got - 2010.06.03 18:35:42.
