data_PCOD9365439
_publ_section_title
;
Structure prediction by ZEFSAII (Michael W. Deem and Ramdas Pophale) SiO2 
 PCOD9365439
Probable space group: A M A 2
;
_chemical_formula_sum "Si O2"
_cell_formula_units_Z 40
_cell_length_a 16.274248
_cell_length_b 9.780554
_cell_length_c 11.264089
_cell_angle_alpha 90.000000
_cell_angle_beta 90.000000
_cell_angle_gamma 90.000000
_cell_volume 1792.918128
_symmetry_space_group_name_H-M "A M A 2"
_symmetry_group_IT_number 40
_symmetry_cell_setting 'orthorhombic'
loop_
_space_group_symop_operation_xyz
x,y,z
-x,-y,z
1/2-x,y,z
1/2+x,-y,z
x,1/2+y,1/2+z
-x,1/2-y,1/2+z
1/2-x,1/2+y,1/2+z
1/2+x,1/2-y,1/2+z
loop_
_atom_site_type_symbol
_atom_site_label
_atom_site_fract_x
_atom_site_fract_y
_atom_site_fract_z
Si Si1 0.842665 0.950625 0.408750
Si Si2 0.592732 0.790701 0.627167
Si Si3 0.624288 0.761313 0.884771
Si Si4 0.052371 0.256428 0.289221
Si Si5 0.096084 0.965706 0.974432
O O1 0.750000 0.896474 0.407553
O O2 0.840349 0.113402 0.406259
O O3 0.886819 0.901185 0.528757
O O4 0.893084 0.878776 0.301496
O O5 0.640923 0.809458 0.749943
O O6 0.496446 0.785581 0.667896
O O7 0.618746 0.644944 0.572294
O O8 0.525437 0.737105 0.878212
O O9 0.641778 0.889794 0.968320
O O10 0.099302 0.385227 0.347306
O O11 0.000000 0.000000 0.992880
#
# Coordination Sequence:
#
# PCOD9365439 Si02
#       5
#     8   8   8   8   8
#     4  11  22  40  64  97 130 171 216 276 333 388
#     4   9  21  38  63  87 125 170 213 254 328 383
#     4   9  20  39  61  94 122 164 216 261 316 390
#     4   8  19  40  60  92 121 166 218 260 315 389
#     4   9  17  36  57  96 115 152 208 268 296 366
#
# _framework density 22.309998
#
# number of rings (size 3 to 8) (size 9 to 14) (size 15 to 20)
#    1.200    1.600    0.000    0.600    2.800    0.800 
#   21.600    4.000    0.000    4.800    0.000    5.600 
#    0.000    0.000    0.000    0.000    0.000    0.000 
#
# Total GULP energy -111428.966887 kJ/mol
# GULP energy per Si atom -5571.448344 kJ/mol
# Density = 2.225922 g / cm^3
# Si number density = 22.309998 Si / 1000 Ang^3
#
#
#
# Elastic Constant Matrix: (Units=GPa)
#
#
# Indices 1 2 3 4 5 6 
#
# 1 62.4898 29.5511 17.8091 0.0000 0.0000 0.0000
# 2 29.5511 68.5077 -7.3886 0.0000 0.0000 0.0000
# 3 17.8091 -7.3886 50.5524 0.0000 0.0000 0.0000
# 4 0.0000 0.0000 0.0000 19.8606 0.0000 0.0000
# 5 0.0000 0.0000 0.0000 0.0000 -15.9771 0.0000
# 6 0.0000 0.0000 0.0000 0.0000 0.0000 4.7015
#
#
#
# Elastic Compliance Matrix: (Units=1/GPa)
#
#
# Indices 1 2 3 4 5 6 
#
# 1 0.024460 -0.011664 -0.010322 0.000000 0.000000 0.000000
# 2 -0.011664 0.020393 0.007090 0.000000 0.000000 0.000000
# 3 -0.010322 0.007090 0.024454 0.000000 0.000000 0.000000
# 4 0.000000 0.000000 0.000000 0.050351 0.000000 0.000000
# 5 0.000000 0.000000 0.000000 0.000000 -0.062590 0.000000
# 6 0.000000 0.000000 0.000000 0.000000 0.000000 0.212696
#
#
# Mechanical properties :
#
#
# Convention : Reuss Voigt Hill
#
# Bulk Modulus (GPa) = 25.30724 29.05480 27.18102
# Shear Modulus (GPa) = 15.98828 11.15556 13.57192
#
# Velocity S-wave (km/s) = 2.67992 2.23855 2.46912
# Velocity P-wave (km/s) = 4.57647 4.44218 4.50982
#
# Compressibility (1/GPa) = 0.03951439
#
# Stress axis : x y z
#
# Youngs Moduli (GPa) = 40.88268 49.03649 40.89316
#
# Poissons Ratio (x) = 0.57197 0.42210
# Poissons Ratio (y) = 0.47687 -0.28992
# Poissons Ratio (z) = 0.42199 -0.34766
#
# Static dielectric constant tensor:
#      x y z
#    x 1.887530 0.000000 0.000000 
#    y 0.000000 1.830780 0.000000 
#    z 0.000000 0.000000 1.854750 
# 
# From -- ./inp_files/13435.got.cif
#   From: 2010.05.17/outbox.cif.g08.bks.cpg/sg40_7_cif.got.tgz:13435.got - 2010.06.03 18:35:42.
