data_PCOD9365865
_publ_section_title
;
Structure prediction by ZEFSAII (Michael W. Deem and Ramdas Pophale) SiO2 
 PCOD9365865
Probable space group: A B A 2
;
_chemical_formula_sum "Si O2"
_cell_formula_units_Z 60
_cell_length_a 11.203568
_cell_length_b 18.377884
_cell_length_c 13.742079
_cell_angle_alpha 90.000000
_cell_angle_beta 90.000000
_cell_angle_gamma 90.000000
_cell_volume 2829.464838
_symmetry_space_group_name_H-M "A B A 2"
_symmetry_group_IT_number 41
_symmetry_cell_setting 'orthorhombic'
loop_
_space_group_symop_operation_xyz
x,y,z
-x,-y,z
1/2-x,y,1/2+z
1/2+x,-y,1/2+z
x,1/2+y,1/2+z
-x,1/2-y,1/2+z
1/2-x,1/2+y,z
1/2+x,1/2-y,z
loop_
_atom_site_type_symbol
_atom_site_label
_atom_site_fract_x
_atom_site_fract_y
_atom_site_fract_z
Si Si1 0.199075 0.512936 0.404780
Si Si2 0.196430 0.363633 0.499370
Si Si3 0.437179 0.103266 0.573327
Si Si4 0.553271 0.741291 0.855580
Si Si5 0.325769 0.617726 0.265578
Si Si6 0.434307 0.651318 0.684907
Si Si7 0.587893 0.229815 0.037373
Si Si8 0.500000 0.000000 0.240318
O O1 0.243998 0.436882 0.448214
O O2 0.123600 0.555840 0.488010
O O3 0.295673 0.566373 0.357037
O O4 0.111203 0.495269 0.314413
O O5 0.143994 0.305532 0.421671
O O6 0.299643 0.321753 0.557174
O O7 0.079134 0.389953 0.557923
O O8 0.401998 0.078857 0.681175
O O9 0.390514 0.186410 0.563815
O O10 0.612731 0.809352 0.803536
O O11 0.498135 0.687149 0.777369
O O12 0.447365 0.769839 0.924558
O O13 0.202578 0.641058 0.212976
O O14 0.472049 0.700539 0.594725
O O15 0.486543 0.570701 0.674921
#
# Coordination Sequence:
#
# PCOD9365865 Si02
#       8
#     8   8   8   8   8   8   8   4
#     4  11  21  43  67  94 127 178 218 270 333 395
#     4  11  22  43  68  91 135 173 217 270 334 401
#     4  11  23  41  68  97 129 175 223 266 335 399
#     4  11  22  44  66  98 130 174 220 276 330 397
#     4  11  25  40  69  97 131 170 222 276 325 398
#     4  11  23  41  68  95 130 173 219 270 329 401
#     4  11  25  40  66 102 130 169 219 279 329 388
#     4  10  18  42  64  92 122 170 226 250 320 404
#
# _framework density 21.205423
#
# number of rings (size 3 to 8) (size 9 to 14) (size 15 to 20)
#    0.000    1.067    4.000    4.000    5.600    2.133 
#    2.400    1.333    0.000    0.000    0.000    0.000 
#    0.000    0.000    0.000    0.000    0.000    0.000 
#
# Total GULP energy -167720.969137 kJ/mol
# GULP energy per Si atom -5590.698971 kJ/mol
# Density = 2.115716 g / cm^3
# Si number density = 21.205423 Si / 1000 Ang^3
#
#
#
# Elastic Constant Matrix: (Units=GPa)
#
#
# Indices 1 2 3 4 5 6 
#
# 1 50.6141 -7.7153 43.6842 0.0000 0.0000 0.0000
# 2 -7.7153 -47.6357 102.6393 0.0000 0.0000 0.0000
# 3 43.6842 102.6393 -14.9752 0.0000 0.0000 0.0000
# 4 0.0000 0.0000 0.0000 11.3480 0.0000 0.0000
# 5 0.0000 0.0000 0.0000 0.0000 24.9441 0.0000
# 6 0.0000 0.0000 0.0000 0.0000 0.0000 -11.1870
#
#
#
# Elastic Compliance Matrix: (Units=1/GPa)
#
#
# Indices 1 2 3 4 5 6 
#
# 1 0.020699 -0.009206 -0.002717 0.000000 0.000000 0.000000
# 2 -0.009206 0.005619 0.011659 0.000000 0.000000 0.000000
# 3 -0.002717 0.011659 0.005207 0.000000 0.000000 0.000000
# 4 0.000000 0.000000 0.000000 0.088121 0.000000 0.000000
# 5 0.000000 0.000000 0.000000 0.000000 0.040090 0.000000
# 6 0.000000 0.000000 0.000000 0.000000 0.000000 -0.089390
#
#
# Mechanical properties :
#
#
# Convention : Reuss Voigt Hill
#
# Bulk Modulus (GPa) = 32.26122 29.46884 30.86503
# Shear Modulus (GPa) = 61.57224 -5.01931 28.27647
#
# Velocity S-wave (km/s) = 5.39436 -1.54017 3.65561
# Velocity P-wave (km/s) = 7.35157 3.28088 5.69253
#
# Compressibility (1/GPa) = 0.03099697
#
# Stress axis : x y z
#
# Youngs Moduli (GPa) = 48.31210 177.96295 192.05970
#
# Poissons Ratio (x) = 1.63831 0.52176
# Poissons Ratio (y) = 0.44476 -2.23918
# Poissons Ratio (z) = 0.13125 -2.07483
#
# Static dielectric constant tensor:
#      x y z
#    x 1.773410 0.000000 0.000000 
#    y 0.000000 1.770040 0.000000 
#    z 0.000000 0.000000 1.759700 
# 
# From -- ./inp_files/5138.got.cif
#   From: 2010.05.17/outbox.cif.g08.bks.cpg/sg41_3_cif.got.tgz:5138.got - 2010.06.03 18:54:24.
