data_PCOD9365450
_publ_section_title
;
Structure prediction by ZEFSAII (Michael W. Deem and Ramdas Pophale) SiO2 
 PCOD9365450
Probable space group: A M A 2
;
_chemical_formula_sum "Si O2"
_cell_formula_units_Z 48
_cell_length_a 15.588947
_cell_length_b 8.038803
_cell_length_c 18.129700
_cell_angle_alpha 90.000000
_cell_angle_beta 90.000000
_cell_angle_gamma 90.000000
_cell_volume 2271.950077
_symmetry_space_group_name_H-M "A M A 2"
_symmetry_group_IT_number 40
_symmetry_cell_setting 'orthorhombic'
loop_
_space_group_symop_operation_xyz
x,y,z
-x,-y,z
1/2-x,y,z
1/2+x,-y,z
x,1/2+y,1/2+z
-x,1/2-y,1/2+z
1/2-x,1/2+y,1/2+z
1/2+x,1/2-y,1/2+z
loop_
_atom_site_type_symbol
_atom_site_label
_atom_site_fract_x
_atom_site_fract_y
_atom_site_fract_z
Si Si1 0.526200 0.686677 0.039200
Si Si2 0.656004 0.831397 0.934895
Si Si3 0.598314 0.051142 0.205887
Si Si4 0.094477 0.081502 0.775463
Si Si5 0.153918 0.283328 0.176312
Si Si6 0.343088 0.860095 0.045758
O O1 0.500000 0.500000 0.052511
O O2 0.584770 0.732560 0.110191
O O3 0.435219 0.777665 0.030944
O O4 0.582650 0.711336 0.965954
O O5 0.750000 0.751106 0.931423
O O6 0.634400 0.912160 0.856549
O O7 0.658335 0.978753 0.994454
O O8 0.596469 0.225230 0.249754
O O9 0.648804 0.091390 0.131089
O O10 0.500000 0.000000 0.192809
O O11 0.639861 0.875155 0.230915
O O12 0.141968 0.957590 0.718825
O O13 0.000000 0.000000 0.779026
O O14 0.250000 0.276299 0.145452
O O15 0.250000 0.772284 0.034765
#
# Coordination Sequence:
#
# PCOD9365450 Si02
#       6
#     8   8   8   8   8   8
#     4  12  24  42  69  99 136 176 227 283 342 409
#     4  11  25  46  69  95 136 181 223 280 346 410
#     4  12  22  42  72 101 138 180 228 282 343 405
#     4  12  25  44  71 102 141 185 230 286 350 411
#     4  12  25  43  70 105 141 181 232 287 343 412
#     4  11  22  41  69  97 129 176 226 277 337 404
#
# _framework density 21.127226
#
# number of rings (size 3 to 8) (size 9 to 14) (size 15 to 20)
#    0.000    0.333    5.000    4.500    0.000    6.000 
#    3.000    0.000    0.000    0.000    0.000    0.000 
#    0.000    0.000    0.000    0.000    0.000    0.000 
#
# Total GULP energy -133952.017103 kJ/mol
# GULP energy per Si atom -5581.334046 kJ/mol
# Density = 2.107914 g / cm^3
# Si number density = 21.127226 Si / 1000 Ang^3
#
#
#
# Elastic Constant Matrix: (Units=GPa)
#
#
# Indices 1 2 3 4 5 6 
#
# 1 169.2670 38.8277 23.6529 0.0000 0.0000 0.0000
# 2 38.8277 97.7012 13.0548 0.0000 0.0000 0.0000
# 3 23.6529 13.0548 77.0837 0.0000 0.0000 0.0000
# 4 0.0000 0.0000 0.0000 20.1920 0.0000 0.0000
# 5 0.0000 0.0000 0.0000 0.0000 59.3417 0.0000
# 6 0.0000 0.0000 0.0000 0.0000 0.0000 12.4586
#
#
#
# Elastic Compliance Matrix: (Units=1/GPa)
#
#
# Indices 1 2 3 4 5 6 
#
# 1 0.006697 -0.002442 -0.001641 0.000000 0.000000 0.000000
# 2 -0.002442 0.011363 -0.001175 0.000000 0.000000 0.000000
# 3 -0.001641 -0.001175 0.013676 0.000000 0.000000 0.000000
# 4 0.000000 0.000000 0.000000 0.049525 0.000000 0.000000
# 5 0.000000 0.000000 0.000000 0.000000 0.016852 0.000000
# 6 0.000000 0.000000 0.000000 0.000000 0.000000 0.080266
#
#
# Mechanical properties :
#
#
# Convention : Reuss Voigt Hill
#
# Bulk Modulus (GPa) = 47.12892 55.01362 51.07127
# Shear Modulus (GPa) = 25.51434 36.29956 30.90695
#
# Velocity S-wave (km/s) = 3.47890 4.14954 3.82893
# Velocity P-wave (km/s) = 6.20424 7.00386 6.61614
#
# Compressibility (1/GPa) = 0.02121840
#
# Stress axis : x y z
#
# Youngs Moduli (GPa) = 149.31095 88.00572 73.12304
#
# Poissons Ratio (x) = 0.21494 0.12003
# Poissons Ratio (y) = 0.36466 0.08592
# Poissons Ratio (z) = 0.24509 0.10341
#
# Static dielectric constant tensor:
#      x y z
#    x 1.885910 0.000000 0.000000 
#    y 0.000000 1.811480 0.000000 
#    z 0.000000 0.000000 1.747260 
# 
# From -- ./inp_files/20568.got.cif
#   From: 2010.05.17/outbox.cif.g08.bks.cpg/sg40_11_cif.got.tgz:20568.got - 2010.06.03 18:35:42.
