data_PCOD9365133
_publ_section_title
;
Structure prediction by ZEFSAII (Michael W. Deem and Ramdas Pophale) SiO2 
 PCOD9365133
Probable space group: A M A 2
;
_chemical_formula_sum "Si O2"
_cell_formula_units_Z 32
_cell_length_a 23.089525
_cell_length_b 6.401506
_cell_length_c 8.640780
_cell_angle_alpha 90.000000
_cell_angle_beta 90.000000
_cell_angle_gamma 90.000000
_cell_volume 1277.174102
_symmetry_space_group_name_H-M "A M A 2"
_symmetry_group_IT_number 40
_symmetry_cell_setting 'orthorhombic'
loop_
_space_group_symop_operation_xyz
x,y,z
-x,-y,z
1/2-x,y,z
1/2+x,-y,z
x,1/2+y,1/2+z
-x,1/2-y,1/2+z
1/2-x,1/2+y,1/2+z
1/2+x,1/2-y,1/2+z
loop_
_atom_site_type_symbol
_atom_site_label
_atom_site_fract_x
_atom_site_fract_y
_atom_site_fract_z
Si Si1 0.084022 0.225498 0.973470
Si Si2 0.816970 0.364178 0.677243
Si Si3 0.869546 0.206413 0.982353
Si Si4 0.977389 0.274010 0.183389
O O1 0.052488 0.336289 0.830638
O O2 0.106241 0.005563 0.902648
O O3 0.141173 0.282248 0.071612
O O4 0.033858 0.181558 0.099291
O O5 0.750000 0.314085 0.657497
O O6 0.836443 0.335673 0.853763
O O7 0.830200 0.599658 0.616127
O O8 0.926204 0.306318 0.058805
O O9 0.000000 0.500000 0.235710
#
# Coordination Sequence:
#
# PCOD9365133 Si02
#       4
#     8   8   8   8
#     4  10  24  40  65 101 137 181 233 301 377 448
#     4  10  22  45  69  94 140 194 248 309 374 454
#     4  10  24  43  68 100 135 190 239 305 375 444
#     4  12  23  39  67 104 142 178 234 308 383 454
#
# _framework density 25.055316000000001
#
# number of rings (size 3 to 8) (size 9 to 14) (size 15 to 20)
#    1.500    0.000    0.000    6.000    3.500    0.000 
#    0.000    2.500    0.000    0.000    0.000    0.000 
#    0.000    0.000    0.000    0.000    0.000    0.000 
#
# Total GULP energy -89313.634540 kJ/mol
# GULP energy per Si atom -5582.102159 kJ/mol
# Density = 2.499829 g / cm^3
# Si number density = 25.055316 Si / 1000 Ang^3
#
#
#
# Elastic Constant Matrix: (Units=GPa)
#
#
# Indices 1 2 3 4 5 6 
#
# 1 249.5564 24.5106 104.2970 0.0000 0.0000 0.0000
# 2 24.5106 40.8535 41.7748 0.0000 0.0000 0.0000
# 3 104.2970 41.7748 173.8900 0.0000 0.0000 0.0000
# 4 0.0000 0.0000 0.0000 39.5333 0.0000 0.0000
# 5 0.0000 0.0000 0.0000 0.0000 34.2157 0.0000
# 6 0.0000 0.0000 0.0000 0.0000 0.0000 26.6373
#
#
#
# Elastic Compliance Matrix: (Units=1/GPa)
#
#
# Indices 1 2 3 4 5 6 
#
# 1 0.005348 0.000095 -0.003230 0.000000 0.000000 0.000000
# 2 0.000095 0.032451 -0.007853 0.000000 0.000000 0.000000
# 3 -0.003230 -0.007853 0.009575 0.000000 0.000000 0.000000
# 4 0.000000 0.000000 0.000000 0.025295 0.000000 0.000000
# 5 0.000000 0.000000 0.000000 0.000000 0.029226 0.000000
# 6 0.000000 0.000000 0.000000 0.000000 0.000000 0.037541
#
#
# Mechanical properties :
#
#
# Convention : Reuss Voigt Hill
#
# Bulk Modulus (GPa) = 39.37525 89.49610 64.43568
# Shear Modulus (GPa) = 29.43288 39.65845 34.54566
#
# Velocity S-wave (km/s) = 3.43113 3.98280 3.71722
# Velocity P-wave (km/s) = 5.60770 7.54634 6.64807
#
# Compressibility (1/GPa) = 0.02539666
#
# Stress axis : x y z
#
# Youngs Moduli (GPa) = 186.99074 30.81607 104.44133
#
# Poissons Ratio (x) = -0.00292 0.33738
# Poissons Ratio (y) = -0.01770 0.82014
# Poissons Ratio (z) = 0.60404 0.24199
#
# Static dielectric constant tensor:
#      x y z
#    x 1.915880 0.000000 0.000000 
#    y 0.000000 2.247700 0.000000 
#    z 0.000000 0.000000 1.997400 
# 
# From -- ./inp_files/7942.got.cif
#   From: 2010.05.17/outbox.cif.g08.bks.cpg/sg40_4_cif.got.tgz:7942.got - 2010.06.03 18:35:42.
