data_PCOD9365984
_publ_section_title
;
Structure prediction by ZEFSAII (Michael W. Deem and Ramdas Pophale) SiO2 
 PCOD9365984
Probable space group: A B A 2
;
_chemical_formula_sum "Si O2"
_cell_formula_units_Z 48
_cell_length_a 27.334255
_cell_length_b 9.584231
_cell_length_c 8.524577
_cell_angle_alpha 90.000000
_cell_angle_beta 90.000000
_cell_angle_gamma 90.000000
_cell_volume 2233.250049
_symmetry_space_group_name_H-M "A B A 2"
_symmetry_group_IT_number 41
_symmetry_cell_setting 'orthorhombic'
loop_
_space_group_symop_operation_xyz
x,y,z
-x,-y,z
1/2-x,y,1/2+z
1/2+x,-y,1/2+z
x,1/2+y,1/2+z
-x,1/2-y,1/2+z
1/2-x,1/2+y,z
1/2+x,1/2-y,z
loop_
_atom_site_type_symbol
_atom_site_label
_atom_site_fract_x
_atom_site_fract_y
_atom_site_fract_z
Si Si1 0.957568 0.107804 0.553510
Si Si2 0.898551 0.837878 0.570026
Si Si3 0.512632 0.658549 0.191588
Si Si4 0.677928 0.392710 0.338036
Si Si5 0.178788 0.808307 0.258991
Si Si6 0.257987 0.708612 0.048739
O O1 0.969141 0.150560 0.372669
O O2 0.965067 0.243891 0.660758
O O3 0.912019 0.002301 0.566868
O O4 0.000000 0.000000 0.603890
O O5 0.944906 0.736093 0.591852
O O6 0.866343 0.807610 0.415060
O O7 0.862272 0.801703 0.712222
O O8 0.500000 0.500000 0.144829
O O9 0.656990 0.540987 0.287525
O O10 0.706608 0.333384 0.189682
O O11 0.720477 0.404139 0.471941
O O12 0.219163 0.817389 0.121110
O O13 0.208350 0.761883 0.410393
#
# Coordination Sequence:
#
# PCOD9365984 Si02
#       6
#     8   8   8   8   8   8
#     4   9  20  40  61  84 114 149 192 244 301 358
#     4  10  21  38  59  88 124 154 194 252 299 353
#     4  10  21  41  65  85 113 155 198 246 308 368
#     4  10  19  36  58  85 123 159 200 245 289 348
#     4  10  19  36  59  86 122 161 200 242 289 349
#     4   9  20  35  57  86 118 164 203 237 291 346
#
# _framework density 21.49334
#
# number of rings (size 3 to 8) (size 9 to 14) (size 15 to 20)
#    0.000    2.333    0.000    2.000    0.000    2.000 
#    0.000   21.667    0.000    0.000    0.000    0.000 
#    0.000    0.000    0.000    0.000    0.000    0.000 
#
# Total GULP energy -133731.504525 kJ/mol
# GULP energy per Si atom -5572.146022 kJ/mol
# Density = 2.144442 g / cm^3
# Si number density = 21.493340 Si / 1000 Ang^3
#
#
#
# Elastic Constant Matrix: (Units=GPa)
#
#
# Indices 1 2 3 4 5 6 
#
# 1 78.2715 29.7980 42.2823 0.0000 0.0000 0.0000
# 2 29.7980 105.4908 40.7080 0.0000 0.0000 0.0000
# 3 42.2823 40.7080 83.6246 0.0000 0.0000 0.0000
# 4 0.0000 0.0000 0.0000 23.5310 0.0000 0.0000
# 5 0.0000 0.0000 0.0000 0.0000 6.3050 0.0000
# 6 0.0000 0.0000 0.0000 0.0000 0.0000 12.5935
#
#
#
# Elastic Compliance Matrix: (Units=1/GPa)
#
#
# Indices 1 2 3 4 5 6 
#
# 1 0.017889 -0.001924 -0.008108 0.000000 0.000000 0.000000
# 2 -0.001924 0.011879 -0.004810 0.000000 0.000000 0.000000
# 3 -0.008108 -0.004810 0.018399 0.000000 0.000000 0.000000
# 4 0.000000 0.000000 0.000000 0.042497 0.000000 0.000000
# 5 0.000000 0.000000 0.000000 0.000000 0.158604 0.000000
# 6 0.000000 0.000000 0.000000 0.000000 0.000000 0.079406
#
#
# Mechanical properties :
#
#
# Convention : Reuss Voigt Hill
#
# Bulk Modulus (GPa) = 54.10459 54.77372 54.43915
# Shear Modulus (GPa) = 13.71669 18.79248 16.25459
#
# Velocity S-wave (km/s) = 2.52897 2.96013 2.75300
# Velocity P-wave (km/s) = 5.80990 6.10103 5.95724
#
# Compressibility (1/GPa) = 0.01848272
#
# Stress axis : x y z
#
# Youngs Moduli (GPa) = 55.90152 84.18176 54.35010
#
# Poissons Ratio (x) = 0.16198 0.44068
# Poissons Ratio (y) = 0.10756 0.26141
# Poissons Ratio (z) = 0.45326 0.40490
#
# Static dielectric constant tensor:
#      x y z
#    x 1.840790 0.000000 0.000000 
#    y 0.000000 1.788940 0.000000 
#    z 0.000000 0.000000 1.790010 
# 
# From -- ./inp_files/3931.got.cif
#   From: 2010.05.17/outbox.cif.g08.bks.cpg/sg41_2_cif.got.tgz:3931.got - 2010.06.03 18:54:24.
