data_PCOD9365056
_publ_section_title
;
Structure prediction by ZEFSAII (Michael W. Deem and Ramdas Pophale) SiO2 
 PCOD9365056
Probable space group: A M A 2
;
_chemical_formula_sum "Si O2"
_cell_formula_units_Z 40
_cell_length_a 14.955860
_cell_length_b 14.182498
_cell_length_c 9.217841
_cell_angle_alpha 90.000000
_cell_angle_beta 90.000000
_cell_angle_gamma 90.000000
_cell_volume 1955.209662
_symmetry_space_group_name_H-M "A M A 2"
_symmetry_group_IT_number 40
_symmetry_cell_setting 'orthorhombic'
loop_
_space_group_symop_operation_xyz
x,y,z
-x,-y,z
1/2-x,y,z
1/2+x,-y,z
x,1/2+y,1/2+z
-x,1/2-y,1/2+z
1/2-x,1/2+y,1/2+z
1/2+x,1/2-y,1/2+z
loop_
_atom_site_type_symbol
_atom_site_label
_atom_site_fract_x
_atom_site_fract_y
_atom_site_fract_z
Si Si1 0.250000 0.674513 0.826591
Si Si2 0.902837 0.275779 0.053182
Si Si3 0.750000 0.015603 0.140477
Si Si4 0.750000 0.171313 0.572144
Si Si5 0.080928 0.937312 0.956095
Si Si6 0.438864 0.415300 0.113762
Si Si7 0.750000 0.227033 0.267420
O O1 0.250000 0.577289 0.738362
O O2 0.250000 0.766642 0.720065
O O3 0.161451 0.680854 0.927950
O O4 0.837723 0.269510 0.192052
O O5 0.994000 0.328207 0.091902
O O6 0.925680 0.170736 0.002988
O O7 0.750000 0.114371 0.230942
O O8 0.833124 0.020557 0.032562
O O9 0.659609 0.109693 0.556123
O O10 0.750000 0.242387 0.437465
O O11 0.080425 0.939028 0.781966
O O12 0.000000 0.000000 0.009557
O O13 0.500000 0.500000 0.051006
#
# Coordination Sequence:
#
# PCOD9365056 Si02
#       7
#     4   8   4   4   8   8   4
#     4  11  24  43  73  96 137 182 231 289 339 416
#     4  10  23  46  66  98 139 181 223 287 348 409
#     4  10  23  44  68  98 131 173 230 287 344 402
#     4  12  25  41  67 101 130 176 235 279 344 405
#     4  10  22  42  66  98 133 178 226 281 340 412
#     4  11  26  42  70  97 141 182 225 285 344 415
#     4   9  24  42  68  95 136 171 226 281 339 417
#
# _framework density 20.458162999999999
#
# number of rings (size 3 to 8) (size 9 to 14) (size 15 to 20)
#    0.000    1.600    2.000    1.200    8.400    2.400 
#    3.600    1.000    0.000    0.000    0.000    0.000 
#    0.000    0.000    0.000    0.000    0.000    0.000 
#
# Total GULP energy -111691.097518 kJ/mol
# GULP energy per Si atom -5584.554876 kJ/mol
# Density = 2.041160 g / cm^3
# Si number density = 20.458163 Si / 1000 Ang^3
#
#
#
# Elastic Constant Matrix: (Units=GPa)
#
#
# Indices 1 2 3 4 5 6 
#
# 1 190.3931 71.9117 46.9267 0.0000 0.0000 0.0000
# 2 71.9117 88.5079 17.7304 0.0000 0.0000 0.0000
# 3 46.9267 17.7304 86.6988 0.0000 0.0000 0.0000
# 4 0.0000 0.0000 0.0000 9.5698 0.0000 0.0000
# 5 0.0000 0.0000 0.0000 0.0000 14.8425 0.0000
# 6 0.0000 0.0000 0.0000 0.0000 0.0000 18.7107
#
#
#
# Elastic Compliance Matrix: (Units=1/GPa)
#
#
# Indices 1 2 3 4 5 6 
#
# 1 0.008386 -0.006156 -0.003280 0.000000 0.000000 0.000000
# 2 -0.006156 0.016301 -0.000001 0.000000 0.000000 0.000000
# 3 -0.003280 -0.000001 0.013310 0.000000 0.000000 0.000000
# 4 0.000000 0.000000 0.000000 0.104496 0.000000 0.000000
# 5 0.000000 0.000000 0.000000 0.000000 0.067374 0.000000
# 6 0.000000 0.000000 0.000000 0.000000 0.000000 0.053445
#
#
# Mechanical properties :
#
#
# Convention : Reuss Voigt Hill
#
# Bulk Modulus (GPa) = 52.29862 70.97081 61.63472
# Shear Modulus (GPa) = 17.32733 23.89331 20.61032
#
# Velocity S-wave (km/s) = 2.91342 3.42118 3.17746
# Velocity P-wave (km/s) = 6.07755 7.09732 6.60714
#
# Compressibility (1/GPa) = 0.01912096
#
# Stress axis : x y z
#
# Youngs Moduli (GPa) = 119.24592 61.34677 75.13269
#
# Poissons Ratio (x) = 0.37768 0.24643
# Poissons Ratio (y) = 0.73414 0.00010
# Poissons Ratio (z) = 0.39113 0.00008
#
# Static dielectric constant tensor:
#      x y z
#    x 1.713500 0.000000 0.000000 
#    y 0.000000 1.745680 0.000000 
#    z 0.000000 0.000000 1.721500 
# 
# From -- ./inp_files/6194.got.cif
#   From: 2010.05.17/outbox.cif.g08.bks.cpg/sg40_4_cif.got.tgz:6194.got - 2010.06.03 18:35:42.
