data_PCOD9365046
_publ_section_title
;
Structure prediction by ZEFSAII (Michael W. Deem and Ramdas Pophale) SiO2 
 PCOD9365046
Probable space group: A M A 2
;
_chemical_formula_sum "Si O2"
_cell_formula_units_Z 56
_cell_length_a 22.799087
_cell_length_b 10.747593
_cell_length_c 10.629833
_cell_angle_alpha 90.000000
_cell_angle_beta 90.000000
_cell_angle_gamma 90.000000
_cell_volume 2604.684402
_symmetry_space_group_name_H-M "A M A 2"
_symmetry_group_IT_number 40
_symmetry_cell_setting 'orthorhombic'
loop_
_space_group_symop_operation_xyz
x,y,z
-x,-y,z
1/2-x,y,z
1/2+x,-y,z
x,1/2+y,1/2+z
-x,1/2-y,1/2+z
1/2-x,1/2+y,1/2+z
1/2+x,1/2-y,1/2+z
loop_
_atom_site_type_symbol
_atom_site_label
_atom_site_fract_x
_atom_site_fract_y
_atom_site_fract_z
Si Si1 0.186342 0.224223 0.131040
Si Si2 0.936123 0.442923 0.233423
Si Si3 0.938101 0.685562 0.583879
Si Si4 0.312758 0.504785 0.123175
Si Si5 0.069155 0.689753 0.487334
Si Si6 0.145974 0.181837 0.410089
Si Si7 0.434126 0.450027 0.832294
O O1 0.250000 0.163176 0.104104
O O2 0.190371 0.363615 0.073629
O O3 0.178360 0.224301 0.283016
O O4 0.126324 0.173200 0.072607
O O5 0.934988 0.315710 0.156808
O O6 0.874794 0.503613 0.194745
O O7 0.931659 0.412316 0.378968
O O8 0.000000 0.500000 0.205747
O O9 0.895341 0.708359 0.465738
O O10 0.919653 0.586829 0.688801
O O11 0.006538 0.672373 0.552996
O O12 0.250000 0.522862 0.193194
O O13 0.316780 0.617113 0.022162
O O14 0.070550 0.826934 0.420424
O O15 0.105390 0.064140 0.374598
O O16 0.500000 0.500000 0.839184
#
# Coordination Sequence:
#
# PCOD9365046 Si02
#       7
#     8   8   8   8   8   8   8
#     4  11  24  41  64  90 120 166 215 255 308 385
#     4  10  23  37  62  93 125 164 206 261 317 374
#     4  10  23  37  61  97 124 158 208 253 311 377
#     4  10  22  42  66  88 122 167 209 255 317 377
#     4  11  22  38  60  92 127 160 207 262 311 377
#     4  11  22  41  67  88 128 164 206 258 312 374
#     4  11  21  38  62  92 127 167 199 254 321 368
#
# _framework density 21.499725999999999
#
# number of rings (size 3 to 8) (size 9 to 14) (size 15 to 20)
#    0.000    1.429    2.857    2.143    6.000    2.286 
#    0.000    0.000    0.000    1.714    0.000    0.000 
#    0.000    0.000    0.000    0.000    0.000    0.000 
#
# Total GULP energy -156194.084904 kJ/mol
# GULP energy per Si atom -5578.360175 kJ/mol
# Density = 2.145079 g / cm^3
# Si number density = 21.499726 Si / 1000 Ang^3
#
#
#
# Elastic Constant Matrix: (Units=GPa)
#
#
# Indices 1 2 3 4 5 6 
#
# 1 149.5497 19.8251 31.9670 0.0000 0.0000 0.0000
# 2 19.8251 55.2730 7.1185 0.0000 0.0000 0.0000
# 3 31.9670 7.1185 65.2446 0.0000 0.0000 0.0000
# 4 0.0000 0.0000 0.0000 22.6770 0.0000 0.0000
# 5 0.0000 0.0000 0.0000 0.0000 37.7510 0.0000
# 6 0.0000 0.0000 0.0000 0.0000 0.0000 1.8616
#
#
#
# Elastic Compliance Matrix: (Units=1/GPa)
#
#
# Indices 1 2 3 4 5 6 
#
# 1 0.007753 -0.002324 -0.003545 0.000000 0.000000 0.000000
# 2 -0.002324 0.019047 -0.000939 0.000000 0.000000 0.000000
# 3 -0.003545 -0.000939 0.017166 0.000000 0.000000 0.000000
# 4 0.000000 0.000000 0.000000 0.044097 0.000000 0.000000
# 5 0.000000 0.000000 0.000000 0.000000 0.026489 0.000000
# 6 0.000000 0.000000 0.000000 0.000000 0.000000 0.537165
#
#
# Mechanical properties :
#
#
# Convention : Reuss Voigt Hill
#
# Bulk Modulus (GPa) = 32.95028 43.09874 38.02451
# Shear Modulus (GPa) = 7.40248 26.53505 16.96876
#
# Velocity S-wave (km/s) = 1.85756 3.51694 2.81242
# Velocity P-wave (km/s) = 4.46765 6.04826 5.31702
#
# Compressibility (1/GPa) = 0.03034875
#
# Stress axis : x y z
#
# Youngs Moduli (GPa) = 128.98949 52.50279 58.25383
#
# Poissons Ratio (x) = 0.12202 0.20650
# Poissons Ratio (y) = 0.29979 0.05472
# Poissons Ratio (z) = 0.45725 0.04932
#
# Static dielectric constant tensor:
#      x y z
#    x 1.927720 0.000000 0.000000 
#    y 0.000000 1.819640 0.000000 
#    z 0.000000 0.000000 1.861490 
# 
# From -- ./inp_files/13567.got.cif
#   From: 2010.05.17/outbox.cif.g08.bks.cpg/sg40_7_cif.got.tgz:13567.got - 2010.06.03 18:35:42.
