data_PCOD9365083
_publ_section_title
;
Structure prediction by ZEFSAII (Michael W. Deem and Ramdas Pophale) SiO2 
 PCOD9365083
Probable space group: A M A 2
;
_chemical_formula_sum "Si O2"
_cell_formula_units_Z 36
_cell_length_a 15.400155
_cell_length_b 5.162017
_cell_length_c 18.937282
_cell_angle_alpha 90.000000
_cell_angle_beta 90.000000
_cell_angle_gamma 90.000000
_cell_volume 1505.435555
_symmetry_space_group_name_H-M "A M A 2"
_symmetry_group_IT_number 40
_symmetry_cell_setting 'orthorhombic'
loop_
_space_group_symop_operation_xyz
x,y,z
-x,-y,z
1/2-x,y,z
1/2+x,-y,z
x,1/2+y,1/2+z
-x,1/2-y,1/2+z
1/2-x,1/2+y,1/2+z
1/2+x,1/2-y,1/2+z
loop_
_atom_site_type_symbol
_atom_site_label
_atom_site_fract_x
_atom_site_fract_y
_atom_site_fract_z
Si Si1 0.904251 0.122881 0.712880
Si Si2 0.846643 0.136385 0.982534
Si Si3 0.093390 0.861521 0.553833
Si Si4 0.346497 0.659012 0.345276
Si Si5 0.500000 0.500000 0.810260
O O1 0.870833 0.155911 0.633903
O O2 0.928238 0.375875 0.757808
O O3 0.849779 0.944554 0.765270
O O4 0.000000 0.000000 0.706569
O O5 0.750000 0.053726 0.003841
O O6 0.854317 0.081839 0.899377
O O7 0.856975 0.432404 0.004909
O O8 0.906026 0.925073 0.021790
O O9 0.000000 0.000000 0.557268
O O10 0.250000 0.778315 0.357879
O O11 0.437079 0.814623 0.355274
#
# Coordination Sequence:
#
# PCOD9365083 Si02
#       5
#     8   8   8   8   4
#     4   9  22  41  66  95 133 174 232 290 346 419
#     4  11  26  45  65 100 142 179 229 291 351 422
#     4  11  25  43  71  99 135 181 231 285 354 424
#     4  10  24  43  67  99 140 187 238 296 355 424
#     4  10  22  42  72 102 138 184 246 300 352 430
#
# _framework density 23.913346000000001
#
# number of rings (size 3 to 8) (size 9 to 14) (size 15 to 20)
#    0.000    1.778    0.000    1.333   14.000    6.222 
#    0.000    0.000    0.000    0.000    0.000    0.000 
#    0.000    0.000    0.000    0.000    0.000    0.000 
#
# Total GULP energy -100472.657056 kJ/mol
# GULP energy per Si atom -5581.814281 kJ/mol
# Density = 2.385892 g / cm^3
# Si number density = 23.913346 Si / 1000 Ang^3
#
#
#
# Elastic Constant Matrix: (Units=GPa)
#
#
# Indices 1 2 3 4 5 6 
#
# 1 119.9917 25.6185 28.6466 0.0000 0.0000 0.0000
# 2 25.6185 76.8661 11.7912 0.0000 0.0000 0.0000
# 3 28.6466 11.7912 120.4702 0.0000 0.0000 0.0000
# 4 0.0000 0.0000 0.0000 23.2496 0.0000 0.0000
# 5 0.0000 0.0000 0.0000 0.0000 27.7094 0.0000
# 6 0.0000 0.0000 0.0000 0.0000 0.0000 26.4981
#
#
#
# Elastic Compliance Matrix: (Units=1/GPa)
#
#
# Indices 1 2 3 4 5 6 
#
# 1 0.009407 -0.002835 -0.001959 0.000000 0.000000 0.000000
# 2 -0.002835 0.014062 -0.000702 0.000000 0.000000 0.000000
# 3 -0.001959 -0.000702 0.008835 0.000000 0.000000 0.000000
# 4 0.000000 0.000000 0.000000 0.043012 0.000000 0.000000
# 5 0.000000 0.000000 0.000000 0.000000 0.036089 0.000000
# 6 0.000000 0.000000 0.000000 0.000000 0.000000 0.037739
#
#
# Mechanical properties :
#
#
# Convention : Reuss Voigt Hill
#
# Bulk Modulus (GPa) = 46.92238 49.93783 48.43010
# Shear Modulus (GPa) = 29.89715 32.24287 31.07001
#
# Velocity S-wave (km/s) = 3.53969 3.67593 3.60846
# Velocity P-wave (km/s) = 6.03078 6.24058 6.13658
#
# Compressibility (1/GPa) = 0.02131179
#
# Stress axis : x y z
#
# Youngs Moduli (GPa) = 106.30501 71.11303 113.18011
#
# Poissons Ratio (x) = 0.20158 0.22177
# Poissons Ratio (y) = 0.30134 0.07949
# Poissons Ratio (z) = 0.20830 0.04994
#
# Static dielectric constant tensor:
#      x y z
#    x 1.932510 0.000000 0.000000 
#    y 0.000000 1.985830 0.000000 
#    z 0.000000 0.000000 1.914480 
# 
# From -- ./inp_files/22913.got.cif
#   From: 2010.05.17/outbox.cif.g08.bks.cpg/sg40_12_cif.got.tgz:22913.got - 2010.06.03 18:35:42.
