data_PCOD9365582
_publ_section_title
;
Structure prediction by ZEFSAII (Michael W. Deem and Ramdas Pophale) SiO2 
 PCOD9365582
Probable space group: A M A 2
;
_chemical_formula_sum "Si O2"
_cell_formula_units_Z 36
_cell_length_a 14.535440
_cell_length_b 9.008953
_cell_length_c 10.309026
_cell_angle_alpha 90.000000
_cell_angle_beta 90.000000
_cell_angle_gamma 90.000000
_cell_volume 1349.957633
_symmetry_space_group_name_H-M "A M A 2"
_symmetry_group_IT_number 40
_symmetry_cell_setting 'orthorhombic'
loop_
_space_group_symop_operation_xyz
x,y,z
-x,-y,z
1/2-x,y,z
1/2+x,-y,z
x,1/2+y,1/2+z
-x,1/2-y,1/2+z
1/2-x,1/2+y,1/2+z
1/2+x,1/2-y,1/2+z
loop_
_atom_site_type_symbol
_atom_site_label
_atom_site_fract_x
_atom_site_fract_y
_atom_site_fract_z
Si Si1 0.547805 0.660291 0.166370
Si Si2 0.250000 0.855866 0.584600
Si Si3 0.453177 0.833994 0.998107
Si Si4 0.250000 0.191446 0.544157
Si Si5 0.750000 0.727831 0.827620
Si Si6 0.044206 0.840973 0.328885
O O1 0.500000 0.500000 0.162520
O O2 0.657987 0.656504 0.165942
O O3 0.533190 0.697058 0.332361
O O4 0.538421 0.699209 0.996107
O O5 0.250000 0.016091 0.509102
O O6 0.250000 0.721900 0.477605
O O7 0.500000 0.000000 0.997160
O O8 0.343550 0.779671 0.004657
O O9 0.471398 0.802147 0.163388
O O10 0.250000 0.169586 0.701768
O O11 0.846225 0.647143 0.817152
O O12 0.000000 0.000000 0.334051
#
# Coordination Sequence:
#
# PCOD9365582 Si02
#       6
#     8   4   8   4   4   8
#     4  12  24  45  72 106 148 189 246 311 369 441
#     4  12  24  45  78 107 146 205 248 306 385 448
#     4  12  26  46  72 108 149 192 245 310 372 444
#     4  12  26  47  76 109 152 195 252 314 375 454
#     4  12  24  42  76 102 144 196 246 298 384 442
#     4  12  26  47  72 107 147 198 252 309 376 450
#
# _framework density 26.667504000000001
#
# number of rings (size 3 to 8) (size 9 to 14) (size 15 to 20)
#    0.000    0.000    6.667    3.333    0.000    3.556 
#    0.000    0.000    0.000    0.000    0.000    0.000 
#    0.000    0.000    0.000    0.000    0.000    0.000 
#
# Total GULP energy -100439.733205 kJ/mol
# GULP energy per Si atom -5579.985178 kJ/mol
# Density = 2.660681 g / cm^3
# Si number density = 26.667504 Si / 1000 Ang^3
#
#
#
# Elastic Constant Matrix: (Units=GPa)
#
#
# Indices 1 2 3 4 5 6 
#
# 1 291.3940 120.3281 131.1866 0.0000 0.0000 0.0000
# 2 120.3281 161.3358 75.0240 0.0000 0.0000 0.0000
# 3 131.1866 75.0240 253.8632 0.0000 0.0000 0.0000
# 4 0.0000 0.0000 0.0000 87.8375 0.0000 0.0000
# 5 0.0000 0.0000 0.0000 0.0000 -967.3941 0.0000
# 6 0.0000 0.0000 0.0000 0.0000 0.0000 19.7605
#
#
#
# Elastic Compliance Matrix: (Units=1/GPa)
#
#
# Indices 1 2 3 4 5 6 
#
# 1 0.005688 -0.003334 -0.001954 0.000000 0.000000 0.000000
# 2 -0.003334 0.009139 -0.000978 0.000000 0.000000 0.000000
# 3 -0.001954 -0.000978 0.005238 0.000000 0.000000 0.000000
# 4 0.000000 0.000000 0.000000 0.011385 0.000000 0.000000
# 5 0.000000 0.000000 0.000000 0.000000 -0.001034 0.000000
# 6 0.000000 0.000000 0.000000 0.000000 0.000000 0.050606
#
#
# Mechanical properties :
#
#
# Convention : Reuss Voigt Hill
#
# Bulk Modulus (GPa) = 132.74138 151.07448 141.90793
# Shear Modulus (GPa) = 52.04742 -146.62228 -47.28743
#
# Velocity S-wave (km/s) = 4.42262 -7.42300 -4.21553
# Velocity P-wave (km/s) = 8.71573 4.08581 5.44381
#
# Compressibility (1/GPa) = 0.00753345
#
# Stress axis : x y z
#
# Youngs Moduli (GPa) = 175.80356 109.41562 190.90816
#
# Poissons Ratio (x) = 0.36475 0.37308
# Poissons Ratio (y) = 0.58606 0.18676
# Poissons Ratio (z) = 0.34356 0.10704
#
# Static dielectric constant tensor:
#      x y z
#    x 10.626410 0.000000 0.000000 
#    y 0.000000 1.827900 0.000000 
#    z 0.000000 0.000000 2.512530 
# 
# From -- ./inp_files/6100.got.cif
#   From: 2010.05.17/outbox.cif.g08.bks.cpg/sg40_4_cif.got.tgz:6100.got - 2010.06.03 18:35:42.
