data_PCOD9365665
_publ_section_title
;
Structure prediction by ZEFSAII (Michael W. Deem and Ramdas Pophale) SiO2 
 PCOD9365665
Probable space group: A M A 2
;
_chemical_formula_sum "Si O2"
_cell_formula_units_Z 24
_cell_length_a 9.000000
_cell_length_b 30.000000
_cell_length_c 9.000000
_cell_angle_alpha 90.000000
_cell_angle_beta 90.000000
_cell_angle_gamma 90.000000
_cell_volume 2430.000000
_symmetry_space_group_name_H-M "A M A 2"
_symmetry_group_IT_number 40
_symmetry_cell_setting 'orthorhombic'
loop_
_space_group_symop_operation_xyz
x,y,z
-x,-y,z
1/2-x,y,z
1/2+x,-y,z
x,1/2+y,1/2+z
-x,1/2-y,1/2+z
1/2-x,1/2+y,1/2+z
1/2+x,1/2-y,1/2+z
loop_
_atom_site_type_symbol
_atom_site_label
_atom_site_fract_x
_atom_site_fract_y
_atom_site_fract_z
Si Si1 0.922842 0.873788 0.426560
Si Si2 0.417205 0.206778 0.900112
Si Si3 0.571793 0.547193 0.415468
Si Si4 0.072916 0.952506 0.256368
Si Si5 0.917263 0.284076 0.750184
Si Si6 0.925440 0.632351 0.232546
O O1 0.750000 0.885382 0.440414
O O2 0.937575 0.833617 0.310830
O O3 0.013513 0.915675 0.367529
O O4 0.987402 0.857889 0.582623
O O5 0.250000 0.192230 0.861497
O O6 0.461212 0.251516 0.815997
O O7 0.532699 0.169413 0.851855
O O8 0.424073 0.215756 0.073977
O O9 0.500000 0.500000 0.380507
O O10 0.750000 0.543307 0.411276
O O11 0.530927 0.559368 0.585559
O O12 0.527067 0.585094 0.300693
O O13 0.250000 0.955860 0.264494
O O14 0.000000 0.000000 0.288738
O O15 0.750000 0.269357 0.795857
O O16 0.750000 0.631776 0.204355
#
# Coordination Sequence:
#
# PCOD9365665 Si02
#       6
#     8   8   8   8   8   8
#     4  11  23  39  59  85 117 154 195 238 286 341
#     4  11  23  39  61  87 114 148 190 235 284 339
#     4   9  20  37  59  85 113 148 190 236 286 341
#     4  10  20  37  60  86 115 150 192 238 290 344
#     4  10  23  41  60  85 117 151 189 235 287 343
#     4  11  23  39  58  84 118 153 191 236 287 342
#
# _framework density 9.8765429999999999
#
# number of rings (size 3 to 8) (size 9 to 14) (size 15 to 20)
#    0.000    1.667    0.000    4.000    0.000    8.000 
#    0.000    1.667    0.000    0.000    0.000    0.000 
#    0.000    0.000    0.000    0.000    0.000    0.000 
#
# Total GULP energy -134080.082995 kJ/mol
# GULP energy per Si atom -5586.670125 kJ/mol
# Density = 0.985406 g / cm^3
# Si number density = 9.876543 Si / 1000 Ang^3
#
#
#
# Elastic Constant Matrix: (Units=GPa)
#
#
# Indices 1 2 3 4 5 6 
#
# 1 30.8931 25.1117 23.5591 0.0000 0.0000 0.0000
# 2 25.1117 31.3796 23.0507 0.0000 0.0000 0.0000
# 3 23.5591 23.0507 45.4353 0.0000 0.0000 0.0000
# 4 0.0000 0.0000 0.0000 27.4416 0.0000 0.0000
# 5 0.0000 0.0000 0.0000 0.0000 20.9432 0.0000
# 6 0.0000 0.0000 0.0000 0.0000 0.0000 32.2174
#
#
#
# Elastic Compliance Matrix: (Units=1/GPa)
#
#
# Indices 1 2 3 4 5 6 
#
# 1 0.101212 -0.067659 -0.018155 0.000000 0.000000 0.000000
# 2 -0.067659 0.096029 -0.013636 0.000000 0.000000 0.000000
# 3 -0.018155 -0.013636 0.038341 0.000000 0.000000 0.000000
# 4 0.000000 0.000000 0.000000 0.036441 0.000000 0.000000
# 5 0.000000 0.000000 0.000000 0.000000 0.047748 0.000000
# 6 0.000000 0.000000 0.000000 0.000000 0.000000 0.031039
#
#
# Mechanical properties :
#
#
# Convention : Reuss Voigt Hill
#
# Bulk Modulus (GPa) = 27.26129 27.90568 27.58349
# Shear Modulus (GPa) = 8.89780 18.51954 13.70867
#
# Velocity S-wave (km/s) = 2.12469 3.06527 2.63725
# Velocity P-wave (km/s) = 4.45534 5.16582 4.82368
#
# Compressibility (1/GPa) = 0.03668205
#
# Stress axis : x y z
#
# Youngs Moduli (GPa) = 9.88026 10.41354 26.08191
#
# Poissons Ratio (x) = 0.70457 0.47351
# Poissons Ratio (y) = 0.66849 0.35564
# Poissons Ratio (z) = 0.17937 0.14200
#
# Static dielectric constant tensor:
#      x y z
#    x 1.673520 0.000000 0.000000 
#    y 0.000000 1.682580 0.000000 
#    z 0.000000 0.000000 1.682340 
# 
# From -- ./inp_files/4557.got.cif
#   From: 2010.05.17/outbox.ucp.g08.bks.cvg/sg40_3_cif.got.tgz:4557.got - 2010.06.11 16:26:39.
