data_PCOD9365506
_publ_section_title
;
Structure prediction by ZEFSAII (Michael W. Deem and Ramdas Pophale) SiO2 
 PCOD9365506
Probable space group: A M A 2
;
_chemical_formula_sum "Si O2"
_cell_formula_units_Z 64
_cell_length_a 20.511434
_cell_length_b 18.755780
_cell_length_c 8.958090
_cell_angle_alpha 90.000000
_cell_angle_beta 90.000000
_cell_angle_gamma 90.000000
_cell_volume 3446.248382
_symmetry_space_group_name_H-M "A M A 2"
_symmetry_group_IT_number 40
_symmetry_cell_setting 'orthorhombic'
loop_
_space_group_symop_operation_xyz
x,y,z
-x,-y,z
1/2-x,y,z
1/2+x,-y,z
x,1/2+y,1/2+z
-x,1/2-y,1/2+z
1/2-x,1/2+y,1/2+z
1/2+x,1/2-y,1/2+z
loop_
_atom_site_type_symbol
_atom_site_label
_atom_site_fract_x
_atom_site_fract_y
_atom_site_fract_z
Si Si1 0.326439 0.209782 0.862030
Si Si2 0.562372 0.050163 0.363125
Si Si3 0.326439 0.709782 0.717833
Si Si4 0.326253 0.042782 0.218068
Si Si5 0.558195 0.204592 0.217519
Si Si6 0.062372 0.449837 0.216737
Si Si7 0.058195 0.795408 0.862343
Si Si8 0.173747 0.542782 0.361793
O O1 0.250000 0.223232 0.831862
O O2 0.374381 0.259622 0.770587
O O3 0.339532 0.126262 0.829009
O O4 0.336939 0.219966 0.039931
O O5 0.555224 0.124151 0.276831
O O6 0.566242 0.064096 0.539931
O O7 0.500000 0.000000 0.334800
O O8 0.625926 0.008057 0.307430
O O9 0.250000 0.723231 0.748000
O O10 0.339532 0.626261 0.750854
O O11 0.374381 0.759622 0.809276
O O12 0.250000 0.029401 0.250593
O O13 0.335656 0.032931 0.039931
O O14 0.500000 0.250000 0.289931
O O15 0.552553 0.206232 0.039931
O O16 0.055225 0.375849 0.303031
O O17 0.125926 0.491944 0.272432
O O18 0.000000 0.500000 0.245062
O O19 0.250000 0.529401 0.329269
#
# Coordination Sequence:
#
# PCOD9365506 Si02
#       8
#     8   8   8   8   8   8   8   8
#     4   9  19  38  63  89 119 154 191 234 285 341
#     4  11  24  40  59  85 115 149 192 239 287 341
#     4   9  19  38  63  89 119 154 191 234 285 341
#     4   9  19  37  61  88 117 151 190 231 281 340
#     4  12  25  40  60  85 116 153 193 239 289 343
#     4  11  24  40  59  85 115 149 192 239 287 341
#     4  12  25  40  60  85 116 153 193 239 289 343
#     4   9  19  37  61  88 117 151 190 231 281 340
#
# _framework density 18.570917999999999
#
# number of rings (size 3 to 8) (size 9 to 14) (size 15 to 20)
#    0.000    1.750    0.000    6.000    0.000    9.000 
#    0.000    2.500    0.000    0.000    0.000    0.000 
#    0.000    0.000    0.000    0.000    0.000    0.000 
#
# Total GULP energy -178907.700578 kJ/mol
# GULP energy per Si atom -5590.865643 kJ/mol
# Density = 1.852865 g / cm^3
# Si number density = 18.570918 Si / 1000 Ang^3
#
#
#
# Elastic Constant Matrix: (Units=GPa)
#
#
# Indices 1 2 3 4 5 6 
#
# 1 94.8625 90.1427 89.3052 0.0000 0.0000 0.0000
# 2 90.1427 138.0237 110.2116 0.0000 0.0000 0.0000
# 3 89.3052 110.2116 127.5580 0.0000 0.0000 0.0000
# 4 0.0000 0.0000 0.0000 17.4058 0.0000 0.0000
# 5 0.0000 0.0000 0.0000 0.0000 31.2658 0.0000
# 6 0.0000 0.0000 0.0000 0.0000 0.0000 36.2975
#
#
#
# Elastic Compliance Matrix: (Units=1/GPa)
#
#
# Indices 1 2 3 4 5 6 
#
# 1 0.035210 -0.010680 -0.015423 0.000000 0.000000 0.000000
# 2 -0.010680 0.026604 -0.015509 0.000000 0.000000 0.000000
# 3 -0.015423 -0.015509 0.032038 0.000000 0.000000 0.000000
# 4 0.000000 0.000000 0.000000 0.057452 0.000000 0.000000
# 5 0.000000 0.000000 0.000000 0.000000 0.031984 0.000000
# 6 0.000000 0.000000 0.000000 0.000000 0.000000 0.027550
#
#
# Mechanical properties :
#
#
# Convention : Reuss Voigt Hill
#
# Bulk Modulus (GPa) = 94.10015 104.41812 99.25913
# Shear Modulus (GPa) = 16.80076 21.71280 19.25678
#
# Velocity S-wave (km/s) = 3.01105 3.42304 3.22364
# Velocity P-wave (km/s) = 7.92902 8.48361 8.21100
#
# Compressibility (1/GPa) = 0.01062698
#
# Stress axis : x y z
#
# Youngs Moduli (GPa) = 28.40091 37.58806 31.21309
#
# Poissons Ratio (x) = 0.40144 0.48141
# Poissons Ratio (y) = 0.30332 0.48409
# Poissons Ratio (z) = 0.43804 0.58296
#
# Static dielectric constant tensor:
#      x y z
#    x 1.622830 0.000000 0.000000 
#    y 0.000000 1.609400 0.000000 
#    z 0.000000 0.000000 1.617830 
# 
# From -- ./inp_files/8462.got.cif
#   From: 2010.05.17/outbox.cif.g08.bks.cpg/sg40_5_cif.got.tgz:8462.got - 2010.06.03 18:35:42.
