data_PCOD9365727
_publ_section_title
;
Structure prediction by ZEFSAII (Michael W. Deem and Ramdas Pophale) SiO2 
 PCOD9365727
Probable space group: A B A 2
;
_chemical_formula_sum "Si O2"
_cell_formula_units_Z 40
_cell_length_a 12.950970
_cell_length_b 5.594641
_cell_length_c 21.595313
_cell_angle_alpha 90.000000
_cell_angle_beta 90.000000
_cell_angle_gamma 90.000000
_cell_volume 1564.710598
_symmetry_space_group_name_H-M "A B A 2"
_symmetry_group_IT_number 41
_symmetry_cell_setting 'orthorhombic'
loop_
_space_group_symop_operation_xyz
x,y,z
-x,-y,z
1/2-x,y,1/2+z
1/2+x,-y,1/2+z
x,1/2+y,1/2+z
-x,1/2-y,1/2+z
1/2-x,1/2+y,z
1/2+x,1/2-y,z
loop_
_atom_site_type_symbol
_atom_site_label
_atom_site_fract_x
_atom_site_fract_y
_atom_site_fract_z
Si Si1 0.500000 0.500000 0.435380
Si Si2 0.374157 0.397328 0.668918
Si Si3 0.804493 0.474880 0.294178
Si Si4 0.134944 0.899640 0.123165
Si Si5 0.000000 0.500000 0.510388
Si Si6 0.269231 0.009679 0.927064
O O1 0.494928 0.249405 0.473114
O O2 0.387921 0.512094 0.402869
O O3 0.385087 0.469083 0.740874
O O4 0.411023 0.635120 0.633477
O O5 0.255390 0.381227 0.641953
O O6 0.405664 0.123574 0.662724
O O7 0.729329 0.702646 0.281700
O O8 0.809927 0.488183 0.368653
O O9 0.099601 0.977733 0.054873
O O10 0.249895 0.259741 0.960712
#
# Coordination Sequence:
#
# PCOD9365727 Si02
#       6
#     4   8   8   8   4   8
#     4  12  26  50  65  94 139 168 228 304 310 378
#     4  10  17  35  61  88 122 158 202 251 310 392
#     4  10  16  32  63  91 123 161 202 258 323 398
#     4  10  20  35  57  87 119 166 205 254 311 379
#     4  12  26  44  61  88 135 172 220 280 332 368
#     4  10  23  43  71  98 130 171 225 270 343 400
#
# _framework density 25.563835000000001
#
# number of rings (size 3 to 8) (size 9 to 14) (size 15 to 20)
#    0.000    1.600    4.000    2.400    0.000    0.000 
#   21.600    1.000    0.000    2.400    0.000    0.000 
#    0.000    0.000    0.000    0.000    0.000    0.000 
#
# Total GULP energy -111363.111452 kJ/mol
# GULP energy per Si atom -5568.155573 kJ/mol
# Density = 2.550565 g / cm^3
# Si number density = 25.563835 Si / 1000 Ang^3
#
#
#
# Elastic Constant Matrix: (Units=GPa)
#
#
# Indices 1 2 3 4 5 6 
#
# 1 117.1199 47.3628 10.4884 0.0000 0.0000 0.0000
# 2 47.3628 268.9936 42.3345 0.0000 0.0000 0.0000
# 3 10.4884 42.3345 74.2086 0.0000 0.0000 0.0000
# 4 0.0000 0.0000 0.0000 41.8345 0.0000 0.0000
# 5 0.0000 0.0000 0.0000 0.0000 58.0280 0.0000
# 6 0.0000 0.0000 0.0000 0.0000 0.0000 51.4651
#
#
#
# Elastic Compliance Matrix: (Units=1/GPa)
#
#
# Indices 1 2 3 4 5 6 
#
# 1 0.009204 -0.001556 -0.000413 0.000000 0.000000 0.000000
# 2 -0.001556 0.004347 -0.002260 0.000000 0.000000 0.000000
# 3 -0.000413 -0.002260 0.014823 0.000000 0.000000 0.000000
# 4 0.000000 0.000000 0.000000 0.023904 0.000000 0.000000
# 5 0.000000 0.000000 0.000000 0.000000 0.017233 0.000000
# 6 0.000000 0.000000 0.000000 0.000000 0.000000 0.019431
#
#
# Mechanical properties :
#
#
# Convention : Reuss Voigt Hill
#
# Bulk Modulus (GPa) = 50.20967 73.41040 61.81003
# Shear Modulus (GPa) = 48.05871 54.27461 51.16666
#
# Velocity S-wave (km/s) = 4.34054 4.61271 4.47869
# Velocity P-wave (km/s) = 6.69357 7.55965 7.13976
#
# Compressibility (1/GPa) = 0.01991648
#
# Stress axis : x y z
#
# Youngs Moduli (GPa) = 108.64420 230.03558 67.46131
#
# Poissons Ratio (x) = 0.35784 0.02789
# Poissons Ratio (y) = 0.16900 0.15247
# Poissons Ratio (z) = 0.04492 0.51990
#
# Static dielectric constant tensor:
#      x y z
#    x 1.935680 0.000000 0.000000 
#    y 0.000000 2.040230 0.000000 
#    z 0.000000 0.000000 2.019210 
# 
# From -- ./inp_files/11825.got.cif
#   From: 2010.05.17/outbox.cif.g08.bks.cpg/sg41_6_cif.got.tgz:11825.got - 2010.06.03 18:54:24.
