data_PCOD9365804
_publ_section_title
;
Structure prediction by ZEFSAII (Michael W. Deem and Ramdas Pophale) SiO2 
 PCOD9365804
Probable space group: A B A 2
;
_chemical_formula_sum "Si O2"
_cell_formula_units_Z 60
_cell_length_a 16.312303
_cell_length_b 29.523948
_cell_length_c 5.632315
_cell_angle_alpha 90.000000
_cell_angle_beta 90.000000
_cell_angle_gamma 90.000000
_cell_volume 2712.543099
_symmetry_space_group_name_H-M "A B A 2"
_symmetry_group_IT_number 41
_symmetry_cell_setting 'orthorhombic'
loop_
_space_group_symop_operation_xyz
x,y,z
-x,-y,z
1/2-x,y,1/2+z
1/2+x,-y,1/2+z
x,1/2+y,1/2+z
-x,1/2-y,1/2+z
1/2-x,1/2+y,z
1/2+x,1/2-y,z
loop_
_atom_site_type_symbol
_atom_site_label
_atom_site_fract_x
_atom_site_fract_y
_atom_site_fract_z
Si Si1 0.119224 0.555797 0.178620
Si Si2 0.547081 0.757371 0.507196
Si Si3 0.067018 0.640026 0.396015
Si Si4 0.000000 0.500000 0.511246
Si Si5 0.497306 0.417819 0.276778
Si Si6 0.604421 0.115534 0.139546
Si Si7 0.205745 0.799325 0.658619
Si Si8 0.792129 0.032165 0.646449
O O1 0.129609 0.608615 0.246895
O O2 0.068050 0.529501 0.380420
O O3 0.193064 0.521959 0.134087
O O4 0.054323 0.557455 0.967228
O O5 0.492323 0.760190 0.753759
O O6 0.578967 0.807302 0.434092
O O7 0.621296 0.725950 0.593903
O O8 0.060339 0.614267 0.642465
O O9 0.975225 0.631467 0.287169
O O10 0.045298 0.460136 0.652018
O O11 0.428616 0.384014 0.372114
O O12 0.626572 0.063079 0.175799
O O13 0.681360 0.147643 0.169871
O O14 0.237960 0.788919 0.926046
O O15 0.756519 0.043771 0.387187
#
# Coordination Sequence:
#
# PCOD9365804 Si02
#       8
#     8   8   8   4   8   8   8   8
#     4  10  22  40  56  95 127 169 233 279 339 405
#     4  12  25  48  77 109 142 187 251 310 361 449
#     4  10  23  40  74 102 124 180 230 314 353 416
#     4  10  18  34  62  88 126 166 210 286 344 382
#     4  10  20  35  68  93 128 164 224 294 348 394
#     4  11  23  42  65 103 134 177 236 289 367 432
#     4  12  27  47  71 106 152 190 227 296 385 457
#     4  12  28  42  62  90 137 194 230 276 351 438
#
# _framework density 22.119464000000001
#
# number of rings (size 3 to 8) (size 9 to 14) (size 15 to 20)
#    0.000    1.067    1.333    6.000   11.200    0.000 
#    0.000    1.333    0.000    0.000    0.000    0.000 
#    0.000    0.000    0.000    0.000    0.000    0.000 
#
# Total GULP energy -167107.147319 kJ/mol
# GULP energy per Si atom -5570.238244 kJ/mol
# Density = 2.206912 g / cm^3
# Si number density = 22.119464 Si / 1000 Ang^3
#
#
#
# Elastic Constant Matrix: (Units=GPa)
#
#
# Indices 1 2 3 4 5 6 
#
# 1 26.5075 -7.9814 15.1500 0.0000 0.0000 0.0000
# 2 -7.9814 100.3587 9.4779 0.0000 0.0000 0.0000
# 3 15.1500 9.4779 83.9539 0.0000 0.0000 0.0000
# 4 0.0000 0.0000 0.0000 6.2420 0.0000 0.0000
# 5 0.0000 0.0000 0.0000 0.0000 23.6607 0.0000
# 6 0.0000 0.0000 0.0000 0.0000 0.0000 42.0609
#
#
#
# Elastic Compliance Matrix: (Units=1/GPa)
#
#
# Indices 1 2 3 4 5 6 
#
# 1 0.043807 0.004276 -0.008388 0.000000 0.000000 0.000000
# 2 0.004276 0.010489 -0.001956 0.000000 0.000000 0.000000
# 3 -0.008388 -0.001956 0.013646 0.000000 0.000000 0.000000
# 4 0.000000 0.000000 0.000000 0.160206 0.000000 0.000000
# 5 0.000000 0.000000 0.000000 0.000000 0.042264 0.000000
# 6 0.000000 0.000000 0.000000 0.000000 0.000000 0.023775
#
#
# Mechanical properties :
#
#
# Convention : Reuss Voigt Hill
#
# Bulk Modulus (GPa) = 17.91919 27.12368 22.52143
# Shear Modulus (GPa) = 15.38823 27.33762 21.36292
#
# Velocity S-wave (km/s) = 2.64045 3.51936 3.11110
# Velocity P-wave (km/s) = 4.17309 5.36689 4.80719
#
# Compressibility (1/GPa) = 0.05580608
#
# Stress axis : x y z
#
# Youngs Moduli (GPa) = 22.82761 95.33770 73.28295
#
# Poissons Ratio (x) = -0.40767 0.61469
# Poissons Ratio (y) = -0.09761 0.14333
# Poissons Ratio (z) = 0.19148 0.18646
#
# Static dielectric constant tensor:
#      x y z
#    x 1.847090 0.000000 0.000000 
#    y 0.000000 1.855970 0.000000 
#    z 0.000000 0.000000 2.018710 
# 
# From -- ./inp_files/542.got.cif
#   From: 2010.05.17/outbox.cif.g08.bks.cpg/sg41_1_cif.got.tgz:542.got - 2010.06.03 18:54:24.
