data_PCOD9365513
_publ_section_title
;
Structure prediction by ZEFSAII (Michael W. Deem and Ramdas Pophale) SiO2 
 PCOD9365513
Probable space group: A M A 2
;
_chemical_formula_sum "Si O2"
_cell_formula_units_Z 48
_cell_length_a 16.992630
_cell_length_b 18.118627
_cell_length_c 7.393565
_cell_angle_alpha 90.000000
_cell_angle_beta 90.000000
_cell_angle_gamma 90.000000
_cell_volume 2276.353895
_symmetry_space_group_name_H-M "A M A 2"
_symmetry_group_IT_number 40
_symmetry_cell_setting 'orthorhombic'
loop_
_space_group_symop_operation_xyz
x,y,z
-x,-y,z
1/2-x,y,z
1/2+x,-y,z
x,1/2+y,1/2+z
-x,1/2-y,1/2+z
1/2-x,1/2+y,1/2+z
1/2+x,1/2-y,1/2+z
loop_
_atom_site_type_symbol
_atom_site_label
_atom_site_fract_x
_atom_site_fract_y
_atom_site_fract_z
Si Si1 0.663697 0.684976 0.036750
Si Si2 0.844703 0.862258 0.483543
Si Si3 0.086651 0.036938 0.182065
Si Si4 0.160604 0.385700 0.653811
Si Si5 0.894186 0.332851 0.390363
Si Si6 0.069498 0.788406 0.876389
O O1 0.750000 0.668360 0.113036
O O2 0.649703 0.633951 0.863985
O O3 0.599726 0.676622 0.190560
O O4 0.662258 0.769634 0.968337
O O5 0.882598 0.929283 0.370965
O O6 0.908986 0.898353 0.032628
O O7 0.887919 0.789746 0.403208
O O8 0.135558 0.137856 0.697197
O O9 0.144733 0.971303 0.124587
O O10 0.000000 0.000000 0.195366
O O11 0.250000 0.364334 0.605605
O O12 0.099491 0.338515 0.539821
O O13 0.976108 0.288357 0.368639
O O14 0.250000 0.640916 0.958168
#
# Coordination Sequence:
#
# PCOD9365513 Si02
#       6
#     8   8   8   8   8   8
#     4  11  24  42  71 104 137 180 232 289 350 416
#     4  12  27  46  75 107 143 188 242 297 357 429
#     4  12  28  48  71 104 147 192 232 291 364 428
#     4  11  25  46  70 102 143 180 231 293 353 419
#     4  12  26  43  73 105 142 185 235 293 354 420
#     4  12  24  42  72 108 138 183 236 293 349 420
#
# _framework density 21.086351000000001
#
# number of rings (size 3 to 8) (size 9 to 14) (size 15 to 20)
#    0.000    0.333    5.000    3.500    4.667    4.000 
#    0.000    0.000    0.000    0.000    0.000    0.000 
#    0.000    0.000    0.000    0.000    0.000    0.000 
#
# Total GULP energy -134309.029945 kJ/mol
# GULP energy per Si atom -5596.209581 kJ/mol
# Density = 2.103836 g / cm^3
# Si number density = 21.086351 Si / 1000 Ang^3
#
#
#
# Elastic Constant Matrix: (Units=GPa)
#
#
# Indices 1 2 3 4 5 6 
#
# 1 119.6597 13.3676 28.6545 0.0000 0.0000 0.0000
# 2 13.3676 60.2884 -5.2860 0.0000 0.0000 0.0000
# 3 28.6545 -5.2860 59.0548 0.0000 0.0000 0.0000
# 4 0.0000 0.0000 0.0000 30.5512 0.0000 0.0000
# 5 0.0000 0.0000 0.0000 0.0000 21.8118 0.0000
# 6 0.0000 0.0000 0.0000 0.0000 0.0000 -39.1434
#
#
#
# Elastic Compliance Matrix: (Units=1/GPa)
#
#
# Indices 1 2 3 4 5 6 
#
# 1 0.009851 -0.002624 -0.005015 0.000000 0.000000 0.000000
# 2 -0.002624 0.017417 0.002832 0.000000 0.000000 0.000000
# 3 -0.005015 0.002832 0.019620 0.000000 0.000000 0.000000
# 4 0.000000 0.000000 0.000000 0.032732 0.000000 0.000000
# 5 0.000000 0.000000 0.000000 0.000000 0.045847 0.000000
# 6 0.000000 0.000000 0.000000 0.000000 0.000000 -0.025547
#
#
# Mechanical properties :
#
#
# Convention : Reuss Voigt Hill
#
# Bulk Modulus (GPa) = 26.82748 34.71948 30.77348
# Shear Modulus (GPa) = 40.99766 16.12835 28.56301
#
# Velocity S-wave (km/s) = 4.41418 2.76863 3.68445
# Velocity P-wave (km/s) = 6.22336 5.16929 5.72066
#
# Compressibility (1/GPa) = 0.03727521
#
# Stress axis : x y z
#
# Youngs Moduli (GPa) = 101.51222 57.41497 50.96788
#
# Poissons Ratio (x) = 0.15065 0.25559
# Poissons Ratio (y) = 0.26636 -0.14435
# Poissons Ratio (z) = 0.50906 -0.16261
#
# Static dielectric constant tensor:
#      x y z
#    x 1.734760 0.000000 0.000000 
#    y 0.000000 1.739840 0.000000 
#    z 0.000000 0.000000 1.743900 
# 
# From -- ./inp_files/6589.got.cif
#   From: 2010.05.17/outbox.cif.g08.bks.cpg/sg40_4_cif.got.tgz:6589.got - 2010.06.03 18:35:42.
