data_PCOD9365358
_publ_section_title
;
Structure prediction by ZEFSAII (Michael W. Deem and Ramdas Pophale) SiO2 
 PCOD9365358
Probable space group: A M A 2
;
_chemical_formula_sum "Si O2"
_cell_formula_units_Z 40
_cell_length_a 13.502435
_cell_length_b 24.536539
_cell_length_c 5.085404
_cell_angle_alpha 90.000000
_cell_angle_beta 90.000000
_cell_angle_gamma 90.000000
_cell_volume 1684.809718
_symmetry_space_group_name_H-M "A M A 2"
_symmetry_group_IT_number 40
_symmetry_cell_setting 'orthorhombic'
loop_
_space_group_symop_operation_xyz
x,y,z
-x,-y,z
1/2-x,y,z
1/2+x,-y,z
x,1/2+y,1/2+z
-x,1/2-y,1/2+z
1/2-x,1/2+y,1/2+z
1/2+x,1/2-y,1/2+z
loop_
_atom_site_type_symbol
_atom_site_label
_atom_site_fract_x
_atom_site_fract_y
_atom_site_fract_z
Si Si1 0.750000 0.913020 0.636050
Si Si2 0.077363 0.431606 0.746487
Si Si3 0.750000 0.223293 0.829850
Si Si4 0.250000 0.345739 0.826049
Si Si5 0.029026 0.107853 0.741245
Si Si6 0.750000 0.983226 0.135757
Si Si7 0.457050 0.270407 0.153519
O O1 0.853771 0.884056 0.700749
O O2 0.750000 0.932427 0.334753
O O3 0.750000 0.965242 0.832563
O O4 0.154025 0.381242 0.762699
O O5 0.151097 0.481866 0.696705
O O6 0.000904 0.419803 0.513795
O O7 0.016043 0.430618 0.014827
O O8 0.750000 0.171105 0.630878
O O9 0.648737 0.251464 0.750576
O O10 0.750000 0.205160 0.129856
O O11 0.975994 0.166563 0.720734
O O12 0.531640 0.238359 0.344298
#
# Coordination Sequence:
#
# PCOD9365358 Si02
#       7
#     4   8   4   4   8   4   8
#     4  12  28  45  65  95 150 183 224 255 353 438
#     4  11  22  41  73  98 134 165 235 284 341 378
#     4  12  22  41  71  94 131 168 229 277 333 382
#     4  11  18  38  67 102 117 162 213 287 328 384
#     4  12  25  45  68  98 136 191 218 282 345 407
#     4  11  26  44  69 109 130 177 226 291 330 412
#     4  12  26  44  69 103 136 176 230 282 337 400
#
# _framework density 23.741555000000002
#
# number of rings (size 3 to 8) (size 9 to 14) (size 15 to 20)
#    0.000    0.400    4.000    4.800    0.000    9.600 
#    0.000    0.000    0.000    0.000    0.000    0.000 
#    0.000    0.000    0.000    0.000    0.000    0.000 
#
# Total GULP energy -112005.473227 kJ/mol
# GULP energy per Si atom -5600.273661 kJ/mol
# Density = 2.368752 g / cm^3
# Si number density = 23.741555 Si / 1000 Ang^3
#
#
#
# Elastic Constant Matrix: (Units=GPa)
#
#
# Indices 1 2 3 4 5 6 
#
# 1 137.9697 -8.2520 15.9871 0.0000 0.0000 0.0000
# 2 -8.2520 25.4260 12.4409 0.0000 0.0000 0.0000
# 3 15.9871 12.4409 80.1305 0.0000 0.0000 0.0000
# 4 0.0000 0.0000 0.0000 27.4915 0.0000 0.0000
# 5 0.0000 0.0000 0.0000 0.0000 41.3874 0.0000
# 6 0.0000 0.0000 0.0000 0.0000 0.0000 29.6590
#
#
#
# Elastic Compliance Matrix: (Units=1/GPa)
#
#
# Indices 1 2 3 4 5 6 
#
# 1 0.007700 0.003518 -0.002082 0.000000 0.000000 0.000000
# 2 0.003518 0.044170 -0.007560 0.000000 0.000000 0.000000
# 3 -0.002082 -0.007560 0.014069 0.000000 0.000000 0.000000
# 4 0.000000 0.000000 0.000000 0.036375 0.000000 0.000000
# 5 0.000000 0.000000 0.000000 0.000000 0.024162 0.000000
# 6 0.000000 0.000000 0.000000 0.000000 0.000000 0.033717
#
#
# Mechanical properties :
#
#
# Convention : Reuss Voigt Hill
#
# Bulk Modulus (GPa) = 18.62529 31.54202 25.08365
# Shear Modulus (GPa) = 26.26915 34.59760 30.43337
#
# Velocity S-wave (km/s) = 3.32996 3.82155 3.58419
# Velocity P-wave (km/s) = 4.75888 5.72597 5.26468
#
# Compressibility (1/GPa) = 0.05369045
#
# Stress axis : x y z
#
# Youngs Moduli (GPa) = 129.87588 22.63961 71.07936
#
# Poissons Ratio (x) = -0.07964 0.14801
# Poissons Ratio (y) = -0.45688 0.53733
# Poissons Ratio (z) = 0.27045 0.17115
#
# Static dielectric constant tensor:
#      x y z
#    x 1.952020 0.000000 0.000000 
#    y 0.000000 1.905900 0.000000 
#    z 0.000000 0.000000 1.822100 
# 
# From -- ./inp_files/841.got.cif
#   From: 2010.05.17/outbox.cif.g08.bks.cpg/sg40_1_cif.got.tgz:841.got - 2010.06.03 18:35:42.
