data_PCOD9365908
_publ_section_title
;
Structure prediction by ZEFSAII (Michael W. Deem and Ramdas Pophale) SiO2 
 PCOD9365908
Probable space group: A B A 2
;
_chemical_formula_sum "Si O2"
_cell_formula_units_Z 64
_cell_length_a 23.419825
_cell_length_b 8.193905
_cell_length_c 16.710847
_cell_angle_alpha 90.000000
_cell_angle_beta 90.000000
_cell_angle_gamma 90.000000
_cell_volume 3206.808551
_symmetry_space_group_name_H-M "A B A 2"
_symmetry_group_IT_number 41
_symmetry_cell_setting 'orthorhombic'
loop_
_space_group_symop_operation_xyz
x,y,z
-x,-y,z
1/2-x,y,1/2+z
1/2+x,-y,1/2+z
x,1/2+y,1/2+z
-x,1/2-y,1/2+z
1/2-x,1/2+y,z
1/2+x,1/2-y,z
loop_
_atom_site_type_symbol
_atom_site_label
_atom_site_fract_x
_atom_site_fract_y
_atom_site_fract_z
Si Si1 0.118328 0.250875 0.619320
Si Si2 0.297348 0.226075 0.799403
Si Si3 0.172311 0.852992 0.280830
Si Si4 0.490160 0.305665 0.597145
Si Si5 0.112914 0.403467 0.189945
Si Si6 0.513034 0.815040 0.912945
Si Si7 0.630012 0.161109 0.440824
Si Si8 0.579701 0.385333 0.843286
O O1 0.149636 0.342150 0.690456
O O2 0.140007 0.311485 0.533831
O O3 0.049404 0.276500 0.624604
O O4 0.127960 0.055125 0.631185
O O5 0.230388 0.249678 0.787208
O O6 0.333125 0.310705 0.727555
O O7 0.317393 0.312208 0.881615
O O8 0.314082 0.037202 0.803906
O O9 0.123292 0.764465 0.331725
O O10 0.500000 0.500000 0.606417
O O11 0.432355 0.282475 0.647322
O O12 0.487521 0.279134 0.501713
O O13 0.085288 0.498565 0.265954
O O14 0.580407 0.789532 0.917161
O O15 0.482531 0.689132 0.854495
O O16 0.500000 0.000000 0.891148
O O17 0.600721 0.989660 0.418906
#
# Coordination Sequence:
#
# PCOD9365908 Si02
#       8
#     8   8   8   8   8   8   8   8
#     4   9  19  37  59  85 116 148 185 228 276 338
#     4  11  23  41  60  82 111 148 191 237 285 337
#     4  11  23  41  59  81 111 146 192 240 283 336
#     4   8  16  32  55  82 115 148 180 220 273 331
#     4   9  19  36  59  84 113 152 186 227 285 340
#     4  10  19  33  55  86 118 149 187 233 281 338
#     4  10  21  38  59  84 116 152 187 230 285 341
#     4  10  21  36  57  84 114 151 190 235 285 337
#
# _framework density 19.957538
#
# number of rings (size 3 to 8) (size 9 to 14) (size 15 to 20)
#    0.000    2.250    0.000    4.125    0.000   10.000 
#    0.000    9.375    0.000    3.000    0.000    0.000 
#    0.000    0.000    0.000    0.000    0.000    0.000 
#
# Total GULP energy -178678.176142 kJ/mol
# GULP energy per Si atom -5583.693004 kJ/mol
# Density = 1.991211 g / cm^3
# Si number density = 19.957538 Si / 1000 Ang^3
#
#
#
# Elastic Constant Matrix: (Units=GPa)
#
#
# Indices 1 2 3 4 5 6 
#
# 1 31.9918 -9.9343 13.1126 0.0000 0.0000 0.0000
# 2 -9.9343 55.2833 10.8811 0.0000 0.0000 0.0000
# 3 13.1126 10.8811 63.9107 0.0000 0.0000 0.0000
# 4 0.0000 0.0000 0.0000 29.9510 0.0000 0.0000
# 5 0.0000 0.0000 0.0000 0.0000 18.7651 0.0000
# 6 0.0000 0.0000 0.0000 0.0000 0.0000 27.3926
#
#
#
# Elastic Compliance Matrix: (Units=1/GPa)
#
#
# Indices 1 2 3 4 5 6 
#
# 1 0.037692 0.008583 -0.009195 0.000000 0.000000 0.000000
# 2 0.008583 0.020670 -0.005280 0.000000 0.000000 0.000000
# 3 -0.009195 -0.005280 0.018432 0.000000 0.000000 0.000000
# 4 0.000000 0.000000 0.000000 0.033388 0.000000 0.000000
# 5 0.000000 0.000000 0.000000 0.000000 0.053290 0.000000
# 6 0.000000 0.000000 0.000000 0.000000 0.000000 0.036506
#
#
# Mechanical properties :
#
#
# Convention : Reuss Voigt Hill
#
# Bulk Modulus (GPa) = 15.38206 19.92271 17.65239
# Shear Modulus (GPa) = 21.41945 24.36350 22.89147
#
# Velocity S-wave (km/s) = 3.27961 3.49774 3.39043
# Velocity P-wave (km/s) = 4.69736 5.12996 4.91842
#
# Compressibility (1/GPa) = 0.06501078
#
# Stress axis : x y z
#
# Youngs Moduli (GPa) = 26.53091 48.37869 54.25268
#
# Poissons Ratio (x) = -0.41523 0.49883
# Poissons Ratio (y) = -0.22771 0.28646
# Poissons Ratio (z) = 0.24394 0.25545
#
# Static dielectric constant tensor:
#      x y z
#    x 1.709160 0.000000 0.000000 
#    y 0.000000 1.705620 0.000000 
#    z 0.000000 0.000000 1.722610 
# 
# From -- ./inp_files/10760.got.cif
#   From: 2010.05.17/outbox.cif.g08.bks.cpg/sg41_6_cif.got.tgz:10760.got - 2010.06.03 18:54:24.
