data_PCOD9365889
_publ_section_title
;
Structure prediction by ZEFSAII (Michael W. Deem and Ramdas Pophale) SiO2 
 PCOD9365889
Probable space group: A B A 2
;
_chemical_formula_sum "Si O2"
_cell_formula_units_Z 48
_cell_length_a 18.803931
_cell_length_b 9.064590
_cell_length_c 16.422980
_cell_angle_alpha 90.000000
_cell_angle_beta 90.000000
_cell_angle_gamma 90.000000
_cell_volume 2799.295708
_symmetry_space_group_name_H-M "A B A 2"
_symmetry_group_IT_number 41
_symmetry_cell_setting 'orthorhombic'
loop_
_space_group_symop_operation_xyz
x,y,z
-x,-y,z
1/2-x,y,1/2+z
1/2+x,-y,1/2+z
x,1/2+y,1/2+z
-x,1/2-y,1/2+z
1/2-x,1/2+y,z
1/2+x,1/2-y,z
loop_
_atom_site_type_symbol
_atom_site_label
_atom_site_fract_x
_atom_site_fract_y
_atom_site_fract_z
Si Si1 0.087421 0.659422 0.704720
Si Si2 0.798333 0.696866 0.790398
Si Si3 0.169363 0.168240 0.550169
Si Si4 0.208968 0.856298 0.629802
Si Si5 0.675811 0.390734 0.362402
Si Si6 0.575330 0.190476 0.679172
O O1 0.141554 0.753766 0.650307
O O2 0.117100 0.661874 0.796953
O O3 0.087589 0.486827 0.679111
O O4 0.007017 0.715683 0.697677
O O5 0.752364 0.629198 0.714994
O O6 0.816931 0.565917 0.851621
O O7 0.749824 0.817964 0.833077
O O8 0.870768 0.752096 0.748078
O O9 0.236540 0.272974 0.570169
O O10 0.159530 0.151025 0.454388
O O11 0.101833 0.239672 0.595207
O O12 0.186413 0.011799 0.592685
#
# Coordination Sequence:
#
# PCOD9365889 Si02
#       6
#     8   8   8   8   8   8
#     4   9  19  36  55  71 100 141 172 196 248 312
#     4   9  17  32  52  71  98 136 168 197 247 305
#     4  11  20  32  52  79 104 127 167 218 252 286
#     4  10  19  33  53  75 101 136 170 202 249 306
#     4  10  19  32  51  77 101 127 166 214 251 289
#     4   9  18  35  55  73 100 139 171 201 247 308
#
# _framework density 17.147171
#
# number of rings (size 3 to 8) (size 9 to 14) (size 15 to 20)
#    0.000    2.333    0.000    6.000    0.000    0.667 
#    0.000    8.333    0.000    8.000    0.000    0.000 
#    0.000    0.000    0.000    0.000    0.000    0.000 
#
# Total GULP energy -133889.259999 kJ/mol
# GULP energy per Si atom -5578.719167 kJ/mol
# Density = 1.710814 g / cm^3
# Si number density = 17.147171 Si / 1000 Ang^3
#
#
#
# Elastic Constant Matrix: (Units=GPa)
#
#
# Indices 1 2 3 4 5 6 
#
# 1 113.4197 15.4046 13.7488 0.0000 0.0000 0.0000
# 2 15.4046 33.8480 21.1216 0.0000 0.0000 0.0000
# 3 13.7488 21.1216 76.2761 0.0000 0.0000 0.0000
# 4 0.0000 0.0000 0.0000 23.0439 0.0000 0.0000
# 5 0.0000 0.0000 0.0000 0.0000 8.7458 0.0000
# 6 0.0000 0.0000 0.0000 0.0000 0.0000 25.5826
#
#
#
# Elastic Compliance Matrix: (Units=1/GPa)
#
#
# Indices 1 2 3 4 5 6 
#
# 1 0.009422 -0.003903 -0.000618 0.000000 0.000000 0.000000
# 2 -0.003903 0.037332 -0.009634 0.000000 0.000000 0.000000
# 3 -0.000618 -0.009634 0.015889 0.000000 0.000000 0.000000
# 4 0.000000 0.000000 0.000000 0.043396 0.000000 0.000000
# 5 0.000000 0.000000 0.000000 0.000000 0.114341 0.000000
# 6 0.000000 0.000000 0.000000 0.000000 0.000000 0.039089
#
#
# Mechanical properties :
#
#
# Convention : Reuss Voigt Hill
#
# Bulk Modulus (GPa) = 29.12534 36.01042 32.56788
# Shear Modulus (GPa) = 16.71003 23.02569 19.86786
#
# Velocity S-wave (km/s) = 3.12510 3.66844 3.40761
# Velocity P-wave (km/s) = 5.48124 6.24417 5.87510
#
# Compressibility (1/GPa) = 0.03433436
#
# Stress axis : x y z
#
# Youngs Moduli (GPa) = 106.13774 26.78685 62.93520
#
# Poissons Ratio (x) = 0.10454 0.03887
# Poissons Ratio (y) = 0.41420 0.60632
# Poissons Ratio (z) = 0.06555 0.25807
#
# Static dielectric constant tensor:
#      x y z
#    x 1.576460 0.000000 0.000000 
#    y 0.000000 1.586100 0.000000 
#    z 0.000000 0.000000 1.566360 
# 
# From -- ./inp_files/8701.got.cif
#   From: 2010.05.17/outbox.cif.g08.bks.cpg/sg41_5_cif.got.tgz:8701.got - 2010.06.03 18:54:24.
