data_PCOD9365695
_publ_section_title
;
Structure prediction by ZEFSAII (Michael W. Deem and Ramdas Pophale) SiO2 
 PCOD9365695
Probable space group: A M A 2
;
_chemical_formula_sum "Si O2"
_cell_formula_units_Z 24
_cell_length_a 18.000000
_cell_length_b 15.000000
_cell_length_c 9.000000
_cell_angle_alpha 90.000000
_cell_angle_beta 90.000000
_cell_angle_gamma 90.000000
_cell_volume 2430.000000
_symmetry_space_group_name_H-M "A M A 2"
_symmetry_group_IT_number 40
_symmetry_cell_setting 'orthorhombic'
loop_
_space_group_symop_operation_xyz
x,y,z
-x,-y,z
1/2-x,y,z
1/2+x,-y,z
x,1/2+y,1/2+z
-x,1/2-y,1/2+z
1/2-x,1/2+y,1/2+z
1/2+x,1/2-y,1/2+z
loop_
_atom_site_type_symbol
_atom_site_label
_atom_site_fract_x
_atom_site_fract_y
_atom_site_fract_z
Si Si1 0.938597 0.730921 0.776910
Si Si2 0.661301 0.556909 0.265947
Si Si3 0.090244 0.278557 0.424798
Si Si4 0.921876 0.047244 0.453845
Si Si5 0.838851 0.893029 0.278762
Si Si6 0.339054 0.126199 0.934487
O O1 0.929301 0.723213 0.599529
O O2 0.936653 0.635691 0.858454
O O3 0.874540 0.791291 0.848822
O O4 0.015683 0.776351 0.825732
O O5 0.750000 0.559582 0.243736
O O6 0.636551 0.635379 0.376116
O O7 0.641518 0.463377 0.344388
O O8 0.620979 0.566176 0.107333
O O9 0.135629 0.190893 0.376788
O O10 0.874630 0.979848 0.352251
O O11 0.000000 0.000000 0.489087
O O12 0.750000 0.900386 0.279429
O O13 0.863680 0.879761 0.107039
O O14 0.250000 0.134335 0.935704
#
# Coordination Sequence:
#
# PCOD9365695 Si02
#       6
#     8   8   8   8   8   8
#     4  12  26  43  67  98 136 176 226 271 336 391
#     4  11  25  45  69 100 135 175 222 273 333 393
#     4  12  25  43  67  99 133 178 222 276 330 397
#     4  12  25  43  66 101 133 178 222 272 328 394
#     4  11  23  44  70  98 134 174 220 274 330 390
#     4  10  24  44  69 100 134 175 221 272 328 391
#
# _framework density 9.8765429999999999
#
# number of rings (size 3 to 8) (size 9 to 14) (size 15 to 20)
#    0.000    0.667    1.667    6.000    2.333    5.333 
#    0.000    0.000    0.000    0.000    0.000    0.000 
#    0.000    0.000    0.000    0.000    0.000    0.000 
#
# Total GULP energy -134343.872097 kJ/mol
# GULP energy per Si atom -5597.661337 kJ/mol
# Density = 0.985406 g / cm^3
# Si number density = 9.876543 Si / 1000 Ang^3
#
#
#
# Elastic Constant Matrix: (Units=GPa)
#
#
# Indices 1 2 3 4 5 6 
#
# 1 50.1158 16.4572 43.5150 0.0000 0.0000 0.0000
# 2 16.4572 87.8887 20.5319 0.0000 0.0000 0.0000
# 3 43.5150 20.5319 162.5273 0.0000 0.0000 0.0000
# 4 0.0000 0.0000 0.0000 32.0769 0.0000 0.0000
# 5 0.0000 0.0000 0.0000 0.0000 34.2651 0.0000
# 6 0.0000 0.0000 0.0000 0.0000 0.0000 35.9216
#
#
#
# Elastic Compliance Matrix: (Units=1/GPa)
#
#
# Indices 1 2 3 4 5 6 
#
# 1 0.026986 -0.003468 -0.006787 0.000000 0.000000 0.000000
# 2 -0.003468 0.012170 -0.000609 0.000000 0.000000 0.000000
# 3 -0.006787 -0.000609 0.008047 0.000000 0.000000 0.000000
# 4 0.000000 0.000000 0.000000 0.031175 0.000000 0.000000
# 5 0.000000 0.000000 0.000000 0.000000 0.029184 0.000000
# 6 0.000000 0.000000 0.000000 0.000000 0.000000 0.027838
#
#
# Mechanical properties :
#
#
# Convention : Reuss Voigt Hill
#
# Bulk Modulus (GPa) = 39.25421 51.28223 45.26822
# Shear Modulus (GPa) = 30.18985 35.12124 32.65555
#
# Velocity S-wave (km/s) = 3.91367 4.22122 4.07035
# Velocity P-wave (km/s) = 6.35122 7.05523 6.71246
#
# Compressibility (1/GPa) = 0.02547498
#
# Stress axis : x y z
#
# Youngs Moduli (GPa) = 37.05677 82.17208 124.27122
#
# Poissons Ratio (x) = 0.28493 0.84344
# Poissons Ratio (y) = 0.12849 0.07568
# Poissons Ratio (z) = 0.25151 0.05004
#
# Static dielectric constant tensor:
#      x y z
#    x 1.696590 0.000000 0.000000 
#    y 0.000000 1.683880 0.000000 
#    z 0.000000 0.000000 1.652120 
# 
# From -- ./inp_files/7446.got.cif
#   From: 2010.05.17/outbox.ucp.g08.bks.cvg/sg40_4_cif.got.tgz:7446.got - 2010.06.11 16:26:39.
