data_PCOD9365368
_publ_section_title
;
Structure prediction by ZEFSAII (Michael W. Deem and Ramdas Pophale) SiO2 
 PCOD9365368
Probable space group: A M A 2
;
_chemical_formula_sum "Si O2"
_cell_formula_units_Z 64
_cell_length_a 20.645257
_cell_length_b 20.917421
_cell_length_c 7.804906
_cell_angle_alpha 90.000000
_cell_angle_beta 90.000000
_cell_angle_gamma 90.000000
_cell_volume 3370.513786
_symmetry_space_group_name_H-M "A M A 2"
_symmetry_group_IT_number 40
_symmetry_cell_setting 'orthorhombic'
loop_
_space_group_symop_operation_xyz
x,y,z
-x,-y,z
1/2-x,y,z
1/2+x,-y,z
x,1/2+y,1/2+z
-x,1/2-y,1/2+z
1/2-x,1/2+y,1/2+z
1/2+x,1/2-y,1/2+z
loop_
_atom_site_type_symbol
_atom_site_label
_atom_site_fract_x
_atom_site_fract_y
_atom_site_fract_z
Si Si1 0.927305 0.729200 0.316570
Si Si2 0.909872 0.948553 0.905444
Si Si3 0.444714 0.913682 0.320467
Si Si4 0.555286 0.086318 0.908563
Si Si5 0.927305 0.229200 0.412460
Si Si6 0.823801 0.332161 0.824876
Si Si7 0.909872 0.448553 0.823586
Si Si8 0.176199 0.167839 0.904154
O O1 0.917727 0.654956 0.359279
O O2 0.872601 0.776835 0.387272
O O3 1.000000 0.750000 0.364515
O O4 0.923693 0.736110 0.114515
O O5 0.854166 0.900195 0.850623
O O6 0.909675 0.948676 0.114515
O O7 0.980266 0.921155 0.852192
O O8 0.907620 0.022427 0.849121
O O9 0.445983 0.915793 0.114515
O O10 0.417727 0.845044 0.369751
O O11 0.519734 0.921155 0.376838
O O12 0.407620 0.977573 0.379909
O O13 0.872601 0.276835 0.341758
O O14 0.750000 0.323589 0.880686
O O15 0.854166 0.400195 0.878407
O O16 0.823611 0.331528 0.614515
O O17 0.250000 0.176411 0.848344
#
# Coordination Sequence:
#
# PCOD9365368 Si02
#       8
#     8   8   8   8   8   8   8   8
#     4  11  20  31  50  75 101 130 165 207 249 291
#     4   8  14  27  48  71  95 124 158 199 242 284
#     4   9  16  29  50  74  99 123 156 202 248 289
#     4   9  16  29  50  74  99 123 156 202 248 289
#     4  11  20  31  50  75 101 130 165 207 249 291
#     4   9  17  30  49  72  96 128 171 206 237 290
#     4   8  14  27  48  71  95 124 158 199 242 284
#     4   9  17  30  49  72  96 128 171 206 237 290
#
# _framework density 18.988204
#
# number of rings (size 3 to 8) (size 9 to 14) (size 15 to 20)
#    0.000    2.750    2.500    2.250    0.000    0.000 
#    0.000    3.750    0.000    4.500    0.000    0.000 
#    0.000    0.000    0.000    0.000    0.000    0.000 
#
# Total GULP energy -178387.502535 kJ/mol
# GULP energy per Si atom -5574.609454 kJ/mol
# Density = 1.894499 g / cm^3
# Si number density = 18.988204 Si / 1000 Ang^3
#
#
#
# Elastic Constant Matrix: (Units=GPa)
#
#
# Indices 1 2 3 4 5 6 
#
# 1 146.1060 110.1784 8.0643 0.0000 0.0000 0.0000
# 2 110.1784 189.4620 7.1204 0.0000 0.0000 0.0000
# 3 8.0643 7.1204 20.1766 0.0000 0.0000 0.0000
# 4 0.0000 0.0000 0.0000 24.4614 0.0000 0.0000
# 5 0.0000 0.0000 0.0000 0.0000 9.3693 0.0000
# 6 0.0000 0.0000 0.0000 0.0000 0.0000 26.9333
#
#
#
# Elastic Compliance Matrix: (Units=1/GPa)
#
#
# Indices 1 2 3 4 5 6 
#
# 1 0.012306 -0.007065 -0.002425 0.000000 0.000000 0.000000
# 2 -0.007065 0.009405 -0.000495 0.000000 0.000000 0.000000
# 3 -0.002425 -0.000495 0.050707 0.000000 0.000000 0.000000
# 4 0.000000 0.000000 0.000000 0.040881 0.000000 0.000000
# 5 0.000000 0.000000 0.000000 0.000000 0.106731 0.000000
# 6 0.000000 0.000000 0.000000 0.000000 0.000000 0.037129
#
#
# Mechanical properties :
#
#
# Convention : Reuss Voigt Hill
#
# Bulk Modulus (GPa) = 19.06707 67.38564 43.22636
# Shear Modulus (GPa) = 16.97145 27.51158 22.24152
#
# Velocity S-wave (km/s) = 2.99287 3.81054 3.42619
# Velocity P-wave (km/s) = 4.69110 7.41117 6.20209
#
# Compressibility (1/GPa) = 0.05244644
#
# Stress axis : x y z
#
# Youngs Moduli (GPa) = 81.26040 106.32184 19.72134
#
# Poissons Ratio (x) = 0.75119 0.04783
# Poissons Ratio (y) = 0.57413 0.00977
# Poissons Ratio (z) = 0.19707 0.05266
#
# Static dielectric constant tensor:
#      x y z
#    x 1.635650 0.000000 0.000000 
#    y 0.000000 1.675550 0.000000 
#    z 0.000000 0.000000 1.707440 
# 
# From -- ./inp_files/7799.got.cif
#   From: 2010.05.17/outbox.cif.g08.bks.cpg/sg40_4_cif.got.tgz:7799.got - 2010.06.03 18:35:42.
