data_PCOD9365237
_publ_section_title
;
Structure prediction by ZEFSAII (Michael W. Deem and Ramdas Pophale) SiO2 
 PCOD9365237
Probable space group: A M A 2
;
_chemical_formula_sum "Si O2"
_cell_formula_units_Z 32
_cell_length_a 23.472559
_cell_length_b 6.963476
_cell_length_c 7.889914
_cell_angle_alpha 90.000000
_cell_angle_beta 90.000000
_cell_angle_gamma 90.000000
_cell_volume 1289.611187
_symmetry_space_group_name_H-M "A M A 2"
_symmetry_group_IT_number 40
_symmetry_cell_setting 'orthorhombic'
loop_
_space_group_symop_operation_xyz
x,y,z
-x,-y,z
1/2-x,y,z
1/2+x,-y,z
x,1/2+y,1/2+z
-x,1/2-y,1/2+z
1/2-x,1/2+y,1/2+z
1/2+x,1/2-y,1/2+z
loop_
_atom_site_type_symbol
_atom_site_label
_atom_site_fract_x
_atom_site_fract_y
_atom_site_fract_z
Si Si1 0.683111 0.997266 0.944300
Si Si2 0.128718 0.157440 0.288010
Si Si3 0.087878 0.724363 0.288661
Si Si4 0.483084 0.211370 0.124756
O O1 0.750000 0.984645 0.918095
O O2 0.662305 0.219058 0.927502
O O3 0.644661 0.899248 0.799854
O O4 0.665636 0.884427 0.116388
O O5 0.070571 0.271058 0.238817
O O6 0.109710 0.940310 0.324475
O O7 0.044336 0.683920 0.442121
O O8 0.044842 0.689796 0.130997
O O9 0.500000 0.000000 0.189014
#
# Coordination Sequence:
#
# PCOD9365237 Si02
#       4
#     8   8   8   8
#     4  11  25  46  68  99 142 191 247 301 357 438
#     4  10  24  44  67 100 141 185 235 300 363 435
#     4  10  23  44  70 101 140 182 233 293 379 436
#     4   9  21  41  64 102 138 173 220 292 363 438
#
# _framework density 24.813680000000002
#
# number of rings (size 3 to 8) (size 9 to 14) (size 15 to 20)
#    0.000    2.000    0.000    0.750   10.500    6.000 
#   18.000    0.000    0.000    0.000    0.000    0.000 
#    0.000    0.000    0.000    0.000    0.000    0.000 
#
# Total GULP energy -89331.638610 kJ/mol
# GULP energy per Si atom -5583.227413 kJ/mol
# Density = 2.475720 g / cm^3
# Si number density = 24.813680 Si / 1000 Ang^3
#
#
#
# Elastic Constant Matrix: (Units=GPa)
#
#
# Indices 1 2 3 4 5 6 
#
# 1 247.2600 59.8363 42.5979 0.0000 0.0000 0.0000
# 2 59.8363 90.5210 -0.7387 0.0000 0.0000 0.0000
# 3 42.5979 -0.7387 67.9631 0.0000 0.0000 0.0000
# 4 0.0000 0.0000 0.0000 31.0275 0.0000 0.0000
# 5 0.0000 0.0000 0.0000 0.0000 29.4734 0.0000
# 6 0.0000 0.0000 0.0000 0.0000 0.0000 32.9231
#
#
#
# Elastic Compliance Matrix: (Units=1/GPa)
#
#
# Indices 1 2 3 4 5 6 
#
# 1 0.005544 -0.003693 -0.003515 0.000000 0.000000 0.000000
# 2 -0.003693 0.013508 0.002462 0.000000 0.000000 0.000000
# 3 -0.003515 0.002462 0.016944 0.000000 0.000000 0.000000
# 4 0.000000 0.000000 0.000000 0.032229 0.000000 0.000000
# 5 0.000000 0.000000 0.000000 0.000000 0.033929 0.000000
# 6 0.000000 0.000000 0.000000 0.000000 0.000000 0.030374
#
#
# Mechanical properties :
#
#
# Convention : Reuss Voigt Hill
#
# Bulk Modulus (GPa) = 37.73139 67.68168 52.70653
# Shear Modulus (GPa) = 33.14449 38.95471 36.04960
#
# Velocity S-wave (km/s) = 3.65873 3.96648 3.81571
# Velocity P-wave (km/s) = 5.75216 6.95072 6.37965
#
# Compressibility (1/GPa) = 0.02650313
#
# Stress axis : x y z
#
# Youngs Moduli (GPa) = 180.38940 74.02769 59.01933
#
# Poissons Ratio (x) = 0.27339 0.20744
# Poissons Ratio (y) = 0.66620 -0.14528
# Poissons Ratio (z) = 0.63402 -0.18223
#
# Static dielectric constant tensor:
#      x y z
#    x 1.924020 0.000000 0.000000 
#    y 0.000000 2.078240 0.000000 
#    z 0.000000 0.000000 2.109590 
# 
# From -- ./inp_files/8581.got.cif
#   From: 2010.05.17/outbox.cif.g08.bks.cpg/sg40_5_cif.got.tgz:8581.got - 2010.06.03 18:35:42.
