data_PCOD9365974
_publ_section_title
;
Structure prediction by ZEFSAII (Michael W. Deem and Ramdas Pophale) SiO2 
 PCOD9365974
Probable space group: A B A 2
;
_chemical_formula_sum "Si O2"
_cell_formula_units_Z 32
_cell_length_a 14.968435
_cell_length_b 17.946465
_cell_length_c 5.333126
_cell_angle_alpha 90.000000
_cell_angle_beta 90.000000
_cell_angle_gamma 90.000000
_cell_volume 1432.640276
_symmetry_space_group_name_H-M "A B A 2"
_symmetry_group_IT_number 41
_symmetry_cell_setting 'orthorhombic'
loop_
_space_group_symop_operation_xyz
x,y,z
-x,-y,z
1/2-x,y,1/2+z
1/2+x,-y,1/2+z
x,1/2+y,1/2+z
-x,1/2-y,1/2+z
1/2-x,1/2+y,z
1/2+x,1/2-y,z
loop_
_atom_site_type_symbol
_atom_site_label
_atom_site_fract_x
_atom_site_fract_y
_atom_site_fract_z
Si Si1 0.303631 0.659416 0.670000
Si Si2 0.050389 0.776920 0.240647
Si Si3 0.606879 0.992253 0.314639
Si Si4 0.911199 0.050948 0.315205
O O1 0.272718 0.653834 0.382324
O O2 0.354901 0.736365 0.712227
O O3 0.368832 0.590966 0.735553
O O4 0.060625 0.865571 0.250695
O O5 0.006326 0.748249 0.498622
O O6 0.643733 0.015496 0.585620
O O7 0.500000 0.000000 0.346962
O O8 0.634576 0.045383 0.085876
O O9 0.000000 0.000000 0.345883
#
# Coordination Sequence:
#
# PCOD9365974 Si02
#       4
#     8   8   8   8
#     4  12  26  45  66  99 141 178 219 289 363 407
#     4  12  23  41  69  98 132 181 232 277 332 420
#     4  10  20  39  64  91 124 169 223 266 322 406
#     4  10  19  35  62  94 120 154 216 274 309 373
#
# _framework density 22.336382
#
# number of rings (size 3 to 8) (size 9 to 14) (size 15 to 20)
#    0.000    1.000    0.000   10.500    0.000    0.000 
#    0.000    7.500    0.000    0.000    0.000    0.000 
#    0.000    0.000    0.000    0.000    0.000    0.000 
#
# Total GULP energy -89488.161711 kJ/mol
# GULP energy per Si atom -5593.010107 kJ/mol
# Density = 2.228554 g / cm^3
# Si number density = 22.336382 Si / 1000 Ang^3
#
#
#
# Elastic Constant Matrix: (Units=GPa)
#
#
# Indices 1 2 3 4 5 6 
#
# 1 38.4822 6.8336 -19.1838 0.0000 0.0000 0.0000
# 2 6.8336 125.1811 -18.7236 0.0000 0.0000 0.0000
# 3 -19.1838 -18.7236 141.8984 0.0000 0.0000 0.0000
# 4 0.0000 0.0000 0.0000 29.1382 0.0000 0.0000
# 5 0.0000 0.0000 0.0000 0.0000 28.8347 0.0000
# 6 0.0000 0.0000 0.0000 0.0000 0.0000 29.5950
#
#
#
# Elastic Compliance Matrix: (Units=1/GPa)
#
#
# Indices 1 2 3 4 5 6 
#
# 1 0.027982 -0.000981 0.003653 0.000000 0.000000 0.000000
# 2 -0.000981 0.008184 0.000947 0.000000 0.000000 0.000000
# 3 0.003653 0.000947 0.007666 0.000000 0.000000 0.000000
# 4 0.000000 0.000000 0.000000 0.034319 0.000000 0.000000
# 5 0.000000 0.000000 0.000000 0.000000 0.034680 0.000000
# 6 0.000000 0.000000 0.000000 0.000000 0.000000 0.033789
#
#
# Mechanical properties :
#
#
# Convention : Reuss Voigt Hill
#
# Bulk Modulus (GPa) = 19.58071 27.04600 23.31335
# Shear Modulus (GPa) = 31.96833 39.95595 35.96214
#
# Velocity S-wave (km/s) = 3.78725 4.23404 4.01687
# Velocity P-wave (km/s) = 5.28296 6.00313 5.65453
#
# Compressibility (1/GPa) = 0.05107068
#
# Stress axis : x y z
#
# Youngs Moduli (GPa) = 35.73789 122.19471 130.44254
#
# Poissons Ratio (x) = 0.11988 -0.47657
# Poissons Ratio (y) = 0.03506 -0.12356
# Poissons Ratio (z) = -0.13057 -0.11574
#
# Static dielectric constant tensor:
#      x y z
#    x 1.729900 0.000000 0.000000 
#    y 0.000000 1.771330 0.000000 
#    z 0.000000 0.000000 1.917500 
# 
# From -- ./inp_files/182.got.cif
#   From: 2010.05.17/outbox.cif.g08.bks.cpg/sg41_1_cif.got.tgz:182.got - 2010.06.03 18:54:24.
