data_PCOD9365619
_publ_section_title
;
Structure prediction by ZEFSAII (Michael W. Deem and Ramdas Pophale) SiO2 
 PCOD9365619
Probable space group: A M A 2
;
_chemical_formula_sum "Si O2"
_cell_formula_units_Z 24
_cell_length_a 9.000000
_cell_length_b 9.000000
_cell_length_c 30.000000
_cell_angle_alpha 90.000000
_cell_angle_beta 90.000000
_cell_angle_gamma 90.000000
_cell_volume 2430.000000
_symmetry_space_group_name_H-M "A M A 2"
_symmetry_group_IT_number 40
_symmetry_cell_setting 'orthorhombic'
loop_
_space_group_symop_operation_xyz
x,y,z
-x,-y,z
1/2-x,y,z
1/2+x,-y,z
x,1/2+y,1/2+z
-x,1/2-y,1/2+z
1/2-x,1/2+y,1/2+z
1/2+x,1/2-y,1/2+z
loop_
_atom_site_type_symbol
_atom_site_label
_atom_site_fract_x
_atom_site_fract_y
_atom_site_fract_z
Si Si1 0.078623 0.345810 0.996650
Si Si2 0.578261 0.655473 0.102928
Si Si3 0.429229 0.667624 0.339549
Si Si4 0.571225 0.662979 0.251291
Si Si5 0.572887 0.658118 0.671987
Si Si6 0.073830 0.839586 0.926333
O O1 0.250000 0.337438 0.981118
O O2 0.000000 0.500000 0.985757
O O3 0.974083 0.229587 0.972653
O O4 0.080010 0.330548 0.049770
O O5 0.500000 0.500000 0.114777
O O6 0.750000 0.659928 0.118675
O O7 0.477635 0.781749 0.124166
O O8 0.500000 0.500000 0.339576
O O9 0.250000 0.660603 0.338636
O O10 0.498983 0.737848 0.295184
O O11 0.492825 0.739838 0.384563
O O12 0.500000 0.500000 0.249729
O O13 0.750000 0.658520 0.253884
O O14 0.509754 0.739618 0.207572
O O15 0.500000 0.500000 0.678448
O O16 0.750000 0.659138 0.677259
O O17 0.250000 0.845161 0.919657
O O18 0.000000 0.000000 0.927331
#
# Coordination Sequence:
#
# PCOD9365619 Si02
#       6
#     8   8   8   8   8   8
#     4  10  21  38  59  84 114 148 187 231 280 333
#     4  10  21  39  62  86 112 146 188 232 277 330
#     4  10  18  32  54  82 113 146 187 233 278 325
#     4  11  21  37  60  86 114 148 190 232 276 328
#     4  12  25  41  59  83 115 149 185 229 283 337
#     4  11  21  35  56  83 115 151 190 233 281 331
#
# _framework density 9.8765429999999999
#
# number of rings (size 3 to 8) (size 9 to 14) (size 15 to 20)
#    0.000    1.333    0.000    9.500    0.000    2.667 
#    0.000    0.833    0.000    0.000    0.000    0.000 
#    0.000    0.000    0.000    0.000    0.000    0.000 
#
# Total GULP energy -133860.016674 kJ/mol
# GULP energy per Si atom -5577.500695 kJ/mol
# Density = 0.985406 g / cm^3
# Si number density = 9.876543 Si / 1000 Ang^3
#
#
#
# Elastic Constant Matrix: (Units=GPa)
#
#
# Indices 1 2 3 4 5 6 
#
# 1 229.3977 31.0966 35.1134 0.0000 0.0000 0.0000
# 2 31.0966 44.8062 34.6456 0.0000 0.0000 0.0000
# 3 35.1134 34.6456 -10.9022 0.0000 0.0000 0.0000
# 4 0.0000 0.0000 0.0000 -17.9693 0.0000 0.0000
# 5 0.0000 0.0000 0.0000 0.0000 48.7132 0.0000
# 6 0.0000 0.0000 0.0000 0.0000 0.0000 20.6575
#
#
#
# Elastic Compliance Matrix: (Units=1/GPa)
#
#
# Indices 1 2 3 4 5 6 
#
# 1 0.004738 -0.004364 0.001391 0.000000 0.000000 0.000000
# 2 -0.004364 0.010475 0.019233 0.000000 0.000000 0.000000
# 3 0.001391 0.019233 -0.026123 0.000000 0.000000 0.000000
# 4 0.000000 0.000000 0.000000 -0.055651 0.000000 0.000000
# 5 0.000000 0.000000 0.000000 0.000000 0.020528 0.000000
# 6 0.000000 0.000000 0.000000 0.000000 0.000000 0.048408
#
#
# Mechanical properties :
#
#
# Convention : Reuss Voigt Hill
#
# Bulk Modulus (GPa) = 46.27133 51.66810 48.96972
# Shear Modulus (GPa) = -217.95060 21.11003 -98.42028
#
# Velocity S-wave (km/s) = -10.51556 3.27264 -7.06636
# Velocity P-wave (km/s) = 11.13375 6.36349 6.46012
#
# Compressibility (1/GPa) = 0.02161165
#
# Stress axis : x y z
#
# Youngs Moduli (GPa) = 211.06625 95.46337 -38.28078
#
# Poissons Ratio (x) = 0.41660 0.05326
# Poissons Ratio (y) = 0.92109 0.73627
# Poissons Ratio (z) = -0.29366 -1.83608
#
# Static dielectric constant tensor:
#      x y z
#    x 1.642150 0.000000 0.000000 
#    y 0.000000 1.628120 0.000000 
#    z 0.000000 0.000000 1.814120 
# 
# From -- ./inp_files/26136.got.cif
#   From: 2010.05.17/outbox.ucp.g08.bks.cvg/sg40_14_cif.got.tgz:26136.got - 2010.06.11 16:26:39.
