data_PCOD9365997
_publ_section_title
;
Structure prediction by ZEFSAII (Michael W. Deem and Ramdas Pophale) SiO2 
 PCOD9365997
Probable space group: A B A 2
;
_chemical_formula_sum "Si O2"
_cell_formula_units_Z 36
_cell_length_a 9.189786
_cell_length_b 14.652963
_cell_length_c 12.712479
_cell_angle_alpha 90.000000
_cell_angle_beta 90.000000
_cell_angle_gamma 90.000000
_cell_volume 1711.831839
_symmetry_space_group_name_H-M "A B A 2"
_symmetry_group_IT_number 41
_symmetry_cell_setting 'orthorhombic'
loop_
_space_group_symop_operation_xyz
x,y,z
-x,-y,z
1/2-x,y,1/2+z
1/2+x,-y,1/2+z
x,1/2+y,1/2+z
-x,1/2-y,1/2+z
1/2-x,1/2+y,z
1/2+x,1/2-y,z
loop_
_atom_site_type_symbol
_atom_site_label
_atom_site_fract_x
_atom_site_fract_y
_atom_site_fract_z
Si Si1 0.165087 0.162091 0.096700
Si Si2 0.914232 0.213297 0.418650
Si Si3 0.362613 0.863709 0.335404
Si Si4 0.989373 0.334219 0.135504
Si Si5 0.000000 0.500000 0.499420
O O1 0.318281 0.158261 0.154728
O O2 0.046693 0.229668 0.147816
O O3 0.186503 0.215521 0.985648
O O4 0.097041 0.065590 0.070755
O O5 0.806308 0.161808 0.341143
O O6 0.476373 0.351291 0.512134
O O7 0.037684 0.276481 0.368551
O O8 0.416967 0.890136 0.219285
O O9 0.400413 0.938688 0.422915
#
# Coordination Sequence:
#
# PCOD9365997 Si02
#       5
#     8   8   8   8   4
#     4   9  18  38  58  87 122 163 196 252 300 356
#     4   9  18  35  59  84 117 155 202 245 290 370
#     4  11  20  37  63  86 119 157 205 250 303 358
#     4  10  19  36  63  87 112 167 216 229 299 384
#     4  10  22  38  58  84 134 150 184 268 320 326
#
# _framework density 21.030103
#
# number of rings (size 3 to 8) (size 9 to 14) (size 15 to 20)
#    1.333    0.889    2.222    1.333    0.000    0.000 
#    4.000    0.000    0.000    0.000    0.000    0.000 
#    0.000    0.000    0.000    0.000    0.000    0.000 
#
# Total GULP energy -100265.105083 kJ/mol
# GULP energy per Si atom -5570.283616 kJ/mol
# Density = 2.098224 g / cm^3
# Si number density = 21.030103 Si / 1000 Ang^3
#
#
#
# Elastic Constant Matrix: (Units=GPa)
#
#
# Indices 1 2 3 4 5 6 
#
# 1 85.7057 44.1072 7.5041 0.0000 0.0000 0.0000
# 2 44.1072 60.8358 8.1932 0.0000 0.0000 0.0000
# 3 7.5041 8.1932 53.1522 0.0000 0.0000 0.0000
# 4 0.0000 0.0000 0.0000 18.9266 0.0000 0.0000
# 5 0.0000 0.0000 0.0000 0.0000 22.8476 0.0000
# 6 0.0000 0.0000 0.0000 0.0000 0.0000 9.4572
#
#
#
# Elastic Compliance Matrix: (Units=1/GPa)
#
#
# Indices 1 2 3 4 5 6 
#
# 1 0.018629 -0.013431 -0.000560 0.000000 0.000000 0.000000
# 2 -0.013431 0.026470 -0.002184 0.000000 0.000000 0.000000
# 3 -0.000560 -0.002184 0.019230 0.000000 0.000000 0.000000
# 4 0.000000 0.000000 0.000000 0.052836 0.000000 0.000000
# 5 0.000000 0.000000 0.000000 0.000000 0.043768 0.000000
# 6 0.000000 0.000000 0.000000 0.000000 0.000000 0.105739
#
#
# Mechanical properties :
#
#
# Convention : Reuss Voigt Hill
#
# Bulk Modulus (GPa) = 31.27081 35.47808 33.37445
# Shear Modulus (GPa) = 16.14572 19.57226 17.85899
#
# Velocity S-wave (km/s) = 2.77382 3.05401 2.91728
# Velocity P-wave (km/s) = 5.01604 5.41689 5.22031
#
# Compressibility (1/GPa) = 0.03197870
#
# Stress axis : x y z
#
# Youngs Moduli (GPa) = 53.68012 37.77931 52.00328
#
# Poissons Ratio (x) = 0.50741 0.02911
# Poissons Ratio (y) = 0.72097 0.11357
# Poissons Ratio (z) = 0.03005 0.08251
#
# Static dielectric constant tensor:
#      x y z
#    x 1.761120 0.000000 0.000000 
#    y 0.000000 1.744910 0.000000 
#    z 0.000000 0.000000 1.827360 
# 
# From -- ./inp_files/7155.got.cif
#   From: 2010.05.17/outbox.cif.g08.bks.cpg/sg41_4_cif.got.tgz:7155.got - 2010.06.03 18:54:24.
