data_PCOD9365870
_publ_section_title
;
Structure prediction by ZEFSAII (Michael W. Deem and Ramdas Pophale) SiO2 
 PCOD9365870
Probable space group: A B A 2
;
_chemical_formula_sum "Si O2"
_cell_formula_units_Z 48
_cell_length_a 15.830752
_cell_length_b 11.964344
_cell_length_c 8.822286
_cell_angle_alpha 90.000000
_cell_angle_beta 90.000000
_cell_angle_gamma 90.000000
_cell_volume 1670.981222
_symmetry_space_group_name_H-M "A B A 2"
_symmetry_group_IT_number 41
_symmetry_cell_setting 'orthorhombic'
loop_
_space_group_symop_operation_xyz
x,y,z
-x,-y,z
1/2-x,y,1/2+z
1/2+x,-y,1/2+z
x,1/2+y,1/2+z
-x,1/2-y,1/2+z
1/2-x,1/2+y,z
1/2+x,1/2-y,z
loop_
_atom_site_type_symbol
_atom_site_label
_atom_site_fract_x
_atom_site_fract_y
_atom_site_fract_z
Si Si1 0.632274 0.572117 0.046190
Si Si2 0.500000 0.000000 0.794198
Si Si3 0.040950 0.162308 0.566195
Si Si4 0.630032 0.711167 0.522951
Si Si5 0.500000 0.000000 0.319975
Si Si6 0.690917 0.467321 0.534610
Si Si7 0.212784 0.731249 0.842014
O O1 0.569040 0.563425 0.188760
O O2 0.583091 0.500257 0.921742
O O3 0.721120 0.518134 0.089601
O O4 0.654125 0.689069 0.956139
O O5 0.462384 0.094584 0.905943
O O6 0.996467 0.106843 0.712154
O O7 0.136611 0.128266 0.617488
O O8 0.967151 0.253378 0.527815
O O9 0.633085 0.576278 0.523433
O O10 0.691723 0.734409 0.382169
O O11 0.678976 0.751259 0.673550
O O12 0.712109 0.398769 0.383911
#
# Coordination Sequence:
#
# PCOD9365870 Si02
#       7
#     8   4   8   8   4   8   8
#     4  10  23  42  68 101 144 178 242 304 358 441
#     4  10  22  40  72  98 136 190 236 292 372 428
#     4  11  21  43  70  97 137 191 235 287 379 428
#     4  11  24  46  70  97 150 181 239 310 366 442
#     4  10  18  42  68  94 132 192 224 300 378 418
#     4  11  24  45  74 101 138 195 241 297 374 444
#     4  11  26  43  67 108 136 188 250 295 373 449
#
# _framework density 28.725635
#
# number of rings (size 3 to 8) (size 9 to 14) (size 15 to 20)
#    0.000    1.333    5.000    0.000    4.667    6.667 
#    9.000    0.000    0.000    0.000    0.000    0.000 
#    0.000    0.000    0.000    0.000    0.000    0.000 
#
# Total GULP energy -134015.216313 kJ/mol
# GULP energy per Si atom -5583.967346 kJ/mol
# Density = 2.866025 g / cm^3
# Si number density = 28.725635 Si / 1000 Ang^3
#
#
#
# Elastic Constant Matrix: (Units=GPa)
#
#
# Indices 1 2 3 4 5 6 
#
# 1 109.2482 4.8754 1.1646 0.0000 0.0000 0.0000
# 2 4.8754 106.0949 24.8919 0.0000 0.0000 0.0000
# 3 1.1646 24.8919 120.3299 0.0000 0.0000 0.0000
# 4 0.0000 0.0000 0.0000 47.0743 0.0000 0.0000
# 5 0.0000 0.0000 0.0000 0.0000 46.2836 0.0000
# 6 0.0000 0.0000 0.0000 0.0000 0.0000 5.8468
#
#
#
# Elastic Compliance Matrix: (Units=1/GPa)
#
#
# Indices 1 2 3 4 5 6 
#
# 1 0.009172 -0.000421 -0.000002 0.000000 0.000000 0.000000
# 2 -0.000421 0.009926 -0.002049 0.000000 0.000000 0.000000
# 3 -0.000002 -0.002049 0.008734 0.000000 0.000000 0.000000
# 4 0.000000 0.000000 0.000000 0.021243 0.000000 0.000000
# 5 0.000000 0.000000 0.000000 0.000000 0.021606 0.000000
# 6 0.000000 0.000000 0.000000 0.000000 0.000000 0.171034
#
#
# Mechanical properties :
#
#
# Convention : Reuss Voigt Hill
#
# Bulk Modulus (GPa) = 43.69019 44.17076 43.93047
# Shear Modulus (GPa) = 19.66271 40.15702 29.90987
#
# Velocity S-wave (km/s) = 2.61913 3.74297 3.23030
# Velocity P-wave (km/s) = 4.93852 5.83866 5.40735
#
# Compressibility (1/GPa) = 0.02288844
#
# Stress axis : x y z
#
# Youngs Moduli (GPa) = 109.02411 100.74903 114.48980
#
# Poissons Ratio (x) = 0.04243 0.00019
# Poissons Ratio (y) = 0.04591 0.23461
# Poissons Ratio (z) = 0.00018 0.20645
#
# Static dielectric constant tensor:
#      x y z
#    x 2.367610 0.000000 0.000000 
#    y 0.000000 2.411450 0.000000 
#    z 0.000000 0.000000 2.219930 
# 
# From -- ./inp_files/3053.got.cif
#   From: 2010.05.17/outbox.cif.g08.bks.cpg/sg41_2_cif.got.tgz:3053.got - 2010.06.03 18:54:24.
