data_PCOD9365470
_publ_section_title
;
Structure prediction by ZEFSAII (Michael W. Deem and Ramdas Pophale) SiO2 
 PCOD9365470
Probable space group: A M A 2
;
_chemical_formula_sum "Si O2"
_cell_formula_units_Z 64
_cell_length_a 17.068258
_cell_length_b 8.942581
_cell_length_c 23.827621
_cell_angle_alpha 90.000000
_cell_angle_beta 90.000000
_cell_angle_gamma 90.000000
_cell_volume 3636.911768
_symmetry_space_group_name_H-M "A M A 2"
_symmetry_group_IT_number 40
_symmetry_cell_setting 'orthorhombic'
loop_
_space_group_symop_operation_xyz
x,y,z
-x,-y,z
1/2-x,y,z
1/2+x,-y,z
x,1/2+y,1/2+z
-x,1/2-y,1/2+z
1/2-x,1/2+y,1/2+z
1/2+x,1/2-y,1/2+z
loop_
_atom_site_type_symbol
_atom_site_label
_atom_site_fract_x
_atom_site_fract_y
_atom_site_fract_z
Si Si1 0.491411 0.678230 0.205080
Si Si2 0.340707 0.677052 0.033626
Si Si3 0.924676 0.604742 0.311966
Si Si4 0.511470 0.675782 0.587320
Si Si5 0.159230 0.181054 0.777100
Si Si6 0.927395 0.110844 0.500792
Si Si7 0.341003 0.856035 0.390924
Si Si8 0.660536 0.288176 0.902550
O O1 0.500000 0.500000 0.191799
O O2 0.549507 0.701433 0.257886
O O3 0.507935 0.773249 0.150380
O O4 0.403880 0.708813 0.228251
O O5 0.250000 0.692938 0.049288
O O6 0.400906 0.766050 0.072550
O O7 0.364748 0.501843 0.029258
O O8 0.350951 0.731362 0.969079
O O9 0.855885 0.490956 0.294645
O O10 0.899779 0.698619 0.365092
O O11 0.000000 0.500000 0.323438
O O12 0.500000 0.500000 0.580418
O O13 0.457257 0.767286 0.544248
O O14 0.250000 0.207456 0.762661
O O15 0.138478 0.279569 0.832111
O O16 0.893715 0.183994 0.444380
O O17 0.000000 0.000000 0.486549
O O18 0.250000 0.817804 0.402490
O O19 0.346365 0.035906 0.388673
O O20 0.750000 0.242835 0.889419
#
# Coordination Sequence:
#
# PCOD9365470 Si02
#       8
#     8   8   8   8   8   8   8   8
#     4   9  20  37  52  69  98 137 179 213 248 305
#     4   9  19  36  57  79 105 142 181 212 253 314
#     4   9  19  32  50  75 103 131 168 209 249 302
#     4  11  23  37  54  78 107 136 174 226 274 310
#     4   9  18  32  52  77 102 131 166 206 255 305
#     4   9  18  33  55  77 102 138 177 210 252 312
#     4   9  18  32  51  78 107 133 166 207 251 303
#     4   9  17  31  52  77 105 134 164 203 252 305
#
# _framework density 17.597346999999999
#
# number of rings (size 3 to 8) (size 9 to 14) (size 15 to 20)
#    0.000    3.000    0.000    2.625    0.000    9.000 
#    0.000    3.125    0.000    6.000    0.000    0.000 
#    0.000    0.000    0.000    0.000    0.000    0.000 
#
# Total GULP energy -178378.760092 kJ/mol
# GULP energy per Si atom -5574.336253 kJ/mol
# Density = 1.755729 g / cm^3
# Si number density = 17.597347 Si / 1000 Ang^3
#
#
#
# Elastic Constant Matrix: (Units=GPa)
#
#
# Indices 1 2 3 4 5 6 
#
# 1 59.3830 28.4006 50.3480 0.0000 0.0000 0.0000
# 2 28.4006 41.9530 44.4574 0.0000 0.0000 0.0000
# 3 50.3480 44.4574 86.0230 0.0000 0.0000 0.0000
# 4 0.0000 0.0000 0.0000 24.7552 0.0000 0.0000
# 5 0.0000 0.0000 0.0000 0.0000 16.1458 0.0000
# 6 0.0000 0.0000 0.0000 0.0000 0.0000 16.8717
#
#
#
# Elastic Compliance Matrix: (Units=1/GPa)
#
#
# Indices 1 2 3 4 5 6 
#
# 1 0.033765 -0.004235 -0.017573 0.000000 0.000000 0.000000
# 2 -0.004235 0.053226 -0.025029 0.000000 0.000000 0.000000
# 3 -0.017573 -0.025029 0.034845 0.000000 0.000000 0.000000
# 4 0.000000 0.000000 0.000000 0.040396 0.000000 0.000000
# 5 0.000000 0.000000 0.000000 0.000000 0.061935 0.000000
# 6 0.000000 0.000000 0.000000 0.000000 0.000000 0.059271
#
#
# Mechanical properties :
#
#
# Convention : Reuss Voigt Hill
#
# Bulk Modulus (GPa) = 35.50937 48.19679 41.85308
# Shear Modulus (GPa) = 12.93657 15.83140 14.38399
#
# Velocity S-wave (km/s) = 2.71429 3.00267 2.86211
# Velocity P-wave (km/s) = 5.48141 6.28247 5.89556
#
# Compressibility (1/GPa) = 0.02816158
#
# Stress axis : x y z
#
# Youngs Moduli (GPa) = 29.61640 18.78771 28.69824
#
# Poissons Ratio (x) = 0.07957 0.50432
# Poissons Ratio (y) = 0.12543 0.71828
# Poissons Ratio (z) = 0.52046 0.47024
#
# Static dielectric constant tensor:
#      x y z
#    x 1.629240 0.000000 0.000000 
#    y 0.000000 1.590880 0.000000 
#    z 0.000000 0.000000 1.587930 
# 
# From -- ./inp_files/24938.got.cif
#   From: 2010.05.17/outbox.cif.g08.bks.cpg/sg40_13_cif.got.tgz:24938.got - 2010.06.03 18:35:42.
