data_PCOD9365610
_publ_section_title
;
Structure prediction by ZEFSAII (Michael W. Deem and Ramdas Pophale) SiO2 
 PCOD9365610
Probable space group: A M A 2
;
_chemical_formula_sum "Si O2"
_cell_formula_units_Z 32
_cell_length_a 9.000000
_cell_length_b 24.000000
_cell_length_c 18.000000
_cell_angle_alpha 90.000000
_cell_angle_beta 90.000000
_cell_angle_gamma 90.000000
_cell_volume 3888.000000
_symmetry_space_group_name_H-M "A M A 2"
_symmetry_group_IT_number 40
_symmetry_cell_setting 'orthorhombic'
loop_
_space_group_symop_operation_xyz
x,y,z
-x,-y,z
1/2-x,y,z
1/2+x,-y,z
x,1/2+y,1/2+z
-x,1/2-y,1/2+z
1/2-x,1/2+y,1/2+z
1/2+x,1/2-y,1/2+z
loop_
_atom_site_type_symbol
_atom_site_label
_atom_site_fract_x
_atom_site_fract_y
_atom_site_fract_z
Si Si1 0.928342 0.674286 0.419750
Si Si2 0.572347 0.225238 0.363358
Si Si3 0.071269 0.669012 0.009864
Si Si4 0.429392 0.939193 0.449671
Si Si5 0.425119 0.888038 0.286834
Si Si6 0.572511 0.771999 0.067696
Si Si7 0.427565 0.940572 0.988279
Si Si8 0.425967 0.112328 0.135175
O O1 0.750000 0.682617 0.421300
O O2 0.957476 0.608184 0.427206
O O3 0.001440 0.713251 0.356289
O O4 0.004441 0.698834 0.494171
O O5 0.750000 0.229248 0.377320
O O6 0.489035 0.197328 0.433738
O O7 0.551568 0.178300 0.300744
O O8 0.250000 0.667501 0.011559
O O9 0.001448 0.607249 0.004218
O O10 0.007278 0.711874 0.071918
O O11 0.250000 0.939594 0.457923
O O12 0.461557 0.919044 0.364496
O O13 0.500000 0.000000 0.461037
O O14 0.250000 0.896595 0.272946
O O15 0.516915 0.906733 0.215418
O O16 0.750000 0.763903 0.060080
O O17 0.546842 0.820710 0.127790
O O18 0.250000 0.946018 0.994732
O O19 0.500000 0.000000 0.970687
O O20 0.491850 0.918419 0.067131
O O21 0.250000 0.103338 0.126983
#
# Coordination Sequence:
#
# PCOD9365610 Si02
#       8
#     8   8   8   8   8   8   8   8
#     4   9  16  26  42  63  82 104 135 174 216 256
#     4   9  16  27  43  62  83 108 136 172 216 258
#     4  10  17  26  43  64  83 107 137 173 216 258
#     4  10  20  33  46  62  85 115 148 182 216 253
#     4   9  19  32  44  60  86 117 148 180 213 249
#     4   9  16  27  42  61  83 107 136 173 215 257
#     4  10  20  32  45  61  85 115 148 182 215 252
#     4  10  20  31  45  63  85 115 149 182 216 251
#
# _framework density 8.2304530000000007
#
# number of rings (size 3 to 8) (size 9 to 14) (size 15 to 20)
#    0.000    2.500    0.000    5.625    0.000    6.500 
#    0.000    1.250    0.000    0.000    0.000    0.000 
#    0.000    1.000    0.000    9.000    0.000    7.000 
#
# Total GULP energy -178155.595765 kJ/mol
# GULP energy per Si atom -5567.362368 kJ/mol
# Density = 0.821172 g / cm^3
# Si number density = 8.230453 Si / 1000 Ang^3
#
#
#
# Elastic Constant Matrix: (Units=GPa)
#
#
# Indices 1 2 3 4 5 6 
#
# 1 92.1704 49.7861 4.3460 0.0000 0.0000 0.0000
# 2 49.7861 133.1515 2.1728 0.0000 0.0000 0.0000
# 3 4.3460 2.1728 0.9295 0.0000 0.0000 0.0000
# 4 0.0000 0.0000 0.0000 14.1247 0.0000 0.0000
# 5 0.0000 0.0000 0.0000 0.0000 14.3711 0.0000
# 6 0.0000 0.0000 0.0000 0.0000 0.0000 32.6518
#
#
#
# Elastic Compliance Matrix: (Units=1/GPa)
#
#
# Indices 1 2 3 4 5 6 
#
# 1 0.016781 -0.005192 -0.066323 0.000000 0.000000 0.000000
# 2 -0.005192 0.009415 0.002269 0.000000 0.000000 0.000000
# 3 -0.066323 0.002269 1.380576 0.000000 0.000000 0.000000
# 4 0.000000 0.000000 0.000000 0.070798 0.000000 0.000000
# 5 0.000000 0.000000 0.000000 0.000000 0.069584 0.000000
# 6 0.000000 0.000000 0.000000 0.000000 0.000000 0.030626
#
#
# Mechanical properties :
#
#
# Convention : Reuss Voigt Hill
#
# Bulk Modulus (GPa) = 0.78847 37.65126 19.21987
# Shear Modulus (GPa) = 2.33751 23.55928 12.94840
#
# Velocity S-wave (km/s) = 1.19295 3.78726 2.80771
# Velocity P-wave (km/s) = 1.54192 6.48438 4.71300
#
# Compressibility (1/GPa) = 1.26828015
#
# Stress axis : x y z
#
# Youngs Moduli (GPa) = 59.58978 106.21726 0.72434
#
# Poissons Ratio (x) = 0.55152 0.04804
# Poissons Ratio (y) = 0.30941 -0.00164
# Poissons Ratio (z) = 3.95216 -0.24106
#
# Static dielectric constant tensor:
#      x y z
#    x 1.545870 0.000000 0.000000 
#    y 0.000000 1.615320 0.000000 
#    z 0.000000 0.000000 1.543580 
# 
# From -- ./inp_files/19747.got.cif
#   From: 2010.05.17/outbox.ucp.g08.bks.cvg/sg40_10_cif.got.tgz:19747.got - 2010.06.11 16:26:39.
