data_PCOD9365240
_publ_section_title
;
Structure prediction by ZEFSAII (Michael W. Deem and Ramdas Pophale) SiO2 
 PCOD9365240
Probable space group: A M A 2
;
_chemical_formula_sum "Si O2"
_cell_formula_units_Z 36
_cell_length_a 20.556317
_cell_length_b 13.434143
_cell_length_c 4.788704
_cell_angle_alpha 90.000000
_cell_angle_beta 90.000000
_cell_angle_gamma 90.000000
_cell_volume 1322.431746
_symmetry_space_group_name_H-M "A M A 2"
_symmetry_group_IT_number 40
_symmetry_cell_setting 'orthorhombic'
loop_
_space_group_symop_operation_xyz
x,y,z
-x,-y,z
1/2-x,y,z
1/2+x,-y,z
x,1/2+y,1/2+z
-x,1/2-y,1/2+z
1/2-x,1/2+y,1/2+z
1/2+x,1/2-y,1/2+z
loop_
_atom_site_type_symbol
_atom_site_label
_atom_site_fract_x
_atom_site_fract_y
_atom_site_fract_z
Si Si1 0.432579 0.963216 0.118290
Si Si2 0.324221 0.837145 0.420568
Si Si3 0.250000 0.455978 0.171566
Si Si4 0.507365 0.319745 0.207949
Si Si5 0.141857 0.617912 0.269435
O O1 0.383674 0.895088 0.291419
O O2 0.500000 0.000000 0.260648
O O3 0.461469 0.901430 0.852442
O O4 0.391082 0.057282 0.021700
O O5 0.250000 0.887763 0.346412
O O6 0.309766 0.869075 0.738860
O O7 0.326315 0.721916 0.360856
O O8 0.193281 0.542643 0.143902
O O9 0.523406 0.245278 0.464555
O O10 0.577156 0.355882 0.096374
#
# Coordination Sequence:
#
# PCOD9365240 Si02
#       5
#     8   8   4   8   8
#     4  10  24  45  70 111 149 202 263 319 395 469
#     4  10  23  45  68 107 152 200 257 328 385 468
#     4  10  24  42  70 102 150 200 254 314 390 466
#     4  11  25  46  77 111 153 202 256 325 394 464
#     4  11  23  45  68 106 149 198 255 320 390 466
#
# _framework density 27.222574999999999
#
# number of rings (size 3 to 8) (size 9 to 14) (size 15 to 20)
#    0.667    0.889    3.333    0.000    4.667    3.556 
#    0.000    7.778    0.000    0.000    0.000    0.000 
#    0.000    0.000    0.000    0.000    0.000    0.000 
#
# Total GULP energy -100295.520481 kJ/mol
# GULP energy per Si atom -5571.973360 kJ/mol
# Density = 2.716062 g / cm^3
# Si number density = 27.222575 Si / 1000 Ang^3
#
#
#
# Elastic Constant Matrix: (Units=GPa)
#
#
# Indices 1 2 3 4 5 6 
#
# 1 241.7480 125.5822 65.7502 0.0000 0.0000 0.0000
# 2 125.5822 242.8277 43.1204 0.0000 0.0000 0.0000
# 3 65.7502 43.1204 86.1873 0.0000 0.0000 0.0000
# 4 0.0000 0.0000 0.0000 39.1252 0.0000 0.0000
# 5 0.0000 0.0000 0.0000 0.0000 20.6018 0.0000
# 6 0.0000 0.0000 0.0000 0.0000 0.0000 63.1929
#
#
#
# Elastic Compliance Matrix: (Units=1/GPa)
#
#
# Indices 1 2 3 4 5 6 
#
# 1 0.006546 -0.002742 -0.003622 0.000000 0.000000 0.000000
# 2 -0.002742 0.005668 -0.000744 0.000000 0.000000 0.000000
# 3 -0.003622 -0.000744 0.014738 0.000000 0.000000 0.000000
# 4 0.000000 0.000000 0.000000 0.025559 0.000000 0.000000
# 5 0.000000 0.000000 0.000000 0.000000 0.048540 0.000000
# 6 0.000000 0.000000 0.000000 0.000000 0.000000 0.015825
#
#
# Mechanical properties :
#
#
# Convention : Reuss Voigt Hill
#
# Bulk Modulus (GPa) = 78.51625 115.51875 97.01750
# Shear Modulus (GPa) = 36.94468 47.00464 41.97466
#
# Velocity S-wave (km/s) = 3.68793 4.15984 3.93097
# Velocity P-wave (km/s) = 6.85852 8.09935 7.50462
#
# Compressibility (1/GPa) = 0.01273622
#
# Stress axis : x y z
#
# Youngs Moduli (GPa) = 152.76086 176.41417 67.85208
#
# Poissons Ratio (x) = 0.48378 0.24576
# Poissons Ratio (y) = 0.41892 0.05048
# Poissons Ratio (z) = 0.55329 0.13125
#
# Static dielectric constant tensor:
#      x y z
#    x 2.201780 0.000000 0.000000 
#    y 0.000000 2.159750 0.000000 
#    z 0.000000 0.000000 2.132330 
# 
# From -- ./inp_files/2627.got.cif
#   From: 2010.05.17/outbox.cif.g08.bks.cpg/sg40_2_cif.got.tgz:2627.got - 2010.06.03 18:35:42.
