data_PCOD9365045
_publ_section_title
;
Structure prediction by ZEFSAII (Michael W. Deem and Ramdas Pophale) SiO2 
 PCOD9365045
Probable space group: A M A 2
;
_chemical_formula_sum "Si O2"
_cell_formula_units_Z 52
_cell_length_a 27.671099
_cell_length_b 12.225133
_cell_length_c 7.452520
_cell_angle_alpha 90.000000
_cell_angle_beta 90.000000
_cell_angle_gamma 90.000000
_cell_volume 2521.059821
_symmetry_space_group_name_H-M "A M A 2"
_symmetry_group_IT_number 40
_symmetry_cell_setting 'orthorhombic'
loop_
_space_group_symop_operation_xyz
x,y,z
-x,-y,z
1/2-x,y,z
1/2+x,-y,z
x,1/2+y,1/2+z
-x,1/2-y,1/2+z
1/2-x,1/2+y,1/2+z
1/2+x,1/2-y,1/2+z
loop_
_atom_site_type_symbol
_atom_site_label
_atom_site_fract_x
_atom_site_fract_y
_atom_site_fract_z
Si Si1 0.143794 0.377360 0.948700
Si Si2 0.905099 0.890259 0.447706
Si Si3 0.250000 0.632314 0.215141
Si Si4 0.514818 0.375335 0.254132
Si Si5 0.167407 0.787128 0.085898
Si Si6 0.932826 0.282432 0.604831
Si Si7 0.750000 0.553633 0.931848
Si Si8 0.250000 0.441289 0.501778
O O1 0.120489 0.494966 0.988517
O O2 0.138841 0.355702 0.735151
O O3 0.200922 0.385258 0.985566
O O4 0.115541 0.282624 0.050957
O O5 0.949127 0.875384 0.584565
O O6 0.867679 0.790991 0.477230
O O7 0.922491 0.879816 0.243477
O O8 0.203367 0.709237 0.201180
O O9 0.250000 0.548848 0.380858
O O10 0.250000 0.560368 0.034930
O O11 0.500000 0.500000 0.290587
O O12 0.541955 0.325100 0.424889
O O13 0.468592 0.302474 0.203329
O O14 0.202253 0.866988 0.972861
O O15 0.750000 0.536357 0.716668
#
# Coordination Sequence:
#
# PCOD9365045 Si02
#       8
#     8   8   4   8   8   8   4   4
#     4  11  24  46  69 104 144 179 235 288 339 412
#     4  12  25  43  70 101 139 175 229 286 343 415
#     4  11  21  43  69  92 141 188 229 289 343 390
#     4  12  26  47  71 101 137 175 233 286 352 415
#     4  10  23  43  65 101 138 178 234 284 337 419
#     4  12  27  44  74 105 134 188 223 288 358 415
#     4  10  22  42  66 102 140 182 232 282 332 414
#     4   9  23  41  65  96 137 182 233 283 335 406
#
# _framework density 20.626245999999998
#
# number of rings (size 3 to 8) (size 9 to 14) (size 15 to 20)
#    0.000    0.923    6.154    0.462    2.154    5.538 
#    0.000    2.308    0.000    0.000    0.000    0.000 
#    0.000    0.000    0.000    0.000    0.000    0.000 
#
# Total GULP energy -145398.517118 kJ/mol
# GULP energy per Si atom -5592.250658 kJ/mol
# Density = 2.057930 g / cm^3
# Si number density = 20.626246 Si / 1000 Ang^3
#
#
#
# Elastic Constant Matrix: (Units=GPa)
#
#
# Indices 1 2 3 4 5 6 
#
# 1 70.0611 26.4943 2.8416 0.0000 0.0000 0.0000
# 2 26.4943 68.3804 17.4896 0.0000 0.0000 0.0000
# 3 2.8416 17.4896 36.5674 0.0000 0.0000 0.0000
# 4 0.0000 0.0000 0.0000 41.8413 0.0000 0.0000
# 5 0.0000 0.0000 0.0000 0.0000 -0.7020 0.0000
# 6 0.0000 0.0000 0.0000 0.0000 0.0000 10.1596
#
#
#
# Elastic Compliance Matrix: (Units=1/GPa)
#
#
# Indices 1 2 3 4 5 6 
#
# 1 0.016860 -0.007061 0.002067 0.000000 0.000000 0.000000
# 2 -0.007061 0.019620 -0.008835 0.000000 0.000000 0.000000
# 3 0.002067 -0.008835 0.031412 0.000000 0.000000 0.000000
# 4 0.000000 0.000000 0.000000 0.023900 0.000000 0.000000
# 5 0.000000 0.000000 0.000000 0.000000 -1.424435 0.000000
# 6 0.000000 0.000000 0.000000 0.000000 0.000000 0.098429
#
#
# Mechanical properties :
#
#
# Convention : Reuss Voigt Hill
#
# Bulk Modulus (GPa) = 24.85523 29.85109 27.35316
# Shear Modulus (GPa) = -4.19060 18.80533 7.30736
#
# Velocity S-wave (km/s) = -1.42692 3.02274 1.88426
# Velocity P-wave (km/s) = 3.05968 5.16589 4.24547
#
# Compressibility (1/GPa) = 0.04023299
#
# Stress axis : x y z
#
# Youngs Moduli (GPa) = 59.31338 50.96934 31.83512
#
# Poissons Ratio (x) = 0.35989 -0.06580
# Poissons Ratio (y) = 0.41881 0.28127
# Poissons Ratio (z) = -0.12260 0.45032
#
# Static dielectric constant tensor:
#      x y z
#    x 1.733810 0.000000 0.000000 
#    y 0.000000 1.708490 0.000000 
#    z 0.000000 0.000000 1.730860 
# 
# From -- ./inp_files/9145.got.cif
#   From: 2010.05.17/outbox.cif.g08.bks.cpg/sg40_5_cif.got.tgz:9145.got - 2010.06.03 18:35:42.
