data_PCOD9365218
_publ_section_title
;
Structure prediction by ZEFSAII (Michael W. Deem and Ramdas Pophale) SiO2 
 PCOD9365218
Probable space group: A M A 2
;
_chemical_formula_sum "Si O2"
_cell_formula_units_Z 56
_cell_length_a 16.538072
_cell_length_b 12.361756
_cell_length_c 13.420265
_cell_angle_alpha 90.000000
_cell_angle_beta 90.000000
_cell_angle_gamma 90.000000
_cell_volume 2743.633753
_symmetry_space_group_name_H-M "A M A 2"
_symmetry_group_IT_number 40
_symmetry_cell_setting 'orthorhombic'
loop_
_space_group_symop_operation_xyz
x,y,z
-x,-y,z
1/2-x,y,z
1/2+x,-y,z
x,1/2+y,1/2+z
-x,1/2-y,1/2+z
1/2-x,1/2+y,1/2+z
1/2+x,1/2-y,1/2+z
loop_
_atom_site_type_symbol
_atom_site_label
_atom_site_fract_x
_atom_site_fract_y
_atom_site_fract_z
Si Si1 0.058488 0.655461 0.941480
Si Si2 0.512265 0.697895 0.154640
Si Si3 0.424088 0.564721 0.642537
Si Si4 0.154569 0.333800 0.313882
Si Si5 0.901157 0.240327 0.329281
Si Si6 0.838924 0.006566 0.330629
Si Si7 0.341995 0.547923 0.442713
O O1 0.122472 0.746473 0.897319
O O2 0.096566 0.542559 0.906840
O O3 0.979610 0.690341 0.881411
O O4 0.026714 0.648758 0.054763
O O5 0.545107 0.815516 0.124007
O O6 0.589766 0.659261 0.221793
O O7 0.436260 0.710145 0.228261
O O8 0.500000 0.500000 0.685360
O O9 0.356071 0.553939 0.726095
O O10 0.396814 0.519226 0.537133
O O11 0.250000 0.311450 0.288011
O O12 0.151789 0.451699 0.364064
O O13 0.865043 0.337111 0.394581
O O14 0.846231 0.135042 0.313890
O O15 0.750000 0.981190 0.368020
O O16 0.250000 0.555065 0.478701
#
# Coordination Sequence:
#
# PCOD9365218 Si02
#       7
#     8   8   8   8   8   8   8
#     4  11  22  42  67 100 129 173 226 273 329 401
#     4  11  23  40  69  97 129 173 226 274 328 405
#     4  12  21  40  70 101 127 165 221 274 333 394
#     4  10  23  43  68 101 136 172 222 284 341 397
#     4  11  23  44  64  93 132 175 220 271 323 398
#     4  12  24  42  67  97 136 172 215 275 335 391
#     4  11  25  43  65  97 135 171 218 275 337 392
#
# _framework density 20.410888
#
# number of rings (size 3 to 8) (size 9 to 14) (size 15 to 20)
#    0.000    0.857    5.714    2.571    2.000    0.571 
#    5.143    2.143    0.000    0.000    0.000    0.000 
#    0.000    0.000    0.000    0.000    0.000    0.000 
#
# Total GULP energy -156176.697668 kJ/mol
# GULP energy per Si atom -5577.739202 kJ/mol
# Density = 2.036443 g / cm^3
# Si number density = 20.410888 Si / 1000 Ang^3
#
#
#
# Elastic Constant Matrix: (Units=GPa)
#
#
# Indices 1 2 3 4 5 6 
#
# 1 94.5957 23.3255 32.0048 0.0000 0.0000 0.0000
# 2 23.3255 67.6170 7.9098 0.0000 0.0000 0.0000
# 3 32.0048 7.9098 118.4050 0.0000 0.0000 0.0000
# 4 0.0000 0.0000 0.0000 59.0293 0.0000 0.0000
# 5 0.0000 0.0000 0.0000 0.0000 13.9201 0.0000
# 6 0.0000 0.0000 0.0000 0.0000 0.0000 -151.1320
#
#
#
# Elastic Compliance Matrix: (Units=1/GPa)
#
#
# Indices 1 2 3 4 5 6 
#
# 1 0.012618 -0.003985 -0.003144 0.000000 0.000000 0.000000
# 2 -0.003985 0.016164 -0.000003 0.000000 0.000000 0.000000
# 3 -0.003144 -0.000003 0.009296 0.000000 0.000000 0.000000
# 4 0.000000 0.000000 0.000000 0.016941 0.000000 0.000000
# 5 0.000000 0.000000 0.000000 0.000000 0.071839 0.000000
# 6 0.000000 0.000000 0.000000 0.000000 0.000000 -0.006617
#
#
# Mechanical properties :
#
#
# Convention : Reuss Voigt Hill
#
# Bulk Modulus (GPa) = 41.99261 45.23308 43.61285
# Shear Modulus (GPa) = 35.10201 -1.14468 16.97867
#
# Velocity S-wave (km/s) = 4.15151 -0.74969 2.88730
# Velocity P-wave (km/s) = 6.60290 4.63249 5.70343
#
# Compressibility (1/GPa) = 0.02381371
#
# Stress axis : x y z
#
# Youngs Moduli (GPa) = 79.25357 61.86535 107.57674
#
# Poissons Ratio (x) = 0.24652 0.33826
# Poissons Ratio (y) = 0.31581 0.00029
# Poissons Ratio (z) = 0.24920 0.00017
#
# Static dielectric constant tensor:
#      x y z
#    x 1.730850 0.000000 0.000000 
#    y 0.000000 1.728800 0.000000 
#    z 0.000000 0.000000 1.796770 
# 
# From -- ./inp_files/17099.got.cif
#   From: 2010.05.17/outbox.cif.g08.bks.cpg/sg40_9_cif.got.tgz:17099.got - 2010.06.03 18:35:42.
