data_PCOD9365472
_publ_section_title
;
Structure prediction by ZEFSAII (Michael W. Deem and Ramdas Pophale) SiO2 
 PCOD9365472
Probable space group: A M A 2
;
_chemical_formula_sum "Si O2"
_cell_formula_units_Z 56
_cell_length_a 7.619310
_cell_length_b 14.573990
_cell_length_c 23.839831
_cell_angle_alpha 90.000000
_cell_angle_beta 90.000000
_cell_angle_gamma 90.000000
_cell_volume 2647.264180
_symmetry_space_group_name_H-M "A M A 2"
_symmetry_group_IT_number 40
_symmetry_cell_setting 'orthorhombic'
loop_
_space_group_symop_operation_xyz
x,y,z
-x,-y,z
1/2-x,y,z
1/2+x,-y,z
x,1/2+y,1/2+z
-x,1/2-y,1/2+z
1/2-x,1/2+y,1/2+z
1/2+x,1/2-y,1/2+z
loop_
_atom_site_type_symbol
_atom_site_label
_atom_site_fract_x
_atom_site_fract_y
_atom_site_fract_z
Si Si1 0.949870 0.144015 0.993740
Si Si2 0.460634 0.098152 0.576464
Si Si3 0.449798 0.641526 0.957514
Si Si4 0.542220 0.107178 0.225447
Si Si5 0.959314 0.797692 0.342148
Si Si6 0.460999 0.901842 0.875035
Si Si7 0.966030 0.201155 0.112045
O O1 0.750000 0.108768 0.999087
O O2 0.939610 0.251077 0.975297
O O3 0.033971 0.098600 0.939032
O O4 0.026794 0.146804 0.056113
O O5 0.250000 0.106210 0.571922
O O6 0.534772 0.097820 0.512631
O O7 0.519495 0.191988 0.606174
O O8 0.500000 0.000000 0.603483
O O9 0.250000 0.605121 0.952700
O O10 0.530955 0.644246 0.895468
O O11 0.750000 0.116713 0.222543
O O12 0.486857 0.155921 0.282752
O O13 0.471412 0.155468 0.169286
O O14 0.500000 0.000000 0.226492
O O15 0.750000 0.794040 0.351870
O O16 0.023396 0.692053 0.345724
O O17 0.250000 0.895070 0.879030
O O18 0.500000 0.000000 0.848073
O O19 0.750000 0.199476 0.110335
#
# Coordination Sequence:
#
# PCOD9365472 Si02
#       7
#     8   8   8   8   8   8   8
#     4   7  11  24  46  70  94 125 161 196 236 285
#     4   9  16  29  50  76 102 129 160 197 242 295
#     4   7  12  25  47  70  94 125 160 196 238 284
#     4  11  23  38  55  74  95 126 167 210 252 297
#     4   9  18  35  54  73 100 135 171 208 247 291
#     4   9  17  29  50  78 106 134 165 201 247 299
#     4   8  16  32  52  71  97 132 167 200 241 293
#
# _framework density 21.153914
#
# number of rings (size 3 to 8) (size 9 to 14) (size 15 to 20)
#    0.000    3.429    0.000    3.857    0.000    1.714 
#    0.000    4.286    0.000    9.429    0.000    0.000 
#    0.000    0.000    0.000    0.000    0.000    0.000 
#
# Total GULP energy -155926.583931 kJ/mol
# GULP energy per Si atom -5568.806569 kJ/mol
# Density = 2.110577 g / cm^3
# Si number density = 21.153914 Si / 1000 Ang^3
#
#
#
# Elastic Constant Matrix: (Units=GPa)
#
#
# Indices 1 2 3 4 5 6 
#
# 1 45.7224 -1.2418 4.5788 0.0000 0.0000 0.0000
# 2 -1.2418 131.4571 68.2780 0.0000 0.0000 0.0000
# 3 4.5788 68.2780 155.6988 0.0000 0.0000 0.0000
# 4 0.0000 0.0000 0.0000 22.8496 0.0000 0.0000
# 5 0.0000 0.0000 0.0000 0.0000 3.0277 0.0000
# 6 0.0000 0.0000 0.0000 0.0000 0.0000 16.8474
#
#
#
# Elastic Compliance Matrix: (Units=1/GPa)
#
#
# Indices 1 2 3 4 5 6 
#
# 1 0.021986 0.000704 -0.000955 0.000000 0.000000 0.000000
# 2 0.000704 0.009873 -0.004350 0.000000 0.000000 0.000000
# 3 -0.000955 -0.004350 0.008359 0.000000 0.000000 0.000000
# 4 0.000000 0.000000 0.000000 0.043765 0.000000 0.000000
# 5 0.000000 0.000000 0.000000 0.000000 0.330281 0.000000
# 6 0.000000 0.000000 0.000000 0.000000 0.000000 0.059356
#
#
# Mechanical properties :
#
#
# Convention : Reuss Voigt Hill
#
# Bulk Modulus (GPa) = 32.24338 52.90091 42.57214
# Shear Modulus (GPa) = 10.13867 25.96248 18.05057
#
# Velocity S-wave (km/s) = 2.19162 3.50710 2.92429
# Velocity P-wave (km/s) = 4.65614 6.43907 5.61877
#
# Compressibility (1/GPa) = 0.03101412
#
# Stress axis : x y z
#
# Youngs Moduli (GPa) = 45.48372 101.28372 119.63863
#
# Poissons Ratio (x) = -0.07129 0.11428
# Poissons Ratio (y) = -0.03201 0.52047
# Poissons Ratio (z) = 0.04345 0.44062
#
# Static dielectric constant tensor:
#      x y z
#    x 1.827590 0.000000 0.000000 
#    y 0.000000 1.768620 0.000000 
#    z 0.000000 0.000000 1.795940 
# 
# From -- ./inp_files/22183.got.cif
#   From: 2010.05.17/outbox.cif.g08.bks.cpg/sg40_12_cif.got.tgz:22183.got - 2010.06.03 18:35:42.
