data_PCOD9365734
_publ_section_title
;
Structure prediction by ZEFSAII (Michael W. Deem and Ramdas Pophale) SiO2 
 PCOD9365734
Probable space group: A B A 2
;
_chemical_formula_sum "Si O2"
_cell_formula_units_Z 36
_cell_length_a 9.192144
_cell_length_b 18.083022
_cell_length_c 8.745616
_cell_angle_alpha 90.000000
_cell_angle_beta 90.000000
_cell_angle_gamma 90.000000
_cell_volume 1453.711528
_symmetry_space_group_name_H-M "A B A 2"
_symmetry_group_IT_number 41
_symmetry_cell_setting 'orthorhombic'
loop_
_space_group_symop_operation_xyz
x,y,z
-x,-y,z
1/2-x,y,1/2+z
1/2+x,-y,1/2+z
x,1/2+y,1/2+z
-x,1/2-y,1/2+z
1/2-x,1/2+y,z
1/2+x,1/2-y,z
loop_
_atom_site_type_symbol
_atom_site_label
_atom_site_fract_x
_atom_site_fract_y
_atom_site_fract_z
Si Si1 0.060352 0.263512 0.513720
Si Si2 0.571511 0.408739 0.041070
Si Si3 0.653875 0.679327 0.686858
Si Si4 0.295308 0.460924 0.884451
Si Si5 0.500000 0.000000 0.817969
O O1 0.195231 0.288454 0.620066
O O2 0.111548 0.273386 0.339394
O O3 0.925296 0.321751 0.533066
O O4 0.982111 0.189370 0.571085
O O5 0.401542 0.425648 0.009167
O O6 0.654706 0.453730 0.908851
O O7 0.590955 0.444989 0.206372
O O8 0.672042 0.594264 0.743962
O O9 0.124166 0.458831 0.909628
#
# Coordination Sequence:
#
# PCOD9365734 Si02
#       5
#     8   8   8   8   4
#     4  11  23  46  71 103 145 193 240 300 367 439
#     4   9  21  41  63  99 139 179 236 298 349 432
#     4  11  23  44  72 103 143 194 239 302 362 441
#     4   9  19  38  67  95 136 183 234 295 350 422
#     4  10  16  38  66  92 132 184 220 296 348 422
#
# _framework density 24.764199999999999
#
# number of rings (size 3 to 8) (size 9 to 14) (size 15 to 20)
#    0.000    2.222    2.222    1.333    0.000    0.000 
#   16.000    8.889    0.000    0.000    0.000    0.000 
#    0.000    0.000    0.000    0.000    0.000    0.000 
#
# Total GULP energy -100289.693584 kJ/mol
# GULP energy per Si atom -5571.649644 kJ/mol
# Density = 2.470784 g / cm^3
# Si number density = 24.764200 Si / 1000 Ang^3
#
#
#
# Elastic Constant Matrix: (Units=GPa)
#
#
# Indices 1 2 3 4 5 6 
#
# 1 125.9204 54.6174 70.3339 0.0000 0.0000 0.0000
# 2 54.6174 77.2110 49.4626 0.0000 0.0000 0.0000
# 3 70.3339 49.4626 113.1460 0.0000 0.0000 0.0000
# 4 0.0000 0.0000 0.0000 29.1183 0.0000 0.0000
# 5 0.0000 0.0000 0.0000 0.0000 38.7412 0.0000
# 6 0.0000 0.0000 0.0000 0.0000 0.0000 32.7305
#
#
#
# Elastic Compliance Matrix: (Units=1/GPa)
#
#
# Indices 1 2 3 4 5 6 
#
# 1 0.013899 -0.005968 -0.006031 0.000000 0.000000 0.000000
# 2 -0.005968 0.020552 -0.005275 0.000000 0.000000 0.000000
# 3 -0.006031 -0.005275 0.014893 0.000000 0.000000 0.000000
# 4 0.000000 0.000000 0.000000 0.034343 0.000000 0.000000
# 5 0.000000 0.000000 0.000000 0.000000 0.025812 0.000000
# 6 0.000000 0.000000 0.000000 0.000000 0.000000 0.030553
#
#
# Mechanical properties :
#
#
# Convention : Reuss Voigt Hill
#
# Bulk Modulus (GPa) = 67.58249 73.90056 70.74153
# Shear Modulus (GPa) = 27.85040 29.57558 28.71299
#
# Velocity S-wave (km/s) = 3.35718 3.45960 3.40877
# Velocity P-wave (km/s) = 6.50978 6.77236 6.64237
#
# Compressibility (1/GPa) = 0.01479673
#
# Stress axis : x y z
#
# Youngs Moduli (GPa) = 71.94909 48.65617 67.14685
#
# Poissons Ratio (x) = 0.29040 0.40494
# Poissons Ratio (y) = 0.42942 0.35417
# Poissons Ratio (z) = 0.43390 0.25664
#
# Static dielectric constant tensor:
#      x y z
#    x 1.944670 0.000000 0.000000 
#    y 0.000000 2.194200 0.000000 
#    z 0.000000 0.000000 1.984980 
# 
# From -- ./inp_files/1668.got.cif
#   From: 2010.05.17/outbox.cif.g08.bks.cpg/sg41_1_cif.got.tgz:1668.got - 2010.06.03 18:54:24.
