data_PCOD9365921
_publ_section_title
;
Structure prediction by ZEFSAII (Michael W. Deem and Ramdas Pophale) SiO2 
 PCOD9365921
Probable space group: A B A 2
;
_chemical_formula_sum "Si O2"
_cell_formula_units_Z 60
_cell_length_a 31.452393
_cell_length_b 8.023842
_cell_length_c 11.029032
_cell_angle_alpha 90.000000
_cell_angle_beta 90.000000
_cell_angle_gamma 90.000000
_cell_volume 2783.386129
_symmetry_space_group_name_H-M "A B A 2"
_symmetry_group_IT_number 41
_symmetry_cell_setting 'orthorhombic'
loop_
_space_group_symop_operation_xyz
x,y,z
-x,-y,z
1/2-x,y,1/2+z
1/2+x,-y,1/2+z
x,1/2+y,1/2+z
-x,1/2-y,1/2+z
1/2-x,1/2+y,z
1/2+x,1/2-y,z
loop_
_atom_site_type_symbol
_atom_site_label
_atom_site_fract_x
_atom_site_fract_y
_atom_site_fract_z
Si Si1 0.612189 0.316592 0.141050
Si Si2 0.593711 0.392447 0.881062
Si Si3 0.795459 0.844243 0.147896
Si Si4 0.058218 0.268756 0.380451
Si Si5 0.809469 0.472670 0.387848
Si Si6 0.233564 0.845118 0.270537
Si Si7 0.079780 0.326770 0.646047
Si Si8 0.000000 0.000000 0.268699
O O1 0.659855 0.249230 0.151557
O O2 0.586418 0.264152 0.259609
O O3 0.612676 0.519379 0.141388
O O4 0.593635 0.284161 0.005815
O O5 0.556419 0.530051 0.885447
O O6 0.639688 0.485075 0.877472
O O7 0.590309 0.289502 0.758681
O O8 0.753804 0.730619 0.148050
O O9 0.789865 0.980257 0.253965
O O10 0.798299 0.948857 0.026716
O O11 0.076491 0.235244 0.516066
O O12 0.018776 0.147968 0.352668
O O13 0.795664 0.297099 0.326146
O O14 0.778073 0.614043 0.338323
O O15 0.035604 0.417690 0.682704
#
# Coordination Sequence:
#
# PCOD9365921 Si02
#       8
#     8   8   8   8   8   8   8   4
#     4   9  20  38  57  81 115 148 184 231 281 328
#     4  10  21  37  60  84 112 148 190 231 275 330
#     4  10  19  34  53  75 109 147 183 230 277 324
#     4  10  22  39  60  86 113 146 185 229 278 337
#     4  10  20  35  53  79 110 146 186 229 276 325
#     4  10  20  32  51  79 109 144 188 229 275 325
#     4  10  22  40  61  86 113 146 184 227 277 337
#     4  10  24  40  58  86 118 144 176 226 286 338
#
# _framework density 21.556479
#
# number of rings (size 3 to 8) (size 9 to 14) (size 15 to 20)
#    0.000    2.133    0.000    2.400    0.000    6.933 
#    0.000    6.667    0.000    0.800    0.000    0.000 
#    0.000    0.000    0.000    0.000    0.000    0.000 
#
# Total GULP energy -167146.154635 kJ/mol
# GULP energy per Si atom -5571.538488 kJ/mol
# Density = 2.150742 g / cm^3
# Si number density = 21.556479 Si / 1000 Ang^3
#
#
#
# Elastic Constant Matrix: (Units=GPa)
#
#
# Indices 1 2 3 4 5 6 
#
# 1 57.1889 8.9389 21.7246 0.0000 0.0000 0.0000
# 2 8.9389 37.1355 15.5580 0.0000 0.0000 0.0000
# 3 21.7246 15.5580 139.4964 0.0000 0.0000 0.0000
# 4 0.0000 0.0000 0.0000 30.5808 0.0000 0.0000
# 5 0.0000 0.0000 0.0000 0.0000 29.0655 0.0000
# 6 0.0000 0.0000 0.0000 0.0000 0.0000 30.3445
#
#
#
# Elastic Compliance Matrix: (Units=1/GPa)
#
#
# Indices 1 2 3 4 5 6 
#
# 1 0.019009 -0.003499 -0.002570 0.000000 0.000000 0.000000
# 2 -0.003499 0.028892 -0.002677 0.000000 0.000000 0.000000
# 3 -0.002570 -0.002677 0.007868 0.000000 0.000000 0.000000
# 4 0.000000 0.000000 0.000000 0.032700 0.000000 0.000000
# 5 0.000000 0.000000 0.000000 0.000000 0.034405 0.000000
# 6 0.000000 0.000000 0.000000 0.000000 0.000000 0.032955
#
#
# Mechanical properties :
#
#
# Convention : Reuss Voigt Hill
#
# Bulk Modulus (GPa) = 26.12608 36.25155 31.18881
# Shear Modulus (GPa) = 26.87003 30.50479 28.68741
#
# Velocity S-wave (km/s) = 3.53440 3.76588 3.65197
# Velocity P-wave (km/s) = 5.36676 5.98018 5.68176
#
# Compressibility (1/GPa) = 0.03827593
#
# Stress axis : x y z
#
# Youngs Moduli (GPa) = 52.60623 34.61125 127.10474
#
# Poissons Ratio (x) = 0.12110 0.32668
# Poissons Ratio (y) = 0.18407 0.34032
# Poissons Ratio (z) = 0.13521 0.09267
#
# Static dielectric constant tensor:
#      x y z
#    x 1.814560 0.000000 0.000000 
#    y 0.000000 1.812320 0.000000 
#    z 0.000000 0.000000 1.827490 
# 
# From -- ./inp_files/6625.got.cif
#   From: 2010.05.17/outbox.cif.g08.bks.cpg/sg41_4_cif.got.tgz:6625.got - 2010.06.03 18:54:24.
