data_PCOD9365376
_publ_section_title
;
Structure prediction by ZEFSAII (Michael W. Deem and Ramdas Pophale) SiO2 
 PCOD9365376
Probable space group: A M A 2
;
_chemical_formula_sum "Si O2"
_cell_formula_units_Z 40
_cell_length_a 17.391966
_cell_length_b 8.437003
_cell_length_c 12.580592
_cell_angle_alpha 90.000000
_cell_angle_beta 90.000000
_cell_angle_gamma 90.000000
_cell_volume 1846.026620
_symmetry_space_group_name_H-M "A M A 2"
_symmetry_group_IT_number 40
_symmetry_cell_setting 'orthorhombic'
loop_
_space_group_symop_operation_xyz
x,y,z
-x,-y,z
1/2-x,y,z
1/2+x,-y,z
x,1/2+y,1/2+z
-x,1/2-y,1/2+z
1/2-x,1/2+y,1/2+z
1/2+x,1/2-y,1/2+z
loop_
_atom_site_type_symbol
_atom_site_label
_atom_site_fract_x
_atom_site_fract_y
_atom_site_fract_z
Si Si1 0.089173 0.702763 0.608800
Si Si2 0.164822 0.902246 0.765252
Si Si3 0.580588 0.295939 0.191451
Si Si4 0.455017 0.835754 0.407871
Si Si5 0.099447 0.865387 0.990376
O O1 0.148461 0.739780 0.702159
O O2 0.099671 0.822007 0.509685
O O3 0.090752 0.528936 0.556738
O O4 0.006098 0.747287 0.657968
O O5 0.250000 0.961350 0.740688
O O6 0.155039 0.885523 0.891160
O O7 0.100972 0.026770 0.724825
O O8 0.590356 0.197892 0.300040
O O9 0.624766 0.254447 0.083164
O O10 0.521134 0.702456 0.433686
O O11 0.500000 0.000000 0.402606
#
# Coordination Sequence:
#
# PCOD9365376 Si02
#       5
#     8   8   8   8   8
#     4  11  22  40  71 102 131 173 231 294 337 402
#     4  12  27  46  66  95 144 189 225 277 345 420
#     4  11  22  40  72  98 135 169 230 292 341 396
#     4  11  20  37  69 109 133 168 222 295 347 396
#     4  11  24  43  70 104 136 171 224 291 352 400
#
# _framework density 21.66816
#
# number of rings (size 3 to 8) (size 9 to 14) (size 15 to 20)
#    0.000    0.800    4.000    6.600    0.000    1.600 
#    0.000    0.000    0.000    0.000    0.000    0.000 
#    0.000    0.000    0.000    0.000    0.000    0.000 
#
# Total GULP energy -111569.246047 kJ/mol
# GULP energy per Si atom -5578.462302 kJ/mol
# Density = 2.161884 g / cm^3
# Si number density = 21.668160 Si / 1000 Ang^3
#
#
#
# Elastic Constant Matrix: (Units=GPa)
#
#
# Indices 1 2 3 4 5 6 
#
# 1 39.7171 10.8557 16.2817 0.0000 0.0000 0.0000
# 2 10.8557 107.8473 44.0644 0.0000 0.0000 0.0000
# 3 16.2817 44.0644 172.5376 0.0000 0.0000 0.0000
# 4 0.0000 0.0000 0.0000 37.5965 0.0000 0.0000
# 5 0.0000 0.0000 0.0000 0.0000 10.0802 0.0000
# 6 0.0000 0.0000 0.0000 0.0000 0.0000 1.1425
#
#
#
# Elastic Compliance Matrix: (Units=1/GPa)
#
#
# Indices 1 2 3 4 5 6 
#
# 1 0.026514 -0.001838 -0.002032 0.000000 0.000000 0.000000
# 2 -0.001838 0.010480 -0.002503 0.000000 0.000000 0.000000
# 3 -0.002032 -0.002503 0.006627 0.000000 0.000000 0.000000
# 4 0.000000 0.000000 0.000000 0.026598 0.000000 0.000000
# 5 0.000000 0.000000 0.000000 0.000000 0.099205 0.000000
# 6 0.000000 0.000000 0.000000 0.000000 0.000000 0.875291
#
#
# Mechanical properties :
#
#
# Convention : Reuss Voigt Hill
#
# Bulk Modulus (GPa) = 32.39083 51.38952 41.89017
# Shear Modulus (GPa) = 4.68273 26.35717 15.51995
#
# Velocity S-wave (km/s) = 1.47167 3.49148 2.67920
# Velocity P-wave (km/s) = 4.22715 6.32629 5.38009
#
# Compressibility (1/GPa) = 0.03087294
#
# Stress axis : x y z
#
# Youngs Moduli (GPa) = 37.71623 95.41884 150.90037
#
# Poissons Ratio (x) = 0.17542 0.30670
# Poissons Ratio (y) = 0.06934 0.37771
# Poissons Ratio (z) = 0.07666 0.23884
#
# Static dielectric constant tensor:
#      x y z
#    x 1.811290 0.000000 0.000000 
#    y 0.000000 1.865370 0.000000 
#    z 0.000000 0.000000 1.858890 
# 
# From -- ./inp_files/13432.got.cif
#   From: 2010.05.17/outbox.cif.g08.bks.cpg/sg40_7_cif.got.tgz:13432.got - 2010.06.03 18:35:42.
