data_PCOD9365903
_publ_section_title
;
Structure prediction by ZEFSAII (Michael W. Deem and Ramdas Pophale) SiO2 
 PCOD9365903
Probable space group: A B A 2
;
_chemical_formula_sum "Si O2"
_cell_formula_units_Z 64
_cell_length_a 27.180507
_cell_length_b 22.131652
_cell_length_c 5.462295
_cell_angle_alpha 90.000000
_cell_angle_beta 90.000000
_cell_angle_gamma 90.000000
_cell_volume 3285.840947
_symmetry_space_group_name_H-M "A B A 2"
_symmetry_group_IT_number 41
_symmetry_cell_setting 'orthorhombic'
loop_
_space_group_symop_operation_xyz
x,y,z
-x,-y,z
1/2-x,y,1/2+z
1/2+x,-y,1/2+z
x,1/2+y,1/2+z
-x,1/2-y,1/2+z
1/2-x,1/2+y,z
1/2+x,1/2-y,z
loop_
_atom_site_type_symbol
_atom_site_label
_atom_site_fract_x
_atom_site_fract_y
_atom_site_fract_z
Si Si1 0.764958 0.386344 0.837980
Si Si2 0.560732 0.940520 0.200634
Si Si3 0.273120 0.250303 0.438099
Si Si4 0.563634 0.647317 0.083187
Si Si5 0.368430 0.640968 0.432808
Si Si6 0.451139 0.920188 0.079423
Si Si7 0.049045 0.662166 0.564179
Si Si8 0.376220 0.744117 0.776425
O O1 0.738629 0.416457 0.606856
O O2 0.741266 0.320914 0.906264
O O3 0.822484 0.379055 0.773295
O O4 0.510808 0.918171 0.066007
O O5 0.554272 0.906829 0.461371
O O6 0.560828 0.012060 0.169562
O O7 0.610312 0.913602 0.090559
O O8 0.246321 0.275825 0.678859
O O9 0.332023 0.258027 0.463392
O O10 0.567114 0.599489 0.310188
O O11 0.508132 0.674461 0.101448
O O12 0.603875 0.697787 0.138016
O O13 0.566049 0.621584 0.806700
O O14 0.416009 0.665825 0.295814
O O15 0.350546 0.695852 0.598447
O O16 0.076350 0.708522 0.381654
#
# Coordination Sequence:
#
# PCOD9365903 Si02
#       8
#     8   8   8   8   8   8   8   8
#     4  10  19  33  51  78 115 140 178 233 286 347
#     4   9  21  36  60  82 108 154 195 249 279 329
#     4  10  19  35  54  79 111 148 188 237 283 341
#     4  11  25  38  56  82 120 164 193 234 277 340
#     4  11  20  34  58  85 116 148 190 232 299 353
#     4  10  22  42  57  80 115 153 208 237 272 325
#     4  10  22  35  54  85 119 155 191 232 293 351
#     4  11  24  34  56  86 124 155 189 231 299 365
#
# _framework density 19.477509000000001
#
# number of rings (size 3 to 8) (size 9 to 14) (size 15 to 20)
#    0.000    1.750    3.750    1.500    7.000    1.000 
#    0.000    0.000    0.000    0.000    0.000    5.250 
#    0.000    0.000    0.000    0.000    0.000    0.000 
#
# Total GULP energy -178263.082908 kJ/mol
# GULP energy per Si atom -5570.721341 kJ/mol
# Density = 1.943318 g / cm^3
# Si number density = 19.477509 Si / 1000 Ang^3
#
#
#
# Elastic Constant Matrix: (Units=GPa)
#
#
# Indices 1 2 3 4 5 6 
#
# 1 78.0214 25.8419 7.0579 0.0000 0.0000 0.0000
# 2 25.8419 48.5461 5.5824 0.0000 0.0000 0.0000
# 3 7.0579 5.5824 77.8390 0.0000 0.0000 0.0000
# 4 0.0000 0.0000 0.0000 -0.6957 0.0000 0.0000
# 5 0.0000 0.0000 0.0000 0.0000 11.7446 0.0000
# 6 0.0000 0.0000 0.0000 0.0000 0.0000 4.8841
#
#
#
# Elastic Compliance Matrix: (Units=1/GPa)
#
#
# Indices 1 2 3 4 5 6 
#
# 1 0.015613 -0.008216 -0.000826 0.000000 0.000000 0.000000
# 2 -0.008216 0.025094 -0.001055 0.000000 0.000000 0.000000
# 3 -0.000826 -0.001055 0.012998 0.000000 0.000000 0.000000
# 4 0.000000 0.000000 0.000000 -1.437392 0.000000 0.000000
# 5 0.000000 0.000000 0.000000 0.000000 0.085145 0.000000
# 6 0.000000 0.000000 0.000000 0.000000 0.000000 0.204747
#
#
# Mechanical properties :
#
#
# Convention : Reuss Voigt Hill
#
# Bulk Modulus (GPa) = 29.84176 31.26343 30.55260
# Shear Modulus (GPa) = -4.70619 14.24821 4.77101
#
# Velocity S-wave (km/s) = -1.55611 2.70760 1.56678
# Velocity P-wave (km/s) = 3.48221 5.08534 4.35812
#
# Compressibility (1/GPa) = 0.03351008
#
# Stress axis : x y z
#
# Youngs Moduli (GPa) = 64.04893 39.85042 76.93723
#
# Poissons Ratio (x) = 0.32741 0.06358
# Poissons Ratio (y) = 0.52623 0.08114
# Poissons Ratio (z) = 0.05293 0.04203
#
# Static dielectric constant tensor:
#      x y z
#    x 1.686760 0.000000 0.000000 
#    y 0.000000 1.664240 0.000000 
#    z 0.000000 0.000000 1.832000 
# 
# From -- ./inp_files/1229.got.cif
#   From: 2010.05.17/outbox.cif.g08.bks.cpg/sg41_1_cif.got.tgz:1229.got - 2010.06.03 18:54:24.
