data_PCOD9365219
_publ_section_title
;
Structure prediction by ZEFSAII (Michael W. Deem and Ramdas Pophale) SiO2 
 PCOD9365219
Probable space group: A M A 2
;
_chemical_formula_sum "Si O2"
_cell_formula_units_Z 40
_cell_length_a 13.190280
_cell_length_b 29.695192
_cell_length_c 5.143902
_cell_angle_alpha 90.000000
_cell_angle_beta 90.000000
_cell_angle_gamma 90.000000
_cell_volume 2014.804157
_symmetry_space_group_name_H-M "A M A 2"
_symmetry_group_IT_number 40
_symmetry_cell_setting 'orthorhombic'
loop_
_space_group_symop_operation_xyz
x,y,z
-x,-y,z
1/2-x,y,z
1/2+x,-y,z
x,1/2+y,1/2+z
-x,1/2-y,1/2+z
1/2-x,1/2+y,1/2+z
1/2+x,1/2-y,1/2+z
loop_
_atom_site_type_symbol
_atom_site_label
_atom_site_fract_x
_atom_site_fract_y
_atom_site_fract_z
Si Si1 0.750000 0.261594 0.679190
Si Si2 0.363497 0.911478 0.512988
Si Si3 0.459034 0.772779 0.875449
Si Si4 0.462778 0.133669 0.794798
Si Si5 0.550547 0.048154 0.002516
Si Si6 0.250000 0.676211 0.172340
O O1 0.650878 0.232799 0.747347
O O2 0.750000 0.284659 0.395594
O O3 0.750000 0.301998 0.888317
O O4 0.250000 0.892514 0.525937
O O5 0.453712 0.875868 0.568678
O O6 0.381434 0.947395 0.744330
O O7 0.383353 0.936326 0.244819
O O8 0.531263 0.755777 0.639725
O O9 0.491789 0.823287 0.943654
O O10 0.467159 0.087658 0.958156
O O11 0.351237 0.146780 0.706773
O O12 0.500000 0.000000 0.034676
#
# Coordination Sequence:
#
# PCOD9365219 Si02
#       6
#     4   8   8   8   8   4
#     4  12  24  42  64  97 128 175 222 272 332 396
#     4  10  23  43  68  97 134 173 218 274 326 392
#     4  12  24  41  64  94 131 176 214 272 328 394
#     4  10  26  42  68  97 135 176 222 273 330 404
#     4  10  23  44  68  98 136 171 222 273 330 395
#     4  12  24  44  68  93 136 171 220 280 332 390
#
# _framework density 19.853045000000002
#
# number of rings (size 3 to 8) (size 9 to 14) (size 15 to 20)
#    1.200    0.000    4.000    1.200    7.000    0.000 
#    3.600    0.000    0.000    0.000    0.000    0.000 
#    0.000    0.000    0.000    0.000    0.000    0.000 
#
# Total GULP energy -111521.796118 kJ/mol
# GULP energy per Si atom -5576.089806 kJ/mol
# Density = 1.980786 g / cm^3
# Si number density = 19.853045 Si / 1000 Ang^3
#
#
#
# Elastic Constant Matrix: (Units=GPa)
#
#
# Indices 1 2 3 4 5 6 
#
# 1 147.5687 32.8877 -0.3298 0.0000 0.0000 0.0000
# 2 32.8877 99.3905 -2.3859 0.0000 0.0000 0.0000
# 3 -0.3298 -2.3859 73.6477 0.0000 0.0000 0.0000
# 4 0.0000 0.0000 0.0000 6.8148 0.0000 0.0000
# 5 0.0000 0.0000 0.0000 0.0000 19.5245 0.0000
# 6 0.0000 0.0000 0.0000 0.0000 0.0000 10.1626
#
#
#
# Elastic Compliance Matrix: (Units=1/GPa)
#
#
# Indices 1 2 3 4 5 6 
#
# 1 0.007316 -0.002422 -0.000046 0.000000 0.000000 0.000000
# 2 -0.002422 0.010871 0.000341 0.000000 0.000000 0.000000
# 3 -0.000046 0.000341 0.013589 0.000000 0.000000 0.000000
# 4 0.000000 0.000000 0.000000 0.146739 0.000000 0.000000
# 5 0.000000 0.000000 0.000000 0.000000 0.051218 0.000000
# 6 0.000000 0.000000 0.000000 0.000000 0.000000 0.098400
#
#
# Mechanical properties :
#
#
# Convention : Reuss Voigt Hill
#
# Bulk Modulus (GPa) = 36.33271 42.32789 39.33030
# Shear Modulus (GPa) = 14.63870 26.66271 20.65070
#
# Velocity S-wave (km/s) = 2.71837 3.66868 3.22868
# Velocity P-wave (km/s) = 5.30973 6.26997 5.80972
#
# Compressibility (1/GPa) = 0.02752341
#
# Stress axis : x y z
#
# Youngs Moduli (GPa) = 136.68353 91.98848 73.58893
#
# Poissons Ratio (x) = 0.22279 0.00336
# Poissons Ratio (y) = 0.33104 -0.02512
# Poissons Ratio (z) = 0.00625 -0.03140
#
# Static dielectric constant tensor:
#      x y z
#    x 1.716240 0.000000 0.000000 
#    y 0.000000 1.695570 0.000000 
#    z 0.000000 0.000000 1.693310 
# 
# From -- ./inp_files/882.got.cif
#   From: 2010.05.17/outbox.cif.g08.bks.cpg/sg40_1_cif.got.tgz:882.got - 2010.06.03 18:35:42.
