data_PCOD9365047
_publ_section_title
;
Structure prediction by ZEFSAII (Michael W. Deem and Ramdas Pophale) SiO2 
 PCOD9365047
Probable space group: A M A 2
;
_chemical_formula_sum "Si O2"
_cell_formula_units_Z 64
_cell_length_a 8.879121
_cell_length_b 28.549709
_cell_length_c 12.656850
_cell_angle_alpha 90.000000
_cell_angle_beta 90.000000
_cell_angle_gamma 90.000000
_cell_volume 3208.464907
_symmetry_space_group_name_H-M "A M A 2"
_symmetry_group_IT_number 40
_symmetry_cell_setting 'orthorhombic'
loop_
_space_group_symop_operation_xyz
x,y,z
-x,-y,z
1/2-x,y,z
1/2+x,-y,z
x,1/2+y,1/2+z
-x,1/2-y,1/2+z
1/2-x,1/2+y,1/2+z
1/2+x,1/2-y,1/2+z
loop_
_atom_site_type_symbol
_atom_site_label
_atom_site_fract_x
_atom_site_fract_y
_atom_site_fract_z
Si Si1 0.074629 0.292244 0.334450
Si Si2 0.430940 0.912679 0.335298
Si Si3 0.574312 0.929012 0.115255
Si Si4 0.577804 0.696504 0.794327
Si Si5 0.070788 0.619916 0.245612
Si Si6 0.577958 0.664561 0.564408
Si Si7 0.427781 0.953653 0.899587
Si Si8 0.431042 0.050551 0.553267
O O1 0.250000 0.296691 0.308253
O O2 0.052695 0.310669 0.453852
O O3 0.024695 0.238570 0.332113
O O4 0.983345 0.326613 0.256289
O O5 0.250000 0.918028 0.332679
O O6 0.503242 0.935761 0.230739
O O7 0.463562 0.856561 0.328271
O O8 0.500209 0.934309 0.440776
O O9 0.750000 0.941316 0.112219
O O10 0.546254 0.874389 0.087998
O O11 0.482239 0.951968 0.020287
O O12 0.750000 0.704386 0.829461
O O13 0.575834 0.697327 0.666697
O O14 0.250000 0.617766 0.260106
O O15 0.033421 0.591141 0.139058
O O16 0.989916 0.591519 0.339471
O O17 0.750000 0.643488 0.562637
O O18 0.250000 0.955663 0.892672
O O19 0.500000 0.000000 0.849531
O O20 0.250000 0.046524 0.546442
O O21 0.500000 0.000000 0.582923
#
# Coordination Sequence:
#
# PCOD9365047 Si02
#       8
#     8   8   8   8   8   8   8   8
#     4  11  22  36  60  90 122 163 213 264 318 382
#     4  10  22  42  66  91 125 166 210 262 319 377
#     4  11  21  36  61  90 119 155 198 248 307 370
#     4   9  20  38  59  86 122 163 208 261 320 377
#     4  11  24  42  63  90 124 164 210 262 319 379
#     4   9  19  37  57  80 115 159 200 252 311 367
#     4  12  24  39  60  89 123 157 199 249 305 369
#     4  11  25  44  67  94 127 169 217 268 324 389
#
# _framework density 19.947234000000002
#
# number of rings (size 3 to 8) (size 9 to 14) (size 15 to 20)
#    0.000    1.500    1.250    4.875    0.000    7.500 
#    0.000    6.250    0.000    0.000    0.000    0.000 
#    0.000    0.000    0.000    0.000    0.000    0.000 
#
# Total GULP energy -178773.150013 kJ/mol
# GULP energy per Si atom -5586.660938 kJ/mol
# Density = 1.990183 g / cm^3
# Si number density = 19.947234 Si / 1000 Ang^3
#
#
#
# Elastic Constant Matrix: (Units=GPa)
#
#
# Indices 1 2 3 4 5 6 
#
# 1 82.7635 17.9828 31.4739 0.0000 0.0000 0.0000
# 2 17.9828 43.3313 9.2776 0.0000 0.0000 0.0000
# 3 31.4739 9.2776 87.3624 0.0000 0.0000 0.0000
# 4 0.0000 0.0000 0.0000 17.6334 0.0000 0.0000
# 5 0.0000 0.0000 0.0000 0.0000 24.1664 0.0000
# 6 0.0000 0.0000 0.0000 0.0000 0.0000 18.3405
#
#
#
# Elastic Compliance Matrix: (Units=1/GPa)
#
#
# Indices 1 2 3 4 5 6 
#
# 1 0.015069 -0.005210 -0.004876 0.000000 0.000000 0.000000
# 2 -0.005210 0.025416 -0.000822 0.000000 0.000000 0.000000
# 3 -0.004876 -0.000822 0.013290 0.000000 0.000000 0.000000
# 4 0.000000 0.000000 0.000000 0.056711 0.000000 0.000000
# 5 0.000000 0.000000 0.000000 0.000000 0.041380 0.000000
# 6 0.000000 0.000000 0.000000 0.000000 0.000000 0.054524
#
#
# Mechanical properties :
#
#
# Convention : Reuss Voigt Hill
#
# Bulk Modulus (GPa) = 31.28881 36.76951 34.02916
# Shear Modulus (GPa) = 20.93295 22.34292 21.63793
#
# Velocity S-wave (km/s) = 3.24298 3.35042 3.29714
# Velocity P-wave (km/s) = 5.45366 5.78278 5.62063
#
# Compressibility (1/GPa) = 0.03196031
#
# Stress axis : x y z
#
# Youngs Moduli (GPa) = 66.36279 39.34513 75.24238
#
# Poissons Ratio (x) = 0.20498 0.36685
# Poissons Ratio (y) = 0.34573 0.06186
# Poissons Ratio (z) = 0.32355 0.03235
#
# Static dielectric constant tensor:
#      x y z
#    x 1.678500 0.000000 0.000000 
#    y 0.000000 1.766320 0.000000 
#    z 0.000000 0.000000 1.698650 
# 
# From -- ./inp_files/10631.got.cif
#   From: 2010.05.17/outbox.cif.g08.bks.cpg/sg40_6_cif.got.tgz:10631.got - 2010.06.03 18:35:42.
