data_PCOD9365871
_publ_section_title
;
Structure prediction by ZEFSAII (Michael W. Deem and Ramdas Pophale) SiO2 
 PCOD9365871
Probable space group: A B A 2
;
_chemical_formula_sum "Si O2"
_cell_formula_units_Z 56
_cell_length_a 9.712233
_cell_length_b 19.926086
_cell_length_c 11.962136
_cell_angle_alpha 90.000000
_cell_angle_beta 90.000000
_cell_angle_gamma 90.000000
_cell_volume 2314.993782
_symmetry_space_group_name_H-M "A B A 2"
_symmetry_group_IT_number 41
_symmetry_cell_setting 'orthorhombic'
loop_
_space_group_symop_operation_xyz
x,y,z
-x,-y,z
1/2-x,y,1/2+z
1/2+x,-y,1/2+z
x,1/2+y,1/2+z
-x,1/2-y,1/2+z
1/2-x,1/2+y,z
1/2+x,1/2-y,z
loop_
_atom_site_type_symbol
_atom_site_label
_atom_site_fract_x
_atom_site_fract_y
_atom_site_fract_z
Si Si1 0.315755 0.312157 0.572770
Si Si2 0.000000 0.000000 0.656283
Si Si3 0.207627 0.039791 0.463081
Si Si4 0.353968 0.403441 0.377752
Si Si5 0.941242 0.638112 0.283298
Si Si6 0.468509 0.365238 0.160480
Si Si7 0.666320 0.827044 0.469763
Si Si8 0.500000 0.000000 0.541447
O O1 0.369319 0.376192 0.502806
O O2 0.414436 0.309629 0.681579
O O3 0.162278 0.323295 0.618985
O O4 0.305685 0.250986 0.486510
O O5 0.128202 0.020269 0.576395
O O6 0.977777 0.065987 0.730710
O O7 0.211454 0.119984 0.447105
O O8 0.150559 0.984478 0.376744
O O9 0.370386 0.024368 0.471159
O O10 0.204785 0.375907 0.341754
O O11 0.462847 0.371773 0.292831
O O12 0.052093 0.662237 0.373637
O O13 0.603368 0.344298 0.092939
O O14 0.443024 0.440314 0.116099
#
# Coordination Sequence:
#
# PCOD9365871 Si02
#       8
#     8   4   8   8   8   8   8   4
#     4  11  23  43  66 104 142 191 244 295 367 441
#     4  12  24  44  72 116 146 184 246 328 360 428
#     4  11  22  43  70 106 142 181 246 307 361 429
#     4  11  20  44  72  97 139 190 240 303 364 432
#     4  11  23  44  74 100 145 199 245 299 375 437
#     4  10  22  40  71  98 135 185 242 294 364 428
#     4  11  25  43  69 106 145 196 239 299 369 459
#     4  10  18  42  68  96 130 182 246 286 350 434
#
# _framework density 24.190128999999999
#
# number of rings (size 3 to 8) (size 9 to 14) (size 15 to 20)
#    0.000    1.143    4.286    2.571    2.000    2.286 
#    2.571    1.429    0.000    0.000    0.000    0.000 
#    0.000    0.000    0.000    0.000    0.000    0.000 
#
# Total GULP energy -156574.508269 kJ/mol
# GULP energy per Si atom -5591.946724 kJ/mol
# Density = 2.413507 g / cm^3
# Si number density = 24.190129 Si / 1000 Ang^3
#
#
#
# Elastic Constant Matrix: (Units=GPa)
#
#
# Indices 1 2 3 4 5 6 
#
# 1 102.3558 32.5556 51.7696 0.0000 0.0000 0.0000
# 2 32.5556 137.4859 31.9854 0.0000 0.0000 0.0000
# 3 51.7696 31.9854 110.4456 0.0000 0.0000 0.0000
# 4 0.0000 0.0000 0.0000 30.5462 0.0000 0.0000
# 5 0.0000 0.0000 0.0000 0.0000 35.2145 0.0000
# 6 0.0000 0.0000 0.0000 0.0000 0.0000 18.0320
#
#
#
# Elastic Compliance Matrix: (Units=1/GPa)
#
#
# Indices 1 2 3 4 5 6 
#
# 1 0.013213 -0.001810 -0.005669 0.000000 0.000000 0.000000
# 2 -0.001810 0.008047 -0.001482 0.000000 0.000000 0.000000
# 3 -0.005669 -0.001482 0.012141 0.000000 0.000000 0.000000
# 4 0.000000 0.000000 0.000000 0.032737 0.000000 0.000000
# 5 0.000000 0.000000 0.000000 0.000000 0.028397 0.000000
# 6 0.000000 0.000000 0.000000 0.000000 0.000000 0.055457
#
#
# Mechanical properties :
#
#
# Convention : Reuss Voigt Hill
#
# Bulk Modulus (GPa) = 64.60643 64.76762 64.68703
# Shear Modulus (GPa) = 28.88943 32.35698 30.62320
#
# Velocity S-wave (km/s) = 3.45956 3.66130 3.56186
# Velocity P-wave (km/s) = 6.53635 6.68626 6.61173
#
# Compressibility (1/GPa) = 0.01547834
#
# Stress axis : x y z
#
# Youngs Moduli (GPa) = 75.68403 124.27278 82.36705
#
# Poissons Ratio (x) = 0.22491 0.46695
# Poissons Ratio (y) = 0.13697 0.12207
# Poissons Ratio (z) = 0.42907 0.18418
#
# Static dielectric constant tensor:
#      x y z
#    x 1.911510 0.000000 0.000000 
#    y 0.000000 2.000190 0.000000 
#    z 0.000000 0.000000 1.933660 
# 
# From -- ./inp_files/5095.got.cif
#   From: 2010.05.17/outbox.cif.g08.bks.cpg/sg41_3_cif.got.tgz:5095.got - 2010.06.03 18:54:24.
