data_PCOD9365151
_publ_section_title
;
Structure prediction by ZEFSAII (Michael W. Deem and Ramdas Pophale) SiO2 
 PCOD9365151
Probable space group: A M A 2
;
_chemical_formula_sum "Si O2"
_cell_formula_units_Z 48
_cell_length_a 25.740649
_cell_length_b 5.311715
_cell_length_c 14.653565
_cell_angle_alpha 90.000000
_cell_angle_beta 90.000000
_cell_angle_gamma 90.000000
_cell_volume 2003.537856
_symmetry_space_group_name_H-M "A M A 2"
_symmetry_group_IT_number 40
_symmetry_cell_setting 'orthorhombic'
loop_
_space_group_symop_operation_xyz
x,y,z
-x,-y,z
1/2-x,y,z
1/2+x,-y,z
x,1/2+y,1/2+z
-x,1/2-y,1/2+z
1/2-x,1/2+y,1/2+z
1/2+x,1/2-y,1/2+z
loop_
_atom_site_type_symbol
_atom_site_label
_atom_site_fract_x
_atom_site_fract_y
_atom_site_fract_z
Si Si1 0.750000 0.692226 0.583071
Si Si2 0.750000 0.865916 0.922359
Si Si3 0.160443 0.553178 0.703796
Si Si4 0.250000 0.922376 0.731709
Si Si5 0.945874 0.890920 0.119181
Si Si6 0.500000 0.000000 0.486234
Si Si7 0.142462 0.822422 0.390492
Si Si8 0.585554 0.177006 0.947826
O O1 0.750000 0.630966 0.476211
O O2 0.802509 0.563870 0.624979
O O3 0.750000 0.963652 0.630268
O O4 0.750000 0.880976 0.813038
O O5 0.803937 0.732357 0.942890
O O6 0.104552 0.669504 0.678444
O O7 0.149359 0.352477 0.782403
O O8 0.198646 0.760121 0.745675
O O9 0.962671 0.661874 0.052944
O O10 0.000000 0.000000 0.160290
O O11 0.923182 0.110968 0.053989
O O12 0.470366 0.203234 0.424131
O O13 0.105265 0.582932 0.406058
O O14 0.122778 0.090565 0.426956
#
# Coordination Sequence:
#
# PCOD9365151 Si02
#       8
#     4   4   8   4   8   4   8   8
#     4  11  25  47  76 107 149 206 258 315 392 472
#     4  12  25  50  73 115 152 207 265 313 413 461
#     4  11  25  47  69 111 156 199 259 322 395 460
#     4  11  24  51  73 110 165 201 261 338 379 487
#     4  10  23  47  74 107 148 205 260 326 387 480
#     4  10  22  48  80 110 154 190 280 324 382 482
#     4  12  25  46  75 110 154 204 248 335 384 478
#     4  11  24  46  76 107 144 205 251 316 392 455
#
# _framework density 23.957619999999999
#
# number of rings (size 3 to 8) (size 9 to 14) (size 15 to 20)
#    0.000    1.000    3.333    2.500    0.000    4.667 
#   16.500    0.833    0.000    0.000    0.000    0.000 
#    0.000    0.000    0.000    0.000    0.000    0.000 
#
# Total GULP energy -134065.910432 kJ/mol
# GULP energy per Si atom -5586.079601 kJ/mol
# Density = 2.390309 g / cm^3
# Si number density = 23.957620 Si / 1000 Ang^3
#
#
#
# Elastic Constant Matrix: (Units=GPa)
#
#
# Indices 1 2 3 4 5 6 
#
# 1 178.2104 61.1433 50.7295 0.0000 0.0000 0.0000
# 2 61.1433 130.2344 22.5558 0.0000 0.0000 0.0000
# 3 50.7295 22.5558 50.9537 0.0000 0.0000 0.0000
# 4 0.0000 0.0000 0.0000 24.9547 0.0000 0.0000
# 5 0.0000 0.0000 0.0000 0.0000 30.1940 0.0000
# 6 0.0000 0.0000 0.0000 0.0000 0.0000 38.3355
#
#
#
# Elastic Compliance Matrix: (Units=1/GPa)
#
#
# Indices 1 2 3 4 5 6 
#
# 1 0.008676 -0.002791 -0.007402 0.000000 0.000000 0.000000
# 2 -0.002791 0.009214 -0.001300 0.000000 0.000000 0.000000
# 3 -0.007402 -0.001300 0.027571 0.000000 0.000000 0.000000
# 4 0.000000 0.000000 0.000000 0.040073 0.000000 0.000000
# 5 0.000000 0.000000 0.000000 0.000000 0.033119 0.000000
# 6 0.000000 0.000000 0.000000 0.000000 0.000000 0.026085
#
#
# Mechanical properties :
#
#
# Convention : Reuss Voigt Hill
#
# Bulk Modulus (GPa) = 44.49553 69.80618 57.15086
# Shear Modulus (GPa) = 28.53609 33.69484 31.11546
#
# Velocity S-wave (km/s) = 3.45499 3.75432 3.60776
# Velocity P-wave (km/s) = 5.87612 6.92776 6.42350
#
# Compressibility (1/GPa) = 0.02247417
#
# Stress axis : x y z
#
# Youngs Moduli (GPa) = 115.25782 108.52983 36.27016
#
# Poissons Ratio (x) = 0.30294 0.26849
# Poissons Ratio (y) = 0.32172 0.04714
# Poissons Ratio (z) = 0.85318 0.14107
#
# Static dielectric constant tensor:
#      x y z
#    x 1.967490 0.000000 0.000000 
#    y 0.000000 1.948970 0.000000 
#    z 0.000000 0.000000 1.908070 
# 
# From -- ./inp_files/18682.got.cif
#   From: 2010.05.17/outbox.cif.g08.bks.cpg/sg40_10_cif.got.tgz:18682.got - 2010.06.03 18:35:42.
