data_PCOD9365331
_publ_section_title
;
Structure prediction by ZEFSAII (Michael W. Deem and Ramdas Pophale) SiO2 
 PCOD9365331
Probable space group: A M A 2
;
_chemical_formula_sum "Si O2"
_cell_formula_units_Z 40
_cell_length_a 21.247077
_cell_length_b 5.943919
_cell_length_c 13.068226
_cell_angle_alpha 90.000000
_cell_angle_beta 90.000000
_cell_angle_gamma 90.000000
_cell_volume 1650.398084
_symmetry_space_group_name_H-M "A M A 2"
_symmetry_group_IT_number 40
_symmetry_cell_setting 'orthorhombic'
loop_
_space_group_symop_operation_xyz
x,y,z
-x,-y,z
1/2-x,y,z
1/2+x,-y,z
x,1/2+y,1/2+z
-x,1/2-y,1/2+z
1/2-x,1/2+y,1/2+z
1/2+x,1/2-y,1/2+z
loop_
_atom_site_type_symbol
_atom_site_label
_atom_site_fract_x
_atom_site_fract_y
_atom_site_fract_z
Si Si1 0.140996 0.567264 0.285320
Si Si2 0.380800 0.708673 0.498491
Si Si3 0.250000 0.805628 0.187281
Si Si4 0.055936 0.363381 0.649622
Si Si5 0.750000 0.517465 0.992279
Si Si6 0.000000 0.500000 0.999879
Si Si7 0.250000 0.221712 0.269662
O O1 0.123075 0.542475 0.402120
O O2 0.190879 0.763999 0.260635
O O3 0.084787 0.660644 0.216690
O O4 0.185437 0.359962 0.258547
O O5 0.399531 0.554029 0.596732
O O6 0.314335 0.838869 0.502790
O O7 0.433703 0.892231 0.462264
O O8 0.250000 0.659703 0.086377
O O9 0.250000 0.065671 0.170321
O O10 0.000000 0.500000 0.705900
O O11 0.023928 0.221215 0.559732
O O12 0.750000 0.383144 0.884056
#
# Coordination Sequence:
#
# PCOD9365331 Si02
#       7
#     8   8   4   8   4   4   4
#     4  11  25  45  73 110 143 195 250 310 373 457
#     4  11  25  48  79 112 155 198 254 320 377 454
#     4  11  25  45  72 106 146 197 239 300 377 446
#     4  10  25  48  73 107 148 197 256 312 385 456
#     4  12  25  51  80 110 157 203 248 325 379 443
#     4  10  24  50  70 120 146 198 260 302 386 460
#     4  11  26  48  66 118 155 186 269 303 380 469
#
# _framework density 24.236575999999999
#
# number of rings (size 3 to 8) (size 9 to 14) (size 15 to 20)
#    0.000    1.200    2.000    1.800    7.000    8.000 
#    5.400    0.000    0.000    0.000    0.000    0.000 
#    0.000    0.000    0.000    0.000    0.000    0.000 
#
# Total GULP energy -111459.534386 kJ/mol
# GULP energy per Si atom -5572.976719 kJ/mol
# Density = 2.418141 g / cm^3
# Si number density = 24.236576 Si / 1000 Ang^3
#
#
#
# Elastic Constant Matrix: (Units=GPa)
#
#
# Indices 1 2 3 4 5 6 
#
# 1 134.8164 42.1793 32.3172 0.0000 0.0000 0.0000
# 2 42.1793 101.9437 30.4160 0.0000 0.0000 0.0000
# 3 32.3172 30.4160 91.8632 0.0000 0.0000 0.0000
# 4 0.0000 0.0000 0.0000 26.3250 0.0000 0.0000
# 5 0.0000 0.0000 0.0000 0.0000 18.5700 0.0000
# 6 0.0000 0.0000 0.0000 0.0000 0.0000 73.2763
#
#
#
# Elastic Compliance Matrix: (Units=1/GPa)
#
#
# Indices 1 2 3 4 5 6 
#
# 1 0.008876 -0.003041 -0.002116 0.000000 0.000000 0.000000
# 2 -0.003041 0.011927 -0.002879 0.000000 0.000000 0.000000
# 3 -0.002116 -0.002879 0.012583 0.000000 0.000000 0.000000
# 4 0.000000 0.000000 0.000000 0.037987 0.000000 0.000000
# 5 0.000000 0.000000 0.000000 0.000000 0.053850 0.000000
# 6 0.000000 0.000000 0.000000 0.000000 0.000000 0.013647
#
#
# Mechanical properties :
#
#
# Convention : Reuss Voigt Hill
#
# Bulk Modulus (GPa) = 57.75603 59.82758 58.79181
# Shear Modulus (GPa) = 31.11129 38.54831 34.82980
#
# Velocity S-wave (km/s) = 3.58669 3.99244 3.79499
# Velocity P-wave (km/s) = 6.40581 6.78168 6.59642
#
# Compressibility (1/GPa) = 0.01731421
#
# Stress axis : x y z
#
# Youngs Moduli (GPa) = 112.66139 83.84578 79.47065
#
# Poissons Ratio (x) = 0.25500 0.16813
# Poissons Ratio (y) = 0.34264 0.22880
# Poissons Ratio (z) = 0.23835 0.24139
#
# Static dielectric constant tensor:
#      x y z
#    x 2.060360 0.000000 0.000000 
#    y 0.000000 1.982910 0.000000 
#    z 0.000000 0.000000 1.957280 
# 
# From -- ./inp_files/18394.got.cif
#   From: 2010.05.17/outbox.cif.g08.bks.cpg/sg40_10_cif.got.tgz:18394.got - 2010.06.03 18:35:42.
