data_PCOD9365835
_publ_section_title
;
Structure prediction by ZEFSAII (Michael W. Deem and Ramdas Pophale) SiO2 
 PCOD9365835
Probable space group: A B A 2
;
_chemical_formula_sum "Si O2"
_cell_formula_units_Z 60
_cell_length_a 20.961061
_cell_length_b 16.791827
_cell_length_c 8.602952
_cell_angle_alpha 90.000000
_cell_angle_beta 90.000000
_cell_angle_gamma 90.000000
_cell_volume 3028.019815
_symmetry_space_group_name_H-M "A B A 2"
_symmetry_group_IT_number 41
_symmetry_cell_setting 'orthorhombic'
loop_
_space_group_symop_operation_xyz
x,y,z
-x,-y,z
1/2-x,y,1/2+z
1/2+x,-y,1/2+z
x,1/2+y,1/2+z
-x,1/2-y,1/2+z
1/2-x,1/2+y,z
1/2+x,1/2-y,z
loop_
_atom_site_type_symbol
_atom_site_label
_atom_site_fract_x
_atom_site_fract_y
_atom_site_fract_z
Si Si1 0.053419 0.748915 0.430560
Si Si2 0.234655 0.575031 0.138320
Si Si3 0.000000 0.000000 0.495195
Si Si4 0.220300 0.956606 0.392663
Si Si5 0.406207 0.403492 0.274917
Si Si6 0.839118 0.371407 0.404406
Si Si7 0.972887 0.139158 0.717390
Si Si8 0.870620 0.553339 0.424893
O O1 0.058430 0.820779 0.306886
O O2 0.119476 0.702986 0.445828
O O3 0.039455 0.791290 0.592942
O O4 0.007288 0.681231 0.362220
O O5 0.276888 0.525726 0.261809
O O6 0.187753 0.631643 0.230269
O O7 0.200116 0.503722 0.047163
O O8 0.279938 0.620104 0.020657
O O9 0.056340 0.969825 0.378901
O O10 0.988656 0.926373 0.614510
O O11 0.165720 0.896677 0.343165
O O12 0.293873 0.928844 0.414302
O O13 0.398481 0.423443 0.093628
O O14 0.874136 0.457223 0.413415
O O15 0.910650 0.095766 0.789099
#
# Coordination Sequence:
#
# PCOD9365835 Si02
#       8
#     8   8   4   8   8   8   8   8
#     4  11  26  40  62  87 139 159 212 268 336 376
#     4   8  18  35  61  91 120 152 207 258 306 378
#     4  10  26  38  70  88 126 172 220 264 314 392
#     4  10  18  37  65  95 117 156 214 273 305 371
#     4  11  23  42  60 100 125 168 217 267 326 389
#     4  10  20  40  61  93 119 169 201 265 320 386
#     4  11  24  46  60  95 125 178 217 271 318 393
#     4  10  22  41  72  86 124 170 224 267 314 379
#
# _framework density 19.81493
#
# number of rings (size 3 to 8) (size 9 to 14) (size 15 to 20)
#    0.000    2.133    2.667    1.600    9.333    3.733 
#    4.800    1.333    0.000    0.000    0.000    0.000 
#    0.000    0.000    0.000    0.000    0.000    0.000 
#
# Total GULP energy -167191.501818 kJ/mol
# GULP energy per Si atom -5573.050061 kJ/mol
# Density = 1.976983 g / cm^3
# Si number density = 19.814930 Si / 1000 Ang^3
#
#
#
# Elastic Constant Matrix: (Units=GPa)
#
#
# Indices 1 2 3 4 5 6 
#
# 1 55.9833 32.2297 26.7520 0.0000 0.0000 0.0000
# 2 32.2297 68.4662 27.5357 0.0000 0.0000 0.0000
# 3 26.7520 27.5357 106.7450 0.0000 0.0000 0.0000
# 4 0.0000 0.0000 0.0000 18.7493 0.0000 0.0000
# 5 0.0000 0.0000 0.0000 0.0000 16.6266 0.0000
# 6 0.0000 0.0000 0.0000 0.0000 0.0000 36.0151
#
#
#
# Elastic Compliance Matrix: (Units=1/GPa)
#
#
# Indices 1 2 3 4 5 6 
#
# 1 0.025757 -0.010632 -0.003713 0.000000 0.000000 0.000000
# 2 -0.010632 0.020685 -0.002671 0.000000 0.000000 0.000000
# 3 -0.003713 -0.002671 0.010988 0.000000 0.000000 0.000000
# 4 0.000000 0.000000 0.000000 0.053335 0.000000 0.000000
# 5 0.000000 0.000000 0.000000 0.000000 0.060145 0.000000
# 6 0.000000 0.000000 0.000000 0.000000 0.000000 0.027766
#
#
# Mechanical properties :
#
#
# Convention : Reuss Voigt Hill
#
# Bulk Modulus (GPa) = 42.73811 44.91436 43.82624
# Shear Modulus (GPa) = 20.78941 23.92335 22.35638
#
# Velocity S-wave (km/s) = 3.24262 3.47845 3.36260
# Velocity P-wave (km/s) = 5.96950 6.23289 6.10262
#
# Compressibility (1/GPa) = 0.02339832
#
# Stress axis : x y z
#
# Youngs Moduli (GPa) = 38.82387 48.34443 91.01128
#
# Poissons Ratio (x) = 0.51399 0.33789
# Poissons Ratio (y) = 0.41277 0.24312
# Poissons Ratio (z) = 0.14414 0.12914
#
# Static dielectric constant tensor:
#      x y z
#    x 1.728380 0.000000 0.000000 
#    y 0.000000 1.669540 0.000000 
#    z 0.000000 0.000000 1.751150 
# 
# From -- ./inp_files/3677.got.cif
#   From: 2010.05.17/outbox.cif.g08.bks.cpg/sg41_2_cif.got.tgz:3677.got - 2010.06.03 18:54:24.
