data_PCOD9365576
_publ_section_title
;
Structure prediction by ZEFSAII (Michael W. Deem and Ramdas Pophale) SiO2 
 PCOD9365576
Probable space group: A M A 2
;
_chemical_formula_sum "Si O2"
_cell_formula_units_Z 40
_cell_length_a 16.397287
_cell_length_b 11.997314
_cell_length_c 8.768223
_cell_angle_alpha 90.000000
_cell_angle_beta 90.000000
_cell_angle_gamma 90.000000
_cell_volume 1724.914648
_symmetry_space_group_name_H-M "A M A 2"
_symmetry_group_IT_number 40
_symmetry_cell_setting 'orthorhombic'
loop_
_space_group_symop_operation_xyz
x,y,z
-x,-y,z
1/2-x,y,z
1/2+x,-y,z
x,1/2+y,1/2+z
-x,1/2-y,1/2+z
1/2-x,1/2+y,1/2+z
1/2+x,1/2-y,1/2+z
loop_
_atom_site_type_symbol
_atom_site_label
_atom_site_fract_x
_atom_site_fract_y
_atom_site_fract_z
Si Si1 0.750000 0.170961 0.623621
Si Si2 0.250000 0.610068 0.825211
Si Si3 0.414447 0.303531 0.922684
Si Si4 0.250000 0.090255 0.686626
Si Si5 0.500000 0.500000 0.089497
Si Si6 0.097178 0.972298 0.179505
Si Si7 0.101461 0.572595 0.361951
O O1 0.750000 0.268981 0.747940
O O2 0.667476 0.186119 0.524113
O O3 0.750000 0.045728 0.690663
O O4 0.166460 0.546020 0.769794
O O5 0.250000 0.617777 0.008550
O O6 0.396746 0.351640 0.754807
O O7 0.449707 0.178266 0.922671
O O8 0.479811 0.391013 0.992818
O O9 0.177722 0.133745 0.790867
O O10 0.428897 0.513064 0.211456
O O11 0.117048 0.991741 0.002200
O O12 0.000000 0.000000 0.192668
#
# Coordination Sequence:
#
# PCOD9365576 Si02
#       7
#     4   4   8   4   4   8   8
#     4  12  23  45  77 106 143 196 254 311 388 452
#     4  12  25  47  81 110 154 208 260 318 403 461
#     4  12  26  47  75 104 148 198 246 317 382 453
#     4  12  26  50  72 108 151 196 254 325 383 465
#     4  12  26  44  68 110 152 186 244 316 368 468
#     4  12  25  47  77 112 153 201 257 319 386 467
#     4  12  27  45  74 108 148 194 256 307 385 460
#
# _framework density 23.189551000000002
#
# number of rings (size 3 to 8) (size 9 to 14) (size 15 to 20)
#    0.000    0.000    8.000    1.200    2.800    1.600 
#    0.000    0.000    0.000    0.000    0.000    0.000 
#    0.000    0.000    0.000    0.000    0.000    0.000 
#
# Total GULP energy -111585.847466 kJ/mol
# GULP energy per Si atom -5579.292373 kJ/mol
# Density = 2.313677 g / cm^3
# Si number density = 23.189551 Si / 1000 Ang^3
#
#
#
# Elastic Constant Matrix: (Units=GPa)
#
#
# Indices 1 2 3 4 5 6 
#
# 1 89.8910 -17.8594 29.0757 0.0000 0.0000 0.0000
# 2 -17.8594 84.7979 40.4165 0.0000 0.0000 0.0000
# 3 29.0757 40.4165 148.4059 0.0000 0.0000 0.0000
# 4 0.0000 0.0000 0.0000 46.1950 0.0000 0.0000
# 5 0.0000 0.0000 0.0000 0.0000 2.6835 0.0000
# 6 0.0000 0.0000 0.0000 0.0000 0.0000 22.2005
#
#
#
# Elastic Compliance Matrix: (Units=1/GPa)
#
#
# Indices 1 2 3 4 5 6 
#
# 1 0.013300 0.004646 -0.003871 0.000000 0.000000 0.000000
# 2 0.004646 0.015175 -0.005043 0.000000 0.000000 0.000000
# 3 -0.003871 -0.005043 0.008870 0.000000 0.000000 0.000000
# 4 0.000000 0.000000 0.000000 0.021647 0.000000 0.000000
# 5 0.000000 0.000000 0.000000 0.000000 0.372652 0.000000
# 6 0.000000 0.000000 0.000000 0.000000 0.000000 0.045044
#
#
# Mechanical properties :
#
#
# Convention : Reuss Voigt Hill
#
# Bulk Modulus (GPa) = 34.71145 47.37338 41.04241
# Shear Modulus (GPa) = 10.10454 32.31325 21.20889
#
# Velocity S-wave (km/s) = 2.08970 3.73693 3.02750
# Velocity P-wave (km/s) = 4.56328 6.25241 5.47340
#
# Compressibility (1/GPa) = 0.02880894
#
# Stress axis : x y z
#
# Youngs Moduli (GPa) = 75.18939 65.89859 112.73880
#
# Poissons Ratio (x) = -0.30617 0.43641
# Poissons Ratio (y) = -0.34934 0.56853
# Poissons Ratio (z) = 0.29106 0.33232
#
# Static dielectric constant tensor:
#      x y z
#    x 1.811240 0.000000 0.000000 
#    y 0.000000 1.945220 0.000000 
#    z 0.000000 0.000000 1.829450 
# 
# From -- ./inp_files/7187.got.cif
#   From: 2010.05.17/outbox.cif.g08.bks.cpg/sg40_4_cif.got.tgz:7187.got - 2010.06.03 18:35:42.
