data_PCOD9365684
_publ_section_title
;
Structure prediction by ZEFSAII (Michael W. Deem and Ramdas Pophale) SiO2 
 PCOD9365684
Probable space group: A M A 2
;
_chemical_formula_sum "Si O2"
_cell_formula_units_Z 24
_cell_length_a 15.000000
_cell_length_b 18.000000
_cell_length_c 9.000000
_cell_angle_alpha 90.000000
_cell_angle_beta 90.000000
_cell_angle_gamma 90.000000
_cell_volume 2430.000000
_symmetry_space_group_name_H-M "A M A 2"
_symmetry_group_IT_number 40
_symmetry_cell_setting 'orthorhombic'
loop_
_space_group_symop_operation_xyz
x,y,z
-x,-y,z
1/2-x,y,z
1/2+x,-y,z
x,1/2+y,1/2+z
-x,1/2-y,1/2+z
1/2-x,1/2+y,1/2+z
1/2+x,1/2-y,1/2+z
loop_
_atom_site_type_symbol
_atom_site_label
_atom_site_fract_x
_atom_site_fract_y
_atom_site_fract_z
Si Si1 0.568294 0.207915 0.324760
Si Si2 0.750000 0.913025 0.162627
Si Si3 0.066376 0.673625 0.582244
Si Si4 0.436471 0.430687 0.035545
Si Si5 0.750000 0.166883 0.206158
Si Si6 0.250000 0.974212 0.431149
Si Si7 0.250000 0.443970 0.448613
Si Si8 0.449501 0.422477 0.360446
O O1 0.583090 0.266740 0.454254
O O2 0.482220 0.212707 0.220670
O O3 0.558183 0.128343 0.404349
O O4 0.658854 0.210207 0.230308
O O5 0.841784 0.867057 0.132199
O O6 0.750000 0.953057 0.325037
O O7 0.750000 0.981568 0.047233
O O8 0.992808 0.620835 0.499570
O O9 0.500000 0.500000 0.008119
O O10 0.461545 0.392535 0.192521
O O11 0.337546 0.465193 0.030044
O O12 0.750000 0.097862 0.322460
O O13 0.750000 0.129307 0.048577
O O14 0.344841 0.438760 0.370744
O O15 0.500000 0.500000 0.360332
#
# Coordination Sequence:
#
# PCOD9365684 Si02
#       8
#     8   4   8   8   4   4   4   8
#     4  11  23  41  62  89 125 169 215 262 316 383
#     4  11  23  38  66  96 127 166 215 265 321 390
#     4  12  24  41  63  91 130 173 217 266 322 385
#     4  10  21  38  62  92 126 160 207 260 316 371
#     4   9  19  36  61  86 118 156 206 259 312 365
#     4   9  19  36  60  90 121 160 202 263 309 374
#     4  11  19  38  63  98 122 156 213 261 316 383
#     4  11  22  37  63  95 128 166 206 266 319 379
#
# _framework density 9.8765429999999999
#
# number of rings (size 3 to 8) (size 9 to 14) (size 15 to 20)
#    0.000    1.333    3.333    3.000    0.000    0.667 
#    0.000    3.333    0.000    0.000    0.000    0.000 
#    0.000    0.000    0.000    0.000    0.000    0.000 
#
# Total GULP energy -133782.470676 kJ/mol
# GULP energy per Si atom -5574.269611 kJ/mol
# Density = 0.985406 g / cm^3
# Si number density = 9.876543 Si / 1000 Ang^3
#
#
#
# Elastic Constant Matrix: (Units=GPa)
#
#
# Indices 1 2 3 4 5 6 
#
# 1 117.4757 31.6212 10.7778 0.0000 0.0000 0.0000
# 2 31.6212 60.3186 18.1593 0.0000 0.0000 0.0000
# 3 10.7778 18.1593 57.2117 0.0000 0.0000 0.0000
# 4 0.0000 0.0000 0.0000 28.5961 0.0000 0.0000
# 5 0.0000 0.0000 0.0000 0.0000 -5.9436 0.0000
# 6 0.0000 0.0000 0.0000 0.0000 0.0000 -2.7299
#
#
#
# Elastic Compliance Matrix: (Units=1/GPa)
#
#
# Indices 1 2 3 4 5 6 
#
# 1 0.009914 -0.005125 -0.000241 0.000000 0.000000 0.000000
# 2 -0.005125 0.020979 -0.005694 0.000000 0.000000 0.000000
# 3 -0.000241 -0.005694 0.019331 0.000000 0.000000 0.000000
# 4 0.000000 0.000000 0.000000 0.034970 0.000000 0.000000
# 5 0.000000 0.000000 0.000000 0.000000 -0.168250 0.000000
# 6 0.000000 0.000000 0.000000 0.000000 0.000000 -0.366310
#
#
# Mechanical properties :
#
#
# Convention : Reuss Voigt Hill
#
# Bulk Modulus (GPa) = 35.57931 39.56919 37.57425
# Shear Modulus (GPa) = -11.96523 15.61437 1.82457
#
# Velocity S-wave (km/s) = -2.46385 2.81459 0.96213
# Velocity P-wave (km/s) = 3.15548 5.53516 4.50528
#
# Compressibility (1/GPa) = 0.02810622
#
# Stress axis : x y z
#
# Youngs Moduli (GPa) = 100.86806 47.66609 51.72906
#
# Poissons Ratio (x) = 0.24427 0.01247
# Poissons Ratio (y) = 0.51692 0.29452
# Poissons Ratio (z) = 0.02431 0.27139
#
# Static dielectric constant tensor:
#      x y z
#    x 6.457390 0.000000 0.000000 
#    y 0.000000 1.690470 0.000000 
#    z 0.000000 0.000000 1.689380 
# 
# From -- ./inp_files/6505.got.cif
#   From: 2010.05.17/outbox.ucp.g08.bks.cvg/sg40_4_cif.got.tgz:6505.got - 2010.06.11 16:26:39.
