data_PCOD9365813
_publ_section_title
;
Structure prediction by ZEFSAII (Michael W. Deem and Ramdas Pophale) SiO2 
 PCOD9365813
Probable space group: A B A 2
;
_chemical_formula_sum "Si O2"
_cell_formula_units_Z 56
_cell_length_a 18.059452
_cell_length_b 7.463615
_cell_length_c 17.990902
_cell_angle_alpha 90.000000
_cell_angle_beta 90.000000
_cell_angle_gamma 90.000000
_cell_volume 2424.972035
_symmetry_space_group_name_H-M "A B A 2"
_symmetry_group_IT_number 41
_symmetry_cell_setting 'orthorhombic'
loop_
_space_group_symop_operation_xyz
x,y,z
-x,-y,z
1/2-x,y,1/2+z
1/2+x,-y,1/2+z
x,1/2+y,1/2+z
-x,1/2-y,1/2+z
1/2-x,1/2+y,z
1/2+x,1/2-y,z
loop_
_atom_site_type_symbol
_atom_site_label
_atom_site_fract_x
_atom_site_fract_y
_atom_site_fract_z
Si Si1 0.655804 0.436029 0.191190
Si Si2 0.500000 0.000000 0.002100
Si Si3 0.448917 0.245190 0.883136
Si Si4 0.653366 0.431291 0.872014
Si Si5 0.310860 0.537974 0.031792
Si Si6 0.000000 0.500000 0.753421
Si Si7 0.245989 0.316451 0.781710
Si Si8 0.147052 0.628376 0.007846
O O1 0.664127 0.371440 0.107533
O O2 0.574211 0.509802 0.205538
O O3 0.717607 0.586385 0.207586
O O4 0.683220 0.295627 0.253374
O O5 0.495105 0.822294 0.948603
O O6 0.424344 0.036005 0.044762
O O7 0.420041 0.446663 0.871406
O O8 0.483159 0.164642 0.809057
O O9 0.377252 0.140887 0.920159
O O10 0.721189 0.562725 0.847541
O O11 0.671921 0.276905 0.813652
O O12 0.664137 0.368757 0.955865
O O13 0.222506 0.531783 0.025767
O O14 0.343490 0.336359 0.030248
#
# Coordination Sequence:
#
# PCOD9365813 Si02
#       8
#     8   4   8   8   8   4   8   8
#     4  11  24  41  63  91 131 168 202 255 327 378
#     4   7  16  32  56  90 114 155 202 250 313 358
#     4   8  16  33  62  87 115 159 208 249 300 370
#     4  10  18  35  62  94 119 158 216 264 296 368
#     4  11  21  36  61  92 126 159 203 262 308 373
#     4  11  20  40  66  82 128 171 204 240 335 382
#     4  10  22  36  64  93 123 164 217 256 303 372
#     4   9  19  35  62  90 124 158 210 253 314 364
#
# _framework density 23.093050000000002
#
# number of rings (size 3 to 8) (size 9 to 14) (size 15 to 20)
#    0.857    1.429    1.429    2.571    2.000    0.000 
#    0.000    3.571    9.429    0.000    0.000    0.000 
#    0.000    0.000    0.000    0.000    0.000    0.000 
#
# Total GULP energy -155965.881235 kJ/mol
# GULP energy per Si atom -5570.210044 kJ/mol
# Density = 2.304049 g / cm^3
# Si number density = 23.093050 Si / 1000 Ang^3
#
#
#
# Elastic Constant Matrix: (Units=GPa)
#
#
# Indices 1 2 3 4 5 6 
#
# 1 124.0792 -5.8053 20.3266 0.0000 0.0000 0.0000
# 2 -5.8053 15.9872 1.6839 0.0000 0.0000 0.0000
# 3 20.3266 1.6839 111.4821 0.0000 0.0000 0.0000
# 4 0.0000 0.0000 0.0000 9.0842 0.0000 0.0000
# 5 0.0000 0.0000 0.0000 0.0000 15.8971 0.0000
# 6 0.0000 0.0000 0.0000 0.0000 0.0000 37.1623
#
#
#
# Elastic Compliance Matrix: (Units=1/GPa)
#
#
# Indices 1 2 3 4 5 6 
#
# 1 0.008472 0.003244 -0.001594 0.000000 0.000000 0.000000
# 2 0.003244 0.063892 -0.001557 0.000000 0.000000 0.000000
# 3 -0.001594 -0.001557 0.009284 0.000000 0.000000 0.000000
# 4 0.000000 0.000000 0.000000 0.110082 0.000000 0.000000
# 5 0.000000 0.000000 0.000000 0.000000 0.062905 0.000000
# 6 0.000000 0.000000 0.000000 0.000000 0.000000 0.026909
#
#
# Mechanical properties :
#
#
# Convention : Reuss Voigt Hill
#
# Bulk Modulus (GPa) = 12.21947 31.55097 21.88522
# Shear Modulus (GPa) = 16.20038 28.11826 22.15932
#
# Velocity S-wave (km/s) = 2.65151 3.49321 3.10105
# Velocity P-wave (km/s) = 3.83104 5.47377 4.72436
#
# Compressibility (1/GPa) = 0.08183658
#
# Stress axis : x y z
#
# Youngs Moduli (GPa) = 118.03238 15.65136 107.71042
#
# Poissons Ratio (x) = -0.05078 0.17166
# Poissons Ratio (y) = -0.38294 0.16766
# Poissons Ratio (z) = 0.18811 0.02436
#
# Static dielectric constant tensor:
#      x y z
#    x 1.908170 0.000000 0.000000 
#    y 0.000000 1.960990 0.000000 
#    z 0.000000 0.000000 1.863530 
# 
# From -- ./inp_files/10669.got.cif
#   From: 2010.05.17/outbox.cif.g08.bks.cpg/sg41_6_cif.got.tgz:10669.got - 2010.06.03 18:54:24.
