data_PCOD9365389
_publ_section_title
;
Structure prediction by ZEFSAII (Michael W. Deem and Ramdas Pophale) SiO2 
 PCOD9365389
Probable space group: A M A 2
;
_chemical_formula_sum "Si O2"
_cell_formula_units_Z 56
_cell_length_a 8.605544
_cell_length_b 15.676481
_cell_length_c 20.508720
_cell_angle_alpha 90.000000
_cell_angle_beta 90.000000
_cell_angle_gamma 90.000000
_cell_volume 2766.721632
_symmetry_space_group_name_H-M "A M A 2"
_symmetry_group_IT_number 40
_symmetry_cell_setting 'orthorhombic'
loop_
_space_group_symop_operation_xyz
x,y,z
-x,-y,z
1/2-x,y,z
1/2+x,-y,z
x,1/2+y,1/2+z
-x,1/2-y,1/2+z
1/2-x,1/2+y,1/2+z
1/2+x,1/2-y,1/2+z
loop_
_atom_site_type_symbol
_atom_site_label
_atom_site_fract_x
_atom_site_fract_y
_atom_site_fract_z
Si Si1 0.437341 0.905081 0.655880
Si Si2 0.067331 0.820645 0.790129
Si Si3 0.077651 0.117901 0.279732
Si Si4 0.073228 0.086420 0.130738
Si Si5 0.064270 0.770439 0.928478
Si Si6 0.427029 0.413320 0.905153
Si Si7 0.433961 0.750660 0.072619
O O1 0.250000 0.905983 0.656547
O O2 0.494713 0.873829 0.728345
O O3 0.489948 0.834335 0.602852
O O4 0.500000 0.000000 0.642510
O O5 0.250000 0.843625 0.794760
O O6 0.060298 0.720235 0.772535
O O7 0.001828 0.821367 0.864669
O O8 0.250000 0.103296 0.310069
O O9 0.079394 0.079350 0.208674
O O10 0.943650 0.084314 0.326601
O O11 0.250000 0.099550 0.107612
O O12 0.970902 0.169308 0.117880
O O13 0.000000 0.000000 0.103060
O O14 0.250000 0.782444 0.927280
O O15 0.025249 0.670600 0.920244
O O16 0.007401 0.784188 0.001910
O O17 0.500000 0.500000 0.932075
O O18 0.250000 0.403347 0.925575
O O19 0.250000 0.734895 0.067731
#
# Coordination Sequence:
#
# PCOD9365389 Si02
#       7
#     8   8   8   8   8   8   8
#     4  11  22  39  63  92 124 163 209 259 314 372
#     4   8  15  34  60  83 110 149 193 240 296 353
#     4   9  17  33  55  80 111 148 184 228 286 343
#     4  11  22  37  58  85 118 155 194 240 295 357
#     4   9  20  39  60  80 110 155 200 244 305 366
#     4  11  21  32  50  79 112 147 187 235 286 348
#     4  11  23  40  62  89 122 160 203 255 310 371
#
# _framework density 20.240561
#
# number of rings (size 3 to 8) (size 9 to 14) (size 15 to 20)
#    0.000    2.000    1.429    3.857    0.000    4.000 
#    0.000    1.429    0.000    1.714    0.000    0.000 
#    0.000    0.000    0.000    0.000    0.000    0.000 
#
# Total GULP energy -156019.261478 kJ/mol
# GULP energy per Si atom -5572.116481 kJ/mol
# Density = 2.019449 g / cm^3
# Si number density = 20.240561 Si / 1000 Ang^3
#
#
#
# Elastic Constant Matrix: (Units=GPa)
#
#
# Indices 1 2 3 4 5 6 
#
# 1 30.5138 18.1539 21.2857 0.0000 0.0000 0.0000
# 2 18.1539 63.6481 -4.8499 0.0000 0.0000 0.0000
# 3 21.2857 -4.8499 68.6488 0.0000 0.0000 0.0000
# 4 0.0000 0.0000 0.0000 1.6207 0.0000 0.0000
# 5 0.0000 0.0000 0.0000 0.0000 16.5205 0.0000
# 6 0.0000 0.0000 0.0000 0.0000 0.0000 24.4844
#
#
#
# Elastic Compliance Matrix: (Units=1/GPa)
#
#
# Indices 1 2 3 4 5 6 
#
# 1 0.056149 -0.017436 -0.018642 0.000000 0.000000 0.000000
# 2 -0.017436 0.021211 0.006905 0.000000 0.000000 0.000000
# 3 -0.018642 0.006905 0.020835 0.000000 0.000000 0.000000
# 4 0.000000 0.000000 0.000000 0.617019 0.000000 0.000000
# 5 0.000000 0.000000 0.000000 0.000000 0.060531 0.000000
# 6 0.000000 0.000000 0.000000 0.000000 0.000000 0.040842
#
#
# Mechanical properties :
#
#
# Convention : Reuss Voigt Hill
#
# Bulk Modulus (GPa) = 25.09454 25.77669 25.43561
# Shear Modulus (GPa) = 5.62927 17.07319 11.35123
#
# Velocity S-wave (km/s) = 1.66950 2.90748 2.37072
# Velocity P-wave (km/s) = 4.01763 4.90246 4.48193
#
# Compressibility (1/GPa) = 0.03984931
#
# Stress axis : x y z
#
# Youngs Moduli (GPa) = 17.80971 47.14636 47.99649
#
# Poissons Ratio (x) = 0.82202 0.89474
# Poissons Ratio (y) = 0.31052 -0.33140
# Poissons Ratio (z) = 0.33200 -0.32553
#
# Static dielectric constant tensor:
#      x y z
#    x 1.741350 0.000000 0.000000 
#    y 0.000000 1.722810 0.000000 
#    z 0.000000 0.000000 1.825390 
# 
# From -- ./inp_files/22187.got.cif
#   From: 2010.05.17/outbox.cif.g08.bks.cpg/sg40_12_cif.got.tgz:22187.got - 2010.06.03 18:35:42.
