data_PCOD9365588
_publ_section_title
;
Structure prediction by ZEFSAII (Michael W. Deem and Ramdas Pophale) SiO2 
 PCOD9365588
Probable space group: A M A 2
;
_chemical_formula_sum "Si O2"
_cell_formula_units_Z 36
_cell_length_a 14.958553
_cell_length_b 12.530420
_cell_length_c 7.127626
_cell_angle_alpha 90.000000
_cell_angle_beta 90.000000
_cell_angle_gamma 90.000000
_cell_volume 1335.980490
_symmetry_space_group_name_H-M "A M A 2"
_symmetry_group_IT_number 40
_symmetry_cell_setting 'orthorhombic'
loop_
_space_group_symop_operation_xyz
x,y,z
-x,-y,z
1/2-x,y,z
1/2+x,-y,z
x,1/2+y,1/2+z
-x,1/2-y,1/2+z
1/2-x,1/2+y,1/2+z
1/2+x,1/2-y,1/2+z
loop_
_atom_site_type_symbol
_atom_site_label
_atom_site_fract_x
_atom_site_fract_y
_atom_site_fract_z
Si Si1 0.398417 0.739115 0.915950
Si Si2 0.146800 0.464361 0.370407
Si Si3 0.100318 0.502987 0.965604
Si Si4 0.601909 0.304744 0.483989
Si Si5 0.750000 0.651141 0.818222
O O1 0.352692 0.850129 0.975130
O O2 0.374427 0.719520 0.699125
O O3 0.375728 0.626178 0.007168
O O4 0.503403 0.761264 0.939453
O O5 0.250000 0.489859 0.333399
O O6 0.099850 0.447110 0.169629
O O7 0.103308 0.567551 0.461619
O O8 0.000000 0.500000 0.885664
O O9 0.172377 0.443552 0.841734
O O10 0.672132 0.243138 0.356003
#
# Coordination Sequence:
#
# PCOD9365588 Si02
#       5
#     8   8   8   8   4
#     4  12  26  47  73 104 140 191 238 294 354 430
#     4  12  25  46  71 105 142 187 237 299 359 425
#     4  12  24  47  76 100 144 192 236 297 362 424
#     4  12  25  49  74 100 149 187 238 298 359 423
#     4  12  24  48  72 106 144 192 234 296 366 428
#
# _framework density 26.946501000000001
#
# number of rings (size 3 to 8) (size 9 to 14) (size 15 to 20)
#    0.000    0.000    6.667    3.333    1.556    1.778 
#    4.000    0.000    0.000    0.000    0.000    0.000 
#    0.000    0.000    0.000    0.000    0.000    0.000 
#
# Total GULP energy -100548.229948 kJ/mol
# GULP energy per Si atom -5586.012775 kJ/mol
# Density = 2.688517 g / cm^3
# Si number density = 26.946501 Si / 1000 Ang^3
#
#
#
# Elastic Constant Matrix: (Units=GPa)
#
#
# Indices 1 2 3 4 5 6 
#
# 1 103.0735 30.0834 -8.2080 0.0000 0.0000 0.0000
# 2 30.0834 217.8085 23.8668 0.0000 0.0000 0.0000
# 3 -8.2080 23.8668 80.1815 0.0000 0.0000 0.0000
# 4 0.0000 0.0000 0.0000 50.8632 0.0000 0.0000
# 5 0.0000 0.0000 0.0000 0.0000 -23.6270 0.0000
# 6 0.0000 0.0000 0.0000 0.0000 0.0000 74.4175
#
#
#
# Elastic Compliance Matrix: (Units=1/GPa)
#
#
# Indices 1 2 3 4 5 6 
#
# 1 0.010287 -0.001588 0.001526 0.000000 0.000000 0.000000
# 2 -0.001588 0.004991 -0.001648 0.000000 0.000000 0.000000
# 3 0.001526 -0.001648 0.013118 0.000000 0.000000 0.000000
# 4 0.000000 0.000000 0.000000 0.019661 0.000000 0.000000
# 5 0.000000 0.000000 0.000000 0.000000 -0.042324 0.000000
# 6 0.000000 0.000000 0.000000 0.000000 0.000000 0.013438
#
#
# Mechanical properties :
#
#
# Convention : Reuss Voigt Hill
#
# Bulk Modulus (GPa) = 40.03934 54.72756 47.38345
# Shear Modulus (GPa) = 161.72659 44.01882 102.87271
#
# Velocity S-wave (km/s) = 7.75551 4.04612 6.18543
# Velocity P-wave (km/s) = 9.75133 6.49476 8.28463
#
# Compressibility (1/GPa) = 0.02497544
#
# Stress axis : x y z
#
# Youngs Moduli (GPa) = 97.21207 200.35556 76.22823
#
# Poissons Ratio (x) = 0.31816 -0.11630
# Poissons Ratio (y) = 0.15437 0.12564
# Poissons Ratio (z) = -0.14832 0.33023
#
# Static dielectric constant tensor:
#      x y z
#    x 2.016510 0.000000 0.000000 
#    y 0.000000 2.084090 0.000000 
#    z 0.000000 0.000000 2.168810 
# 
# From -- ./inp_files/6056.got.cif
#   From: 2010.05.17/outbox.cif.g08.bks.cpg/sg40_4_cif.got.tgz:6056.got - 2010.06.03 18:35:42.
