data_PCOD9365520
_publ_section_title
;
Structure prediction by ZEFSAII (Michael W. Deem and Ramdas Pophale) SiO2 
 PCOD9365520
Probable space group: A M A 2
;
_chemical_formula_sum "Si O2"
_cell_formula_units_Z 48
_cell_length_a 20.008148
_cell_length_b 5.681018
_cell_length_c 19.318711
_cell_angle_alpha 90.000000
_cell_angle_beta 90.000000
_cell_angle_gamma 90.000000
_cell_volume 2195.893141
_symmetry_space_group_name_H-M "A M A 2"
_symmetry_group_IT_number 40
_symmetry_cell_setting 'orthorhombic'
loop_
_space_group_symop_operation_xyz
x,y,z
-x,-y,z
1/2-x,y,z
1/2+x,-y,z
x,1/2+y,1/2+z
-x,1/2-y,1/2+z
1/2-x,1/2+y,1/2+z
1/2+x,1/2-y,1/2+z
loop_
_atom_site_type_symbol
_atom_site_label
_atom_site_fract_x
_atom_site_fract_y
_atom_site_fract_z
Si Si1 0.428409 0.086826 0.415020
Si Si2 0.250000 0.210134 0.626870
Si Si3 0.500000 0.000000 0.707455
Si Si4 0.750000 0.290532 0.709150
Si Si5 0.500000 0.500000 0.625852
Si Si6 0.178055 0.188631 0.916223
Si Si7 0.869193 0.605338 0.537638
Si Si8 0.376359 0.866989 0.795224
O O1 0.402162 0.249892 0.475634
O O2 0.426314 0.209023 0.340823
O O3 0.500000 0.000000 0.435002
O O4 0.380088 0.870195 0.408851
O O5 0.250000 0.451208 0.673438
O O6 0.182716 0.240142 0.581531
O O7 0.250000 0.953770 0.663625
O O8 0.502519 0.249947 0.666570
O O9 0.570942 0.988947 0.748862
O O10 0.680430 0.268342 0.751860
O O11 0.569171 0.507196 0.582109
O O12 0.250000 0.302512 0.906703
O O13 0.165553 0.005323 0.854145
O O14 0.172586 0.084920 0.993571
#
# Coordination Sequence:
#
# PCOD9365520 Si02
#       8
#     8   4   4   4   4   8   8   8
#     4  11  26  44  77 106 145 189 241 316 371 434
#     4  12  28  47  74 107 148 200 246 300 362 440
#     4  12  28  47  74 105 148 200 246 298 362 440
#     4  12  28  47  74 107 148 200 246 300 362 440
#     4  12  28  47  74 105 148 200 246 298 362 440
#     4  11  24  43  76 107 143 193 241 316 369 432
#     4  11  26  46  72 107 147 189 250 302 370 435
#     4  11  26  46  72 107 147 189 250 302 370 435
#
# _framework density 21.858988
#
# number of rings (size 3 to 8) (size 9 to 14) (size 15 to 20)
#    0.000    0.667    1.667    4.000   14.000    2.667 
#    0.000    0.000    0.000    0.000    0.000    0.000 
#    0.000    0.000    0.000    0.000    0.000    0.000 
#
# Total GULP energy -134061.069068 kJ/mol
# GULP energy per Si atom -5585.877878 kJ/mol
# Density = 2.180924 g / cm^3
# Si number density = 21.858988 Si / 1000 Ang^3
#
#
#
# Elastic Constant Matrix: (Units=GPa)
#
#
# Indices 1 2 3 4 5 6 
#
# 1 117.3661 -6.8110 21.3814 0.0000 0.0000 0.0000
# 2 -6.8110 73.5042 28.9565 0.0000 0.0000 0.0000
# 3 21.3814 28.9565 85.6934 0.0000 0.0000 0.0000
# 4 0.0000 0.0000 0.0000 -5.7212 0.0000 0.0000
# 5 0.0000 0.0000 0.0000 0.0000 26.8264 0.0000
# 6 0.0000 0.0000 0.0000 0.0000 0.0000 47.3222
#
#
#
# Elastic Compliance Matrix: (Units=1/GPa)
#
#
# Indices 1 2 3 4 5 6 
#
# 1 0.009179 0.002022 -0.002974 0.000000 0.000000 0.000000
# 2 0.002022 0.016139 -0.005958 0.000000 0.000000 0.000000
# 3 -0.002974 -0.005958 0.014425 0.000000 0.000000 0.000000
# 4 0.000000 0.000000 0.000000 -0.174788 0.000000 0.000000
# 5 0.000000 0.000000 0.000000 0.000000 0.037277 0.000000
# 6 0.000000 0.000000 0.000000 0.000000 0.000000 0.021132
#
#
# Mechanical properties :
#
#
# Convention : Reuss Voigt Hill
#
# Bulk Modulus (GPa) = 38.57431 40.40193 39.48812
# Shear Modulus (GPa) = -92.29301 29.22127 -31.53587
#
# Velocity S-wave (km/s) = -6.50489 3.66021 -3.80240
# Velocity P-wave (km/s) = 6.22358 6.03207 1.08330
#
# Compressibility (1/GPa) = 0.02592399
#
# Stress axis : x y z
#
# Youngs Moduli (GPa) = 108.93945 61.96107 69.32534
#
# Poissons Ratio (x) = -0.12529 0.20615
# Poissons Ratio (y) = -0.22028 0.41304
# Poissons Ratio (z) = 0.32394 0.36917
#
# Static dielectric constant tensor:
#      x y z
#    x 1.729300 0.000000 0.000000 
#    y 0.000000 1.728700 0.000000 
#    z 0.000000 0.000000 1.846930 
# 
# From -- ./inp_files/23518.got.cif
#   From: 2010.05.17/outbox.cif.g08.bks.cpg/sg40_12_cif.got.tgz:23518.got - 2010.06.03 18:35:42.
