data_PCOD9365772
_publ_section_title
;
Structure prediction by ZEFSAII (Michael W. Deem and Ramdas Pophale) SiO2 
 PCOD9365772
Probable space group: A B A 2
;
_chemical_formula_sum "Si O2"
_cell_formula_units_Z 48
_cell_length_a 9.534053
_cell_length_b 15.303436
_cell_length_c 15.515490
_cell_angle_alpha 90.000000
_cell_angle_beta 90.000000
_cell_angle_gamma 90.000000
_cell_volume 2263.768483
_symmetry_space_group_name_H-M "A B A 2"
_symmetry_group_IT_number 41
_symmetry_cell_setting 'orthorhombic'
loop_
_space_group_symop_operation_xyz
x,y,z
-x,-y,z
1/2-x,y,1/2+z
1/2+x,-y,1/2+z
x,1/2+y,1/2+z
-x,1/2-y,1/2+z
1/2-x,1/2+y,z
1/2+x,1/2-y,z
loop_
_atom_site_type_symbol
_atom_site_label
_atom_site_fract_x
_atom_site_fract_y
_atom_site_fract_z
Si Si1 0.500000 0.500000 0.135131
Si Si2 0.747481 0.602301 0.094609
Si Si3 0.000000 0.500000 0.020385
Si Si4 0.112737 0.784698 0.233536
Si Si5 0.311416 0.224222 0.490020
Si Si6 0.667193 0.342512 0.169483
Si Si7 0.957393 0.322933 0.911386
O O1 0.601294 0.555841 0.075998
O O2 0.601364 0.436824 0.190408
O O3 0.873319 0.534733 0.080552
O O4 0.714884 0.643264 0.189203
O O5 0.768154 0.683267 0.031558
O O6 0.970715 0.416197 0.958893
O O7 0.203688 0.696527 0.222973
O O8 0.969318 0.779132 0.177418
O O9 0.047295 0.816821 0.323623
O O10 0.292787 0.157647 0.568885
O O11 0.469867 0.243591 0.463877
O O12 0.207429 0.199032 0.412814
#
# Coordination Sequence:
#
# PCOD9365772 Si02
#       7
#     4   8   4   8   8   8   8
#     4  10  18  31  56  83 106 138 196 248 286 339
#     4   9  20  36  56  82 111 153 197 244 301 372
#     4  10  22  37  58  83 114 152 204 250 298 357
#     4  10  21  36  56  83 118 154 199 248 308 370
#     4  10  20  36  57  80 113 156 200 240 307 380
#     4  10  20  36  57  83 115 159 204 249 302 378
#     4  11  21  36  57  85 115 152 198 255 304 358
#
# _framework density 21.203582999999998
#
# number of rings (size 3 to 8) (size 9 to 14) (size 15 to 20)
#    0.000    2.000    0.000    5.000    0.000    5.333 
#    0.000    0.000    0.000    4.000    0.000    0.000 
#    0.000    0.000    0.000    0.000    0.000    0.333 
#
# Total GULP energy -133624.846606 kJ/mol
# GULP energy per Si atom -5567.701942 kJ/mol
# Density = 2.115532 g / cm^3
# Si number density = 21.203583 Si / 1000 Ang^3
#
#
#
# Elastic Constant Matrix: (Units=GPa)
#
#
# Indices 1 2 3 4 5 6 
#
# 1 99.8949 36.7290 23.6448 0.0000 0.0000 0.0000
# 2 36.7290 81.8449 14.1782 0.0000 0.0000 0.0000
# 3 23.6448 14.1782 91.7211 0.0000 0.0000 0.0000
# 4 0.0000 0.0000 0.0000 12.6617 0.0000 0.0000
# 5 0.0000 0.0000 0.0000 0.0000 36.2169 0.0000
# 6 0.0000 0.0000 0.0000 0.0000 0.0000 50.2467
#
#
#
# Elastic Compliance Matrix: (Units=1/GPa)
#
#
# Indices 1 2 3 4 5 6 
#
# 1 0.012490 -0.005186 -0.002418 0.000000 0.000000 0.000000
# 2 -0.005186 0.014708 -0.000937 0.000000 0.000000 0.000000
# 3 -0.002418 -0.000937 0.011671 0.000000 0.000000 0.000000
# 4 0.000000 0.000000 0.000000 0.078978 0.000000 0.000000
# 5 0.000000 0.000000 0.000000 0.000000 0.027611 0.000000
# 6 0.000000 0.000000 0.000000 0.000000 0.000000 0.019902
#
#
# Mechanical properties :
#
#
# Convention : Reuss Voigt Hill
#
# Bulk Modulus (GPa) = 45.89936 46.95167 46.42552
# Shear Modulus (GPa) = 26.35693 33.08566 29.72130
#
# Velocity S-wave (km/s) = 3.52950 3.95445 3.74800
# Velocity P-wave (km/s) = 6.18901 6.56061 6.37752
#
# Compressibility (1/GPa) = 0.02178680
#
# Stress axis : x y z
#
# Youngs Moduli (GPa) = 80.06633 67.99120 85.68429
#
# Poissons Ratio (x) = 0.35260 0.20719
# Poissons Ratio (y) = 0.41523 0.08025
# Poissons Ratio (z) = 0.19361 0.06368
#
# Static dielectric constant tensor:
#      x y z
#    x 1.784140 0.000000 0.000000 
#    y 0.000000 1.828120 0.000000 
#    z 0.000000 0.000000 1.866420 
# 
# From -- ./inp_files/7350.got.cif
#   From: 2010.05.17/outbox.cif.g08.bks.cpg/sg41_4_cif.got.tgz:7350.got - 2010.06.03 18:54:24.
