data_PCOD9365093
_publ_section_title
;
Structure prediction by ZEFSAII (Michael W. Deem and Ramdas Pophale) SiO2 
 PCOD9365093
Probable space group: A M A 2
;
_chemical_formula_sum "Si O2"
_cell_formula_units_Z 32
_cell_length_a 14.964458
_cell_length_b 7.078787
_cell_length_c 12.605919
_cell_angle_alpha 90.000000
_cell_angle_beta 90.000000
_cell_angle_gamma 90.000000
_cell_volume 1335.347656
_symmetry_space_group_name_H-M "A M A 2"
_symmetry_group_IT_number 40
_symmetry_cell_setting 'orthorhombic'
loop_
_space_group_symop_operation_xyz
x,y,z
-x,-y,z
1/2-x,y,z
1/2+x,-y,z
x,1/2+y,1/2+z
-x,1/2-y,1/2+z
1/2-x,1/2+y,1/2+z
1/2+x,1/2-y,1/2+z
loop_
_atom_site_type_symbol
_atom_site_label
_atom_site_fract_x
_atom_site_fract_y
_atom_site_fract_z
Si Si1 0.486420 0.698476 0.048090
Si Si2 0.093628 0.604550 0.715913
Si Si3 0.854061 0.095004 0.894211
Si Si4 0.152323 0.697712 0.229069
O O1 0.500000 0.500000 0.989205
O O2 0.571631 0.798138 0.102450
O O3 0.424157 0.639241 0.148121
O O4 0.425040 0.838816 0.980749
O O5 0.127369 0.762539 0.796159
O O6 0.156262 0.422993 0.720041
O O7 0.000000 0.500000 0.744486
O O8 0.750000 0.110757 0.928677
O O9 0.869223 0.886532 0.845022
O O10 0.250000 0.618099 0.201226
#
# Coordination Sequence:
#
# PCOD9365093 Si02
#       4
#     8   8   8   8
#     4  11  22  44  70 107 147 189 240 296 361 429
#     4  10  22  43  66  99 141 189 239 303 347 421
#     4  11  23  43  71 102 145 192 237 296 366 430
#     4  10  22  44  68  96 140 189 240 296 357 427
#
# _framework density 23.963795999999999
#
# number of rings (size 3 to 8) (size 9 to 14) (size 15 to 20)
#    0.000    1.500    2.500    2.250    0.000    0.000 
#   40.500    0.000    0.000    0.000    0.000    0.000 
#    0.000    0.000    0.000    0.000    0.000    0.000 
#
# Total GULP energy -89395.626151 kJ/mol
# GULP energy per Si atom -5587.226634 kJ/mol
# Density = 2.390925 g / cm^3
# Si number density = 23.963796 Si / 1000 Ang^3
#
#
#
# Elastic Constant Matrix: (Units=GPa)
#
#
# Indices 1 2 3 4 5 6 
#
# 1 93.0204 28.1021 15.3298 0.0000 0.0000 0.0000
# 2 28.1021 152.9005 40.5346 0.0000 0.0000 0.0000
# 3 15.3298 40.5346 84.3698 0.0000 0.0000 0.0000
# 4 0.0000 0.0000 0.0000 15.5684 0.0000 0.0000
# 5 0.0000 0.0000 0.0000 0.0000 50.7833 0.0000
# 6 0.0000 0.0000 0.0000 0.0000 0.0000 31.2166
#
#
#
# Elastic Compliance Matrix: (Units=1/GPa)
#
#
# Indices 1 2 3 4 5 6 
#
# 1 0.011493 -0.001786 -0.001230 0.000000 0.000000 0.000000
# 2 -0.001786 0.007772 -0.003410 0.000000 0.000000 0.000000
# 3 -0.001230 -0.003410 0.013714 0.000000 0.000000 0.000000
# 4 0.000000 0.000000 0.000000 0.064233 0.000000 0.000000
# 5 0.000000 0.000000 0.000000 0.000000 0.019692 0.000000
# 6 0.000000 0.000000 0.000000 0.000000 0.000000 0.032034
#
#
# Mechanical properties :
#
#
# Convention : Reuss Voigt Hill
#
# Bulk Modulus (GPa) = 49.68311 55.35819 52.52065
# Shear Modulus (GPa) = 29.67387 35.93527 32.80457
#
# Velocity S-wave (km/s) = 3.52274 3.87662 3.70391
# Velocity P-wave (km/s) = 6.10932 6.57180 6.34477
#
# Compressibility (1/GPa) = 0.02012757
#
# Stress axis : x y z
#
# Youngs Moduli (GPa) = 87.01209 128.66042 72.91716
#
# Poissons Ratio (x) = 0.22981 0.08969
# Poissons Ratio (y) = 0.15542 0.24862
# Poissons Ratio (z) = 0.10703 0.43868
#
# Static dielectric constant tensor:
#      x y z
#    x 1.804950 0.000000 0.000000 
#    y 0.000000 2.096670 0.000000 
#    z 0.000000 0.000000 1.939810 
# 
# From -- ./inp_files/17376.got.cif
#   From: 2010.05.17/outbox.cif.g08.bks.cpg/sg40_9_cif.got.tgz:17376.got - 2010.06.03 18:35:42.
