data_PCOD9365786
_publ_section_title
;
Structure prediction by ZEFSAII (Michael W. Deem and Ramdas Pophale) SiO2 
 PCOD9365786
Probable space group: A B A 2
;
_chemical_formula_sum "Si O2"
_cell_formula_units_Z 56
_cell_length_a 5.124293
_cell_length_b 25.202580
_cell_length_c 24.740920
_cell_angle_alpha 90.000000
_cell_angle_beta 90.000000
_cell_angle_gamma 90.000000
_cell_volume 3195.176116
_symmetry_space_group_name_H-M "A B A 2"
_symmetry_group_IT_number 41
_symmetry_cell_setting 'orthorhombic'
loop_
_space_group_symop_operation_xyz
x,y,z
-x,-y,z
1/2-x,y,1/2+z
1/2+x,-y,1/2+z
x,1/2+y,1/2+z
-x,1/2-y,1/2+z
1/2-x,1/2+y,z
1/2+x,1/2-y,z
loop_
_atom_site_type_symbol
_atom_site_label
_atom_site_fract_x
_atom_site_fract_y
_atom_site_fract_z
Si Si1 0.409404 0.940892 0.383290
Si Si2 0.914092 0.873739 0.368229
Si Si3 0.347142 0.653975 0.490228
Si Si4 0.945962 0.213835 0.280395
Si Si5 0.513755 0.440003 0.010467
Si Si6 0.524822 0.283452 0.159368
Si Si7 0.847394 0.664259 0.549711
O O1 0.626847 0.898989 0.363729
O O2 0.410125 0.939374 0.448856
O O3 0.125489 0.921146 0.366090
O O4 0.500000 0.000000 0.367545
O O5 0.923835 0.846424 0.427705
O O6 0.986692 0.831123 0.323252
O O7 0.289558 0.591532 0.505104
O O8 0.565044 0.679675 0.528125
O O9 0.067988 0.679386 0.505233
O O10 0.659961 0.239226 0.286660
O O11 0.973384 0.193060 0.218757
O O12 0.500000 0.500000 0.029286
O O13 0.353508 0.399711 0.047337
O O14 0.827426 0.266949 0.156813
O O15 0.438164 0.316705 0.107710
#
# Coordination Sequence:
#
# PCOD9365786 Si02
#       7
#     8   8   8   8   8   8   8
#     4  10  19  31  53  80 110 144 177 204 255 319
#     4  11  18  35  53  77 114 136 171 226 258 308
#     4   9  18  30  49  75 108 130 166 199 259 310
#     4  10  22  38  57  79  98 138 187 220 262 315
#     4   8  17  29  49  75 106 138 166 201 240 309
#     4  10  21  38  57  74  97 133 185 221 252 306
#     4  10  18  33  50  75 105 132 170 210 255 302
#
# _framework density 17.526419000000001
#
# number of rings (size 3 to 8) (size 9 to 14) (size 15 to 20)
#    0.857    1.429    1.429    2.143    0.000    0.571 
#    0.000    4.286    0.000    1.714    0.000    0.000 
#    0.000    0.000    0.000    0.000    0.000    0.000 
#
# Total GULP energy -155876.430691 kJ/mol
# GULP energy per Si atom -5567.015382 kJ/mol
# Density = 1.748653 g / cm^3
# Si number density = 17.526419 Si / 1000 Ang^3
#
#
#
# Elastic Constant Matrix: (Units=GPa)
#
#
# Indices 1 2 3 4 5 6 
#
# 1 65.0168 -10.7981 1.5419 0.0000 0.0000 0.0000
# 2 -10.7981 28.5260 25.3798 0.0000 0.0000 0.0000
# 3 1.5419 25.3798 74.5787 0.0000 0.0000 0.0000
# 4 0.0000 0.0000 0.0000 -30.5863 0.0000 0.0000
# 5 0.0000 0.0000 0.0000 0.0000 14.9651 0.0000
# 6 0.0000 0.0000 0.0000 0.0000 0.0000 18.1879
#
#
#
# Elastic Compliance Matrix: (Units=1/GPa)
#
#
# Indices 1 2 3 4 5 6 
#
# 1 0.017083 0.009725 -0.003663 0.000000 0.000000 0.000000
# 2 0.009725 0.055815 -0.019196 0.000000 0.000000 0.000000
# 3 -0.003663 -0.019196 0.020017 0.000000 0.000000 0.000000
# 4 0.000000 0.000000 0.000000 -0.032694 0.000000 0.000000
# 5 0.000000 0.000000 0.000000 0.000000 0.066822 0.000000
# 6 0.000000 0.000000 0.000000 0.000000 0.000000 0.054982
#
#
# Mechanical properties :
#
#
# Convention : Reuss Voigt Hill
#
# Bulk Modulus (GPa) = 15.00406 22.26319 18.63363
# Shear Modulus (GPa) = 21.69135 10.64654 16.16895
#
# Velocity S-wave (km/s) = 3.52182 2.46734 3.04064
# Velocity P-wave (km/s) = 5.01169 4.56588 4.79397
#
# Compressibility (1/GPa) = 0.06664863
#
# Stress axis : x y z
#
# Youngs Moduli (GPa) = 58.53885 17.91619 49.95799
#
# Poissons Ratio (x) = -0.17424 0.18298
# Poissons Ratio (y) = -0.56930 0.95897
# Poissons Ratio (z) = 0.21441 0.34391
#
# Static dielectric constant tensor:
#      x y z
#    x 1.635220 0.000000 0.000000 
#    y 0.000000 1.616090 0.000000 
#    z 0.000000 0.000000 1.576460 
# 
# From -- ./inp_files/11890.got.cif
#   From: 2010.05.17/outbox.cif.g08.bks.cpg/sg41_6_cif.got.tgz:11890.got - 2010.06.03 18:54:24.
