data_PCOD9365943
_publ_section_title
;
Structure prediction by ZEFSAII (Michael W. Deem and Ramdas Pophale) SiO2 
 PCOD9365943
Probable space group: A B A 2
;
_chemical_formula_sum "Si O2"
_cell_formula_units_Z 56
_cell_length_a 13.232514
_cell_length_b 12.222121
_cell_length_c 15.415469
_cell_angle_alpha 90.000000
_cell_angle_beta 90.000000
_cell_angle_gamma 90.000000
_cell_volume 2493.134355
_symmetry_space_group_name_H-M "A B A 2"
_symmetry_group_IT_number 41
_symmetry_cell_setting 'orthorhombic'
loop_
_space_group_symop_operation_xyz
x,y,z
-x,-y,z
1/2-x,y,1/2+z
1/2+x,-y,1/2+z
x,1/2+y,1/2+z
-x,1/2-y,1/2+z
1/2-x,1/2+y,z
1/2+x,1/2-y,z
loop_
_atom_site_type_symbol
_atom_site_label
_atom_site_fract_x
_atom_site_fract_y
_atom_site_fract_z
Si Si1 0.757063 0.571718 0.383860
Si Si2 0.631839 0.755784 0.647868
Si Si3 0.682212 0.613430 0.121295
Si Si4 0.600871 0.467623 0.257796
Si Si5 0.619208 0.246983 0.453196
Si Si6 0.942537 0.615936 0.000592
Si Si7 0.281643 0.583796 0.014553
O O1 0.701414 0.508037 0.307222
O O2 0.828610 0.677353 0.376462
O O3 0.665076 0.606207 0.449925
O O4 0.825342 0.483018 0.434404
O O5 0.740200 0.697497 0.665217
O O6 0.604596 0.843108 0.723002
O O7 0.565233 0.662042 0.600473
O O8 0.648287 0.832833 0.563756
O O9 0.598691 0.557148 0.180281
O O10 0.631386 0.673265 0.039836
O O11 0.743795 0.507173 0.087083
O O12 0.500000 0.500000 0.310093
O O13 0.508679 0.296004 0.446349
O O14 0.688521 0.351113 0.475324
O O15 0.000000 0.500000 0.003840
#
# Coordination Sequence:
#
# PCOD9365943 Si02
#       7
#     8   8   8   8   8   8   8
#     4  11  22  38  56  92 127 163 216 267 322 394
#     4  10  20  38  63  94 122 166 213 268 329 383
#     4   9  18  37  57  85 118 161 208 259 321 387
#     4  11  24  38  56  88 132 166 212 267 334 401
#     4  10  19  34  62  87 118 163 213 262 319 366
#     4  12  20  35  66  98 120 159 225 276 317 387
#     4   9  16  35  60  83 120 154 209 259 307 376
#
# _framework density 22.461686
#
# number of rings (size 3 to 8) (size 9 to 14) (size 15 to 20)
#    0.000    1.714    5.714    1.286    0.000    1.143 
#    0.000    0.000    0.000    0.000    0.000    0.000 
#    0.000    0.000    0.000    0.000    0.000    0.000 
#
# Total GULP energy -155888.523603 kJ/mol
# GULP energy per Si atom -5567.447272 kJ/mol
# Density = 2.241056 g / cm^3
# Si number density = 22.461686 Si / 1000 Ang^3
#
#
#
# Elastic Constant Matrix: (Units=GPa)
#
#
# Indices 1 2 3 4 5 6 
#
# 1 54.1281 32.7150 7.5772 0.0000 0.0000 0.0000
# 2 32.7150 131.1554 33.1985 0.0000 0.0000 0.0000
# 3 7.5772 33.1985 47.5419 0.0000 0.0000 0.0000
# 4 0.0000 0.0000 0.0000 41.1882 0.0000 0.0000
# 5 0.0000 0.0000 0.0000 0.0000 21.1331 0.0000
# 6 0.0000 0.0000 0.0000 0.0000 0.0000 34.6372
#
#
#
# Elastic Compliance Matrix: (Units=1/GPa)
#
#
# Indices 1 2 3 4 5 6 
#
# 1 0.021760 -0.005527 0.000391 0.000000 0.000000 0.000000
# 2 -0.005527 0.010665 -0.006567 0.000000 0.000000 0.000000
# 3 0.000391 -0.006567 0.025557 0.000000 0.000000 0.000000
# 4 0.000000 0.000000 0.000000 0.024279 0.000000 0.000000
# 5 0.000000 0.000000 0.000000 0.000000 0.047319 0.000000
# 6 0.000000 0.000000 0.000000 0.000000 0.000000 0.028871
#
#
# Mechanical properties :
#
#
# Convention : Reuss Voigt Hill
#
# Bulk Modulus (GPa) = 28.91985 42.20075 35.56030
# Shear Modulus (GPa) = 25.85551 30.01402 27.93476
#
# Velocity S-wave (km/s) = 3.39646 3.65942 3.53039
# Velocity P-wave (km/s) = 5.31831 6.05671 5.69948
#
# Compressibility (1/GPa) = 0.03457833
#
# Stress axis : x y z
#
# Youngs Moduli (GPa) = 45.95505 93.76152 39.12776
#
# Poissons Ratio (x) = 0.51821 -0.01531
# Poissons Ratio (y) = 0.25399 0.25694
# Poissons Ratio (z) = -0.01798 0.61571
#
# Static dielectric constant tensor:
#      x y z
#    x 1.930160 0.000000 0.000000 
#    y 0.000000 1.890370 0.000000 
#    z 0.000000 0.000000 1.931860 
# 
# From -- ./inp_files/8391.got.cif
#   From: 2010.05.17/outbox.cif.g08.bks.cpg/sg41_5_cif.got.tgz:8391.got - 2010.06.03 18:54:24.
