data_PCOD9365311
_publ_section_title
;
Structure prediction by ZEFSAII (Michael W. Deem and Ramdas Pophale) SiO2 
 PCOD9365311
Probable space group: A M A 2
;
_chemical_formula_sum "Si O2"
_cell_formula_units_Z 40
_cell_length_a 7.966796
_cell_length_b 19.093358
_cell_length_c 11.067673
_cell_angle_alpha 90.000000
_cell_angle_beta 90.000000
_cell_angle_gamma 90.000000
_cell_volume 1683.535705
_symmetry_space_group_name_H-M "A M A 2"
_symmetry_group_IT_number 40
_symmetry_cell_setting 'orthorhombic'
loop_
_space_group_symop_operation_xyz
x,y,z
-x,-y,z
1/2-x,y,z
1/2+x,-y,z
x,1/2+y,1/2+z
-x,1/2-y,1/2+z
1/2-x,1/2+y,1/2+z
1/2+x,1/2-y,1/2+z
loop_
_atom_site_type_symbol
_atom_site_label
_atom_site_fract_x
_atom_site_fract_y
_atom_site_fract_z
Si Si1 0.452490 0.080482 0.272690
Si Si2 0.057365 0.222284 0.886760
Si Si3 0.444102 0.918817 0.803648
Si Si4 0.448139 0.210547 0.141302
Si Si5 0.048784 0.081885 0.537960
O O1 0.250000 0.083669 0.274500
O O2 0.517014 0.133311 0.171652
O O3 0.507801 0.107539 0.405939
O O4 0.500000 0.000000 0.255251
O O5 0.250000 0.244888 0.874868
O O6 0.046795 0.137484 0.880349
O O7 0.967035 0.249179 0.766987
O O8 0.981062 0.242585 0.017413
O O9 0.250000 0.914075 0.836447
O O10 0.466315 0.895481 0.663017
O O11 0.500000 0.000000 0.813297
O O12 0.250000 0.204662 0.116008
O O13 0.250000 0.089187 0.549984
O O14 0.000000 0.000000 0.531081
#
# Coordination Sequence:
#
# PCOD9365311 Si02
#       5
#     8   8   8   8   8
#     4   9  19  36  60  90 126 162 204 258 313 372
#     4  11  25  44  66  93 127 169 216 265 321 385
#     4  11  22  38  62  92 128 166 211 264 317 378
#     4  10  24  45  65  93 129 168 214 264 320 384
#     4   9  16  29  52  86 122 161 201 247 306 367
#
# _framework density 23.759520999999999
#
# number of rings (size 3 to 8) (size 9 to 14) (size 15 to 20)
#    0.000    2.000    0.000    4.200    2.800    4.000 
#    0.000    2.000    0.000    0.000    0.000    0.000 
#    0.000    0.000    0.000    0.000    0.000    0.000 
#
# Total GULP energy -111719.828684 kJ/mol
# GULP energy per Si atom -5585.991434 kJ/mol
# Density = 2.370544 g / cm^3
# Si number density = 23.759521 Si / 1000 Ang^3
#
#
#
# Elastic Constant Matrix: (Units=GPa)
#
#
# Indices 1 2 3 4 5 6 
#
# 1 57.6436 -10.5927 -7.5468 0.0000 0.0000 0.0000
# 2 -10.5927 83.9095 38.4991 0.0000 0.0000 0.0000
# 3 -7.5468 38.4991 143.0759 0.0000 0.0000 0.0000
# 4 0.0000 0.0000 0.0000 40.9142 0.0000 0.0000
# 5 0.0000 0.0000 0.0000 0.0000 20.4228 0.0000
# 6 0.0000 0.0000 0.0000 0.0000 0.0000 28.5994
#
#
#
# Elastic Compliance Matrix: (Units=1/GPa)
#
#
# Indices 1 2 3 4 5 6 
#
# 1 0.017778 0.002070 0.000381 0.000000 0.000000 0.000000
# 2 0.002070 0.013837 -0.003614 0.000000 0.000000 0.000000
# 3 0.000381 -0.003614 0.007982 0.000000 0.000000 0.000000
# 4 0.000000 0.000000 0.000000 0.024441 0.000000 0.000000
# 5 0.000000 0.000000 0.000000 0.000000 0.048965 0.000000
# 6 0.000000 0.000000 0.000000 0.000000 0.000000 0.034966
#
#
# Mechanical properties :
#
#
# Convention : Reuss Voigt Hill
#
# Bulk Modulus (GPa) = 26.83145 36.14979 31.49062
# Shear Modulus (GPa) = 30.72766 35.60523 33.16644
#
# Velocity S-wave (km/s) = 3.60012 3.87533 3.74026
# Velocity P-wave (km/s) = 5.34776 5.93904 5.65114
#
# Compressibility (1/GPa) = 0.03726969
#
# Stress axis : x y z
#
# Youngs Moduli (GPa) = 56.24879 72.26949 125.28369
#
# Poissons Ratio (x) = -0.14957 -0.04772
# Poissons Ratio (y) = -0.11641 0.45279
# Poissons Ratio (z) = -0.02142 0.26119
#
# Static dielectric constant tensor:
#      x y z
#    x 1.816990 0.000000 0.000000 
#    y 0.000000 1.901230 0.000000 
#    z 0.000000 0.000000 1.954870 
# 
# From -- ./inp_files/10023.got.cif
#   From: 2010.05.17/outbox.cif.g08.bks.cpg/sg40_6_cif.got.tgz:10023.got - 2010.06.03 18:35:42.
