data_PCOD9365664
_publ_section_title
;
Structure prediction by ZEFSAII (Michael W. Deem and Ramdas Pophale) SiO2 
 PCOD9365664
Probable space group: A M A 2
;
_chemical_formula_sum "Si O2"
_cell_formula_units_Z 32
_cell_length_a 9.000000
_cell_length_b 21.000000
_cell_length_c 21.000000
_cell_angle_alpha 90.000000
_cell_angle_beta 90.000000
_cell_angle_gamma 90.000000
_cell_volume 3969.000000
_symmetry_space_group_name_H-M "A M A 2"
_symmetry_group_IT_number 40
_symmetry_cell_setting 'orthorhombic'
loop_
_space_group_symop_operation_xyz
x,y,z
-x,-y,z
1/2-x,y,z
1/2+x,-y,z
x,1/2+y,1/2+z
-x,1/2-y,1/2+z
1/2-x,1/2+y,1/2+z
1/2+x,1/2-y,1/2+z
loop_
_atom_site_type_symbol
_atom_site_label
_atom_site_fract_x
_atom_site_fract_y
_atom_site_fract_z
Si Si1 0.428312 0.568297 0.539910
Si Si2 0.432399 0.206449 0.628623
Si Si3 0.568225 0.292229 0.744400
Si Si4 0.070651 0.214726 0.008996
Si Si5 0.067560 0.568316 0.943141
Si Si6 0.930374 0.196959 0.383958
Si Si7 0.066354 0.930023 0.586553
Si Si8 0.927496 0.933169 0.190829
O O1 0.500000 0.500000 0.518235
O O2 0.250000 0.562031 0.533016
O O3 0.468749 0.638372 0.510175
O O4 0.463768 0.573814 0.615490
O O5 0.250000 0.203497 0.630051
O O6 0.496765 0.244432 0.691061
O O7 0.487954 0.247230 0.566424
O O8 0.502702 0.134266 0.621589
O O9 0.750000 0.285600 0.744350
O O10 0.500065 0.282610 0.815489
O O11 0.532874 0.366082 0.724447
O O12 0.250000 0.218211 0.020848
O O13 0.042318 0.251869 0.941840
O O14 0.250000 0.566707 0.944398
O O15 0.000000 0.500000 0.919966
O O16 0.007112 0.629546 0.904092
O O17 0.998425 0.575896 0.014399
O O18 0.750000 0.189702 0.378890
O O19 0.250000 0.930837 0.586985
O O20 0.000000 0.000000 0.608726
O O21 0.750000 0.940130 0.196553
O O22 0.000000 0.000000 0.213393
#
# Coordination Sequence:
#
# PCOD9365664 Si02
#       8
#     8   8   8   8   8   8   8   8
#     4   9  17  32  53  81 110 142 179 223 277 330
#     4  12  23  36  59  88 114 146 193 239 285 342
#     4  11  23  40  57  78 114 155 193 238 289 341
#     4  10  20  37  59  81 113 150 186 231 288 340
#     4  11  21  35  55  82 114 153 195 235 281 337
#     4  11  23  38  57  82 113 152 193 238 290 343
#     4  11  21  36  58  86 118 150 186 234 288 339
#     4   9  18  32  52  76 107 146 184 224 274 329
#
# _framework density 8.0624839999999995
#
# number of rings (size 3 to 8) (size 9 to 14) (size 15 to 20)
#    0.000    1.500    2.500    4.875    0.000    2.500 
#    0.000    1.250    0.000    0.750    0.000    3.500 
#    0.000    0.000    0.000    0.000    0.000    0.000 
#
# Total GULP energy -178428.379325 kJ/mol
# GULP energy per Si atom -5575.886854 kJ/mol
# Density = 0.804413 g / cm^3
# Si number density = 8.062484 Si / 1000 Ang^3
#
#
#
# Elastic Constant Matrix: (Units=GPa)
#
#
# Indices 1 2 3 4 5 6 
#
# 1 127.7169 58.1180 44.0131 0.0000 0.0000 0.0000
# 2 58.1180 168.7036 62.2942 0.0000 0.0000 0.0000
# 3 44.0131 62.2942 105.6885 0.0000 0.0000 0.0000
# 4 0.0000 0.0000 0.0000 33.3278 0.0000 0.0000
# 5 0.0000 0.0000 0.0000 0.0000 28.4534 0.0000
# 6 0.0000 0.0000 0.0000 0.0000 0.0000 38.3995
#
#
#
# Elastic Compliance Matrix: (Units=1/GPa)
#
#
# Indices 1 2 3 4 5 6 
#
# 1 0.009848 -0.002401 -0.002686 0.000000 0.000000 0.000000
# 2 -0.002401 0.008162 -0.003811 0.000000 0.000000 0.000000
# 3 -0.002686 -0.003811 0.012827 0.000000 0.000000 0.000000
# 4 0.000000 0.000000 0.000000 0.030005 0.000000 0.000000
# 5 0.000000 0.000000 0.000000 0.000000 0.035145 0.000000
# 6 0.000000 0.000000 0.000000 0.000000 0.000000 0.026042
#
#
# Mechanical properties :
#
#
# Convention : Reuss Voigt Hill
#
# Bulk Modulus (GPa) = 76.68202 81.21772 78.94987
# Shear Modulus (GPa) = 34.68110 35.88174 35.28142
#
# Velocity S-wave (km/s) = 4.64267 4.72235 4.68268
# Velocity P-wave (km/s) = 8.74055 8.95607 8.84897
#
# Compressibility (1/GPa) = 0.01304087
#
# Stress axis : x y z
#
# Youngs Moduli (GPa) = 101.54406 122.52212 77.96331
#
# Poissons Ratio (x) = 0.29415 0.20941
# Poissons Ratio (y) = 0.24378 0.29711
# Poissons Ratio (z) = 0.27275 0.46692
#
# Static dielectric constant tensor:
#      x y z
#    x 1.551310 0.000000 0.000000 
#    y 0.000000 1.562490 0.000000 
#    z 0.000000 0.000000 1.542110 
# 
# From -- ./inp_files/19648.got.cif
#   From: 2010.05.17/outbox.ucp.g08.bks.cvg/sg40_10_cif.got.tgz:19648.got - 2010.06.11 16:26:39.
