data_PCOD9365405
_publ_section_title
;
Structure prediction by ZEFSAII (Michael W. Deem and Ramdas Pophale) SiO2 
 PCOD9365405
Probable space group: A M A 2
;
_chemical_formula_sum "Si O2"
_cell_formula_units_Z 64
_cell_length_a 8.284895
_cell_length_b 31.719895
_cell_length_c 12.247769
_cell_angle_alpha 90.000000
_cell_angle_beta 90.000000
_cell_angle_gamma 90.000000
_cell_volume 3218.664696
_symmetry_space_group_name_H-M "A M A 2"
_symmetry_group_IT_number 40
_symmetry_cell_setting 'orthorhombic'
loop_
_space_group_symop_operation_xyz
x,y,z
-x,-y,z
1/2-x,y,z
1/2+x,-y,z
x,1/2+y,1/2+z
-x,1/2-y,1/2+z
1/2-x,1/2+y,1/2+z
1/2+x,1/2-y,1/2+z
loop_
_atom_site_type_symbol
_atom_site_label
_atom_site_fract_x
_atom_site_fract_y
_atom_site_fract_z
Si Si1 0.940576 0.545274 0.398100
Si Si2 0.056161 0.545379 0.877520
Si Si3 0.938982 0.433276 0.635731
Si Si4 0.947464 0.126531 0.763933
Si Si5 0.058864 0.839074 0.135679
Si Si6 0.056950 0.701069 0.857576
Si Si7 0.446322 0.795488 0.911431
Si Si8 0.443496 0.373233 0.011722
O O1 0.750000 0.546130 0.385834
O O2 0.005357 0.585820 0.332241
O O3 0.000000 0.500000 0.357850
O O4 0.980216 0.549854 0.526131
O O5 0.250000 0.547551 0.876521
O O6 0.997260 0.549937 0.751760
O O7 0.000000 0.500000 0.920099
O O8 0.991954 0.584467 0.947430
O O9 0.750000 0.443407 0.628857
O O10 0.965607 0.383110 0.637950
O O11 0.750000 0.126251 0.766633
O O12 0.999451 0.169561 0.823582
O O13 0.996275 0.124675 0.637833
O O14 0.250000 0.848512 0.124962
O O15 0.025709 0.814525 0.246805
O O16 0.007384 0.811948 0.031034
O O17 0.250000 0.701728 0.840874
O O18 0.000190 0.748042 0.887860
O O19 0.017129 0.667080 0.950677
O O20 0.250000 0.794804 0.909063
O O21 0.250000 0.369306 0.008762
#
# Coordination Sequence:
#
# PCOD9365405 Si02
#       8
#     8   8   8   8   8   8   8   8
#     4  11  22  39  63  89 123 158 201 250 303 362
#     4  11  24  41  62  88 123 157 199 249 304 358
#     4  11  22  38  61  92 126 157 197 248 305 358
#     4   9  20  40  62  86 116 159 204 252 302 354
#     4  11  21  38  65  91 121 161 204 248 302 360
#     4  11  23  39  61  90 127 161 199 252 305 356
#     4   9  20  39  62  88 121 160 199 247 305 355
#     4  11  23  40  64  88 119 160 208 250 299 362
#
# _framework density 19.884021000000001
#
# number of rings (size 3 to 8) (size 9 to 14) (size 15 to 20)
#    0.000    1.500    2.500    2.625    1.750    3.000 
#    0.000    5.625    0.000    0.000    0.000    0.000 
#    0.000    0.000    0.000    0.000    0.000    0.000 
#
# Total GULP energy -178862.004591 kJ/mol
# GULP energy per Si atom -5589.437643 kJ/mol
# Density = 1.983876 g / cm^3
# Si number density = 19.884021 Si / 1000 Ang^3
#
#
#
# Elastic Constant Matrix: (Units=GPa)
#
#
# Indices 1 2 3 4 5 6 
#
# 1 18.1168 -5.1218 -0.6397 0.0000 0.0000 0.0000
# 2 -5.1218 167.6252 61.5074 0.0000 0.0000 0.0000
# 3 -0.6397 61.5074 127.8190 0.0000 0.0000 0.0000
# 4 0.0000 0.0000 0.0000 37.1775 0.0000 0.0000
# 5 0.0000 0.0000 0.0000 0.0000 -134.4271 0.0000
# 6 0.0000 0.0000 0.0000 0.0000 0.0000 25.1483
#
#
#
# Elastic Compliance Matrix: (Units=1/GPa)
#
#
# Indices 1 2 3 4 5 6 
#
# 1 0.055724 0.001943 -0.000656 0.000000 0.000000 0.000000
# 2 0.001943 0.007313 -0.003509 0.000000 0.000000 0.000000
# 3 -0.000656 -0.003509 0.009509 0.000000 0.000000 0.000000
# 4 0.000000 0.000000 0.000000 0.026898 0.000000 0.000000
# 5 0.000000 0.000000 0.000000 0.000000 -0.007439 0.000000
# 6 0.000000 0.000000 0.000000 0.000000 0.000000 0.039764
#
#
# Mechanical properties :
#
#
# Convention : Reuss Voigt Hill
#
# Bulk Modulus (GPa) = 14.68407 47.22811 30.95609
# Shear Modulus (GPa) = 31.46380 2.76742 17.11561
#
# Velocity S-wave (km/s) = 3.98221 1.18102 2.93707
# Velocity P-wave (km/s) = 5.34274 5.06587 5.20615
#
# Compressibility (1/GPa) = 0.06810101
#
# Stress axis : x y z
#
# Youngs Moduli (GPa) = 17.94574 136.74800 105.16427
#
# Poissons Ratio (x) = -0.26576 0.06902
# Poissons Ratio (y) = -0.03488 0.36904
# Poissons Ratio (z) = 0.01178 0.47988
#
# Static dielectric constant tensor:
#      x y z
#    x 1.719860 0.000000 0.000000 
#    y 0.000000 1.679730 0.000000 
#    z 0.000000 0.000000 1.679970 
# 
# From -- ./inp_files/10643.got.cif
#   From: 2010.05.17/outbox.cif.g08.bks.cpg/sg40_6_cif.got.tgz:10643.got - 2010.06.03 18:35:42.
