data_PCOD9365209
_publ_section_title
;
Structure prediction by ZEFSAII (Michael W. Deem and Ramdas Pophale) SiO2 
 PCOD9365209
Probable space group: A M A 2
;
_chemical_formula_sum "Si O2"
_cell_formula_units_Z 32
_cell_length_a 23.192560
_cell_length_b 7.075875
_cell_length_c 7.741051
_cell_angle_alpha 90.000000
_cell_angle_beta 90.000000
_cell_angle_gamma 90.000000
_cell_volume 1270.365731
_symmetry_space_group_name_H-M "A M A 2"
_symmetry_group_IT_number 40
_symmetry_cell_setting 'orthorhombic'
loop_
_space_group_symop_operation_xyz
x,y,z
-x,-y,z
1/2-x,y,z
1/2+x,-y,z
x,1/2+y,1/2+z
-x,1/2-y,1/2+z
1/2-x,1/2+y,1/2+z
1/2+x,1/2-y,1/2+z
loop_
_atom_site_type_symbol
_atom_site_label
_atom_site_fract_x
_atom_site_fract_y
_atom_site_fract_z
Si Si1 0.477928 0.282649 0.635270
Si Si2 0.633087 0.624961 0.473180
Si Si3 0.183448 0.012613 0.607313
Si Si4 0.090466 0.769646 0.481567
O O1 0.500000 0.500000 0.654496
O O2 0.431042 0.282182 0.480157
O O3 0.536224 0.169817 0.597306
O O4 0.441055 0.225839 0.801346
O O5 0.660549 0.573445 0.288340
O O6 0.620637 0.419022 0.552950
O O7 0.673483 0.763881 0.582419
O O8 0.250000 0.965326 0.584309
O O9 0.140709 0.920344 0.467995
#
# Coordination Sequence:
#
# PCOD9365209 Si02
#       4
#     8   8   8   8
#     4  10  23  42  75 113 144 193 247 322 410 481
#     4  11  25  49  70 105 146 196 250 319 389 466
#     4  12  28  46  72 104 147 207 266 317 385 471
#     4  11  25  46  74 108 154 191 250 322 402 471
#
# _framework density 25.189594
#
# number of rings (size 3 to 8) (size 9 to 14) (size 15 to 20)
#    0.000    1.000    2.500    2.250   10.500    2.000 
#    0.000    0.000    0.000    0.000    0.000    0.000 
#    0.000    0.000    0.000    0.000    0.000    0.000 
#
# Total GULP energy -89528.114646 kJ/mol
# GULP energy per Si atom -5595.507165 kJ/mol
# Density = 2.513226 g / cm^3
# Si number density = 25.189594 Si / 1000 Ang^3
#
#
#
# Elastic Constant Matrix: (Units=GPa)
#
#
# Indices 1 2 3 4 5 6 
#
# 1 206.7339 79.6097 54.5566 0.0000 0.0000 0.0000
# 2 79.6097 97.7065 33.0020 0.0000 0.0000 0.0000
# 3 54.5566 33.0020 130.8841 0.0000 0.0000 0.0000
# 4 0.0000 0.0000 0.0000 35.8245 0.0000 0.0000
# 5 0.0000 0.0000 0.0000 0.0000 30.3641 0.0000
# 6 0.0000 0.0000 0.0000 0.0000 0.0000 41.2174
#
#
#
# Elastic Compliance Matrix: (Units=1/GPa)
#
#
# Indices 1 2 3 4 5 6 
#
# 1 0.007381 -0.005438 -0.001706 0.000000 0.000000 0.000000
# 2 -0.005438 0.015194 -0.001564 0.000000 0.000000 0.000000
# 3 -0.001706 -0.001564 0.008746 0.000000 0.000000 0.000000
# 4 0.000000 0.000000 0.000000 0.027914 0.000000 0.000000
# 5 0.000000 0.000000 0.000000 0.000000 0.032934 0.000000
# 6 0.000000 0.000000 0.000000 0.000000 0.000000 0.024262
#
#
# Mechanical properties :
#
#
# Convention : Reuss Voigt Hill
#
# Bulk Modulus (GPa) = 71.91650 85.51790 78.71720
# Shear Modulus (GPa) = 36.10596 39.35828 37.73212
#
# Velocity S-wave (km/s) = 3.79009 3.95711 3.87450
# Velocity P-wave (km/s) = 6.91123 7.40957 7.16473
#
# Compressibility (1/GPa) = 0.01390501
#
# Stress axis : x y z
#
# Youngs Moduli (GPa) = 135.47627 65.81540 114.34158
#
# Poissons Ratio (x) = 0.35791 0.19502
# Poissons Ratio (y) = 0.73674 0.17887
# Poissons Ratio (z) = 0.23107 0.10296
#
# Static dielectric constant tensor:
#      x y z
#    x 1.920230 0.000000 0.000000 
#    y 0.000000 2.074710 0.000000 
#    z 0.000000 0.000000 2.077690 
# 
# From -- ./inp_files/8582.got.cif
#   From: 2010.05.17/outbox.cif.g08.bks.cpg/sg40_5_cif.got.tgz:8582.got - 2010.06.03 18:35:42.
