data_PCOD9365967
_publ_section_title
;
Structure prediction by ZEFSAII (Michael W. Deem and Ramdas Pophale) SiO2 
 PCOD9365967
Probable space group: A B A 2
;
_chemical_formula_sum "Si O2"
_cell_formula_units_Z 60
_cell_length_a 29.864060
_cell_length_b 8.061721
_cell_length_c 12.314678
_cell_angle_alpha 90.000000
_cell_angle_beta 90.000000
_cell_angle_gamma 90.000000
_cell_volume 2964.829164
_symmetry_space_group_name_H-M "A B A 2"
_symmetry_group_IT_number 41
_symmetry_cell_setting 'orthorhombic'
loop_
_space_group_symop_operation_xyz
x,y,z
-x,-y,z
1/2-x,y,1/2+z
1/2+x,-y,1/2+z
x,1/2+y,1/2+z
-x,1/2-y,1/2+z
1/2-x,1/2+y,z
1/2+x,1/2-y,z
loop_
_atom_site_type_symbol
_atom_site_label
_atom_site_fract_x
_atom_site_fract_y
_atom_site_fract_z
Si Si1 0.500000 0.500000 0.504050
Si Si2 0.910142 0.102385 0.541789
Si Si3 0.494972 0.191799 0.336528
Si Si4 0.194911 0.309731 0.816823
Si Si5 0.904208 0.163070 0.292490
Si Si6 0.809369 0.596184 0.069836
Si Si7 0.761567 0.892481 0.191992
Si Si8 0.454656 0.603050 0.153374
O O1 0.545926 0.496429 0.570762
O O2 0.499856 0.333477 0.430253
O O3 0.904451 0.079496 0.412353
O O4 0.861993 0.065074 0.592230
O O5 0.926708 0.290219 0.566653
O O6 0.444221 0.207334 0.295199
O O7 0.527665 0.264112 0.243133
O O8 0.500000 0.000000 0.367253
O O9 0.144788 0.261410 0.782001
O O10 0.231972 0.172507 0.792503
O O11 0.208725 0.459360 0.737490
O O12 0.195047 0.361521 0.942484
O O13 0.920110 0.025312 0.207385
O O14 0.792491 0.751812 0.140609
O O15 0.775239 0.451838 0.104229
O O16 0.500000 0.500000 0.121859
#
# Coordination Sequence:
#
# PCOD9365967 Si02
#       8
#     4   8   8   8   8   8   8   8
#     4  10  20  42  56  84 128 158 206 252 300 354
#     4  10  20  34  60  82 116 163 193 243 305 357
#     4  10  19  35  61  81 118 166 197 249 300 349
#     4  10  20  37  62  81 119 158 184 248 310 342
#     4   9  19  38  56  81 119 156 198 251 299 353
#     4  10  21  38  60  87 119 148 201 244 299 367
#     4  10  21  37  60  89 113 151 199 246 297 370
#     4  10  19  36  56  84 118 159 205 246 298 353
#
# _framework density 20.237255000000001
#
# number of rings (size 3 to 8) (size 9 to 14) (size 15 to 20)
#    0.000    2.133    3.333    1.600    0.933    3.200 
#    2.400    0.000   20.533    0.000    0.000    0.000 
#    0.000    0.000    0.000    0.000    0.000    0.000 
#
# Total GULP energy -167251.980613 kJ/mol
# GULP energy per Si atom -5575.066020 kJ/mol
# Density = 2.019119 g / cm^3
# Si number density = 20.237255 Si / 1000 Ang^3
#
#
#
# Elastic Constant Matrix: (Units=GPa)
#
#
# Indices 1 2 3 4 5 6 
#
# 1 110.2553 19.1349 20.6953 0.0000 0.0000 0.0000
# 2 19.1349 73.5229 6.9750 0.0000 0.0000 0.0000
# 3 20.6953 6.9750 55.6552 0.0000 0.0000 0.0000
# 4 0.0000 0.0000 0.0000 27.8272 0.0000 0.0000
# 5 0.0000 0.0000 0.0000 0.0000 -6.9482 0.0000
# 6 0.0000 0.0000 0.0000 0.0000 0.0000 11.6817
#
#
#
# Elastic Compliance Matrix: (Units=1/GPa)
#
#
# Indices 1 2 3 4 5 6 
#
# 1 0.010122 -0.002305 -0.003475 0.000000 0.000000 0.000000
# 2 -0.002305 0.014290 -0.000934 0.000000 0.000000 0.000000
# 3 -0.003475 -0.000934 0.019377 0.000000 0.000000 0.000000
# 4 0.000000 0.000000 0.000000 0.035936 0.000000 0.000000
# 5 0.000000 0.000000 0.000000 0.000000 -0.143923 0.000000
# 6 0.000000 0.000000 0.000000 0.000000 0.000000 0.085604
#
#
# Mechanical properties :
#
#
# Convention : Reuss Voigt Hill
#
# Bulk Modulus (GPa) = 32.93642 37.00487 34.97065
# Shear Modulus (GPa) = 111.22653 19.35402 65.29028
#
# Velocity S-wave (km/s) = 7.42163 3.09586 5.68616
# Velocity P-wave (km/s) = 9.47371 5.57712 7.77353
#
# Compressibility (1/GPa) = 0.03036152
#
# Stress axis : x y z
#
# Youngs Moduli (GPa) = 98.79353 69.98087 51.60759
#
# Poissons Ratio (x) = 0.16128 0.17934
# Poissons Ratio (y) = 0.22769 0.04819
# Poissons Ratio (z) = 0.34331 0.06535
#
# Static dielectric constant tensor:
#      x y z
#    x 1.731890 0.000000 0.000000 
#    y 0.000000 1.744980 0.000000 
#    z 0.000000 0.000000 1.782610 
# 
# From -- ./inp_files/6646.got.cif
#   From: 2010.05.17/outbox.cif.g08.bks.cpg/sg41_4_cif.got.tgz:6646.got - 2010.06.03 18:54:24.
