data_PCOD9365186
_publ_section_title
;
Structure prediction by ZEFSAII (Michael W. Deem and Ramdas Pophale) SiO2 
 PCOD9365186
Probable space group: A M A 2
;
_chemical_formula_sum "Si O2"
_cell_formula_units_Z 40
_cell_length_a 20.020315
_cell_length_b 5.386812
_cell_length_c 18.116196
_cell_angle_alpha 90.000000
_cell_angle_beta 90.000000
_cell_angle_gamma 90.000000
_cell_volume 1953.753351
_symmetry_space_group_name_H-M "A M A 2"
_symmetry_group_IT_number 40
_symmetry_cell_setting 'orthorhombic'
loop_
_space_group_symop_operation_xyz
x,y,z
-x,-y,z
1/2-x,y,z
1/2+x,-y,z
x,1/2+y,1/2+z
-x,1/2-y,1/2+z
1/2-x,1/2+y,1/2+z
1/2+x,1/2-y,1/2+z
loop_
_atom_site_type_symbol
_atom_site_label
_atom_site_fract_x
_atom_site_fract_y
_atom_site_fract_z
Si Si1 0.579735 0.047570 0.803610
Si Si2 0.070775 0.125226 0.179587
Si Si3 0.883986 0.049000 0.560718
Si Si4 0.674440 0.279256 0.185553
Si Si5 0.420030 0.960566 0.977027
O O1 0.629822 0.881120 0.754084
O O2 0.500000 0.000000 0.793916
O O3 0.587086 0.311239 0.763906
O O4 0.594316 0.045833 0.889712
O O5 0.066198 0.362502 0.126269
O O6 0.131778 0.952433 0.155514
O O7 0.000000 0.000000 0.174848
O O8 0.883141 0.295612 0.510212
O O9 0.824566 0.969152 0.616031
O O10 0.903128 0.806100 0.513600
O O11 0.750000 0.221396 0.207575
O O12 0.500000 0.000000 0.987024
#
# Coordination Sequence:
#
# PCOD9365186 Si02
#       5
#     8   8   8   8   8
#     4  10  23  41  68 103 137 177 226 283 341 408
#     4  11  22  39  72 101 138 177 235 282 338 397
#     4  11  24  42  65  99 136 177 226 274 341 400
#     4  11  25  45  70  99 137 183 231 281 341 408
#     4  11  24  39  69 104 141 173 221 285 346 402
#
# _framework density 20.473410999999999
#
# number of rings (size 3 to 8) (size 9 to 14) (size 15 to 20)
#    0.000    1.200    4.000    1.200    5.600    3.200 
#    0.000    2.000    0.000    0.000    0.000    0.000 
#    0.000    0.000    0.000    0.000    0.000    0.000 
#
# Total GULP energy -111366.022670 kJ/mol
# GULP energy per Si atom -5568.301134 kJ/mol
# Density = 2.042681 g / cm^3
# Si number density = 20.473411 Si / 1000 Ang^3
#
#
#
# Elastic Constant Matrix: (Units=GPa)
#
#
# Indices 1 2 3 4 5 6 
#
# 1 119.7932 57.2182 44.7197 0.0000 0.0000 0.0000
# 2 57.2182 130.7733 71.9066 0.0000 0.0000 0.0000
# 3 44.7197 71.9066 177.3745 0.0000 0.0000 0.0000
# 4 0.0000 0.0000 0.0000 54.4481 0.0000 0.0000
# 5 0.0000 0.0000 0.0000 0.0000 18.8104 0.0000
# 6 0.0000 0.0000 0.0000 0.0000 0.0000 10.3378
#
#
#
# Elastic Compliance Matrix: (Units=1/GPa)
#
#
# Indices 1 2 3 4 5 6 
#
# 1 0.010697 -0.004115 -0.001029 0.000000 0.000000 0.000000
# 2 -0.004115 0.011423 -0.003593 0.000000 0.000000 0.000000
# 3 -0.001029 -0.003593 0.007354 0.000000 0.000000 0.000000
# 4 0.000000 0.000000 0.000000 0.018366 0.000000 0.000000
# 5 0.000000 0.000000 0.000000 0.000000 0.053162 0.000000
# 6 0.000000 0.000000 0.000000 0.000000 0.000000 0.096732
#
#
# Mechanical properties :
#
#
# Convention : Reuss Voigt Hill
#
# Bulk Modulus (GPa) = 83.33250 86.18110 84.75680
# Shear Modulus (GPa) = 22.80935 33.65904 28.23420
#
# Velocity S-wave (km/s) = 3.34143 4.05907 3.71761
# Velocity P-wave (km/s) = 7.46177 8.00960 7.74053
#
# Compressibility (1/GPa) = 0.01200012
#
# Stress axis : x y z
#
# Youngs Moduli (GPa) = 93.48290 87.54260 135.98121
#
# Poissons Ratio (x) = 0.36021 0.13991
# Poissons Ratio (y) = 0.38465 0.48864
# Poissons Ratio (z) = 0.09619 0.31458
#
# Static dielectric constant tensor:
#      x y z
#    x 1.733700 0.000000 0.000000 
#    y 0.000000 1.825470 0.000000 
#    z 0.000000 0.000000 1.765800 
# 
# From -- ./inp_files/20906.got.cif
#   From: 2010.05.17/outbox.cif.g08.bks.cpg/sg40_11_cif.got.tgz:20906.got - 2010.06.03 18:35:42.
