data_PCOD9365451
_publ_section_title
;
Structure prediction by ZEFSAII (Michael W. Deem and Ramdas Pophale) SiO2 
 PCOD9365451
Probable space group: A M A 2
;
_chemical_formula_sum "Si O2"
_cell_formula_units_Z 32
_cell_length_a 18.240301
_cell_length_b 12.704081
_cell_length_c 5.959820
_cell_angle_alpha 90.000000
_cell_angle_beta 90.000000
_cell_angle_gamma 90.000000
_cell_volume 1381.046807
_symmetry_space_group_name_H-M "A M A 2"
_symmetry_group_IT_number 40
_symmetry_cell_setting 'orthorhombic'
loop_
_space_group_symop_operation_xyz
x,y,z
-x,-y,z
1/2-x,y,z
1/2+x,-y,z
x,1/2+y,1/2+z
-x,1/2-y,1/2+z
1/2-x,1/2+y,1/2+z
1/2+x,1/2-y,1/2+z
loop_
_atom_site_type_symbol
_atom_site_label
_atom_site_fract_x
_atom_site_fract_y
_atom_site_fract_z
Si Si1 0.426922 0.170005 0.945290
Si Si2 0.927523 0.126085 0.710669
Si Si3 0.911678 0.995555 0.315564
Si Si4 0.163438 0.299406 0.604787
O O1 0.501272 0.114432 0.864319
O O2 0.373891 0.203315 0.740629
O O3 0.452387 0.284687 0.034436
O O4 0.393743 0.102939 0.152799
O O5 0.901249 0.021302 0.582281
O O6 0.864043 0.182512 0.851937
O O7 0.866483 0.092705 0.214331
O O8 0.000000 0.000000 0.303791
O O9 0.250000 0.290495 0.619363
#
# Coordination Sequence:
#
# PCOD9365451 Si02
#       4
#     8   8   8   8
#     4  11  22  44  72 102 140 194 242 305 371 448
#     4  11  22  41  72 107 139 183 253 305 368 450
#     4  11  24  40  73 107 137 183 249 310 366 445
#     4  11  26  45  68 104 151 193 244 311 381 447
#
# _framework density 23.170829000000001
#
# number of rings (size 3 to 8) (size 9 to 14) (size 15 to 20)
#    0.000    1.000    5.000    1.500    3.500    5.000 
#    0.000    0.000    0.000    0.000    0.000    0.000 
#    0.000    0.000    0.000    0.000    0.000    0.000 
#
# Total GULP energy -89227.756820 kJ/mol
# GULP energy per Si atom -5576.734801 kJ/mol
# Density = 2.311809 g / cm^3
# Si number density = 23.170829 Si / 1000 Ang^3
#
#
#
# Elastic Constant Matrix: (Units=GPa)
#
#
# Indices 1 2 3 4 5 6 
#
# 1 127.0583 38.4586 40.7743 0.0000 0.0000 0.0000
# 2 38.4586 153.5269 60.2535 0.0000 0.0000 0.0000
# 3 40.7743 60.2535 120.6732 0.0000 0.0000 0.0000
# 4 0.0000 0.0000 0.0000 71.6200 0.0000 0.0000
# 5 0.0000 0.0000 0.0000 0.0000 18.1276 0.0000
# 6 0.0000 0.0000 0.0000 0.0000 0.0000 18.7154
#
#
#
# Elastic Compliance Matrix: (Units=1/GPa)
#
#
# Indices 1 2 3 4 5 6 
#
# 1 0.009039 -0.001325 -0.002393 0.000000 0.000000 0.000000
# 2 -0.001325 0.008295 -0.003694 0.000000 0.000000 0.000000
# 3 -0.002393 -0.003694 0.010940 0.000000 0.000000 0.000000
# 4 0.000000 0.000000 0.000000 0.013963 0.000000 0.000000
# 5 0.000000 0.000000 0.000000 0.000000 0.055165 0.000000
# 6 0.000000 0.000000 0.000000 0.000000 0.000000 0.053432
#
#
# Mechanical properties :
#
#
# Convention : Reuss Voigt Hill
#
# Bulk Modulus (GPa) = 74.34729 75.58125 74.96427
# Shear Modulus (GPa) = 29.38736 39.14406 34.26571
#
# Velocity S-wave (km/s) = 3.56517 4.11465 3.84973
# Velocity P-wave (km/s) = 7.00739 7.43396 7.22382
#
# Compressibility (1/GPa) = 0.01345039
#
# Stress axis : x y z
#
# Youngs Moduli (GPa) = 110.62723 120.54979 91.40954
#
# Poissons Ratio (x) = 0.15977 0.21870
# Poissons Ratio (y) = 0.14662 0.33768
# Poissons Ratio (z) = 0.26468 0.44533
#
# Static dielectric constant tensor:
#      x y z
#    x 1.767670 0.000000 0.000000 
#    y 0.000000 1.933790 0.000000 
#    z 0.000000 0.000000 2.097030 
# 
# From -- ./inp_files/1620.got.cif
#   From: 2010.05.17/outbox.cif.g08.bks.cpg/sg40_1_cif.got.tgz:1620.got - 2010.06.03 18:35:42.
