data_PCOD9365924
_publ_section_title
;
Structure prediction by ZEFSAII (Michael W. Deem and Ramdas Pophale) SiO2 
 PCOD9365924
Probable space group: A B A 2
;
_chemical_formula_sum "Si O2"
_cell_formula_units_Z 48
_cell_length_a 17.481729
_cell_length_b 14.126377
_cell_length_c 8.311048
_cell_angle_alpha 90.000000
_cell_angle_beta 90.000000
_cell_angle_gamma 90.000000
_cell_volume 2052.442346
_symmetry_space_group_name_H-M "A B A 2"
_symmetry_group_IT_number 41
_symmetry_cell_setting 'orthorhombic'
loop_
_space_group_symop_operation_xyz
x,y,z
-x,-y,z
1/2-x,y,1/2+z
1/2+x,-y,1/2+z
x,1/2+y,1/2+z
-x,1/2-y,1/2+z
1/2-x,1/2+y,z
1/2+x,1/2-y,z
loop_
_atom_site_type_symbol
_atom_site_label
_atom_site_fract_x
_atom_site_fract_y
_atom_site_fract_z
Si Si1 0.365153 0.107708 0.762160
Si Si2 0.064256 0.787625 0.869354
Si Si3 0.413320 0.720629 0.733760
Si Si4 0.795920 0.630873 0.190738
Si Si5 0.733185 0.333883 0.574784
Si Si6 0.142166 0.915206 0.368592
O O1 0.426151 0.191503 0.762932
O O2 0.308741 0.105997 0.610564
O O3 0.400340 0.006805 0.802034
O O4 0.307360 0.140117 0.907729
O O5 0.139936 0.844963 0.822450
O O6 0.984616 0.832088 0.813502
O O7 0.066469 0.757493 0.054406
O O8 0.335615 0.662005 0.705704
O O9 0.396283 0.813982 0.839876
O O10 0.765118 0.726161 0.098860
O O11 0.722419 0.587190 0.273408
O O12 0.837190 0.570783 0.054138
#
# Coordination Sequence:
#
# PCOD9365924 Si02
#       6
#     8   8   8   8   8   8
#     4  10  20  33  54  80 106 133 167 217 264 305
#     4  10  21  37  56  76 103 141 180 213 256 312
#     4  10  20  35  55  78 103 139 180 216 254 310
#     4  10  19  34  55  79 105 139 175 211 254 311
#     4   9  18  34  53  76 103 135 174 207 252 311
#     4  11  20  33  55  81 108 133 168 218 264 305
#
# _framework density 23.386773000000002
#
# number of rings (size 3 to 8) (size 9 to 14) (size 15 to 20)
#    0.000    2.000    0.000    7.000    0.000    2.000 
#    0.000    0.000    0.000    9.000    0.000    0.000 
#    0.000    0.000    0.000    0.000    0.000    0.000 
#
# Total GULP energy -134109.199838 kJ/mol
# GULP energy per Si atom -5587.883327 kJ/mol
# Density = 2.333354 g / cm^3
# Si number density = 23.386773 Si / 1000 Ang^3
#
#
#
# Elastic Constant Matrix: (Units=GPa)
#
#
# Indices 1 2 3 4 5 6 
#
# 1 88.1594 -4.2168 9.2348 0.0000 0.0000 0.0000
# 2 -4.2168 26.5820 -16.4702 0.0000 0.0000 0.0000
# 3 9.2348 -16.4702 61.9350 0.0000 0.0000 0.0000
# 4 0.0000 0.0000 0.0000 18.6293 0.0000 0.0000
# 5 0.0000 0.0000 0.0000 0.0000 38.9439 0.0000
# 6 0.0000 0.0000 0.0000 0.0000 0.0000 6.9289
#
#
#
# Elastic Compliance Matrix: (Units=1/GPa)
#
#
# Indices 1 2 3 4 5 6 
#
# 1 0.011542 0.000915 -0.001477 0.000000 0.000000 0.000000
# 2 0.000915 0.045113 0.011860 0.000000 0.000000 0.000000
# 3 -0.001477 0.011860 0.019520 0.000000 0.000000 0.000000
# 4 0.000000 0.000000 0.000000 0.053679 0.000000 0.000000
# 5 0.000000 0.000000 0.000000 0.000000 0.025678 0.000000
# 6 0.000000 0.000000 0.000000 0.000000 0.000000 0.144323
#
#
# Mechanical properties :
#
#
# Convention : Reuss Voigt Hill
#
# Bulk Modulus (GPa) = 10.12437 17.08579 13.60508
# Shear Modulus (GPa) = 16.11958 25.44233 20.78095
#
# Velocity S-wave (km/s) = 2.62823 3.30190 2.98414
# Velocity P-wave (km/s) = 3.68084 4.67529 4.20755
#
# Compressibility (1/GPa) = 0.09877162
#
# Stress axis : x y z
#
# Youngs Moduli (GPa) = 86.64275 22.16646 51.22893
#
# Poissons Ratio (x) = -0.02029 0.07569
# Poissons Ratio (y) = -0.07932 -0.60759
# Poissons Ratio (z) = 0.12801 -0.26290
#
# Static dielectric constant tensor:
#      x y z
#    x 1.857900 0.000000 0.000000 
#    y 0.000000 1.941830 0.000000 
#    z 0.000000 0.000000 1.898220 
# 
# From -- ./inp_files/3023.got.cif
#   From: 2010.05.17/outbox.cif.g08.bks.cpg/sg41_2_cif.got.tgz:3023.got - 2010.06.03 18:54:24.
