data_PCOD9365861
_publ_section_title
;
Structure prediction by ZEFSAII (Michael W. Deem and Ramdas Pophale) SiO2 
 PCOD9365861
Probable space group: A B A 2
;
_chemical_formula_sum "Si O2"
_cell_formula_units_Z 60
_cell_length_a 15.607209
_cell_length_b 20.619026
_cell_length_c 7.627814
_cell_angle_alpha 90.000000
_cell_angle_beta 90.000000
_cell_angle_gamma 90.000000
_cell_volume 2454.672103
_symmetry_space_group_name_H-M "A B A 2"
_symmetry_group_IT_number 41
_symmetry_cell_setting 'orthorhombic'
loop_
_space_group_symop_operation_xyz
x,y,z
-x,-y,z
1/2-x,y,1/2+z
1/2+x,-y,1/2+z
x,1/2+y,1/2+z
-x,1/2-y,1/2+z
1/2-x,1/2+y,z
1/2+x,1/2-y,z
loop_
_atom_site_type_symbol
_atom_site_label
_atom_site_fract_x
_atom_site_fract_y
_atom_site_fract_z
Si Si1 0.191431 0.883241 0.647840
Si Si2 0.000000 0.500000 0.991363
Si Si3 0.630111 0.798055 0.812634
Si Si4 0.177784 0.520192 0.971404
Si Si5 0.449885 0.164513 0.466671
Si Si6 0.509352 0.145816 0.082203
Si Si7 0.292927 0.105750 0.285290
Si Si8 0.359938 0.839211 0.506486
O O1 0.111661 0.846509 0.553448
O O2 0.283073 0.848013 0.641734
O O3 0.162212 0.887100 0.847587
O O4 0.197613 0.953519 0.564653
O O5 0.085810 0.509042 0.883396
O O6 0.005990 0.433442 0.102216
O O7 0.593123 0.790853 0.615227
O O8 0.720212 0.838100 0.791265
O O9 0.646470 0.732249 0.919756
O O10 0.552876 0.831492 0.926029
O O11 0.173907 0.584810 0.094530
O O12 0.247243 0.539678 0.835179
O O13 0.478780 0.180286 0.264427
O O14 0.370855 0.117532 0.418045
O O15 0.541470 0.146576 0.552894
#
# Coordination Sequence:
#
# PCOD9365861 Si02
#       8
#     8   4   8   8   8   8   8   8
#     4  10  25  48  70 103 144 196 235 298 369 437
#     4  10  18  40  70  98 140 192 216 292 370 426
#     4  12  27  45  74 108 143 190 248 303 368 437
#     4  11  22  41  73  98 145 181 236 297 365 440
#     4  11  26  47  69 107 146 187 248 301 364 434
#     4  10  23  46  74 102 145 188 242 296 373 432
#     4  12  22  43  71 110 137 183 243 307 370 437
#     4  11  28  47  72 105 145 200 245 299 368 445
#
# _framework density 24.443182
#
# number of rings (size 3 to 8) (size 9 to 14) (size 15 to 20)
#    0.000    1.067    4.000    0.800    7.467    0.000 
#    0.000    0.667    0.000    0.000    0.000    0.000 
#    0.000    0.000    0.000    0.000    0.000    0.000 
#
# Total GULP energy -167248.463831 kJ/mol
# GULP energy per Si atom -5574.948794 kJ/mol
# Density = 2.438755 g / cm^3
# Si number density = 24.443182 Si / 1000 Ang^3
#
#
#
# Elastic Constant Matrix: (Units=GPa)
#
#
# Indices 1 2 3 4 5 6 
#
# 1 213.1539 45.2317 28.0025 0.0000 0.0000 0.0000
# 2 45.2317 67.9769 17.3565 0.0000 0.0000 0.0000
# 3 28.0025 17.3565 42.6660 0.0000 0.0000 0.0000
# 4 0.0000 0.0000 0.0000 23.0107 0.0000 0.0000
# 5 0.0000 0.0000 0.0000 0.0000 41.5891 0.0000
# 6 0.0000 0.0000 0.0000 0.0000 0.0000 0.2108
#
#
#
# Elastic Compliance Matrix: (Units=1/GPa)
#
#
# Indices 1 2 3 4 5 6 
#
# 1 0.005683 -0.003157 -0.002445 0.000000 0.000000 0.000000
# 2 -0.003157 0.018170 -0.005320 0.000000 0.000000 0.000000
# 3 -0.002445 -0.005320 0.027207 0.000000 0.000000 0.000000
# 4 0.000000 0.000000 0.000000 0.043458 0.000000 0.000000
# 5 0.000000 0.000000 0.000000 0.000000 0.024045 0.000000
# 6 0.000000 0.000000 0.000000 0.000000 0.000000 4.743430
#
#
# Mechanical properties :
#
#
# Convention : Reuss Voigt Hill
#
# Bulk Modulus (GPa) = 34.22836 56.10870 45.16853
# Shear Modulus (GPa) = 1.02175 28.50918 14.76546
#
# Velocity S-wave (km/s) = 0.64724 3.41888 2.46046
# Velocity P-wave (km/s) = 3.81997 6.21205 5.15664
#
# Compressibility (1/GPa) = 0.02921554
#
# Stress axis : x y z
#
# Youngs Moduli (GPa) = 175.97634 55.03685 36.75551
#
# Poissons Ratio (x) = 0.17374 0.08988
# Poissons Ratio (y) = 0.55552 0.19552
# Poissons Ratio (z) = 0.43033 0.29277
#
# Static dielectric constant tensor:
#      x y z
#    x 2.210290 0.000000 0.000000 
#    y 0.000000 1.970200 0.000000 
#    z 0.000000 0.000000 1.964970 
# 
# From -- ./inp_files/2777.got.cif
#   From: 2010.05.17/outbox.cif.g08.bks.cpg/sg41_2_cif.got.tgz:2777.got - 2010.06.03 18:54:24.
