data_PCOD9365872
_publ_section_title
;
Structure prediction by ZEFSAII (Michael W. Deem and Ramdas Pophale) SiO2 
 PCOD9365872
Probable space group: A B A 2
;
_chemical_formula_sum "Si O2"
_cell_formula_units_Z 60
_cell_length_a 26.063722
_cell_length_b 18.412350
_cell_length_c 4.937094
_cell_angle_alpha 90.000000
_cell_angle_beta 90.000000
_cell_angle_gamma 90.000000
_cell_volume 2369.283623
_symmetry_space_group_name_H-M "A B A 2"
_symmetry_group_IT_number 41
_symmetry_cell_setting 'orthorhombic'
loop_
_space_group_symop_operation_xyz
x,y,z
-x,-y,z
1/2-x,y,1/2+z
1/2+x,-y,1/2+z
x,1/2+y,1/2+z
-x,1/2-y,1/2+z
1/2-x,1/2+y,z
1/2+x,1/2-y,z
loop_
_atom_site_type_symbol
_atom_site_label
_atom_site_fract_x
_atom_site_fract_y
_atom_site_fract_z
Si Si1 0.219163 0.406071 0.877220
Si Si2 0.580853 0.936259 0.712981
Si Si3 0.112904 0.916626 0.116734
Si Si4 0.281834 0.730587 0.831430
Si Si5 0.020292 0.654349 0.315718
Si Si6 0.412371 0.817040 0.132477
Si Si7 0.622730 0.813449 0.968066
Si Si8 0.500000 0.500000 0.608139
O O1 0.265667 0.426724 0.678459
O O2 0.214632 0.318388 0.848353
O O3 0.166031 0.434200 0.763298
O O4 0.627667 0.893561 0.842006
O O5 0.593732 0.003050 0.521334
O O6 0.548819 0.982879 0.926196
O O7 0.545061 0.871098 0.599966
O O8 0.114048 0.872029 0.841857
O O9 0.087538 0.857485 0.337293
O O10 0.234992 0.708334 0.631338
O O11 0.332862 0.705044 0.679470
O O12 0.069353 0.680393 0.143057
O O13 0.995099 0.575254 0.257677
O O14 0.970990 0.700868 0.228571
O O15 0.381824 0.744204 0.221318
#
# Coordination Sequence:
#
# PCOD9365872 Si02
#       8
#     8   8   8   8   8   8   8   4
#     4  10  21  41  70 102 133 175 235 303 360 417
#     4  11  25  42  70  95 148 189 239 284 357 424
#     4  12  25  46  73 104 139 188 242 292 350 433
#     4  10  23  44  72  97 136 183 237 289 359 427
#     4  11  25  42  70  99 151 189 242 282 360 426
#     4  12  27  44  73 104 145 187 242 288 347 425
#     4  11  28  44  68 109 142 182 237 302 359 416
#     4  10  18  44  60  98 124 200 238 270 332 434
#
# _framework density 25.324107999999999
#
# number of rings (size 3 to 8) (size 9 to 14) (size 15 to 20)
#    0.000    1.067    2.667    2.800   13.067    0.000 
#    0.000    1.333    0.000    0.000    0.000    0.000 
#    0.000    0.000    0.000    0.000    0.000    0.000 
#
# Total GULP energy -167383.200483 kJ/mol
# GULP energy per Si atom -5579.440016 kJ/mol
# Density = 2.526647 g / cm^3
# Si number density = 25.324108 Si / 1000 Ang^3
#
#
#
# Elastic Constant Matrix: (Units=GPa)
#
#
# Indices 1 2 3 4 5 6 
#
# 1 86.9806 11.3139 -2.5623 0.0000 0.0000 0.0000
# 2 11.3139 86.6237 6.1608 0.0000 0.0000 0.0000
# 3 -2.5623 6.1608 84.6238 0.0000 0.0000 0.0000
# 4 0.0000 0.0000 0.0000 27.5131 0.0000 0.0000
# 5 0.0000 0.0000 0.0000 0.0000 34.6954 0.0000
# 6 0.0000 0.0000 0.0000 0.0000 0.0000 25.1353
#
#
#
# Elastic Compliance Matrix: (Units=1/GPa)
#
#
# Indices 1 2 3 4 5 6 
#
# 1 0.011714 -0.001563 0.000468 0.000000 0.000000 0.000000
# 2 -0.001563 0.011813 -0.000907 0.000000 0.000000 0.000000
# 3 0.000468 -0.000907 0.011897 0.000000 0.000000 0.000000
# 4 0.000000 0.000000 0.000000 0.036346 0.000000 0.000000
# 5 0.000000 0.000000 0.000000 0.000000 0.028822 0.000000
# 6 0.000000 0.000000 0.000000 0.000000 0.000000 0.039785
#
#
# Mechanical properties :
#
#
# Convention : Reuss Voigt Hill
#
# Bulk Modulus (GPa) = 31.82700 32.00587 31.91643
# Shear Modulus (GPa) = 32.28830 33.68981 32.98905
#
# Velocity S-wave (km/s) = 3.57459 3.65135 3.61317
# Velocity P-wave (km/s) = 5.44354 5.51746 5.48062
#
# Compressibility (1/GPa) = 0.03141987
#
# Stress axis : x y z
#
# Youngs Moduli (GPa) = 85.36821 84.65327 84.05303
#
# Poissons Ratio (x) = 0.13234 -0.03938
# Poissons Ratio (y) = 0.13345 0.07626
# Poissons Ratio (z) = -0.03999 0.07681
#
# Static dielectric constant tensor:
#      x y z
#    x 1.913220 0.000000 0.000000 
#    y 0.000000 1.091290 0.000000 
#    z 0.000000 0.000000 2.064360 
# 
# From -- ./inp_files/1202.got.cif
#   From: 2010.05.17/outbox.cif.g08.bks.cpg/sg41_1_cif.got.tgz:1202.got - 2010.06.03 18:54:24.
