data_PCOD9365669
_publ_section_title
;
Structure prediction by ZEFSAII (Michael W. Deem and Ramdas Pophale) SiO2 
 PCOD9365669
Probable space group: A M A 2
;
_chemical_formula_sum "Si O2"
_cell_formula_units_Z 28
_cell_length_a 15.000000
_cell_length_b 15.000000
_cell_length_c 12.000000
_cell_angle_alpha 90.000000
_cell_angle_beta 90.000000
_cell_angle_gamma 90.000000
_cell_volume 2700.000000
_symmetry_space_group_name_H-M "A M A 2"
_symmetry_group_IT_number 40
_symmetry_cell_setting 'orthorhombic'
loop_
_space_group_symop_operation_xyz
x,y,z
-x,-y,z
1/2-x,y,z
1/2+x,-y,z
x,1/2+y,1/2+z
-x,1/2-y,1/2+z
1/2-x,1/2+y,1/2+z
1/2+x,1/2-y,1/2+z
loop_
_atom_site_type_symbol
_atom_site_label
_atom_site_fract_x
_atom_site_fract_y
_atom_site_fract_z
Si Si1 0.524361 0.294381 0.153070
Si Si2 0.141215 0.698866 0.378051
Si Si3 0.644886 0.435008 0.037399
Si Si4 0.854526 0.103332 0.395904
Si Si5 0.356326 0.502346 0.452094
Si Si6 0.057353 0.412964 0.664667
Si Si7 0.645690 0.588179 0.219410
O O1 0.588097 0.306255 0.261908
O O2 0.579375 0.350840 0.058234
O O3 0.516277 0.186215 0.141415
O O4 0.429265 0.342601 0.177105
O O5 0.250000 0.699418 0.361300
O O6 0.115973 0.795796 0.431340
O O7 0.118278 0.607065 0.442236
O O8 0.750000 0.409097 0.017340
O O9 0.643522 0.497933 0.146432
O O10 0.612349 0.509510 0.947559
O O11 0.750000 0.100928 0.423098
O O12 0.873109 0.101840 0.264802
O O13 0.250000 0.501894 0.462250
O O14 0.398029 0.450332 0.553960
O O15 0.378691 0.446568 0.341709
O O16 0.000000 0.500000 0.701503
O O17 0.750000 0.620345 0.216218
#
# Coordination Sequence:
#
# PCOD9365669 Si02
#       7
#     8   8   8   8   8   8   8
#     4  11  22  40  66  94 123 173 218 272 320 381
#     4   9  18  35  66  99 127 168 214 257 318 393
#     4  10  20  37  67 100 126 159 213 272 322 381
#     4   9  20  41  64  92 134 174 210 257 322 397
#     4  10  21  40  66  94 127 165 213 272 323 384
#     4  11  26  42  59  92 132 173 217 260 323 402
#     4  10  22  40  64  99 128 161 216 277 329 371
#
# _framework density 10.370369999999999
#
# number of rings (size 3 to 8) (size 9 to 14) (size 15 to 20)
#    0.000    2.000    1.429    1.286    2.000    4.000 
#    5.143    2.857    0.000    0.000    0.000    0.000 
#    0.000    0.000    0.000    0.000    0.000    0.000 
#
# Total GULP energy -156204.002777 kJ/mol
# GULP energy per Si atom -5578.714385 kJ/mol
# Density = 1.034677 g / cm^3
# Si number density = 10.370370 Si / 1000 Ang^3
#
#
#
# Elastic Constant Matrix: (Units=GPa)
#
#
# Indices 1 2 3 4 5 6 
#
# 1 60.7470 58.7232 25.9935 0.0000 0.0000 0.0000
# 2 58.7232 189.6670 32.0292 0.0000 0.0000 0.0000
# 3 25.9935 32.0292 91.6377 0.0000 0.0000 0.0000
# 4 0.0000 0.0000 0.0000 57.6291 0.0000 0.0000
# 5 0.0000 0.0000 0.0000 0.0000 8.8288 0.0000
# 6 0.0000 0.0000 0.0000 0.0000 0.0000 23.0944
#
#
#
# Elastic Compliance Matrix: (Units=1/GPa)
#
#
# Indices 1 2 3 4 5 6 
#
# 1 0.025273 -0.007029 -0.004712 0.000000 0.000000 0.000000
# 2 -0.007029 0.007558 -0.000648 0.000000 0.000000 0.000000
# 3 -0.004712 -0.000648 0.012476 0.000000 0.000000 0.000000
# 4 0.000000 0.000000 0.000000 0.017352 0.000000 0.000000
# 5 0.000000 0.000000 0.000000 0.000000 0.113265 0.000000
# 6 0.000000 0.000000 0.000000 0.000000 0.000000 0.043301
#
#
# Mechanical properties :
#
#
# Convention : Reuss Voigt Hill
#
# Bulk Modulus (GPa) = 48.71237 63.94928 56.33082
# Shear Modulus (GPa) = 19.93262 32.93085 26.43173
#
# Velocity S-wave (km/s) = 3.10342 3.98896 3.57373
# Velocity P-wave (km/s) = 6.03150 7.21910 6.65186
#
# Compressibility (1/GPa) = 0.02052867
#
# Stress axis : x y z
#
# Youngs Moduli (GPa) = 39.56822 132.30868 80.15669
#
# Poissons Ratio (x) = 0.93000 0.37770
# Poissons Ratio (y) = 0.27813 0.05193
# Poissons Ratio (z) = 0.18644 0.08572
#
# Static dielectric constant tensor:
#      x y z
#    x 1.796750 0.000000 0.000000 
#    y 0.000000 1.742760 0.000000 
#    z 0.000000 0.000000 1.809100 
# 
# From -- ./inp_files/12232.got.cif
#   From: 2010.05.17/outbox.ucp.g08.bks.cvg/sg40_7_cif.got.tgz:12232.got - 2010.06.11 16:26:39.
