data_PCOD9365791
_publ_section_title
;
Structure prediction by ZEFSAII (Michael W. Deem and Ramdas Pophale) SiO2 
 PCOD9365791
Probable space group: A B A 2
;
_chemical_formula_sum "Si O2"
_cell_formula_units_Z 60
_cell_length_a 12.456183
_cell_length_b 13.430193
_cell_length_c 19.402093
_cell_angle_alpha 90.000000
_cell_angle_beta 90.000000
_cell_angle_gamma 90.000000
_cell_volume 3245.755605
_symmetry_space_group_name_H-M "A B A 2"
_symmetry_group_IT_number 41
_symmetry_cell_setting 'orthorhombic'
loop_
_space_group_symop_operation_xyz
x,y,z
-x,-y,z
1/2-x,y,1/2+z
1/2+x,-y,1/2+z
x,1/2+y,1/2+z
-x,1/2-y,1/2+z
1/2-x,1/2+y,z
1/2+x,1/2-y,z
loop_
_atom_site_type_symbol
_atom_site_label
_atom_site_fract_x
_atom_site_fract_y
_atom_site_fract_z
Si Si1 0.267875 0.219152 0.714830
Si Si2 0.916936 0.386954 0.632516
Si Si3 0.500000 0.000000 0.506496
Si Si4 0.083863 0.422343 0.871772
Si Si5 0.126762 0.413889 0.712208
Si Si6 0.326744 0.936966 0.396142
Si Si7 0.061548 0.258130 0.332557
Si Si8 0.410993 0.572884 0.767862
O O1 0.330907 0.198136 0.644268
O O2 0.216912 0.329119 0.714208
O O3 0.354677 0.213069 0.777127
O O4 0.179950 0.132313 0.726336
O O5 0.863998 0.488540 0.664254
O O6 0.962389 0.412047 0.557794
O O7 0.019151 0.365070 0.681133
O O8 0.600967 0.024181 0.458493
O O9 0.107551 0.445810 0.790830
O O10 0.199494 0.431262 0.906563
O O11 0.000000 0.500000 0.901363
O O12 0.017891 0.319713 0.868392
O O13 0.365598 0.824692 0.382135
O O14 0.357047 0.006598 0.329401
O O15 0.982382 0.338120 0.298263
O O16 0.500000 0.500000 0.732991
#
# Coordination Sequence:
#
# PCOD9365791 Si02
#       8
#     8   8   4   8   8   8   8   8
#     4  12  19  33  60  91 121 150 192 250 325 355
#     4  10  22  38  60  81 119 161 205 245 279 374
#     4  10  22  44  60  78 120 174 216 228 288 366
#     4  12  20  33  57  92 123 153 189 256 318 361
#     4  10  18  33  55  88 118 145 192 243 310 349
#     4  11  21  37  59  82 123 161 202 243 300 363
#     4  11  19  32  54  93 122 147 190 250 311 364
#     4  10  20  31  51  86 117 147 182 255 312 354
#
# _framework density 18.485679999999999
#
# number of rings (size 3 to 8) (size 9 to 14) (size 15 to 20)
#    0.000    1.333    7.333    1.600    1.867    0.000 
#    0.000    2.667    0.000    0.800    0.000    0.000 
#    0.000    0.000    0.000    0.000    0.000    0.000 
#
# Total GULP energy -167163.236537 kJ/mol
# GULP energy per Si atom -5572.107885 kJ/mol
# Density = 1.844361 g / cm^3
# Si number density = 18.485680 Si / 1000 Ang^3
#
#
#
# Elastic Constant Matrix: (Units=GPa)
#
#
# Indices 1 2 3 4 5 6 
#
# 1 161.6535 43.2990 32.0602 0.0000 0.0000 0.0000
# 2 43.2990 53.2410 -4.3155 0.0000 0.0000 0.0000
# 3 32.0602 -4.3155 47.3602 0.0000 0.0000 0.0000
# 4 0.0000 0.0000 0.0000 11.8217 0.0000 0.0000
# 5 0.0000 0.0000 0.0000 0.0000 10.7195 0.0000
# 6 0.0000 0.0000 0.0000 0.0000 0.0000 36.3922
#
#
#
# Elastic Compliance Matrix: (Units=1/GPa)
#
#
# Indices 1 2 3 4 5 6 
#
# 1 0.010048 -0.008788 -0.007602 0.000000 0.000000 0.000000
# 2 -0.008788 0.026608 0.008373 0.000000 0.000000 0.000000
# 3 -0.007602 0.008373 0.027024 0.000000 0.000000 0.000000
# 4 0.000000 0.000000 0.000000 0.084590 0.000000 0.000000
# 5 0.000000 0.000000 0.000000 0.000000 0.093288 0.000000
# 6 0.000000 0.000000 0.000000 0.000000 0.000000 0.027478
#
#
# Mechanical properties :
#
#
# Convention : Reuss Voigt Hill
#
# Bulk Modulus (GPa) = 20.98808 44.92689 32.95749
# Shear Modulus (GPa) = 16.61401 24.53410 20.57406
#
# Velocity S-wave (km/s) = 3.00117 3.64702 3.33974
# Velocity P-wave (km/s) = 4.83608 6.48774 5.72182
#
# Compressibility (1/GPa) = 0.04764608
#
# Stress axis : x y z
#
# Youngs Moduli (GPa) = 99.52649 37.58294 37.00396
#
# Poissons Ratio (x) = 0.33026 0.28132
# Poissons Ratio (y) = 0.87459 -0.30984
# Poissons Ratio (z) = 0.75664 -0.31469
#
# Static dielectric constant tensor:
#      x y z
#    x 1.699800 0.000000 0.000000 
#    y 0.000000 1.743730 0.000000 
#    z 0.000000 0.000000 1.634200 
# 
# From -- ./inp_files/11444.got.cif
#   From: 2010.05.17/outbox.cif.g08.bks.cpg/sg41_6_cif.got.tgz:11444.got - 2010.06.03 18:54:24.
