data_PCOD9365941
_publ_section_title
;
Structure prediction by ZEFSAII (Michael W. Deem and Ramdas Pophale) SiO2 
 PCOD9365941
Probable space group: A B A 2
;
_chemical_formula_sum "Si O2"
_cell_formula_units_Z 48
_cell_length_a 7.889476
_cell_length_b 15.888879
_cell_length_c 16.674025
_cell_angle_alpha 90.000000
_cell_angle_beta 90.000000
_cell_angle_gamma 90.000000
_cell_volume 2090.171229
_symmetry_space_group_name_H-M "A B A 2"
_symmetry_group_IT_number 41
_symmetry_cell_setting 'orthorhombic'
loop_
_space_group_symop_operation_xyz
x,y,z
-x,-y,z
1/2-x,y,1/2+z
1/2+x,-y,1/2+z
x,1/2+y,1/2+z
-x,1/2-y,1/2+z
1/2-x,1/2+y,z
1/2+x,1/2-y,z
loop_
_atom_site_type_symbol
_atom_site_label
_atom_site_fract_x
_atom_site_fract_y
_atom_site_fract_z
Si Si1 0.235418 0.937572 0.008430
Si Si2 0.500000 0.500000 0.389557
Si Si3 0.081821 0.701725 0.688725
Si Si4 0.260530 0.133741 0.342775
Si Si5 0.374077 0.633689 0.011205
Si Si6 0.292901 0.378914 0.682583
Si Si7 0.000000 0.000000 0.784604
O O1 0.308814 0.907594 0.091676
O O2 0.074460 0.877679 0.994436
O O3 0.377051 0.940496 0.941351
O O4 0.185335 0.036191 0.017142
O O5 0.384736 0.563748 0.343272
O O6 0.208664 0.683387 0.763208
O O7 0.147654 0.676201 0.598899
O O8 0.075851 0.802495 0.692461
O O9 0.899286 0.655070 0.697353
O O10 0.280450 0.172706 0.432629
O O11 0.429283 0.077998 0.334082
O O12 0.348606 0.459270 0.733686
#
# Coordination Sequence:
#
# PCOD9365941 Si02
#       7
#     8   4   8   8   8   8   4
#     4   9  18  36  63  92 124 164 213 262 309 374
#     4  10  19  34  61  96 124 162 214 262 312 374
#     4  11  24  43  64  94 133 168 208 264 323 374
#     4  11  22  39  64  94 130 168 213 264 314 374
#     4   9  20  40  63  91 126 167 212 260 316 372
#     4  11  24  42  66  94 128 169 213 261 317 380
#     4  12  23  40  65  92 126 172 216 260 310 376
#
# _framework density 22.964625000000002
#
# number of rings (size 3 to 8) (size 9 to 14) (size 15 to 20)
#    0.000    1.667    0.000    5.500    0.000    6.667 
#    0.000   13.333    0.000    0.000    0.000    0.000 
#    0.000    0.000    0.000    0.000    0.000    0.000 
#
# Total GULP energy -133951.248678 kJ/mol
# GULP energy per Si atom -5581.302028 kJ/mol
# Density = 2.291236 g / cm^3
# Si number density = 22.964625 Si / 1000 Ang^3
#
#
#
# Elastic Constant Matrix: (Units=GPa)
#
#
# Indices 1 2 3 4 5 6 
#
# 1 47.7539 14.6167 30.7379 0.0000 0.0000 0.0000
# 2 14.6167 36.7893 54.5526 0.0000 0.0000 0.0000
# 3 30.7379 54.5526 139.7117 0.0000 0.0000 0.0000
# 4 0.0000 0.0000 0.0000 -35.3963 0.0000 0.0000
# 5 0.0000 0.0000 0.0000 0.0000 0.5689 0.0000
# 6 0.0000 0.0000 0.0000 0.0000 0.0000 19.2633
#
#
#
# Elastic Compliance Matrix: (Units=1/GPa)
#
#
# Indices 1 2 3 4 5 6 
#
# 1 0.024661 -0.004163 -0.003800 0.000000 0.000000 0.000000
# 2 -0.004163 0.065267 -0.024569 0.000000 0.000000 0.000000
# 3 -0.003800 -0.024569 0.017587 0.000000 0.000000 0.000000
# 4 0.000000 0.000000 0.000000 -0.028252 0.000000 0.000000
# 5 0.000000 0.000000 0.000000 0.000000 1.757738 0.000000
# 6 0.000000 0.000000 0.000000 0.000000 0.000000 0.051912
#
#
# Mechanical properties :
#
#
# Convention : Reuss Voigt Hill
#
# Bulk Modulus (GPa) = 23.55641 47.11881 35.33761
# Shear Modulus (GPa) = 2.54048 5.17702 3.85875
#
# Velocity S-wave (km/s) = 1.05293 1.50308 1.29767
# Velocity P-wave (km/s) = 3.42902 4.85540 4.20316
#
# Compressibility (1/GPa) = 0.04245129
#
# Stress axis : x y z
#
# Youngs Moduli (GPa) = 40.54985 15.32164 56.86061
#
# Poissons Ratio (x) = 0.06379 0.21608
# Poissons Ratio (y) = 0.16881 1.39699
# Poissons Ratio (z) = 0.15409 0.37643
#
# Static dielectric constant tensor:
#      x y z
#    x 1.934670 0.000000 0.000000 
#    y 0.000000 1.836960 0.000000 
#    z 0.000000 0.000000 1.911390 
# 
# From -- ./inp_files/7362.got.cif
#   From: 2010.05.17/outbox.cif.g08.bks.cpg/sg41_4_cif.got.tgz:7362.got - 2010.06.03 18:54:24.
