data_PCOD9365397
_publ_section_title
;
Structure prediction by ZEFSAII (Michael W. Deem and Ramdas Pophale) SiO2 
 PCOD9365397
Probable space group: A M A 2
;
_chemical_formula_sum "Si O2"
_cell_formula_units_Z 64
_cell_length_a 8.731581
_cell_length_b 25.566068
_cell_length_c 15.202933
_cell_angle_alpha 90.000000
_cell_angle_beta 90.000000
_cell_angle_gamma 90.000000
_cell_volume 3393.784083
_symmetry_space_group_name_H-M "A M A 2"
_symmetry_group_IT_number 40
_symmetry_cell_setting 'orthorhombic'
loop_
_space_group_symop_operation_xyz
x,y,z
-x,-y,z
1/2-x,y,z
1/2+x,-y,z
x,1/2+y,1/2+z
-x,1/2-y,1/2+z
1/2-x,1/2+y,1/2+z
1/2+x,1/2-y,1/2+z
loop_
_atom_site_type_symbol
_atom_site_label
_atom_site_fract_x
_atom_site_fract_y
_atom_site_fract_z
Si Si1 0.933634 0.058119 0.860360
Si Si2 0.565891 0.282250 0.203929
Si Si3 0.064791 0.234245 0.908802
Si Si4 0.064983 0.850546 0.388286
Si Si5 0.931856 0.943774 0.503338
Si Si6 0.567363 0.108175 0.673216
Si Si7 0.566468 0.868287 0.009138
Si Si8 0.566185 0.664000 0.683203
O O1 0.750000 0.056360 0.865006
O O2 0.976454 0.089161 0.771094
O O3 0.000000 0.000000 0.855474
O O4 0.998765 0.088190 0.944802
O O5 0.750000 0.287480 0.195668
O O6 0.528125 0.280907 0.308130
O O7 0.485148 0.331920 0.161585
O O8 0.520447 0.224926 0.169798
O O9 0.250000 0.235745 0.913911
O O10 0.012401 0.293672 0.924538
O O11 0.010747 0.188076 0.971617
O O12 0.250000 0.853298 0.397326
O O13 0.029786 0.850524 0.283984
O O14 0.990673 0.898333 0.438906
O O15 0.750000 0.946252 0.502169
O O16 0.989419 0.927809 0.600333
O O17 0.000000 0.000000 0.479041
O O18 0.750000 0.104508 0.664017
O O19 0.750000 0.869964 0.004444
O O20 0.511690 0.871027 0.109341
O O21 0.750000 0.661396 0.674436
#
# Coordination Sequence:
#
# PCOD9365397 Si02
#       8
#     8   8   8   8   8   8   8   8
#     4  11  24  41  61  86 118 158 202 250 298 354
#     4   9  17  34  57  84 120 160 199 238 288 348
#     4   8  16  32  56  85 118 157 194 233 288 347
#     4   9  19  40  64  86 118 158 199 247 299 351
#     4  12  26  43  63  88 117 154 200 251 300 357
#     4  11  23  38  59  89 122 158 197 242 295 355
#     4  11  21  35  59  89 123 162 200 244 295 355
#     4   9  20  37  59  87 123 161 199 247 298 350
#
# _framework density 18.858006
#
# number of rings (size 3 to 8) (size 9 to 14) (size 15 to 20)
#    0.000    2.000    1.250    4.125    1.750    3.500 
#    0.000    3.125    0.000    3.000    0.000    0.000 
#    0.000    0.000    0.000    0.000    0.000    0.000 
#
# Total GULP energy -178742.337023 kJ/mol
# GULP energy per Si atom -5585.698032 kJ/mol
# Density = 1.881508 g / cm^3
# Si number density = 18.858006 Si / 1000 Ang^3
#
#
#
# Elastic Constant Matrix: (Units=GPa)
#
#
# Indices 1 2 3 4 5 6 
#
# 1 48.1519 35.1047 28.4084 0.0000 0.0000 0.0000
# 2 35.1047 106.6662 33.7368 0.0000 0.0000 0.0000
# 3 28.4084 33.7368 59.4270 0.0000 0.0000 0.0000
# 4 0.0000 0.0000 0.0000 29.3089 0.0000 0.0000
# 5 0.0000 0.0000 0.0000 0.0000 26.5729 0.0000
# 6 0.0000 0.0000 0.0000 0.0000 0.0000 22.8574
#
#
#
# Elastic Compliance Matrix: (Units=1/GPa)
#
#
# Indices 1 2 3 4 5 6 
#
# 1 0.032834 -0.007120 -0.011654 0.000000 0.000000 0.000000
# 2 -0.007120 0.012971 -0.003960 0.000000 0.000000 0.000000
# 3 -0.011654 -0.003960 0.024646 0.000000 0.000000 0.000000
# 4 0.000000 0.000000 0.000000 0.034119 0.000000 0.000000
# 5 0.000000 0.000000 0.000000 0.000000 0.037632 0.000000
# 6 0.000000 0.000000 0.000000 0.000000 0.000000 0.043749
#
#
# Mechanical properties :
#
#
# Convention : Reuss Voigt Hill
#
# Bulk Modulus (GPa) = 40.02629 45.41610 42.72119
# Shear Modulus (GPa) = 20.85530 23.54753 22.20141
#
# Velocity S-wave (km/s) = 3.32913 3.53749 3.43489
# Velocity P-wave (km/s) = 6.00405 6.38910 6.19957
#
# Compressibility (1/GPa) = 0.02498358
#
# Stress axis : x y z
#
# Youngs Moduli (GPa) = 30.45642 77.09678 40.57387
#
# Poissons Ratio (x) = 0.54892 0.47284
# Poissons Ratio (y) = 0.21685 0.16067
# Poissons Ratio (z) = 0.35493 0.30529
#
# Static dielectric constant tensor:
#      x y z
#    x 1.627810 0.000000 0.000000 
#    y 0.000000 1.637670 0.000000 
#    z 0.000000 0.000000 1.654740 
# 
# From -- ./inp_files/15670.got.cif
#   From: 2010.05.17/outbox.cif.g08.bks.cpg/sg40_8_cif.got.tgz:15670.got - 2010.06.03 18:35:42.
