data_PCOD9365309
_publ_section_title
;
Structure prediction by ZEFSAII (Michael W. Deem and Ramdas Pophale) SiO2 
 PCOD9365309
Probable space group: A M A 2
;
_chemical_formula_sum "Si O2"
_cell_formula_units_Z 40
_cell_length_a 17.955992
_cell_length_b 4.859066
_cell_length_c 19.450001
_cell_angle_alpha 90.000000
_cell_angle_beta 90.000000
_cell_angle_gamma 90.000000
_cell_volume 1696.999949
_symmetry_space_group_name_H-M "A M A 2"
_symmetry_group_IT_number 40
_symmetry_cell_setting 'orthorhombic'
loop_
_space_group_symop_operation_xyz
x,y,z
-x,-y,z
1/2-x,y,z
1/2+x,-y,z
x,1/2+y,1/2+z
-x,1/2-y,1/2+z
1/2-x,1/2+y,1/2+z
1/2+x,1/2-y,1/2+z
loop_
_atom_site_type_symbol
_atom_site_label
_atom_site_fract_x
_atom_site_fract_y
_atom_site_fract_z
Si Si1 0.384996 0.643511 0.526500
Si Si2 0.082553 0.628982 0.117158
Si Si3 0.750000 0.691788 0.457488
Si Si4 0.500000 0.500000 0.416428
Si Si5 0.836551 0.859088 0.762828
Si Si6 0.626324 0.364149 0.852804
O O1 0.416108 0.425763 0.582170
O O2 0.314037 0.503752 0.492997
O O3 0.446012 0.673231 0.466790
O O4 0.371767 0.925995 0.566644
O O5 0.121359 0.645716 0.190806
O O6 0.000000 0.500000 0.122198
O O7 0.684143 0.862293 0.415588
O O8 0.550384 0.714531 0.374769
O O9 0.750000 0.775806 0.755849
O O10 0.876777 0.659686 0.817463
O O11 0.839306 0.161459 0.795141
#
# Coordination Sequence:
#
# PCOD9365309 Si02
#       6
#     8   8   4   4   8   8
#     4  11  25  44  73 104 142 182 240 295 364 424
#     4  12  26  47  69 102 143 190 241 296 353 427
#     4  10  24  44  74 104 142 184 232 298 364 428
#     4  10  24  46  72 106 140 188 232 304 364 438
#     4  12  26  46  71 101 143 188 244 295 353 428
#     4  11  25  46  71 104 143 185 239 295 363 424
#
# _framework density 23.571010000000001
#
# number of rings (size 3 to 8) (size 9 to 14) (size 15 to 20)
#    0.000    0.800    4.000    1.200    4.200   10.400 
#    0.000    0.000    0.000    0.000    0.000    0.000 
#    0.000    0.000    0.000    0.000    0.000    0.000 
#
# Total GULP energy -111646.840364 kJ/mol
# GULP energy per Si atom -5582.342018 kJ/mol
# Density = 2.351736 g / cm^3
# Si number density = 23.571010 Si / 1000 Ang^3
#
#
#
# Elastic Constant Matrix: (Units=GPa)
#
#
# Indices 1 2 3 4 5 6 
#
# 1 119.0287 -5.7630 33.9874 0.0000 0.0000 0.0000
# 2 -5.7630 84.2635 17.5280 0.0000 0.0000 0.0000
# 3 33.9874 17.5280 110.2987 0.0000 0.0000 0.0000
# 4 0.0000 0.0000 0.0000 -15.4413 0.0000 0.0000
# 5 0.0000 0.0000 0.0000 0.0000 -123.9361 0.0000
# 6 0.0000 0.0000 0.0000 0.0000 0.0000 -20.6166
#
#
#
# Elastic Compliance Matrix: (Units=1/GPa)
#
#
# Indices 1 2 3 4 5 6 
#
# 1 0.009344 0.001280 -0.003083 0.000000 0.000000 0.000000
# 2 0.001280 0.012449 -0.002373 0.000000 0.000000 0.000000
# 3 -0.003083 -0.002373 0.010393 0.000000 0.000000 0.000000
# 4 0.000000 0.000000 0.000000 -0.064762 0.000000 0.000000
# 5 0.000000 0.000000 0.000000 0.000000 -0.008069 0.000000
# 6 0.000000 0.000000 0.000000 0.000000 0.000000 -0.048505
#
#
# Mechanical properties :
#
#
# Convention : Reuss Voigt Hill
#
# Bulk Modulus (GPa) = 41.95468 45.01064 43.48266
# Shear Modulus (GPa) = -68.63018 -14.14289 -41.38653
#
# Velocity S-wave (km/s) = -5.40181 -2.45217 -4.19480
# Velocity P-wave (km/s) = 4.59001 3.33462 2.23030
#
# Compressibility (1/GPa) = 0.02383524
#
# Stress axis : x y z
#
# Youngs Moduli (GPa) = 107.02616 80.32987 96.21661
#
# Poissons Ratio (x) = -0.10284 0.29659
# Poissons Ratio (y) = -0.13702 0.22830
# Poissons Ratio (z) = 0.32991 0.19060
#
# Static dielectric constant tensor:
#      x y z
#    x 1.913220 0.000000 0.000000 
#    y 0.000000 1.874370 0.000000 
#    z 0.000000 0.000000 1.865400 
# 
# From -- ./inp_files/20935.got.cif
#   From: 2010.05.17/outbox.cif.g08.bks.cpg/sg40_11_cif.got.tgz:20935.got - 2010.06.03 18:35:42.
