data_PCOD9365069
_publ_section_title
;
Structure prediction by ZEFSAII (Michael W. Deem and Ramdas Pophale) SiO2 
 PCOD9365069
Probable space group: A M A 2
;
_chemical_formula_sum "Si O2"
_cell_formula_units_Z 40
_cell_length_a 18.696275
_cell_length_b 11.236615
_cell_length_c 8.916299
_cell_angle_alpha 90.000000
_cell_angle_beta 90.000000
_cell_angle_gamma 90.000000
_cell_volume 1873.161453
_symmetry_space_group_name_H-M "A M A 2"
_symmetry_group_IT_number 40
_symmetry_cell_setting 'orthorhombic'
loop_
_space_group_symop_operation_xyz
x,y,z
-x,-y,z
1/2-x,y,z
1/2+x,-y,z
x,1/2+y,1/2+z
-x,1/2-y,1/2+z
1/2-x,1/2+y,1/2+z
1/2+x,1/2-y,1/2+z
loop_
_atom_site_type_symbol
_atom_site_label
_atom_site_fract_x
_atom_site_fract_y
_atom_site_fract_z
Si Si1 0.832992 0.298841 0.938150
Si Si2 0.077041 0.461009 0.941287
Si Si3 0.546197 0.879494 0.947737
Si Si4 0.064856 0.287273 0.671807
Si Si5 0.834806 0.250929 0.595140
O O1 0.750000 0.323311 0.959719
O O2 0.877173 0.420127 0.933898
O O3 0.843162 0.242472 0.774195
O O4 0.863583 0.221849 0.074642
O O5 0.062504 0.402292 0.778382
O O6 0.000000 0.500000 0.005299
O O7 0.124826 0.362346 0.024893
O O8 0.555890 0.823507 0.783763
O O9 0.500000 0.000000 0.943253
O O10 0.497588 0.793185 0.050145
O O11 0.623582 0.866976 0.028394
O O12 0.750000 0.253714 0.560344
#
# Coordination Sequence:
#
# PCOD9365069 Si02
#       5
#     8   8   8   8   8
#     4  11  24  42  64  93 130 171 213 263 325 386
#     4  11  23  42  69  95 125 169 216 267 324 384
#     4  11  23  41  65  92 125 165 211 259 314 376
#     4  11  24  39  63  96 126 163 215 268 314 377
#     4  10  22  42  68  98 133 170 213 267 325 387
#
# _framework density 21.354272000000002
#
# number of rings (size 3 to 8) (size 9 to 14) (size 15 to 20)
#    0.000    1.200    0.000    7.200    0.000    9.600 
#    0.000    2.000    0.000    3.600    0.000    0.000 
#    0.000    0.000    0.000    0.000    0.000    0.000 
#
# Total GULP energy -111810.685815 kJ/mol
# GULP energy per Si atom -5590.534291 kJ/mol
# Density = 2.130567 g / cm^3
# Si number density = 21.354272 Si / 1000 Ang^3
#
#
#
# Elastic Constant Matrix: (Units=GPa)
#
#
# Indices 1 2 3 4 5 6 
#
# 1 167.0832 45.8391 73.2651 0.0000 0.0000 0.0000
# 2 45.8391 69.1746 23.7561 0.0000 0.0000 0.0000
# 3 73.2651 23.7561 107.3828 0.0000 0.0000 0.0000
# 4 0.0000 0.0000 0.0000 23.4084 0.0000 0.0000
# 5 0.0000 0.0000 0.0000 0.0000 36.5743 0.0000
# 6 0.0000 0.0000 0.0000 0.0000 0.0000 32.3662
#
#
#
# Elastic Compliance Matrix: (Units=1/GPa)
#
#
# Indices 1 2 3 4 5 6 
#
# 1 0.009675 -0.004485 -0.005609 0.000000 0.000000 0.000000
# 2 -0.004485 0.017724 -0.000861 0.000000 0.000000 0.000000
# 3 -0.005609 -0.000861 0.013330 0.000000 0.000000 0.000000
# 4 0.000000 0.000000 0.000000 0.042720 0.000000 0.000000
# 5 0.000000 0.000000 0.000000 0.000000 0.027342 0.000000
# 6 0.000000 0.000000 0.000000 0.000000 0.000000 0.030896
#
#
# Mechanical properties :
#
#
# Convention : Reuss Voigt Hill
#
# Bulk Modulus (GPa) = 53.13794 69.92904 61.53349
# Shear Modulus (GPa) = 29.43446 31.85512 30.64479
#
# Velocity S-wave (km/s) = 3.71669 3.86650 3.79234
# Velocity P-wave (km/s) = 6.58456 7.26301 6.93209
#
# Compressibility (1/GPa) = 0.01881894
#
# Stress axis : x y z
#
# Youngs Moduli (GPa) = 103.35995 56.42105 75.02024
#
# Poissons Ratio (x) = 0.25305 0.42077
# Poissons Ratio (y) = 0.46357 0.06459
# Poissons Ratio (z) = 0.57973 0.04858
#
# Static dielectric constant tensor:
#      x y z
#    x 1.769370 0.000000 0.000000 
#    y 0.000000 1.809550 0.000000 
#    z 0.000000 0.000000 1.781450 
# 
# From -- ./inp_files/7147.got.cif
#   From: 2010.05.17/outbox.cif.g08.bks.cpg/sg40_4_cif.got.tgz:7147.got - 2010.06.03 18:35:42.
