data_PCOD9365675
_publ_section_title
;
Structure prediction by ZEFSAII (Michael W. Deem and Ramdas Pophale) SiO2 
 PCOD9365675
Probable space group: A M A 2
;
_chemical_formula_sum "Si O2"
_cell_formula_units_Z 32
_cell_length_a 18.000000
_cell_length_b 12.000000
_cell_length_c 15.000000
_cell_angle_alpha 90.000000
_cell_angle_beta 90.000000
_cell_angle_gamma 90.000000
_cell_volume 3240.000000
_symmetry_space_group_name_H-M "A M A 2"
_symmetry_group_IT_number 40
_symmetry_cell_setting 'orthorhombic'
loop_
_space_group_symop_operation_xyz
x,y,z
-x,-y,z
1/2-x,y,z
1/2+x,-y,z
x,1/2+y,1/2+z
-x,1/2-y,1/2+z
1/2-x,1/2+y,1/2+z
1/2+x,1/2-y,1/2+z
loop_
_atom_site_type_symbol
_atom_site_label
_atom_site_fract_x
_atom_site_fract_y
_atom_site_fract_z
Si Si1 0.590291 0.631984 0.997950
Si Si2 0.661900 0.600027 0.677062
Si Si3 0.910882 0.505358 0.325365
Si Si4 0.336085 0.847877 0.680550
Si Si5 0.160986 0.352968 0.483976
Si Si6 0.665424 0.879851 0.290751
Si Si7 0.659938 0.761221 0.832004
Si Si8 0.583669 0.875649 0.467727
O O1 0.632253 0.684539 0.913574
O O2 0.601204 0.498324 0.004072
O O3 0.502015 0.651521 0.987836
O O4 0.624606 0.679982 0.087890
O O5 0.750000 0.621531 0.668253
O O6 0.634525 0.593256 0.576570
O O7 0.653661 0.482750 0.725382
O O8 0.634293 0.698585 0.741307
O O9 0.880500 0.556865 0.233164
O O10 0.880367 0.587885 0.402302
O O11 0.875869 0.383094 0.338767
O O12 0.000000 0.500000 0.326348
O O13 0.250000 0.880787 0.666765
O O14 0.336327 0.737233 0.740758
O O15 0.250000 0.363163 0.470243
O O16 0.137662 0.224256 0.495548
O O17 0.750000 0.892244 0.329395
O O18 0.600941 0.884109 0.363008
O O19 0.750000 0.768395 0.833411
#
# Coordination Sequence:
#
# PCOD9365675 Si02
#       8
#     8   8   8   8   8   8   8   8
#     4  11  26  42  64  98 137 172 215 275 336 393
#     4   9  21  39  64  97 126 159 213 275 328 378
#     4  12  27  44  65  94 136 176 214 275 337 395
#     4  11  25  44  69  97 129 179 229 269 322 396
#     4  11  23  43  68  94 127 174 229 274 323 402
#     4  10  20  42  70  95 126 170 222 274 326 391
#     4  11  23  42  65  94 129 171 217 270 332 391
#     4  11  23  43  64  95 131 172 221 270 332 390
#
# _framework density 9.8765429999999999
#
# number of rings (size 3 to 8) (size 9 to 14) (size 15 to 20)
#    0.000    1.250    2.500    2.625    5.250    1.500 
#    0.000    0.000    0.000    0.000    0.000    0.000 
#    0.000    0.000    0.000    0.000    0.000    0.000 
#
# Total GULP energy -178746.371173 kJ/mol
# GULP energy per Si atom -5585.824099 kJ/mol
# Density = 0.985406 g / cm^3
# Si number density = 9.876543 Si / 1000 Ang^3
#
#
#
# Elastic Constant Matrix: (Units=GPa)
#
#
# Indices 1 2 3 4 5 6 
#
# 1 87.3918 28.7804 21.2339 0.0000 0.0000 0.0000
# 2 28.7804 65.9036 -4.9847 0.0000 0.0000 0.0000
# 3 21.2339 -4.9847 87.4866 0.0000 0.0000 0.0000
# 4 0.0000 0.0000 0.0000 2044.0094 0.0000 0.0000
# 5 0.0000 0.0000 0.0000 0.0000 31.9849 0.0000
# 6 0.0000 0.0000 0.0000 0.0000 0.0000 16.3947
#
#
#
# Elastic Compliance Matrix: (Units=1/GPa)
#
#
# Indices 1 2 3 4 5 6 
#
# 1 0.014592 -0.006669 -0.003922 0.000000 0.000000 0.000000
# 2 -0.006669 0.018287 0.002661 0.000000 0.000000 0.000000
# 3 -0.003922 0.002661 0.012534 0.000000 0.000000 0.000000
# 4 0.000000 0.000000 0.000000 0.000489 0.000000 0.000000
# 5 0.000000 0.000000 0.000000 0.000000 0.031265 0.000000
# 6 0.000000 0.000000 0.000000 0.000000 0.000000 0.060995
#
#
# Mechanical properties :
#
#
# Convention : Reuss Voigt Hill
#
# Bulk Modulus (GPa) = 33.83756 36.76012 35.29884
# Shear Modulus (GPa) = 30.51143 431.52797 231.01970
#
# Velocity S-wave (km/s) = 3.93446 14.79646 10.82625
# Velocity P-wave (km/s) = 6.14877 17.62282 13.19794
#
# Compressibility (1/GPa) = 0.02955296
#
# Stress axis : x y z
#
# Youngs Moduli (GPa) = 68.53169 54.68294 79.78487
#
# Poissons Ratio (x) = 0.36468 0.31288
# Poissons Ratio (y) = 0.45703 -0.21227
# Poissons Ratio (z) = 0.26875 -0.14549
#
# Static dielectric constant tensor:
#      x y z
#    x 1.666270 0.000000 0.000000 
#    y 0.000000 -10.149000 0.000000 
#    z 0.000000 0.000000 1.727910 
# 
# From -- ./inp_files/17845.got.cif
#   From: 2010.05.17/outbox.ucp.g08.bks.cvg/sg40_9_cif.got.tgz:17845.got - 2010.06.11 16:26:39.
