data_PCOD9365956
_publ_section_title
;
Structure prediction by ZEFSAII (Michael W. Deem and Ramdas Pophale) SiO2 
 PCOD9365956
Probable space group: A B A 2
;
_chemical_formula_sum "Si O2"
_cell_formula_units_Z 48
_cell_length_a 26.938136
_cell_length_b 13.358009
_cell_length_c 5.294367
_cell_angle_alpha 90.000000
_cell_angle_beta 90.000000
_cell_angle_gamma 90.000000
_cell_volume 1905.124297
_symmetry_space_group_name_H-M "A B A 2"
_symmetry_group_IT_number 41
_symmetry_cell_setting 'orthorhombic'
loop_
_space_group_symop_operation_xyz
x,y,z
-x,-y,z
1/2-x,y,1/2+z
1/2+x,-y,1/2+z
x,1/2+y,1/2+z
-x,1/2-y,1/2+z
1/2-x,1/2+y,z
1/2+x,1/2-y,z
loop_
_atom_site_type_symbol
_atom_site_label
_atom_site_fract_x
_atom_site_fract_y
_atom_site_fract_z
Si Si1 0.736609 0.590751 0.625000
Si Si2 0.875793 0.584318 0.974086
Si Si3 0.109194 0.198262 0.177713
Si Si4 0.222257 0.129044 0.166870
Si Si5 0.077258 0.490883 0.474426
Si Si6 0.527552 0.212978 0.498679
O O1 0.760476 0.645124 0.389415
O O2 0.679937 0.569338 0.567355
O O3 0.769442 0.491137 0.657616
O O4 0.888511 0.701148 0.010143
O O5 0.907778 0.522730 0.180997
O O6 0.884495 0.551697 0.687702
O O7 0.165818 0.161510 0.218000
O O8 0.080551 0.235664 0.428094
O O9 0.078470 0.107448 0.050405
O O10 0.260226 0.158629 0.387851
O O11 0.034043 0.407656 0.509816
O O12 0.504909 0.255365 0.755306
#
# Coordination Sequence:
#
# PCOD9365956 Si02
#       6
#     8   8   8   8   8   8
#     4  10  19  35  58  89 137 183 224 282 338 396
#     4  11  24  42  67 102 142 184 234 289 347 420
#     4  11  26  46  76 105 142 197 242 291 368 435
#     4  10  21  37  62  99 138 179 234 284 339 422
#     4  11  24  46  73 102 139 179 232 297 354 427
#     4  11  26  50  74 106 144 183 242 309 372 437
#
# _framework density 25.195205000000001
#
# number of rings (size 3 to 8) (size 9 to 14) (size 15 to 20)
#    0.000    1.333    0.000    7.000    0.000   10.000 
#    0.000    5.000    0.000    0.000    0.000    0.000 
#    0.000    0.000    0.000    0.000    0.000    0.000 
#
# Total GULP energy -134203.352890 kJ/mol
# GULP energy per Si atom -5591.806370 kJ/mol
# Density = 2.513786 g / cm^3
# Si number density = 25.195205 Si / 1000 Ang^3
#
#
#
# Elastic Constant Matrix: (Units=GPa)
#
#
# Indices 1 2 3 4 5 6 
#
# 1 77.9527 8.9437 41.4298 0.0000 0.0000 0.0000
# 2 8.9437 192.2827 11.8369 0.0000 0.0000 0.0000
# 3 41.4298 11.8369 124.3395 0.0000 0.0000 0.0000
# 4 0.0000 0.0000 0.0000 -7.9059 0.0000 0.0000
# 5 0.0000 0.0000 0.0000 0.0000 48.0415 0.0000
# 6 0.0000 0.0000 0.0000 0.0000 0.0000 52.3106
#
#
#
# Elastic Compliance Matrix: (Units=1/GPa)
#
#
# Indices 1 2 3 4 5 6 
#
# 1 0.015621 -0.000409 -0.005166 0.000000 0.000000 0.000000
# 2 -0.000409 0.005242 -0.000363 0.000000 0.000000 0.000000
# 3 -0.005166 -0.000363 0.009798 0.000000 0.000000 0.000000
# 4 0.000000 0.000000 0.000000 -0.126488 0.000000 0.000000
# 5 0.000000 0.000000 0.000000 0.000000 0.020815 0.000000
# 6 0.000000 0.000000 0.000000 0.000000 0.000000 0.019117
#
#
# Mechanical properties :
#
#
# Convention : Reuss Voigt Hill
#
# Bulk Modulus (GPa) = 53.23025 57.66620 55.44822
# Shear Modulus (GPa) = -132.42137 40.64689 -45.88724
#
# Velocity S-wave (km/s) = -7.25757 4.02092 -4.27226
# Velocity P-wave (km/s) = 7.00405 6.67042 1.51032
#
# Compressibility (1/GPa) = 0.01878631
#
# Stress axis : x y z
#
# Youngs Moduli (GPa) = 64.01763 190.76622 102.05836
#
# Poissons Ratio (x) = 0.07794 0.52722
# Poissons Ratio (y) = 0.02615 0.03704
# Poissons Ratio (z) = 0.33071 0.06923
#
# Static dielectric constant tensor:
#      x y z
#    x 1.996390 0.000000 0.000000 
#    y 0.000000 2.042590 0.000000 
#    z 0.000000 0.000000 2.059960 
# 
# From -- ./inp_files/1313.got.cif
#   From: 2010.05.17/outbox.cif.g08.bks.cpg/sg41_1_cif.got.tgz:1313.got - 2010.06.03 18:54:24.
