data_PCOD9365618
_publ_section_title
;
Structure prediction by ZEFSAII (Michael W. Deem and Ramdas Pophale) SiO2 
 PCOD9365618
Probable space group: A M A 2
;
_chemical_formula_sum "Si O2"
_cell_formula_units_Z 32
_cell_length_a 9.000000
_cell_length_b 30.000000
_cell_length_c 12.000000
_cell_angle_alpha 90.000000
_cell_angle_beta 90.000000
_cell_angle_gamma 90.000000
_cell_volume 3240.000000
_symmetry_space_group_name_H-M "A M A 2"
_symmetry_group_IT_number 40
_symmetry_cell_setting 'orthorhombic'
loop_
_space_group_symop_operation_xyz
x,y,z
-x,-y,z
1/2-x,y,z
1/2+x,-y,z
x,1/2+y,1/2+z
-x,1/2-y,1/2+z
1/2-x,1/2+y,1/2+z
1/2+x,1/2-y,1/2+z
loop_
_atom_site_type_symbol
_atom_site_label
_atom_site_fract_x
_atom_site_fract_y
_atom_site_fract_z
Si Si1 0.416533 0.916941 0.727060
Si Si2 0.426054 0.547097 0.772165
Si Si3 0.427022 0.308485 0.032575
Si Si4 0.070602 0.119045 0.087249
Si Si5 0.576185 0.092094 0.473219
Si Si6 0.073495 0.210249 0.997225
Si Si7 0.919202 0.044036 0.952187
Si Si8 0.419831 0.170456 0.753025
O O1 0.250000 0.895913 0.740175
O O2 0.429790 0.927524 0.597813
O O3 0.420772 0.955122 0.818158
O O4 0.543402 0.881597 0.754209
O O5 0.500000 0.500000 0.742727
O O6 0.250000 0.541602 0.765294
O O7 0.467620 0.589498 0.694878
O O8 0.479528 0.562207 0.893021
O O9 0.250000 0.309154 0.016335
O O10 0.468632 0.310325 0.162180
O O11 0.477817 0.356000 0.980882
O O12 0.488427 0.260430 0.995505
O O13 0.250000 0.119460 0.075035
O O14 0.018175 0.170465 0.078573
O O15 0.999086 0.088896 0.991245
O O16 0.750000 0.092023 0.438200
O O17 0.250000 0.214865 0.021713
O O18 0.058023 0.190531 0.874176
O O19 0.750000 0.044392 0.991468
O O20 0.000000 0.000000 0.992980
O O21 0.250000 0.178493 0.718474
#
# Coordination Sequence:
#
# PCOD9365618 Si02
#       8
#     8   8   8   8   8   8   8   8
#     4   9  19  36  56  80 109 144 180 223 283 343
#     4  11  24  40  60  83 113 153 199 246 296 350
#     4   9  19  36  56  81 116 157 191 232 292 348
#     4  10  21  39  59  82 113 151 193 237 289 346
#     4   9  19  37  59  81 113 151 191 234 285 344
#     4   9  18  34  57  82 112 152 192 231 287 346
#     4  11  22  35  55  83 113 143 182 228 281 341
#     4  10  18  31  54  80 108 143 185 233 280 334
#
# _framework density 9.8765429999999999
#
# number of rings (size 3 to 8) (size 9 to 14) (size 15 to 20)
#    0.000    2.250    1.250    2.250    0.000    6.000 
#    0.000    3.125    0.000    0.000    0.000    0.000 
#    0.000    0.000    0.000    0.000    0.000    0.000 
#
# Total GULP energy -178187.007809 kJ/mol
# GULP energy per Si atom -5568.343994 kJ/mol
# Density = 0.985406 g / cm^3
# Si number density = 9.876543 Si / 1000 Ang^3
#
#
#
# Elastic Constant Matrix: (Units=GPa)
#
#
# Indices 1 2 3 4 5 6 
#
# 1 -4.9849 4.7178 17.1438 0.0000 0.0000 0.0000
# 2 4.7178 49.7107 29.8168 0.0000 0.0000 0.0000
# 3 17.1438 29.8168 48.5216 0.0000 0.0000 0.0000
# 4 0.0000 0.0000 0.0000 -1.2587 0.0000 0.0000
# 5 0.0000 0.0000 0.0000 0.0000 16.1311 0.0000
# 6 0.0000 0.0000 0.0000 0.0000 0.0000 16.9502
#
#
#
# Elastic Compliance Matrix: (Units=1/GPa)
#
#
# Indices 1 2 3 4 5 6 
#
# 1 -0.082506 -0.015291 0.038548 0.000000 0.000000 0.000000
# 2 -0.015291 0.029025 -0.012434 0.000000 0.000000 0.000000
# 3 0.038548 -0.012434 0.014630 0.000000 0.000000 0.000000
# 4 0.000000 0.000000 0.000000 -0.794470 0.000000 0.000000
# 5 0.000000 0.000000 0.000000 0.000000 0.061992 0.000000
# 6 0.000000 0.000000 0.000000 0.000000 0.000000 0.058996
#
#
# Mechanical properties :
#
#
# Convention : Reuss Voigt Hill
#
# Bulk Modulus (GPa) = -58.12487 21.84490 -18.13998
# Shear Modulus (GPa) = -6.75938 9.13577 1.18820
#
# Velocity S-wave (km/s) = -1.85185 2.15291 0.77642
# Velocity P-wave (km/s) = 5.83627 4.15488 2.89819
#
# Compressibility (1/GPa) = -0.01720434
#
# Stress axis : x y z
#
# Youngs Moduli (GPa) = -12.12033 34.45270 68.35215
#
# Poissons Ratio (x) = 0.52682 -2.63482
# Poissons Ratio (y) = -0.18533 0.84986
# Poissons Ratio (z) = 0.46721 0.42837
#
# Static dielectric constant tensor:
#      x y z
#    x 1.688180 0.000000 0.000000 
#    y 0.000000 1.722470 0.000000 
#    z 0.000000 0.000000 1.737600 
# 
# From -- ./inp_files/10547.got.cif
#   From: 2010.05.17/outbox.ucp.g08.bks.cvg/sg40_6_cif.got.tgz:10547.got - 2010.06.11 16:26:39.
