data_PCOD9365985
_publ_section_title
;
Structure prediction by ZEFSAII (Michael W. Deem and Ramdas Pophale) SiO2 
 PCOD9365985
Probable space group: A B A 2
;
_chemical_formula_sum "Si O2"
_cell_formula_units_Z 64
_cell_length_a 17.609333
_cell_length_b 14.685910
_cell_length_c 14.690754
_cell_angle_alpha 90.000000
_cell_angle_beta 90.000000
_cell_angle_gamma 90.000000
_cell_volume 3799.162371
_symmetry_space_group_name_H-M "A B A 2"
_symmetry_group_IT_number 41
_symmetry_cell_setting 'orthorhombic'
loop_
_space_group_symop_operation_xyz
x,y,z
-x,-y,z
1/2-x,y,1/2+z
1/2+x,-y,1/2+z
x,1/2+y,1/2+z
-x,1/2-y,1/2+z
1/2-x,1/2+y,z
1/2+x,1/2-y,z
loop_
_atom_site_type_symbol
_atom_site_label
_atom_site_fract_x
_atom_site_fract_y
_atom_site_fract_z
Si Si1 0.184771 0.576215 0.817490
Si Si2 0.423076 0.698028 0.440408
Si Si3 0.175326 0.325775 0.567885
Si Si4 0.576948 0.546719 0.195638
Si Si5 0.923074 0.198020 0.346723
Si Si6 0.175327 0.174232 0.719247
Si Si7 0.315226 0.423799 0.469644
Si Si8 0.576950 0.453278 0.591493
O O1 0.132965 0.650384 0.868562
O O2 0.132826 0.525229 0.743412
O O3 0.255138 0.624769 0.768836
O O4 0.207199 0.500012 0.893572
O O5 0.376523 0.773553 0.494833
O O6 0.500002 0.731531 0.393567
O O7 0.445002 0.618986 0.512564
O O8 0.123671 0.398968 0.620196
O O9 0.199831 0.250004 0.643566
O O10 0.244859 0.375226 0.518279
O O11 0.500000 0.500000 0.162024
O O12 0.554991 0.618997 0.274552
O O13 0.876508 0.273545 0.292313
O O14 0.867044 0.150354 0.418565
O O15 0.123657 0.101051 0.666939
O O16 0.367159 0.474776 0.543741
O O17 0.500000 0.500000 0.625098
#
# Coordination Sequence:
#
# PCOD9365985 Si02
#       8
#     8   8   8   8   8   8   8   8
#     4  10  20  36  62  80 105 145 186 218 263 329
#     4  10  19  36  59  80 108 145 187 219 261 322
#     4  10  22  38  52  84 117 137 174 232 275 313
#     4  10  19  36  59  80 108 145 187 219 261 322
#     4  10  19  36  59  80 108 145 187 219 261 322
#     4  10  22  38  52  84 117 137 174 232 275 313
#     4  10  20  36  62  80 105 145 186 218 263 329
#     4  10  19  36  59  80 108 145 187 219 261 322
#
# _framework density 16.845818999999999
#
# number of rings (size 3 to 8) (size 9 to 14) (size 15 to 20)
#    0.000    2.000    2.500    1.500    0.000    0.000 
#    9.000    0.000    0.000    0.000    0.000    0.000 
#    0.000    0.000    0.000    0.000    0.000    0.000 
#
# Total GULP energy -178577.671254 kJ/mol
# GULP energy per Si atom -5580.552227 kJ/mol
# Density = 1.680748 g / cm^3
# Si number density = 16.845819 Si / 1000 Ang^3
#
#
#
# Elastic Constant Matrix: (Units=GPa)
#
#
# Indices 1 2 3 4 5 6 
#
# 1 132.8803 76.6253 77.8633 0.0000 0.0000 0.0000
# 2 76.6253 85.8686 83.9216 0.0000 0.0000 0.0000
# 3 77.8633 83.9216 88.4172 0.0000 0.0000 0.0000
# 4 0.0000 0.0000 0.0000 35.0325 0.0000 0.0000
# 5 0.0000 0.0000 0.0000 0.0000 9.1678 0.0000
# 6 0.0000 0.0000 0.0000 0.0000 0.0000 9.1785
#
#
#
# Elastic Compliance Matrix: (Units=1/GPa)
#
#
# Indices 1 2 3 4 5 6 
#
# 1 0.015843 -0.006937 -0.007367 0.000000 0.000000 0.000000
# 2 -0.006937 0.163965 -0.149519 0.000000 0.000000 0.000000
# 3 -0.007367 -0.149519 0.159714 0.000000 0.000000 0.000000
# 4 0.000000 0.000000 0.000000 0.028545 0.000000 0.000000
# 5 0.000000 0.000000 0.000000 0.000000 0.109078 0.000000
# 6 0.000000 0.000000 0.000000 0.000000 0.000000 0.108950
#
#
# Mechanical properties :
#
#
# Convention : Reuss Voigt Hill
#
# Bulk Modulus (GPa) = 84.20750 87.10961 85.65855
# Shear Modulus (GPa) = 5.44840 15.25948 10.35394
#
# Velocity S-wave (km/s) = 1.80036 3.01297 2.48186
# Velocity P-wave (km/s) = 7.37682 7.99538 7.69232
#
# Compressibility (1/GPa) = 0.01187543
#
# Stress axis : x y z
#
# Youngs Moduli (GPa) = 63.11963 6.09886 6.26119
#
# Poissons Ratio (x) = 0.04231 0.04613
# Poissons Ratio (y) = 0.43789 0.93616
# Poissons Ratio (z) = 0.46501 0.91189
#
# Static dielectric constant tensor:
#      x y z
#    x 1.532620 0.000000 0.000000 
#    y 0.000000 1.561460 0.000000 
#    z 0.000000 0.000000 1.561540 
# 
# From -- ./inp_files/6049.got.cif
#   From: 2010.05.17/outbox.cif.g08.bks.cpg/sg41_4_cif.got.tgz:6049.got - 2010.06.03 18:54:24.
