data_PCOD9365503
_publ_section_title
;
Structure prediction by ZEFSAII (Michael W. Deem and Ramdas Pophale) SiO2 
 PCOD9365503
Probable space group: A M A 2
;
_chemical_formula_sum "Si O2"
_cell_formula_units_Z 64
_cell_length_a 20.273648
_cell_length_b 6.839393
_cell_length_c 18.747018
_cell_angle_alpha 90.000000
_cell_angle_beta 90.000000
_cell_angle_gamma 90.000000
_cell_volume 2599.451134
_symmetry_space_group_name_H-M "A M A 2"
_symmetry_group_IT_number 40
_symmetry_cell_setting 'orthorhombic'
loop_
_space_group_symop_operation_xyz
x,y,z
-x,-y,z
1/2-x,y,z
1/2+x,-y,z
x,1/2+y,1/2+z
-x,1/2-y,1/2+z
1/2-x,1/2+y,1/2+z
1/2+x,1/2-y,1/2+z
loop_
_atom_site_type_symbol
_atom_site_label
_atom_site_fract_x
_atom_site_fract_y
_atom_site_fract_z
Si Si1 0.603129 0.783812 0.895520
Si Si2 0.176053 0.592165 0.629660
Si Si3 0.322036 0.574406 0.926391
Si Si4 0.448034 0.219630 0.044560
Si Si5 0.090445 0.173778 0.551451
Si Si6 0.177066 0.553847 0.169652
Si Si7 0.075334 0.440634 0.286028
Si Si8 0.877775 0.971615 0.281454
O O1 0.663237 0.661440 0.930806
O O2 0.610192 0.992600 0.859565
O O3 0.587603 0.642032 0.827694
O O4 0.551248 0.796938 0.958736
O O5 0.250000 0.535659 0.605306
O O6 0.113126 0.594585 0.576073
O O7 0.156819 0.493327 0.705990
O O8 0.181564 0.826024 0.646736
O O9 0.250000 0.620912 0.954296
O O10 0.326465 0.605958 0.841547
O O11 0.379203 0.677370 0.971998
O O12 0.430961 0.446191 0.060935
O O13 0.524514 0.203097 0.067094
O O14 0.152039 0.187836 0.604801
O O15 0.250000 0.608723 0.196173
O O16 0.118876 0.548798 0.226862
O O17 0.075545 0.211945 0.269440
O O18 0.000000 0.500000 0.288896
#
# Coordination Sequence:
#
# PCOD9365503 Si02
#       8
#     8   8   8   8   8   8   8   8
#     4   9  22  39  60  91 124 163 211 260 320 379
#     4   9  17  33  57  86 121 164 209 258 317 380
#     4   9  18  34  60  91 118 161 212 256 317 380
#     4   9  18  31  56  87 121 163 206 260 313 375
#     4   9  17  29  56  84 119 156 205 254 309 374
#     4   9  19  34  53  85 120 153 201 257 305 367
#     4  11  24  37  63  92 123 167 209 255 320 384
#     4   9  21  37  62  90 124 164 209 262 315 380
#
# _framework density 24.620583
#
# number of rings (size 3 to 8) (size 9 to 14) (size 15 to 20)
#    0.750    2.000    0.000    0.750    7.000    5.500 
#    0.000    0.000    2.750    0.000    0.000    0.000 
#    0.000    0.000    0.000    0.000    0.000    0.000 
#
# Total GULP energy -178402.246132 kJ/mol
# GULP energy per Si atom -5575.070192 kJ/mol
# Density = 2.456455 g / cm^3
# Si number density = 24.620583 Si / 1000 Ang^3
#
#
#
# Elastic Constant Matrix: (Units=GPa)
#
#
# Indices 1 2 3 4 5 6 
#
# 1 130.5597 31.7344 55.2386 0.0000 0.0000 0.0000
# 2 31.7344 65.2439 27.7865 0.0000 0.0000 0.0000
# 3 55.2386 27.7865 105.4658 0.0000 0.0000 0.0000
# 4 0.0000 0.0000 0.0000 22.7066 0.0000 0.0000
# 5 0.0000 0.0000 0.0000 0.0000 14.5207 0.0000
# 6 0.0000 0.0000 0.0000 0.0000 0.0000 13.7349
#
#
#
# Elastic Compliance Matrix: (Units=1/GPa)
#
#
# Indices 1 2 3 4 5 6 
#
# 1 0.010359 -0.003073 -0.004616 0.000000 0.000000 0.000000
# 2 -0.003073 0.018176 -0.003179 0.000000 0.000000 0.000000
# 3 -0.004616 -0.003179 0.012737 0.000000 0.000000 0.000000
# 4 0.000000 0.000000 0.000000 0.044040 0.000000 0.000000
# 5 0.000000 0.000000 0.000000 0.000000 0.068867 0.000000
# 6 0.000000 0.000000 0.000000 0.000000 0.000000 0.072807
#
#
# Mechanical properties :
#
#
# Convention : Reuss Voigt Hill
#
# Bulk Modulus (GPa) = 51.18841 58.97649 55.08245
# Shear Modulus (GPa) = 19.58982 22.62644 21.10813
#
# Velocity S-wave (km/s) = 2.82382 3.03480 2.93121
# Velocity P-wave (km/s) = 5.60963 6.02380 5.82040
#
# Compressibility (1/GPa) = 0.01953567
#
# Stress axis : x y z
#
# Youngs Moduli (GPa) = 96.53183 55.01858 78.51049
#
# Poissons Ratio (x) = 0.16906 0.36242
# Poissons Ratio (y) = 0.29662 0.24961
# Poissons Ratio (z) = 0.44561 0.17492
#
# Static dielectric constant tensor:
#      x y z
#    x 1.900850 0.000000 0.000000 
#    y 0.000000 2.107690 0.000000 
#    z 0.000000 0.000000 1.972800 
# 
# From -- ./inp_files/21385.got.cif
#   From: 2010.05.17/outbox.cif.g08.bks.cpg/sg40_11_cif.got.tgz:21385.got - 2010.06.03 18:35:42.
