data_PCOD9365462
_publ_section_title
;
Structure prediction by ZEFSAII (Michael W. Deem and Ramdas Pophale) SiO2 
 PCOD9365462
Probable space group: A M A 2
;
_chemical_formula_sum "Si O2"
_cell_formula_units_Z 48
_cell_length_a 15.078632
_cell_length_b 8.595991
_cell_length_c 18.104228
_cell_angle_alpha 90.000000
_cell_angle_beta 90.000000
_cell_angle_gamma 90.000000
_cell_volume 2346.593723
_symmetry_space_group_name_H-M "A M A 2"
_symmetry_group_IT_number 40
_symmetry_cell_setting 'orthorhombic'
loop_
_space_group_symop_operation_xyz
x,y,z
-x,-y,z
1/2-x,y,z
1/2+x,-y,z
x,1/2+y,1/2+z
-x,1/2-y,1/2+z
1/2-x,1/2+y,1/2+z
1/2+x,1/2-y,1/2+z
loop_
_atom_site_type_symbol
_atom_site_label
_atom_site_fract_x
_atom_site_fract_y
_atom_site_fract_z
Si Si1 0.750000 0.688257 0.233871
Si Si2 0.069352 0.885856 0.308193
Si Si3 0.404862 0.536669 0.476291
Si Si4 0.750000 0.994572 0.579730
Si Si5 0.091512 0.911637 0.473929
Si Si6 0.068075 0.891232 0.814494
Si Si7 0.750000 0.125903 0.066563
Si Si8 0.250000 0.442429 0.733219
O O1 0.750000 0.606186 0.152414
O O2 0.841740 0.636578 0.271892
O O3 0.750000 0.873832 0.250524
O O4 0.103462 0.951871 0.386986
O O5 0.159659 0.860913 0.262896
O O6 0.998977 0.751369 0.329188
O O7 0.000000 0.000000 0.267380
O O8 0.500000 0.500000 0.510218
O O9 0.398842 0.723542 0.477172
O O10 0.406402 0.472164 0.392146
O O11 0.332613 0.438641 0.520077
O O12 0.750000 0.807887 0.587466
O O13 0.834757 0.029566 0.529351
O O14 0.000000 0.000000 0.493806
O O15 0.000000 0.000000 0.769535
O O16 0.750000 0.048847 0.145801
#
# Coordination Sequence:
#
# PCOD9365462 Si02
#       8
#     4   8   8   4   8   8   4   4
#     4  12  27  48  67  97 145 188 226 284 347 420
#     4  11  23  43  74 105 131 174 234 288 344 408
#     4  11  22  45  71 101 134 177 225 284 344 401
#     4  12  29  44  65 101 137 184 230 282 341 414
#     4  11  23  44  73 100 136 175 230 283 337 405
#     4  11  24  44  74 105 134 176 231 288 348 409
#     4  12  29  44  67 101 140 183 231 279 349 414
#     4  12  27  46  69  97 142 187 227 279 353 416
#
# _framework density 20.455179999999999
#
# number of rings (size 3 to 8) (size 9 to 14) (size 15 to 20)
#    0.000    0.667    5.000    3.500    4.667    2.667 
#    3.000    0.000    0.000    0.000    0.000    0.000 
#    0.000    0.000    0.000    0.000    0.000    0.000 
#
# Total GULP energy -133695.230961 kJ/mol
# GULP energy per Si atom -5570.634623 kJ/mol
# Density = 2.040862 g / cm^3
# Si number density = 20.455180 Si / 1000 Ang^3
#
#
#
# Elastic Constant Matrix: (Units=GPa)
#
#
# Indices 1 2 3 4 5 6 
#
# 1 155.6523 10.8309 61.4738 0.0000 0.0000 0.0000
# 2 10.8309 65.8951 -4.9868 0.0000 0.0000 0.0000
# 3 61.4738 -4.9868 72.4632 0.0000 0.0000 0.0000
# 4 0.0000 0.0000 0.0000 19.2071 0.0000 0.0000
# 5 0.0000 0.0000 0.0000 0.0000 -535.6412 0.0000
# 6 0.0000 0.0000 0.0000 0.0000 0.0000 27.1582
#
#
#
# Elastic Compliance Matrix: (Units=1/GPa)
#
#
# Indices 1 2 3 4 5 6 
#
# 1 0.009996 -0.002297 -0.008638 0.000000 0.000000 0.000000
# 2 -0.002297 0.015783 0.003035 0.000000 0.000000 0.000000
# 3 -0.008638 0.003035 0.021337 0.000000 0.000000 0.000000
# 4 0.000000 0.000000 0.000000 0.052064 0.000000 0.000000
# 5 0.000000 0.000000 0.000000 0.000000 -0.001867 0.000000
# 6 0.000000 0.000000 0.000000 0.000000 0.000000 0.036821
#
#
# Mechanical properties :
#
#
# Convention : Reuss Voigt Hill
#
# Bulk Modulus (GPa) = 31.93332 47.62739 39.78035
# Shear Modulus (GPa) = 31.17729 -82.74235 -25.78253
#
# Velocity S-wave (km/s) = 3.90831 -6.36698 -3.55412
# Velocity P-wave (km/s) = 6.00098 5.54228 1.62709
#
# Compressibility (1/GPa) = 0.03131525
#
# Stress axis : x y z
#
# Youngs Moduli (GPa) = 100.04073 63.36024 46.86697
#
# Poissons Ratio (x) = 0.14552 0.40484
# Poissons Ratio (y) = 0.22976 -0.14222
# Poissons Ratio (z) = 0.86416 -0.19227
#
# Static dielectric constant tensor:
#      x y z
#    x 1.634900 0.000000 0.000000 
#    y 0.000000 2.188460 0.000000 
#    z 0.000000 0.000000 1.693840 
# 
# From -- ./inp_files/20614.got.cif
#   From: 2010.05.17/outbox.cif.g08.bks.cpg/sg40_11_cif.got.tgz:20614.got - 2010.06.03 18:35:42.
