data_PCOD9365421
_publ_section_title
;
Structure prediction by ZEFSAII (Michael W. Deem and Ramdas Pophale) SiO2 
 PCOD9365421
Probable space group: A M A 2
;
_chemical_formula_sum "Si O2"
_cell_formula_units_Z 64
_cell_length_a 19.018234
_cell_length_b 14.916283
_cell_length_c 12.177237
_cell_angle_alpha 90.000000
_cell_angle_beta 90.000000
_cell_angle_gamma 90.000000
_cell_volume 3454.455159
_symmetry_space_group_name_H-M "A M A 2"
_symmetry_group_IT_number 40
_symmetry_cell_setting 'orthorhombic'
loop_
_space_group_symop_operation_xyz
x,y,z
-x,-y,z
1/2-x,y,z
1/2+x,-y,z
x,1/2+y,1/2+z
-x,1/2-y,1/2+z
1/2-x,1/2+y,1/2+z
1/2+x,1/2-y,1/2+z
loop_
_atom_site_type_symbol
_atom_site_label
_atom_site_fract_x
_atom_site_fract_y
_atom_site_fract_z
Si Si1 0.075434 0.203657 0.267370
Si Si2 0.419215 0.219308 0.805211
Si Si3 0.667735 0.121438 0.800981
Si Si4 0.580513 0.967944 0.416850
Si Si5 0.080606 0.532187 0.178220
Si Si6 0.395846 0.929030 0.027520
Si Si7 0.053055 0.630290 0.528866
Si Si8 0.166462 0.895865 0.266358
O O1 0.128887 0.285816 0.273908
O O2 0.088918 0.128487 0.359397
O O3 0.078791 0.158133 0.148387
O O4 0.996422 0.241222 0.280084
O O5 0.409529 0.128976 0.734433
O O6 0.362219 0.295255 0.782102
O O7 0.419561 0.193729 0.933213
O O8 0.750000 0.125241 0.777475
O O9 0.653497 0.102979 0.929585
O O10 0.630575 0.041501 0.733691
O O11 0.592522 0.963390 0.547317
O O12 0.500000 0.000000 0.398529
O O13 0.630010 0.039436 0.355754
O O14 0.000000 0.500000 0.197112
O O15 0.468010 0.871659 0.028156
O O16 0.359736 0.924938 0.145643
O O17 0.420381 0.030313 0.004664
O O18 0.250000 0.900608 0.274391
#
# Coordination Sequence:
#
# PCOD9365421 Si02
#       8
#     8   8   8   8   8   8   8   8
#     4  12  24  41  70 102 130 172 226 275 324 395
#     4  12  24  41  70 102 130 172 226 275 324 395
#     4  12  27  45  66  99 139 176 215 273 343 397
#     4  11  24  44  70  99 131 174 225 273 324 392
#     4  11  24  44  70  99 131 174 225 273 324 392
#     4  11  21  44  70  97 129 172 224 277 332 390
#     4  11  22  40  74  98 124 171 235 279 316 389
#     4  12  27  45  66  99 139 176 215 273 343 397
#
# _framework density 18.526800999999999
#
# number of rings (size 3 to 8) (size 9 to 14) (size 15 to 20)
#    0.000    0.500    7.500    0.375    5.250    1.500 
#    0.000    0.000    0.000    0.000    0.000    0.000 
#    0.000    0.000    0.000    0.000    0.000    0.000 
#
# Total GULP energy -178989.664715 kJ/mol
# GULP energy per Si atom -5593.427022 kJ/mol
# Density = 1.848463 g / cm^3
# Si number density = 18.526801 Si / 1000 Ang^3
#
#
#
# Elastic Constant Matrix: (Units=GPa)
#
#
# Indices 1 2 3 4 5 6 
#
# 1 111.4180 32.2896 22.2982 0.0000 0.0000 0.0000
# 2 32.2896 103.5858 17.8670 0.0000 0.0000 0.0000
# 3 22.2982 17.8670 75.0372 0.0000 0.0000 0.0000
# 4 0.0000 0.0000 0.0000 25.4308 0.0000 0.0000
# 5 0.0000 0.0000 0.0000 0.0000 9.1171 0.0000
# 6 0.0000 0.0000 0.0000 0.0000 0.0000 26.2840
#
#
#
# Elastic Compliance Matrix: (Units=1/GPa)
#
#
# Indices 1 2 3 4 5 6 
#
# 1 0.010260 -0.002787 -0.002385 0.000000 0.000000 0.000000
# 2 -0.002787 0.010824 -0.001749 0.000000 0.000000 0.000000
# 3 -0.002385 -0.001749 0.014452 0.000000 0.000000 0.000000
# 4 0.000000 0.000000 0.000000 0.039322 0.000000 0.000000
# 5 0.000000 0.000000 0.000000 0.000000 0.109684 0.000000
# 6 0.000000 0.000000 0.000000 0.000000 0.000000 0.038046
#
#
# Mechanical properties :
#
#
# Convention : Reuss Voigt Hill
#
# Bulk Modulus (GPa) = 46.09636 48.32785 47.21210
# Shear Modulus (GPa) = 20.52013 26.67212 23.59612
#
# Velocity S-wave (km/s) = 3.33166 3.79839 3.57265
# Velocity P-wave (km/s) = 6.30356 6.73639 6.52357
#
# Compressibility (1/GPa) = 0.02169369
#
# Stress axis : x y z
#
# Youngs Moduli (GPa) = 97.46354 92.38512 69.19421
#
# Poissons Ratio (x) = 0.25746 0.16505
# Poissons Ratio (y) = 0.27162 0.12103
# Poissons Ratio (z) = 0.23249 0.16160
#
# Static dielectric constant tensor:
#      x y z
#    x 1.602590 0.000000 0.000000 
#    y 0.000000 1.630580 0.000000 
#    z 0.000000 0.000000 1.625710 
# 
# From -- ./inp_files/13124.got.cif
#   From: 2010.05.17/outbox.cif.g08.bks.cpg/sg40_7_cif.got.tgz:13124.got - 2010.06.03 18:35:42.
