data_PCOD9365909
_publ_section_title
;
Structure prediction by ZEFSAII (Michael W. Deem and Ramdas Pophale) SiO2 
 PCOD9365909
Probable space group: A B A 2
;
_chemical_formula_sum "Si O2"
_cell_formula_units_Z 64
_cell_length_a 21.597266
_cell_length_b 12.850399
_cell_length_c 12.696908
_cell_angle_alpha 90.000000
_cell_angle_beta 90.000000
_cell_angle_gamma 90.000000
_cell_volume 3523.817131
_symmetry_space_group_name_H-M "A B A 2"
_symmetry_group_IT_number 41
_symmetry_cell_setting 'orthorhombic'
loop_
_space_group_symop_operation_xyz
x,y,z
-x,-y,z
1/2-x,y,1/2+z
1/2+x,-y,1/2+z
x,1/2+y,1/2+z
-x,1/2-y,1/2+z
1/2-x,1/2+y,z
1/2+x,1/2-y,z
loop_
_atom_site_type_symbol
_atom_site_label
_atom_site_fract_x
_atom_site_fract_y
_atom_site_fract_z
Si Si1 0.058612 0.253247 0.751290
Si Si2 0.434918 0.485145 0.343564
Si Si3 0.062577 0.662878 0.660831
Si Si4 0.182905 0.312349 0.659195
Si Si5 0.557820 0.425451 0.924737
Si Si6 0.184477 0.984929 0.986415
Si Si7 0.798958 0.338133 0.662847
Si Si8 0.199794 0.989555 0.337006
O O1 0.063769 0.367085 0.804203
O O2 0.120731 0.246754 0.681572
O O3 0.058240 0.166115 0.840001
O O4 0.993487 0.260815 0.689995
O O5 0.500000 0.500000 0.403513
O O6 0.437064 0.564557 0.242888
O O7 0.367362 0.502281 0.392729
O O8 0.052605 0.619480 0.543582
O O9 0.131756 0.709531 0.668592
O O10 0.172851 0.383807 0.557309
O O11 0.243640 0.242111 0.648913
O O12 0.193577 0.393509 0.755450
O O13 0.500000 0.500000 0.905793
O O14 0.622864 0.486495 0.922504
O O15 0.244105 0.970616 0.914562
O O16 0.197640 0.080595 0.066174
O O17 0.788702 0.407423 0.767320
#
# Coordination Sequence:
#
# PCOD9365909 Si02
#       8
#     8   8   8   8   8   8   8   8
#     4  10  19  33  56  81 105 136 176 220 264 315
#     4   8  15  32  56  77 103 138 175 216 261 312
#     4   9  18  36  57  77 106 139 178 220 264 321
#     4  10  20  35  55  78 107 143 180 220 266 316
#     4  11  21  34  55  80 106 138 179 219 263 318
#     4  10  21  36  55  78 108 145 181 219 266 320
#     4   9  19  34  52  77 106 140 178 223 269 313
#     4   9  18  32  52  78 106 135 178 227 265 309
#
# _framework density 18.162123000000001
#
# number of rings (size 3 to 8) (size 9 to 14) (size 15 to 20)
#    0.000    2.500    0.000    4.875    0.000    6.000 
#    0.000    6.250    0.000    2.250    0.000    0.000 
#    0.000    0.000    0.000    0.000    0.000    0.000 
#
# Total GULP energy -178376.161023 kJ/mol
# GULP energy per Si atom -5574.255032 kJ/mol
# Density = 1.812079 g / cm^3
# Si number density = 18.162123 Si / 1000 Ang^3
#
#
#
# Elastic Constant Matrix: (Units=GPa)
#
#
# Indices 1 2 3 4 5 6 
#
# 1 149.3798 51.1665 49.4794 0.0000 0.0000 0.0000
# 2 51.1665 59.4056 17.6608 0.0000 0.0000 0.0000
# 3 49.4794 17.6608 56.1669 0.0000 0.0000 0.0000
# 4 0.0000 0.0000 0.0000 11.8070 0.0000 0.0000
# 5 0.0000 0.0000 0.0000 0.0000 26.2297 0.0000
# 6 0.0000 0.0000 0.0000 0.0000 0.0000 33.0204
#
#
#
# Elastic Compliance Matrix: (Units=1/GPa)
#
#
# Indices 1 2 3 4 5 6 
#
# 1 0.012159 -0.008040 -0.008183 0.000000 0.000000 0.000000
# 2 -0.008040 0.023885 -0.000428 0.000000 0.000000 0.000000
# 3 -0.008183 -0.000428 0.025147 0.000000 0.000000 0.000000
# 4 0.000000 0.000000 0.000000 0.084695 0.000000 0.000000
# 5 0.000000 0.000000 0.000000 0.000000 0.038125 0.000000
# 6 0.000000 0.000000 0.000000 0.000000 0.000000 0.030284
#
#
# Mechanical properties :
#
#
# Convention : Reuss Voigt Hill
#
# Bulk Modulus (GPa) = 35.85516 55.72953 45.79234
# Shear Modulus (GPa) = 19.46332 23.98778 21.72555
#
# Velocity S-wave (km/s) = 3.27715 3.63817 3.46237
# Velocity P-wave (km/s) = 5.83988 6.95697 6.42276
#
# Compressibility (1/GPa) = 0.02788999
#
# Stress axis : x y z
#
# Youngs Moduli (GPa) = 82.24655 41.86696 39.76557
#
# Poissons Ratio (x) = 0.33659 0.32540
# Poissons Ratio (y) = 0.66122 0.01702
# Poissons Ratio (z) = 0.67302 0.01792
#
# Static dielectric constant tensor:
#      x y z
#    x 1.665010 0.000000 0.000000 
#    y 0.000000 1.599750 0.000000 
#    z 0.000000 0.000000 1.611780 
# 
# From -- ./inp_files/6456.got.cif
#   From: 2010.05.17/outbox.cif.g08.bks.cpg/sg41_4_cif.got.tgz:6456.got - 2010.06.03 18:54:24.
