data_PCOD9365104
_publ_section_title
;
Structure prediction by ZEFSAII (Michael W. Deem and Ramdas Pophale) SiO2 
 PCOD9365104
Probable space group: A M A 2
;
_chemical_formula_sum "Si O2"
_cell_formula_units_Z 32
_cell_length_a 17.867117
_cell_length_b 5.801281
_cell_length_c 12.585057
_cell_angle_alpha 90.000000
_cell_angle_beta 90.000000
_cell_angle_gamma 90.000000
_cell_volume 1304.468422
_symmetry_space_group_name_H-M "A M A 2"
_symmetry_group_IT_number 40
_symmetry_cell_setting 'orthorhombic'
loop_
_space_group_symop_operation_xyz
x,y,z
-x,-y,z
1/2-x,y,z
1/2+x,-y,z
x,1/2+y,1/2+z
-x,1/2-y,1/2+z
1/2-x,1/2+y,1/2+z
1/2+x,1/2-y,1/2+z
loop_
_atom_site_type_symbol
_atom_site_label
_atom_site_fract_x
_atom_site_fract_y
_atom_site_fract_z
Si Si1 0.924023 0.102492 0.406830
Si Si2 0.338905 0.511556 0.554851
Si Si3 0.071190 0.157735 0.687599
Si Si4 0.333265 0.759352 0.781532
O O1 0.881627 0.302978 0.476578
O O2 0.950149 0.193229 0.290642
O O3 0.870810 0.890155 0.373707
O O4 0.000000 0.000000 0.454507
O O5 0.250000 0.472473 0.526981
O O6 0.392182 0.293762 0.588287
O O7 0.334563 0.618959 0.672429
O O8 0.131984 0.996258 0.743649
O O9 0.000000 0.000000 0.664120
O O10 0.250000 0.803110 0.815083
#
# Coordination Sequence:
#
# PCOD9365104 Si02
#       4
#     8   8   8   8
#     4  11  23  45  72 108 147 195 260 323 388 459
#     4  10  24  44  71 108 151 201 258 319 392 468
#     4  11  23  45  71 105 151 199 254 322 393 456
#     4  10  22  43  70 102 149 199 248 312 390 465
#
# _framework density 24.531067
#
# number of rings (size 3 to 8) (size 9 to 14) (size 15 to 20)
#    0.000    1.500    2.500    1.500    0.000    6.000 
#    4.500    0.000    0.000    0.000    0.000    3.500 
#    0.000    0.000    0.000    0.000    0.000    0.000 
#
# Total GULP energy -89272.889874 kJ/mol
# GULP energy per Si atom -5579.555617 kJ/mol
# Density = 2.447523 g / cm^3
# Si number density = 24.531067 Si / 1000 Ang^3
#
#
#
# Elastic Constant Matrix: (Units=GPa)
#
#
# Indices 1 2 3 4 5 6 
#
# 1 226.5487 112.9862 80.9603 0.0000 0.0000 0.0000
# 2 112.9862 140.7343 72.3318 0.0000 0.0000 0.0000
# 3 80.9603 72.3318 216.5914 0.0000 0.0000 0.0000
# 4 0.0000 0.0000 0.0000 68.7810 0.0000 0.0000
# 5 0.0000 0.0000 0.0000 0.0000 22.6822 0.0000
# 6 0.0000 0.0000 0.0000 0.0000 0.0000 38.5078
#
#
#
# Elastic Compliance Matrix: (Units=1/GPa)
#
#
# Indices 1 2 3 4 5 6 
#
# 1 0.007523 -0.005547 -0.000960 0.000000 0.000000 0.000000
# 2 -0.005547 0.012667 -0.002157 0.000000 0.000000 0.000000
# 3 -0.000960 -0.002157 0.005696 0.000000 0.000000 0.000000
# 4 0.000000 0.000000 0.000000 0.014539 0.000000 0.000000
# 5 0.000000 0.000000 0.000000 0.000000 0.044087 0.000000
# 6 0.000000 0.000000 0.000000 0.000000 0.000000 0.025969
#
#
# Mechanical properties :
#
#
# Convention : Reuss Voigt Hill
#
# Bulk Modulus (GPa) = 116.82637 124.04790 120.43714
# Shear Modulus (GPa) = 38.26665 47.16727 42.71696
#
# Velocity S-wave (km/s) = 3.95387 4.38968 4.17747
# Velocity P-wave (km/s) = 8.28078 8.73899 8.51297
#
# Compressibility (1/GPa) = 0.00855971
#
# Stress axis : x y z
#
# Youngs Moduli (GPa) = 132.91926 78.94367 175.55869
#
# Poissons Ratio (x) = 0.43788 0.16851
# Poissons Ratio (y) = 0.73726 0.37868
# Poissons Ratio (z) = 0.12758 0.17028
#
# Static dielectric constant tensor:
#      x y z
#    x 1.952370 0.000000 0.000000 
#    y 0.000000 2.245780 0.000000 
#    z 0.000000 0.000000 1.956720 
# 
# From -- ./inp_files/17338.got.cif
#   From: 2010.05.17/outbox.cif.g08.bks.cpg/sg40_9_cif.got.tgz:17338.got - 2010.06.03 18:35:42.
