data_PCOD9365723
_publ_section_title
;
Structure prediction by ZEFSAII (Michael W. Deem and Ramdas Pophale) SiO2 
 PCOD9365723
Probable space group: A B A 2
;
_chemical_formula_sum "Si O2"
_cell_formula_units_Z 64
_cell_length_a 17.190181
_cell_length_b 11.569147
_cell_length_c 13.950969
_cell_angle_alpha 90.000000
_cell_angle_beta 90.000000
_cell_angle_gamma 90.000000
_cell_volume 2774.509157
_symmetry_space_group_name_H-M "A B A 2"
_symmetry_group_IT_number 41
_symmetry_cell_setting 'orthorhombic'
loop_
_space_group_symop_operation_xyz
x,y,z
-x,-y,z
1/2-x,y,1/2+z
1/2+x,-y,1/2+z
x,1/2+y,1/2+z
-x,1/2-y,1/2+z
1/2-x,1/2+y,z
1/2+x,1/2-y,z
loop_
_atom_site_type_symbol
_atom_site_label
_atom_site_fract_x
_atom_site_fract_y
_atom_site_fract_z
Si Si1 0.880557 0.806356 0.291970
Si Si2 0.831213 0.561182 0.786049
Si Si3 0.832234 0.097878 0.697685
Si Si4 0.090589 0.515498 0.385826
Si Si5 0.054657 0.227902 0.781896
Si Si6 0.069889 0.577378 0.091280
Si Si7 0.198093 0.209237 0.491989
Si Si8 0.239673 0.956726 0.988237
O O1 0.850811 0.732378 0.201750
O O2 0.819274 0.779491 0.377932
O O3 0.969342 0.770074 0.312771
O O4 0.875825 0.941499 0.274068
O O5 0.756282 0.566396 0.717951
O O6 0.888541 0.665815 0.763793
O O7 0.794651 0.559725 0.893525
O O8 0.880983 0.050288 0.789873
O O9 0.866384 0.022924 0.612137
O O10 0.097782 0.650577 0.361765
O O11 0.147662 0.467297 0.464434
O O12 0.000000 0.500000 0.404067
O O13 0.045079 0.142596 0.689623
O O14 0.000000 0.500000 0.049712
O O15 0.112076 0.676761 0.031603
O O16 0.238603 0.325486 0.531096
O O17 0.244337 0.091430 0.514673
#
# Coordination Sequence:
#
# PCOD9365723 Si02
#       8
#     8   8   8   8   8   8   8   8
#     4  11  20  39  64  93 127 162 221 270 316 394
#     4  10  22  32  64  95 122 162 215 281 316 373
#     4  10  19  37  59  90 120 161 218 260 314 385
#     4  10  16  31  59  86 114 158 216 263 307 374
#     4  11  20  37  61  92 125 164 222 265 326 386
#     4  11  24  42  63  89 124 175 212 264 335 402
#     4  11  23  40  65  91 136 168 212 275 332 392
#     4  10  21  39  59  95 129 167 218 272 329 392
#
# _framework density 23.067143000000002
#
# number of rings (size 3 to 8) (size 9 to 14) (size 15 to 20)
#    0.000    1.500    5.000    1.875    5.250    3.000 
#    0.000    1.250    0.000    4.500    0.000    0.000 
#    0.000    0.000    0.000    0.000    0.000    0.000 
#
# Total GULP energy -178568.588370 kJ/mol
# GULP energy per Si atom -5580.268387 kJ/mol
# Density = 2.301464 g / cm^3
# Si number density = 23.067143 Si / 1000 Ang^3
#
#
#
# Elastic Constant Matrix: (Units=GPa)
#
#
# Indices 1 2 3 4 5 6 
#
# 1 68.8600 53.4962 -2.6256 0.0000 0.0000 0.0000
# 2 53.4962 192.5107 21.9442 0.0000 0.0000 0.0000
# 3 -2.6256 21.9442 24.4398 0.0000 0.0000 0.0000
# 4 0.0000 0.0000 0.0000 23.8400 0.0000 0.0000
# 5 0.0000 0.0000 0.0000 0.0000 11.4610 0.0000
# 6 0.0000 0.0000 0.0000 0.0000 0.0000 48.3315
#
#
#
# Elastic Compliance Matrix: (Units=1/GPa)
#
#
# Indices 1 2 3 4 5 6 
#
# 1 0.019792 -0.006397 0.007870 0.000000 0.000000 0.000000
# 2 -0.006397 0.007854 -0.007740 0.000000 0.000000 0.000000
# 3 0.007870 -0.007740 0.048712 0.000000 0.000000 0.000000
# 4 0.000000 0.000000 0.000000 0.041946 0.000000 0.000000
# 5 0.000000 0.000000 0.000000 0.000000 0.087252 0.000000
# 6 0.000000 0.000000 0.000000 0.000000 0.000000 0.020690
#
#
# Mechanical properties :
#
#
# Convention : Reuss Voigt Hill
#
# Bulk Modulus (GPa) = 15.66781 47.93779 31.80280
# Shear Modulus (GPa) = 19.22666 30.92621 25.07643
#
# Velocity S-wave (km/s) = 2.89019 3.66553 3.30071
# Velocity P-wave (km/s) = 4.23610 6.22429 5.32383
#
# Compressibility (1/GPa) = 0.06382511
#
# Stress axis : x y z
#
# Youngs Moduli (GPa) = 50.52518 127.31679 20.52894
#
# Poissons Ratio (x) = 0.81446 -0.16157
# Poissons Ratio (y) = 0.32321 0.15889
# Poissons Ratio (z) = -0.39764 0.98539
#
# Static dielectric constant tensor:
#      x y z
#    x 1.899580 0.000000 0.000000 
#    y 0.000000 1.879580 0.000000 
#    z 0.000000 0.000000 1.974920 
# 
# From -- ./inp_files/10404.got.cif
#   From: 2010.05.17/outbox.cif.g08.bks.cpg/sg41_6_cif.got.tgz:10404.got - 2010.06.03 18:54:24.
