data_PCOD9365246
_publ_section_title
;
Structure prediction by ZEFSAII (Michael W. Deem and Ramdas Pophale) SiO2 
 PCOD9365246
Probable space group: A M A 2
;
_chemical_formula_sum "Si O2"
_cell_formula_units_Z 32
_cell_length_a 11.745898
_cell_length_b 12.701633
_cell_length_c 8.396234
_cell_angle_alpha 90.000000
_cell_angle_beta 90.000000
_cell_angle_gamma 90.000000
_cell_volume 1252.651662
_symmetry_space_group_name_H-M "A M A 2"
_symmetry_group_IT_number 40
_symmetry_cell_setting 'orthorhombic'
loop_
_space_group_symop_operation_xyz
x,y,z
-x,-y,z
1/2-x,y,z
1/2+x,-y,z
x,1/2+y,1/2+z
-x,1/2-y,1/2+z
1/2-x,1/2+y,1/2+z
1/2+x,1/2-y,1/2+z
loop_
_atom_site_type_symbol
_atom_site_label
_atom_site_fract_x
_atom_site_fract_y
_atom_site_fract_z
Si Si1 0.750000 0.759524 0.902271
Si Si2 0.546548 0.608408 0.342275
Si Si3 0.000000 0.500000 0.815190
Si Si4 0.250000 0.501230 0.307360
Si Si5 0.506431 0.206555 0.531430
Si Si6 0.750000 0.055265 0.180367
O O1 0.636133 0.748603 0.010119
O O2 0.750000 0.667290 0.771418
O O3 0.750000 0.875371 0.824205
O O4 0.500000 0.500000 0.415581
O O5 0.642755 0.555316 0.231883
O O6 0.569797 0.695524 0.473793
O O7 0.477934 0.674148 0.210878
O O8 0.007933 0.605727 0.920472
O O9 0.873715 0.505600 0.732137
O O10 0.250000 0.457017 0.488879
#
# Coordination Sequence:
#
# PCOD9365246 Si02
#       6
#     4   8   4   4   8   4
#     4  10  23  45  71 104 145 195 244 315 372 452
#     4  12  27  46  72 108 145 196 252 311 379 460
#     4  10  24  48  76 112 154 204 254 316 396 454
#     4  12  27  44  75 106 146 200 261 311 385 461
#     4  11  25  47  74 104 155 194 247 316 382 453
#     4  10  26  43  78 114 153 203 259 320 385 463
#
# _framework density 25.545812000000002
#
# number of rings (size 3 to 8) (size 9 to 14) (size 15 to 20)
#    0.000    1.000    3.750    0.750   12.250    1.000 
#    0.000    1.250    0.000    0.000    0.000    0.000 
#    0.000    0.000    0.000    0.000    0.000    0.000 
#
# Total GULP energy -89372.583436 kJ/mol
# GULP energy per Si atom -5585.786465 kJ/mol
# Density = 2.548767 g / cm^3
# Si number density = 25.545812 Si / 1000 Ang^3
#
#
#
# Elastic Constant Matrix: (Units=GPa)
#
#
# Indices 1 2 3 4 5 6 
#
# 1 133.5774 44.6483 15.2019 0.0000 0.0000 0.0000
# 2 44.6483 203.8956 41.8317 0.0000 0.0000 0.0000
# 3 15.2019 41.8317 84.5522 0.0000 0.0000 0.0000
# 4 0.0000 0.0000 0.0000 29.9207 0.0000 0.0000
# 5 0.0000 0.0000 0.0000 0.0000 26.9590 0.0000
# 6 0.0000 0.0000 0.0000 0.0000 0.0000 47.4041
#
#
#
# Elastic Compliance Matrix: (Units=1/GPa)
#
#
# Indices 1 2 3 4 5 6 
#
# 1 0.008109 -0.001643 -0.000645 0.000000 0.000000 0.000000
# 2 -0.001643 0.005792 -0.002570 0.000000 0.000000 0.000000
# 3 -0.000645 -0.002570 0.013214 0.000000 0.000000 0.000000
# 4 0.000000 0.000000 0.000000 0.033422 0.000000 0.000000
# 5 0.000000 0.000000 0.000000 0.000000 0.037093 0.000000
# 6 0.000000 0.000000 0.000000 0.000000 0.000000 0.021095
#
#
# Mechanical properties :
#
#
# Convention : Reuss Voigt Hill
#
# Bulk Modulus (GPa) = 57.47566 69.48766 63.48166
# Shear Modulus (GPa) = 37.24644 42.21299 39.72972
#
# Velocity S-wave (km/s) = 3.82255 4.06943 3.94792
# Velocity P-wave (km/s) = 6.48309 7.02429 6.75911
#
# Compressibility (1/GPa) = 0.01739867
#
# Stress axis : x y z
#
# Youngs Moduli (GPa) = 123.31997 172.66473 75.67509
#
# Poissons Ratio (x) = 0.28375 0.04880
# Poissons Ratio (y) = 0.20266 0.19448
# Poissons Ratio (z) = 0.07953 0.44373
#
# Static dielectric constant tensor:
#      x y z
#    x 2.349670 0.000000 0.000000 
#    y 0.000000 1.931180 0.000000 
#    z 0.000000 0.000000 1.982840 
# 
# From -- ./inp_files/4989.got.cif
#   From: 2010.05.17/outbox.cif.g08.bks.cpg/sg40_3_cif.got.tgz:4989.got - 2010.06.03 18:35:42.
