data_PCOD9365551
_publ_section_title
;
Structure prediction by ZEFSAII (Michael W. Deem and Ramdas Pophale) SiO2 
 PCOD9365551
Probable space group: A M A 2
;
_chemical_formula_sum "Si O2"
_cell_formula_units_Z 40
_cell_length_a 19.434030
_cell_length_b 7.848380
_cell_length_c 11.362204
_cell_angle_alpha 90.000000
_cell_angle_beta 90.000000
_cell_angle_gamma 90.000000
_cell_volume 1733.027577
_symmetry_space_group_name_H-M "A M A 2"
_symmetry_group_IT_number 40
_symmetry_cell_setting 'orthorhombic'
loop_
_space_group_symop_operation_xyz
x,y,z
-x,-y,z
1/2-x,y,z
1/2+x,-y,z
x,1/2+y,1/2+z
-x,1/2-y,1/2+z
1/2-x,1/2+y,1/2+z
1/2+x,1/2-y,1/2+z
loop_
_atom_site_type_symbol
_atom_site_label
_atom_site_fract_x
_atom_site_fract_y
_atom_site_fract_z
Si Si1 0.327373 0.245092 0.470000
Si Si2 0.324923 0.521876 0.676534
Si Si3 0.441874 0.387406 0.845711
Si Si4 0.049890 0.862586 0.797594
Si Si5 0.132753 0.375724 0.069787
O O1 0.250000 0.262738 0.418144
O O2 0.331366 0.382961 0.573955
O O3 0.389221 0.295958 0.381838
O O4 0.334579 0.053103 0.522748
O O5 0.250000 0.493753 0.732713
O O6 0.385807 0.481416 0.766803
O O7 0.327958 0.713468 0.625195
O O8 0.500000 0.500000 0.910601
O O9 0.492893 0.278898 0.765095
O O10 0.402770 0.299213 0.952702
O O11 0.083273 0.928374 0.677464
O O12 0.000000 0.000000 0.858219
#
# Coordination Sequence:
#
# PCOD9365551 Si02
#       5
#     8   8   8   8   8
#     4  11  26  47  71 105 146 189 244 304 363 438
#     4  11  26  46  71 104 146 193 241 303 369 433
#     4  12  24  45  68 104 143 185 239 304 360 431
#     4  12  26  45  73 106 145 195 244 305 366 440
#     4  12  24  45  74 104 141 190 247 295 369 435
#
# _framework density 23.080995000000001
#
# number of rings (size 3 to 8) (size 9 to 14) (size 15 to 20)
#    0.000    0.400    4.000    3.600    2.800    5.600 
#    0.000    5.000    0.000    0.000    0.000    0.000 
#    0.000    0.000    0.000    0.000    0.000    0.000 
#
# Total GULP energy -111556.885155 kJ/mol
# GULP energy per Si atom -5577.844258 kJ/mol
# Density = 2.302846 g / cm^3
# Si number density = 23.080995 Si / 1000 Ang^3
#
#
#
# Elastic Constant Matrix: (Units=GPa)
#
#
# Indices 1 2 3 4 5 6 
#
# 1 213.2436 66.0730 72.9743 0.0000 0.0000 0.0000
# 2 66.0730 103.5576 36.9956 0.0000 0.0000 0.0000
# 3 72.9743 36.9956 108.4443 0.0000 0.0000 0.0000
# 4 0.0000 0.0000 0.0000 45.0250 0.0000 0.0000
# 5 0.0000 0.0000 0.0000 0.0000 13.8053 0.0000
# 6 0.0000 0.0000 0.0000 0.0000 0.0000 26.1369
#
#
#
# Elastic Compliance Matrix: (Units=1/GPa)
#
#
# Indices 1 2 3 4 5 6 
#
# 1 0.006873 -0.003112 -0.003563 0.000000 0.000000 0.000000
# 2 -0.003112 0.012406 -0.002138 0.000000 0.000000 0.000000
# 3 -0.003563 -0.002138 0.012349 0.000000 0.000000 0.000000
# 4 0.000000 0.000000 0.000000 0.022210 0.000000 0.000000
# 5 0.000000 0.000000 0.000000 0.000000 0.072436 0.000000
# 6 0.000000 0.000000 0.000000 0.000000 0.000000 0.038260
#
#
# Mechanical properties :
#
#
# Convention : Reuss Voigt Hill
#
# Bulk Modulus (GPa) = 71.42606 86.37014 78.89810
# Shear Modulus (GPa) = 26.76262 33.60695 30.18479
#
# Velocity S-wave (km/s) = 3.40885 3.81995 3.62024
# Velocity P-wave (km/s) = 6.81958 7.54704 7.19251
#
# Compressibility (1/GPa) = 0.01400049
#
# Stress axis : x y z
#
# Youngs Moduli (GPa) = 145.49162 80.60617 80.98131
#
# Poissons Ratio (x) = 0.25087 0.28857
# Poissons Ratio (y) = 0.45282 0.17313
# Poissons Ratio (z) = 0.51844 0.17233
#
# Static dielectric constant tensor:
#      x y z
#    x 1.846190 0.000000 0.000000 
#    y 0.000000 2.069280 0.000000 
#    z 0.000000 0.000000 1.809610 
# 
# From -- ./inp_files/12716.got.cif
#   From: 2010.05.17/outbox.cif.g08.bks.cpg/sg40_7_cif.got.tgz:12716.got - 2010.06.03 18:35:42.
