data_PCOD9365799
_publ_section_title
;
Structure prediction by ZEFSAII (Michael W. Deem and Ramdas Pophale) SiO2 
 PCOD9365799
Probable space group: A B A 2
;
_chemical_formula_sum "Si O2"
_cell_formula_units_Z 48
_cell_length_a 13.505604
_cell_length_b 11.948547
_cell_length_c 12.760777
_cell_angle_alpha 90.000000
_cell_angle_beta 90.000000
_cell_angle_gamma 90.000000
_cell_volume 2059.236498
_symmetry_space_group_name_H-M "A B A 2"
_symmetry_group_IT_number 41
_symmetry_cell_setting 'orthorhombic'
loop_
_space_group_symop_operation_xyz
x,y,z
-x,-y,z
1/2-x,y,1/2+z
1/2+x,-y,1/2+z
x,1/2+y,1/2+z
-x,1/2-y,1/2+z
1/2-x,1/2+y,z
1/2+x,1/2-y,z
loop_
_atom_site_type_symbol
_atom_site_label
_atom_site_fract_x
_atom_site_fract_y
_atom_site_fract_z
Si Si1 0.936529 0.738742 0.190070
Si Si2 0.063471 0.761258 0.925400
Si Si3 0.885318 0.580073 0.690710
Si Si4 0.614682 0.080073 0.924760
Si Si5 0.000000 0.000000 0.604532
Si Si6 0.000000 0.500000 0.510937
Si Si7 0.250000 0.287766 0.557735
O O1 0.895903 0.742403 0.307735
O O2 0.981062 0.613999 0.168023
O O3 0.850487 0.764104 0.105256
O O4 0.027415 0.826454 0.187456
O O5 0.972585 0.673546 0.928014
O O6 0.018938 0.886000 0.947446
O O7 0.149513 0.735896 0.010214
O O8 0.883119 0.531655 0.807735
O O9 0.785279 0.639659 0.657326
O O10 0.090597 0.500748 0.594109
O O11 0.590597 0.999252 0.021361
O O12 0.714722 0.139659 0.958144
#
# Coordination Sequence:
#
# PCOD9365799 Si02
#       7
#     8   8   8   8   4   4   8
#     4  10  21  37  57  81 111 146 183 225 273 325
#     4  10  21  37  57  81 111 146 183 225 273 325
#     4  10  21  37  57  81 111 146 183 225 273 325
#     4  10  21  37  57  81 111 146 183 225 273 325
#     4  10  18  34  56  76 104 140 180 222 270 320
#     4  10  18  34  56  76 104 140 180 222 270 320
#     4  10  18  34  58  82 108 144 184 226 270 322
#
# _framework density 23.309611
#
# number of rings (size 3 to 8) (size 9 to 14) (size 15 to 20)
#    0.000    2.000    0.000    6.000    0.000    0.000 
#    0.000   26.667    0.000   32.000    0.000    0.000 
#    0.000    0.000    0.000    0.000    0.000    0.000 
#
# Total GULP energy -133758.730561 kJ/mol
# GULP energy per Si atom -5573.280440 kJ/mol
# Density = 2.325656 g / cm^3
# Si number density = 23.309611 Si / 1000 Ang^3
#
#
#
# Elastic Constant Matrix: (Units=GPa)
#
#
# Indices 1 2 3 4 5 6 
#
# 1 77.1682 22.4019 18.9885 0.0000 0.0000 0.0000
# 2 22.4019 113.8764 10.8750 0.0000 0.0000 0.0000
# 3 18.9885 10.8750 134.4021 0.0000 0.0000 0.0000
# 4 0.0000 0.0000 0.0000 21.3240 0.0000 0.0000
# 5 0.0000 0.0000 0.0000 0.0000 34.3105 0.0000
# 6 0.0000 0.0000 0.0000 0.0000 0.0000 18.2109
#
#
#
# Elastic Compliance Matrix: (Units=1/GPa)
#
#
# Indices 1 2 3 4 5 6 
#
# 1 0.014158 -0.002614 -0.001789 0.000000 0.000000 0.000000
# 2 -0.002614 0.009333 -0.000386 0.000000 0.000000 0.000000
# 3 -0.001789 -0.000386 0.007724 0.000000 0.000000 0.000000
# 4 0.000000 0.000000 0.000000 0.046896 0.000000 0.000000
# 5 0.000000 0.000000 0.000000 0.000000 0.029146 0.000000
# 6 0.000000 0.000000 0.000000 0.000000 0.000000 0.054912
#
#
# Mechanical properties :
#
#
# Convention : Reuss Voigt Hill
#
# Bulk Modulus (GPa) = 46.21698 47.77526 46.99612
# Shear Modulus (GPa) = 27.93952 32.98116 30.46034
#
# Velocity S-wave (km/s) = 3.46587 3.76562 3.61885
# Velocity P-wave (km/s) = 5.99056 6.28068 6.13734
#
# Compressibility (1/GPa) = 0.02163707
#
# Stress axis : x y z
#
# Youngs Moduli (GPa) = 70.63252 107.15144 129.46185
#
# Poissons Ratio (x) = 0.28013 0.23157
# Poissons Ratio (y) = 0.18466 0.04994
# Poissons Ratio (z) = 0.12634 0.04134
#
# Static dielectric constant tensor:
#      x y z
#    x 1.905350 0.000000 0.000000 
#    y 0.000000 1.993660 0.000000 
#    z 0.000000 0.000000 1.899050 
# 
# From -- ./inp_files/7937.got.cif
#   From: 2010.05.17/outbox.cif.g08.bks.cpg/sg41_4_cif.got.tgz:7937.got - 2010.06.03 18:54:24.
