data_PCOD9365751
_publ_section_title
;
Structure prediction by ZEFSAII (Michael W. Deem and Ramdas Pophale) SiO2 
 PCOD9365751
Probable space group: A B A 2
;
_chemical_formula_sum "Si O2"
_cell_formula_units_Z 60
_cell_length_a 19.982038
_cell_length_b 15.681509
_cell_length_c 9.234951
_cell_angle_alpha 90.000000
_cell_angle_beta 90.000000
_cell_angle_gamma 90.000000
_cell_volume 2893.758124
_symmetry_space_group_name_H-M "A B A 2"
_symmetry_group_IT_number 41
_symmetry_cell_setting 'orthorhombic'
loop_
_space_group_symop_operation_xyz
x,y,z
-x,-y,z
1/2-x,y,1/2+z
1/2+x,-y,1/2+z
x,1/2+y,1/2+z
-x,1/2-y,1/2+z
1/2-x,1/2+y,z
1/2+x,1/2-y,z
loop_
_atom_site_type_symbol
_atom_site_label
_atom_site_fract_x
_atom_site_fract_y
_atom_site_fract_z
Si Si1 0.610553 0.046599 0.518280
Si Si2 0.587288 0.180936 0.070814
Si Si3 0.353121 0.770907 0.374519
Si Si4 0.608537 0.993320 0.201468
Si Si5 0.050777 0.135955 0.485513
Si Si6 0.213958 0.837192 0.422177
Si Si7 0.756817 0.041954 0.168421
Si Si8 0.500000 0.000000 0.750079
O O1 0.626048 0.143140 0.463033
O O2 0.680078 0.007650 0.580016
O O3 0.590487 0.000784 0.369661
O O4 0.556398 0.039034 0.644271
O O5 0.613267 0.225764 0.215997
O O6 0.590550 0.080354 0.114654
O O7 0.512004 0.196845 0.021107
O O8 0.639723 0.197746 0.941669
O O9 0.383776 0.689297 0.448927
O O10 0.272677 0.774677 0.372043
O O11 0.689754 0.987419 0.189466
O O12 0.568641 0.919463 0.124794
O O13 0.030199 0.072894 0.354687
O O14 0.216723 0.919903 0.319006
O O15 0.233001 0.874411 0.579343
#
# Coordination Sequence:
#
# PCOD9365751 Si02
#       8
#     8   8   8   8   8   8   8   4
#     4  10  23  40  66  91 124 167 225 261 323 396
#     4  10  20  40  66  87 126 174 214 253 326 397
#     4  10  23  41  63  95 123 164 215 271 315 392
#     4  10  20  39  65  91 126 172 206 261 330 392
#     4  12  25  41  63  97 136 170 211 271 338 386
#     4  10  17  37  66  90 114 165 224 261 307 381
#     4  10  17  35  66  93 116 163 224 256 312 400
#     4  12  26  38  62  96 126 170 212 278 312 402
#
# _framework density 20.734283999999999
#
# number of rings (size 3 to 8) (size 9 to 14) (size 15 to 20)
#    0.000    1.600    6.667    0.800    7.467    0.000 
#    0.000    2.667    0.000    0.000    0.000    0.000 
#    0.000    0.000    0.000    0.000    0.000    0.000 
#
# Total GULP energy -167433.968751 kJ/mol
# GULP energy per Si atom -5581.132292 kJ/mol
# Density = 2.068709 g / cm^3
# Si number density = 20.734284 Si / 1000 Ang^3
#
#
#
# Elastic Constant Matrix: (Units=GPa)
#
#
# Indices 1 2 3 4 5 6 
#
# 1 89.7675 14.2629 31.3606 0.0000 0.0000 0.0000
# 2 14.2629 19.9498 18.6759 0.0000 0.0000 0.0000
# 3 31.3606 18.6759 97.5732 0.0000 0.0000 0.0000
# 4 0.0000 0.0000 0.0000 7.7916 0.0000 0.0000
# 5 0.0000 0.0000 0.0000 0.0000 37.7132 0.0000
# 6 0.0000 0.0000 0.0000 0.0000 0.0000 14.1810
#
#
#
# Elastic Compliance Matrix: (Units=1/GPa)
#
#
# Indices 1 2 3 4 5 6 
#
# 1 0.013241 -0.006679 -0.002977 0.000000 0.000000 0.000000
# 2 -0.006679 0.064438 -0.010187 0.000000 0.000000 0.000000
# 3 -0.002977 -0.010187 0.013155 0.000000 0.000000 0.000000
# 4 0.000000 0.000000 0.000000 0.128343 0.000000 0.000000
# 5 0.000000 0.000000 0.000000 0.000000 0.026516 0.000000
# 6 0.000000 0.000000 0.000000 0.000000 0.000000 0.070517
#
#
# Mechanical properties :
#
#
# Convention : Reuss Voigt Hill
#
# Bulk Modulus (GPa) = 19.55143 37.32103 28.43623
# Shear Modulus (GPa) = 13.40674 21.46990 17.43832
#
# Velocity S-wave (km/s) = 2.54559 3.22138 2.90321
# Velocity P-wave (km/s) = 4.25324 5.64580 4.99826
#
# Compressibility (1/GPa) = 0.05114715
#
# Stress axis : x y z
#
# Youngs Moduli (GPa) = 75.52116 15.51885 76.01404
#
# Poissons Ratio (x) = 0.10366 0.22632
# Poissons Ratio (y) = 0.50444 0.77434
# Poissons Ratio (z) = 0.22485 0.15809
#
# Static dielectric constant tensor:
#      x y z
#    x 1.804540 0.000000 0.000000 
#    y 0.000000 1.712040 0.000000 
#    z 0.000000 0.000000 1.735480 
# 
# From -- ./inp_files/3149.got.cif
#   From: 2010.05.17/outbox.cif.g08.bks.cpg/sg41_2_cif.got.tgz:3149.got - 2010.06.03 18:54:24.
