data_PCOD9365370
_publ_section_title
;
Structure prediction by ZEFSAII (Michael W. Deem and Ramdas Pophale) SiO2 
 PCOD9365370
Probable space group: A M A 2
;
_chemical_formula_sum "Si O2"
_cell_formula_units_Z 48
_cell_length_a 19.284290
_cell_length_b 11.467537
_cell_length_c 11.574822
_cell_angle_alpha 90.000000
_cell_angle_beta 90.000000
_cell_angle_gamma 90.000000
_cell_volume 2559.694439
_symmetry_space_group_name_H-M "A M A 2"
_symmetry_group_IT_number 40
_symmetry_cell_setting 'orthorhombic'
loop_
_space_group_symop_operation_xyz
x,y,z
-x,-y,z
1/2-x,y,z
1/2+x,-y,z
x,1/2+y,1/2+z
-x,1/2-y,1/2+z
1/2-x,1/2+y,1/2+z
1/2+x,1/2-y,1/2+z
loop_
_atom_site_type_symbol
_atom_site_label
_atom_site_fract_x
_atom_site_fract_y
_atom_site_fract_z
Si Si1 0.330829 0.607221 0.552430
Si Si2 0.890387 0.663495 0.947488
Si Si3 0.949402 0.292132 0.952469
Si Si4 0.579868 0.538079 0.379266
Si Si5 0.922672 0.983735 0.258533
Si Si6 0.418282 0.032652 0.621194
O O1 0.250000 0.587516 0.571068
O O2 0.341650 0.731357 0.487605
O O3 0.366796 0.514794 0.468529
O O4 0.372341 0.583958 0.671657
O O5 0.892709 0.602010 0.820004
O O6 0.967758 0.716509 0.966217
O O7 0.879733 0.558280 0.038328
O O8 0.920300 0.176606 0.895222
O O9 0.937893 0.399101 0.865965
O O10 0.914926 0.336030 0.071990
O O11 0.500000 0.500000 0.400607
O O12 0.599577 0.490508 0.253005
O O13 0.000000 0.000000 0.204220
O O14 0.500000 0.000000 0.610638
#
# Coordination Sequence:
#
# PCOD9365370 Si02
#       6
#     8   8   8   8   8   8
#     4  12  25  37  52  82 125 165 194 232 299 370
#     4   9  18  37  59  85 111 141 191 251 302 344
#     4   9  17  35  61  88 110 136 194 257 299 338
#     4  11  20  34  55  84 114 150 192 238 291 351
#     4   9  20  38  64  89 111 148 203 258 299 347
#     4   8  17  32  57  85 108 134 179 246 301 341
#
# _framework density 18.752238999999999
#
# number of rings (size 3 to 8) (size 9 to 14) (size 15 to 20)
#    0.000    2.333    1.667    3.500    0.000    2.000 
#    0.000    3.333    0.000    2.000    0.000    0.000 
#    0.000    0.000    0.000    0.000    0.000    0.000 
#
# Total GULP energy -133683.576021 kJ/mol
# GULP energy per Si atom -5570.149001 kJ/mol
# Density = 1.870956 g / cm^3
# Si number density = 18.752239 Si / 1000 Ang^3
#
#
#
# Elastic Constant Matrix: (Units=GPa)
#
#
# Indices 1 2 3 4 5 6 
#
# 1 79.6016 15.8302 29.2193 0.0000 0.0000 0.0000
# 2 15.8302 55.6836 8.1129 0.0000 0.0000 0.0000
# 3 29.2193 8.1129 72.6619 0.0000 0.0000 0.0000
# 4 0.0000 0.0000 0.0000 32.7305 0.0000 0.0000
# 5 0.0000 0.0000 0.0000 0.0000 -38.9047 0.0000
# 6 0.0000 0.0000 0.0000 0.0000 0.0000 13.5758
#
#
#
# Elastic Compliance Matrix: (Units=1/GPa)
#
#
# Indices 1 2 3 4 5 6 
#
# 1 0.015392 -0.003531 -0.005795 0.000000 0.000000 0.000000
# 2 -0.003531 0.019066 -0.000709 0.000000 0.000000 0.000000
# 3 -0.005795 -0.000709 0.016172 0.000000 0.000000 0.000000
# 4 0.000000 0.000000 0.000000 0.030553 0.000000 0.000000
# 5 0.000000 0.000000 0.000000 0.000000 -0.025704 0.000000
# 6 0.000000 0.000000 0.000000 0.000000 0.000000 0.073660
#
#
# Mechanical properties :
#
#
# Convention : Reuss Voigt Hill
#
# Bulk Modulus (GPa) = 32.72351 34.91909 33.82130
# Shear Modulus (GPa) = 31.36842 11.79930 21.58386
#
# Velocity S-wave (km/s) = 4.09440 2.51115 3.39632
# Velocity P-wave (km/s) = 6.31194 5.20284 5.78403
#
# Compressibility (1/GPa) = 0.03055907
#
# Stress axis : x y z
#
# Youngs Moduli (GPa) = 64.96832 52.44993 61.83551
#
# Poissons Ratio (x) = 0.18522 0.35835
# Poissons Ratio (y) = 0.22943 0.04382
# Poissons Ratio (z) = 0.37651 0.03717
#
# Static dielectric constant tensor:
#      x y z
#    x 1.636480 0.000000 0.000000 
#    y 0.000000 1.678350 0.000000 
#    z 0.000000 0.000000 1.692190 
# 
# From -- ./inp_files/12881.got.cif
#   From: 2010.05.17/outbox.cif.g08.bks.cpg/sg40_7_cif.got.tgz:12881.got - 2010.06.03 18:35:42.
