data_PCOD9365575
_publ_section_title
;
Structure prediction by ZEFSAII (Michael W. Deem and Ramdas Pophale) SiO2 
 PCOD9365575
Probable space group: A M A 2
;
_chemical_formula_sum "Si O2"
_cell_formula_units_Z 32
_cell_length_a 10.647962
_cell_length_b 14.294527
_cell_length_c 8.126559
_cell_angle_alpha 90.000000
_cell_angle_beta 90.000000
_cell_angle_gamma 90.000000
_cell_volume 1236.923882
_symmetry_space_group_name_H-M "A M A 2"
_symmetry_group_IT_number 40
_symmetry_cell_setting 'orthorhombic'
loop_
_space_group_symop_operation_xyz
x,y,z
-x,-y,z
1/2-x,y,z
1/2+x,-y,z
x,1/2+y,1/2+z
-x,1/2-y,1/2+z
1/2-x,1/2+y,1/2+z
1/2+x,1/2-y,1/2+z
loop_
_atom_site_type_symbol
_atom_site_label
_atom_site_fract_x
_atom_site_fract_y
_atom_site_fract_z
Si Si1 0.750000 0.391137 0.159281
Si Si2 0.250000 0.137589 0.027829
Si Si3 0.985552 0.650565 0.509932
Si Si4 0.250000 0.267587 0.359801
Si Si5 0.893228 0.163136 0.376526
Si Si6 0.500000 0.000000 0.583841
O O1 0.750000 0.335489 0.331255
O O2 0.750000 0.314243 0.007208
O O3 0.625467 0.456776 0.167046
O O4 0.250000 0.205718 0.191297
O O5 0.388592 0.085238 0.034585
O O6 0.870678 0.662576 0.379326
O O7 0.920886 0.660502 0.684727
O O8 0.057954 0.745276 0.465856
O O9 0.750000 0.144670 0.409392
O O10 0.965307 0.082404 0.464527
#
# Coordination Sequence:
#
# PCOD9365575 Si02
#       6
#     4   4   8   4   8   4
#     4  12  26  48  74 105 152 201 244 306 378 445
#     4  12  26  43  73 110 153 189 249 315 365 445
#     4  12  23  42  76 108 149 193 253 305 378 436
#     4  12  24  43  73 115 147 192 249 317 367 442
#     4  12  25  44  75 114 151 201 249 315 373 448
#     4  12  26  48  80 104 156 204 248 304 388 440
#
# _framework density 25.870630999999999
#
# number of rings (size 3 to 8) (size 9 to 14) (size 15 to 20)
#    0.000    0.000    8.750    1.500    0.000    0.000 
#    0.000    6.250    0.000    0.000    0.000    0.000 
#    0.000    0.000    0.000    0.000    0.000    0.000 
#
# Total GULP energy -89210.707508 kJ/mol
# GULP energy per Si atom -5575.669219 kJ/mol
# Density = 2.581175 g / cm^3
# Si number density = 25.870631 Si / 1000 Ang^3
#
#
#
# Elastic Constant Matrix: (Units=GPa)
#
#
# Indices 1 2 3 4 5 6 
#
# 1 198.5515 3.0918 30.0417 0.0000 0.0000 0.0000
# 2 3.0918 33.2899 22.4852 0.0000 0.0000 0.0000
# 3 30.0417 22.4852 126.8384 0.0000 0.0000 0.0000
# 4 0.0000 0.0000 0.0000 14.3788 0.0000 0.0000
# 5 0.0000 0.0000 0.0000 0.0000 40.3298 0.0000
# 6 0.0000 0.0000 0.0000 0.0000 0.0000 30.4305
#
#
#
# Elastic Compliance Matrix: (Units=1/GPa)
#
#
# Indices 1 2 3 4 5 6 
#
# 1 0.005228 0.000399 -0.001309 0.000000 0.000000 0.000000
# 2 0.000399 0.034156 -0.006149 0.000000 0.000000 0.000000
# 3 -0.001309 -0.006149 0.009284 0.000000 0.000000 0.000000
# 4 0.000000 0.000000 0.000000 0.069547 0.000000 0.000000
# 5 0.000000 0.000000 0.000000 0.000000 0.024796 0.000000
# 6 0.000000 0.000000 0.000000 0.000000 0.000000 0.032862
#
#
# Mechanical properties :
#
#
# Convention : Reuss Voigt Hill
#
# Bulk Modulus (GPa) = 28.94470 52.21302 40.57886
# Shear Modulus (GPa) = 24.81292 37.23191 31.02241
#
# Velocity S-wave (km/s) = 3.10032 3.79774 3.46661
# Velocity P-wave (km/s) = 4.90189 6.28145 5.63405
#
# Compressibility (1/GPa) = 0.03454864
#
# Stress axis : x y z
#
# Youngs Moduli (GPa) = 191.26586 29.27779 107.70996
#
# Poissons Ratio (x) = -0.01167 0.14099
# Poissons Ratio (y) = -0.07623 0.66234
# Poissons Ratio (z) = 0.25036 0.18004
#
# Static dielectric constant tensor:
#      x y z
#    x 2.084590 0.000000 0.000000 
#    y 0.000000 4.166650 0.000000 
#    z 0.000000 0.000000 1.969950 
# 
# From -- ./inp_files/4974.got.cif
#   From: 2010.05.17/outbox.cif.g08.bks.cpg/sg40_3_cif.got.tgz:4974.got - 2010.06.03 18:35:42.
