data_PCOD9365681
_publ_section_title
;
Structure prediction by ZEFSAII (Michael W. Deem and Ramdas Pophale) SiO2 
 PCOD9365681
Probable space group: A M A 2
;
_chemical_formula_sum "Si O2"
_cell_formula_units_Z 24
_cell_length_a 9.000000
_cell_length_b 9.000000
_cell_length_c 30.000000
_cell_angle_alpha 90.000000
_cell_angle_beta 90.000000
_cell_angle_gamma 90.000000
_cell_volume 2430.000000
_symmetry_space_group_name_H-M "A M A 2"
_symmetry_group_IT_number 40
_symmetry_cell_setting 'orthorhombic'
loop_
_space_group_symop_operation_xyz
x,y,z
-x,-y,z
1/2-x,y,z
1/2+x,-y,z
x,1/2+y,1/2+z
-x,1/2-y,1/2+z
1/2-x,1/2+y,1/2+z
1/2+x,1/2-y,1/2+z
loop_
_atom_site_type_symbol
_atom_site_label
_atom_site_fract_x
_atom_site_fract_y
_atom_site_fract_z
Si Si1 0.072103 0.656458 0.504450
Si Si2 0.577393 0.344682 0.075700
Si Si3 0.426819 0.157053 0.253453
Si Si4 0.923113 0.344050 0.182217
Si Si5 0.926525 0.342569 0.331387
Si Si6 0.574532 0.155637 0.420237
O O1 0.250000 0.647059 0.505008
O O2 0.022193 0.767494 0.465500
O O3 0.000000 0.500000 0.494302
O O4 0.010429 0.716246 0.550929
O O5 0.500000 0.500000 0.063596
O O6 0.750000 0.345791 0.062438
O O7 0.570021 0.329204 0.128964
O O8 0.250000 0.149929 0.254360
O O9 0.486779 0.215507 0.206330
O O10 0.490644 0.267258 0.290338
O O11 0.500000 0.000000 0.263205
O O12 0.750000 0.343454 0.195718
O O13 0.000000 0.500000 0.194464
O O14 0.750000 0.350722 0.322844
O O15 0.951544 0.253221 0.376750
O O16 0.000000 0.500000 0.337855
O O17 0.750000 0.135436 0.424790
O O18 0.500000 0.000000 0.413698
#
# Coordination Sequence:
#
# PCOD9365681 Si02
#       6
#     8   8   8   8   8   8
#     4  11  23  39  59  86 119 156 198 243 293 347
#     4  10  21  38  61  88 118 154 196 242 292 348
#     4  12  25  41  61  87 119 155 196 242 293 348
#     4  10  21  39  62  88 118 154 196 241 292 348
#     4  11  23  41  63  89 120 155 196 240 290 345
#     4  10  23  40  61  88 118 154 195 240 290 346
#
# _framework density 9.8765429999999999
#
# number of rings (size 3 to 8) (size 9 to 14) (size 15 to 20)
#    0.000    1.333    0.000    5.500    0.000    8.000 
#    0.000    0.000    0.000    0.000    0.000    0.000 
#    0.000    0.000    0.000    0.000    0.000    0.000 
#
# Total GULP energy -134146.265573 kJ/mol
# GULP energy per Si atom -5589.427732 kJ/mol
# Density = 0.985406 g / cm^3
# Si number density = 9.876543 Si / 1000 Ang^3
#
#
#
# Elastic Constant Matrix: (Units=GPa)
#
#
# Indices 1 2 3 4 5 6 
#
# 1 105.2181 95.5629 69.6553 0.0000 0.0000 0.0000
# 2 95.5629 110.5164 21.7316 0.0000 0.0000 0.0000
# 3 69.6553 21.7316 20.8435 0.0000 0.0000 0.0000
# 4 0.0000 0.0000 0.0000 12.5948 0.0000 0.0000
# 5 0.0000 0.0000 0.0000 0.0000 6.9030 0.0000
# 6 0.0000 0.0000 0.0000 0.0000 0.0000 32.3966
#
#
#
# Elastic Compliance Matrix: (Units=1/GPa)
#
#
# Indices 1 2 3 4 5 6 
#
# 1 -0.007488 0.001955 0.022985 0.000000 0.000000 0.000000
# 2 0.001955 0.010871 -0.017868 0.000000 0.000000 0.000000
# 3 0.022985 -0.017868 -0.010206 0.000000 0.000000 0.000000
# 4 0.000000 0.000000 0.000000 0.079398 0.000000 0.000000
# 5 0.000000 0.000000 0.000000 0.000000 0.144864 0.000000
# 6 0.000000 0.000000 0.000000 0.000000 0.000000 0.030867
#
#
# Mechanical properties :
#
#
# Convention : Reuss Voigt Hill
#
# Bulk Modulus (GPa) = 136.58798 67.83085 102.20941
# Shear Modulus (GPa) = 21.13247 13.68743 17.40995
#
# Velocity S-wave (km/s) = 3.27438 2.63520 2.97202
# Velocity P-wave (km/s) = 9.14293 6.60855 7.97703
#
# Compressibility (1/GPa) = 0.00732129
#
# Stress axis : x y z
#
# Youngs Moduli (GPa) = -133.54701 91.98431 -97.97954
#
# Poissons Ratio (x) = -0.17984 2.25207
# Poissons Ratio (y) = 0.26110 -1.75072
# Poissons Ratio (z) = 3.06960 1.64360
#
# Static dielectric constant tensor:
#      x y z
#    x 1.659200 0.000000 0.000000 
#    y 0.000000 1.629240 0.000000 
#    z 0.000000 0.000000 1.725940 
# 
# From -- ./inp_files/26111.got.cif
#   From: 2010.05.17/outbox.ucp.g08.bks.cvg/sg40_14_cif.got.tgz:26111.got - 2010.06.11 16:26:39.
