data_PCOD9365864
_publ_section_title
;
Structure prediction by ZEFSAII (Michael W. Deem and Ramdas Pophale) SiO2 
 PCOD9365864
Probable space group: A B A 2
;
_chemical_formula_sum "Si O2"
_cell_formula_units_Z 56
_cell_length_a 17.507769
_cell_length_b 10.047306
_cell_length_c 12.601242
_cell_angle_alpha 90.000000
_cell_angle_beta 90.000000
_cell_angle_gamma 90.000000
_cell_volume 2216.632973
_symmetry_space_group_name_H-M "A B A 2"
_symmetry_group_IT_number 41
_symmetry_cell_setting 'orthorhombic'
loop_
_space_group_symop_operation_xyz
x,y,z
-x,-y,z
1/2-x,y,1/2+z
1/2+x,-y,1/2+z
x,1/2+y,1/2+z
-x,1/2-y,1/2+z
1/2-x,1/2+y,z
1/2+x,1/2-y,z
loop_
_atom_site_type_symbol
_atom_site_label
_atom_site_fract_x
_atom_site_fract_y
_atom_site_fract_z
Si Si1 0.841962 0.894294 0.338000
Si Si2 0.980938 0.276934 0.575688
Si Si3 0.250947 0.803121 0.093998
Si Si4 0.327854 0.141799 0.260978
Si Si5 0.121311 0.342129 0.926716
Si Si6 0.614217 0.524284 0.111933
Si Si7 0.614175 0.137734 0.254941
O O1 0.750918 0.892956 0.322136
O O2 0.875076 0.745144 0.348823
O O3 0.865718 0.000557 0.424405
O O4 0.875097 0.957362 0.227989
O O5 0.961871 0.187463 0.474300
O O6 0.925966 0.404066 0.551532
O O7 0.950722 0.191546 0.675901
O O8 0.058880 0.348784 0.603978
O O9 0.201056 0.681951 0.142513
O O10 0.194597 0.924280 0.070565
O O11 0.305782 0.842821 0.191679
O O12 0.310377 0.783931 0.000142
O O13 0.364463 0.271645 0.314725
O O14 0.385607 0.018729 0.274049
#
# Coordination Sequence:
#
# PCOD9365864 Si02
#       7
#     8   8   8   8   8   8   8
#     4  10  19  37  64  92 121 167 212 265 320 384
#     4   9  22  37  64  89 125 178 217 255 326 403
#     4  10  21  37  66  90 125 168 209 267 324 381
#     4  11  20  38  61 100 126 159 216 274 322 378
#     4  11  23  36  65  98 130 158 221 270 320 387
#     4  10  18  42  64  86 127 178 212 257 330 388
#     4   9  19  37  63  91 123 166 217 254 324 380
#
# _framework density 25.263541
#
# number of rings (size 3 to 8) (size 9 to 14) (size 15 to 20)
#    0.000    2.000    2.857    1.714    2.000    1.143 
#    0.000    3.571   12.571    0.000    0.000    0.000 
#    0.000    0.000    0.000    0.000    0.000    0.000 
#
# Total GULP energy -156505.083803 kJ/mol
# GULP energy per Si atom -5589.467279 kJ/mol
# Density = 2.520604 g / cm^3
# Si number density = 25.263541 Si / 1000 Ang^3
#
#
#
# Elastic Constant Matrix: (Units=GPa)
#
#
# Indices 1 2 3 4 5 6 
#
# 1 69.2465 10.7425 9.3039 0.0000 0.0000 0.0000
# 2 10.7425 114.7459 22.9728 0.0000 0.0000 0.0000
# 3 9.3039 22.9728 46.4950 0.0000 0.0000 0.0000
# 4 0.0000 0.0000 0.0000 19.4244 0.0000 0.0000
# 5 0.0000 0.0000 0.0000 0.0000 18.1368 0.0000
# 6 0.0000 0.0000 0.0000 0.0000 0.0000 32.3620
#
#
#
# Elastic Compliance Matrix: (Units=1/GPa)
#
#
# Indices 1 2 3 4 5 6 
#
# 1 0.014921 -0.000887 -0.002548 0.000000 0.000000 0.000000
# 2 -0.000887 0.009724 -0.004627 0.000000 0.000000 0.000000
# 3 -0.002548 -0.004627 0.024304 0.000000 0.000000 0.000000
# 4 0.000000 0.000000 0.000000 0.051482 0.000000 0.000000
# 5 0.000000 0.000000 0.000000 0.000000 0.055136 0.000000
# 6 0.000000 0.000000 0.000000 0.000000 0.000000 0.030900
#
#
# Mechanical properties :
#
#
# Convention : Reuss Voigt Hill
#
# Bulk Modulus (GPa) = 30.46387 35.16951 32.81669
# Shear Modulus (GPa) = 23.41559 26.48253 24.94906
#
# Velocity S-wave (km/s) = 3.04773 3.24118 3.14594
# Velocity P-wave (km/s) = 4.94666 5.28756 5.11995
#
# Compressibility (1/GPa) = 0.03282577
#
# Stress axis : x y z
#
# Youngs Moduli (GPa) = 67.01944 102.83474 41.14588
#
# Poissons Ratio (x) = 0.09120 0.10482
# Poissons Ratio (y) = 0.05944 0.19039
# Poissons Ratio (z) = 0.17074 0.47584
#
# Static dielectric constant tensor:
#      x y z
#    x 1.958500 0.000000 0.000000 
#    y 0.000000 2.035210 0.000000 
#    z 0.000000 0.000000 2.056410 
# 
# From -- ./inp_files/9003.got.cif
#   From: 2010.05.17/outbox.cif.g08.bks.cpg/sg41_5_cif.got.tgz:9003.got - 2010.06.03 18:54:24.
