data_PCOD9365564
_publ_section_title
;
Structure prediction by ZEFSAII (Michael W. Deem and Ramdas Pophale) SiO2 
 PCOD9365564
Probable space group: A M A 2
;
_chemical_formula_sum "Si O2"
_cell_formula_units_Z 44
_cell_length_a 15.189569
_cell_length_b 16.613400
_cell_length_c 9.320116
_cell_angle_alpha 90.000000
_cell_angle_beta 90.000000
_cell_angle_gamma 90.000000
_cell_volume 2351.934867
_symmetry_space_group_name_H-M "A M A 2"
_symmetry_group_IT_number 40
_symmetry_cell_setting 'orthorhombic'
loop_
_space_group_symop_operation_xyz
x,y,z
-x,-y,z
1/2-x,y,z
1/2+x,-y,z
x,1/2+y,1/2+z
-x,1/2-y,1/2+z
1/2-x,1/2+y,1/2+z
1/2+x,1/2-y,1/2+z
loop_
_atom_site_type_symbol
_atom_site_label
_atom_site_fract_x
_atom_site_fract_y
_atom_site_fract_z
Si Si1 0.349078 0.211759 0.869050
Si Si2 0.352384 0.959056 0.062794
Si Si3 0.345656 0.141552 0.182584
Si Si4 0.033749 0.862413 0.290499
Si Si5 0.354831 0.532588 0.256463
Si Si6 0.000000 0.500000 0.020000
O O1 0.250000 0.233489 0.823954
O O2 0.412647 0.283347 0.829388
O O3 0.370599 0.125250 0.801023
O O4 0.347885 0.194097 0.038500
O O5 0.250000 0.930383 0.070838
O O6 0.352671 0.047737 0.135738
O O7 0.420540 0.903792 0.150429
O O8 0.374980 0.976493 0.895816
O O9 0.250000 0.152707 0.253364
O O10 0.432469 0.160930 0.268118
O O11 0.030162 0.927742 0.416749
O O12 0.250000 0.523543 0.227821
O O13 0.417075 0.516069 0.123002
#
# Coordination Sequence:
#
# PCOD9365564 Si02
#       6
#     8   8   8   8   8   4
#     4   9  21  40  63  84 115 159 201 248 304 354
#     4   9  18  37  63  86 113 155 204 243 287 358
#     4   9  19  37  58  82 118 162 193 233 300 362
#     4  12  22  36  62  98 118 152 204 258 296 352
#     4   9  22  43  61  83 121 165 200 243 305 370
#     4  12  26  34  58  98 126 158 192 256 312 350
#
# _framework density 18.708000999999999
#
# number of rings (size 3 to 8) (size 9 to 14) (size 15 to 20)
#    0.000    2.182    1.818    2.727    7.636    2.182 
#    0.000    0.000    0.000    0.000    0.000    0.000 
#    0.000    0.000    0.000    0.000    0.000    0.000 
#
# Total GULP energy -122730.962633 kJ/mol
# GULP energy per Si atom -5578.680120 kJ/mol
# Density = 1.866542 g / cm^3
# Si number density = 18.708001 Si / 1000 Ang^3
#
#
#
# Elastic Constant Matrix: (Units=GPa)
#
#
# Indices 1 2 3 4 5 6 
#
# 1 134.8001 73.8475 71.1254 0.0000 0.0000 0.0000
# 2 73.8475 66.4096 42.3308 0.0000 0.0000 0.0000
# 3 71.1254 42.3308 82.2925 0.0000 0.0000 0.0000
# 4 0.0000 0.0000 0.0000 19.6114 0.0000 0.0000
# 5 0.0000 0.0000 0.0000 0.0000 28.6976 0.0000
# 6 0.0000 0.0000 0.0000 0.0000 0.0000 31.6467
#
#
#
# Elastic Compliance Matrix: (Units=1/GPa)
#
#
# Indices 1 2 3 4 5 6 
#
# 1 0.023685 -0.019772 -0.010300 0.000000 0.000000 0.000000
# 2 -0.019772 0.038910 -0.002926 0.000000 0.000000 0.000000
# 3 -0.010300 -0.002926 0.022559 0.000000 0.000000 0.000000
# 4 0.000000 0.000000 0.000000 0.050991 0.000000 0.000000
# 5 0.000000 0.000000 0.000000 0.000000 0.034846 0.000000
# 6 0.000000 0.000000 0.000000 0.000000 0.000000 0.031599
#
#
# Mechanical properties :
#
#
# Convention : Reuss Voigt Hill
#
# Bulk Modulus (GPa) = 52.19893 73.12329 62.66111
# Shear Modulus (GPa) = 18.18369 22.40436 20.29403
#
# Velocity S-wave (km/s) = 3.12103 3.46436 3.29717
# Velocity P-wave (km/s) = 6.39924 7.42791 6.93268
#
# Compressibility (1/GPa) = 0.01915748
#
# Stress axis : x y z
#
# Youngs Moduli (GPa) = 42.22108 25.70056 44.32756
#
# Poissons Ratio (x) = 0.50815 0.45658
# Poissons Ratio (y) = 0.83480 0.12970
# Poissons Ratio (z) = 0.43489 0.07520
#
# Static dielectric constant tensor:
#      x y z
#    x 1.669510 0.000000 0.000000 
#    y 0.000000 1.622990 0.000000 
#    z 0.000000 0.000000 1.655190 
# 
# From -- ./inp_files/6375.got.cif
#   From: 2010.05.17/outbox.cif.g08.bks.cpg/sg40_4_cif.got.tgz:6375.got - 2010.06.03 18:35:42.
