data_PCOD9365304
_publ_section_title
;
Structure prediction by ZEFSAII (Michael W. Deem and Ramdas Pophale) SiO2 
 PCOD9365304
Probable space group: A M A 2
;
_chemical_formula_sum "Si O2"
_cell_formula_units_Z 40
_cell_length_a 15.276285
_cell_length_b 11.365611
_cell_length_c 8.885037
_cell_angle_alpha 90.000000
_cell_angle_beta 90.000000
_cell_angle_gamma 90.000000
_cell_volume 1542.658444
_symmetry_space_group_name_H-M "A M A 2"
_symmetry_group_IT_number 40
_symmetry_cell_setting 'orthorhombic'
loop_
_space_group_symop_operation_xyz
x,y,z
-x,-y,z
1/2-x,y,z
1/2+x,-y,z
x,1/2+y,1/2+z
-x,1/2-y,1/2+z
1/2-x,1/2+y,1/2+z
1/2+x,1/2-y,1/2+z
loop_
_atom_site_type_symbol
_atom_site_label
_atom_site_fract_x
_atom_site_fract_y
_atom_site_fract_z
Si Si1 0.094857 0.444170 0.892570
Si Si2 0.250000 0.731132 0.048268
Si Si3 0.750000 0.752244 0.232256
Si Si4 0.750000 0.003598 0.625592
Si Si5 0.096964 0.414090 0.565705
Si Si6 0.000000 0.000000 0.793845
Si Si7 0.058036 0.764782 0.604393
O O1 0.163929 0.479322 0.021231
O O2 0.126329 0.468304 0.724453
O O3 0.000000 0.500000 0.907788
O O4 0.074402 0.308591 0.933518
O O5 0.165548 0.810890 0.042865
O O6 0.250000 0.674338 0.883776
O O7 0.250000 0.631602 0.174203
O O8 0.845049 0.769358 0.159215
O O9 0.750000 0.608097 0.244989
O O10 0.080468 0.489803 0.415181
O O11 0.006965 0.344706 0.603992
O O12 0.015984 0.879047 0.696100
#
# Coordination Sequence:
#
# PCOD9365304 Si02
#       7
#     8   4   4   4   8   4   8
#     4  11  22  42  66  92 136 176 223 283 347 415
#     4  12  25  41  71 103 135 180 243 294 344 435
#     4  10  24  44  70  98 141 181 241 292 349 431
#     4  10  25  43  67  97 132 191 224 282 357 408
#     4  12  26  42  68 110 138 180 241 293 355 427
#     4  12  24  44  72  98 144 186 226 298 354 416
#     4  11  24  46  70 101 140 187 236 288 356 429
#
# _framework density 25.929264
#
# number of rings (size 3 to 8) (size 9 to 14) (size 15 to 20)
#    0.000    0.800    4.000    3.000    5.600    0.000 
#    0.000    2.000    0.000    0.000    0.000    0.000 
#    0.000    0.000    0.000    0.000    0.000    0.000 
#
# Total GULP energy -111648.726249 kJ/mol
# GULP energy per Si atom -5582.436312 kJ/mol
# Density = 2.587025 g / cm^3
# Si number density = 25.929264 Si / 1000 Ang^3
#
#
#
# Elastic Constant Matrix: (Units=GPa)
#
#
# Indices 1 2 3 4 5 6 
#
# 1 123.4858 16.5243 -4.7458 0.0000 0.0000 0.0000
# 2 16.5243 91.8284 27.0802 0.0000 0.0000 0.0000
# 3 -4.7458 27.0802 90.9714 0.0000 0.0000 0.0000
# 4 0.0000 0.0000 0.0000 43.4275 0.0000 0.0000
# 5 0.0000 0.0000 0.0000 0.0000 32.6848 0.0000
# 6 0.0000 0.0000 0.0000 0.0000 0.0000 56.0967
#
#
#
# Elastic Compliance Matrix: (Units=1/GPa)
#
#
# Indices 1 2 3 4 5 6 
#
# 1 0.008375 -0.001793 0.000971 0.000000 0.000000 0.000000
# 2 -0.001793 0.012322 -0.003762 0.000000 0.000000 0.000000
# 3 0.000971 -0.003762 0.012163 0.000000 0.000000 0.000000
# 4 0.000000 0.000000 0.000000 0.023027 0.000000 0.000000
# 5 0.000000 0.000000 0.000000 0.000000 0.030595 0.000000
# 6 0.000000 0.000000 0.000000 0.000000 0.000000 0.017826
#
#
# Mechanical properties :
#
#
# Convention : Reuss Voigt Hill
#
# Bulk Modulus (GPa) = 42.20869 42.66701 42.43785
# Shear Modulus (GPa) = 41.19493 44.27026 42.73259
#
# Velocity S-wave (km/s) = 3.99023 4.13649 4.06402
# Velocity P-wave (km/s) = 6.12723 6.26936 6.19871
#
# Compressibility (1/GPa) = 0.02369181
#
# Stress axis : x y z
#
# Youngs Moduli (GPa) = 119.39735 81.15649 82.21772
#
# Poissons Ratio (x) = 0.14555 -0.07982
# Poissons Ratio (y) = 0.21413 0.30926
# Poissons Ratio (z) = -0.11591 0.30527
#
# Static dielectric constant tensor:
#      x y z
#    x 2.093430 0.000000 0.000000 
#    y 0.000000 2.148430 0.000000 
#    z 0.000000 0.000000 2.092240 
# 
# From -- ./inp_files/7190.got.cif
#   From: 2010.05.17/outbox.cif.g08.bks.cpg/sg40_4_cif.got.tgz:7190.got - 2010.06.03 18:35:42.
