data_PCOD9365036
_publ_section_title
;
Structure prediction by ZEFSAII (Michael W. Deem and Ramdas Pophale) SiO2 
 PCOD9365036
Probable space group: A M A 2
;
_chemical_formula_sum "Si O2"
_cell_formula_units_Z 48
_cell_length_a 26.425025
_cell_length_b 10.060260
_cell_length_c 9.349713
_cell_angle_alpha 90.000000
_cell_angle_beta 90.000000
_cell_angle_gamma 90.000000
_cell_volume 2485.552219
_symmetry_space_group_name_H-M "A M A 2"
_symmetry_group_IT_number 40
_symmetry_cell_setting 'orthorhombic'
loop_
_space_group_symop_operation_xyz
x,y,z
-x,-y,z
1/2-x,y,z
1/2+x,-y,z
x,1/2+y,1/2+z
-x,1/2-y,1/2+z
1/2-x,1/2+y,1/2+z
1/2+x,1/2-y,1/2+z
loop_
_atom_site_type_symbol
_atom_site_label
_atom_site_fract_x
_atom_site_fract_y
_atom_site_fract_z
Si Si1 0.037589 0.126045 0.937180
Si Si2 0.192713 0.698755 0.616527
Si Si3 0.627163 0.802550 0.399849
Si Si4 0.690595 0.505724 0.086382
Si Si5 0.352519 0.998776 0.906225
Si Si6 0.519048 0.349083 0.771272
O O1 0.094261 0.076681 0.906773
O O2 0.021242 0.243085 0.830220
O O3 0.032227 0.171630 0.103255
O O4 0.000000 0.000000 0.917903
O O5 0.250000 0.702153 0.672707
O O6 0.154434 0.687430 0.746697
O O7 0.183990 0.576330 0.512702
O O8 0.184352 0.840438 0.538932
O O9 0.654330 0.907703 0.501181
O O10 0.635815 0.652093 0.452598
O O11 0.568539 0.829200 0.369300
O O12 0.750000 0.470227 0.072159
O O13 0.673320 0.503923 0.251273
O O14 0.500000 0.500000 0.784372
#
# Coordination Sequence:
#
# PCOD9365036 Si02
#       6
#     8   8   8   8   8   8
#     4  11  24  44  63  94 127 160 206 261 306 374
#     4  10  22  42  64  89 125 165 209 260 314 369
#     4  11  23  42  64  94 125 167 206 259 313 370
#     4  10  24  41  62  94 127 162 210 257 307 372
#     4  11  23  40  67  91 126 163 208 254 315 371
#     4  11  26  40  64  94 126 162 213 254 313 374
#
# _framework density 19.311603999999999
#
# number of rings (size 3 to 8) (size 9 to 14) (size 15 to 20)
#    0.000    1.333    3.333    1.000    4.667    4.000 
#    0.000    0.000    0.000    0.000    0.000    0.000 
#    0.000    0.000    0.000    0.000    0.000    0.000 
#
# Total GULP energy -134114.980488 kJ/mol
# GULP energy per Si atom -5588.124187 kJ/mol
# Density = 1.926765 g / cm^3
# Si number density = 19.311604 Si / 1000 Ang^3
#
#
#
# Elastic Constant Matrix: (Units=GPa)
#
#
# Indices 1 2 3 4 5 6 
#
# 1 47.6843 3.7941 -13.1763 0.0000 0.0000 0.0000
# 2 3.7941 91.2408 31.6107 0.0000 0.0000 0.0000
# 3 -13.1763 31.6107 29.6340 0.0000 0.0000 0.0000
# 4 0.0000 0.0000 0.0000 22.9914 0.0000 0.0000
# 5 0.0000 0.0000 0.0000 0.0000 36.0500 0.0000
# 6 0.0000 0.0000 0.0000 0.0000 0.0000 36.3794
#
#
#
# Elastic Compliance Matrix: (Units=1/GPa)
#
#
# Indices 1 2 3 4 5 6 
#
# 1 0.027558 -0.008551 0.021375 0.000000 0.000000 0.000000
# 2 -0.008551 0.020038 -0.025177 0.000000 0.000000 0.000000
# 3 0.021375 -0.025177 0.070106 0.000000 0.000000 0.000000
# 4 0.000000 0.000000 0.000000 0.043495 0.000000 0.000000
# 5 0.000000 0.000000 0.000000 0.000000 0.027739 0.000000
# 6 0.000000 0.000000 0.000000 0.000000 0.000000 0.027488
#
#
# Mechanical properties :
#
#
# Convention : Reuss Voigt Hill
#
# Bulk Modulus (GPa) = 10.75325 23.66845 17.21085
# Shear Modulus (GPa) = 18.37361 28.83953 23.60657
#
# Velocity S-wave (km/s) = 3.08787 3.86862 3.50008
# Velocity P-wave (km/s) = 4.27710 5.67782 5.02649
#
# Compressibility (1/GPa) = 0.09299515
#
# Stress axis : x y z
#
# Youngs Moduli (GPa) = 36.28692 49.90432 14.26418
#
# Poissons Ratio (x) = 0.42675 -0.30490
# Poissons Ratio (y) = 0.31031 0.35913
# Poissons Ratio (z) = -0.77564 1.25645
#
# Static dielectric constant tensor:
#      x y z
#    x 1.646820 0.000000 0.000000 
#    y 0.000000 1.666120 0.000000 
#    z 0.000000 0.000000 1.646110 
# 
# From -- ./inp_files/9301.got.cif
#   From: 2010.05.17/outbox.cif.g08.bks.cpg/sg40_5_cif.got.tgz:9301.got - 2010.06.03 18:35:42.
