data_PCOD9365740
_publ_section_title
;
Structure prediction by ZEFSAII (Michael W. Deem and Ramdas Pophale) SiO2 
 PCOD9365740
Probable space group: A B A 2
;
_chemical_formula_sum "Si O2"
_cell_formula_units_Z 56
_cell_length_a 8.710932
_cell_length_b 18.194897
_cell_length_c 17.912842
_cell_angle_alpha 90.000000
_cell_angle_beta 90.000000
_cell_angle_gamma 90.000000
_cell_volume 2839.087125
_symmetry_space_group_name_H-M "A B A 2"
_symmetry_group_IT_number 41
_symmetry_cell_setting 'orthorhombic'
loop_
_space_group_symop_operation_xyz
x,y,z
-x,-y,z
1/2-x,y,1/2+z
1/2+x,-y,1/2+z
x,1/2+y,1/2+z
-x,1/2-y,1/2+z
1/2-x,1/2+y,z
1/2+x,1/2-y,z
loop_
_atom_site_type_symbol
_atom_site_label
_atom_site_fract_x
_atom_site_fract_y
_atom_site_fract_z
Si Si1 0.635417 0.454735 0.787700
Si Si2 0.378722 0.719050 0.104514
Si Si3 0.920082 0.345486 0.158439
Si Si4 0.551470 0.083981 0.006714
Si Si5 0.168432 0.349995 0.560604
Si Si6 0.876850 0.062321 0.210545
Si Si7 0.946053 0.414144 0.850810
O O1 0.500000 0.500000 0.827220
O O2 0.561914 0.397559 0.729287
O O3 0.735324 0.514974 0.741785
O O4 0.764359 0.414704 0.837015
O O5 0.261443 0.668730 0.149695
O O6 0.486706 0.768754 0.158210
O O7 0.492280 0.673147 0.051406
O O8 0.269012 0.775556 0.060693
O O9 0.980016 0.381780 0.081649
O O10 0.735546 0.094664 0.009379
O O11 0.500000 0.000000 0.008371
O O12 0.490774 0.119470 0.929993
O O13 0.171403 0.386364 0.642880
O O14 0.958821 0.108425 0.277091
O O15 0.000000 0.000000 0.185249
O O16 0.000000 0.500000 0.855334
#
# Coordination Sequence:
#
# PCOD9365740 Si02
#       7
#     8   8   8   8   8   8   8
#     4  10  17  29  52  79 101 131 167 208 255 309
#     4   9  19  31  47  74 101 134 170 215 259 286
#     4  10  18  31  52  73 102 132 176 212 244 304
#     4  10  19  33  52  76 101 133 167 212 263 308
#     4  10  18  31  53  72  99 134 176 214 249 308
#     4   9  17  30  51  78 106 135 162 204 264 313
#     4   8  18  33  48  72 113 139 153 197 271 320
#
# _framework density 19.72465
#
# number of rings (size 3 to 8) (size 9 to 14) (size 15 to 20)
#    0.000    2.857    0.000    4.714    0.000    0.000 
#    0.000    4.286    0.000   28.286    0.000    0.000 
#    0.000    0.000    0.000    0.000    0.000    0.000 
#
# Total GULP energy -155919.760637 kJ/mol
# GULP energy per Si atom -5568.562880 kJ/mol
# Density = 1.967976 g / cm^3
# Si number density = 19.724650 Si / 1000 Ang^3
#
#
#
# Elastic Constant Matrix: (Units=GPa)
#
#
# Indices 1 2 3 4 5 6 
#
# 1 102.9169 14.6601 10.8886 0.0000 0.0000 0.0000
# 2 14.6601 35.1983 3.7623 0.0000 0.0000 0.0000
# 3 10.8886 3.7623 74.6170 0.0000 0.0000 0.0000
# 4 0.0000 0.0000 0.0000 -2.9103 0.0000 0.0000
# 5 0.0000 0.0000 0.0000 0.0000 14.1954 0.0000
# 6 0.0000 0.0000 0.0000 0.0000 0.0000 37.7658
#
#
#
# Elastic Compliance Matrix: (Units=1/GPa)
#
#
# Indices 1 2 3 4 5 6 
#
# 1 0.010456 -0.004214 -0.001313 0.000000 0.000000 0.000000
# 2 -0.004214 0.030263 -0.000911 0.000000 0.000000 0.000000
# 3 -0.001313 -0.000911 0.013639 0.000000 0.000000 0.000000
# 4 0.000000 0.000000 0.000000 -0.343610 0.000000 0.000000
# 5 0.000000 0.000000 0.000000 0.000000 0.070445 0.000000
# 6 0.000000 0.000000 0.000000 0.000000 0.000000 0.026479
#
#
# Mechanical properties :
#
#
# Convention : Reuss Voigt Hill
#
# Bulk Modulus (GPa) = 24.10744 30.15047 27.12895
# Shear Modulus (GPa) = -30.18905 22.03828 -4.07539
#
# Velocity S-wave (km/s) = -3.91644 3.34622 -1.43897
# Velocity P-wave (km/s) = 2.86405 5.49986 3.32007
#
# Compressibility (1/GPa) = 0.04148098
#
# Stress axis : x y z
#
# Youngs Moduli (GPa) = 95.64013 33.04348 73.31732
#
# Poissons Ratio (x) = 0.13926 0.09629
# Poissons Ratio (y) = 0.40307 0.06679
# Poissons Ratio (z) = 0.12560 0.03010
#
# Static dielectric constant tensor:
#      x y z
#    x 1.765590 0.000000 0.000000 
#    y 0.000000 1.733510 0.000000 
#    z 0.000000 0.000000 1.730870 
# 
# From -- ./inp_files/9807.got.cif
#   From: 2010.05.17/outbox.cif.g08.bks.cpg/sg41_5_cif.got.tgz:9807.got - 2010.06.03 18:54:24.
