data_PCOD9365573
_publ_section_title
;
Structure prediction by ZEFSAII (Michael W. Deem and Ramdas Pophale) SiO2 
 PCOD9365573
Probable space group: A M A 2
;
_chemical_formula_sum "Si O2"
_cell_formula_units_Z 40
_cell_length_a 27.086333
_cell_length_b 13.168094
_cell_length_c 4.755046
_cell_angle_alpha 90.000000
_cell_angle_beta 90.000000
_cell_angle_gamma 90.000000
_cell_volume 1696.007834
_symmetry_space_group_name_H-M "A M A 2"
_symmetry_group_IT_number 40
_symmetry_cell_setting 'orthorhombic'
loop_
_space_group_symop_operation_xyz
x,y,z
-x,-y,z
1/2-x,y,z
1/2+x,-y,z
x,1/2+y,1/2+z
-x,1/2-y,1/2+z
1/2-x,1/2+y,1/2+z
1/2+x,1/2-y,1/2+z
loop_
_atom_site_type_symbol
_atom_site_label
_atom_site_fract_x
_atom_site_fract_y
_atom_site_fract_z
Si Si1 0.966146 0.239098 0.302590
Si Si2 0.401884 0.582283 0.073988
Si Si3 0.945134 0.024335 0.048508
Si Si4 0.750000 0.062644 0.982389
Si Si5 0.250000 0.289103 0.983042
Si Si6 0.802075 0.386523 0.755276
O O1 0.926148 0.324665 0.239760
O O2 0.945775 0.133727 0.188314
O O3 0.984918 0.233803 0.620306
O O4 0.406566 0.491290 0.298052
O O5 0.434187 0.552792 0.802729
O O6 0.348636 0.607189 0.951520
O O7 0.000000 0.000000 0.934553
O O8 0.750000 0.163100 0.176611
O O9 0.795417 0.987700 0.064332
O O10 0.750000 0.110239 0.676070
O O11 0.204084 0.214855 0.065224
O O12 0.750000 0.385609 0.925761
#
# Coordination Sequence:
#
# PCOD9365573 Si02
#       6
#     8   8   8   4   4   8
#     4  12  23  40  64  91 127 166 208 261 311 371
#     4  12  24  43  64  95 125 170 208 253 326 367
#     4  12  24  41  67  90 130 166 210 262 313 371
#     4   9  20  39  64  86 126 159 202 257 312 354
#     4   9  20  41  66  86 130 161 202 259 314 352
#     4   8  24  42  64  95 127 163 210 263 302 381
#
# _framework density 23.584799
#
# number of rings (size 3 to 8) (size 9 to 14) (size 15 to 20)
#    1.200    0.000    4.000    1.800    0.000    9.600 
#    0.000    0.000    0.000    0.000    0.000    0.000 
#    0.000    0.000    0.000    0.000    0.000    0.000 
#
# Total GULP energy -111847.527994 kJ/mol
# GULP energy per Si atom -5592.376400 kJ/mol
# Density = 2.353112 g / cm^3
# Si number density = 23.584799 Si / 1000 Ang^3
#
#
#
# Elastic Constant Matrix: (Units=GPa)
#
#
# Indices 1 2 3 4 5 6 
#
# 1 78.9898 10.1321 -1.9297 0.0000 0.0000 0.0000
# 2 10.1321 113.8725 2.8983 0.0000 0.0000 0.0000
# 3 -1.9297 2.8983 69.9107 0.0000 0.0000 0.0000
# 4 0.0000 0.0000 0.0000 23.4514 0.0000 0.0000
# 5 0.0000 0.0000 0.0000 0.0000 17.2658 0.0000
# 6 0.0000 0.0000 0.0000 0.0000 0.0000 15.0254
#
#
#
# Elastic Compliance Matrix: (Units=1/GPa)
#
#
# Indices 1 2 3 4 5 6 
#
# 1 0.012817 -0.001151 0.000401 0.000000 0.000000 0.000000
# 2 -0.001151 0.008894 -0.000401 0.000000 0.000000 0.000000
# 3 0.000401 -0.000401 0.014332 0.000000 0.000000 0.000000
# 4 0.000000 0.000000 0.000000 0.042641 0.000000 0.000000
# 5 0.000000 0.000000 0.000000 0.000000 0.057918 0.000000
# 6 0.000000 0.000000 0.000000 0.000000 0.000000 0.066554
#
#
# Mechanical properties :
#
#
# Convention : Reuss Voigt Hill
#
# Bulk Modulus (GPa) = 29.63499 31.66382 30.64941
# Shear Modulus (GPa) = 23.07297 27.92668 25.49982
#
# Velocity S-wave (km/s) = 3.13117 3.44480 3.29172
# Velocity P-wave (km/s) = 5.06605 5.41081 5.24127
#
# Compressibility (1/GPa) = 0.03374390
#
# Stress axis : x y z
#
# Youngs Moduli (GPa) = 78.01972 112.43116 69.77566
#
# Poissons Ratio (x) = 0.12937 -0.02801
# Poissons Ratio (y) = 0.08977 0.02795
# Poissons Ratio (z) = -0.03132 0.04503
#
# Static dielectric constant tensor:
#      x y z
#    x 1.902550 0.000000 0.000000 
#    y 0.000000 1.932390 0.000000 
#    z 0.000000 0.000000 1.866390 
# 
# From -- ./inp_files/2984.got.cif
#   From: 2010.05.17/outbox.cif.g08.bks.cpg/sg40_2_cif.got.tgz:2984.got - 2010.06.03 18:35:42.
