data_PCOD9365613
_publ_section_title
;
Structure prediction by ZEFSAII (Michael W. Deem and Ramdas Pophale) SiO2 
 PCOD9365613
Probable space group: A M A 2
;
_chemical_formula_sum "Si O2"
_cell_formula_units_Z 28
_cell_length_a 9.000000
_cell_length_b 18.000000
_cell_length_c 21.000000
_cell_angle_alpha 90.000000
_cell_angle_beta 90.000000
_cell_angle_gamma 90.000000
_cell_volume 3402.000000
_symmetry_space_group_name_H-M "A M A 2"
_symmetry_group_IT_number 40
_symmetry_cell_setting 'orthorhombic'
loop_
_space_group_symop_operation_xyz
x,y,z
-x,-y,z
1/2-x,y,z
1/2+x,-y,z
x,1/2+y,1/2+z
-x,1/2-y,1/2+z
1/2-x,1/2+y,1/2+z
1/2+x,1/2-y,1/2+z
loop_
_atom_site_type_symbol
_atom_site_label
_atom_site_fract_x
_atom_site_fract_y
_atom_site_fract_z
Si Si1 0.081106 0.342738 0.078350
Si Si2 0.926672 0.793780 0.000627
Si Si3 0.428844 0.162238 0.818992
Si Si4 0.076506 0.921478 0.440480
Si Si5 0.928062 0.579784 0.440241
Si Si6 0.424322 0.579294 0.190179
Si Si7 0.427243 0.709479 0.880235
O O1 0.250000 0.354446 0.101286
O O2 0.058003 0.256261 0.062816
O O3 0.968383 0.375248 0.128122
O O4 0.068177 0.383907 0.010412
O O5 0.750000 0.799220 0.986397
O O6 0.007492 0.871939 0.998503
O O7 0.009054 0.749823 0.943708
O O8 0.250000 0.162756 0.827198
O O9 0.505971 0.116172 0.875731
O O10 0.468626 0.124062 0.752982
O O11 0.495559 0.244614 0.824185
O O12 0.250000 0.925026 0.423907
O O13 0.987385 0.872848 0.389381
O O14 0.000000 0.000000 0.445464
O O15 0.750000 0.579613 0.438403
O O16 0.000000 0.500000 0.444366
O O17 0.500000 0.500000 0.188252
O O18 0.250000 0.567890 0.192874
O O19 0.250000 0.714083 0.878053
#
# Coordination Sequence:
#
# PCOD9365613 Si02
#       7
#     8   8   8   8   8   8   8
#     4   9  19  33  49  67  93 126 158 192 231 273
#     4   9  17  31  48  67  91 121 154 192 234 278
#     4  10  20  34  48  66  93 126 160 196 233 275
#     4  10  19  31  47  70  97 125 155 193 236 279
#     4  11  20  30  47  71  96 124 154 192 236 280
#     4  11  23  34  48  68  94 127 162 196 230 268
#     4  10  18  29  47  69  91 121 155 191 234 281
#
# _framework density 8.2304530000000007
#
# number of rings (size 3 to 8) (size 9 to 14) (size 15 to 20)
#    0.000    2.000    0.000    7.714    0.000    8.000 
#    0.000    0.000    0.000    0.000    0.000    1.000 
#    0.000    2.286    0.000    0.000    0.000    0.000 
#
# Total GULP energy -156001.926465 kJ/mol
# GULP energy per Si atom -5571.497374 kJ/mol
# Density = 0.821172 g / cm^3
# Si number density = 8.230453 Si / 1000 Ang^3
#
#
#
# Elastic Constant Matrix: (Units=GPa)
#
#
# Indices 1 2 3 4 5 6 
#
# 1 91.0453 49.1402 23.4621 0.0000 0.0000 0.0000
# 2 49.1402 62.8074 29.1843 0.0000 0.0000 0.0000
# 3 23.4621 29.1843 30.1557 0.0000 0.0000 0.0000
# 4 0.0000 0.0000 0.0000 14.7073 0.0000 0.0000
# 5 0.0000 0.0000 0.0000 0.0000 15.9673 0.0000
# 6 0.0000 0.0000 0.0000 0.0000 0.0000 32.7314
#
#
#
# Elastic Compliance Matrix: (Units=1/GPa)
#
#
# Indices 1 2 3 4 5 6 
#
# 1 0.019021 -0.014547 -0.000720 0.000000 0.000000 0.000000
# 2 -0.014547 0.040058 -0.027450 0.000000 0.000000 0.000000
# 3 -0.000720 -0.027450 0.060287 0.000000 0.000000 0.000000
# 4 0.000000 0.000000 0.000000 0.067994 0.000000 0.000000
# 5 0.000000 0.000000 0.000000 0.000000 0.062628 0.000000
# 6 0.000000 0.000000 0.000000 0.000000 0.000000 0.030552
#
#
# Mechanical properties :
#
#
# Convention : Reuss Voigt Hill
#
# Bulk Modulus (GPa) = 29.47077 43.06464 36.26771
# Shear Modulus (GPa) = 13.25264 18.16265 15.70765
#
# Velocity S-wave (km/s) = 2.84050 3.32532 3.09243
# Velocity P-wave (km/s) = 5.35727 6.40018 5.90180
#
# Compressibility (1/GPa) = 0.03393193
#
# Stress axis : x y z
#
# Youngs Moduli (GPa) = 52.57440 24.96384 16.58730
#
# Poissons Ratio (x) = 0.36315 0.01195
# Poissons Ratio (y) = 0.76480 0.45531
# Poissons Ratio (z) = 0.03787 0.68525
#
# Static dielectric constant tensor:
#      x y z
#    x 1.538190 0.000000 0.000000 
#    y 0.000000 1.583710 0.000000 
#    z 0.000000 0.000000 1.540030 
# 
# From -- ./inp_files/22315.got.cif
#   From: 2010.05.17/outbox.ucp.g08.bks.cvg/sg40_12_cif.got.tgz:22315.got - 2010.06.11 16:26:39.
