data_PCOD9365721
_publ_section_title
;
Structure prediction by ZEFSAII (Michael W. Deem and Ramdas Pophale) SiO2 
 PCOD9365721
Probable space group: A B A 2
;
_chemical_formula_sum "Si O2"
_cell_formula_units_Z 40
_cell_length_a 22.860692
_cell_length_b 5.157031
_cell_length_c 14.370885
_cell_angle_alpha 90.000000
_cell_angle_beta 90.000000
_cell_angle_gamma 90.000000
_cell_volume 1694.231018
_symmetry_space_group_name_H-M "A B A 2"
_symmetry_group_IT_number 41
_symmetry_cell_setting 'orthorhombic'
loop_
_space_group_symop_operation_xyz
x,y,z
-x,-y,z
1/2-x,y,1/2+z
1/2+x,-y,1/2+z
x,1/2+y,1/2+z
-x,1/2-y,1/2+z
1/2-x,1/2+y,z
1/2+x,1/2-y,z
loop_
_atom_site_type_symbol
_atom_site_label
_atom_site_fract_x
_atom_site_fract_y
_atom_site_fract_z
Si Si1 0.095336 0.757640 0.258320
Si Si2 0.273669 0.216348 0.929521
Si Si3 0.500000 0.000000 0.124716
Si Si4 0.096496 0.747905 0.879752
Si Si5 0.500000 0.000000 0.512995
Si Si6 0.223789 0.778006 0.217348
O O1 0.048119 0.646466 0.187129
O O2 0.111071 0.502739 0.318699
O O3 0.156102 0.850835 0.213367
O O4 0.073974 0.002488 0.319602
O O5 0.263442 0.491523 0.975243
O O6 0.342049 0.156354 0.922992
O O7 0.244960 0.253576 0.825916
O O8 0.474438 0.750697 0.068542
O O9 0.049152 0.857211 0.951401
O O10 0.235117 0.497608 0.176776
#
# Coordination Sequence:
#
# PCOD9365721 Si02
#       6
#     8   8   4   8   4   8
#     4  12  22  40  72 101 124 171 237 288 321 398
#     4  10  16  31  58 103 131 147 197 293 354 368
#     4  12  29  48  61  90 148 196 222 272 349 410
#     4  12  22  40  72 101 124 171 237 288 321 398
#     4  12  29  48  61  90 148 196 222 272 349 410
#     4  10  16  31  58 103 131 147 197 293 354 368
#
# _framework density 23.609532000000002
#
# number of rings (size 3 to 8) (size 9 to 14) (size 15 to 20)
#    0.000    0.800    8.000    3.000    0.000    1.600 
#    0.000    0.000    0.000    7.200    0.000    0.000 
#    0.000    0.000    0.000    0.000    0.000    0.000 
#
# Total GULP energy -111692.579509 kJ/mol
# GULP energy per Si atom -5584.628975 kJ/mol
# Density = 2.355580 g / cm^3
# Si number density = 23.609532 Si / 1000 Ang^3
#
#
#
# Elastic Constant Matrix: (Units=GPa)
#
#
# Indices 1 2 3 4 5 6 
#
# 1 144.5440 26.4735 37.3292 0.0000 0.0000 0.0000
# 2 26.4735 197.5120 26.9968 0.0000 0.0000 0.0000
# 3 37.3292 26.9968 65.7886 0.0000 0.0000 0.0000
# 4 0.0000 0.0000 0.0000 25.9156 0.0000 0.0000
# 5 0.0000 0.0000 0.0000 0.0000 -41.0831 0.0000
# 6 0.0000 0.0000 0.0000 0.0000 0.0000 27.6934
#
#
#
# Elastic Compliance Matrix: (Units=1/GPa)
#
#
# Indices 1 2 3 4 5 6 
#
# 1 0.008150 -0.000488 -0.004424 0.000000 0.000000 0.000000
# 2 -0.000488 0.005393 -0.001936 0.000000 0.000000 0.000000
# 3 -0.004424 -0.001936 0.018505 0.000000 0.000000 0.000000
# 4 0.000000 0.000000 0.000000 0.038587 0.000000 0.000000
# 5 0.000000 0.000000 0.000000 0.000000 -0.024341 0.000000
# 6 0.000000 0.000000 0.000000 0.000000 0.000000 0.036110
#
#
# Mechanical properties :
#
#
# Convention : Reuss Voigt Hill
#
# Bulk Modulus (GPa) = 54.49103 65.49373 59.99238
# Shear Modulus (GPa) = 48.91497 23.64152 36.27825
#
# Velocity S-wave (km/s) = 4.55668 3.16785 3.92419
# Velocity P-wave (km/s) = 7.12844 6.41724 6.78217
#
# Compressibility (1/GPa) = 0.01835164
#
# Stress axis : x y z
#
# Youngs Moduli (GPa) = 122.69549 185.42498 54.03866
#
# Poissons Ratio (x) = 0.09043 0.23909
# Poissons Ratio (y) = 0.05983 0.10464
# Poissons Ratio (z) = 0.54286 0.35905
#
# Static dielectric constant tensor:
#      x y z
#    x 1.875670 0.000000 0.000000 
#    y 0.000000 1.732030 0.000000 
#    z 0.000000 0.000000 2.266880 
# 
# From -- ./inp_files/9092.got.cif
#   From: 2010.05.17/outbox.cif.g08.bks.cpg/sg41_5_cif.got.tgz:9092.got - 2010.06.03 18:54:24.
