data_PCOD9365733
_publ_section_title
;
Structure prediction by ZEFSAII (Michael W. Deem and Ramdas Pophale) SiO2 
 PCOD9365733
Probable space group: A B A 2
;
_chemical_formula_sum "Si O2"
_cell_formula_units_Z 52
_cell_length_a 16.769734
_cell_length_b 16.353843
_cell_length_c 9.843094
_cell_angle_alpha 90.000000
_cell_angle_beta 90.000000
_cell_angle_gamma 90.000000
_cell_volume 2699.464563
_symmetry_space_group_name_H-M "A B A 2"
_symmetry_group_IT_number 41
_symmetry_cell_setting 'orthorhombic'
loop_
_space_group_symop_operation_xyz
x,y,z
-x,-y,z
1/2-x,y,1/2+z
1/2+x,-y,1/2+z
x,1/2+y,1/2+z
-x,1/2-y,1/2+z
1/2-x,1/2+y,z
1/2+x,1/2-y,z
loop_
_atom_site_type_symbol
_atom_site_label
_atom_site_fract_x
_atom_site_fract_y
_atom_site_fract_z
Si Si1 0.336739 0.652073 0.334470
Si Si2 0.661968 0.582250 0.166779
Si Si3 0.662815 0.857004 0.305257
Si Si4 0.931512 0.336066 0.559721
Si Si5 0.908920 0.255567 0.082171
Si Si6 0.753724 0.005980 0.901786
Si Si7 0.000000 0.500000 0.600851
O O1 0.248922 0.676178 0.771866
O O2 0.396580 0.646983 0.208695
O O3 0.370646 0.714579 0.442638
O O4 0.312979 0.566906 0.411269
O O5 0.636499 0.674409 0.134081
O O6 0.714837 0.571614 0.301302
O O7 0.578034 0.532761 0.180260
O O8 0.710908 0.541368 0.040975
O O9 0.636652 0.821128 0.450408
O O10 0.602776 0.826559 0.192477
O O11 0.676746 0.953979 0.325476
O O12 0.998974 0.267870 0.563592
O O13 0.973180 0.421197 0.516119
#
# Coordination Sequence:
#
# PCOD9365733 Si02
#       7
#     8   8   8   8   8   8   4
#     4  10  20  38  60  82 110 157 187 229 274 350
#     4  11  22  36  59  87 109 149 184 243 272 339
#     4  10  20  38  60  82 110 157 187 229 274 350
#     4  11  20  36  61  85 113 146 197 223 289 332
#     4  11  24  34  58  86 121 140 185 243 287 318
#     4  10  20  38  62  78 112 150 200 218 280 348
#     4  10  16  38  56  86 108 148 182 232 282 328
#
# _framework density 19.263079999999999
#
# number of rings (size 3 to 8) (size 9 to 14) (size 15 to 20)
#    0.923    0.615    3.077    2.769    2.154    0.000 
#    0.000    0.000    0.000    1.846    0.000    0.000 
#    0.000    0.000    0.000    0.000    0.000    0.000 
#
# Total GULP energy -144817.187877 kJ/mol
# GULP energy per Si atom -5569.891841 kJ/mol
# Density = 1.921924 g / cm^3
# Si number density = 19.263080 Si / 1000 Ang^3
#
#
#
# Elastic Constant Matrix: (Units=GPa)
#
#
# Indices 1 2 3 4 5 6 
#
# 1 58.1666 3.8907 16.7659 0.0000 0.0000 0.0000
# 2 3.8907 29.7924 1.8541 0.0000 0.0000 0.0000
# 3 16.7659 1.8541 41.2755 0.0000 0.0000 0.0000
# 4 0.0000 0.0000 0.0000 12.9436 0.0000 0.0000
# 5 0.0000 0.0000 0.0000 0.0000 20.9569 0.0000
# 6 0.0000 0.0000 0.0000 0.0000 0.0000 3.2868
#
#
#
# Elastic Compliance Matrix: (Units=1/GPa)
#
#
# Indices 1 2 3 4 5 6 
#
# 1 0.019598 -0.002070 -0.007868 0.000000 0.000000 0.000000
# 2 -0.002070 0.033878 -0.000681 0.000000 0.000000 0.000000
# 3 -0.007868 -0.000681 0.027454 0.000000 0.000000 0.000000
# 4 0.000000 0.000000 0.000000 0.077258 0.000000 0.000000
# 5 0.000000 0.000000 0.000000 0.000000 0.047717 0.000000
# 6 0.000000 0.000000 0.000000 0.000000 0.000000 0.304247
#
#
# Mechanical properties :
#
#
# Convention : Reuss Voigt Hill
#
# Bulk Modulus (GPa) = 16.75234 19.36178 18.05706
# Shear Modulus (GPa) = 9.06967 14.55238 11.81102
#
# Velocity S-wave (km/s) = 2.17222 2.75153 2.47886
# Velocity P-wave (km/s) = 3.87387 4.49084 4.19372
#
# Compressibility (1/GPa) = 0.05969315
#
# Stress axis : x y z
#
# Youngs Moduli (GPa) = 51.02506 29.51746 36.42473
#
# Poissons Ratio (x) = 0.06109 0.28658
# Poissons Ratio (y) = 0.10561 0.02481
# Poissons Ratio (z) = 0.40145 0.02010
#
# Static dielectric constant tensor:
#      x y z
#    x 1.695030 0.000000 0.000000 
#    y 0.000000 1.707860 0.000000 
#    z 0.000000 0.000000 1.642710 
# 
# From -- ./inp_files/3122.got.cif
#   From: 2010.05.17/outbox.cif.g08.bks.cpg/sg41_2_cif.got.tgz:3122.got - 2010.06.03 18:54:24.
