data_PCOD9365532
_publ_section_title
;
Structure prediction by ZEFSAII (Michael W. Deem and Ramdas Pophale) SiO2 
 PCOD9365532
Probable space group: A M A 2
;
_chemical_formula_sum "Si O2"
_cell_formula_units_Z 60
_cell_length_a 17.769028
_cell_length_b 8.845181
_cell_length_c 17.378531
_cell_angle_alpha 90.000000
_cell_angle_beta 90.000000
_cell_angle_gamma 90.000000
_cell_volume 2731.388390
_symmetry_space_group_name_H-M "A M A 2"
_symmetry_group_IT_number 40
_symmetry_cell_setting 'orthorhombic'
loop_
_space_group_symop_operation_xyz
x,y,z
-x,-y,z
1/2-x,y,z
1/2+x,-y,z
x,1/2+y,1/2+z
-x,1/2-y,1/2+z
1/2-x,1/2+y,1/2+z
1/2+x,1/2-y,1/2+z
loop_
_atom_site_type_symbol
_atom_site_label
_atom_site_fract_x
_atom_site_fract_y
_atom_site_fract_z
Si Si1 0.603875 0.097268 0.759890
Si Si2 0.551230 0.251093 0.235387
Si Si3 0.832523 0.665224 0.425209
Si Si4 0.416240 0.558492 0.972552
Si Si5 0.169174 0.906141 0.600446
Si Si6 0.371200 0.624876 0.503929
Si Si7 0.500000 0.000000 0.112156
Si Si8 0.840218 0.674621 0.867330
O O1 0.532270 0.209140 0.767356
O O2 0.648271 0.106049 0.839672
O O3 0.651217 0.146474 0.686031
O O4 0.582255 0.925251 0.733883
O O5 0.612953 0.170377 0.289037
O O6 0.536615 0.134519 0.164719
O O7 0.750000 0.739211 0.424202
O O8 0.900560 0.768515 0.455315
O O9 0.829594 0.528058 0.484667
O O10 0.500000 0.500000 0.957467
O O11 0.358031 0.475514 0.915323
O O12 0.392891 0.510308 0.058815
O O13 0.250000 0.985079 0.598041
O O14 0.170878 0.756257 0.549004
O O15 0.442048 0.584030 0.555797
O O16 0.381870 0.698406 0.419603
O O17 0.750000 0.701754 0.860329
#
# Coordination Sequence:
#
# PCOD9365532 Si02
#       8
#     8   8   8   8   8   8   4   8
#     4  11  25  43  72 103 141 187 230 293 353 428
#     4  11  26  46  70 103 142 184 240 286 358 426
#     4  12  25  44  70 107 142 182 242 298 360 425
#     4  11  26  42  72 103 143 184 242 295 350 425
#     4  11  24  46  70 100 144 191 231 284 365 431
#     4  11  25  43  73 101 143 183 240 295 358 420
#     4  12  28  46  70 108 140 188 240 300 348 432
#     4  11  24  47  73 102 144 188 233 293 365 429
#
# _framework density 21.966851999999999
#
# number of rings (size 3 to 8) (size 9 to 14) (size 15 to 20)
#    0.000    0.800    2.667    4.400   12.133    0.533 
#    0.000    2.000    0.000    0.000    0.000    0.000 
#    0.000    0.000    0.000    0.000    0.000    0.000 
#
# Total GULP energy -167341.261554 kJ/mol
# GULP energy per Si atom -5578.042052 kJ/mol
# Density = 2.191685 g / cm^3
# Si number density = 21.966852 Si / 1000 Ang^3
#
#
#
# Elastic Constant Matrix: (Units=GPa)
#
#
# Indices 1 2 3 4 5 6 
#
# 1 115.7955 19.3325 67.1818 0.0000 0.0000 0.0000
# 2 19.3325 71.8295 25.6256 0.0000 0.0000 0.0000
# 3 67.1818 25.6256 126.8459 0.0000 0.0000 0.0000
# 4 0.0000 0.0000 0.0000 23.4683 0.0000 0.0000
# 5 0.0000 0.0000 0.0000 0.0000 260.9142 0.0000
# 6 0.0000 0.0000 0.0000 0.0000 0.0000 25.9438
#
#
#
# Elastic Compliance Matrix: (Units=1/GPa)
#
#
# Indices 1 2 3 4 5 6 
#
# 1 0.012545 -0.001084 -0.006425 0.000000 0.000000 0.000000
# 2 -0.001084 0.015097 -0.002476 0.000000 0.000000 0.000000
# 3 -0.006425 -0.002476 0.011787 0.000000 0.000000 0.000000
# 4 0.000000 0.000000 0.000000 0.042611 0.000000 0.000000
# 5 0.000000 0.000000 0.000000 0.000000 0.003833 0.000000
# 6 0.000000 0.000000 0.000000 0.000000 0.000000 0.038545
#
#
# Mechanical properties :
#
#
# Convention : Reuss Voigt Hill
#
# Bulk Modulus (GPa) = 51.39173 59.86118 55.62646
# Shear Modulus (GPa) = 33.14068 75.55400 54.34734
#
# Velocity S-wave (km/s) = 3.88837 5.87105 4.97939
# Velocity P-wave (km/s) = 6.60342 8.55972 7.64441
#
# Compressibility (1/GPa) = 0.01945838
#
# Stress axis : x y z
#
# Youngs Moduli (GPa) = 79.71594 66.23888 84.84195
#
# Poissons Ratio (x) = 0.07181 0.54511
# Poissons Ratio (y) = 0.08642 0.21004
# Poissons Ratio (z) = 0.51217 0.16399
#
# Static dielectric constant tensor:
#      x y z
#    x 1.857720 0.000000 0.000000 
#    y 0.000000 1.846510 0.000000 
#    z 0.000000 0.000000 1.802380 
# 
# From -- ./inp_files/21126.got.cif
#   From: 2010.05.17/outbox.cif.g08.bks.cpg/sg40_11_cif.got.tgz:21126.got - 2010.06.03 18:35:42.
