data_PCOD9365354
_publ_section_title
;
Structure prediction by ZEFSAII (Michael W. Deem and Ramdas Pophale) SiO2 
 PCOD9365354
Probable space group: A M A 2
;
_chemical_formula_sum "Si O2"
_cell_formula_units_Z 48
_cell_length_a 13.446628
_cell_length_b 10.427152
_cell_length_c 16.659717
_cell_angle_alpha 90.000000
_cell_angle_beta 90.000000
_cell_angle_gamma 90.000000
_cell_volume 2335.859488
_symmetry_space_group_name_H-M "A M A 2"
_symmetry_group_IT_number 40
_symmetry_cell_setting 'orthorhombic'
loop_
_space_group_symop_operation_xyz
x,y,z
-x,-y,z
1/2-x,y,z
1/2+x,-y,z
x,1/2+y,1/2+z
-x,1/2-y,1/2+z
1/2-x,1/2+y,1/2+z
1/2+x,1/2-y,1/2+z
loop_
_atom_site_type_symbol
_atom_site_label
_atom_site_fract_x
_atom_site_fract_y
_atom_site_fract_z
Si Si1 0.964049 0.645186 0.857480
Si Si2 0.027319 0.644437 0.034155
Si Si3 0.750000 0.589828 0.154320
Si Si4 0.750000 0.914072 0.506264
Si Si5 0.750000 0.827376 0.026256
Si Si6 0.750000 0.151043 0.378102
Si Si7 0.430755 0.620218 0.619609
Si Si8 0.358973 0.258427 0.269697
O O1 0.851410 0.655561 0.828246
O O2 0.000000 0.500000 0.842603
O O3 0.044722 0.744290 0.823738
O O4 0.961394 0.660276 0.953814
O O5 0.000000 0.500000 0.062878
O O6 0.994827 0.754289 0.095161
O O7 0.141886 0.652311 0.004575
O O8 0.750000 0.705114 0.088295
O O9 0.658179 0.614747 0.214878
O O10 0.750000 0.469961 0.097466
O O11 0.750000 0.024123 0.436514
O O12 0.650799 0.901373 0.050437
O O13 0.750000 0.772617 0.937642
O O14 0.500000 0.500000 0.628817
O O15 0.374338 0.649540 0.702324
O O16 0.250000 0.239682 0.310173
#
# Coordination Sequence:
#
# PCOD9365354 Si02
#       8
#     8   8   4   4   4   4   8   8
#     4  11  21  31  54  91 118 149 195 255 299 347
#     4  11  21  34  61  90 119 149 201 251 294 354
#     4   7  16  32  59  74 114 159 189 229 286 364
#     4  11  18  34  55  94 119 146 194 259 313 338
#     4   9  16  35  55  74 107 150 197 217 291 343
#     4  11  18  33  55  84 120 151 186 247 304 349
#     4  11  21  38  59  86 116 159 197 239 292 360
#     4   9  20  36  57  81 118 159 198 232 297 360
#
# _framework density 20.549181999999998
#
# number of rings (size 3 to 8) (size 9 to 14) (size 15 to 20)
#    0.500    1.333    5.833    2.500    2.333    0.667 
#    0.000    0.833    0.000    3.000    4.333    0.000 
#    0.000    0.000    0.000    0.000    0.000    0.000 
#
# Total GULP energy -133713.628312 kJ/mol
# GULP energy per Si atom -5571.401180 kJ/mol
# Density = 2.050241 g / cm^3
# Si number density = 20.549182 Si / 1000 Ang^3
#
#
#
# Elastic Constant Matrix: (Units=GPa)
#
#
# Indices 1 2 3 4 5 6 
#
# 1 142.2504 5.2859 0.6992 0.0000 0.0000 0.0000
# 2 5.2859 25.1595 5.1066 0.0000 0.0000 0.0000
# 3 0.6992 5.1066 25.8367 0.0000 0.0000 0.0000
# 4 0.0000 0.0000 0.0000 13.2504 0.0000 0.0000
# 5 0.0000 0.0000 0.0000 0.0000 33.5258 0.0000
# 6 0.0000 0.0000 0.0000 0.0000 0.0000 13.7867
#
#
#
# Elastic Compliance Matrix: (Units=1/GPa)
#
#
# Indices 1 2 3 4 5 6 
#
# 1 0.007085 -0.001510 0.000107 0.000000 0.000000 0.000000
# 2 -0.001510 0.041729 -0.008207 0.000000 0.000000 0.000000
# 3 0.000107 -0.008207 0.040324 0.000000 0.000000 0.000000
# 4 0.000000 0.000000 0.000000 0.075469 0.000000 0.000000
# 5 0.000000 0.000000 0.000000 0.000000 0.029828 0.000000
# 6 0.000000 0.000000 0.000000 0.000000 0.000000 0.072534
#
#
# Mechanical properties :
#
#
# Convention : Reuss Voigt Hill
#
# Bulk Modulus (GPa) = 14.30250 23.93666 19.11958
# Shear Modulus (GPa) = 16.15528 24.25625 20.20576
#
# Velocity S-wave (km/s) = 2.80693 3.43942 3.13914
# Velocity P-wave (km/s) = 4.18095 5.23895 4.73956
#
# Compressibility (1/GPa) = 0.06991785
#
# Stress axis : x y z
#
# Youngs Moduli (GPa) = 141.13425 23.96391 24.79922
#
# Poissons Ratio (x) = 0.03619 -0.00265
# Poissons Ratio (y) = 0.21315 0.20353
# Poissons Ratio (z) = -0.01507 0.19667
#
# Static dielectric constant tensor:
#      x y z
#    x 1.839010 0.000000 0.000000 
#    y 0.000000 1.735690 0.000000 
#    z 0.000000 0.000000 1.759610 
# 
# From -- ./inp_files/20052.got.cif
#   From: 2010.05.17/outbox.cif.g08.bks.cpg/sg40_11_cif.got.tgz:20052.got - 2010.06.03 18:35:42.
