data_PCOD9365517
_publ_section_title
;
Structure prediction by ZEFSAII (Michael W. Deem and Ramdas Pophale) SiO2 
 PCOD9365517
Probable space group: A M A 2
;
_chemical_formula_sum "Si O2"
_cell_formula_units_Z 40
_cell_length_a 15.965258
_cell_length_b 19.340416
_cell_length_c 5.657370
_cell_angle_alpha 90.000000
_cell_angle_beta 90.000000
_cell_angle_gamma 90.000000
_cell_volume 1746.852901
_symmetry_space_group_name_H-M "A M A 2"
_symmetry_group_IT_number 40
_symmetry_cell_setting 'orthorhombic'
loop_
_space_group_symop_operation_xyz
x,y,z
-x,-y,z
1/2-x,y,z
1/2+x,-y,z
x,1/2+y,1/2+z
-x,1/2-y,1/2+z
1/2-x,1/2+y,1/2+z
1/2+x,1/2-y,1/2+z
loop_
_atom_site_type_symbol
_atom_site_label
_atom_site_fract_x
_atom_site_fract_y
_atom_site_fract_z
Si Si1 0.250000 0.368412 0.533130
Si Si2 0.411663 0.034384 0.732438
Si Si3 0.381896 0.772529 0.232886
Si Si4 0.750000 0.547948 0.041489
Si Si5 0.522363 0.335495 0.950423
Si Si6 0.159588 0.648155 0.560570
O O1 0.327475 0.315968 0.553337
O O2 0.250000 0.404324 0.278988
O O3 0.250000 0.415904 0.777479
O O4 0.450750 0.094850 0.574637
O O5 0.361363 0.075286 0.936804
O O6 0.500000 0.000000 0.820874
O O7 0.338763 0.993809 0.585251
O O8 0.425045 0.829447 0.397588
O O9 0.336875 0.711257 0.373740
O O10 0.454969 0.730837 0.104849
O O11 0.582836 0.334109 0.726342
O O12 0.250000 0.643985 0.684108
#
# Coordination Sequence:
#
# PCOD9365517 Si02
#       6
#     4   8   8   4   8   8
#     4  12  30  45  78 101 152 184 248 306 372 420
#     4  11  27  47  69  99 144 196 250 299 361 438
#     4  11  24  44  69 110 135 187 234 306 371 442
#     4  12  30  51  72 109 144 200 254 300 364 442
#     4  11  25  41  73  99 145 182 244 297 375 436
#     4  11  24  43  72 100 140 186 236 302 365 441
#
# _framework density 22.898320999999999
#
# number of rings (size 3 to 8) (size 9 to 14) (size 15 to 20)
#    0.000    0.800    4.000    1.200   11.200    0.800 
#    0.000    0.000    0.000    0.000    0.000    0.000 
#    0.000    0.000    0.000    0.000    0.000    0.000 
#
# Total GULP energy -111563.602552 kJ/mol
# GULP energy per Si atom -5578.180128 kJ/mol
# Density = 2.284620 g / cm^3
# Si number density = 22.898321 Si / 1000 Ang^3
#
#
#
# Elastic Constant Matrix: (Units=GPa)
#
#
# Indices 1 2 3 4 5 6 
#
# 1 94.6687 26.9354 -14.3295 0.0000 0.0000 0.0000
# 2 26.9354 85.4622 13.4673 0.0000 0.0000 0.0000
# 3 -14.3295 13.4673 44.7847 0.0000 0.0000 0.0000
# 4 0.0000 0.0000 0.0000 21.4588 0.0000 0.0000
# 5 0.0000 0.0000 0.0000 0.0000 32.8342 0.0000
# 6 0.0000 0.0000 0.0000 0.0000 0.0000 158.4300
#
#
#
# Elastic Compliance Matrix: (Units=1/GPa)
#
#
# Indices 1 2 3 4 5 6 
#
# 1 0.012805 -0.004914 0.005575 0.000000 0.000000 0.000000
# 2 -0.004914 0.014169 -0.005833 0.000000 0.000000 0.000000
# 3 0.005575 -0.005833 0.025867 0.000000 0.000000 0.000000
# 4 0.000000 0.000000 0.000000 0.046601 0.000000 0.000000
# 5 0.000000 0.000000 0.000000 0.000000 0.030456 0.000000
# 6 0.000000 0.000000 0.000000 0.000000 0.000000 0.006312
#
#
# Mechanical properties :
#
#
# Convention : Reuss Voigt Hill
#
# Bulk Modulus (GPa) = 23.53155 30.78469 27.15812
# Shear Modulus (GPa) = 31.10979 55.80075 43.45527
#
# Velocity S-wave (km/s) = 3.68993 4.94184 4.36104
# Velocity P-wave (km/s) = 5.33413 6.78496 6.10281
#
# Compressibility (1/GPa) = 0.04249615
#
# Stress axis : x y z
#
# Youngs Moduli (GPa) = 78.09276 70.57557 38.65931
#
# Poissons Ratio (x) = 0.34684 -0.21553
# Poissons Ratio (y) = 0.38378 0.22551
# Poissons Ratio (z) = -0.43537 0.41169
#
# Static dielectric constant tensor:
#      x y z
#    x 1.848540 0.000000 0.000000 
#    y 0.000000 1.909510 0.000000 
#    z 0.000000 0.000000 1.948580 
# 
# From -- ./inp_files/1750.got.cif
#   From: 2010.05.17/outbox.cif.g08.bks.cpg/sg40_1_cif.got.tgz:1750.got - 2010.06.03 18:35:42.
