data_PCOD9365345
_publ_section_title
;
Structure prediction by ZEFSAII (Michael W. Deem and Ramdas Pophale) SiO2 
 PCOD9365345
Probable space group: A M A 2
;
_chemical_formula_sum "Si O2"
_cell_formula_units_Z 32
_cell_length_a 29.966120
_cell_length_b 5.204257
_cell_length_c 8.025164
_cell_angle_alpha 90.000000
_cell_angle_beta 90.000000
_cell_angle_gamma 90.000000
_cell_volume 1251.535479
_symmetry_space_group_name_H-M "A M A 2"
_symmetry_group_IT_number 40
_symmetry_cell_setting 'orthorhombic'
loop_
_space_group_symop_operation_xyz
x,y,z
-x,-y,z
1/2-x,y,z
1/2+x,-y,z
x,1/2+y,1/2+z
-x,1/2-y,1/2+z
1/2-x,1/2+y,1/2+z
1/2+x,1/2-y,1/2+z
loop_
_atom_site_type_symbol
_atom_site_label
_atom_site_fract_x
_atom_site_fract_y
_atom_site_fract_z
Si Si1 0.000000 0.500000 0.231720
Si Si2 0.750000 0.730238 0.896545
Si Si3 0.179809 0.512361 0.148352
Si Si4 0.880494 0.989731 0.155954
Si Si5 0.058185 0.322667 0.944616
O O1 0.013884 0.731271 0.349825
O O2 0.042348 0.455851 0.113668
O O3 0.788702 0.558400 0.992470
O O4 0.788702 0.903106 0.801369
O O5 0.151574 0.255270 0.178725
O O6 0.148012 0.756085 0.120818
O O7 0.910135 0.027878 0.320085
O O8 0.913732 0.924231 0.004947
#
# Coordination Sequence:
#
# PCOD9365345 Si02
#       5
#     4   4   8   8   8
#     4  12  26  48  74 110 152 198 252 310 378 452
#     4  10  26  48  76 110 152 200 252 314 380 452
#     4  11  27  48  77 111 152 198 254 313 381 452
#     4  12  28  50  80 114 154 202 256 316 382 454
#     4  12  27  48  78 113 154 202 254 315 380 454
#
# _framework density 25.568594000000001
#
# number of rings (size 3 to 8) (size 9 to 14) (size 15 to 20)
#    0.000    0.500    0.000    6.000    0.000   22.000 
#    0.000    0.000    0.000    0.000    0.000    0.000 
#    0.000    0.000    0.000    0.000    0.000    0.000 
#
# Total GULP energy -89298.039590 kJ/mol
# GULP energy per Si atom -5581.127474 kJ/mol
# Density = 2.551040 g / cm^3
# Si number density = 25.568594 Si / 1000 Ang^3
#
#
#
# Elastic Constant Matrix: (Units=GPa)
#
#
# Indices 1 2 3 4 5 6 
#
# 1 123.1522 64.4788 39.0525 0.0000 0.0000 0.0000
# 2 64.4788 170.8167 61.5377 0.0000 0.0000 0.0000
# 3 39.0525 61.5377 103.5785 0.0000 0.0000 0.0000
# 4 0.0000 0.0000 0.0000 51.4153 0.0000 0.0000
# 5 0.0000 0.0000 0.0000 0.0000 47.8440 0.0000
# 6 0.0000 0.0000 0.0000 0.0000 0.0000 91.8297
#
#
#
# Elastic Compliance Matrix: (Units=1/GPa)
#
#
# Indices 1 2 3 4 5 6 
#
# 1 0.010445 -0.003211 -0.002030 0.000000 0.000000 0.000000
# 2 -0.003211 0.008436 -0.003801 0.000000 0.000000 0.000000
# 3 -0.002030 -0.003801 0.012678 0.000000 0.000000 0.000000
# 4 0.000000 0.000000 0.000000 0.019449 0.000000 0.000000
# 5 0.000000 0.000000 0.000000 0.000000 0.020901 0.000000
# 6 0.000000 0.000000 0.000000 0.000000 0.000000 0.010890
#
#
# Mechanical properties :
#
#
# Convention : Reuss Voigt Hill
#
# Bulk Modulus (GPa) = 74.21758 80.85393 77.53576
# Shear Modulus (GPa) = 47.44896 53.71637 50.58267
#
# Velocity S-wave (km/s) = 4.31252 4.58850 4.45265
# Velocity P-wave (km/s) = 7.34077 7.73068 7.53825
#
# Compressibility (1/GPa) = 0.01347390
#
# Stress axis : x y z
#
# Youngs Moduli (GPa) = 95.73751 118.54255 78.87525
#
# Poissons Ratio (x) = 0.38069 0.16014
# Poissons Ratio (y) = 0.30745 0.29981
# Poissons Ratio (z) = 0.19437 0.45059
#
# Static dielectric constant tensor:
#      x y z
#    x 1.973970 0.000000 0.000000 
#    y 0.000000 1.963290 0.000000 
#    z 0.000000 0.000000 1.997900 
# 
# From -- ./inp_files/3276.got.cif
#   From: 2010.05.17/outbox.cif.g08.bks.cpg/sg40_2_cif.got.tgz:3276.got - 2010.06.03 18:35:42.
