data_PCOD9365780
_publ_section_title
;
Structure prediction by ZEFSAII (Michael W. Deem and Ramdas Pophale) SiO2 
 PCOD9365780
Probable space group: A B A 2
;
_chemical_formula_sum "Si O2"
_cell_formula_units_Z 40
_cell_length_a 20.740432
_cell_length_b 12.741543
_cell_length_c 5.348894
_cell_angle_alpha 90.000000
_cell_angle_beta 90.000000
_cell_angle_gamma 90.000000
_cell_volume 1413.526041
_symmetry_space_group_name_H-M "A B A 2"
_symmetry_group_IT_number 41
_symmetry_cell_setting 'orthorhombic'
loop_
_space_group_symop_operation_xyz
x,y,z
-x,-y,z
1/2-x,y,1/2+z
1/2+x,-y,1/2+z
x,1/2+y,1/2+z
-x,1/2-y,1/2+z
1/2-x,1/2+y,z
1/2+x,1/2-y,z
loop_
_atom_site_type_symbol
_atom_site_label
_atom_site_fract_x
_atom_site_fract_y
_atom_site_fract_z
Si Si1 0.026965 0.623051 0.289030
Si Si2 0.707253 0.185786 0.823290
Si Si3 0.710180 0.426569 0.881940
Si Si4 0.382886 0.899647 0.175261
Si Si5 0.436100 0.686527 0.294565
O O1 0.057786 0.610360 0.559445
O O2 0.957339 0.572479 0.228453
O O3 0.003991 0.748481 0.310712
O O4 0.070930 0.622371 0.045884
O O5 0.745028 0.169312 0.563938
O O6 0.687302 0.307520 0.838120
O O7 0.645129 0.115486 0.895475
O O8 0.765422 0.435959 0.666832
O O9 0.660797 0.517708 0.815485
O O10 0.383435 0.778544 0.275455
#
# Coordination Sequence:
#
# PCOD9365780 Si02
#       5
#     8   8   8   8   8
#     4   8  16  28  45  76 103 120 164 216 247 302
#     4  10  22  36  49  74 106 132 172 222 257 307
#     4  10  22  36  49  74 106 132 172 222 257 307
#     4  10  18  32  58  74  96 144 174 202 274 326
#     4   8  16  28  45  76 103 120 164 216 247 302
#
# _framework density 28.298029
#
# number of rings (size 3 to 8) (size 9 to 14) (size 15 to 20)
#    1.200    1.600    0.000    1.200    0.000    6.400 
#    0.000    0.000    0.000    4.800    0.000   11.200 
#    0.000    0.000    0.000    0.000    0.000    0.000 
#
# Total GULP energy -111975.390932 kJ/mol
# GULP energy per Si atom -5598.769547 kJ/mol
# Density = 2.823362 g / cm^3
# Si number density = 28.298029 Si / 1000 Ang^3
#
#
#
# Elastic Constant Matrix: (Units=GPa)
#
#
# Indices 1 2 3 4 5 6 
#
# 1 119.8929 46.3637 50.1421 0.0000 0.0000 0.0000
# 2 46.3637 98.0737 22.4706 0.0000 0.0000 0.0000
# 3 50.1421 22.4706 200.4050 0.0000 0.0000 0.0000
# 4 0.0000 0.0000 0.0000 49.5921 0.0000 0.0000
# 5 0.0000 0.0000 0.0000 0.0000 42.0374 0.0000
# 6 0.0000 0.0000 0.0000 0.0000 0.0000 58.7240
#
#
#
# Elastic Compliance Matrix: (Units=1/GPa)
#
#
# Indices 1 2 3 4 5 6 
#
# 1 0.011114 -0.004739 -0.002249 0.000000 0.000000 0.000000
# 2 -0.004739 0.012486 -0.000214 0.000000 0.000000 0.000000
# 3 -0.002249 -0.000214 0.005577 0.000000 0.000000 0.000000
# 4 0.000000 0.000000 0.000000 0.020165 0.000000 0.000000
# 5 0.000000 0.000000 0.000000 0.000000 0.023788 0.000000
# 6 0.000000 0.000000 0.000000 0.000000 0.000000 0.017029
#
#
# Mechanical properties :
#
#
# Convention : Reuss Voigt Hill
#
# Bulk Modulus (GPa) = 67.69770 72.92493 70.31132
# Shear Modulus (GPa) = 45.66753 50.03038 47.84895
#
# Velocity S-wave (km/s) = 4.02158 4.20930 4.11651
# Velocity P-wave (km/s) = 6.74827 7.03211 6.89165
#
# Compressibility (1/GPa) = 0.01477155
#
# Stress axis : x y z
#
# Youngs Moduli (GPa) = 89.97616 80.09150 179.31600
#
# Poissons Ratio (x) = 0.37953 0.40336
# Poissons Ratio (y) = 0.42637 0.03843
# Poissons Ratio (z) = 0.20240 0.01717
#
# Static dielectric constant tensor:
#      x y z
#    x 2.248370 0.000000 0.000000 
#    y 0.000000 2.432290 0.000000 
#    z 0.000000 0.000000 2.223990 
# 
# From -- ./inp_files/915.got.cif
#   From: 2010.05.17/outbox.cif.g08.bks.cpg/sg41_1_cif.got.tgz:915.got - 2010.06.03 18:54:24.
