data_PCOD9365112
_publ_section_title
;
Structure prediction by ZEFSAII (Michael W. Deem and Ramdas Pophale) SiO2 
 PCOD9365112
Probable space group: A M A 2
;
_chemical_formula_sum "Si O2"
_cell_formula_units_Z 56
_cell_length_a 30.697538
_cell_length_b 14.558559
_cell_length_c 5.619893
_cell_angle_alpha 90.000000
_cell_angle_beta 90.000000
_cell_angle_gamma 90.000000
_cell_volume 2511.597160
_symmetry_space_group_name_H-M "A M A 2"
_symmetry_group_IT_number 40
_symmetry_cell_setting 'orthorhombic'
loop_
_space_group_symop_operation_xyz
x,y,z
-x,-y,z
1/2-x,y,z
1/2+x,-y,z
x,1/2+y,1/2+z
-x,1/2-y,1/2+z
1/2-x,1/2+y,1/2+z
1/2+x,1/2-y,1/2+z
loop_
_atom_site_type_symbol
_atom_site_label
_atom_site_fract_x
_atom_site_fract_y
_atom_site_fract_z
Si Si1 0.110615 0.644341 0.221880
Si Si2 0.948160 0.145234 0.741195
Si Si3 0.615540 0.145446 0.113594
Si Si4 0.700945 0.057269 0.281416
Si Si5 0.532024 0.847734 0.060628
Si Si6 0.935249 0.488247 0.893097
Si Si7 0.299300 0.056058 0.781711
O O1 0.102403 0.751266 0.176965
O O2 0.072968 0.616400 0.406843
O O3 0.160203 0.625388 0.291837
O O4 0.101271 0.580967 0.994620
O O5 0.956943 0.241985 0.613981
O O6 0.954036 0.053168 0.595402
O O7 0.898278 0.141480 0.836588
O O8 0.985318 0.146707 0.940666
O O9 0.663377 0.129271 0.216920
O O10 0.587431 0.062556 0.222714
O O11 0.750000 0.095925 0.291461
O O12 0.694550 0.006844 0.539820
O O13 0.699388 0.994312 0.040273
O O14 0.531437 0.916307 0.281318
O O15 0.250000 0.094229 0.757557
#
# Coordination Sequence:
#
# PCOD9365112 Si02
#       7
#     8   8   8   8   8   8   8
#     4  12  25  45  74 105 144 192 246 306 372 451
#     4  12  28  50  72 105 145 189 247 309 372 452
#     4  12  25  45  74 105 144 192 246 306 372 451
#     4  10  22  43  72 109 151 198 252 311 377 452
#     4  12  28  50  72 105 145 189 247 309 372 452
#     4  12  26  49  71  98 140 192 233 304 370 445
#     4  10  22  43  72 109 151 198 252 311 377 452
#
# _framework density 22.296571
#
# number of rings (size 3 to 8) (size 9 to 14) (size 15 to 20)
#    0.000    0.571    4.286    3.429    0.000    4.000 
#    0.000    0.000    0.000    6.000    0.000    0.000 
#    0.000    0.000    0.000    0.000    0.000    0.000 
#
# Total GULP energy -156347.869184 kJ/mol
# GULP energy per Si atom -5583.852471 kJ/mol
# Density = 2.224582 g / cm^3
# Si number density = 22.296571 Si / 1000 Ang^3
#
#
#
# Elastic Constant Matrix: (Units=GPa)
#
#
# Indices 1 2 3 4 5 6 
#
# 1 89.2271 22.0408 13.7258 0.0000 0.0000 0.0000
# 2 22.0408 138.2838 27.8886 0.0000 0.0000 0.0000
# 3 13.7258 27.8886 57.0827 0.0000 0.0000 0.0000
# 4 0.0000 0.0000 0.0000 40.9287 0.0000 0.0000
# 5 0.0000 0.0000 0.0000 0.0000 25.2233 0.0000
# 6 0.0000 0.0000 0.0000 0.0000 0.0000 33.3824
#
#
#
# Elastic Compliance Matrix: (Units=1/GPa)
#
#
# Indices 1 2 3 4 5 6 
#
# 1 0.011899 -0.001464 -0.002146 0.000000 0.000000 0.000000
# 2 -0.001464 0.008202 -0.003655 0.000000 0.000000 0.000000
# 3 -0.002146 -0.003655 0.019820 0.000000 0.000000 0.000000
# 4 0.000000 0.000000 0.000000 0.024433 0.000000 0.000000
# 5 0.000000 0.000000 0.000000 0.000000 0.039646 0.000000
# 6 0.000000 0.000000 0.000000 0.000000 0.000000 0.029956
#
#
# Mechanical properties :
#
#
# Convention : Reuss Voigt Hill
#
# Bulk Modulus (GPa) = 39.38363 45.76711 42.57537
# Shear Modulus (GPa) = 31.85734 34.63610 33.24672
#
# Velocity S-wave (km/s) = 3.78405 3.94563 3.86568
# Velocity P-wave (km/s) = 6.06580 6.42872 6.24989
#
# Compressibility (1/GPa) = 0.02539126
#
# Stress axis : x y z
#
# Youngs Moduli (GPa) = 84.04029 121.92170 50.45333
#
# Poissons Ratio (x) = 0.17846 0.10828
# Poissons Ratio (y) = 0.12301 0.18442
# Poissons Ratio (z) = 0.18035 0.44565
#
# Static dielectric constant tensor:
#      x y z
#    x 2.049680 0.000000 0.000000 
#    y 0.000000 1.759400 0.000000 
#    z 0.000000 0.000000 2.030340 
# 
# From -- ./inp_files/3419.got.cif
#   From: 2010.05.17/outbox.cif.g08.bks.cpg/sg40_2_cif.got.tgz:3419.got - 2010.06.03 18:35:42.
