data_PCOD9365422
_publ_section_title
;
Structure prediction by ZEFSAII (Michael W. Deem and Ramdas Pophale) SiO2 
 PCOD9365422
Probable space group: A M A 2
;
_chemical_formula_sum "Si O2"
_cell_formula_units_Z 64
_cell_length_a 30.651780
_cell_length_b 9.309629
_cell_length_c 11.164599
_cell_angle_alpha 90.000000
_cell_angle_beta 90.000000
_cell_angle_gamma 90.000000
_cell_volume 3185.893127
_symmetry_space_group_name_H-M "A M A 2"
_symmetry_group_IT_number 40
_symmetry_cell_setting 'orthorhombic'
loop_
_space_group_symop_operation_xyz
x,y,z
-x,-y,z
1/2-x,y,z
1/2+x,-y,z
x,1/2+y,1/2+z
-x,1/2-y,1/2+z
1/2-x,1/2+y,1/2+z
1/2+x,1/2-y,1/2+z
loop_
_atom_site_type_symbol
_atom_site_label
_atom_site_fract_x
_atom_site_fract_y
_atom_site_fract_z
Si Si1 0.331420 0.634295 0.336220
Si Si2 0.460165 0.423898 0.071443
Si Si3 0.961313 0.386120 0.529577
Si Si4 0.201590 0.433948 0.542271
Si Si5 0.074994 0.637618 0.266882
Si Si6 0.889510 0.051328 0.180546
Si Si7 0.368994 0.933695 0.436125
Si Si8 0.297755 0.614224 0.071478
O O1 0.306092 0.538921 0.431279
O O2 0.378404 0.567325 0.301846
O O3 0.345132 0.786818 0.394566
O O4 0.305651 0.647336 0.211843
O O5 0.500000 0.500000 0.001135
O O6 0.450833 0.530714 0.181189
O O7 0.473355 0.260508 0.098189
O O8 0.413993 0.409823 0.005147
O O9 0.950485 0.345099 0.391795
O O10 0.919992 0.458970 0.594276
O O11 0.000000 0.500000 0.531975
O O12 0.250000 0.462113 0.596139
O O13 0.159028 0.445004 0.625737
O O14 0.201780 0.267211 0.505175
O O15 0.088841 0.789471 0.203403
O O16 0.882992 0.988179 0.313341
O O17 0.336073 0.019688 0.518703
O O18 0.250000 0.546842 0.056440
#
# Coordination Sequence:
#
# PCOD9365422 Si02
#       8
#     8   8   8   8   8   8   8   8
#     4  11  21  44  71  92 132 175 225 270 333 396
#     4  12  24  44  66  98 133 171 223 279 333 399
#     4  12  26  45  68  99 132 174 226 280 337 399
#     4  11  22  39  66  98 131 174 219 274 336 390
#     4  11  22  45  70  94 129 175 224 271 336 393
#     4  11  22  45  68  95 135 175 224 273 329 405
#     4  11  23  44  70  95 132 179 223 270 337 399
#     4  11  24  42  67  99 134 175 222 279 336 393
#
# _framework density 20.088557999999999
#
# number of rings (size 3 to 8) (size 9 to 14) (size 15 to 20)
#    0.000    0.750    7.500    1.500    0.000    3.000 
#    9.000    0.000    0.000    0.000    0.000    0.000 
#    0.000    0.000    0.000    0.000    0.000    0.000 
#
# Total GULP energy -178561.245080 kJ/mol
# GULP energy per Si atom -5580.038909 kJ/mol
# Density = 2.004284 g / cm^3
# Si number density = 20.088558 Si / 1000 Ang^3
#
#
#
# Elastic Constant Matrix: (Units=GPa)
#
#
# Indices 1 2 3 4 5 6 
#
# 1 127.5173 55.3695 23.6777 0.0000 0.0000 0.0000
# 2 55.3695 104.5141 54.7362 0.0000 0.0000 0.0000
# 3 23.6777 54.7362 91.1817 0.0000 0.0000 0.0000
# 4 0.0000 0.0000 0.0000 23.6154 0.0000 0.0000
# 5 0.0000 0.0000 0.0000 0.0000 15.3619 0.0000
# 6 0.0000 0.0000 0.0000 0.0000 0.0000 28.9557
#
#
#
# Elastic Compliance Matrix: (Units=1/GPa)
#
#
# Indices 1 2 3 4 5 6 
#
# 1 0.010232 -0.005877 0.000871 0.000000 0.000000 0.000000
# 2 -0.005877 0.017331 -0.008878 0.000000 0.000000 0.000000
# 3 0.000871 -0.008878 0.016070 0.000000 0.000000 0.000000
# 4 0.000000 0.000000 0.000000 0.042345 0.000000 0.000000
# 5 0.000000 0.000000 0.000000 0.000000 0.065096 0.000000
# 6 0.000000 0.000000 0.000000 0.000000 0.000000 0.034535
#
#
# Mechanical properties :
#
#
# Convention : Reuss Voigt Hill
#
# Bulk Modulus (GPa) = 63.02810 65.64222 64.33516
# Shear Modulus (GPa) = 22.86591 26.21525 24.54058
#
# Velocity S-wave (km/s) = 3.37746 3.61638 3.49896
# Velocity P-wave (km/s) = 6.83029 7.08413 6.95837
#
# Compressibility (1/GPa) = 0.01586594
#
# Stress axis : x y z
#
# Youngs Moduli (GPa) = 97.73083 57.70023 62.22692
#
# Poissons Ratio (x) = 0.33910 -0.05419
# Poissons Ratio (y) = 0.57435 0.55243
# Poissons Ratio (z) = -0.08511 0.51224
#
# Static dielectric constant tensor:
#      x y z
#    x 1.740410 0.000000 0.000000 
#    y 0.000000 1.710360 0.000000 
#    z 0.000000 0.000000 1.720600 
# 
# From -- ./inp_files/14419.got.cif
#   From: 2010.05.17/outbox.cif.g08.bks.cpg/sg40_8_cif.got.tgz:14419.got - 2010.06.03 18:35:42.
