data_PCOD9365365
_publ_section_title
;
Structure prediction by ZEFSAII (Michael W. Deem and Ramdas Pophale) SiO2 
 PCOD9365365
Probable space group: A M A 2
;
_chemical_formula_sum "Si O2"
_cell_formula_units_Z 56
_cell_length_a 8.901791
_cell_length_b 22.554759
_cell_length_c 18.339769
_cell_angle_alpha 90.000000
_cell_angle_beta 90.000000
_cell_angle_gamma 90.000000
_cell_volume 3682.217568
_symmetry_space_group_name_H-M "A M A 2"
_symmetry_group_IT_number 40
_symmetry_cell_setting 'orthorhombic'
loop_
_space_group_symop_operation_xyz
x,y,z
-x,-y,z
1/2-x,y,z
1/2+x,-y,z
x,1/2+y,1/2+z
-x,1/2-y,1/2+z
1/2-x,1/2+y,1/2+z
1/2+x,1/2-y,1/2+z
loop_
_atom_site_type_symbol
_atom_site_label
_atom_site_fract_x
_atom_site_fract_y
_atom_site_fract_z
Si Si1 0.576191 0.317946 0.157170
Si Si2 0.431494 0.565238 0.420503
Si Si3 0.569746 0.714332 0.012058
Si Si4 0.576726 0.677461 0.697132
Si Si5 0.429398 0.346377 0.304667
Si Si6 0.429628 0.150596 0.051285
Si Si7 0.567839 0.719735 0.847932
O O1 0.750000 0.335923 0.160204
O O2 0.509588 0.321997 0.076143
O O3 0.569675 0.247577 0.176779
O O4 0.481802 0.349356 0.220490
O O5 0.500000 0.500000 0.421100
O O6 0.250000 0.563540 0.417406
O O7 0.494934 0.602586 0.352663
O O8 0.478010 0.601221 0.493536
O O9 0.750000 0.710661 0.021675
O O10 0.526319 0.783819 0.022320
O O11 0.532985 0.697554 0.929032
O O12 0.750000 0.658982 0.694896
O O13 0.489574 0.644323 0.633275
O O14 0.523148 0.677048 0.780920
O O15 0.250000 0.348180 0.310102
O O16 0.491402 0.283414 0.334898
O O17 0.250000 0.149973 0.053415
O O18 0.750000 0.728254 0.843234
#
# Coordination Sequence:
#
# PCOD9365365 Si02
#       7
#     8   8   8   8   8   8   8
#     4   9  17  28  41  60  86 115 146 182 220 260
#     4  11  22  36  49  65  86 115 152 194 234 268
#     4   9  15  26  43  63  88 118 148 177 217 265
#     4   8  15  25  40  60  84 113 146 178 214 259
#     4  11  20  30  45  63  84 116 153 186 223 268
#     4   9  17  29  44  58  82 115 145 180 223 261
#     4   9  16  28  43  63  91 121 147 182 222 260
#
# _framework density 15.208226
#
# number of rings (size 3 to 8) (size 9 to 14) (size 15 to 20)
#    0.000    2.571    1.429    3.000    0.000    5.143 
#    0.000    0.000    0.000    0.000    0.000    0.000 
#    0.000    1.143    0.000    7.429    0.000    6.286 
#
# Total GULP energy -155957.047762 kJ/mol
# GULP energy per Si atom -5569.894563 kJ/mol
# Density = 1.517361 g / cm^3
# Si number density = 15.208226 Si / 1000 Ang^3
#
#
#
# Elastic Constant Matrix: (Units=GPa)
#
#
# Indices 1 2 3 4 5 6 
#
# 1 51.3682 24.9349 46.8949 0.0000 0.0000 0.0000
# 2 24.9349 46.1231 39.6153 0.0000 0.0000 0.0000
# 3 46.8949 39.6153 160.6490 0.0000 0.0000 0.0000
# 4 0.0000 0.0000 0.0000 13.1435 0.0000 0.0000
# 5 0.0000 0.0000 0.0000 0.0000 28.1018 0.0000
# 6 0.0000 0.0000 0.0000 0.0000 0.0000 10.8597
#
#
#
# Elastic Compliance Matrix: (Units=1/GPa)
#
#
# Indices 1 2 3 4 5 6 
#
# 1 0.030524 -0.011226 -0.006142 0.000000 0.000000 0.000000
# 2 -0.011226 0.031636 -0.004524 0.000000 0.000000 0.000000
# 3 -0.006142 -0.004524 0.009133 0.000000 0.000000 0.000000
# 4 0.000000 0.000000 0.000000 0.076083 0.000000 0.000000
# 5 0.000000 0.000000 0.000000 0.000000 0.035585 0.000000
# 6 0.000000 0.000000 0.000000 0.000000 0.000000 0.092083
#
#
# Mechanical properties :
#
#
# Convention : Reuss Voigt Hill
#
# Bulk Modulus (GPa) = 36.35270 53.44784 44.90027
# Shear Modulus (GPa) = 15.24395 20.20068 17.72232
#
# Velocity S-wave (km/s) = 3.16942 3.64850 3.41737
# Velocity P-wave (km/s) = 6.11137 7.27799 6.72004
#
# Compressibility (1/GPa) = 0.02750827
#
# Stress axis : x y z
#
# Youngs Moduli (GPa) = 32.76147 31.60935 109.49014
#
# Poissons Ratio (x) = 0.35486 0.67246
# Poissons Ratio (y) = 0.36779 0.49536
# Poissons Ratio (z) = 0.20121 0.14301
#
# Static dielectric constant tensor:
#      x y z
#    x 1.511660 0.000000 0.000000 
#    y 0.000000 1.468520 0.000000 
#    z 0.000000 0.000000 1.541820 
# 
# From -- ./inp_files/19469.got.cif
#   From: 2010.05.17/outbox.cif.g08.bks.cpg/sg40_10_cif.got.tgz:19469.got - 2010.06.03 18:35:42.
