data_PCOD9365114
_publ_section_title
;
Structure prediction by ZEFSAII (Michael W. Deem and Ramdas Pophale) SiO2 
 PCOD9365114
Probable space group: A M A 2
;
_chemical_formula_sum "Si O2"
_cell_formula_units_Z 64
_cell_length_a 19.390874
_cell_length_b 11.862426
_cell_length_c 10.232685
_cell_angle_alpha 90.000000
_cell_angle_beta 90.000000
_cell_angle_gamma 90.000000
_cell_volume 2353.750936
_symmetry_space_group_name_H-M "A M A 2"
_symmetry_group_IT_number 40
_symmetry_cell_setting 'orthorhombic'
loop_
_space_group_symop_operation_xyz
x,y,z
-x,-y,z
1/2-x,y,z
1/2+x,-y,z
x,1/2+y,1/2+z
-x,1/2-y,1/2+z
1/2-x,1/2+y,1/2+z
1/2+x,1/2-y,1/2+z
loop_
_atom_site_type_symbol
_atom_site_label
_atom_site_fract_x
_atom_site_fract_y
_atom_site_fract_z
Si Si1 0.826720 0.290045 0.788100
Si Si2 0.667647 0.280392 0.370650
Si Si3 0.163629 0.974610 0.411537
Si Si4 0.671049 0.103805 0.972594
Si Si5 0.330958 0.526798 0.207213
Si Si6 0.503469 0.607653 0.935187
Si Si7 0.435224 0.548626 0.513554
Si Si8 0.471000 0.242346 0.185337
O O1 0.750000 0.263200 0.737254
O O2 0.836703 0.420626 0.810221
O O3 0.831386 0.233203 0.932173
O O4 0.889172 0.240629 0.706034
O O5 0.750000 0.292495 0.401005
O O6 0.654778 0.341538 0.232427
O O7 0.644172 0.153194 0.371209
O O8 0.618447 0.356115 0.461915
O O9 0.250000 0.962009 0.417965
O O10 0.148971 0.990295 0.566591
O O11 0.053813 0.003915 0.415401
O O12 0.750000 0.074827 0.005591
O O13 0.646601 0.042555 0.836052
O O14 0.614216 0.051182 0.064334
O O15 0.250000 0.512449 0.217608
O O16 0.497849 0.709845 0.832278
O O17 0.503921 0.662772 0.080497
O O18 0.500000 0.500000 0.428125
O O19 0.476992 0.620388 0.618913
#
# Coordination Sequence:
#
# PCOD9365114 Si02
#       8
#     8   8   8   8   8   8   8   8
#     4  11  25  46  74 113 160 210 271 344 418 498
#     4  10  22  43  73 116 159 205 273 342 413 498
#     4  12  23  45  75 110 159 214 266 341 422 497
#     4   9  21  43  69 108 155 199 263 338 404 484
#     4   9  19  39  68 103 149 200 260 328 396 487
#     4  12  28  55  81 115 167 215 278 341 419 500
#     4  11  24  42  74 107 149 205 261 335 406 484
#     4  12  28  54  79 117 163 217 275 344 412 506
#
# _framework density 27.190643999999999
#
# number of rings (size 3 to 8) (size 9 to 14) (size 15 to 20)
#    0.000    1.250    2.500    3.375    1.750    2.000 
#    4.500    0.000    0.000    0.000    0.000    0.875 
#    0.000    0.000    0.000    0.000    0.000    0.000 
#
# Total GULP energy -178258.300090 kJ/mol
# GULP energy per Si atom -5570.571878 kJ/mol
# Density = 2.712876 g / cm^3
# Si number density = 27.190644 Si / 1000 Ang^3
#
#
#
# Elastic Constant Matrix: (Units=GPa)
#
#
# Indices 1 2 3 4 5 6 
#
# 1 129.6122 50.8310 30.2374 0.0000 0.0000 0.0000
# 2 50.8310 139.0240 61.3678 0.0000 0.0000 0.0000
# 3 30.2374 61.3678 93.4828 0.0000 0.0000 0.0000
# 4 0.0000 0.0000 0.0000 7.9070 0.0000 0.0000
# 5 0.0000 0.0000 0.0000 0.0000 2.5194 0.0000
# 6 0.0000 0.0000 0.0000 0.0000 0.0000 66.9086
#
#
#
# Elastic Compliance Matrix: (Units=1/GPa)
#
#
# Indices 1 2 3 4 5 6 
#
# 1 0.009082 -0.002850 -0.001067 0.000000 0.000000 0.000000
# 2 -0.002850 0.011022 -0.006314 0.000000 0.000000 0.000000
# 3 -0.001067 -0.006314 0.015187 0.000000 0.000000 0.000000
# 4 0.000000 0.000000 0.000000 0.126470 0.000000 0.000000
# 5 0.000000 0.000000 0.000000 0.000000 0.396926 0.000000
# 6 0.000000 0.000000 0.000000 0.000000 0.000000 0.014946
#
#
# Mechanical properties :
#
#
# Convention : Reuss Voigt Hill
#
# Bulk Modulus (GPa) = 67.42999 71.88793 69.65896
# Shear Modulus (GPa) = 8.34674 30.11252 19.22963
#
# Velocity S-wave (km/s) = 1.75396 3.33146 2.66224
# Velocity P-wave (km/s) = 5.38095 6.42604 5.92658
#
# Compressibility (1/GPa) = 0.01483020
#
# Stress axis : x y z
#
# Youngs Moduli (GPa) = 110.11075 90.72853 65.84597
#
# Poissons Ratio (x) = 0.25854 0.07025
# Poissons Ratio (y) = 0.31377 0.41573
# Poissons Ratio (z) = 0.11747 0.57284
#
# Static dielectric constant tensor:
#      x y z
#    x 2.106650 0.000000 0.000000 
#    y 0.000000 2.179660 0.000000 
#    z 0.000000 0.000000 2.263670 
# 
# From -- ./inp_files/13239.got.cif
#   From: 2010.05.17/outbox.cif.g08.bks.cpg/sg40_7_cif.got.tgz:13239.got - 2010.06.03 18:35:42.
