data_PCOD9365001
_publ_section_title
;
Structure prediction by ZEFSAII (Michael W. Deem and Ramdas Pophale) SiO2 
 PCOD9365001
Probable space group: A M A 2
;
_chemical_formula_sum "Si O2"
_cell_formula_units_Z 56
_cell_length_a 9.387640
_cell_length_b 15.549860
_cell_length_c 20.115328
_cell_angle_alpha 90.000000
_cell_angle_beta 90.000000
_cell_angle_gamma 90.000000
_cell_volume 2936.364931
_symmetry_space_group_name_H-M "A M A 2"
_symmetry_group_IT_number 40
_symmetry_cell_setting 'orthorhombic'
loop_
_space_group_symop_operation_xyz
x,y,z
-x,-y,z
1/2-x,y,z
1/2+x,-y,z
x,1/2+y,1/2+z
-x,1/2-y,1/2+z
1/2-x,1/2+y,1/2+z
1/2+x,1/2-y,1/2+z
loop_
_atom_site_type_symbol
_atom_site_label
_atom_site_fract_x
_atom_site_fract_y
_atom_site_fract_z
Si Si1 0.416097 0.747363 0.835990
Si Si2 0.093464 0.885701 0.988425
Si Si3 0.090459 0.420656 0.639713
Si Si4 0.078820 0.409564 0.095536
Si Si5 0.914708 0.819644 0.475554
Si Si6 0.413680 0.740780 0.679961
Si Si7 0.083115 0.581555 0.366052
O O1 0.250000 0.769779 0.849353
O O2 0.453830 0.682286 0.896508
O O3 0.421991 0.724046 0.758905
O O4 0.516091 0.830098 0.840863
O O5 0.250000 0.904593 0.956746
O O6 0.096126 0.927226 0.060122
O O7 0.082716 0.781958 0.994241
O O8 0.961939 0.914450 0.943630
O O9 0.250000 0.422225 0.666592
O O10 0.000000 0.500000 0.666989
O O11 0.017686 0.329425 0.650468
O O12 0.250000 0.421510 0.090820
O O13 0.052275 0.336565 0.152578
O O14 0.000000 0.500000 0.109377
O O15 0.014876 0.371080 0.026335
O O16 0.750000 0.849214 0.482552
O O17 0.250000 0.724540 0.658856
O O18 0.250000 0.576300 0.355687
O O19 0.000000 0.500000 0.336643
#
# Coordination Sequence:
#
# PCOD9365001 Si02
#       7
#     8   8   8   8   8   8   8
#     4   9  20  39  60  81 113 155 196 242 305 364
#     4   9  18  33  54  81 113 148 182 228 286 341
#     4  11  22  36  57  85 117 152 191 237 291 353
#     4  11  23  38  61  91 123 160 205 255 305 363
#     4   9  17  35  60  85 114 149 191 241 294 350
#     4  10  22  41  62  87 120 158 199 250 307 365
#     4  11  21  32  50  78 112 148 189 235 284 346
#
# _framework density 19.071197999999999
#
# number of rings (size 3 to 8) (size 9 to 14) (size 15 to 20)
#    0.000    2.000    1.429    3.429    0.000    6.286 
#    0.000    2.143    0.000    0.000    0.000    0.000 
#    0.000    0.000    0.000    0.000    0.000    0.000 
#
# Total GULP energy -156041.670097 kJ/mol
# GULP energy per Si atom -5572.916789 kJ/mol
# Density = 1.902779 g / cm^3
# Si number density = 19.071198 Si / 1000 Ang^3
#
#
#
# Elastic Constant Matrix: (Units=GPa)
#
#
# Indices 1 2 3 4 5 6 
#
# 1 94.8549 41.2731 16.7981 0.0000 0.0000 0.0000
# 2 41.2731 75.6228 3.3455 0.0000 0.0000 0.0000
# 3 16.7981 3.3455 64.1387 0.0000 0.0000 0.0000
# 4 0.0000 0.0000 0.0000 7.5753 0.0000 0.0000
# 5 0.0000 0.0000 0.0000 0.0000 -30.4181 0.0000
# 6 0.0000 0.0000 0.0000 0.0000 0.0000 23.8636
#
#
#
# Elastic Compliance Matrix: (Units=1/GPa)
#
#
# Indices 1 2 3 4 5 6 
#
# 1 0.014529 -0.007779 -0.003400 0.000000 0.000000 0.000000
# 2 -0.007779 0.017419 0.001129 0.000000 0.000000 0.000000
# 3 -0.003400 0.001129 0.016423 0.000000 0.000000 0.000000
# 4 0.000000 0.000000 0.000000 0.132008 0.000000 0.000000
# 5 0.000000 0.000000 0.000000 0.000000 -0.032875 0.000000
# 6 0.000000 0.000000 0.000000 0.000000 0.000000 0.041905
#
#
# Mechanical properties :
#
#
# Convention : Reuss Voigt Hill
#
# Bulk Modulus (GPa) = 35.37153 39.71664 37.54409
# Shear Modulus (GPa) = 22.83805 11.75081 17.29443
#
# Velocity S-wave (km/s) = 3.46427 2.48494 3.01464
# Velocity P-wave (km/s) = 5.88123 5.39480 5.64326
#
# Compressibility (1/GPa) = 0.02827132
#
# Stress axis : x y z
#
# Youngs Moduli (GPa) = 68.82599 57.40728 60.89146
#
# Poissons Ratio (x) = 0.44659 0.20700
# Poissons Ratio (y) = 0.53542 -0.06874
# Poissons Ratio (z) = 0.23397 -0.06480
#
# Static dielectric constant tensor:
#      x y z
#    x 1.667280 0.000000 0.000000 
#    y 0.000000 1.679400 0.000000 
#    z 0.000000 0.000000 1.714740 
# 
# From -- ./inp_files/22133.got.cif
#   From: 2010.05.17/outbox.cif.g08.bks.cpg/sg40_12_cif.got.tgz:22133.got - 2010.06.03 18:35:42.
