data_PCOD9365068
_publ_section_title
;
Structure prediction by ZEFSAII (Michael W. Deem and Ramdas Pophale) SiO2 
 PCOD9365068
Probable space group: A M A 2
;
_chemical_formula_sum "Si O2"
_cell_formula_units_Z 28
_cell_length_a 9.004142
_cell_length_b 17.503154
_cell_length_c 8.173301
_cell_angle_alpha 90.000000
_cell_angle_beta 90.000000
_cell_angle_gamma 90.000000
_cell_volume 1288.119463
_symmetry_space_group_name_H-M "A M A 2"
_symmetry_group_IT_number 40
_symmetry_cell_setting 'orthorhombic'
loop_
_space_group_symop_operation_xyz
x,y,z
-x,-y,z
1/2-x,y,z
1/2+x,-y,z
x,1/2+y,1/2+z
-x,1/2-y,1/2+z
1/2-x,1/2+y,1/2+z
1/2+x,1/2-y,1/2+z
loop_
_atom_site_type_symbol
_atom_site_label
_atom_site_fract_x
_atom_site_fract_y
_atom_site_fract_z
Si Si1 0.914332 0.929115 0.184350
Si Si2 0.075438 0.801561 0.352655
Si Si3 0.073813 0.142131 0.683189
Si Si4 0.500000 0.500000 0.358752
O O1 0.750000 0.916976 0.250327
O O2 0.013339 0.854491 0.206138
O O3 0.000000 0.000000 0.268587
O O4 0.901189 0.956890 0.996304
O O5 0.250000 0.816109 0.377255
O O6 0.057413 0.713193 0.306857
O O7 0.981962 0.827201 0.509200
O O8 0.250000 0.121013 0.676291
O O9 0.972179 0.071168 0.739948
#
# Coordination Sequence:
#
# PCOD9365068 Si02
#       4
#     8   8   8   4
#     4  10  22  42  68  96 131 172 216 270 327 391
#     4  11  25  44  69  99 132 175 223 274 335 395
#     4  11  25  45  67  97 134 175 223 276 331 395
#     4  10  24  40  68  94 136 172 218 270 328 388
#
# _framework density 21.737113999999998
#
# number of rings (size 3 to 8) (size 9 to 14) (size 15 to 20)
#    0.857    0.571    0.000    4.286    2.000    6.857 
#    0.000    0.000    0.000    0.000    0.000    0.000 
#    0.000    0.000    0.000    0.000    0.000    0.000 
#
# Total GULP energy -77979.809139 kJ/mol
# GULP energy per Si atom -5569.986367 kJ/mol
# Density = 2.168764 g / cm^3
# Si number density = 21.737114 Si / 1000 Ang^3
#
#
#
# Elastic Constant Matrix: (Units=GPa)
#
#
# Indices 1 2 3 4 5 6 
#
# 1 66.3257 39.2912 33.9026 0.0000 0.0000 0.0000
# 2 39.2912 137.5020 34.1745 0.0000 0.0000 0.0000
# 3 33.9026 34.1745 98.6649 0.0000 0.0000 0.0000
# 4 0.0000 0.0000 0.0000 37.6739 0.0000 0.0000
# 5 0.0000 0.0000 0.0000 0.0000 13.0372 0.0000
# 6 0.0000 0.0000 0.0000 0.0000 0.0000 -15.1256
#
#
#
# Elastic Compliance Matrix: (Units=1/GPa)
#
#
# Indices 1 2 3 4 5 6 
#
# 1 0.020560 -0.004507 -0.005504 0.000000 0.000000 0.000000
# 2 -0.004507 0.008946 -0.001550 0.000000 0.000000 0.000000
# 3 -0.005504 -0.001550 0.012563 0.000000 0.000000 0.000000
# 4 0.000000 0.000000 0.000000 0.026544 0.000000 0.000000
# 5 0.000000 0.000000 0.000000 0.000000 0.076703 0.000000
# 6 0.000000 0.000000 0.000000 0.000000 0.000000 -0.066113
#
#
# Mechanical properties :
#
#
# Convention : Reuss Voigt Hill
#
# Bulk Modulus (GPa) = 52.77602 57.46993 55.12297
# Shear Modulus (GPa) = 46.02320 20.12539 33.07430
#
# Velocity S-wave (km/s) = 4.60637 3.04609 3.90495
# Velocity P-wave (km/s) = 7.25420 6.23438 6.76354
#
# Compressibility (1/GPa) = 0.01894800
#
# Stress axis : x y z
#
# Youngs Moduli (GPa) = 48.63710 111.78488 79.59729
#
# Poissons Ratio (x) = 0.50385 0.43808
# Poissons Ratio (y) = 0.21922 0.12336
# Poissons Ratio (z) = 0.26768 0.17324
#
# Static dielectric constant tensor:
#      x y z
#    x 1.742800 0.000000 0.000000 
#    y 0.000000 1.813400 0.000000 
#    z 0.000000 0.000000 1.847460 
# 
# From -- ./inp_files/3943.got.cif
#   From: 2010.05.17/outbox.cif.g08.bks.cpg/sg40_2_cif.got.tgz:3943.got - 2010.06.03 18:35:42.
