data_PCOD9365223
_publ_section_title
;
Structure prediction by ZEFSAII (Michael W. Deem and Ramdas Pophale) SiO2 
 PCOD9365223
Probable space group: A M A 2
;
_chemical_formula_sum "Si O2"
_cell_formula_units_Z 40
_cell_length_a 13.348201
_cell_length_b 23.547762
_cell_length_c 5.524996
_cell_angle_alpha 90.000000
_cell_angle_beta 90.000000
_cell_angle_gamma 90.000000
_cell_volume 1736.618181
_symmetry_space_group_name_H-M "A M A 2"
_symmetry_group_IT_number 40
_symmetry_cell_setting 'orthorhombic'
loop_
_space_group_symop_operation_xyz
x,y,z
-x,-y,z
1/2-x,y,z
1/2+x,-y,z
x,1/2+y,1/2+z
-x,1/2-y,1/2+z
1/2-x,1/2+y,1/2+z
1/2+x,1/2-y,1/2+z
loop_
_atom_site_type_symbol
_atom_site_label
_atom_site_fract_x
_atom_site_fract_y
_atom_site_fract_z
Si Si1 0.857482 0.273380 0.191110
Si Si2 0.465133 0.321244 0.924792
Si Si3 0.135800 0.128046 0.084395
Si Si4 0.128232 0.933709 0.594060
Si Si5 0.368730 0.993890 0.088866
O O1 0.750000 0.271579 0.061653
O O2 0.871136 0.215170 0.336146
O O3 0.859323 0.330765 0.351694
O O4 0.959585 0.276402 0.044266
O O5 0.541671 0.349654 0.735360
O O6 0.422713 0.372259 0.084136
O O7 0.250000 0.131977 0.193020
O O8 0.117883 0.061156 0.053928
O O9 0.250000 0.929375 0.592535
O O10 0.096480 0.963072 0.844523
O O11 0.098125 0.968097 0.348363
O O12 0.250000 0.984610 0.093491
#
# Coordination Sequence:
#
# PCOD9365223 Si02
#       5
#     8   8   8   8   8
#     4  11  25  45  68  97 135 178 232 292 354 417
#     4  12  24  43  68 102 135 181 234 288 350 419
#     4  10  23  44  68  95 134 180 229 285 345 416
#     4  10  23  43  70 103 142 184 229 286 350 415
#     4   9  21  43  68  99 140 185 229 283 349 415
#
# _framework density 23.033273000000001
#
# number of rings (size 3 to 8) (size 9 to 14) (size 15 to 20)
#    0.000    1.600    2.000    1.200    5.600    0.800 
#    0.000    0.000    0.000    0.000    0.000    0.000 
#    0.000    0.000    0.000    0.000    0.000    0.000 
#
# Total GULP energy -111626.328421 kJ/mol
# GULP energy per Si atom -5581.316421 kJ/mol
# Density = 2.298085 g / cm^3
# Si number density = 23.033273 Si / 1000 Ang^3
#
#
#
# Elastic Constant Matrix: (Units=GPa)
#
#
# Indices 1 2 3 4 5 6 
#
# 1 138.6114 18.9378 17.5986 0.0000 0.0000 0.0000
# 2 18.9378 103.8452 27.4288 0.0000 0.0000 0.0000
# 3 17.5986 27.4288 78.6354 0.0000 0.0000 0.0000
# 4 0.0000 0.0000 0.0000 54.0184 0.0000 0.0000
# 5 0.0000 0.0000 0.0000 0.0000 -2.8744 0.0000
# 6 0.0000 0.0000 0.0000 0.0000 0.0000 37.1094
#
#
#
# Elastic Compliance Matrix: (Units=1/GPa)
#
#
# Indices 1 2 3 4 5 6 
#
# 1 0.007522 -0.001021 -0.001327 0.000000 0.000000 0.000000
# 2 -0.001021 0.010746 -0.003520 0.000000 0.000000 0.000000
# 3 -0.001327 -0.003520 0.014242 0.000000 0.000000 0.000000
# 4 0.000000 0.000000 0.000000 0.018512 0.000000 0.000000
# 5 0.000000 0.000000 0.000000 0.000000 -0.347902 0.000000
# 6 0.000000 0.000000 0.000000 0.000000 0.000000 0.026947
#
#
# Mechanical properties :
#
#
# Convention : Reuss Voigt Hill
#
# Bulk Modulus (GPa) = 48.13856 49.89137 49.01496
# Shear Modulus (GPa) = -19.89879 34.79248 7.44685
#
# Velocity S-wave (km/s) = -2.94243 3.89077 1.80003
# Velocity P-wave (km/s) = 3.06612 6.47238 5.06423
#
# Compressibility (1/GPa) = 0.02077337
#
# Stress axis : x y z
#
# Youngs Moduli (GPa) = 132.93526 93.06129 70.21658
#
# Poissons Ratio (x) = 0.09504 0.09320
# Poissons Ratio (y) = 0.13576 0.24714
# Poissons Ratio (z) = 0.17644 0.32754
#
# Static dielectric constant tensor:
#      x y z
#    x 1.848280 0.000000 0.000000 
#    y 0.000000 1.799340 0.000000 
#    z 0.000000 0.000000 1.947620 
# 
# From -- ./inp_files/1213.got.cif
#   From: 2010.05.17/outbox.cif.g08.bks.cpg/sg40_1_cif.got.tgz:1213.got - 2010.06.03 18:35:42.
