data_PCOD9365041
_publ_section_title
;
Structure prediction by ZEFSAII (Michael W. Deem and Ramdas Pophale) SiO2 
 PCOD9365041
Probable space group: A M A 2
;
_chemical_formula_sum "Si O2"
_cell_formula_units_Z 64
_cell_length_a 29.118134
_cell_length_b 12.038235
_cell_length_c 8.658756
_cell_angle_alpha 90.000000
_cell_angle_beta 90.000000
_cell_angle_gamma 90.000000
_cell_volume 3035.161879
_symmetry_space_group_name_H-M "A M A 2"
_symmetry_group_IT_number 40
_symmetry_cell_setting 'orthorhombic'
loop_
_space_group_symop_operation_xyz
x,y,z
-x,-y,z
1/2-x,y,z
1/2+x,-y,z
x,1/2+y,1/2+z
-x,1/2-y,1/2+z
1/2-x,1/2+y,1/2+z
1/2+x,1/2-y,1/2+z
loop_
_atom_site_type_symbol
_atom_site_label
_atom_site_fract_x
_atom_site_fract_y
_atom_site_fract_z
Si Si1 0.860639 0.892470 0.076950
Si Si2 0.489717 0.829511 0.397849
Si Si3 0.128936 0.319682 0.289456
Si Si4 0.602677 0.555303 0.991987
Si Si5 0.196149 0.892052 0.050220
Si Si6 0.030961 0.605592 0.563035
Si Si7 0.081837 0.185109 0.536710
Si Si8 0.853279 0.741084 0.794393
O O1 0.856744 0.789635 0.194144
O O2 0.914929 0.922801 0.075492
O O3 0.829654 0.998118 0.111872
O O4 0.845817 0.842405 0.910741
O O5 0.446940 0.910503 0.425235
O O6 0.473855 0.704892 0.439988
O O7 0.512006 0.850722 0.229784
O O8 0.529381 0.849688 0.524922
O O9 0.107724 0.405710 0.168778
O O10 0.171153 0.365378 0.388442
O O11 0.090806 0.281189 0.412275
O O12 0.609800 0.424369 0.986294
O O13 0.637471 0.632200 0.897164
O O14 0.250000 0.908314 0.035153
O O15 0.184462 0.791412 0.167852
O O16 0.000000 0.500000 0.522110
O O17 0.101234 0.230206 0.695932
#
# Coordination Sequence:
#
# PCOD9365041 Si02
#       8
#     8   8   8   8   8   8   8   8
#     4  11  23  45  67  97 132 179 216 270 335 387
#     4  12  23  39  61  96 136 177 231 262 305 378
#     4  10  22  42  65  92 131 165 215 265 330 391
#     4  11  21  40  60  92 130 174 215 258 317 376
#     4  11  26  45  72  99 122 164 219 283 350 403
#     4  12  27  41  63  98 139 185 227 267 309 380
#     4  11  21  35  60  90 127 178 209 267 304 367
#     4  10  23  41  65  91 129 164 215 265 331 392
#
# _framework density 21.086189000000001
#
# number of rings (size 3 to 8) (size 9 to 14) (size 15 to 20)
#    0.000    1.000    3.750    3.375    5.250    1.000 
#    2.250    2.500    0.000    0.000    0.000    0.000 
#    0.000    0.000    0.000    0.000    0.000    0.000 
#
# Total GULP energy -178968.870629 kJ/mol
# GULP energy per Si atom -5592.777207 kJ/mol
# Density = 2.103820 g / cm^3
# Si number density = 21.086189 Si / 1000 Ang^3
#
#
#
# Elastic Constant Matrix: (Units=GPa)
#
#
# Indices 1 2 3 4 5 6 
#
# 1 92.3819 22.3620 0.2311 0.0000 0.0000 0.0000
# 2 22.3620 53.3463 7.1703 0.0000 0.0000 0.0000
# 3 0.2311 7.1703 64.2838 0.0000 0.0000 0.0000
# 4 0.0000 0.0000 0.0000 23.3207 0.0000 0.0000
# 5 0.0000 0.0000 0.0000 0.0000 13.8928 0.0000
# 6 0.0000 0.0000 0.0000 0.0000 0.0000 21.5566
#
#
#
# Elastic Compliance Matrix: (Units=1/GPa)
#
#
# Indices 1 2 3 4 5 6 
#
# 1 0.012065 -0.005128 0.000529 0.000000 0.000000 0.000000
# 2 -0.005128 0.021211 -0.002347 0.000000 0.000000 0.000000
# 3 0.000529 -0.002347 0.015816 0.000000 0.000000 0.000000
# 4 0.000000 0.000000 0.000000 0.042880 0.000000 0.000000
# 5 0.000000 0.000000 0.000000 0.000000 0.071980 0.000000
# 6 0.000000 0.000000 0.000000 0.000000 0.000000 0.046389
#
#
# Mechanical properties :
#
#
# Convention : Reuss Voigt Hill
#
# Bulk Modulus (GPa) = 28.41151 29.94875 29.18013
# Shear Modulus (GPa) = 21.18936 23.77060 22.47998
#
# Velocity S-wave (km/s) = 3.17344 3.36118 3.26866
# Velocity P-wave (km/s) = 5.18950 5.41269 5.30227
#
# Compressibility (1/GPa) = 0.03519701
#
# Stress axis : x y z
#
# Youngs Moduli (GPa) = 82.88659 47.14603 63.22732
#
# Poissons Ratio (x) = 0.24178 -0.03342
# Poissons Ratio (y) = 0.42507 0.14842
# Poissons Ratio (z) = -0.04382 0.11067
#
# Static dielectric constant tensor:
#      x y z
#    x 1.737130 0.000000 0.000000 
#    y 0.000000 1.762960 0.000000 
#    z 0.000000 0.000000 1.794350 
# 
# From -- ./inp_files/9441.got.cif
#   From: 2010.05.17/outbox.cif.g08.bks.cpg/sg40_5_cif.got.tgz:9441.got - 2010.06.03 18:35:42.
