data_PCOD9365686
_publ_section_title
;
Structure prediction by ZEFSAII (Michael W. Deem and Ramdas Pophale) SiO2 
 PCOD9365686
Probable space group: A M A 2
;
_chemical_formula_sum "Si O2"
_cell_formula_units_Z 32
_cell_length_a 18.000000
_cell_length_b 21.000000
_cell_length_c 9.000000
_cell_angle_alpha 90.000000
_cell_angle_beta 90.000000
_cell_angle_gamma 90.000000
_cell_volume 3402.000000
_symmetry_space_group_name_H-M "A M A 2"
_symmetry_group_IT_number 40
_symmetry_cell_setting 'orthorhombic'
loop_
_space_group_symop_operation_xyz
x,y,z
-x,-y,z
1/2-x,y,z
1/2+x,-y,z
x,1/2+y,1/2+z
-x,1/2-y,1/2+z
1/2-x,1/2+y,1/2+z
1/2+x,1/2-y,1/2+z
loop_
_atom_site_type_symbol
_atom_site_label
_atom_site_fract_x
_atom_site_fract_y
_atom_site_fract_z
Si Si1 0.411573 0.006483 0.315770
Si Si2 0.576790 0.245919 0.468830
Si Si3 0.662150 0.372202 0.966224
Si Si4 0.839178 0.990864 0.995046
Si Si5 0.662113 0.615276 0.969711
Si Si6 0.415746 0.747591 0.824823
Si Si7 0.837990 0.862011 0.817304
Si Si8 0.337726 0.380396 0.322678
O O1 0.383616 0.067692 0.406958
O O2 0.500000 0.000000 0.320663
O O3 0.374703 0.943052 0.383587
O O4 0.382610 0.015011 0.148284
O O5 0.623603 0.182356 0.432775
O O6 0.575608 0.254278 0.646756
O O7 0.494444 0.238861 0.404510
O O8 0.615421 0.306932 0.395330
O O9 0.750000 0.384264 0.945473
O O10 0.637788 0.308824 0.879350
O O11 0.647879 0.363175 0.141367
O O12 0.750000 0.991328 0.022851
O O13 0.854865 0.930625 0.889424
O O14 0.858814 0.057163 0.914959
O O15 0.750000 0.617812 0.938353
O O16 0.652403 0.606017 0.147246
O O17 0.382446 0.816956 0.862963
O O18 0.750000 0.849952 0.839978
O O19 0.250000 0.368238 0.346239
#
# Coordination Sequence:
#
# PCOD9365686 Si02
#       8
#     8   8   8   8   8   8   8   8
#     4  12  25  39  58  88 122 154 192 240 296 355
#     4  11  23  39  60  88 124 159 196 243 298 355
#     4  11  23  41  64  88 117 156 202 247 294 352
#     4  10  21  39  62  87 116 153 199 245 291 346
#     4  10  21  40  63  85 113 152 196 240 289 346
#     4  11  23  39  60  89 124 160 196 242 298 354
#     4  10  22  40  63  89 117 155 202 249 295 350
#     4   9  20  39  62  86 113 151 197 242 289 344
#
# _framework density 9.4062319999999993
#
# number of rings (size 3 to 8) (size 9 to 14) (size 15 to 20)
#    0.000    1.500    0.000    4.875    0.000    9.500 
#    0.000    2.500    0.000    0.000    0.000    0.000 
#    0.000    0.000    0.000    0.000    0.000    0.000 
#
# Total GULP energy -178957.405859 kJ/mol
# GULP energy per Si atom -5592.418933 kJ/mol
# Density = 0.938482 g / cm^3
# Si number density = 9.406232 Si / 1000 Ang^3
#
#
#
# Elastic Constant Matrix: (Units=GPa)
#
#
# Indices 1 2 3 4 5 6 
#
# 1 48.7539 25.5571 29.8215 0.0000 0.0000 0.0000
# 2 25.5571 93.7363 30.5703 0.0000 0.0000 0.0000
# 3 29.8215 30.5703 56.4144 0.0000 0.0000 0.0000
# 4 0.0000 0.0000 0.0000 35.1165 0.0000 0.0000
# 5 0.0000 0.0000 0.0000 0.0000 25.9447 0.0000
# 6 0.0000 0.0000 0.0000 0.0000 0.0000 23.8124
#
#
#
# Elastic Compliance Matrix: (Units=1/GPa)
#
#
# Indices 1 2 3 4 5 6 
#
# 1 0.031402 -0.003824 -0.014527 0.000000 0.000000 0.000000
# 2 -0.003824 0.013424 -0.005253 0.000000 0.000000 0.000000
# 3 -0.014527 -0.005253 0.028252 0.000000 0.000000 0.000000
# 4 0.000000 0.000000 0.000000 0.028477 0.000000 0.000000
# 5 0.000000 0.000000 0.000000 0.000000 0.038544 0.000000
# 6 0.000000 0.000000 0.000000 0.000000 0.000000 0.041995
#
#
# Mechanical properties :
#
#
# Convention : Reuss Voigt Hill
#
# Bulk Modulus (GPa) = 38.65588 41.20024 39.92806
# Shear Modulus (GPa) = 21.01515 24.50510 22.76012
#
# Velocity S-wave (km/s) = 3.34591 3.61307 3.48205
# Velocity P-wave (km/s) = 5.95982 6.27326 6.11854
#
# Compressibility (1/GPa) = 0.02586929
#
# Stress axis : x y z
#
# Youngs Moduli (GPa) = 31.84556 74.49381 35.39596
#
# Poissons Ratio (x) = 0.28485 0.51421
# Poissons Ratio (y) = 0.12177 0.18593
# Poissons Ratio (z) = 0.46263 0.39131
#
# Static dielectric constant tensor:
#      x y z
#    x 1.633390 0.000000 0.000000 
#    y 0.000000 1.614190 0.000000 
#    z 0.000000 0.000000 1.625740 
# 
# From -- ./inp_files/7832.got.cif
#   From: 2010.05.17/outbox.ucp.g08.bks.cvg/sg40_4_cif.got.tgz:7832.got - 2010.06.11 16:26:39.
