data_PCOD9365501
_publ_section_title
;
Structure prediction by ZEFSAII (Michael W. Deem and Ramdas Pophale) SiO2 
 PCOD9365501
Probable space group: A M A 2
;
_chemical_formula_sum "Si O2"
_cell_formula_units_Z 28
_cell_length_a 13.593664
_cell_length_b 9.806430
_cell_length_c 9.855291
_cell_angle_alpha 90.000000
_cell_angle_beta 90.000000
_cell_angle_gamma 90.000000
_cell_volume 1313.762666
_symmetry_space_group_name_H-M "A M A 2"
_symmetry_group_IT_number 40
_symmetry_cell_setting 'orthorhombic'
loop_
_space_group_symop_operation_xyz
x,y,z
-x,-y,z
1/2-x,y,z
1/2+x,-y,z
x,1/2+y,1/2+z
-x,1/2-y,1/2+z
1/2-x,1/2+y,1/2+z
1/2+x,1/2-y,1/2+z
loop_
_atom_site_type_symbol
_atom_site_label
_atom_site_fract_x
_atom_site_fract_y
_atom_site_fract_z
Si Si1 0.250000 0.974684 0.800980
Si Si2 0.911987 0.307052 0.382756
Si Si3 0.250000 0.408906 0.979816
Si Si4 0.750000 0.824133 0.300165
Si Si5 0.037253 0.147803 0.175170
O O1 0.156528 0.065736 0.842638
O O2 0.250000 0.938787 0.640515
O O3 0.250000 0.825263 0.867966
O O4 0.842521 0.180990 0.429481
O O5 0.976501 0.338949 0.514660
O O6 0.977979 0.260997 0.257393
O O7 0.250000 0.554191 0.906837
O O8 0.847561 0.839064 0.209348
O O9 0.000000 0.000000 0.220565
#
# Coordination Sequence:
#
# PCOD9365501 Si02
#       5
#     4   8   4   4   8
#     4  11  26  47  75 104 150 186 244 292 361 437
#     4  11  27  47  72 111 142 192 242 296 358 435
#     4  11  23  49  74 103 145 189 238 297 359 431
#     4  12  25  48  71 103 145 189 230 305 358 420
#     4  12  27  46  74 106 148 186 245 297 362 431
#
# _framework density 21.312829000000001
#
# number of rings (size 3 to 8) (size 9 to 14) (size 15 to 20)
#    0.000    0.571    5.714    0.857    8.000    0.000 
#    0.000    0.000    0.000    0.000    0.000    0.000 
#    0.000    0.000    0.000    0.000    0.000    0.000 
#
# Total GULP energy -78373.479903 kJ/mol
# GULP energy per Si atom -5598.105707 kJ/mol
# Density = 2.126432 g / cm^3
# Si number density = 21.312829 Si / 1000 Ang^3
#
#
#
# Elastic Constant Matrix: (Units=GPa)
#
#
# Indices 1 2 3 4 5 6 
#
# 1 94.7943 40.9701 31.1623 0.0000 0.0000 0.0000
# 2 40.9701 168.8667 39.4419 0.0000 0.0000 0.0000
# 3 31.1623 39.4419 97.9756 0.0000 0.0000 0.0000
# 4 0.0000 0.0000 0.0000 43.3631 0.0000 0.0000
# 5 0.0000 0.0000 0.0000 0.0000 29.6378 0.0000
# 6 0.0000 0.0000 0.0000 0.0000 0.0000 7.0726
#
#
#
# Elastic Compliance Matrix: (Units=1/GPa)
#
#
# Indices 1 2 3 4 5 6 
#
# 1 0.012563 -0.002334 -0.003056 0.000000 0.000000 0.000000
# 2 -0.002334 0.006970 -0.002064 0.000000 0.000000 0.000000
# 3 -0.003056 -0.002064 0.012009 0.000000 0.000000 0.000000
# 4 0.000000 0.000000 0.000000 0.023061 0.000000 0.000000
# 5 0.000000 0.000000 0.000000 0.000000 0.033741 0.000000
# 6 0.000000 0.000000 0.000000 0.000000 0.000000 0.141391
#
#
# Mechanical properties :
#
#
# Convention : Reuss Voigt Hill
#
# Bulk Modulus (GPa) = 60.11554 64.97614 62.54584
# Shear Modulus (GPa) = 19.98504 32.68553 26.33529
#
# Velocity S-wave (km/s) = 3.06551 3.92038 3.51900
# Velocity P-wave (km/s) = 6.38728 7.14462 6.77654
#
# Compressibility (1/GPa) = 0.01663464
#
# Stress axis : x y z
#
# Youngs Moduli (GPa) = 79.60134 143.46977 83.26839
#
# Poissons Ratio (x) = 0.33488 0.25447
# Poissons Ratio (y) = 0.18580 0.17183
# Poissons Ratio (z) = 0.24327 0.29606
#
# Static dielectric constant tensor:
#      x y z
#    x 1.764030 0.000000 0.000000 
#    y 0.000000 1.763220 0.000000 
#    z 0.000000 0.000000 1.759120 
# 
# From -- ./inp_files/7050.got.cif
#   From: 2010.05.17/outbox.cif.g08.bks.cpg/sg40_4_cif.got.tgz:7050.got - 2010.06.03 18:35:42.
