data_PCOD9365936
_publ_section_title
;
Structure prediction by ZEFSAII (Michael W. Deem and Ramdas Pophale) SiO2 
 PCOD9365936
Probable space group: A B A 2
;
_chemical_formula_sum "Si O2"
_cell_formula_units_Z 64
_cell_length_a 13.000199
_cell_length_b 17.178268
_cell_length_c 13.603628
_cell_angle_alpha 90.000000
_cell_angle_beta 90.000000
_cell_angle_gamma 90.000000
_cell_volume 3037.974482
_symmetry_space_group_name_H-M "A B A 2"
_symmetry_group_IT_number 41
_symmetry_cell_setting 'orthorhombic'
loop_
_space_group_symop_operation_xyz
x,y,z
-x,-y,z
1/2-x,y,1/2+z
1/2+x,-y,1/2+z
x,1/2+y,1/2+z
-x,1/2-y,1/2+z
1/2-x,1/2+y,z
1/2+x,1/2-y,z
loop_
_atom_site_type_symbol
_atom_site_label
_atom_site_fract_x
_atom_site_fract_y
_atom_site_fract_z
Si Si1 0.826319 0.019846 0.009930
Si Si2 0.039566 0.831709 0.986085
Si Si3 0.365176 0.696112 0.591812
Si Si4 0.609927 0.974074 0.003117
Si Si5 0.643030 0.352024 0.116996
Si Si6 0.835325 0.013791 0.772844
Si Si7 0.608024 0.965294 0.768533
Si Si8 0.010329 0.130821 0.759204
O O1 0.850284 0.936496 0.059498
O O2 0.905315 0.090026 0.028860
O O3 0.704760 0.029742 0.031479
O O4 0.833824 0.014247 0.891593
O O5 0.116152 0.761757 0.010669
O O6 0.940758 0.810827 0.051068
O O7 0.005410 0.842305 0.872685
O O8 0.373303 0.612362 0.540675
O O9 0.247259 0.695969 0.625817
O O10 0.445950 0.694451 0.682935
O O11 0.606421 0.969687 0.885536
O O12 0.500000 0.000000 0.041216
O O13 0.612367 0.378628 0.225786
O O14 0.716522 0.006681 0.739582
O O15 0.901282 0.936143 0.751330
O O16 0.902044 0.087377 0.736771
O O17 0.500000 0.000000 0.732281
#
# Coordination Sequence:
#
# PCOD9365936 Si02
#       8
#     8   8   8   8   8   8   8   8
#     4   9  18  36  63  91 114 156 211 262 305 366
#     4  11  23  40  61  92 124 160 217 264 316 391
#     4  11  25  38  59  92 124 170 202 262 334 383
#     4   9  21  37  58  87 127 163 206 255 315 378
#     4  11  21  38  62  87 121 164 211 261 316 383
#     4   9  17  34  64  94 120 158 215 266 310 367
#     4  10  19  34  59  95 126 161 205 264 317 371
#     4  10  20  38  64  91 124 165 212 263 323 382
#
# _framework density 21.066668
#
# number of rings (size 3 to 8) (size 9 to 14) (size 15 to 20)
#    0.000    2.000    2.500    1.125    1.750    2.000 
#    0.000    1.250    0.000    3.000    0.000    0.000 
#    0.000    0.000    0.000    0.000    0.000    0.000 
#
# Total GULP energy -178391.549261 kJ/mol
# GULP energy per Si atom -5574.735914 kJ/mol
# Density = 2.101872 g / cm^3
# Si number density = 21.066668 Si / 1000 Ang^3
#
#
#
# Elastic Constant Matrix: (Units=GPa)
#
#
# Indices 1 2 3 4 5 6 
#
# 1 123.1302 21.3712 45.5931 0.0000 0.0000 0.0000
# 2 21.3712 37.3278 18.6802 0.0000 0.0000 0.0000
# 3 45.5931 18.6802 77.7448 0.0000 0.0000 0.0000
# 4 0.0000 0.0000 0.0000 18.5919 0.0000 0.0000
# 5 0.0000 0.0000 0.0000 0.0000 20.8891 0.0000
# 6 0.0000 0.0000 0.0000 0.0000 0.0000 22.7684
#
#
#
# Elastic Compliance Matrix: (Units=1/GPa)
#
#
# Indices 1 2 3 4 5 6 
#
# 1 0.010742 -0.003407 -0.005481 0.000000 0.000000 0.000000
# 2 -0.003407 0.031532 -0.005578 0.000000 0.000000 0.000000
# 3 -0.005481 -0.005578 0.017417 0.000000 0.000000 0.000000
# 4 0.000000 0.000000 0.000000 0.053787 0.000000 0.000000
# 5 0.000000 0.000000 0.000000 0.000000 0.047872 0.000000
# 6 0.000000 0.000000 0.000000 0.000000 0.000000 0.043921
#
#
# Mechanical properties :
#
#
# Convention : Reuss Voigt Hill
#
# Bulk Modulus (GPa) = 32.51142 45.49908 39.00525
# Shear Modulus (GPa) = 20.45347 22.62043 21.53695
#
# Velocity S-wave (km/s) = 3.11930 3.28037 3.20085
# Velocity P-wave (km/s) = 5.33287 5.99936 5.67591
#
# Compressibility (1/GPa) = 0.03075842
#
# Stress axis : x y z
#
# Youngs Moduli (GPa) = 93.08847 31.71375 57.41419
#
# Poissons Ratio (x) = 0.10806 0.31470
# Poissons Ratio (y) = 0.31719 0.32027
# Poissons Ratio (z) = 0.51023 0.17690
#
# Static dielectric constant tensor:
#      x y z
#    x 1.808580 0.000000 0.000000 
#    y 0.000000 1.755910 0.000000 
#    z 0.000000 0.000000 1.796550 
# 
# From -- ./inp_files/8102.got.cif
#   From: 2010.05.17/outbox.cif.g08.bks.cpg/sg41_5_cif.got.tgz:8102.got - 2010.06.03 18:54:24.
