data_PCOD9365076
_publ_section_title
;
Structure prediction by ZEFSAII (Michael W. Deem and Ramdas Pophale) SiO2 
 PCOD9365076
Probable space group: A M A 2
;
_chemical_formula_sum "Si O2"
_cell_formula_units_Z 64
_cell_length_a 28.248192
_cell_length_b 9.181566
_cell_length_c 11.175517
_cell_angle_alpha 90.000000
_cell_angle_beta 90.000000
_cell_angle_gamma 90.000000
_cell_volume 2898.511584
_symmetry_space_group_name_H-M "A M A 2"
_symmetry_group_IT_number 40
_symmetry_cell_setting 'orthorhombic'
loop_
_space_group_symop_operation_xyz
x,y,z
-x,-y,z
1/2-x,y,z
1/2+x,-y,z
x,1/2+y,1/2+z
-x,1/2-y,1/2+z
1/2-x,1/2+y,1/2+z
1/2+x,1/2-y,1/2+z
loop_
_atom_site_type_symbol
_atom_site_label
_atom_site_fract_x
_atom_site_fract_y
_atom_site_fract_z
Si Si1 0.376647 0.104409 0.087130
Si Si2 0.114875 0.906298 0.325336
Si Si3 0.697495 0.204348 0.481136
Si Si4 0.141137 0.896646 0.873846
Si Si5 0.547752 0.805237 0.690515
Si Si6 0.560591 0.156741 0.688238
Si Si7 0.119108 0.654651 0.018967
Si Si8 0.197498 0.050149 0.675795
O O1 0.379623 0.005983 0.206089
O O2 0.413715 0.238759 0.091646
O O3 0.325416 0.177206 0.069204
O O4 0.380468 0.010155 0.967392
O O5 0.105233 0.017430 0.436461
O O6 0.162590 0.825899 0.370290
O O7 0.075015 0.787216 0.291682
O O8 0.750000 0.243639 0.443018
O O9 0.699395 0.061001 0.563536
O O10 0.098671 0.834657 0.793651
O O11 0.182707 0.964799 0.795605
O O12 0.155650 0.754341 0.946243
O O13 0.491988 0.782246 0.704319
O O14 0.571964 0.762168 0.563749
O O15 0.555219 0.981159 0.679482
O O16 0.149069 0.631727 0.140683
O O17 0.250000 0.616799 0.184621
#
# Coordination Sequence:
#
# PCOD9365076 Si02
#       8
#     8   8   8   8   8   8   8   8
#     4  12  24  44  69  99 138 183 227 287 347 413
#     4  11  23  45  70  99 137 181 225 290 346 413
#     4  10  22  42  70 101 136 184 231 285 352 410
#     4  12  23  44  67  98 139 177 223 284 343 408
#     4  11  24  47  68  99 136 180 234 283 352 417
#     4  11  24  48  66  98 140 178 233 288 345 416
#     4  11  22  45  67  98 138 175 224 286 341 406
#     4  10  22  43  70  96 133 180 227 279 344 411
#
# _framework density 22.080300000000001
#
# number of rings (size 3 to 8) (size 9 to 14) (size 15 to 20)
#    0.000    1.000    5.000    1.500    0.000    2.000 
#   11.250    2.500    0.000    0.000    0.000    0.000 
#    0.000    0.000    0.000    0.000    0.000    0.000 
#
# Total GULP energy -178373.113308 kJ/mol
# GULP energy per Si atom -5574.159791 kJ/mol
# Density = 2.203004 g / cm^3
# Si number density = 22.080300 Si / 1000 Ang^3
#
#
#
# Elastic Constant Matrix: (Units=GPa)
#
#
# Indices 1 2 3 4 5 6 
#
# 1 131.7280 18.2297 23.9804 0.0000 0.0000 0.0000
# 2 18.2297 71.1490 16.8274 0.0000 0.0000 0.0000
# 3 23.9804 16.8274 69.5965 0.0000 0.0000 0.0000
# 4 0.0000 0.0000 0.0000 51.4508 0.0000 0.0000
# 5 0.0000 0.0000 0.0000 0.0000 14.6250 0.0000
# 6 0.0000 0.0000 0.0000 0.0000 0.0000 11.8168
#
#
#
# Elastic Compliance Matrix: (Units=1/GPa)
#
#
# Indices 1 2 3 4 5 6 
#
# 1 0.008253 -0.001530 -0.002474 0.000000 0.000000 0.000000
# 2 -0.001530 0.015191 -0.003146 0.000000 0.000000 0.000000
# 3 -0.002474 -0.003146 0.015982 0.000000 0.000000 0.000000
# 4 0.000000 0.000000 0.000000 0.019436 0.000000 0.000000
# 5 0.000000 0.000000 0.000000 0.000000 0.068376 0.000000
# 6 0.000000 0.000000 0.000000 0.000000 0.000000 0.084625
#
#
# Mechanical properties :
#
#
# Convention : Reuss Voigt Hill
#
# Bulk Modulus (GPa) = 39.79775 43.39428 41.59602
# Shear Modulus (GPa) = 21.31853 29.80760 25.56307
#
# Velocity S-wave (km/s) = 3.11062 3.67817 3.40624
# Velocity P-wave (km/s) = 5.56458 6.14282 5.86083
#
# Compressibility (1/GPa) = 0.02512705
#
# Stress axis : x y z
#
# Youngs Moduli (GPa) = 121.16137 65.82864 62.57187
#
# Poissons Ratio (x) = 0.10069 0.15480
# Poissons Ratio (y) = 0.18532 0.19685
# Poissons Ratio (z) = 0.29975 0.20709
#
# Static dielectric constant tensor:
#      x y z
#    x 1.821540 0.000000 0.000000 
#    y 0.000000 1.958550 0.000000 
#    z 0.000000 0.000000 1.859390 
# 
# From -- ./inp_files/14398.got.cif
#   From: 2010.05.17/outbox.cif.g08.bks.cpg/sg40_8_cif.got.tgz:14398.got - 2010.06.03 18:35:42.
