data_PCOD9365737
_publ_section_title
;
Structure prediction by ZEFSAII (Michael W. Deem and Ramdas Pophale) SiO2 
 PCOD9365737
Probable space group: A B A 2
;
_chemical_formula_sum "Si O2"
_cell_formula_units_Z 64
_cell_length_a 22.455828
_cell_length_b 14.787390
_cell_length_c 8.627614
_cell_angle_alpha 90.000000
_cell_angle_beta 90.000000
_cell_angle_gamma 90.000000
_cell_volume 2864.912133
_symmetry_space_group_name_H-M "A B A 2"
_symmetry_group_IT_number 41
_symmetry_cell_setting 'orthorhombic'
loop_
_space_group_symop_operation_xyz
x,y,z
-x,-y,z
1/2-x,y,1/2+z
1/2+x,-y,1/2+z
x,1/2+y,1/2+z
-x,1/2-y,1/2+z
1/2-x,1/2+y,z
1/2+x,1/2-y,z
loop_
_atom_site_type_symbol
_atom_site_label
_atom_site_fract_x
_atom_site_fract_y
_atom_site_fract_z
Si Si1 0.563279 0.016282 0.429610
Si Si2 0.311767 0.767555 0.568793
Si Si3 0.810607 0.026582 0.565223
Si Si4 0.063279 0.983718 0.576584
Si Si5 0.810607 0.526582 0.440971
Si Si6 0.435859 0.266565 0.927632
Si Si7 0.564141 0.733435 0.578562
Si Si8 0.311767 0.767555 0.937402
O O1 0.558878 0.978616 0.253097
O O2 0.626605 0.983854 0.493469
O O3 0.568978 0.124433 0.419991
O O4 0.500000 0.000000 0.509824
O O5 0.310900 0.871567 0.508549
O O6 0.376493 0.732539 0.514311
O O7 0.309073 0.765084 0.753097
O O8 0.250000 0.727130 0.503097
O O9 0.873395 0.983854 0.512725
O O10 0.810190 0.029880 0.753097
O O11 0.750000 0.983676 0.503097
O O12 0.810900 0.128433 0.497645
O O13 0.068978 0.875567 0.586203
O O14 0.000000 0.000000 0.496370
O O15 0.435744 0.230651 0.753097
O O16 0.500000 0.250000 0.003097
O O17 0.623507 0.767461 0.491883
#
# Coordination Sequence:
#
# PCOD9365737 Si02
#       8
#     8   8   8   8   8   8   8   8
#     4   8  15  28  46  67  89 117 153 189 225 268
#     4  10  17  27  44  66  92 119 151 191 232 273
#     4   9  15  24  41  64  89 115 146 186 227 268
#     4   8  15  28  46  67  89 117 153 189 225 268
#     4   9  15  24  41  64  89 115 146 186 227 268
#     4  10  19  31  48  70  95 123 156 192 232 277
#     4  10  19  31  48  70  95 123 156 192 232 277
#     4  10  17  27  44  66  92 119 151 191 232 273
#
# _framework density 22.339255000000001
#
# number of rings (size 3 to 8) (size 9 to 14) (size 15 to 20)
#    0.000    2.750    0.000    6.750    0.000    0.000 
#    0.000    0.000    0.000   28.500    0.000    3.500 
#    0.000    0.000    0.000    0.000    0.000    0.000 
#
# Total GULP energy -178294.216955 kJ/mol
# GULP energy per Si atom -5571.694280 kJ/mol
# Density = 2.228841 g / cm^3
# Si number density = 22.339255 Si / 1000 Ang^3
#
#
#
# Elastic Constant Matrix: (Units=GPa)
#
#
# Indices 1 2 3 4 5 6 
#
# 1 322.8391 13.0649 87.9296 0.0000 0.0000 0.0000
# 2 13.0649 48.3157 6.8402 0.0000 0.0000 0.0000
# 3 87.9296 6.8402 130.2047 0.0000 0.0000 0.0000
# 4 0.0000 0.0000 0.0000 -7.4508 0.0000 0.0000
# 5 0.0000 0.0000 0.0000 0.0000 41.5722 0.0000
# 6 0.0000 0.0000 0.0000 0.0000 0.0000 18.1746
#
#
#
# Elastic Compliance Matrix: (Units=1/GPa)
#
#
# Indices 1 2 3 4 5 6 
#
# 1 0.003817 -0.000672 -0.002543 0.000000 0.000000 0.000000
# 2 -0.000672 0.020971 -0.000648 0.000000 0.000000 0.000000
# 3 -0.002543 -0.000648 0.009431 0.000000 0.000000 0.000000
# 4 0.000000 0.000000 0.000000 -0.134214 0.000000 0.000000
# 5 0.000000 0.000000 0.000000 0.000000 0.024055 0.000000
# 6 0.000000 0.000000 0.000000 0.000000 0.000000 0.055022
#
#
# Mechanical properties :
#
#
# Convention : Reuss Voigt Hill
#
# Bulk Modulus (GPa) = 37.74410 79.66987 58.70699
# Shear Modulus (GPa) = -1146.21667 36.69420 -554.76123
#
# Velocity S-wave (km/s) = -22.67618 4.05728 -15.77574
# Velocity P-wave (km/s) = 25.85884 7.59538 17.47841
#
# Compressibility (1/GPa) = 0.02649421
#
# Stress axis : x y z
#
# Youngs Moduli (GPa) = 261.97138 47.68563 106.03054
#
# Poissons Ratio (x) = 0.03206 0.26958
# Poissons Ratio (y) = 0.17611 0.06868
# Poissons Ratio (z) = 0.66607 0.03089
#
# Static dielectric constant tensor:
#      x y z
#    x 1.966680 0.000000 0.000000 
#    y 0.000000 1.925710 0.000000 
#    z 0.000000 0.000000 1.784050 
# 
# From -- ./inp_files/3533.got.cif
#   From: 2010.05.17/outbox.cif.g08.bks.cpg/sg41_2_cif.got.tgz:3533.got - 2010.06.03 18:54:24.
