data_PCOD9365931
_publ_section_title
;
Structure prediction by ZEFSAII (Michael W. Deem and Ramdas Pophale) SiO2 
 PCOD9365931
Probable space group: A B A 2
;
_chemical_formula_sum "Si O2"
_cell_formula_units_Z 64
_cell_length_a 11.359288
_cell_length_b 9.728242
_cell_length_c 24.585912
_cell_angle_alpha 90.000000
_cell_angle_beta 90.000000
_cell_angle_gamma 90.000000
_cell_volume 2716.888397
_symmetry_space_group_name_H-M "A B A 2"
_symmetry_group_IT_number 41
_symmetry_cell_setting 'orthorhombic'
loop_
_space_group_symop_operation_xyz
x,y,z
-x,-y,z
1/2-x,y,1/2+z
1/2+x,-y,1/2+z
x,1/2+y,1/2+z
-x,1/2-y,1/2+z
1/2-x,1/2+y,z
1/2+x,1/2-y,z
loop_
_atom_site_type_symbol
_atom_site_label
_atom_site_fract_x
_atom_site_fract_y
_atom_site_fract_z
Si Si1 0.257752 0.050628 0.822900
Si Si2 0.590029 0.685608 0.334385
Si Si3 0.588038 0.624685 0.890230
Si Si4 0.306613 0.470334 0.591313
Si Si5 0.197123 0.486657 0.210249
Si Si6 0.000961 0.228074 0.718156
Si Si7 0.880517 0.585309 0.508003
Si Si8 0.514190 0.778506 0.098179
O O1 0.366511 0.967334 0.849149
O O2 0.157447 0.940368 0.839742
O O3 0.280343 0.032598 0.758915
O O4 0.198725 0.198612 0.836688
O O5 0.488280 0.745296 0.372934
O O6 0.537647 0.694837 0.273033
O O7 0.500000 0.500000 0.900487
O O8 0.654402 0.639355 0.947918
O O9 0.246543 0.471156 0.650869
O O10 0.224006 0.491506 0.539741
O O11 0.382048 0.330069 0.585011
O O12 0.403174 0.587549 0.599870
O O13 0.096197 0.603517 0.214155
O O14 0.127100 0.344469 0.221508
O O15 0.008754 0.291519 0.657693
O O16 0.922492 0.697525 0.550941
O O17 0.000000 0.500000 0.503924
#
# Coordination Sequence:
#
# PCOD9365931 Si02
#       8
#     8   8   8   8   8   8   8   8
#     4  10  19  34  57  87 108 152 194 242 293 346
#     4  10  19  34  60  85 120 150 201 241 295 362
#     4   9  20  40  57  78 111 160 203 233 281 368
#     4   9  20  38  60  87 117 157 202 249 302 373
#     4   8  14  30  57  81 110 146 195 229 294 357
#     4   8  14  30  57  81 109 152 189 235 285 369
#     4  11  24  38  60  88 120 159 210 254 302 363
#     4   9  20  38  59  86 120 159 199 245 310 364
#
# _framework density 23.556360000000002
#
# number of rings (size 3 to 8) (size 9 to 14) (size 15 to 20)
#    0.000    2.750    1.250    1.500    3.500    1.000 
#    4.500    0.625    0.000    0.000    0.000    0.000 
#    0.000    0.000    0.000    0.000    0.000    0.000 
#
# Total GULP energy -178260.567991 kJ/mol
# GULP energy per Si atom -5570.642750 kJ/mol
# Density = 2.350274 g / cm^3
# Si number density = 23.556360 Si / 1000 Ang^3
#
#
#
# Elastic Constant Matrix: (Units=GPa)
#
#
# Indices 1 2 3 4 5 6 
#
# 1 57.0059 17.0346 14.4140 0.0000 0.0000 0.0000
# 2 17.0346 63.8525 19.1639 0.0000 0.0000 0.0000
# 3 14.4140 19.1639 124.0075 0.0000 0.0000 0.0000
# 4 0.0000 0.0000 0.0000 5.7766 0.0000 0.0000
# 5 0.0000 0.0000 0.0000 0.0000 22.0547 0.0000
# 6 0.0000 0.0000 0.0000 0.0000 0.0000 33.2754
#
#
#
# Elastic Compliance Matrix: (Units=1/GPa)
#
#
# Indices 1 2 3 4 5 6 
#
# 1 0.019331 -0.004701 -0.001521 0.000000 0.000000 0.000000
# 2 -0.004701 0.017566 -0.002168 0.000000 0.000000 0.000000
# 3 -0.001521 -0.002168 0.008576 0.000000 0.000000 0.000000
# 4 0.000000 0.000000 0.000000 0.173111 0.000000 0.000000
# 5 0.000000 0.000000 0.000000 0.000000 0.045342 0.000000
# 6 0.000000 0.000000 0.000000 0.000000 0.000000 0.030052
#
#
# Mechanical properties :
#
#
# Convention : Reuss Voigt Hill
#
# Bulk Modulus (GPa) = 34.85065 38.45454 36.65260
# Shear Modulus (GPa) = 15.60931 25.17157 20.39044
#
# Velocity S-wave (km/s) = 2.57697 3.27244 2.94530
# Velocity P-wave (km/s) = 4.86632 5.53520 5.21150
#
# Compressibility (1/GPa) = 0.02869387
#
# Stress axis : x y z
#
# Youngs Moduli (GPa) = 51.72974 56.92841 116.60673
#
# Poissons Ratio (x) = 0.26761 0.17730
# Poissons Ratio (y) = 0.24317 0.25283
# Poissons Ratio (z) = 0.07866 0.12343
#
# Static dielectric constant tensor:
#      x y z
#    x 2.008440 0.000000 0.000000 
#    y 0.000000 1.899730 0.000000 
#    z 0.000000 0.000000 2.000510 
# 
# From -- ./inp_files/12167.got.cif
#   From: 2010.05.17/outbox.cif.g08.bks.cpg/sg41_7_cif.got.tgz:12167.got - 2010.06.03 18:54:24.
