data_PCOD9365409
_publ_section_title
;
Structure prediction by ZEFSAII (Michael W. Deem and Ramdas Pophale) SiO2 
 PCOD9365409
Probable space group: A M A 2
;
_chemical_formula_sum "Si O2"
_cell_formula_units_Z 48
_cell_length_a 15.597279
_cell_length_b 8.090977
_cell_length_c 18.684577
_cell_angle_alpha 90.000000
_cell_angle_beta 90.000000
_cell_angle_gamma 90.000000
_cell_volume 2357.941780
_symmetry_space_group_name_H-M "A M A 2"
_symmetry_group_IT_number 40
_symmetry_cell_setting 'orthorhombic'
loop_
_space_group_symop_operation_xyz
x,y,z
-x,-y,z
1/2-x,y,z
1/2+x,-y,z
x,1/2+y,1/2+z
-x,1/2-y,1/2+z
1/2-x,1/2+y,1/2+z
1/2+x,1/2-y,1/2+z
loop_
_atom_site_type_symbol
_atom_site_label
_atom_site_fract_x
_atom_site_fract_y
_atom_site_fract_z
Si Si1 0.907085 0.402878 0.869480
Si Si2 0.841350 0.157320 0.651533
Si Si3 0.098629 0.962070 0.797417
Si Si4 0.527867 0.679340 0.643735
Si Si5 0.096016 0.075395 0.533276
Si Si6 0.845747 0.697873 0.778854
O O1 0.902722 0.214464 0.838818
O O2 0.851005 0.528144 0.822964
O O3 0.000000 0.500000 0.866584
O O4 0.877935 0.396650 0.951933
O O5 0.750000 0.250786 0.651338
O O6 0.846469 0.055856 0.725198
O O7 0.934270 0.241417 0.655092
O O8 0.846695 0.046760 0.580433
O O9 0.132912 0.138864 0.827288
O O10 0.000000 0.000000 0.779748
O O11 0.500000 0.500000 0.620826
O O12 0.582809 0.764089 0.581871
O O13 0.583322 0.684520 0.716190
O O14 0.000000 0.000000 0.530257
O O15 0.750000 0.713665 0.749380
#
# Coordination Sequence:
#
# PCOD9365409 Si02
#       6
#     8   8   8   8   8   8
#     4  11  23  42  67  95 130 174 218 271 337 396
#     4  11  21  39  65  91 125 171 215 265 326 387
#     4  12  21  39  68  97 131 168 221 275 326 388
#     4  11  22  40  65  96 131 165 222 271 321 392
#     4   9  21  41  62  90 126 168 210 261 326 390
#     4  12  25  41  65  98 135 176 222 275 328 390
#
# _framework density 20.356736000000001
#
# number of rings (size 3 to 8) (size 9 to 14) (size 15 to 20)
#    0.000    1.000    5.000    2.500    0.000    4.667 
#    3.000    0.000    0.000    0.000    0.000    0.000 
#    0.000    0.000    0.000    0.000    0.000    0.000 
#
# Total GULP energy -133716.346436 kJ/mol
# GULP energy per Si atom -5571.514435 kJ/mol
# Density = 2.031040 g / cm^3
# Si number density = 20.356736 Si / 1000 Ang^3
#
#
#
# Elastic Constant Matrix: (Units=GPa)
#
#
# Indices 1 2 3 4 5 6 
#
# 1 113.9299 -12.4877 21.9815 0.0000 0.0000 0.0000
# 2 -12.4877 43.3916 24.9105 0.0000 0.0000 0.0000
# 3 21.9815 24.9105 125.1695 0.0000 0.0000 0.0000
# 4 0.0000 0.0000 0.0000 19.5630 0.0000 0.0000
# 5 0.0000 0.0000 0.0000 0.0000 -5.4441 0.0000
# 6 0.0000 0.0000 0.0000 0.0000 0.0000 -3.5065
#
#
#
# Elastic Compliance Matrix: (Units=1/GPa)
#
#
# Indices 1 2 3 4 5 6 
#
# 1 0.009740 0.004273 -0.002561 0.000000 0.000000 0.000000
# 2 0.004273 0.027893 -0.006302 0.000000 0.000000 0.000000
# 3 -0.002561 -0.006302 0.009693 0.000000 0.000000 0.000000
# 4 0.000000 0.000000 0.000000 0.051117 0.000000 0.000000
# 5 0.000000 0.000000 0.000000 0.000000 -0.183684 0.000000
# 6 0.000000 0.000000 0.000000 0.000000 0.000000 -0.285185
#
#
# Mechanical properties :
#
#
# Convention : Reuss Voigt Hill
#
# Bulk Modulus (GPa) = 26.21399 39.03329 32.62364
# Shear Modulus (GPa) = -14.34588 18.66159 2.15786
#
# Velocity S-wave (km/s) = -2.65754 3.03104 1.03069
# Velocity P-wave (km/s) = 1.86776 5.60944 4.18057
#
# Compressibility (1/GPa) = 0.03814757
#
# Stress axis : x y z
#
# Youngs Moduli (GPa) = 102.67153 35.85083 103.16719
#
# Poissons Ratio (x) = -0.15320 0.26420
# Poissons Ratio (y) = -0.43873 0.65012
# Poissons Ratio (z) = 0.26293 0.22592
#
# Static dielectric constant tensor:
#      x y z
#    x 1.804200 0.000000 0.000000 
#    y 0.000000 1.848010 0.000000 
#    z 0.000000 0.000000 1.718040 
# 
# From -- ./inp_files/20548.got.cif
#   From: 2010.05.17/outbox.cif.g08.bks.cpg/sg40_11_cif.got.tgz:20548.got - 2010.06.03 18:35:42.
