data_PCOD9365946
_publ_section_title
;
Structure prediction by ZEFSAII (Michael W. Deem and Ramdas Pophale) SiO2 
 PCOD9365946
Probable space group: A B A 2
;
_chemical_formula_sum "Si O2"
_cell_formula_units_Z 60
_cell_length_a 33.720862
_cell_length_b 5.254252
_cell_length_c 14.024099
_cell_angle_alpha 90.000000
_cell_angle_beta 90.000000
_cell_angle_gamma 90.000000
_cell_volume 2484.760503
_symmetry_space_group_name_H-M "A B A 2"
_symmetry_group_IT_number 41
_symmetry_cell_setting 'orthorhombic'
loop_
_space_group_symop_operation_xyz
x,y,z
-x,-y,z
1/2-x,y,1/2+z
1/2+x,-y,1/2+z
x,1/2+y,1/2+z
-x,1/2-y,1/2+z
1/2-x,1/2+y,z
1/2+x,1/2-y,z
loop_
_atom_site_type_symbol
_atom_site_label
_atom_site_fract_x
_atom_site_fract_y
_atom_site_fract_z
Si Si1 0.641831 0.045425 0.320960
Si Si2 0.363455 0.951953 0.088695
Si Si3 0.773500 0.157195 0.580114
Si Si4 0.911047 0.542463 0.598429
Si Si5 0.898643 0.550860 0.825725
Si Si6 0.272236 0.287849 0.811997
Si Si7 0.516176 0.245755 0.845037
Si Si8 0.000000 0.500000 0.528516
O O1 0.639496 0.046529 0.204917
O O2 0.610125 0.259994 0.353565
O O3 0.684722 0.143183 0.350283
O O4 0.635654 0.752600 0.348492
O O5 0.318267 0.922566 0.053422
O O6 0.388587 0.705299 0.059966
O O7 0.388547 0.203297 0.063343
O O8 0.756803 0.432944 0.550964
O O9 0.774257 0.185253 0.696254
O O10 0.904202 0.542198 0.711847
O O11 0.958003 0.517706 0.580442
O O12 0.937847 0.697518 0.858885
O O13 0.241015 0.505938 0.838718
O O14 0.500000 0.500000 0.794906
O O15 0.500000 0.000000 0.793102
O O16 0.498386 0.272089 0.950811
#
# Coordination Sequence:
#
# PCOD9365946 Si02
#       8
#     8   8   8   8   8   8   8   4
#     4   9  17  29  47  72 106 138 178 214 259 314
#     4   9  18  31  46  75 108 140 175 222 264 314
#     4   9  15  24  42  66 101 142 174 201 256 321
#     4  10  21  34  55  76 109 141 181 222 273 320
#     4  10  19  35  53  78 102 142 176 222 265 321
#     4   9  15  23  38  65 101 142 169 202 253 312
#     4  10  23  39  57  77 106 137 171 233 268 322
#     4  10  26  40  58  80 108 144 182 234 274 334
#
# _framework density 24.147196000000001
#
# number of rings (size 3 to 8) (size 9 to 14) (size 15 to 20)
#    0.400    2.133    0.000    2.400    2.800    6.400 
#    0.000    0.000    0.000    0.000    0.000    0.000 
#    0.000   21.333    0.000    0.000    0.000    0.000 
#
# Total GULP energy -167540.268932 kJ/mol
# GULP energy per Si atom -5584.675631 kJ/mol
# Density = 2.409224 g / cm^3
# Si number density = 24.147196 Si / 1000 Ang^3
#
#
#
# Elastic Constant Matrix: (Units=GPa)
#
#
# Indices 1 2 3 4 5 6 
#
# 1 110.3470 27.1102 -0.1054 0.0000 0.0000 0.0000
# 2 27.1102 153.3182 -9.6192 0.0000 0.0000 0.0000
# 3 -0.1054 -9.6192 79.8580 0.0000 0.0000 0.0000
# 4 0.0000 0.0000 0.0000 -74.0475 0.0000 0.0000
# 5 0.0000 0.0000 0.0000 0.0000 5.3976 0.0000
# 6 0.0000 0.0000 0.0000 0.0000 0.0000 32.9194
#
#
#
# Elastic Compliance Matrix: (Units=1/GPa)
#
#
# Indices 1 2 3 4 5 6 
#
# 1 0.009477 -0.001688 -0.000191 0.000000 0.000000 0.000000
# 2 -0.001688 0.006873 0.000826 0.000000 0.000000 0.000000
# 3 -0.000191 0.000826 0.012621 0.000000 0.000000 0.000000
# 4 0.000000 0.000000 0.000000 -0.013505 0.000000 0.000000
# 5 0.000000 0.000000 0.000000 0.000000 0.185266 0.000000
# 6 0.000000 0.000000 0.000000 0.000000 0.000000 0.030377
#
#
# Mechanical properties :
#
#
# Convention : Reuss Voigt Hill
#
# Bulk Modulus (GPa) = 37.22305 42.03272 39.62788
# Shear Modulus (GPa) = 20.64666 14.59642 17.62154
#
# Velocity S-wave (km/s) = 2.92727 2.46128 2.70433
# Velocity P-wave (km/s) = 5.18399 5.05192 5.11838
#
# Compressibility (1/GPa) = 0.02686508
#
# Stress axis : x y z
#
# Youngs Moduli (GPa) = 105.52116 145.50529 79.23037
#
# Poissons Ratio (x) = 0.24557 0.01512
# Poissons Ratio (y) = 0.17809 -0.06541
# Poissons Ratio (z) = 0.02013 -0.12013
#
# Static dielectric constant tensor:
#      x y z
#    x 2.160110 0.000000 0.000000 
#    y 0.000000 1.949560 0.000000 
#    z 0.000000 0.000000 1.966620 
# 
# From -- ./inp_files/10827.got.cif
#   From: 2010.05.17/outbox.cif.g08.bks.cpg/sg41_6_cif.got.tgz:10827.got - 2010.06.03 18:54:24.
