data_PCOD9365748
_publ_section_title
;
Structure prediction by ZEFSAII (Michael W. Deem and Ramdas Pophale) SiO2 
 PCOD9365748
Probable space group: A B A 2
;
_chemical_formula_sum "Si O2"
_cell_formula_units_Z 52
_cell_length_a 14.521021
_cell_length_b 17.813955
_cell_length_c 8.093933
_cell_angle_alpha 90.000000
_cell_angle_beta 90.000000
_cell_angle_gamma 90.000000
_cell_volume 2093.712806
_symmetry_space_group_name_H-M "A B A 2"
_symmetry_group_IT_number 41
_symmetry_cell_setting 'orthorhombic'
loop_
_space_group_symop_operation_xyz
x,y,z
-x,-y,z
1/2-x,y,1/2+z
1/2+x,-y,1/2+z
x,1/2+y,1/2+z
-x,1/2-y,1/2+z
1/2-x,1/2+y,z
1/2+x,1/2-y,z
loop_
_atom_site_type_symbol
_atom_site_label
_atom_site_fract_x
_atom_site_fract_y
_atom_site_fract_z
Si Si1 0.678920 0.850354 0.141590
Si Si2 0.350654 0.370946 0.891335
Si Si3 0.837499 0.095026 0.282853
Si Si4 0.138138 0.695773 0.798146
Si Si5 0.054188 0.606850 0.413735
Si Si6 0.000000 0.500000 0.703119
Si Si7 0.570269 0.233097 0.836905
O O1 0.785795 0.832288 0.167956
O O2 0.633322 0.905578 0.277181
O O3 0.619885 0.775094 0.185506
O O4 0.660073 0.860337 0.950906
O O5 0.267929 0.420266 0.818906
O O6 0.337854 0.283895 0.837311
O O7 0.451831 0.398196 0.835594
O O8 0.348487 0.381504 0.089981
O O9 0.918098 0.035654 0.307532
O O10 0.864414 0.166905 0.394989
O O11 0.027740 0.698817 0.793604
O O12 0.051280 0.556838 0.575905
O O13 0.059654 0.696016 0.456503
#
# Coordination Sequence:
#
# PCOD9365748 Si02
#       7
#     8   8   8   8   8   4   8
#     4  10  21  34  56  89 128 160 207 265 316 368
#     4  10  17  34  60  88 122 158 213 250 313 375
#     4  11  21  38  62  93 121 166 211 267 309 379
#     4  11  19  34  57  94 123 163 210 271 318 370
#     4   8  19  37  56  85 121 166 201 251 313 379
#     4  10  22  40  64  84 134 170 212 256 334 378
#     4   9  20  34  59  89 126 160 213 258 314 367
#
# _framework density 24.836262999999999
#
# number of rings (size 3 to 8) (size 9 to 14) (size 15 to 20)
#    0.923    1.231    3.077    0.000    0.000    4.923 
#    0.000    6.154    0.000    4.615    0.000    0.000 
#    0.000    0.000    0.000    0.000    0.000    0.000 
#
# Total GULP energy -145115.810646 kJ/mol
# GULP energy per Si atom -5581.377333 kJ/mol
# Density = 2.477973 g / cm^3
# Si number density = 24.836263 Si / 1000 Ang^3
#
#
#
# Elastic Constant Matrix: (Units=GPa)
#
#
# Indices 1 2 3 4 5 6 
#
# 1 194.8014 19.9929 6.9387 0.0000 0.0000 0.0000
# 2 19.9929 62.5739 -0.9238 0.0000 0.0000 0.0000
# 3 6.9387 -0.9238 22.3586 0.0000 0.0000 0.0000
# 4 0.0000 0.0000 0.0000 18.6886 0.0000 0.0000
# 5 0.0000 0.0000 0.0000 0.0000 29.9447 0.0000
# 6 0.0000 0.0000 0.0000 0.0000 0.0000 27.6638
#
#
#
# Elastic Compliance Matrix: (Units=1/GPa)
#
#
# Indices 1 2 3 4 5 6 
#
# 1 0.005374 -0.001743 -0.001740 0.000000 0.000000 0.000000
# 2 -0.001743 0.016556 0.001225 0.000000 0.000000 0.000000
# 3 -0.001740 0.001225 0.045316 0.000000 0.000000 0.000000
# 4 0.000000 0.000000 0.000000 0.053508 0.000000 0.000000
# 5 0.000000 0.000000 0.000000 0.000000 0.033395 0.000000
# 6 0.000000 0.000000 0.000000 0.000000 0.000000 0.036148
#
#
# Mechanical properties :
#
#
# Convention : Reuss Voigt Hill
#
# Bulk Modulus (GPa) = 15.94115 36.86108 26.40111
# Shear Modulus (GPa) = 23.17779 32.17450 27.67614
#
# Velocity S-wave (km/s) = 3.05819 3.60316 3.34180
# Velocity P-wave (km/s) = 4.34769 5.67311 5.05404
#
# Compressibility (1/GPa) = 0.06273074
#
# Stress axis : x y z
#
# Youngs Moduli (GPa) = 186.07164 60.40093 22.06726
#
# Poissons Ratio (x) = 0.10527 0.03839
# Poissons Ratio (y) = 0.32429 -0.02703
# Poissons Ratio (z) = 0.32374 -0.07398
#
# Static dielectric constant tensor:
#      x y z
#    x 1.942710 0.000000 0.000000 
#    y 0.000000 2.044730 0.000000 
#    z 0.000000 0.000000 2.048570 
# 
# From -- ./inp_files/2640.got.cif
#   From: 2010.05.17/outbox.cif.g08.bks.cpg/sg41_2_cif.got.tgz:2640.got - 2010.06.03 18:54:24.
