data_PCOD9365632
_publ_section_title
;
Structure prediction by ZEFSAII (Michael W. Deem and Ramdas Pophale) SiO2 
 PCOD9365632
Probable space group: A M A 2
;
_chemical_formula_sum "Si O2"
_cell_formula_units_Z 28
_cell_length_a 21.000000
_cell_length_b 12.000000
_cell_length_c 12.000000
_cell_angle_alpha 90.000000
_cell_angle_beta 90.000000
_cell_angle_gamma 90.000000
_cell_volume 3024.000000
_symmetry_space_group_name_H-M "A M A 2"
_symmetry_group_IT_number 40
_symmetry_cell_setting 'orthorhombic'
loop_
_space_group_symop_operation_xyz
x,y,z
-x,-y,z
1/2-x,y,z
1/2+x,-y,z
x,1/2+y,1/2+z
-x,1/2-y,1/2+z
1/2-x,1/2+y,1/2+z
1/2+x,1/2-y,1/2+z
loop_
_atom_site_type_symbol
_atom_site_label
_atom_site_fract_x
_atom_site_fract_y
_atom_site_fract_z
Si Si1 0.619812 0.824333 0.304830
Si Si2 0.014335 0.116315 0.125015
Si Si3 0.673829 0.100438 0.686139
Si Si4 0.477523 0.178765 0.491571
Si Si5 0.175100 0.451796 0.922610
Si Si6 0.562986 0.429745 0.225229
Si Si7 0.425260 0.316160 0.815086
O O1 0.573730 0.876251 0.209544
O O2 0.656281 0.721598 0.242353
O O3 0.575633 0.777572 0.405256
O O4 0.653248 0.928205 0.370112
O O5 0.016680 0.220252 0.044676
O O6 0.951946 0.135626 0.200664
O O7 0.000000 0.000000 0.066858
O O8 0.750000 0.081554 0.703319
O O9 0.661232 0.082931 0.552309
O O10 0.625220 0.007754 0.735706
O O11 0.448900 0.109313 0.595027
O O12 0.529970 0.126031 0.409628
O O13 0.250000 0.451643 0.914084
O O14 0.143971 0.356982 0.846091
O O15 0.500000 0.500000 0.254583
O O16 0.568145 0.316689 0.297769
#
# Coordination Sequence:
#
# PCOD9365632 Si02
#       7
#     8   8   8   8   8   8   8
#     4  11  21  39  60  90 125 160 207 260 322 382
#     4  10  19  33  56  87 121 149 195 252 308 375
#     4  11  24  41  62  90 122 163 216 266 314 388
#     4  10  21  33  59  90 120 157 198 252 321 374
#     4  11  22  39  63  85 115 167 213 259 315 380
#     4  11  21  38  62  91 125 159 208 259 321 378
#     4  10  21  36  55  87 119 156 197 257 311 377
#
# _framework density 9.2592590000000001
#
# number of rings (size 3 to 8) (size 9 to 14) (size 15 to 20)
#    0.000    1.429    2.857    4.714    0.000    2.286 
#    0.000    0.000    0.000    0.000    0.000    0.000 
#    0.000    0.000    0.000    0.000    0.000    0.000 
#
# Total GULP energy -155918.876546 kJ/mol
# GULP energy per Si atom -5568.531305 kJ/mol
# Density = 0.923818 g / cm^3
# Si number density = 9.259259 Si / 1000 Ang^3
#
#
#
# Elastic Constant Matrix: (Units=GPa)
#
#
# Indices 1 2 3 4 5 6 
#
# 1 83.8559 44.6278 25.6834 0.0000 0.0000 0.0000
# 2 44.6278 116.3636 24.6462 0.0000 0.0000 0.0000
# 3 25.6834 24.6462 66.0746 0.0000 0.0000 0.0000
# 4 0.0000 0.0000 0.0000 27.1001 0.0000 0.0000
# 5 0.0000 0.0000 0.0000 0.0000 23.7111 0.0000
# 6 0.0000 0.0000 0.0000 0.0000 0.0000 33.8244
#
#
#
# Elastic Compliance Matrix: (Units=1/GPa)
#
#
# Indices 1 2 3 4 5 6 
#
# 1 0.016023 -0.005240 -0.004274 0.000000 0.000000 0.000000
# 2 -0.005240 0.011045 -0.002083 0.000000 0.000000 0.000000
# 3 -0.004274 -0.002083 0.017573 0.000000 0.000000 0.000000
# 4 0.000000 0.000000 0.000000 0.036900 0.000000 0.000000
# 5 0.000000 0.000000 0.000000 0.000000 0.042174 0.000000
# 6 0.000000 0.000000 0.000000 0.000000 0.000000 0.029564
#
#
# Mechanical properties :
#
#
# Convention : Reuss Voigt Hill
#
# Bulk Modulus (GPa) = 46.62654 50.68989 48.65822
# Shear Modulus (GPa) = 27.23007 28.34959 27.78983
#
# Velocity S-wave (km/s) = 3.83877 3.91689 3.87803
# Velocity P-wave (km/s) = 6.69934 6.92011 6.81062
#
# Compressibility (1/GPa) = 0.02144701
#
# Stress axis : x y z
#
# Youngs Moduli (GPa) = 62.41106 90.54261 56.90710
#
# Poissons Ratio (x) = 0.47443 0.24320
# Poissons Ratio (y) = 0.32703 0.11853
# Poissons Ratio (z) = 0.26672 0.18859
#
# Static dielectric constant tensor:
#      x y z
#    x 1.658030 0.000000 0.000000 
#    y 0.000000 1.687420 0.000000 
#    z 0.000000 0.000000 1.651360 
# 
# From -- ./inp_files/13542.got.cif
#   From: 2010.05.17/outbox.ucp.g08.bks.cvg/sg40_7_cif.got.tgz:13542.got - 2010.06.11 16:26:39.
