data_PCOD9365545
_publ_section_title
;
Structure prediction by ZEFSAII (Michael W. Deem and Ramdas Pophale) SiO2 
 PCOD9365545
Probable space group: A M A 2
;
_chemical_formula_sum "Si O2"
_cell_formula_units_Z 40
_cell_length_a 20.064029
_cell_length_b 11.999314
_cell_length_c 7.305269
_cell_angle_alpha 90.000000
_cell_angle_beta 90.000000
_cell_angle_gamma 90.000000
_cell_volume 1758.777000
_symmetry_space_group_name_H-M "A M A 2"
_symmetry_group_IT_number 40
_symmetry_cell_setting 'orthorhombic'
loop_
_space_group_symop_operation_xyz
x,y,z
-x,-y,z
1/2-x,y,z
1/2+x,-y,z
x,1/2+y,1/2+z
-x,1/2-y,1/2+z
1/2-x,1/2+y,1/2+z
1/2+x,1/2-y,1/2+z
loop_
_atom_site_type_symbol
_atom_site_label
_atom_site_fract_x
_atom_site_fract_y
_atom_site_fract_z
Si Si1 0.425236 0.476771 0.952560
Si Si2 0.322605 0.820882 0.248870
Si Si3 0.566899 0.565150 0.374057
Si Si4 0.126014 0.214797 0.407720
Si Si5 0.327565 0.614643 0.520142
O O1 0.500000 0.500000 0.882234
O O2 0.380382 0.404106 0.816160
O O3 0.393465 0.596898 0.988345
O O4 0.427415 0.425542 0.154087
O O5 0.250000 0.869332 0.295949
O O6 0.331596 0.708080 0.364133
O O7 0.323400 0.780190 0.039076
O O8 0.500000 0.500000 0.420345
O O9 0.566209 0.695621 0.424236
O O10 0.626344 0.489335 0.458831
O O11 0.149685 0.179145 0.205436
O O12 0.250000 0.580664 0.539718
#
# Coordination Sequence:
#
# PCOD9365545 Si02
#       5
#     8   8   8   8   8
#     4  11  26  45  72 105 141 187 239 291 349 422
#     4  11  25  46  72 105 143 184 234 292 352 417
#     4  11  26  45  72 105 141 187 239 291 349 422
#     4  12  25  44  74 102 137 190 234 290 353 418
#     4  11  25  46  72 105 143 184 234 292 352 417
#
# _framework density 22.743074
#
# number of rings (size 3 to 8) (size 9 to 14) (size 15 to 20)
#    0.000    0.800    4.000    1.800    2.800    8.800 
#    0.000    0.000    0.000    0.000    0.000    0.000 
#    0.000    0.000    0.000    0.000    0.000    0.000 
#
# Total GULP energy -111684.010961 kJ/mol
# GULP energy per Si atom -5584.200548 kJ/mol
# Density = 2.269131 g / cm^3
# Si number density = 22.743074 Si / 1000 Ang^3
#
#
#
# Elastic Constant Matrix: (Units=GPa)
#
#
# Indices 1 2 3 4 5 6 
#
# 1 105.4202 12.6173 1.0117 0.0000 0.0000 0.0000
# 2 12.6173 96.9819 -5.0157 0.0000 0.0000 0.0000
# 3 1.0117 -5.0157 86.5569 0.0000 0.0000 0.0000
# 4 0.0000 0.0000 0.0000 26.9404 0.0000 0.0000
# 5 0.0000 0.0000 0.0000 0.0000 37.7601 0.0000
# 6 0.0000 0.0000 0.0000 0.0000 0.0000 27.3288
#
#
#
# Elastic Compliance Matrix: (Units=1/GPa)
#
#
# Indices 1 2 3 4 5 6 
#
# 1 0.009639 -0.001264 -0.000186 0.000000 0.000000 0.000000
# 2 -0.001264 0.010508 0.000624 0.000000 0.000000 0.000000
# 3 -0.000186 0.000624 0.011591 0.000000 0.000000 0.000000
# 4 0.000000 0.000000 0.000000 0.037119 0.000000 0.000000
# 5 0.000000 0.000000 0.000000 0.000000 0.026483 0.000000
# 6 0.000000 0.000000 0.000000 0.000000 0.000000 0.036591
#
#
# Mechanical properties :
#
#
# Convention : Reuss Voigt Hill
#
# Bulk Modulus (GPa) = 33.23755 34.02061 33.62908
# Shear Modulus (GPa) = 34.81604 37.09558 35.95581
#
# Velocity S-wave (km/s) = 3.91684 4.04303 3.98044
# Velocity P-wave (km/s) = 5.92466 6.06514 5.99531
#
# Compressibility (1/GPa) = 0.03008645
#
# Stress axis : x y z
#
# Youngs Moduli (GPa) = 103.74657 95.16688 86.27081
#
# Poissons Ratio (x) = 0.12026 0.01604
# Poissons Ratio (y) = 0.13110 -0.05380
# Poissons Ratio (z) = 0.01928 -0.05935
#
# Static dielectric constant tensor:
#      x y z
#    x 1.894890 0.000000 0.000000 
#    y 0.000000 1.824350 0.000000 
#    z 0.000000 0.000000 1.900410 
# 
# From -- ./inp_files/8096.got.cif
#   From: 2010.05.17/outbox.cif.g08.bks.cpg/sg40_5_cif.got.tgz:8096.got - 2010.06.03 18:35:42.
