data_PCOD9365424
_publ_section_title
;
Structure prediction by ZEFSAII (Michael W. Deem and Ramdas Pophale) SiO2 
 PCOD9365424
Probable space group: A M A 2
;
_chemical_formula_sum "Si O2"
_cell_formula_units_Z 60
_cell_length_a 16.776140
_cell_length_b 18.952372
_cell_length_c 6.680334
_cell_angle_alpha 90.000000
_cell_angle_beta 90.000000
_cell_angle_gamma 90.000000
_cell_volume 2123.996470
_symmetry_space_group_name_H-M "A M A 2"
_symmetry_group_IT_number 40
_symmetry_cell_setting 'orthorhombic'
loop_
_space_group_symop_operation_xyz
x,y,z
-x,-y,z
1/2-x,y,z
1/2+x,-y,z
x,1/2+y,1/2+z
-x,1/2-y,1/2+z
1/2-x,1/2+y,1/2+z
1/2+x,1/2-y,1/2+z
loop_
_atom_site_type_symbol
_atom_site_label
_atom_site_fract_x
_atom_site_fract_y
_atom_site_fract_z
Si Si1 0.917425 0.998610 0.851010
Si Si2 0.065835 0.271162 0.506789
Si Si3 0.153520 0.352578 0.255537
Si Si4 0.250000 0.164263 0.818187
Si Si5 0.894679 0.254672 0.506899
Si Si6 0.401460 0.618587 0.045492
Si Si7 0.840812 0.484302 0.733156
Si Si8 0.153487 0.351942 0.759837
O O1 0.936691 0.939632 0.690189
O O2 0.886075 0.069339 0.749225
O O3 0.846621 0.973996 0.995603
O O4 0.000000 0.000000 0.974616
O O5 0.103451 0.269401 0.262615
O O6 0.045441 0.186754 0.514119
O O7 0.976238 0.300891 0.502513
O O8 0.096487 0.275527 0.753912
O O9 0.250000 0.352797 0.271947
O O10 0.130341 0.341917 0.506991
O O11 0.144889 0.331382 0.008958
O O12 0.319806 0.145148 0.649008
O O13 0.180588 0.194251 0.973072
O O14 0.386349 0.577188 0.842684
O O15 0.750000 0.481557 0.803166
O O16 0.867809 0.564614 0.770922
O O17 0.250000 0.339475 0.741021
#
# Coordination Sequence:
#
# PCOD9365424 Si02
#       8
#     8   8   8   4   8   8   8   8
#     4  12  29  50  81 116 166 209 268 342 415 487
#     4  12  26  45  77 110 158 198 267 336 400 475
#     4  12  26  48  76 116 155 211 276 334 399 503
#     4  12  26  46  76 110 162 202 256 334 408 464
#     4  12  24  45  76 115 151 209 269 329 409 483
#     4  12  28  51  79 118 158 209 264 336 411 482
#     4  11  26  48  79 114 155 212 268 326 406 493
#     4  11  21  45  75 104 152 208 261 321 399 475
#
# _framework density 28.248633999999999
#
# number of rings (size 3 to 8) (size 9 to 14) (size 15 to 20)
#    0.000    0.267    4.667    3.200    4.667    3.733 
#    0.000    0.000    0.000    0.000    0.000    0.000 
#    0.000    0.000    0.000    0.000    0.000    0.000 
#
# Total GULP energy -167448.198804 kJ/mol
# GULP energy per Si atom -5581.606627 kJ/mol
# Density = 2.818434 g / cm^3
# Si number density = 28.248634 Si / 1000 Ang^3
#
#
#
# Elastic Constant Matrix: (Units=GPa)
#
#
# Indices 1 2 3 4 5 6 
#
# 1 183.3530 52.2043 22.6239 0.0000 0.0000 0.0000
# 2 52.2043 151.0827 63.3704 0.0000 0.0000 0.0000
# 3 22.6239 63.3704 199.7321 0.0000 0.0000 0.0000
# 4 0.0000 0.0000 0.0000 73.8506 0.0000 0.0000
# 5 0.0000 0.0000 0.0000 0.0000 61.1932 0.0000
# 6 0.0000 0.0000 0.0000 0.0000 0.0000 38.4073
#
#
#
# Elastic Compliance Matrix: (Units=1/GPa)
#
#
# Indices 1 2 3 4 5 6 
#
# 1 0.006049 -0.002080 -0.000025 0.000000 0.000000 0.000000
# 2 -0.002080 0.008350 -0.002414 0.000000 0.000000 0.000000
# 3 -0.000025 -0.002414 0.005775 0.000000 0.000000 0.000000
# 4 0.000000 0.000000 0.000000 0.013541 0.000000 0.000000
# 5 0.000000 0.000000 0.000000 0.000000 0.016342 0.000000
# 6 0.000000 0.000000 0.000000 0.000000 0.000000 0.026037
#
#
# Mechanical properties :
#
#
# Convention : Reuss Voigt Hill
#
# Bulk Modulus (GPa) = 89.78934 90.06279 89.92606
# Shear Modulus (GPa) = 56.27889 61.08817 58.68353
#
# Velocity S-wave (km/s) = 4.46833 4.65533 4.56279
# Velocity P-wave (km/s) = 7.64694 7.80048 7.72409
#
# Compressibility (1/GPa) = 0.01113718
#
# Stress axis : x y z
#
# Youngs Moduli (GPa) = 165.31152 119.76284 173.14871
#
# Poissons Ratio (x) = 0.24905 0.00440
# Poissons Ratio (y) = 0.34377 0.41792
# Poissons Ratio (z) = 0.00420 0.28907
#
# Static dielectric constant tensor:
#      x y z
#    x 2.005750 0.000000 0.000000 
#    y 0.000000 2.094920 0.000000 
#    z 0.000000 0.000000 2.350520 
# 
# From -- ./inp_files/1988.got.cif
#   From: 2010.05.17/outbox.cif.g08.bks.cpg/sg40_1_cif.got.tgz:1988.got - 2010.06.03 18:35:42.
