data_PCOD9365009
_publ_section_title
;
Structure prediction by ZEFSAII (Michael W. Deem and Ramdas Pophale) SiO2 
 PCOD9365009
Probable space group: A M A 2
;
_chemical_formula_sum "Si O2"
_cell_formula_units_Z 48
_cell_length_a 29.529435
_cell_length_b 13.556181
_cell_length_c 4.969907
_cell_angle_alpha 90.000000
_cell_angle_beta 90.000000
_cell_angle_gamma 90.000000
_cell_volume 1989.485409
_symmetry_space_group_name_H-M "A M A 2"
_symmetry_group_IT_number 40
_symmetry_cell_setting 'orthorhombic'
loop_
_space_group_symop_operation_xyz
x,y,z
-x,-y,z
1/2-x,y,z
1/2+x,-y,z
x,1/2+y,1/2+z
-x,1/2-y,1/2+z
1/2-x,1/2+y,1/2+z
1/2+x,1/2-y,1/2+z
loop_
_atom_site_type_symbol
_atom_site_label
_atom_site_fract_x
_atom_site_fract_y
_atom_site_fract_z
Si Si1 0.395582 0.242071 0.769170
Si Si2 0.101902 0.030541 0.485441
Si Si3 0.200836 0.692444 0.344185
Si Si4 0.981512 0.299416 0.595211
Si Si5 0.059610 0.432918 0.500961
Si Si6 0.799674 0.446320 0.842472
O O1 0.344324 0.255444 0.869456
O O2 0.430283 0.219294 0.010611
O O3 0.413339 0.336729 0.610679
O O4 0.396444 0.142582 0.590433
O O5 0.071963 0.015220 0.221161
O O6 0.153768 0.000363 0.419202
O O7 0.079148 0.965630 0.716959
O O8 0.250000 0.738315 0.402502
O O9 0.195655 0.599181 0.545075
O O10 0.202156 0.646798 0.045842
O O11 0.992791 0.282852 0.906940
O O12 0.007823 0.396441 0.494986
O O13 0.750000 0.495959 0.863847
#
# Coordination Sequence:
#
# PCOD9365009 Si02
#       6
#     8   8   8   8   8   8
#     4  10  23  43  65  87 126 165 196 252 313 355
#     4  11  23  40  64  92 119 162 205 248 309 359
#     4   9  18  34  60  89 115 154 202 244 297 362
#     4  10  22  41  64  89 123 166 202 248 310 359
#     4  11  24  41  61  92 126 155 209 256 291 369
#     4   9  18  35  58  86 121 157 198 248 302 362
#
# _framework density 24.126839
#
# number of rings (size 3 to 8) (size 9 to 14) (size 15 to 20)
#    0.000    2.000    0.000    4.000    0.000   12.667 
#    0.000    8.333    0.000    0.000    0.000    1.167 
#    0.000    0.000    0.000    0.000    0.000    0.000 
#
# Total GULP energy -134254.871735 kJ/mol
# GULP energy per Si atom -5593.952989 kJ/mol
# Density = 2.407193 g / cm^3
# Si number density = 24.126839 Si / 1000 Ang^3
#
#
#
# Elastic Constant Matrix: (Units=GPa)
#
#
# Indices 1 2 3 4 5 6 
#
# 1 213.4906 14.3371 38.4962 0.0000 0.0000 0.0000
# 2 14.3371 76.1566 1.2601 0.0000 0.0000 0.0000
# 3 38.4962 1.2601 71.4486 0.0000 0.0000 0.0000
# 4 0.0000 0.0000 0.0000 32.6038 0.0000 0.0000
# 5 0.0000 0.0000 0.0000 0.0000 32.7936 0.0000
# 6 0.0000 0.0000 0.0000 0.0000 0.0000 24.9809
#
#
#
# Elastic Compliance Matrix: (Units=1/GPa)
#
#
# Indices 1 2 3 4 5 6 
#
# 1 0.005255 -0.000943 -0.002815 0.000000 0.000000 0.000000
# 2 -0.000943 0.013304 0.000273 0.000000 0.000000 0.000000
# 3 -0.002815 0.000273 0.015508 0.000000 0.000000 0.000000
# 4 0.000000 0.000000 0.000000 0.030671 0.000000 0.000000
# 5 0.000000 0.000000 0.000000 0.000000 0.030494 0.000000
# 6 0.000000 0.000000 0.000000 0.000000 0.000000 0.040031
#
#
# Mechanical properties :
#
#
# Convention : Reuss Voigt Hill
#
# Bulk Modulus (GPa) = 36.90271 52.14251 44.52261
# Shear Modulus (GPa) = 33.05499 38.54248 35.79874
#
# Velocity S-wave (km/s) = 3.70543 4.00120 3.85616
# Velocity P-wave (km/s) = 5.79961 6.55781 6.19033
#
# Compressibility (1/GPa) = 0.02709828
#
# Stress axis : x y z
#
# Youngs Moduli (GPa) = 190.29879 75.16661 64.48369
#
# Poissons Ratio (x) = 0.07086 0.18150
# Poissons Ratio (y) = 0.17940 -0.01762
# Poissons Ratio (z) = 0.53563 -0.02054
#
# Static dielectric constant tensor:
#      x y z
#    x 1.994030 0.000000 0.000000 
#    y 0.000000 1.977900 0.000000 
#    z 0.000000 0.000000 1.858700 
# 
# From -- ./inp_files/3366.got.cif
#   From: 2010.05.17/outbox.cif.g08.bks.cpg/sg40_2_cif.got.tgz:3366.got - 2010.06.03 18:35:42.
