data_PCOD9365402
_publ_section_title
;
Structure prediction by ZEFSAII (Michael W. Deem and Ramdas Pophale) SiO2 
 PCOD9365402
Probable space group: A M A 2
;
_chemical_formula_sum "Si O2"
_cell_formula_units_Z 56
_cell_length_a 14.609695
_cell_length_b 21.938527
_cell_length_c 9.710162
_cell_angle_alpha 90.000000
_cell_angle_beta 90.000000
_cell_angle_gamma 90.000000
_cell_volume 3112.254401
_symmetry_space_group_name_H-M "A M A 2"
_symmetry_group_IT_number 40
_symmetry_cell_setting 'orthorhombic'
loop_
_space_group_symop_operation_xyz
x,y,z
-x,-y,z
1/2-x,y,z
1/2+x,-y,z
x,1/2+y,1/2+z
-x,1/2-y,1/2+z
1/2-x,1/2+y,1/2+z
1/2+x,1/2-y,1/2+z
loop_
_atom_site_type_symbol
_atom_site_label
_atom_site_fract_x
_atom_site_fract_y
_atom_site_fract_z
Si Si1 0.144578 0.135024 0.713570
Si Si2 0.500000 0.315188 0.997100
Si Si3 0.854711 0.500000 0.794083
Si Si4 0.855422 0.635024 0.213569
Si Si5 0.500000 0.171714 0.940597
Si Si6 0.889998 0.500000 0.118796
Si Si7 1.000000 0.101896 0.227707
O O1 0.250000 0.154488 0.716894
O O2 0.140401 0.062022 0.692004
O O3 0.087950 0.164165 0.586678
O O4 0.088042 0.153743 0.848774
O O5 0.412051 0.335835 0.086678
O O6 0.500001 0.243469 0.970938
O O7 0.500000 0.350940 0.853665
O O8 0.750000 0.500000 0.747968
O O9 0.911669 0.441524 0.744064
O O10 0.911669 0.558476 0.744066
O O11 0.857521 0.500000 0.960682
O O12 0.750000 0.654488 0.216892
O O13 0.911957 0.653743 0.348773
O O14 0.859599 0.562022 0.192003
O O15 0.500001 0.135534 0.082895
O O16 0.000000 0.500000 0.114665
#
# Coordination Sequence:
#
# PCOD9365402 Si02
#       7
#     8   8   8   8   8   8   8
#     4  11  23  41  68  94 119 160 211 257 305 362
#     4  11  22  43  65  87 120 168 210 251 296 357
#     4  11  21  36  62  93 120 152 199 256 309 358
#     4  11  23  41  68  94 119 160 211 257 305 362
#     4  11  26  42  59  88 135 166 198 247 311 367
#     4  12  18  39  68  94 119 156 206 263 309 361
#     4  11  22  39  62  91 123 157 198 248 311 369
#
# _framework density 17.993386999999998
#
# number of rings (size 3 to 8) (size 9 to 14) (size 15 to 20)
#    0.000    0.857    7.143    3.000    0.000    4.571 
#    0.000    2.857    0.000    0.000    0.000    0.000 
#    0.000    0.000    0.000    0.000    0.000    0.000 
#
# Total GULP energy -156502.863676 kJ/mol
# GULP energy per Si atom -5589.387988 kJ/mol
# Density = 1.795243 g / cm^3
# Si number density = 17.993387 Si / 1000 Ang^3
#
#
#
# Elastic Constant Matrix: (Units=GPa)
#
#
# Indices 1 2 3 4 5 6 
#
# 1 189.3550 57.6542 65.3265 0.0000 0.0000 0.0000
# 2 57.6542 171.6824 80.6335 0.0000 0.0000 0.0000
# 3 65.3265 80.6335 148.0072 0.0000 0.0000 0.0000
# 4 0.0000 0.0000 0.0000 8.9230 0.0000 0.0000
# 5 0.0000 0.0000 0.0000 0.0000 -1.1276 0.0000
# 6 0.0000 0.0000 0.0000 0.0000 0.0000 0.5151
#
#
#
# Elastic Compliance Matrix: (Units=1/GPa)
#
#
# Indices 1 2 3 4 5 6 
#
# 1 0.006381 -0.001102 -0.002216 0.000000 0.000000 0.000000
# 2 -0.001102 0.008018 -0.003882 0.000000 0.000000 0.000000
# 3 -0.002216 -0.003882 0.009849 0.000000 0.000000 0.000000
# 4 0.000000 0.000000 0.000000 0.112070 0.000000 0.000000
# 5 0.000000 0.000000 0.000000 0.000000 -0.886852 0.000000
# 6 0.000000 0.000000 0.000000 0.000000 0.000000 1.941385
#
#
# Mechanical properties :
#
#
# Convention : Reuss Voigt Hill
#
# Bulk Modulus (GPa) = 101.53669 101.80812 101.67240
# Shear Modulus (GPa) = 4.13725 22.02413 13.08069
#
# Velocity S-wave (km/s) = 1.51799 3.50238 2.69917
# Velocity P-wave (km/s) = 7.72172 8.54747 8.14507
#
# Compressibility (1/GPa) = 0.00984866
#
# Stress axis : x y z
#
# Youngs Moduli (GPa) = 156.71072 124.72083 101.53052
#
# Poissons Ratio (x) = 0.13746 0.22500
# Poissons Ratio (y) = 0.17271 0.39411
# Poissons Ratio (z) = 0.34728 0.48412
#
# Static dielectric constant tensor:
#      x y z
#    x 1.615830 0.000000 0.000000 
#    y 0.000000 1.593350 0.000000 
#    z 0.000000 0.000000 1.589280 
# 
# From -- ./inp_files/6719.got.cif
#   From: 2010.05.17/outbox.cif.g08.bks.cpg/sg40_4_cif.got.tgz:6719.got - 2010.06.03 18:35:42.
