data_PCOD9365016
_publ_section_title
;
Structure prediction by ZEFSAII (Michael W. Deem and Ramdas Pophale) SiO2 
 PCOD9365016
Probable space group: A M A 2
;
_chemical_formula_sum "Si O2"
_cell_formula_units_Z 64
_cell_length_a 27.657248
_cell_length_b 10.898058
_cell_length_c 9.234198
_cell_angle_alpha 90.000000
_cell_angle_beta 90.000000
_cell_angle_gamma 90.000000
_cell_volume 2783.282323
_symmetry_space_group_name_H-M "A M A 2"
_symmetry_group_IT_number 40
_symmetry_cell_setting 'orthorhombic'
loop_
_space_group_symop_operation_xyz
x,y,z
-x,-y,z
1/2-x,y,z
1/2+x,-y,z
x,1/2+y,1/2+z
-x,1/2-y,1/2+z
1/2-x,1/2+y,1/2+z
1/2+x,1/2-y,1/2+z
loop_
_atom_site_type_symbol
_atom_site_label
_atom_site_fract_x
_atom_site_fract_y
_atom_site_fract_z
Si Si1 0.945462 0.323069 0.052250
Si Si2 0.444388 0.524931 0.781856
Si Si3 0.805787 0.475732 0.534624
Si Si4 0.883414 0.632372 0.359035
Si Si5 0.695643 0.137657 0.316029
Si Si6 0.557718 0.222512 0.616880
Si Si7 0.805226 0.195066 0.622906
Si Si8 0.101577 0.767492 0.305190
O O1 0.927445 0.331638 0.215685
O O2 0.002038 0.288066 0.065156
O O3 0.940855 0.440965 0.951157
O O4 0.910674 0.221236 0.974521
O O5 0.500000 0.500000 0.748093
O O6 0.432618 0.647562 0.695570
O O7 0.415057 0.402918 0.752467
O O8 0.750000 0.505934 0.482812
O O9 0.851549 0.528844 0.443150
O O10 0.808625 0.531874 0.697291
O O11 0.808154 0.330475 0.554524
O O12 0.925649 0.621013 0.235137
O O13 0.841406 0.688563 0.256407
O O14 0.750000 0.183558 0.313198
O O15 0.684838 0.105433 0.484466
O O16 0.657693 0.241013 0.272442
O O17 0.588887 0.229043 0.472412
O O18 0.750000 0.173873 0.669945
#
# Coordination Sequence:
#
# PCOD9365016 Si02
#       8
#     8   8   8   8   8   8   8   8
#     4  11  23  40  63  94 128 166 218 267 317 382
#     4  11  23  42  69  91 129 169 207 267 330 380
#     4  10  22  42  68  97 129 167 211 262 325 389
#     4  11  22  39  67  95 126 170 217 263 323 383
#     4  10  22  41  66  95 129 170 214 264 321 379
#     4  11  23  41  62  96 124 168 218 261 319 385
#     4  10  22  43  67  98 134 167 212 270 322 385
#     4  12  22  44  66  88 135 170 209 271 318 384
#
# _framework density 22.994433000000001
#
# number of rings (size 3 to 8) (size 9 to 14) (size 15 to 20)
#    0.000    1.250    5.000    1.125    3.500    0.000 
#    2.250    3.125    0.000    6.750    0.000    0.000 
#    0.000    0.000    0.000    0.000    0.000    0.000 
#
# Total GULP energy -178567.162965 kJ/mol
# GULP energy per Si atom -5580.223843 kJ/mol
# Density = 2.294210 g / cm^3
# Si number density = 22.994433 Si / 1000 Ang^3
#
#
#
# Elastic Constant Matrix: (Units=GPa)
#
#
# Indices 1 2 3 4 5 6 
#
# 1 113.9640 6.6782 44.2953 0.0000 0.0000 0.0000
# 2 6.6782 70.3462 44.7580 0.0000 0.0000 0.0000
# 3 44.2953 44.7580 119.4173 0.0000 0.0000 0.0000
# 4 0.0000 0.0000 0.0000 -39.9573 0.0000 0.0000
# 5 0.0000 0.0000 0.0000 0.0000 47.5209 0.0000
# 6 0.0000 0.0000 0.0000 0.0000 0.0000 17.9626
#
#
#
# Elastic Compliance Matrix: (Units=1/GPa)
#
#
# Indices 1 2 3 4 5 6 
#
# 1 0.010450 0.001936 -0.004602 0.000000 0.000000 0.000000
# 2 0.001936 0.019025 -0.007849 0.000000 0.000000 0.000000
# 3 -0.004602 -0.007849 0.013023 0.000000 0.000000 0.000000
# 4 0.000000 0.000000 0.000000 -0.025027 0.000000 0.000000
# 5 0.000000 0.000000 0.000000 0.000000 0.021043 0.000000
# 6 0.000000 0.000000 0.000000 0.000000 0.000000 0.055671
#
#
# Mechanical properties :
#
#
# Convention : Reuss Voigt Hill
#
# Bulk Modulus (GPa) = 46.57987 55.02117 50.80052
# Shear Modulus (GPa) = 40.85919 18.97165 29.91542
#
# Velocity S-wave (km/s) = 4.21992 2.87549 3.61083
# Velocity P-wave (km/s) = 6.63661 5.91647 6.28686
#
# Compressibility (1/GPa) = 0.02146850
#
# Stress axis : x y z
#
# Youngs Moduli (GPa) = 95.69533 52.56105 76.78917
#
# Poissons Ratio (x) = -0.10175 0.35336
# Poissons Ratio (y) = -0.18525 0.60271
# Poissons Ratio (z) = 0.44036 0.41254
#
# Static dielectric constant tensor:
#      x y z
#    x 1.914530 0.000000 0.000000 
#    y 0.000000 2.223370 0.000000 
#    z 0.000000 0.000000 1.907530 
# 
# From -- ./inp_files/9421.got.cif
#   From: 2010.05.17/outbox.cif.g08.bks.cpg/sg40_5_cif.got.tgz:9421.got - 2010.06.03 18:35:42.
