data_PCOD9365138
_publ_section_title
;
Structure prediction by ZEFSAII (Michael W. Deem and Ramdas Pophale) SiO2 
 PCOD9365138
Probable space group: A M A 2
;
_chemical_formula_sum "Si O2"
_cell_formula_units_Z 48
_cell_length_a 14.621634
_cell_length_b 7.413629
_cell_length_c 17.689006
_cell_angle_alpha 90.000000
_cell_angle_beta 90.000000
_cell_angle_gamma 90.000000
_cell_volume 1917.477104
_symmetry_space_group_name_H-M "A M A 2"
_symmetry_group_IT_number 40
_symmetry_cell_setting 'orthorhombic'
loop_
_space_group_symop_operation_xyz
x,y,z
-x,-y,z
1/2-x,y,z
1/2+x,-y,z
x,1/2+y,1/2+z
-x,1/2-y,1/2+z
1/2-x,1/2+y,1/2+z
1/2+x,1/2-y,1/2+z
loop_
_atom_site_type_symbol
_atom_site_label
_atom_site_fract_x
_atom_site_fract_y
_atom_site_fract_z
Si Si1 0.648801 0.687625 0.647720
Si Si2 0.851383 0.830505 0.369913
Si Si3 0.083629 0.355271 0.959446
Si Si4 0.140991 0.987772 0.989077
Si Si5 0.150071 0.899626 0.623984
Si Si6 0.011564 0.205987 0.234623
O O1 0.750000 0.621382 0.667612
O O2 0.616287 0.563472 0.576632
O O3 0.594885 0.744950 0.724654
O O4 0.651797 0.886492 0.612840
O O5 0.750000 0.797565 0.337351
O O6 0.863512 0.696646 0.440500
O O7 0.934303 0.797272 0.312188
O O8 0.858139 0.036445 0.398064
O O9 0.000000 0.500000 0.968771
O O10 0.079697 0.139987 0.946559
O O11 0.131862 0.335296 0.040091
O O12 0.250000 0.034970 0.987723
O O13 0.250000 0.842087 0.652229
O O14 0.070727 0.824659 0.677410
O O15 0.000000 0.000000 0.207045
#
# Coordination Sequence:
#
# PCOD9365138 Si02
#       6
#     8   8   8   8   8   8
#     4  10  22  45  78 115 149 193 257 328 394 466
#     4  11  25  49  74 107 158 207 263 329 394 466
#     4  12  24  43  74 112 148 199 256 330 395 465
#     4  10  22  45  81 114 145 200 267 330 396 465
#     4  11  23  45  76 108 150 197 253 321 390 461
#     4  12  26  45  69 110 157 207 255 316 395 466
#
# _framework density 25.032895
#
# number of rings (size 3 to 8) (size 9 to 14) (size 15 to 20)
#    0.000    1.000    1.667    5.000    0.000    3.333 
#   12.000    0.000    0.000    0.000    0.000    0.000 
#    0.000    0.000    0.000    0.000    0.000    0.000 
#
# Total GULP energy -133855.976835 kJ/mol
# GULP energy per Si atom -5577.332368 kJ/mol
# Density = 2.497592 g / cm^3
# Si number density = 25.032895 Si / 1000 Ang^3
#
#
#
# Elastic Constant Matrix: (Units=GPa)
#
#
# Indices 1 2 3 4 5 6 
#
# 1 144.3365 35.7194 62.4067 0.0000 0.0000 0.0000
# 2 35.7194 120.1194 16.7819 0.0000 0.0000 0.0000
# 3 62.4067 16.7819 123.5803 0.0000 0.0000 0.0000
# 4 0.0000 0.0000 0.0000 37.9989 0.0000 0.0000
# 5 0.0000 0.0000 0.0000 0.0000 29.1214 0.0000
# 6 0.0000 0.0000 0.0000 0.0000 0.0000 32.5733
#
#
#
# Elastic Compliance Matrix: (Units=1/GPa)
#
#
# Indices 1 2 3 4 5 6 
#
# 1 0.009388 -0.002170 -0.004446 0.000000 0.000000 0.000000
# 2 -0.002170 0.008988 -0.000124 0.000000 0.000000 0.000000
# 3 -0.004446 -0.000124 0.010354 0.000000 0.000000 0.000000
# 4 0.000000 0.000000 0.000000 0.026317 0.000000 0.000000
# 5 0.000000 0.000000 0.000000 0.000000 0.034339 0.000000
# 6 0.000000 0.000000 0.000000 0.000000 0.000000 0.030700
#
#
# Mechanical properties :
#
#
# Convention : Reuss Voigt Hill
#
# Bulk Modulus (GPa) = 65.58330 68.65025 67.11677
# Shear Modulus (GPa) = 36.06220 38.14726 37.10473
#
# Velocity S-wave (km/s) = 3.79963 3.90793 3.85416
# Velocity P-wave (km/s) = 6.74576 6.91709 6.83196
#
# Compressibility (1/GPa) = 0.01524778
#
# Stress axis : x y z
#
# Youngs Moduli (GPa) = 106.52279 111.26128 96.58142
#
# Poissons Ratio (x) = 0.24148 0.42939
# Poissons Ratio (y) = 0.23120 0.01202
# Poissons Ratio (z) = 0.47359 0.01385
#
# Static dielectric constant tensor:
#      x y z
#    x 2.640470 0.000000 0.000000 
#    y 0.000000 1.841840 0.000000 
#    z 0.000000 0.000000 1.932950 
# 
# From -- ./inp_files/20579.got.cif
#   From: 2010.05.17/outbox.cif.g08.bks.cpg/sg40_11_cif.got.tgz:20579.got - 2010.06.03 18:35:42.
