data_PCOD9365662
_publ_section_title
;
Structure prediction by ZEFSAII (Michael W. Deem and Ramdas Pophale) SiO2 
 PCOD9365662
Probable space group: A M A 2
;
_chemical_formula_sum "Si O2"
_cell_formula_units_Z 32
_cell_length_a 18.000000
_cell_length_b 15.000000
_cell_length_c 12.000000
_cell_angle_alpha 90.000000
_cell_angle_beta 90.000000
_cell_angle_gamma 90.000000
_cell_volume 3240.000000
_symmetry_space_group_name_H-M "A M A 2"
_symmetry_group_IT_number 40
_symmetry_cell_setting 'orthorhombic'
loop_
_space_group_symop_operation_xyz
x,y,z
-x,-y,z
1/2-x,y,z
1/2+x,-y,z
x,1/2+y,1/2+z
-x,1/2-y,1/2+z
1/2-x,1/2+y,1/2+z
1/2+x,1/2-y,1/2+z
loop_
_atom_site_type_symbol
_atom_site_label
_atom_site_fract_x
_atom_site_fract_y
_atom_site_fract_z
Si Si1 0.048097 0.240598 0.471500
Si Si2 0.065053 0.573437 0.807426
Si Si3 0.663531 0.853146 0.114633
Si Si4 0.834982 0.516660 0.989973
Si Si5 0.911165 0.175271 0.610995
Si Si6 0.661980 0.914696 0.864714
Si Si7 0.336107 0.657449 0.137611
Si Si8 0.561970 0.576735 0.340519
O O1 0.043747 0.165652 0.372546
O O2 0.117585 0.216630 0.551520
O O3 0.053451 0.340045 0.423505
O O4 0.977717 0.226440 0.550859
O O5 0.104791 0.596225 0.691883
O O6 0.000000 0.500000 0.797286
O O7 0.126905 0.528695 0.885363
O O8 0.750000 0.876872 0.136159
O O9 0.650590 0.748717 0.139367
O O10 0.646707 0.873839 0.985493
O O11 0.750000 0.538758 0.968182
O O12 0.879035 0.603115 0.026521
O O13 0.838240 0.442851 0.087829
O O14 0.937822 0.121129 0.718723
O O15 0.750000 0.913902 0.848364
O O16 0.631706 0.854095 0.762507
O O17 0.634900 0.016412 0.857611
O O18 0.250000 0.686680 0.140277
O O19 0.500000 0.500000 0.351981
#
# Coordination Sequence:
#
# PCOD9365662 Si02
#       8
#     8   8   8   8   8   8   8   8
#     4  11  24  41  63 100 132 171 226 281 341 400
#     4  11  22  42  66  96 137 177 215 277 335 404
#     4  11  25  44  66  98 139 181 222 274 341 410
#     4  10  20  36  64  96 125 165 219 275 332 393
#     4  12  23  39  66  95 130 173 229 282 337 395
#     4  10  22  43  67  95 132 174 219 271 331 403
#     4   9  19  38  66  97 131 169 216 276 333 395
#     4  12  25  42  66  96 132 175 222 279 334 401
#
# _framework density 9.8765429999999999
#
# number of rings (size 3 to 8) (size 9 to 14) (size 15 to 20)
#    0.000    1.250    3.750    2.250    1.750    3.000 
#    0.000    1.250    0.000    3.000    0.000    0.000 
#    0.000    0.000    0.000    0.000    0.000    0.000 
#
# Total GULP energy -178740.715846 kJ/mol
# GULP energy per Si atom -5585.647370 kJ/mol
# Density = 0.985406 g / cm^3
# Si number density = 9.876543 Si / 1000 Ang^3
#
#
#
# Elastic Constant Matrix: (Units=GPa)
#
#
# Indices 1 2 3 4 5 6 
#
# 1 74.4908 37.6728 51.4926 0.0000 0.0000 0.0000
# 2 37.6728 125.1603 55.5865 0.0000 0.0000 0.0000
# 3 51.4926 55.5865 107.3946 0.0000 0.0000 0.0000
# 4 0.0000 0.0000 0.0000 27.0474 0.0000 0.0000
# 5 0.0000 0.0000 0.0000 0.0000 25.9519 0.0000
# 6 0.0000 0.0000 0.0000 0.0000 0.0000 22.1799
#
#
#
# Elastic Compliance Matrix: (Units=1/GPa)
#
#
# Indices 1 2 3 4 5 6 
#
# 1 0.020601 -0.002355 -0.008658 0.000000 0.000000 0.000000
# 2 -0.002355 0.010644 -0.004380 0.000000 0.000000 0.000000
# 3 -0.008658 -0.004380 0.015730 0.000000 0.000000 0.000000
# 4 0.000000 0.000000 0.000000 0.036972 0.000000 0.000000
# 5 0.000000 0.000000 0.000000 0.000000 0.038533 0.000000
# 6 0.000000 0.000000 0.000000 0.000000 0.000000 0.045086
#
#
# Mechanical properties :
#
#
# Convention : Reuss Voigt Hill
#
# Bulk Modulus (GPa) = 61.77649 66.28327 64.02988
# Shear Modulus (GPa) = 24.54005 25.85544 25.19774
#
# Velocity S-wave (km/s) = 3.52851 3.62184 3.57548
# Velocity P-wave (km/s) = 6.92407 7.14976 7.03782
#
# Compressibility (1/GPa) = 0.01618739
#
# Stress axis : x y z
#
# Youngs Moduli (GPa) = 48.54154 93.95045 63.57325
#
# Poissons Ratio (x) = 0.22129 0.55044
# Poissons Ratio (y) = 0.11433 0.27844
# Poissons Ratio (z) = 0.42029 0.41149
#
# Static dielectric constant tensor:
#      x y z
#    x 1.745420 0.000000 0.000000 
#    y 0.000000 1.656110 0.000000 
#    z 0.000000 0.000000 1.705520 
# 
# From -- ./inp_files/13146.got.cif
#   From: 2010.05.17/outbox.ucp.g08.bks.cvg/sg40_7_cif.got.tgz:13146.got - 2010.06.11 16:26:39.
