data_PCOD9365085
_publ_section_title
;
Structure prediction by ZEFSAII (Michael W. Deem and Ramdas Pophale) SiO2 
 PCOD9365085
Probable space group: A M A 2
;
_chemical_formula_sum "Si O2"
_cell_formula_units_Z 40
_cell_length_a 21.047268
_cell_length_b 15.064308
_cell_length_c 4.844160
_cell_angle_alpha 90.000000
_cell_angle_beta 90.000000
_cell_angle_gamma 90.000000
_cell_volume 1535.901614
_symmetry_space_group_name_H-M "A M A 2"
_symmetry_group_IT_number 40
_symmetry_cell_setting 'orthorhombic'
loop_
_space_group_symop_operation_xyz
x,y,z
-x,-y,z
1/2-x,y,z
1/2+x,-y,z
x,1/2+y,1/2+z
-x,1/2-y,1/2+z
1/2-x,1/2+y,1/2+z
1/2+x,1/2-y,1/2+z
loop_
_atom_site_type_symbol
_atom_site_label
_atom_site_fract_x
_atom_site_fract_y
_atom_site_fract_z
Si Si1 0.178564 0.041501 0.023080
Si Si2 0.250000 0.435548 0.081550
Si Si3 0.250000 0.801229 0.059174
Si Si4 0.558801 0.448106 0.843031
Si Si5 0.517596 0.200389 0.087485
Si Si6 0.870145 0.302442 0.215837
O O1 0.250000 0.043932 0.159064
O O2 0.118278 0.003086 0.191272
O O3 0.156279 0.142381 0.973697
O O4 0.191912 0.993492 0.726115
O O5 0.250000 0.349747 0.273300
O O6 0.250000 0.381482 0.788888
O O7 0.190724 0.737359 0.076637
O O8 0.500000 0.500000 0.983373
O O9 0.517730 0.391750 0.619766
O O10 0.590786 0.376430 0.045722
O O11 0.476740 0.269964 0.273093
O O12 0.584341 0.217265 0.236817
#
# Coordination Sequence:
#
# PCOD9365085 Si02
#       6
#     8   4   4   8   8   8
#     4  10  24  46  72 107 149 200 254 322 387 466
#     4  10  29  43  74 112 144 193 254 319 383 465
#     4  12  27  47  74 114 148 193 246 327 381 463
#     4  11  26  45  72 108 151 208 257 321 391 470
#     4  10  22  43  64 101 141 190 246 298 363 448
#     4  11  25  43  75 104 150 197 254 315 391 461
#
# _framework density 26.043336
#
# number of rings (size 3 to 8) (size 9 to 14) (size 15 to 20)
#    0.600    0.800    3.000    0.000    9.800    0.800 
#    0.000    0.000    0.000    0.000    0.000    0.000 
#    0.000    0.000    0.000    0.000    0.000    0.000 
#
# Total GULP energy -111440.104424 kJ/mol
# GULP energy per Si atom -5572.005221 kJ/mol
# Density = 2.598406 g / cm^3
# Si number density = 26.043336 Si / 1000 Ang^3
#
#
#
# Elastic Constant Matrix: (Units=GPa)
#
#
# Indices 1 2 3 4 5 6 
#
# 1 207.0647 64.1222 22.5241 0.0000 0.0000 0.0000
# 2 64.1222 79.9563 11.9134 0.0000 0.0000 0.0000
# 3 22.5241 11.9134 74.7570 0.0000 0.0000 0.0000
# 4 0.0000 0.0000 0.0000 31.3611 0.0000 0.0000
# 5 0.0000 0.0000 0.0000 0.0000 31.9233 0.0000
# 6 0.0000 0.0000 0.0000 0.0000 0.0000 61.6964
#
#
#
# Elastic Compliance Matrix: (Units=1/GPa)
#
#
# Indices 1 2 3 4 5 6 
#
# 1 0.006522 -0.005057 -0.001159 0.000000 0.000000 0.000000
# 2 -0.005057 0.016733 -0.001143 0.000000 0.000000 0.000000
# 3 -0.001159 -0.001143 0.013908 0.000000 0.000000 0.000000
# 4 0.000000 0.000000 0.000000 0.031887 0.000000 0.000000
# 5 0.000000 0.000000 0.000000 0.000000 0.031325 0.000000
# 6 0.000000 0.000000 0.000000 0.000000 0.000000 0.016208
#
#
# Mechanical properties :
#
#
# Convention : Reuss Voigt Hill
#
# Bulk Modulus (GPa) = 44.55501 62.09971 53.32736
# Shear Modulus (GPa) = 36.02758 42.54406 39.28582
#
# Velocity S-wave (km/s) = 3.72340 4.04615 3.88813
# Velocity P-wave (km/s) = 5.96910 6.76202 6.37790
#
# Compressibility (1/GPa) = 0.02244417
#
# Stress axis : x y z
#
# Youngs Moduli (GPa) = 153.33595 59.76219 71.90111
#
# Poissons Ratio (x) = 0.30224 0.08333
# Poissons Ratio (y) = 0.77549 0.08217
# Poissons Ratio (z) = 0.17771 0.06830
#
# Static dielectric constant tensor:
#      x y z
#    x 2.186320 0.000000 0.000000 
#    y 0.000000 2.089060 0.000000 
#    z 0.000000 0.000000 2.099290 
# 
# From -- ./inp_files/2263.got.cif
#   From: 2010.05.17/outbox.cif.g08.bks.cpg/sg40_2_cif.got.tgz:2263.got - 2010.06.03 18:35:42.
