data_PCOD9365332
_publ_section_title
;
Structure prediction by ZEFSAII (Michael W. Deem and Ramdas Pophale) SiO2 
 PCOD9365332
Probable space group: A M A 2
;
_chemical_formula_sum "Si O2"
_cell_formula_units_Z 56
_cell_length_a 22.018204
_cell_length_b 5.190607
_cell_length_c 22.081531
_cell_angle_alpha 90.000000
_cell_angle_beta 90.000000
_cell_angle_gamma 90.000000
_cell_volume 2523.650566
_symmetry_space_group_name_H-M "A M A 2"
_symmetry_group_IT_number 40
_symmetry_cell_setting 'orthorhombic'
loop_
_space_group_symop_operation_xyz
x,y,z
-x,-y,z
1/2-x,y,z
1/2+x,-y,z
x,1/2+y,1/2+z
-x,1/2-y,1/2+z
1/2-x,1/2+y,1/2+z
1/2+x,1/2-y,1/2+z
loop_
_atom_site_type_symbol
_atom_site_label
_atom_site_fract_x
_atom_site_fract_y
_atom_site_fract_z
Si Si1 0.817017 0.719864 0.428880
Si Si2 0.750000 0.923707 0.208613
Si Si3 0.177254 0.277243 0.569740
Si Si4 0.146765 0.385647 0.831149
Si Si5 0.938066 0.331830 0.750070
Si Si6 0.435458 0.517069 0.372014
Si Si7 0.634149 0.737613 0.134253
Si Si8 0.250000 0.562911 0.280982
O O1 0.750000 0.590688 0.424494
O O2 0.823453 0.794322 0.498873
O O3 0.878752 0.576340 0.410975
O O4 0.818238 0.949542 0.380291
O O5 0.692570 0.824500 0.172330
O O6 0.750000 0.737821 0.267611
O O7 0.750000 0.225085 0.226164
O O8 0.250000 0.312566 0.584353
O O9 0.137659 0.534874 0.583682
O O10 0.148615 0.041419 0.606971
O O11 0.122214 0.508518 0.769564
O O12 0.188466 0.143222 0.814670
O O13 0.082316 0.310169 0.859900
O O14 0.940133 0.126031 0.806008
O O15 0.921408 0.230517 0.682644
O O16 0.000000 0.500000 0.748407
O O17 0.500000 0.500000 0.402631
#
# Coordination Sequence:
#
# PCOD9365332 Si02
#       8
#     8   4   8   8   8   8   8   4
#     4  10  25  43  67 102 139 178 236 300 354 416
#     4  12  22  38  60  97 135 168 210 277 340 420
#     4  11  24  45  68  99 137 181 228 285 353 415
#     4  11  23  39  65  99 133 175 220 280 355 419
#     4  11  24  42  64  95 135 177 228 282 348 418
#     4  11  24  43  71  98 139 188 229 281 356 437
#     4  12  24  41  69  96 133 179 230 280 343 417
#     4  12  24  36  62 103 139 164 214 287 356 414
#
# _framework density 22.190078
#
# number of rings (size 3 to 8) (size 9 to 14) (size 15 to 20)
#    0.000    0.857    5.000    1.714    7.000    0.000 
#    0.000    0.714    3.143    0.000    0.000    0.000 
#    0.000    0.000    0.000    0.000    0.000    0.000 
#
# Total GULP energy -156184.672257 kJ/mol
# GULP energy per Si atom -5578.024009 kJ/mol
# Density = 2.213957 g / cm^3
# Si number density = 22.190078 Si / 1000 Ang^3
#
#
#
# Elastic Constant Matrix: (Units=GPa)
#
#
# Indices 1 2 3 4 5 6 
#
# 1 125.5905 9.6995 39.6671 0.0000 0.0000 0.0000
# 2 9.6995 42.3965 11.9483 0.0000 0.0000 0.0000
# 3 39.6671 11.9483 94.1055 0.0000 0.0000 0.0000
# 4 0.0000 0.0000 0.0000 12.0730 0.0000 0.0000
# 5 0.0000 0.0000 0.0000 0.0000 26.4340 0.0000
# 6 0.0000 0.0000 0.0000 0.0000 0.0000 37.5173
#
#
#
# Elastic Compliance Matrix: (Units=1/GPa)
#
#
# Indices 1 2 3 4 5 6 
#
# 1 0.009230 -0.001053 -0.003757 0.000000 0.000000 0.000000
# 2 -0.001053 0.024582 -0.002677 0.000000 0.000000 0.000000
# 3 -0.003757 -0.002677 0.012550 0.000000 0.000000 0.000000
# 4 0.000000 0.000000 0.000000 0.082829 0.000000 0.000000
# 5 0.000000 0.000000 0.000000 0.000000 0.037830 0.000000
# 6 0.000000 0.000000 0.000000 0.000000 0.000000 0.026654
#
#
# Mechanical properties :
#
#
# Convention : Reuss Voigt Hill
#
# Bulk Modulus (GPa) = 31.85931 42.74695 37.30313
# Shear Modulus (GPa) = 22.81919 28.59002 25.70461
#
# Velocity S-wave (km/s) = 3.21027 3.59334 3.40719
# Velocity P-wave (km/s) = 5.30375 6.04334 5.68558
#
# Compressibility (1/GPa) = 0.03138800
#
# Stress axis : x y z
#
# Youngs Moduli (GPa) = 108.33819 40.67968 79.68145
#
# Poissons Ratio (x) = 0.04283 0.29937
# Poissons Ratio (y) = 0.11407 0.21333
# Poissons Ratio (z) = 0.40703 0.10891
#
# Static dielectric constant tensor:
#      x y z
#    x 1.810520 0.000000 0.000000 
#    y 0.000000 1.911530 0.000000 
#    z 0.000000 0.000000 1.893820 
# 
# From -- ./inp_files/23661.got.cif
#   From: 2010.05.17/outbox.cif.g08.bks.cpg/sg40_12_cif.got.tgz:23661.got - 2010.06.03 18:35:42.
