data_PCOD9365261
_publ_section_title
;
Structure prediction by ZEFSAII (Michael W. Deem and Ramdas Pophale) SiO2 
 PCOD9365261
Probable space group: A M A 2
;
_chemical_formula_sum "Si O2"
_cell_formula_units_Z 40
_cell_length_a 35.254956
_cell_length_b 5.283134
_cell_length_c 9.014866
_cell_angle_alpha 90.000000
_cell_angle_beta 90.000000
_cell_angle_gamma 90.000000
_cell_volume 1679.078802
_symmetry_space_group_name_H-M "A M A 2"
_symmetry_group_IT_number 40
_symmetry_cell_setting 'orthorhombic'
loop_
_space_group_symop_operation_xyz
x,y,z
-x,-y,z
1/2-x,y,z
1/2+x,-y,z
x,1/2+y,1/2+z
-x,1/2-y,1/2+z
1/2-x,1/2+y,1/2+z
1/2+x,1/2-y,1/2+z
loop_
_atom_site_type_symbol
_atom_site_label
_atom_site_fract_x
_atom_site_fract_y
_atom_site_fract_z
Si Si1 0.705353 0.429736 0.120490
Si Si2 0.359772 0.392780 0.273009
Si Si3 0.161962 0.395331 0.838587
Si Si4 0.571823 0.928447 0.596153
Si Si5 0.043911 0.568949 0.434658
O O1 0.750000 0.413893 0.134700
O O2 0.684424 0.633293 0.225620
O O3 0.683902 0.184498 0.187292
O O4 0.691817 0.509473 0.958864
O O5 0.357777 0.628638 0.385028
O O6 0.369598 0.110425 0.316823
O O7 0.447173 0.583125 0.259729
O O8 0.114845 0.496100 0.139556
O O9 0.566784 0.662474 0.512029
O O10 0.553536 0.161173 0.507102
O O11 0.000000 0.500000 0.456845
#
# Coordination Sequence:
#
# PCOD9365261 Si02
#       5
#     8   8   8   8   8
#     4  10  24  42  65  94 132 176 225 281 339 403
#     4  10  26  43  68  97 135 173 233 274 347 399
#     4  10  24  40  64  91 132 168 228 277 339 399
#     4  12  27  44  79 102 147 186 234 289 351 416
#     4  12  26  47  72 108 143 186 232 286 352 424
#
# _framework density 23.822589000000001
#
# number of rings (size 3 to 8) (size 9 to 14) (size 15 to 20)
#    1.200    0.000    0.000    4.800    8.400    1.600 
#    0.000    0.000    0.000    0.000    0.000    0.000 
#    0.000    0.000    0.000    0.000    0.000    0.000 
#
# Total GULP energy -111680.891616 kJ/mol
# GULP energy per Si atom -5584.044581 kJ/mol
# Density = 2.376837 g / cm^3
# Si number density = 23.822589 Si / 1000 Ang^3
#
#
#
# Elastic Constant Matrix: (Units=GPa)
#
#
# Indices 1 2 3 4 5 6 
#
# 1 96.3285 15.4389 12.6657 0.0000 0.0000 0.0000
# 2 15.4389 147.8392 60.5471 0.0000 0.0000 0.0000
# 3 12.6657 60.5471 112.8168 0.0000 0.0000 0.0000
# 4 0.0000 0.0000 0.0000 39.5464 0.0000 0.0000
# 5 0.0000 0.0000 0.0000 0.0000 38.2286 0.0000
# 6 0.0000 0.0000 0.0000 0.0000 0.0000 24.6551
#
#
#
# Elastic Compliance Matrix: (Units=1/GPa)
#
#
# Indices 1 2 3 4 5 6 
#
# 1 0.010609 -0.000795 -0.000764 0.000000 0.000000 0.000000
# 2 -0.000795 0.008729 -0.004596 0.000000 0.000000 0.000000
# 3 -0.000764 -0.004596 0.011416 0.000000 0.000000 0.000000
# 4 0.000000 0.000000 0.000000 0.025287 0.000000 0.000000
# 5 0.000000 0.000000 0.000000 0.000000 0.026158 0.000000
# 6 0.000000 0.000000 0.000000 0.000000 0.000000 0.040560
#
#
# Mechanical properties :
#
#
# Convention : Reuss Voigt Hill
#
# Bulk Modulus (GPa) = 54.21641 59.36532 56.79086
# Shear Modulus (GPa) = 35.40643 38.37486 36.89064
#
# Velocity S-wave (km/s) = 3.85938 4.01791 3.93944
# Velocity P-wave (km/s) = 6.53204 6.81899 6.67706
#
# Compressibility (1/GPa) = 0.01844460
#
# Stress axis : x y z
#
# Youngs Moduli (GPa) = 94.25910 114.55757 87.59510
#
# Poissons Ratio (x) = 0.09105 0.06697
# Poissons Ratio (y) = 0.07492 0.40255
# Poissons Ratio (z) = 0.07206 0.52646
#
# Static dielectric constant tensor:
#      x y z
#    x 1.937100 0.000000 0.000000 
#    y 0.000000 1.999330 0.000000 
#    z 0.000000 0.000000 1.915920 
# 
# From -- ./inp_files/14303.got.cif
#   From: 2010.05.17/outbox.cif.g08.bks.cpg/sg40_8_cif.got.tgz:14303.got - 2010.06.03 18:35:42.
