data_PCOD9365578
_publ_section_title
;
Structure prediction by ZEFSAII (Michael W. Deem and Ramdas Pophale) SiO2 
 PCOD9365578
Probable space group: A M A 2
;
_chemical_formula_sum "Si O2"
_cell_formula_units_Z 40
_cell_length_a 16.989372
_cell_length_b 21.674011
_cell_length_c 4.838200
_cell_angle_alpha 90.000000
_cell_angle_beta 90.000000
_cell_angle_gamma 90.000000
_cell_volume 1781.559914
_symmetry_space_group_name_H-M "A M A 2"
_symmetry_group_IT_number 40
_symmetry_cell_setting 'orthorhombic'
loop_
_space_group_symop_operation_xyz
x,y,z
-x,-y,z
1/2-x,y,z
1/2+x,-y,z
x,1/2+y,1/2+z
-x,1/2-y,1/2+z
1/2-x,1/2+y,1/2+z
1/2+x,1/2-y,1/2+z
loop_
_atom_site_type_symbol
_atom_site_label
_atom_site_fract_x
_atom_site_fract_y
_atom_site_fract_z
Si Si1 0.159185 0.959514 0.000000
Si Si2 0.590109 0.923203 0.324585
Si Si3 0.089090 0.894881 0.464828
Si Si4 0.447236 0.258667 0.863693
Si Si5 0.157104 0.645065 0.326719
O O1 0.250000 0.974805 0.935192
O O2 0.152556 0.905281 0.225080
O O3 0.118391 0.015186 0.169836
O O4 0.124751 0.091004 0.626871
O O5 0.496526 0.917291 0.356376
O O6 0.628270 0.870879 0.133165
O O7 0.613737 0.065128 0.730798
O O8 0.081751 0.821632 0.505978
O O9 0.498589 0.274038 0.593988
O O10 0.381863 0.210709 0.761421
O O11 0.250000 0.646841 0.308215
#
# Coordination Sequence:
#
# PCOD9365578 Si02
#       5
#     8   8   8   8   8
#     4  12  27  46  69 106 150 188 237 305 367 426
#     4  12  25  46  72 103 143 193 248 297 357 434
#     4  12  25  46  75 103 140 197 247 289 362 443
#     4  12  23  46  72 103 146 190 240 302 357 434
#     4  12  24  42  72 108 143 189 244 305 368 419
#
# _framework density 22.452234000000001
#
# number of rings (size 3 to 8) (size 9 to 14) (size 15 to 20)
#    0.000    0.000    4.000    6.600    0.000    3.200 
#    0.000    0.000    0.000    0.000    0.000    0.000 
#    0.000    0.000    0.000    0.000    0.000    0.000 
#
# Total GULP energy -111903.674301 kJ/mol
# GULP energy per Si atom -5595.183715 kJ/mol
# Density = 2.240113 g / cm^3
# Si number density = 22.452234 Si / 1000 Ang^3
#
#
#
# Elastic Constant Matrix: (Units=GPa)
#
#
# Indices 1 2 3 4 5 6 
#
# 1 136.9835 41.9587 25.6540 0.0000 0.0000 0.0000
# 2 41.9587 111.6718 11.6176 0.0000 0.0000 0.0000
# 3 25.6540 11.6176 102.3043 0.0000 0.0000 0.0000
# 4 0.0000 0.0000 0.0000 37.8945 0.0000 0.0000
# 5 0.0000 0.0000 0.0000 0.0000 29.8886 0.0000
# 6 0.0000 0.0000 0.0000 0.0000 0.0000 21.8156
#
#
#
# Elastic Compliance Matrix: (Units=1/GPa)
#
#
# Indices 1 2 3 4 5 6 
#
# 1 0.008566 -0.003031 -0.001804 0.000000 0.000000 0.000000
# 2 -0.003031 0.010134 -0.000391 0.000000 0.000000 0.000000
# 3 -0.001804 -0.000391 0.010271 0.000000 0.000000 0.000000
# 4 0.000000 0.000000 0.000000 0.026389 0.000000 0.000000
# 5 0.000000 0.000000 0.000000 0.000000 0.033458 0.000000
# 6 0.000000 0.000000 0.000000 0.000000 0.000000 0.045839
#
#
# Mechanical properties :
#
#
# Convention : Reuss Voigt Hill
#
# Bulk Modulus (GPa) = 53.99342 56.60224 55.29783
# Shear Modulus (GPa) = 33.05070 36.03500 34.54285
#
# Velocity S-wave (km/s) = 3.84089 4.01055 3.92663
# Velocity P-wave (km/s) = 6.61591 6.83453 6.72610
#
# Compressibility (1/GPa) = 0.01852078
#
# Stress axis : x y z
#
# Youngs Moduli (GPa) = 116.73514 98.67464 97.35681
#
# Poissons Ratio (x) = 0.29908 0.17562
# Poissons Ratio (y) = 0.35383 0.03805
# Poissons Ratio (z) = 0.21058 0.03856
#
# Static dielectric constant tensor:
#      x y z
#    x 1.819570 0.000000 0.000000 
#    y 0.000000 1.947110 0.000000 
#    z 0.000000 0.000000 1.812120 
# 
# From -- ./inp_files/1721.got.cif
#   From: 2010.05.17/outbox.cif.g08.bks.cpg/sg40_1_cif.got.tgz:1721.got - 2010.06.03 18:35:42.
