data_PCOD9365207
_publ_section_title
;
Structure prediction by ZEFSAII (Michael W. Deem and Ramdas Pophale) SiO2 
 PCOD9365207
Probable space group: A M A 2
;
_chemical_formula_sum "Si O2"
_cell_formula_units_Z 60
_cell_length_a 14.354306
_cell_length_b 11.156801
_cell_length_c 16.127093
_cell_angle_alpha 90.000000
_cell_angle_beta 90.000000
_cell_angle_gamma 90.000000
_cell_volume 2582.723876
_symmetry_space_group_name_H-M "A M A 2"
_symmetry_group_IT_number 40
_symmetry_cell_setting 'orthorhombic'
loop_
_space_group_symop_operation_xyz
x,y,z
-x,-y,z
1/2-x,y,z
1/2+x,-y,z
x,1/2+y,1/2+z
-x,1/2-y,1/2+z
1/2-x,1/2+y,1/2+z
1/2+x,1/2-y,1/2+z
loop_
_atom_site_type_symbol
_atom_site_label
_atom_site_fract_x
_atom_site_fract_y
_atom_site_fract_z
Si Si1 0.143156 0.325248 0.837010
Si Si2 0.362078 0.245424 0.258542
Si Si3 0.357588 0.237847 0.653409
Si Si4 0.857473 0.416665 0.914867
Si Si5 0.573514 0.390421 0.423190
Si Si6 0.856506 0.489279 0.257034
Si Si7 0.452475 0.234216 0.089834
Si Si8 0.500000 0.000000 0.548220
O O1 0.250000 0.290590 0.862532
O O2 0.140684 0.313459 0.738337
O O3 0.130278 0.459342 0.865699
O O4 0.066062 0.240496 0.878640
O O5 0.250000 0.243764 0.245436
O O6 0.376164 0.183932 0.346636
O O7 0.400792 0.381024 0.261335
O O8 0.410909 0.192230 0.177654
O O9 0.250000 0.232915 0.624821
O O10 0.435753 0.286970 0.592431
O O11 0.390914 0.107157 0.689554
O O12 0.750000 0.405676 0.941713
O O13 0.924238 0.430190 0.992346
O O14 0.500000 0.500000 0.430041
O O15 0.640942 0.442865 0.351425
O O16 0.592954 0.342639 0.515876
O O17 0.750000 0.504075 0.232527
O O18 0.443429 0.380788 0.082486
#
# Coordination Sequence:
#
# PCOD9365207 Si02
#       8
#     8   8   8   8   8   8   8   4
#     4   9  19  42  70  93 119 173 230 274 323 395
#     4  10  24  43  68 100 130 168 222 278 330 390
#     4   9  20  39  64  91 127 173 221 264 322 396
#     4  10  23  42  69  97 127 172 229 278 324 392
#     4  11  24  38  59  97 133 167 213 268 335 398
#     4   9  20  40  67  92 120 173 226 269 320 392
#     4  12  26  39  62 102 136 174 210 274 346 390
#     4  12  26  42  64  98 132 184 220 264 340 400
#
# _framework density 23.231287999999999
#
# number of rings (size 3 to 8) (size 9 to 14) (size 15 to 20)
#    0.000    1.867    1.333    2.000    7.467    3.200 
#    0.000    1.333    0.000    0.000    0.000    0.000 
#    0.000    0.000    0.000    0.000    0.000    0.000 
#
# Total GULP energy -167172.163809 kJ/mol
# GULP energy per Si atom -5572.405460 kJ/mol
# Density = 2.317841 g / cm^3
# Si number density = 23.231288 Si / 1000 Ang^3
#
#
#
# Elastic Constant Matrix: (Units=GPa)
#
#
# Indices 1 2 3 4 5 6 
#
# 1 75.1378 10.9434 8.6061 0.0000 0.0000 0.0000
# 2 10.9434 47.9451 8.0690 0.0000 0.0000 0.0000
# 3 8.6061 8.0690 51.2823 0.0000 0.0000 0.0000
# 4 0.0000 0.0000 0.0000 19.5649 0.0000 0.0000
# 5 0.0000 0.0000 0.0000 0.0000 5.0300 0.0000
# 6 0.0000 0.0000 0.0000 0.0000 0.0000 22.3889
#
#
#
# Elastic Compliance Matrix: (Units=1/GPa)
#
#
# Indices 1 2 3 4 5 6 
#
# 1 0.013942 -0.002864 -0.001889 0.000000 0.000000 0.000000
# 2 -0.002864 0.022013 -0.002983 0.000000 0.000000 0.000000
# 3 -0.001889 -0.002983 0.020286 0.000000 0.000000 0.000000
# 4 0.000000 0.000000 0.000000 0.051112 0.000000 0.000000
# 5 0.000000 0.000000 0.000000 0.000000 0.198809 0.000000
# 6 0.000000 0.000000 0.000000 0.000000 0.000000 0.044665
#
#
# Mechanical properties :
#
#
# Convention : Reuss Voigt Hill
#
# Bulk Modulus (GPa) = 24.52857 25.51139 25.01998
# Shear Modulus (GPa) = 13.16171 19.17986 16.17079
#
# Velocity S-wave (km/s) = 2.38282 2.87645 2.64119
# Velocity P-wave (km/s) = 4.26049 4.69439 4.48269
#
# Compressibility (1/GPa) = 0.04076879
#
# Stress axis : x y z
#
# Youngs Moduli (GPa) = 71.72348 45.42771 49.29440
#
# Poissons Ratio (x) = 0.13012 0.09312
# Poissons Ratio (y) = 0.20545 0.14704
# Poissons Ratio (z) = 0.13549 0.13551
#
# Static dielectric constant tensor:
#      x y z
#    x 1.952870 0.000000 0.000000 
#    y 0.000000 1.947530 0.000000 
#    z 0.000000 0.000000 1.882300 
# 
# From -- ./inp_files/20729.got.cif
#   From: 2010.05.17/outbox.cif.g08.bks.cpg/sg40_11_cif.got.tgz:20729.got - 2010.06.03 18:35:42.
