data_PCOD9365863
_publ_section_title
;
Structure prediction by ZEFSAII (Michael W. Deem and Ramdas Pophale) SiO2 
 PCOD9365863
Probable space group: A B A 2
;
_chemical_formula_sum "Si O2"
_cell_formula_units_Z 60
_cell_length_a 10.777432
_cell_length_b 11.862663
_cell_length_c 20.599513
_cell_angle_alpha 90.000000
_cell_angle_beta 90.000000
_cell_angle_gamma 90.000000
_cell_volume 2633.628040
_symmetry_space_group_name_H-M "A B A 2"
_symmetry_group_IT_number 41
_symmetry_cell_setting 'orthorhombic'
loop_
_space_group_symop_operation_xyz
x,y,z
-x,-y,z
1/2-x,y,1/2+z
1/2+x,-y,1/2+z
x,1/2+y,1/2+z
-x,1/2-y,1/2+z
1/2-x,1/2+y,z
1/2+x,1/2-y,z
loop_
_atom_site_type_symbol
_atom_site_label
_atom_site_fract_x
_atom_site_fract_y
_atom_site_fract_z
Si Si1 0.927406 0.890235 0.699190
Si Si2 0.415903 0.797729 0.906170
Si Si3 0.642593 0.660444 0.952863
Si Si4 0.000000 0.000000 0.498210
Si Si5 0.828629 0.827137 0.566307
Si Si6 0.812931 0.000448 0.203422
Si Si7 0.356756 0.018534 0.554435
Si Si8 0.481524 0.829900 0.759418
O O1 0.873874 0.819082 0.639023
O O2 0.810433 0.947416 0.733727
O O3 0.999994 0.800531 0.741771
O O4 0.000000 0.000000 0.675837
O O5 0.508933 0.691375 0.921090
O O6 0.264207 0.791930 0.913659
O O7 0.449507 0.897189 0.956002
O O8 0.463869 0.839264 0.836141
O O9 0.635963 0.725465 0.021556
O O10 0.665172 0.535898 0.982853
O O11 0.891899 0.941629 0.539487
O O12 0.683415 0.850465 0.555301
O O13 0.916334 0.907862 0.224217
O O14 0.798659 0.016161 0.125329
O O15 0.853070 0.119254 0.232016
O O16 0.500000 0.000000 0.566116
#
# Coordination Sequence:
#
# PCOD9365863 Si02
#       8
#     8   8   8   4   8   8   8   8
#     4  11  25  41  70 104 136 177 225 292 352 412
#     4  11  25  42  69  95 134 188 226 273 341 407
#     4  11  24  41  65  99 130 179 222 280 333 406
#     4  10  18  42  62  92 126 174 218 262 334 414
#     4  10  21  38  63  93 133 165 213 274 340 400
#     4  10  24  43  69 102 128 190 227 283 357 398
#     4  11  20  40  63  98 132 159 225 278 341 397
#     4  11  24  47  65  98 139 181 232 279 334 426
#
# _framework density 22.782260999999998
#
# number of rings (size 3 to 8) (size 9 to 14) (size 15 to 20)
#    0.000    1.333    3.333    2.400    3.733    0.000 
#    4.800    2.000    0.000    0.000    0.000    0.000 
#    0.000    0.000    0.000    0.000    0.000    0.000 
#
# Total GULP energy -167092.787526 kJ/mol
# GULP energy per Si atom -5569.759584 kJ/mol
# Density = 2.273041 g / cm^3
# Si number density = 22.782261 Si / 1000 Ang^3
#
#
#
# Elastic Constant Matrix: (Units=GPa)
#
#
# Indices 1 2 3 4 5 6 
#
# 1 84.7680 7.3711 9.6081 0.0000 0.0000 0.0000
# 2 7.3711 55.1934 10.1444 0.0000 0.0000 0.0000
# 3 9.6081 10.1444 75.8708 0.0000 0.0000 0.0000
# 4 0.0000 0.0000 0.0000 16.8333 0.0000 0.0000
# 5 0.0000 0.0000 0.0000 0.0000 10.9635 0.0000
# 6 0.0000 0.0000 0.0000 0.0000 0.0000 20.4245
#
#
#
# Elastic Compliance Matrix: (Units=1/GPa)
#
#
# Indices 1 2 3 4 5 6 
#
# 1 0.012068 -0.001364 -0.001346 0.000000 0.000000 0.000000
# 2 -0.001364 0.018729 -0.002331 0.000000 0.000000 0.000000
# 3 -0.001346 -0.002331 0.013662 0.000000 0.000000 0.000000
# 4 0.000000 0.000000 0.000000 0.059406 0.000000 0.000000
# 5 0.000000 0.000000 0.000000 0.000000 0.091211 0.000000
# 6 0.000000 0.000000 0.000000 0.000000 0.000000 0.048961
#
#
# Mechanical properties :
#
#
# Convention : Reuss Voigt Hill
#
# Bulk Modulus (GPa) = 29.08987 30.00882 29.54935
# Shear Modulus (GPa) = 18.82675 22.22484 20.52579
#
# Velocity S-wave (km/s) = 2.87780 3.12674 3.00485
# Velocity P-wave (km/s) = 4.88248 5.12210 5.00373
#
# Compressibility (1/GPa) = 0.03437622
#
# Stress axis : x y z
#
# Youngs Moduli (GPa) = 82.86319 53.39363 73.19327
#
# Poissons Ratio (x) = 0.07285 0.09851
# Poissons Ratio (y) = 0.11305 0.17064
# Poissons Ratio (z) = 0.11152 0.12448
#
# Static dielectric constant tensor:
#      x y z
#    x 2.032170 0.000000 0.000000 
#    y 0.000000 1.886730 0.000000 
#    z 0.000000 0.000000 1.843660 
# 
# From -- ./inp_files/11413.got.cif
#   From: 2010.05.17/outbox.cif.g08.bks.cpg/sg41_6_cif.got.tgz:11413.got - 2010.06.03 18:54:24.
