data_PCOD9365320
_publ_section_title
;
Structure prediction by ZEFSAII (Michael W. Deem and Ramdas Pophale) SiO2 
 PCOD9365320
Probable space group: A M A 2
;
_chemical_formula_sum "Si O2"
_cell_formula_units_Z 28
_cell_length_a 17.935949
_cell_length_b 13.279070
_cell_length_c 5.141093
_cell_angle_alpha 90.000000
_cell_angle_beta 90.000000
_cell_angle_gamma 90.000000
_cell_volume 1224.468115
_symmetry_space_group_name_H-M "A M A 2"
_symmetry_group_IT_number 40
_symmetry_cell_setting 'orthorhombic'
loop_
_space_group_symop_operation_xyz
x,y,z
-x,-y,z
1/2-x,y,z
1/2+x,-y,z
x,1/2+y,1/2+z
-x,1/2-y,1/2+z
1/2-x,1/2+y,1/2+z
1/2+x,1/2-y,1/2+z
loop_
_atom_site_type_symbol
_atom_site_label
_atom_site_fract_x
_atom_site_fract_y
_atom_site_fract_z
Si Si1 0.390821 0.554397 0.992270
Si Si2 0.250000 0.197517 0.361165
Si Si3 0.890024 0.166309 0.683047
Si Si4 0.027848 0.640977 0.499346
O O1 0.315540 0.617394 0.952329
O O2 0.444140 0.583031 0.752961
O O3 0.376226 0.436118 0.027555
O O4 0.431608 0.591236 0.252998
O O5 0.184567 0.276309 0.261579
O O6 0.941227 0.245475 0.525594
O O7 0.940621 0.141602 0.935539
#
# Coordination Sequence:
#
# PCOD9365320 Si02
#       4
#     8   4   8   8
#     4  11  26  47  71 106 144 188 239 294 356 425
#     4  10  24  46  72 108 146 190 236 284 366 436
#     4  11  24  47  74 104 147 187 234 304 353 420
#     4  11  26  44  71 107 140 188 249 289 353 426
#
# _framework density 22.867069999999998
#
# number of rings (size 3 to 8) (size 9 to 14) (size 15 to 20)
#    0.000    1.143    0.000    5.143    0.000   18.286 
#    0.000    5.714    0.000    0.000    0.000    8.000 
#    0.000    0.000    0.000    0.000    0.000    0.000 
#
# Total GULP energy -77951.785726 kJ/mol
# GULP energy per Si atom -5567.984695 kJ/mol
# Density = 2.281502 g / cm^3
# Si number density = 22.867070 Si / 1000 Ang^3
#
#
#
# Elastic Constant Matrix: (Units=GPa)
#
#
# Indices 1 2 3 4 5 6 
#
# 1 184.8242 58.5077 35.5617 0.0000 0.0000 0.0000
# 2 58.5077 222.3431 62.7579 0.0000 0.0000 0.0000
# 3 35.5617 62.7579 135.2598 0.0000 0.0000 0.0000
# 4 0.0000 0.0000 0.0000 34.7837 0.0000 0.0000
# 5 0.0000 0.0000 0.0000 0.0000 -8.8851 0.0000
# 6 0.0000 0.0000 0.0000 0.0000 0.0000-4016.1637
#
#
#
# Elastic Compliance Matrix: (Units=1/GPa)
#
#
# Indices 1 2 3 4 5 6 
#
# 1 0.006012 -0.001307 -0.000974 0.000000 0.000000 0.000000
# 2 -0.001307 0.005459 -0.002189 0.000000 0.000000 0.000000
# 3 -0.000974 -0.002189 0.008665 0.000000 0.000000 0.000000
# 4 0.000000 0.000000 0.000000 0.028749 0.000000 0.000000
# 5 0.000000 0.000000 0.000000 0.000000 -0.112549 0.000000
# 6 0.000000 0.000000 0.000000 0.000000 0.000000 -0.000249
#
#
# Mechanical properties :
#
#
# Convention : Reuss Voigt Hill
#
# Bulk Modulus (GPa) = 89.32427 95.12020 92.22223
# Shear Modulus (GPa) = -97.58147 -772.34636 -434.96392
#
# Velocity S-wave (km/s) = -6.53957 -18.39805 -13.80677
# Velocity P-wave (km/s) = 4.22778 20.23932 14.62026
#
# Compressibility (1/GPa) = 0.01119517
#
# Stress axis : x y z
#
# Youngs Moduli (GPa) = 166.34190 183.16823 115.40454
#
# Poissons Ratio (x) = 0.23939 0.11242
# Poissons Ratio (y) = 0.21740 0.25267
# Poissons Ratio (z) = 0.16204 0.40104
#
# Static dielectric constant tensor:
#      x y z
#    x 1.784200 0.000000 0.000000 
#    y 0.000000 1.915920 0.000000 
#    z 0.000000 0.000000 1.888290 
# 
# From -- ./inp_files/1602.got.cif
#   From: 2010.05.17/outbox.cif.g08.bks.cpg/sg40_1_cif.got.tgz:1602.got - 2010.06.03 18:35:42.
