data_PCOD9365239
_publ_section_title
;
Structure prediction by ZEFSAII (Michael W. Deem and Ramdas Pophale) SiO2 
 PCOD9365239
Probable space group: A M A 2
;
_chemical_formula_sum "Si O2"
_cell_formula_units_Z 64
_cell_length_a 28.524446
_cell_length_b 11.812624
_cell_length_c 9.307317
_cell_angle_alpha 90.000000
_cell_angle_beta 90.000000
_cell_angle_gamma 90.000000
_cell_volume 3136.087018
_symmetry_space_group_name_H-M "A M A 2"
_symmetry_group_IT_number 40
_symmetry_cell_setting 'orthorhombic'
loop_
_space_group_symop_operation_xyz
x,y,z
-x,-y,z
1/2-x,y,z
1/2+x,-y,z
x,1/2+y,1/2+z
-x,1/2-y,1/2+z
1/2-x,1/2+y,1/2+z
1/2+x,1/2-y,1/2+z
loop_
_atom_site_type_symbol
_atom_site_label
_atom_site_fract_x
_atom_site_fract_y
_atom_site_fract_z
Si Si1 0.361963 0.204813 0.390190
Si Si2 0.633126 0.130839 0.151313
Si Si3 0.458238 0.424863 0.261782
Si Si4 0.064373 0.038200 0.031501
Si Si5 0.694405 0.525784 0.898555
Si Si6 0.434448 0.779028 0.384743
Si Si7 0.034672 0.167024 0.306325
Si Si8 0.131770 0.877433 0.631090
O O1 0.351712 0.285048 0.525368
O O2 0.416600 0.164008 0.394031
O O3 0.357373 0.280293 0.246270
O O4 0.328503 0.097778 0.383583
O O5 0.671911 0.101413 0.270615
O O6 0.589167 0.189586 0.233134
O O7 0.614022 0.013789 0.081623
O O8 0.500000 0.500000 0.201960
O O9 0.457631 0.438918 0.435000
O O10 0.466150 0.292645 0.235163
O O11 0.406174 0.457915 0.210095
O O12 0.040105 0.078684 0.177433
O O13 0.063930 0.146547 0.925343
O O14 0.750000 0.524532 0.889567
O O15 0.676345 0.569748 0.053880
O O16 0.485679 0.836480 0.388970
O O17 0.399462 0.830469 0.501089
#
# Coordination Sequence:
#
# PCOD9365239 Si02
#       8
#     8   8   8   8   8   8   8   8
#     4  11  23  42  70  96 129 168 215 263 330 393
#     4  11  25  42  68  97 129 176 212 271 325 391
#     4  11  22  36  63  91 135 180 213 252 307 376
#     4  12  22  42  60  91 139 179 213 261 311 367
#     4  11  26  48  69  94 126 161 214 285 344 392
#     4  11  24  36  62  96 137 178 222 255 306 379
#     4  11  23  35  60  96 132 178 223 247 308 382
#     4  10  23  45  62  98 130 171 217 268 325 386
#
# _framework density 20.407598
#
# number of rings (size 3 to 8) (size 9 to 14) (size 15 to 20)
#    0.000    1.000    7.500    0.000    5.250    2.000 
#    0.000    0.000    0.000    0.000    0.000    0.000 
#    0.000    0.000    0.000    0.000    0.000    0.000 
#
# Total GULP energy -178748.116812 kJ/mol
# GULP energy per Si atom -5585.878650 kJ/mol
# Density = 2.036115 g / cm^3
# Si number density = 20.407598 Si / 1000 Ang^3
#
#
#
# Elastic Constant Matrix: (Units=GPa)
#
#
# Indices 1 2 3 4 5 6 
#
# 1 151.3563 49.1858 44.8089 0.0000 0.0000 0.0000
# 2 49.1858 67.2848 39.1307 0.0000 0.0000 0.0000
# 3 44.8089 39.1307 109.8310 0.0000 0.0000 0.0000
# 4 0.0000 0.0000 0.0000 14.7080 0.0000 0.0000
# 5 0.0000 0.0000 0.0000 0.0000 26.4734 0.0000
# 6 0.0000 0.0000 0.0000 0.0000 0.0000 19.2975
#
#
#
# Elastic Compliance Matrix: (Units=1/GPa)
#
#
# Indices 1 2 3 4 5 6 
#
# 1 0.008898 -0.005541 -0.001656 0.000000 0.000000 0.000000
# 2 -0.005541 0.022198 -0.005648 0.000000 0.000000 0.000000
# 3 -0.001656 -0.005648 0.011793 0.000000 0.000000 0.000000
# 4 0.000000 0.000000 0.000000 0.067990 0.000000 0.000000
# 5 0.000000 0.000000 0.000000 0.000000 0.037774 0.000000
# 6 0.000000 0.000000 0.000000 0.000000 0.000000 0.051820
#
#
# Mechanical properties :
#
#
# Convention : Reuss Voigt Hill
#
# Bulk Modulus (GPa) = 58.14633 66.08031 62.11332
# Shear Modulus (GPa) = 21.56146 25.11890 23.34018
#
# Velocity S-wave (km/s) = 3.25397 3.51217 3.38553
# Velocity P-wave (km/s) = 6.53239 6.99269 6.76645
#
# Compressibility (1/GPa) = 0.01719799
#
# Stress axis : x y z
#
# Youngs Moduli (GPa) = 112.38556 45.04983 84.79852
#
# Poissons Ratio (x) = 0.24964 0.14041
# Poissons Ratio (y) = 0.62278 0.47892
# Poissons Ratio (z) = 0.18609 0.25443
#
# Static dielectric constant tensor:
#      x y z
#    x 1.490940 0.000000 0.000000 
#    y 0.000000 1.767140 0.000000 
#    z 0.000000 0.000000 1.790510 
# 
# From -- ./inp_files/9417.got.cif
#   From: 2010.05.17/outbox.cif.g08.bks.cpg/sg40_5_cif.got.tgz:9417.got - 2010.06.03 18:35:42.
