data_PCOD9365836
_publ_section_title
;
Structure prediction by ZEFSAII (Michael W. Deem and Ramdas Pophale) SiO2 
 PCOD9365836
Probable space group: A B A 2
;
_chemical_formula_sum "Si O2"
_cell_formula_units_Z 60
_cell_length_a 10.954001
_cell_length_b 15.897744
_cell_length_c 14.740045
_cell_angle_alpha 90.000000
_cell_angle_beta 90.000000
_cell_angle_gamma 90.000000
_cell_volume 2566.888977
_symmetry_space_group_name_H-M "A B A 2"
_symmetry_group_IT_number 41
_symmetry_cell_setting 'orthorhombic'
loop_
_space_group_symop_operation_xyz
x,y,z
-x,-y,z
1/2-x,y,1/2+z
1/2+x,-y,1/2+z
x,1/2+y,1/2+z
-x,1/2-y,1/2+z
1/2-x,1/2+y,z
1/2+x,1/2-y,z
loop_
_atom_site_type_symbol
_atom_site_label
_atom_site_fract_x
_atom_site_fract_y
_atom_site_fract_z
Si Si1 0.099739 0.706202 0.937120
Si Si2 0.576084 0.915008 0.090675
Si Si3 0.141140 0.827404 0.658734
Si Si4 0.327034 0.886340 0.513954
Si Si5 0.500000 0.500000 0.137241
Si Si6 0.332762 0.638124 0.130510
Si Si7 0.423348 0.421597 0.827505
Si Si8 0.127012 0.194700 0.917590
O O1 0.121304 0.791192 0.998543
O O2 0.232080 0.705212 0.886337
O O3 0.959299 0.722467 0.907267
O O4 0.096227 0.618738 0.989587
O O5 0.501476 0.839764 0.138489
O O6 0.708758 0.914440 0.133770
O O7 0.706273 0.131937 0.071397
O O8 0.176616 0.731122 0.670070
O O9 0.156798 0.879219 0.750116
O O10 0.000000 0.000000 0.593893
O O11 0.404979 0.949922 0.574314
O O12 0.335760 0.928985 0.415065
O O13 0.430147 0.578588 0.180634
O O14 0.363148 0.660006 0.022956
O O15 0.500000 0.500000 0.791898
O O16 0.539338 0.367620 0.863050
#
# Coordination Sequence:
#
# PCOD9365836 Si02
#       8
#     8   8   8   8   4   8   8   8
#     4  10  18  37  65  97 142 189 247 292 386 454
#     4  11  21  37  61 101 139 181 249 323 361 442
#     4  12  24  44  70 105 152 197 255 319 384 471
#     4  11  20  42  73 105 144 195 246 309 385 463
#     4  12  20  38  76 104 136 202 242 304 380 456
#     4  11  22  39  67 104 141 197 251 306 383 460
#     4  11  24  44  72 116 147 194 259 312 385 472
#     4  10  19  38  66  98 139 190 241 308 365 459
#
# _framework density 23.374599
#
# number of rings (size 3 to 8) (size 9 to 14) (size 15 to 20)
#    0.000    1.067    7.333    1.200    0.000    1.067 
#    4.800    0.000    0.000    0.000   17.333    0.000 
#    0.000    0.000    0.000    0.000    0.000    0.000 
#
# Total GULP energy -167111.422884 kJ/mol
# GULP energy per Si atom -5570.380763 kJ/mol
# Density = 2.332140 g / cm^3
# Si number density = 23.374599 Si / 1000 Ang^3
#
#
#
# Elastic Constant Matrix: (Units=GPa)
#
#
# Indices 1 2 3 4 5 6 
#
# 1 123.9689 24.4421 28.0038 0.0000 0.0000 0.0000
# 2 24.4421 106.2973 12.9276 0.0000 0.0000 0.0000
# 3 28.0038 12.9276 55.2895 0.0000 0.0000 0.0000
# 4 0.0000 0.0000 0.0000 10.1129 0.0000 0.0000
# 5 0.0000 0.0000 0.0000 0.0000 -2.6661 0.0000
# 6 0.0000 0.0000 0.0000 0.0000 0.0000 37.8731
#
#
#
# Elastic Compliance Matrix: (Units=1/GPa)
#
#
# Indices 1 2 3 4 5 6 
#
# 1 0.009373 -0.001624 -0.004368 0.000000 0.000000 0.000000
# 2 -0.001624 0.009964 -0.001507 0.000000 0.000000 0.000000
# 3 -0.004368 -0.001507 0.020651 0.000000 0.000000 0.000000
# 4 0.000000 0.000000 0.000000 0.098884 0.000000 0.000000
# 5 0.000000 0.000000 0.000000 0.000000 -0.375078 0.000000
# 6 0.000000 0.000000 0.000000 0.000000 0.000000 0.026404
#
#
# Mechanical properties :
#
#
# Convention : Reuss Voigt Hill
#
# Bulk Modulus (GPa) = 40.01485 46.25586 43.13535
# Shear Modulus (GPa) = -26.81371 23.74278 -1.53546
#
# Velocity S-wave (km/s) = -3.39061 3.19054 -0.81137
# Velocity P-wave (km/s) = 1.35198 5.77968 4.19717
#
# Compressibility (1/GPa) = 0.02499072
#
# Stress axis : x y z
#
# Youngs Moduli (GPa) = 106.68462 100.35796 48.42303
#
# Poissons Ratio (x) = 0.16299 0.21150
# Poissons Ratio (y) = 0.17327 0.07298
# Poissons Ratio (z) = 0.46598 0.15126
#
# Static dielectric constant tensor:
#      x y z
#    x 1.954620 0.000000 0.000000 
#    y 0.000000 1.971820 0.000000 
#    z 0.000000 0.000000 1.966550 
# 
# From -- ./inp_files/11445.got.cif
#   From: 2010.05.17/outbox.cif.g08.bks.cpg/sg41_6_cif.got.tgz:11445.got - 2010.06.03 18:54:24.
