data_PCOD9365951
_publ_section_title
;
Structure prediction by ZEFSAII (Michael W. Deem and Ramdas Pophale) SiO2 
 PCOD9365951
Probable space group: A B A 2
;
_chemical_formula_sum "Si O2"
_cell_formula_units_Z 52
_cell_length_a 19.694981
_cell_length_b 8.918573
_cell_length_c 14.569459
_cell_angle_alpha 90.000000
_cell_angle_beta 90.000000
_cell_angle_gamma 90.000000
_cell_volume 2559.141875
_symmetry_space_group_name_H-M "A B A 2"
_symmetry_group_IT_number 41
_symmetry_cell_setting 'orthorhombic'
loop_
_space_group_symop_operation_xyz
x,y,z
-x,-y,z
1/2-x,y,1/2+z
1/2+x,-y,1/2+z
x,1/2+y,1/2+z
-x,1/2-y,1/2+z
1/2-x,1/2+y,z
1/2+x,1/2-y,z
loop_
_atom_site_type_symbol
_atom_site_label
_atom_site_fract_x
_atom_site_fract_y
_atom_site_fract_z
Si Si1 0.640666 0.047763 0.554890
Si Si2 0.401618 0.285896 0.558148
Si Si3 0.715163 0.001446 0.372319
Si Si4 0.155500 0.332370 0.871668
Si Si5 0.500000 0.000000 0.167487
Si Si6 0.113431 0.220275 0.685590
Si Si7 0.215377 0.461793 0.159994
O O1 0.666315 0.068807 0.450477
O O2 0.597211 0.183124 0.596109
O O3 0.709961 0.036733 0.616256
O O4 0.600600 0.892624 0.565578
O O5 0.399782 0.323940 0.450712
O O6 0.459788 0.377738 0.608187
O O7 0.331647 0.347779 0.603587
O O8 0.793062 0.034912 0.395914
O O9 0.710714 0.069351 0.269522
O O10 0.697446 0.825236 0.373686
O O11 0.125993 0.332062 0.769830
O O12 0.558016 0.902508 0.217013
O O13 0.180132 0.125522 0.656922
#
# Coordination Sequence:
#
# PCOD9365951 Si02
#       7
#     8   8   8   8   4   8   8
#     4  11  20  34  59  92 116 150 188 244 292 362
#     4  10  22  38  60  83 120 153 203 234 294 342
#     4  10  21  31  55  90 129 143 179 228 306 357
#     4  10  20  36  57  91 118 153 185 241 296 363
#     4  10  24  46  56  74 114 170 202 252 276 336
#     4  10  22  38  61  82 121 154 200 234 295 343
#     4  10  19  35  56  90 123 153 172 238 301 360
#
# _framework density 20.319312
#
# number of rings (size 3 to 8) (size 9 to 14) (size 15 to 20)
#    0.000    1.846    3.077    0.923    4.308    0.615 
#    0.000    7.692    0.000    0.000    0.000    0.000 
#    0.000    0.000    0.000    0.000    0.000    0.000 
#
# Total GULP energy -144987.664676 kJ/mol
# GULP energy per Si atom -5576.448641 kJ/mol
# Density = 2.027306 g / cm^3
# Si number density = 20.319312 Si / 1000 Ang^3
#
#
#
# Elastic Constant Matrix: (Units=GPa)
#
#
# Indices 1 2 3 4 5 6 
#
# 1 42.5886 -0.4392 -10.9631 0.0000 0.0000 0.0000
# 2 -0.4392 19.4355 13.8007 0.0000 0.0000 0.0000
# 3 -10.9631 13.8007 78.7088 0.0000 0.0000 0.0000
# 4 0.0000 0.0000 0.0000 25.6175 0.0000 0.0000
# 5 0.0000 0.0000 0.0000 0.0000 10.0527 0.0000
# 6 0.0000 0.0000 0.0000 0.0000 0.0000 26.8997
#
#
#
# Elastic Compliance Matrix: (Units=1/GPa)
#
#
# Indices 1 2 3 4 5 6 
#
# 1 0.024431 -0.002129 0.003776 0.000000 0.000000 0.000000
# 2 -0.002129 0.058955 -0.010634 0.000000 0.000000 0.000000
# 3 0.003776 -0.010634 0.015096 0.000000 0.000000 0.000000
# 4 0.000000 0.000000 0.000000 0.039036 0.000000 0.000000
# 5 0.000000 0.000000 0.000000 0.000000 0.099476 0.000000
# 6 0.000000 0.000000 0.000000 0.000000 0.000000 0.037175
#
#
# Mechanical properties :
#
#
# Convention : Reuss Voigt Hill
#
# Bulk Modulus (GPa) = 12.42119 16.16996 14.29558
# Shear Modulus (GPa) = 15.67509 21.73627 18.70568
#
# Velocity S-wave (km/s) = 2.78049 3.27423 3.03741
# Velocity P-wave (km/s) = 4.05394 4.71904 4.39908
#
# Compressibility (1/GPa) = 0.08050755
#
# Stress axis : x y z
#
# Youngs Moduli (GPa) = 40.93232 16.96209 66.24472
#
# Poissons Ratio (x) = 0.03612 -0.25015
# Poissons Ratio (y) = 0.08716 0.70443
# Poissons Ratio (z) = -0.15457 0.18037
#
# Static dielectric constant tensor:
#      x y z
#    x 1.732190 0.000000 0.000000 
#    y 0.000000 1.738920 0.000000 
#    z 0.000000 0.000000 1.754350 
# 
# From -- ./inp_files/8960.got.cif
#   From: 2010.05.17/outbox.cif.g08.bks.cpg/sg41_5_cif.got.tgz:8960.got - 2010.06.03 18:54:24.
