data_PCOD9365087
_publ_section_title
;
Structure prediction by ZEFSAII (Michael W. Deem and Ramdas Pophale) SiO2 
 PCOD9365087
Probable space group: A M A 2
;
_chemical_formula_sum "Si O2"
_cell_formula_units_Z 64
_cell_length_a 18.200929
_cell_length_b 15.254704
_cell_length_c 12.100840
_cell_angle_alpha 90.000000
_cell_angle_beta 90.000000
_cell_angle_gamma 90.000000
_cell_volume 3359.795617
_symmetry_space_group_name_H-M "A M A 2"
_symmetry_group_IT_number 40
_symmetry_cell_setting 'orthorhombic'
loop_
_space_group_symop_operation_xyz
x,y,z
-x,-y,z
1/2-x,y,z
1/2+x,-y,z
x,1/2+y,1/2+z
-x,1/2-y,1/2+z
1/2-x,1/2+y,1/2+z
1/2+x,1/2-y,1/2+z
loop_
_atom_site_type_symbol
_atom_site_label
_atom_site_fract_x
_atom_site_fract_y
_atom_site_fract_z
Si Si1 0.583993 0.396890 0.961070
Si Si2 0.412072 0.999998 0.110639
Si Si3 0.662327 0.500003 0.372219
Si Si4 0.163817 0.844784 0.246533
Si Si5 0.163828 0.857996 0.686988
Si Si6 0.916005 0.103107 0.461071
Si Si7 0.163828 0.142001 0.686988
Si Si8 0.163817 0.155215 0.246532
O O1 0.584935 0.499999 0.933524
O O2 0.499999 0.365683 0.953722
O O3 0.634743 0.350244 0.871484
O O4 0.615041 0.385714 0.083609
O O5 0.380858 0.914345 0.173400
O O6 0.500000 0.000000 0.114205
O O7 0.380856 0.085650 0.173401
O O8 0.382257 0.999999 0.985421
O O9 0.750000 0.500002 0.397006
O O10 0.646262 0.584508 0.295348
O O11 0.646262 0.415499 0.295345
O O12 0.250000 0.867478 0.241875
O O13 0.134746 0.850247 0.371486
O O14 0.154807 0.745235 0.206517
O O15 0.250000 0.875544 0.661941
O O16 0.115043 0.885717 0.583610
O O17 0.154806 0.754761 0.706509
O O18 0.250000 0.124454 0.661938
O O19 0.250000 0.132522 0.241882
#
# Coordination Sequence:
#
# PCOD9365087 Si02
#       8
#     8   8   8   8   8   8   8   8
#     4  11  23  40  64  94 127 161 205 260 316 371
#     4  12  26  43  62  91 128 169 207 255 319 376
#     4  10  22  43  66  91 124 163 205 257 307 370
#     4  11  24  42  66  94 123 165 214 260 306 368
#     4  10  23  42  67  94 122 162 212 256 308 370
#     4  11  23  40  64  94 127 161 205 260 316 371
#     4  10  23  42  67  94 122 162 212 256 308 370
#     4  11  24  42  66  94 123 165 214 260 306 368
#
# _framework density 19.048777999999999
#
# number of rings (size 3 to 8) (size 9 to 14) (size 15 to 20)
#    0.000    1.250    2.500    2.625    3.500    4.000 
#    0.000    0.000    0.000    0.000    0.000    0.000 
#    0.000    0.000    0.000    0.000    0.000    0.000 
#
# Total GULP energy -178913.325158 kJ/mol
# GULP energy per Si atom -5591.041411 kJ/mol
# Density = 1.900542 g / cm^3
# Si number density = 19.048778 Si / 1000 Ang^3
#
#
#
# Elastic Constant Matrix: (Units=GPa)
#
#
# Indices 1 2 3 4 5 6 
#
# 1 114.3532 54.6640 60.2270 0.0000 0.0000 0.0000
# 2 54.6640 80.5413 26.4753 0.0000 0.0000 0.0000
# 3 60.2270 26.4753 100.5717 0.0000 0.0000 0.0000
# 4 0.0000 0.0000 0.0000 19.6738 0.0000 0.0000
# 5 0.0000 0.0000 0.0000 0.0000 1072.6092 0.0000
# 6 0.0000 0.0000 0.0000 0.0000 0.0000 14.7509
#
#
#
# Elastic Compliance Matrix: (Units=1/GPa)
#
#
# Indices 1 2 3 4 5 6 
#
# 1 0.017297 -0.009124 -0.007956 0.000000 0.000000 0.000000
# 2 -0.009124 0.018405 0.000619 0.000000 0.000000 0.000000
# 3 -0.007956 0.000619 0.014545 0.000000 0.000000 0.000000
# 4 0.000000 0.000000 0.000000 0.050829 0.000000 0.000000
# 5 0.000000 0.000000 0.000000 0.000000 0.000932 0.000000
# 6 0.000000 0.000000 0.000000 0.000000 0.000000 0.067792
#
#
# Mechanical properties :
#
#
# Convention : Reuss Voigt Hill
#
# Bulk Modulus (GPa) = 57.72420 64.24429 60.98425
# Shear Modulus (GPa) = 23.98106 231.68013 127.83060
#
# Velocity S-wave (km/s) = 3.55199 11.04032 8.20077
# Velocity P-wave (km/s) = 6.86959 14.01134 11.03424
#
# Compressibility (1/GPa) = 0.01732376
#
# Stress axis : x y z
#
# Youngs Moduli (GPa) = 57.81434 54.33256 68.75309
#
# Poissons Ratio (x) = 0.49574 0.54701
# Poissons Ratio (y) = 0.52750 -0.04255
# Poissons Ratio (z) = 0.45998 -0.03362
#
# Static dielectric constant tensor:
#      x y z
#    x 1.545490 0.000000 0.000000 
#    y 0.000000 1.651320 0.000000 
#    z 0.000000 0.000000 1.627630 
# 
# From -- ./inp_files/13161.got.cif
#   From: 2010.05.17/outbox.cif.g08.bks.cpg/sg40_7_cif.got.tgz:13161.got - 2010.06.03 18:35:42.
