data_PCOD9365278
_publ_section_title
;
Structure prediction by ZEFSAII (Michael W. Deem and Ramdas Pophale) SiO2 
 PCOD9365278
Probable space group: A M A 2
;
_chemical_formula_sum "Si O2"
_cell_formula_units_Z 56
_cell_length_a 15.255126
_cell_length_b 5.093982
_cell_length_c 29.209522
_cell_angle_alpha 90.000000
_cell_angle_beta 90.000000
_cell_angle_gamma 90.000000
_cell_volume 2269.852596
_symmetry_space_group_name_H-M "A M A 2"
_symmetry_group_IT_number 40
_symmetry_cell_setting 'orthorhombic'
loop_
_space_group_symop_operation_xyz
x,y,z
-x,-y,z
1/2-x,y,z
1/2+x,-y,z
x,1/2+y,1/2+z
-x,1/2-y,1/2+z
1/2-x,1/2+y,1/2+z
1/2+x,1/2-y,1/2+z
loop_
_atom_site_type_symbol
_atom_site_label
_atom_site_fract_x
_atom_site_fract_y
_atom_site_fract_z
Si Si1 0.250000 0.033103 0.258320
Si Si2 0.500000 0.000000 0.477545
Si Si3 0.850322 0.117944 0.876383
Si Si4 0.845623 0.341956 0.467700
Si Si5 0.598125 0.417819 0.692325
Si Si6 0.587750 0.130160 0.051359
Si Si7 0.849526 0.435782 0.138768
Si Si8 0.406575 0.380691 0.824877
O O1 0.329563 0.179271 0.228648
O O2 0.329183 0.884789 0.287462
O O3 0.571884 0.170510 0.452978
O O4 0.447093 0.188539 0.510979
O O5 0.750000 0.078069 0.860598
O O6 0.877035 0.406235 0.862374
O O7 0.850361 0.075251 0.930788
O O8 0.906573 0.901948 0.849090
O O9 0.750000 0.215937 0.462070
O O10 0.856645 0.423083 0.521165
O O11 0.500000 0.500000 0.706530
O O12 0.592940 0.183727 0.654723
O O13 0.639408 0.687338 0.672462
O O14 0.631441 0.308694 0.089410
O O15 0.500000 0.000000 0.071813
O O16 0.750000 0.531878 0.138912
O O17 0.500000 0.500000 0.808773
#
# Coordination Sequence:
#
# PCOD9365278 Si02
#       8
#     4   4   8   8   8   8   8   8
#     4  12  26  56  76 114 150 188 252 316 384 468
#     4  10  24  42  66 104 140 202 240 320 344 432
#     4  11  24  48  72 112 154 198 250 309 371 444
#     4  10  24  43  71 106 151 202 254 306 369 435
#     4  12  28  48  79 109 147 196 243 310 383 458
#     4  10  24  42  67 103 151 203 251 309 363 439
#     4  12  25  48  73 111 150 194 250 308 371 447
#     4  12  27  46  80 110 149 199 245 312 376 458
#
# _framework density 24.671205
#
# number of rings (size 3 to 8) (size 9 to 14) (size 15 to 20)
#    0.000    0.857    2.857    2.143    9.000    5.714 
#    0.000    2.857    0.000    0.000    0.000    0.000 
#    0.000    0.000    0.000    0.000    0.000    0.000 
#
# Total GULP energy -156094.907913 kJ/mol
# GULP energy per Si atom -5574.818140 kJ/mol
# Density = 2.461505 g / cm^3
# Si number density = 24.671205 Si / 1000 Ang^3
#
#
#
# Elastic Constant Matrix: (Units=GPa)
#
#
# Indices 1 2 3 4 5 6 
#
# 1 145.0433 -5.0961 22.8854 0.0000 0.0000 0.0000
# 2 -5.0961 72.3318 8.5367 0.0000 0.0000 0.0000
# 3 22.8854 8.5367 69.9312 0.0000 0.0000 0.0000
# 4 0.0000 0.0000 0.0000 16.5836 0.0000 0.0000
# 5 0.0000 0.0000 0.0000 0.0000 46.8793 0.0000
# 6 0.0000 0.0000 0.0000 0.0000 0.0000 30.5416
#
#
#
# Elastic Compliance Matrix: (Units=1/GPa)
#
#
# Indices 1 2 3 4 5 6 
#
# 1 0.007316 0.000810 -0.002493 0.000000 0.000000 0.000000
# 2 0.000810 0.014117 -0.001988 0.000000 0.000000 0.000000
# 3 -0.002493 -0.001988 0.015358 0.000000 0.000000 0.000000
# 4 0.000000 0.000000 0.000000 0.060301 0.000000 0.000000
# 5 0.000000 0.000000 0.000000 0.000000 0.021331 0.000000
# 6 0.000000 0.000000 0.000000 0.000000 0.000000 0.032742
#
#
# Mechanical properties :
#
#
# Convention : Reuss Voigt Hill
#
# Bulk Modulus (GPa) = 33.95798 37.77314 35.86556
# Shear Modulus (GPa) = 29.70440 36.19958 32.95199
#
# Velocity S-wave (km/s) = 3.47365 3.83467 3.65861
# Velocity P-wave (km/s) = 5.46648 5.91186 5.69353
#
# Compressibility (1/GPa) = 0.02944816
#
# Stress axis : x y z
#
# Youngs Moduli (GPa) = 136.68076 70.83721 65.11102
#
# Poissons Ratio (x) = -0.05736 0.16233
# Poissons Ratio (y) = -0.11067 0.12946
# Poissons Ratio (z) = 0.34077 0.14084
#
# Static dielectric constant tensor:
#      x y z
#    x 1.904510 0.000000 0.000000 
#    y 0.000000 2.034410 0.000000 
#    z 0.000000 0.000000 1.993030 
# 
# From -- ./inp_files/26617.got.cif
#   From: 2010.05.17/outbox.cif.g08.bks.cpg/sg40_14_cif.got.tgz:26617.got - 2010.06.03 18:35:42.
