data_PCOD9365938
_publ_section_title
;
Structure prediction by ZEFSAII (Michael W. Deem and Ramdas Pophale) SiO2 
 PCOD9365938
Probable space group: A B A 2
;
_chemical_formula_sum "Si O2"
_cell_formula_units_Z 56
_cell_length_a 14.959039
_cell_length_b 19.936295
_cell_length_c 8.931261
_cell_angle_alpha 90.000000
_cell_angle_beta 90.000000
_cell_angle_gamma 90.000000
_cell_volume 2663.550448
_symmetry_space_group_name_H-M "A B A 2"
_symmetry_group_IT_number 41
_symmetry_cell_setting 'orthorhombic'
loop_
_space_group_symop_operation_xyz
x,y,z
-x,-y,z
1/2-x,y,1/2+z
1/2+x,-y,1/2+z
x,1/2+y,1/2+z
-x,1/2-y,1/2+z
1/2-x,1/2+y,z
1/2+x,1/2-y,z
loop_
_atom_site_type_symbol
_atom_site_label
_atom_site_fract_x
_atom_site_fract_y
_atom_site_fract_z
Si Si1 0.776067 0.973857 0.287850
Si Si2 0.018884 0.695228 0.394814
Si Si3 0.324433 0.818497 0.510380
Si Si4 0.179108 0.435335 0.048020
Si Si5 0.182930 0.117233 0.039532
Si Si6 0.444989 0.315926 0.586973
Si Si7 0.769661 0.256939 0.725186
O O1 0.836678 0.940685 0.159976
O O2 0.733725 0.918754 0.401873
O O3 0.829242 0.020805 0.400263
O O4 0.704698 0.018672 0.191756
O O5 0.098803 0.655020 0.470389
O O6 0.023862 0.773010 0.445372
O O7 0.924056 0.668138 0.456868
O O8 0.017829 0.686979 0.217322
O O9 0.261764 0.883910 0.514874
O O10 0.315218 0.786114 0.673317
O O11 0.283831 0.760683 0.399103
O O12 0.091411 0.390336 0.066392
O O13 0.234228 0.170664 0.147818
O O14 0.358094 0.277118 0.653207
#
# Coordination Sequence:
#
# PCOD9365938 Si02
#       7
#     8   8   8   8   8   8   8
#     4  10  21  37  61  82 112 162 205 234 270 347
#     4  10  21  37  59  90 118 142 180 245 310 345
#     4  10  19  34  61  87 111 142 185 240 295 346
#     4  10  20  39  61  86 114 155 203 235 277 354
#     4  10  21  38  59  86 118 154 198 242 290 347
#     4   9  20  36  57  84 115 144 181 236 297 350
#     4   9  18  33  56  85 110 141 183 230 289 351
#
# _framework density 21.024567999999999
#
# number of rings (size 3 to 8) (size 9 to 14) (size 15 to 20)
#    0.000    2.286    0.000    3.429    0.000    5.714 
#    0.000    9.286    0.000    6.857    0.000    0.000 
#    0.000    0.000    0.000    0.000    0.000    0.000 
#
# Total GULP energy -156103.190039 kJ/mol
# GULP energy per Si atom -5575.113930 kJ/mol
# Density = 2.097672 g / cm^3
# Si number density = 21.024568 Si / 1000 Ang^3
#
#
#
# Elastic Constant Matrix: (Units=GPa)
#
#
# Indices 1 2 3 4 5 6 
#
# 1 33.8668 18.7843 18.9079 0.0000 0.0000 0.0000
# 2 18.7843 102.5637 57.5265 0.0000 0.0000 0.0000
# 3 18.9079 57.5265 120.9183 0.0000 0.0000 0.0000
# 4 0.0000 0.0000 0.0000 44.0106 0.0000 0.0000
# 5 0.0000 0.0000 0.0000 0.0000 24.6158 0.0000
# 6 0.0000 0.0000 0.0000 0.0000 0.0000 13.5548
#
#
#
# Elastic Compliance Matrix: (Units=1/GPa)
#
#
# Indices 1 2 3 4 5 6 
#
# 1 0.033743 -0.004393 -0.003187 0.000000 0.000000 0.000000
# 2 -0.004393 0.013870 -0.005912 0.000000 0.000000 0.000000
# 3 -0.003187 -0.005912 0.011581 0.000000 0.000000 0.000000
# 4 0.000000 0.000000 0.000000 0.022722 0.000000 0.000000
# 5 0.000000 0.000000 0.000000 0.000000 0.040624 0.000000
# 6 0.000000 0.000000 0.000000 0.000000 0.000000 0.073775
#
#
# Mechanical properties :
#
#
# Convention : Reuss Voigt Hill
#
# Bulk Modulus (GPa) = 31.04434 49.75400 40.39917
# Shear Modulus (GPa) = 21.36433 27.24490 24.30462
#
# Velocity S-wave (km/s) = 3.19119 3.60371 3.40370
# Velocity P-wave (km/s) = 5.32691 6.40560 5.89100
#
# Compressibility (1/GPa) = 0.03221199
#
# Stress axis : x y z
#
# Youngs Moduli (GPa) = 29.63586 72.09564 86.34889
#
# Poissons Ratio (x) = 0.31669 0.27516
# Poissons Ratio (y) = 0.13018 0.51049
# Poissons Ratio (z) = 0.09444 0.42623
#
# Static dielectric constant tensor:
#      x y z
#    x 1.749100 0.000000 0.000000 
#    y 0.000000 1.814140 0.000000 
#    z 0.000000 0.000000 1.780730 
# 
# From -- ./inp_files/3199.got.cif
#   From: 2010.05.17/outbox.cif.g08.bks.cpg/sg41_2_cif.got.tgz:3199.got - 2010.06.03 18:54:24.
