data_PCOD9365015
_publ_section_title
;
Structure prediction by ZEFSAII (Michael W. Deem and Ramdas Pophale) SiO2 
 PCOD9365015
Probable space group: A M A 2
;
_chemical_formula_sum "Si O2"
_cell_formula_units_Z 60
_cell_length_a 27.308381
_cell_length_b 15.471606
_cell_length_c 6.718595
_cell_angle_alpha 90.000000
_cell_angle_beta 90.000000
_cell_angle_gamma 90.000000
_cell_volume 2838.636697
_symmetry_space_group_name_H-M "A M A 2"
_symmetry_group_IT_number 40
_symmetry_cell_setting 'orthorhombic'
loop_
_space_group_symop_operation_xyz
x,y,z
-x,-y,z
1/2-x,y,z
1/2+x,-y,z
x,1/2+y,1/2+z
-x,1/2-y,1/2+z
1/2-x,1/2+y,1/2+z
1/2+x,1/2-y,1/2+z
loop_
_atom_site_type_symbol
_atom_site_label
_atom_site_fract_x
_atom_site_fract_y
_atom_site_fract_z
Si Si1 0.437796 0.426148 0.097740
Si Si2 0.118923 0.090719 0.577267
Si Si3 0.694258 0.988722 0.275501
Si Si4 0.149001 0.832534 0.386459
Si Si5 0.011537 0.640735 0.438988
Si Si6 0.806851 0.851712 0.916435
Si Si7 0.930374 0.253311 0.143547
Si Si8 0.000000 0.000000 0.241390
O O1 0.417106 0.518748 0.165649
O O2 0.476636 0.391894 0.257552
O O3 0.390182 0.368098 0.049736
O O4 0.464975 0.446242 0.888560
O O5 0.151092 0.048826 0.408360
O O6 0.157076 0.123655 0.738988
O O7 0.087321 0.170877 0.498670
O O8 0.750000 0.973581 0.347276
O O9 0.684025 0.091720 0.300245
O O10 0.690162 0.930909 0.074758
O O11 0.176234 0.746802 0.469338
O O12 0.114586 0.806961 0.199614
O O13 0.976778 0.704305 0.563042
O O14 0.054925 0.695450 0.344026
O O15 0.026683 0.565416 0.590464
O O16 0.750000 0.846670 0.856034
#
# Coordination Sequence:
#
# PCOD9365015 Si02
#       8
#     8   8   8   8   8   8   8   4
#     4  11  24  41  63  95 121 176 220 270 340 387
#     4  10  23  39  64  91 128 159 218 267 327 402
#     4  10  22  41  68  96 127 168 211 271 339 401
#     4  10  22  42  63  96 130 166 219 270 327 405
#     4  12  26  42  64  91 135 170 226 280 327 393
#     4  10  22  41  66  94 128 170 209 267 340 403
#     4  11  24  40  62  93 123 178 211 273 330 386
#     4  12  24  44  64  86 132 172 228 278 328 396
#
# _framework density 21.136908999999999
#
# number of rings (size 3 to 8) (size 9 to 14) (size 15 to 20)
#    0.000    1.333    1.333    3.600    5.600    4.267 
#    0.000    0.000    0.000    8.000    0.000    0.000 
#    0.000    0.000    0.000    0.000    0.000    0.000 
#
# Total GULP energy -167446.424072 kJ/mol
# GULP energy per Si atom -5581.547469 kJ/mol
# Density = 2.108880 g / cm^3
# Si number density = 21.136909 Si / 1000 Ang^3
#
#
#
# Elastic Constant Matrix: (Units=GPa)
#
#
# Indices 1 2 3 4 5 6 
#
# 1 52.5887 -4.9638 0.5213 0.0000 0.0000 0.0000
# 2 -4.9638 67.0934 14.4580 0.0000 0.0000 0.0000
# 3 0.5213 14.4580 48.5377 0.0000 0.0000 0.0000
# 4 0.0000 0.0000 0.0000 28.9373 0.0000 0.0000
# 5 0.0000 0.0000 0.0000 0.0000 20.5969 0.0000
# 6 0.0000 0.0000 0.0000 0.0000 0.0000 94.4620
#
#
#
# Elastic Compliance Matrix: (Units=1/GPa)
#
#
# Indices 1 2 3 4 5 6 
#
# 1 0.019170 0.001563 -0.000671 0.000000 0.000000 0.000000
# 2 0.001563 0.016054 -0.004799 0.000000 0.000000 0.000000
# 3 -0.000671 -0.004799 0.022039 0.000000 0.000000 0.000000
# 4 0.000000 0.000000 0.000000 0.034557 0.000000 0.000000
# 5 0.000000 0.000000 0.000000 0.000000 0.048551 0.000000
# 6 0.000000 0.000000 0.000000 0.000000 0.000000 0.010586
#
#
# Mechanical properties :
#
#
# Convention : Reuss Voigt Hill
#
# Bulk Modulus (GPa) = 20.22311 20.91676 20.56993
# Shear Modulus (GPa) = 28.52975 39.34620 33.93798
#
# Velocity S-wave (km/s) = 3.67789 4.31918 4.01137
# Velocity P-wave (km/s) = 5.25588 5.89840 5.58639
#
# Compressibility (1/GPa) = 0.04944839
#
# Stress axis : x y z
#
# Youngs Moduli (GPa) = 52.16570 62.28841 45.37367
#
# Poissons Ratio (x) = -0.09735 0.03047
# Poissons Ratio (y) = -0.08153 0.21775
# Poissons Ratio (z) = 0.03503 0.29892
#
# Static dielectric constant tensor:
#      x y z
#    x 1.724000 0.000000 0.000000 
#    y 0.000000 1.873460 0.000000 
#    z 0.000000 0.000000 1.756060 
# 
# From -- ./inp_files/3182.got.cif
#   From: 2010.05.17/outbox.cif.g08.bks.cpg/sg40_2_cif.got.tgz:3182.got - 2010.06.03 18:35:42.
