data_PCOD9365677
_publ_section_title
;
Structure prediction by ZEFSAII (Michael W. Deem and Ramdas Pophale) SiO2 
 PCOD9365677
Probable space group: A M A 2
;
_chemical_formula_sum "Si O2"
_cell_formula_units_Z 32
_cell_length_a 18.000000
_cell_length_b 30.000000
_cell_length_c 6.000000
_cell_angle_alpha 90.000000
_cell_angle_beta 90.000000
_cell_angle_gamma 90.000000
_cell_volume 3240.000000
_symmetry_space_group_name_H-M "A M A 2"
_symmetry_group_IT_number 40
_symmetry_cell_setting 'orthorhombic'
loop_
_space_group_symop_operation_xyz
x,y,z
-x,-y,z
1/2-x,y,z
1/2+x,-y,z
x,1/2+y,1/2+z
-x,1/2-y,1/2+z
1/2-x,1/2+y,1/2+z
1/2+x,1/2-y,1/2+z
loop_
_atom_site_type_symbol
_atom_site_label
_atom_site_fract_x
_atom_site_fract_y
_atom_site_fract_z
Si Si1 0.580524 0.994439 0.508300
Si Si2 0.483959 0.271126 0.133643
Si Si3 0.839488 0.677033 0.258052
Si Si4 0.050524 0.142851 0.469126
Si Si5 0.044549 0.572955 0.357294
Si Si6 0.334069 0.915609 0.488055
Si Si7 0.422858 0.876694 0.116649
Si Si8 0.838692 0.415330 0.738586
O O1 0.563947 0.974028 0.750514
O O2 0.631767 0.959480 0.371881
O O3 0.500000 0.000000 0.391857
O O4 0.614996 0.042671 0.541930
O O5 0.502686 0.251765 0.385364
O O6 0.396993 0.287664 0.146328
O O7 0.540170 0.312702 0.108201
O O8 0.750000 0.688280 0.277229
O O9 0.843223 0.629873 0.126671
O O10 0.883586 0.663088 0.482532
O O11 0.035130 0.103362 0.639866
O O12 0.128997 0.128707 0.363212
O O13 0.985364 0.142655 0.284299
O O14 0.115567 0.585159 0.508058
O O15 0.970345 0.585358 0.490248
O O16 0.250000 0.930428 0.509051
O O17 0.356425 0.901215 0.241140
O O18 0.750000 0.415768 0.718915
#
# Coordination Sequence:
#
# PCOD9365677 Si02
#       8
#     8   8   8   8   8   8   8   8
#     4  11  22  38  57  92 127 174 230 288 334 406
#     4  12  26  46  77 109 138 183 232 296 359 437
#     4  11  24  43  69 102 139 179 221 281 357 421
#     4  10  21  41  67  96 127 175 225 276 339 429
#     4  10  21  36  66  87 129 175 226 278 334 410
#     4  11  23  37  60  92 133 175 217 277 339 405
#     4  11  18  39  65  93 128 178 226 270 342 419
#     4  10  23  40  63  92 131 182 232 286 346 404
#
# _framework density 9.8765429999999999
#
# number of rings (size 3 to 8) (size 9 to 14) (size 15 to 20)
#    0.000    1.250    2.500    4.500    1.750    5.000 
#    0.000    3.750    0.000    0.000    0.000    0.000 
#    0.000    0.000    0.000    0.000    0.000    0.000 
#
# Total GULP energy -178230.348211 kJ/mol
# GULP energy per Si atom -5569.698382 kJ/mol
# Density = 0.985406 g / cm^3
# Si number density = 9.876543 Si / 1000 Ang^3
#
#
#
# Elastic Constant Matrix: (Units=GPa)
#
#
# Indices 1 2 3 4 5 6 
#
# 1 156.7390 49.6552 44.7357 0.0000 0.0000 0.0000
# 2 49.6552 70.4169 26.9235 0.0000 0.0000 0.0000
# 3 44.7357 26.9235 81.0194 0.0000 0.0000 0.0000
# 4 0.0000 0.0000 0.0000 16.9493 0.0000 0.0000
# 5 0.0000 0.0000 0.0000 0.0000 13.0344 0.0000
# 6 0.0000 0.0000 0.0000 0.0000 0.0000 21.6483
#
#
#
# Elastic Compliance Matrix: (Units=1/GPa)
#
#
# Indices 1 2 3 4 5 6 
#
# 1 0.008901 -0.005037 -0.003241 0.000000 0.000000 0.000000
# 2 -0.005037 0.019119 -0.003572 0.000000 0.000000 0.000000
# 3 -0.003241 -0.003572 0.015319 0.000000 0.000000 0.000000
# 4 0.000000 0.000000 0.000000 0.059000 0.000000 0.000000
# 5 0.000000 0.000000 0.000000 0.000000 0.076720 0.000000
# 6 0.000000 0.000000 0.000000 0.000000 0.000000 0.046193
#
#
# Mechanical properties :
#
#
# Convention : Reuss Voigt Hill
#
# Bulk Modulus (GPa) = 50.91966 61.20045 56.06006
# Shear Modulus (GPa) = 19.56960 22.78378 21.17669
#
# Velocity S-wave (km/s) = 3.15097 3.39990 3.27780
# Velocity P-wave (km/s) = 6.25078 6.81634 6.53967
#
# Compressibility (1/GPa) = 0.01963878
#
# Stress axis : x y z
#
# Youngs Moduli (GPa) = 112.34875 52.30381 65.27799
#
# Poissons Ratio (x) = 0.26348 0.21155
# Poissons Ratio (y) = 0.56595 0.23317
# Poissons Ratio (z) = 0.36409 0.18683
#
# Static dielectric constant tensor:
#      x y z
#    x 1.688510 0.000000 0.000000 
#    y 0.000000 1.919800 0.000000 
#    z 0.000000 0.000000 1.788990 
# 
# From -- ./inp_files/2020.got.cif
#   From: 2010.05.17/outbox.ucp.g08.bks.cvg/sg40_2_cif.got.tgz:2020.got - 2010.06.11 16:26:39.
