data_PCOD9365633
_publ_section_title
;
Structure prediction by ZEFSAII (Michael W. Deem and Ramdas Pophale) SiO2 
 PCOD9365633
Probable space group: A M A 2
;
_chemical_formula_sum "Si O2"
_cell_formula_units_Z 24
_cell_length_a 9.000000
_cell_length_b 24.000000
_cell_length_c 12.000000
_cell_angle_alpha 90.000000
_cell_angle_beta 90.000000
_cell_angle_gamma 90.000000
_cell_volume 2592.000000
_symmetry_space_group_name_H-M "A M A 2"
_symmetry_group_IT_number 40
_symmetry_cell_setting 'orthorhombic'
loop_
_space_group_symop_operation_xyz
x,y,z
-x,-y,z
1/2-x,y,z
1/2+x,-y,z
x,1/2+y,1/2+z
-x,1/2-y,1/2+z
1/2-x,1/2+y,1/2+z
1/2+x,1/2-y,1/2+z
loop_
_atom_site_type_symbol
_atom_site_label
_atom_site_fract_x
_atom_site_fract_y
_atom_site_fract_z
Si Si1 0.431078 0.436729 0.298410
Si Si2 0.927327 0.854404 0.369222
Si Si3 0.928914 0.270518 0.669629
Si Si4 0.070384 0.151420 0.630897
Si Si5 0.080414 0.442886 0.722301
Si Si6 0.578627 0.640487 0.512996
O O1 0.500000 0.500000 0.306788
O O2 0.250000 0.441202 0.293288
O O3 0.496662 0.401489 0.193844
O O4 0.467842 0.395837 0.404594
O O5 0.750000 0.859667 0.361425
O O6 0.968492 0.804870 0.282743
O O7 0.964914 0.847280 0.498596
O O8 0.001556 0.909677 0.320879
O O9 0.750000 0.265449 0.663728
O O10 0.004401 0.209985 0.674960
O O11 0.986529 0.307063 0.562901
O O12 0.250000 0.149573 0.644419
O O13 0.250000 0.453923 0.751908
O O14 0.076197 0.403474 0.614336
O O15 0.000000 0.500000 0.696582
O O16 0.750000 0.658984 0.494392
#
# Coordination Sequence:
#
# PCOD9365633 Si02
#       6
#     8   8   8   8   8   8
#     4  11  24  42  63  89 124 164 208 253 304 363
#     4   9  21  40  58  80 114 152 192 240 292 351
#     4  10  21  38  62  91 119 152 197 248 304 361
#     4  11  24  41  61  86 119 160 201 246 302 361
#     4  10  19  33  57  86 115 149 190 237 290 346
#     4   9  20  38  60  88 121 157 196 246 299 354
#
# _framework density 9.2592590000000001
#
# number of rings (size 3 to 8) (size 9 to 14) (size 15 to 20)
#    0.000    2.000    0.000    2.500    2.333    4.667 
#    0.000    0.000    0.000    0.000    0.000    0.000 
#    0.000    0.000    0.000    0.000    0.000    0.000 
#
# Total GULP energy -133918.153107 kJ/mol
# GULP energy per Si atom -5579.923046 kJ/mol
# Density = 0.923818 g / cm^3
# Si number density = 9.259259 Si / 1000 Ang^3
#
#
#
# Elastic Constant Matrix: (Units=GPa)
#
#
# Indices 1 2 3 4 5 6 
#
# 1 45.9294 36.2066 36.9477 0.0000 0.0000 0.0000
# 2 36.2066 96.2471 24.1387 0.0000 0.0000 0.0000
# 3 36.9477 24.1387 98.5469 0.0000 0.0000 0.0000
# 4 0.0000 0.0000 0.0000 26.2114 0.0000 0.0000
# 5 0.0000 0.0000 0.0000 0.0000 26.1337 0.0000
# 6 0.0000 0.0000 0.0000 0.0000 0.0000 42.4727
#
#
#
# Elastic Compliance Matrix: (Units=1/GPa)
#
#
# Indices 1 2 3 4 5 6 
#
# 1 0.041818 -0.012571 -0.012599 0.000000 0.000000 0.000000
# 2 -0.012571 0.014849 0.001076 0.000000 0.000000 0.000000
# 3 -0.012599 0.001076 0.014608 0.000000 0.000000 0.000000
# 4 0.000000 0.000000 0.000000 0.038151 0.000000 0.000000
# 5 0.000000 0.000000 0.000000 0.000000 0.038265 0.000000
# 6 0.000000 0.000000 0.000000 0.000000 0.000000 0.023545
#
#
# Mechanical properties :
#
#
# Convention : Reuss Voigt Hill
#
# Bulk Modulus (GPa) = 43.31685 48.36769 45.84227
# Shear Modulus (GPa) = 22.01474 28.52558 25.27016
#
# Velocity S-wave (km/s) = 3.45163 3.92903 3.69804
# Velocity P-wave (km/s) = 6.27112 6.83800 6.56068
#
# Compressibility (1/GPa) = 0.02308570
#
# Stress axis : x y z
#
# Youngs Moduli (GPa) = 23.91299 67.34359 68.45707
#
# Poissons Ratio (x) = 0.84661 0.86252
# Poissons Ratio (y) = 0.30062 -0.07367
# Poissons Ratio (z) = 0.30129 -0.07247
#
# Static dielectric constant tensor:
#      x y z
#    x 1.635800 0.000000 0.000000 
#    y 0.000000 1.612190 0.000000 
#    z 0.000000 0.000000 1.649400 
# 
# From -- ./inp_files/10244.got.cif
#   From: 2010.05.17/outbox.ucp.g08.bks.cvg/sg40_6_cif.got.tgz:10244.got - 2010.06.11 16:26:39.
