data_PCOD9365108
_publ_section_title
;
Structure prediction by ZEFSAII (Michael W. Deem and Ramdas Pophale) SiO2 
 PCOD9365108
Probable space group: A M A 2
;
_chemical_formula_sum "Si O2"
_cell_formula_units_Z 28
_cell_length_a 14.599659
_cell_length_b 5.337985
_cell_length_c 13.869974
_cell_angle_alpha 90.000000
_cell_angle_beta 90.000000
_cell_angle_gamma 90.000000
_cell_volume 1080.925365
_symmetry_space_group_name_H-M "A M A 2"
_symmetry_group_IT_number 40
_symmetry_cell_setting 'orthorhombic'
loop_
_space_group_symop_operation_xyz
x,y,z
-x,-y,z
1/2-x,y,z
1/2+x,-y,z
x,1/2+y,1/2+z
-x,1/2-y,1/2+z
1/2-x,1/2+y,1/2+z
1/2+x,1/2-y,1/2+z
loop_
_atom_site_type_symbol
_atom_site_label
_atom_site_fract_x
_atom_site_fract_y
_atom_site_fract_z
Si Si1 0.250000 0.843717 0.308180
Si Si2 0.593812 0.405923 0.182250
Si Si3 0.750000 0.569013 0.461142
Si Si4 0.446453 0.750986 0.971504
Si Si5 0.750000 0.788065 0.153515
O O1 0.341364 0.736138 0.256163
O O2 0.250000 0.705851 0.411088
O O3 0.250000 0.121764 0.263986
O O4 0.500000 0.500000 0.228739
O O5 0.561053 0.256928 0.088073
O O6 0.658827 0.625389 0.140357
O O7 0.658153 0.721388 0.437487
O O8 0.750000 0.509901 0.575769
O O9 0.500000 0.500000 0.940845
O O10 0.500000 0.000000 0.944915
#
# Coordination Sequence:
#
# PCOD9365108 Si02
#       5
#     4   8   4   8   4
#     4  11  25  41  70 110 140 195 252 305 393 438
#     4  10  22  43  71 100 149 192 255 309 381 458
#     4  12  23  46  76 107 162 193 253 339 370 468
#     4  11  24  44  77 112 145 214 261 309 399 465
#     4  11  22  47  68 111 144 206 253 308 397 462
#
# _framework density 25.903732000000002
#
# number of rings (size 3 to 8) (size 9 to 14) (size 15 to 20)
#    0.000    1.143    2.857    4.286    0.000    2.286 
#   20.571    0.000    0.000    0.000    0.000    0.000 
#    0.000    0.000    0.000    0.000    0.000    0.000 
#
# Total GULP energy -78441.159523 kJ/mol
# GULP energy per Si atom -5602.939966 kJ/mol
# Density = 2.584477 g / cm^3
# Si number density = 25.903732 Si / 1000 Ang^3
#
#
#
# Elastic Constant Matrix: (Units=GPa)
#
#
# Indices 1 2 3 4 5 6 
#
# 1 238.4635 77.3672 23.0657 0.0000 0.0000 0.0000
# 2 77.3672 132.0689 18.9967 0.0000 0.0000 0.0000
# 3 23.0657 18.9967 123.0485 0.0000 0.0000 0.0000
# 4 0.0000 0.0000 0.0000 21.6655 0.0000 0.0000
# 5 0.0000 0.0000 0.0000 0.0000 17.4340 0.0000
# 6 0.0000 0.0000 0.0000 0.0000 0.0000 18.9155
#
#
#
# Elastic Compliance Matrix: (Units=1/GPa)
#
#
# Indices 1 2 3 4 5 6 
#
# 1 0.005210 -0.002977 -0.000517 0.000000 0.000000 0.000000
# 2 -0.002977 0.009445 -0.000900 0.000000 0.000000 0.000000
# 3 -0.000517 -0.000900 0.008363 0.000000 0.000000 0.000000
# 4 0.000000 0.000000 0.000000 0.046156 0.000000 0.000000
# 5 0.000000 0.000000 0.000000 0.000000 0.057359 0.000000
# 6 0.000000 0.000000 0.000000 0.000000 0.000000 0.052867
#
#
# Mechanical properties :
#
#
# Convention : Reuss Voigt Hill
#
# Bulk Modulus (GPa) = 70.27946 81.38224 75.83085
# Shear Modulus (GPa) = 25.91596 36.54645 31.23120
#
# Velocity S-wave (km/s) = 3.16646 3.76021 3.47603
# Velocity P-wave (km/s) = 6.36856 7.09490 6.74152
#
# Compressibility (1/GPa) = 0.01422891
#
# Stress axis : x y z
#
# Youngs Moduli (GPa) = 191.95674 105.87077 119.57823
#
# Poissons Ratio (x) = 0.31522 0.06181
# Poissons Ratio (y) = 0.57154 0.10763
# Poissons Ratio (z) = 0.09922 0.09529
#
# Static dielectric constant tensor:
#      x y z
#    x 1.992620 0.000000 0.000000 
#    y 0.000000 2.090340 0.000000 
#    z 0.000000 0.000000 1.980120 
# 
# From -- ./inp_files/20256.got.cif
#   From: 2010.05.17/outbox.cif.g08.bks.cpg/sg40_11_cif.got.tgz:20256.got - 2010.06.03 18:35:42.
