data_PCOD9365869
_publ_section_title
;
Structure prediction by ZEFSAII (Michael W. Deem and Ramdas Pophale) SiO2 
 PCOD9365869
Probable space group: A B A 2
;
_chemical_formula_sum "Si O2"
_cell_formula_units_Z 60
_cell_length_a 21.610497
_cell_length_b 11.210831
_cell_length_c 9.675376
_cell_angle_alpha 90.000000
_cell_angle_beta 90.000000
_cell_angle_gamma 90.000000
_cell_volume 2344.069111
_symmetry_space_group_name_H-M "A B A 2"
_symmetry_group_IT_number 41
_symmetry_cell_setting 'orthorhombic'
loop_
_space_group_symop_operation_xyz
x,y,z
-x,-y,z
1/2-x,y,1/2+z
1/2+x,-y,1/2+z
x,1/2+y,1/2+z
-x,1/2-y,1/2+z
1/2-x,1/2+y,z
1/2+x,1/2-y,z
loop_
_atom_site_type_symbol
_atom_site_label
_atom_site_fract_x
_atom_site_fract_y
_atom_site_fract_z
Si Si1 0.626601 0.078869 0.727310
Si Si2 0.352755 0.973662 0.420826
Si Si3 0.211307 0.641025 0.738267
Si Si4 0.138603 0.352167 0.127941
Si Si5 0.428847 0.189450 0.296834
Si Si6 0.783761 0.934345 0.510989
Si Si7 0.500000 0.000000 0.698355
Si Si8 0.505614 0.742888 0.551632
O O1 0.622875 0.207327 0.793509
O O2 0.564417 0.012346 0.778380
O O3 0.622145 0.086708 0.560514
O O4 0.683965 0.993163 0.748515
O O5 0.399282 0.079693 0.376430
O O6 0.353591 0.894448 0.285240
O O7 0.283356 0.015935 0.460419
O O8 0.173211 0.724840 0.635528
O O9 0.276162 0.625420 0.661894
O O10 0.205079 0.670141 0.899227
O O11 0.170430 0.454455 0.035015
O O12 0.068440 0.326474 0.089326
O O13 0.487983 0.237222 0.386691
O O14 0.451925 0.175719 0.138529
O O15 0.493709 0.122913 0.613677
#
# Coordination Sequence:
#
# PCOD9365869 Si02
#       8
#     8   8   8   8   8   8   4   8
#     4  10  22  42  76  98 147 192 242 300 383 457
#     4  11  25  46  73 109 146 199 251 319 384 459
#     4  11  24  44  70 102 139 186 243 310 367 449
#     4  12  26  44  72 109 148 190 255 313 382 456
#     4  11  25  46  76 110 147 202 255 307 401 464
#     4  11  25  46  69 105 142 197 244 311 377 446
#     4  10  18  42  68 104 136 200 228 294 388 442
#     4  11  24  44  74 108 151 195 246 321 372 483
#
# _framework density 25.596516000000001
#
# number of rings (size 3 to 8) (size 9 to 14) (size 15 to 20)
#    0.000    1.067    4.000    1.600    5.600    3.733 
#    0.000    2.667    0.000    0.000    0.000    0.000 
#    0.000    0.000    0.000    0.000    0.000    0.000 
#
# Total GULP energy -167660.858075 kJ/mol
# GULP energy per Si atom -5588.695269 kJ/mol
# Density = 2.553826 g / cm^3
# Si number density = 25.596516 Si / 1000 Ang^3
#
#
#
# Elastic Constant Matrix: (Units=GPa)
#
#
# Indices 1 2 3 4 5 6 
#
# 1 79.0120 10.6680 6.3617 0.0000 0.0000 0.0000
# 2 10.6680 55.6742 34.7065 0.0000 0.0000 0.0000
# 3 6.3617 34.7065 111.3145 0.0000 0.0000 0.0000
# 4 0.0000 0.0000 0.0000 26.2713 0.0000 0.0000
# 5 0.0000 0.0000 0.0000 0.0000 41.5983 0.0000
# 6 0.0000 0.0000 0.0000 0.0000 0.0000 25.0502
#
#
#
# Elastic Compliance Matrix: (Units=1/GPa)
#
#
# Indices 1 2 3 4 5 6 
#
# 1 0.012993 -0.002516 0.000042 0.000000 0.000000 0.000000
# 2 -0.002516 0.022782 -0.006959 0.000000 0.000000 0.000000
# 3 0.000042 -0.006959 0.011151 0.000000 0.000000 0.000000
# 4 0.000000 0.000000 0.000000 0.038064 0.000000 0.000000
# 5 0.000000 0.000000 0.000000 0.000000 0.024039 0.000000
# 6 0.000000 0.000000 0.000000 0.000000 0.000000 0.039920
#
#
# Mechanical properties :
#
#
# Convention : Reuss Voigt Hill
#
# Bulk Modulus (GPa) = 35.63892 38.83037 37.23465
# Shear Modulus (GPa) = 28.22167 31.53493 29.87830
#
# Velocity S-wave (km/s) = 3.32408 3.51380 3.42025
# Velocity P-wave (km/s) = 5.35596 5.62721 5.49326
#
# Compressibility (1/GPa) = 0.02805921
#
# Stress axis : x y z
#
# Youngs Moduli (GPa) = 76.96696 43.89416 89.67786
#
# Poissons Ratio (x) = 0.11042 -0.00375
# Poissons Ratio (y) = 0.19362 0.62410
# Poissons Ratio (z) = -0.00322 0.30548
#
# Static dielectric constant tensor:
#      x y z
#    x 2.022940 0.000000 0.000000 
#    y 0.000000 2.103450 0.000000 
#    z 0.000000 0.000000 2.184380 
# 
# From -- ./inp_files/3809.got.cif
#   From: 2010.05.17/outbox.cif.g08.bks.cpg/sg41_2_cif.got.tgz:3809.got - 2010.06.03 18:54:24.
