data_PCOD9365013
_publ_section_title
;
Structure prediction by ZEFSAII (Michael W. Deem and Ramdas Pophale) SiO2 
 PCOD9365013
Probable space group: A M A 2
;
_chemical_formula_sum "Si O2"
_cell_formula_units_Z 28
_cell_length_a 14.619092
_cell_length_b 10.057122
_cell_length_c 8.931157
_cell_angle_alpha 90.000000
_cell_angle_beta 90.000000
_cell_angle_gamma 90.000000
_cell_volume 1313.112216
_symmetry_space_group_name_H-M "A M A 2"
_symmetry_group_IT_number 40
_symmetry_cell_setting 'orthorhombic'
loop_
_space_group_symop_operation_xyz
x,y,z
-x,-y,z
1/2-x,y,z
1/2+x,-y,z
x,1/2+y,1/2+z
-x,1/2-y,1/2+z
1/2-x,1/2+y,1/2+z
1/2+x,1/2-y,1/2+z
loop_
_atom_site_type_symbol
_atom_site_label
_atom_site_fract_x
_atom_site_fract_y
_atom_site_fract_z
Si Si1 0.750000 0.362027 0.129761
Si Si2 0.553805 0.635503 0.378943
Si Si3 0.750000 0.211008 0.827559
Si Si4 0.092867 0.801212 0.223846
Si Si5 0.750000 0.509590 0.839786
O O1 0.841656 0.329808 0.218037
O O2 0.750000 0.241211 0.006592
O O3 0.750000 0.486067 0.019020
O O4 0.500000 0.500000 0.349518
O O5 0.654239 0.639123 0.302834
O O6 0.495739 0.760054 0.316967
O O7 0.564202 0.655708 0.557323
O O8 0.750000 0.362110 0.766200
O O9 0.158910 0.912444 0.294005
#
# Coordination Sequence:
#
# PCOD9365013 Si02
#       5
#     4   8   4   8   4
#     4   7  17  39  62  92 131 160 217 264 301 388
#     4  11  25  41  64  95 135 164 219 270 318 392
#     4   8  20  42  59  94 126 169 211 269 310 376
#     4  10  22  41  65  98 126 174 214 266 325 380
#     4   9  19  41  71  90 131 173 218 259 317 394
#
# _framework density 21.323385999999999
#
# number of rings (size 3 to 8) (size 9 to 14) (size 15 to 20)
#    0.857    1.714    0.000    0.857    4.000    4.571 
#    0.000    2.857    0.000    0.000    0.000    0.000 
#    0.000    0.000    0.000    0.000    0.000    0.000 
#
# Total GULP energy -78031.598991 kJ/mol
# GULP energy per Si atom -5573.685642 kJ/mol
# Density = 2.127485 g / cm^3
# Si number density = 21.323386 Si / 1000 Ang^3
#
#
#
# Elastic Constant Matrix: (Units=GPa)
#
#
# Indices 1 2 3 4 5 6 
#
# 1 181.1946 82.1603 37.1157 0.0000 0.0000 0.0000
# 2 82.1603 130.0178 33.1300 0.0000 0.0000 0.0000
# 3 37.1157 33.1300 40.1374 0.0000 0.0000 0.0000
# 4 0.0000 0.0000 0.0000 29.3433 0.0000 0.0000
# 5 0.0000 0.0000 0.0000 0.0000 28.7186 0.0000
# 6 0.0000 0.0000 0.0000 0.0000 0.0000 29.4779
#
#
#
# Elastic Compliance Matrix: (Units=1/GPa)
#
#
# Indices 1 2 3 4 5 6 
#
# 1 0.008263 -0.004147 -0.004218 0.000000 0.000000 0.000000
# 2 -0.004147 0.011821 -0.005922 0.000000 0.000000 0.000000
# 3 -0.004218 -0.005922 0.033704 0.000000 0.000000 0.000000
# 4 0.000000 0.000000 0.000000 0.034079 0.000000 0.000000
# 5 0.000000 0.000000 0.000000 0.000000 0.034821 0.000000
# 6 0.000000 0.000000 0.000000 0.000000 0.000000 0.033924
#
#
# Mechanical properties :
#
#
# Convention : Reuss Voigt Hill
#
# Bulk Modulus (GPa) = 39.66277 72.90686 56.28481
# Shear Modulus (GPa) = 25.82762 30.77085 28.29923
#
# Velocity S-wave (km/s) = 3.48405 3.80288 3.64695
# Velocity P-wave (km/s) = 5.90134 7.31764 6.64732
#
# Compressibility (1/GPa) = 0.02521256
#
# Stress axis : x y z
#
# Youngs Moduli (GPa) = 121.01625 84.59646 29.67032
#
# Poissons Ratio (x) = 0.35081 0.12516
# Poissons Ratio (y) = 0.50184 0.17572
# Poissons Ratio (z) = 0.51049 0.50102
#
# Static dielectric constant tensor:
#      x y z
#    x 1.791540 0.000000 0.000000 
#    y 0.000000 1.809170 0.000000 
#    z 0.000000 0.000000 1.754760 
# 
# From -- ./inp_files/10858.got.cif
#   From: 2010.05.17/outbox.cif.g08.bks.cpg/sg40_6_cif.got.tgz:10858.got - 2010.06.03 18:35:42.
