data_PCOD9365566
_publ_section_title
;
Structure prediction by ZEFSAII (Michael W. Deem and Ramdas Pophale) SiO2 
 PCOD9365566
Probable space group: A M A 2
;
_chemical_formula_sum "Si O2"
_cell_formula_units_Z 48
_cell_length_a 15.347952
_cell_length_b 27.972980
_cell_length_c 5.091544
_cell_angle_alpha 90.000000
_cell_angle_beta 90.000000
_cell_angle_gamma 90.000000
_cell_volume 2185.942170
_symmetry_space_group_name_H-M "A M A 2"
_symmetry_group_IT_number 40
_symmetry_cell_setting 'orthorhombic'
loop_
_space_group_symop_operation_xyz
x,y,z
-x,-y,z
1/2-x,y,z
1/2+x,-y,z
x,1/2+y,1/2+z
-x,1/2-y,1/2+z
1/2-x,1/2+y,1/2+z
1/2+x,1/2-y,1/2+z
loop_
_atom_site_type_symbol
_atom_site_label
_atom_site_fract_x
_atom_site_fract_y
_atom_site_fract_z
Si Si1 0.250000 0.832433 0.692040
Si Si2 0.150063 0.573352 0.521398
Si Si3 0.103071 0.011561 0.519915
Si Si4 0.601781 0.090528 0.671616
Si Si5 0.250000 0.769507 0.192296
Si Si6 0.553194 0.234134 0.103493
Si Si7 0.513423 0.623635 0.672640
O O1 0.332026 0.865980 0.645994
O O2 0.250000 0.788671 0.489596
O O3 0.250000 0.813577 0.987576
O O4 0.250000 0.587650 0.532920
O O5 0.128880 0.548977 0.244129
O O6 0.085829 0.617138 0.584379
O O7 0.130412 0.533224 0.742430
O O8 0.142468 0.959800 0.589424
O O9 0.000000 0.000000 0.527112
O O10 0.526521 0.104113 0.464611
O O11 0.566676 0.090438 0.968218
O O12 0.346713 0.747511 0.138235
O O13 0.487667 0.256319 0.318212
O O14 0.548970 0.177099 0.149838
#
# Coordination Sequence:
#
# PCOD9365566 Si02
#       7
#     4   8   8   8   4   8   8
#     4  12  22  40  66 104 133 166 221 282 332 398
#     4  12  26  43  63  95 138 184 231 273 326 397
#     4  12  23  42  65  93 132 182 228 279 324 383
#     4  12  23  38  67  99 130 173 222 272 337 385
#     4  12  24  46  74 102 139 172 217 290 350 400
#     4  12  26  47  73 103 136 172 224 279 346 417
#     4  12  23  46  68  92 132 177 217 278 338 399
#
# _framework density 21.958494000000002
#
# number of rings (size 3 to 8) (size 9 to 14) (size 15 to 20)
#    0.000    0.000    6.667    4.000    2.333    0.000 
#    3.000    0.000    0.000    0.000    0.000    0.000 
#    0.000    0.000    0.000    0.000    0.000    0.000 
#
# Total GULP energy -134269.633373 kJ/mol
# GULP energy per Si atom -5594.568057 kJ/mol
# Density = 2.190852 g / cm^3
# Si number density = 21.958494 Si / 1000 Ang^3
#
#
#
# Elastic Constant Matrix: (Units=GPa)
#
#
# Indices 1 2 3 4 5 6 
#
# 1 144.4522 -14.1304 -0.3580 0.0000 0.0000 0.0000
# 2 -14.1304 29.9011 1.3714 0.0000 0.0000 0.0000
# 3 -0.3580 1.3714 73.8009 0.0000 0.0000 0.0000
# 4 0.0000 0.0000 0.0000 34.7525 0.0000 0.0000
# 5 0.0000 0.0000 0.0000 0.0000 22.0971 0.0000
# 6 0.0000 0.0000 0.0000 0.0000 0.0000 28.8632
#
#
#
# Elastic Compliance Matrix: (Units=1/GPa)
#
#
# Indices 1 2 3 4 5 6 
#
# 1 0.007258 0.003431 -0.000029 0.000000 0.000000 0.000000
# 2 0.003431 0.035094 -0.000635 0.000000 0.000000 0.000000
# 3 -0.000029 -0.000635 0.013562 0.000000 0.000000 0.000000
# 4 0.000000 0.000000 0.000000 0.028775 0.000000 0.000000
# 5 0.000000 0.000000 0.000000 0.000000 0.045255 0.000000
# 6 0.000000 0.000000 0.000000 0.000000 0.000000 0.034646
#
#
# Mechanical properties :
#
#
# Convention : Reuss Voigt Hill
#
# Bulk Modulus (GPa) = 16.27368 24.65779 20.46574
# Shear Modulus (GPa) = 27.84919 34.56064 31.20491
#
# Velocity S-wave (km/s) = 3.56513 3.97155 3.77382
# Velocity P-wave (km/s) = 4.93701 5.68196 5.32253
#
# Compressibility (1/GPa) = 0.06144890
#
# Stress axis : x y z
#
# Youngs Moduli (GPa) = 137.77346 28.49466 73.73735
#
# Poissons Ratio (x) = -0.09778 0.00211
# Poissons Ratio (y) = -0.47275 0.04686
# Poissons Ratio (z) = 0.00393 0.01811
#
# Static dielectric constant tensor:
#      x y z
#    x 1.791060 0.000000 0.000000 
#    y 0.000000 1.795660 0.000000 
#    z 0.000000 0.000000 1.757430 
# 
# From -- ./inp_files/1378.got.cif
#   From: 2010.05.17/outbox.cif.g08.bks.cpg/sg40_1_cif.got.tgz:1378.got - 2010.06.03 18:35:42.
