data_PCOD9365876
_publ_section_title
;
Structure prediction by ZEFSAII (Michael W. Deem and Ramdas Pophale) SiO2 
 PCOD9365876
Probable space group: A B A 2
;
_chemical_formula_sum "Si O2"
_cell_formula_units_Z 44
_cell_length_a 21.544135
_cell_length_b 20.206908
_cell_length_c 4.776156
_cell_angle_alpha 90.000000
_cell_angle_beta 90.000000
_cell_angle_gamma 90.000000
_cell_volume 2079.253443
_symmetry_space_group_name_H-M "A B A 2"
_symmetry_group_IT_number 41
_symmetry_cell_setting 'orthorhombic'
loop_
_space_group_symop_operation_xyz
x,y,z
-x,-y,z
1/2-x,y,1/2+z
1/2+x,-y,1/2+z
x,1/2+y,1/2+z
-x,1/2-y,1/2+z
1/2-x,1/2+y,z
1/2+x,1/2-y,z
loop_
_atom_site_type_symbol
_atom_site_label
_atom_site_fract_x
_atom_site_fract_y
_atom_site_fract_z
Si Si1 0.581919 0.241872 0.589180
Si Si2 0.500000 0.000000 0.239233
Si Si3 0.579288 0.466546 0.207803
Si Si4 0.208538 0.071246 0.411603
Si Si5 0.791363 0.271540 0.855356
Si Si6 0.541389 0.824428 0.590903
O O1 0.650553 0.231592 0.474402
O O2 0.532135 0.183797 0.543185
O O3 0.553633 0.301927 0.406629
O O4 0.577225 0.270424 0.901797
O O5 0.447428 0.981458 0.477401
O O6 0.459206 0.037484 0.999670
O O7 0.650524 0.469896 0.299569
O O8 0.567125 0.397027 0.050717
O O9 0.229933 0.059340 0.726762
O O10 0.193429 0.149872 0.384008
O O11 0.769818 0.259366 0.541489
#
# Coordination Sequence:
#
# PCOD9365876 Si02
#       6
#     8   4   8   8   8   8
#     4  10  19  32  46  81 100 147 174 197 255 319
#     4  10  24  34  56  74 100 142 180 224 282 300
#     4  11  20  38  52  79 108 138 178 227 262 330
#     4  10  20  30  52  79 107 141 162 205 276 334
#     4  10  19  29  46  73 110 142 169 206 250 318
#     4  10  20  31  54  70 111 138 173 214 252 301
#
# _framework density 21.161439999999999
#
# number of rings (size 3 to 8) (size 9 to 14) (size 15 to 20)
#    0.000    1.818    1.818    3.273    5.091    0.000 
#    0.000    0.000    0.000    0.000    0.000   25.455 
#    0.000    0.000    0.000    0.000    0.000    0.000 
#
# Total GULP energy -122467.840794 kJ/mol
# GULP energy per Si atom -5566.720036 kJ/mol
# Density = 2.111328 g / cm^3
# Si number density = 21.161440 Si / 1000 Ang^3
#
#
#
# Elastic Constant Matrix: (Units=GPa)
#
#
# Indices 1 2 3 4 5 6 
#
# 1 113.7012 9.2972 3.3352 0.0000 0.0000 0.0000
# 2 9.2972 15.3700 0.0981 0.0000 0.0000 0.0000
# 3 3.3352 0.0981 93.3227 0.0000 0.0000 0.0000
# 4 0.0000 0.0000 0.0000 15.5257 0.0000 0.0000
# 5 0.0000 0.0000 0.0000 0.0000 13.9482 0.0000
# 6 0.0000 0.0000 0.0000 0.0000 0.0000 13.2735
#
#
#
# Elastic Compliance Matrix: (Units=1/GPa)
#
#
# Indices 1 2 3 4 5 6 
#
# 1 0.009262 -0.005601 -0.000325 0.000000 0.000000 0.000000
# 2 -0.005601 0.068449 0.000128 0.000000 0.000000 0.000000
# 3 -0.000325 0.000128 0.010727 0.000000 0.000000 0.000000
# 4 0.000000 0.000000 0.000000 0.064409 0.000000 0.000000
# 5 0.000000 0.000000 0.000000 0.000000 0.071694 0.000000
# 6 0.000000 0.000000 0.000000 0.000000 0.000000 0.075338
#
#
# Mechanical properties :
#
#
# Convention : Reuss Voigt Hill
#
# Bulk Modulus (GPa) = 13.01354 27.53943 20.27648
# Shear Modulus (GPa) = 14.83286 22.52705 18.67996
#
# Velocity S-wave (km/s) = 2.65040 3.26626 2.97431
# Velocity P-wave (km/s) = 3.94070 5.22176 4.62579
#
# Compressibility (1/GPa) = 0.07684306
#
# Stress axis : x y z
#
# Youngs Moduli (GPa) = 107.96242 14.60943 93.22282
#
# Poissons Ratio (x) = 0.08182 0.03031
# Poissons Ratio (y) = 0.60467 -0.01195
# Poissons Ratio (z) = 0.03510 -0.00187
#
# Static dielectric constant tensor:
#      x y z
#    x 1.814860 0.000000 0.000000 
#    y 0.000000 1.787930 0.000000 
#    z 0.000000 0.000000 1.747350 
# 
# From -- ./inp_files/489.got.cif
#   From: 2010.05.17/outbox.cif.g08.bks.cpg/sg41_1_cif.got.tgz:489.got - 2010.06.03 18:54:24.
