data_PCOD9365230
_publ_section_title
;
Structure prediction by ZEFSAII (Michael W. Deem and Ramdas Pophale) SiO2 
 PCOD9365230
Probable space group: A M A 2
;
_chemical_formula_sum "Si O2"
_cell_formula_units_Z 48
_cell_length_a 26.859409
_cell_length_b 14.702887
_cell_length_c 5.078020
_cell_angle_alpha 90.000000
_cell_angle_beta 90.000000
_cell_angle_gamma 90.000000
_cell_volume 2005.365222
_symmetry_space_group_name_H-M "A M A 2"
_symmetry_group_IT_number 40
_symmetry_cell_setting 'orthorhombic'
loop_
_space_group_symop_operation_xyz
x,y,z
-x,-y,z
1/2-x,y,z
1/2+x,-y,z
x,1/2+y,1/2+z
-x,1/2-y,1/2+z
1/2-x,1/2+y,1/2+z
1/2+x,1/2-y,1/2+z
loop_
_atom_site_type_symbol
_atom_site_label
_atom_site_fract_x
_atom_site_fract_y
_atom_site_fract_z
Si Si1 0.491224 0.193713 0.002320
Si Si2 0.804469 0.425140 0.278201
Si Si3 0.852154 0.100625 0.655789
Si Si4 0.306489 0.225180 0.372891
Si Si5 0.892388 0.387380 0.657652
Si Si6 0.083591 0.418587 0.680112
O O1 0.490253 0.274498 0.217838
O O2 0.529691 0.123736 0.136076
O O3 0.435962 0.153999 0.981630
O O4 0.750000 0.451992 0.366462
O O5 0.824053 0.505594 0.089390
O O6 0.844283 0.422873 0.504801
O O7 0.802844 0.324274 0.155791
O O8 0.813093 0.171436 0.781148
O O9 0.881249 0.131851 0.393295
O O10 0.891554 0.084874 0.891082
O O11 0.250000 0.199027 0.265348
O O12 0.363725 0.190238 0.316253
O O13 0.917105 0.477000 0.783061
#
# Coordination Sequence:
#
# PCOD9365230 Si02
#       6
#     8   8   8   8   8   8
#     4  12  27  44  70 102 138 180 235 292 355 430
#     4  10  23  44  67 102 140 186 237 294 357 431
#     4  11  24  44  70 100 142 178 232 287 353 419
#     4  11  23  41  67 100 135 186 232 285 351 419
#     4  11  24  43  70  95 142 181 237 290 356 423
#     4  11  24  46  68 103 133 186 228 290 353 425
#
# _framework density 23.935787000000001
#
# number of rings (size 3 to 8) (size 9 to 14) (size 15 to 20)
#    0.000    1.000    1.667    4.500    7.000    0.000 
#    0.000    5.000    0.000    0.000    0.000    0.000 
#    0.000    0.000    0.000    0.000    0.000    0.000 
#
# Total GULP energy -133659.464181 kJ/mol
# GULP energy per Si atom -5569.144341 kJ/mol
# Density = 2.388131 g / cm^3
# Si number density = 23.935787 Si / 1000 Ang^3
#
#
#
# Elastic Constant Matrix: (Units=GPa)
#
#
# Indices 1 2 3 4 5 6 
#
# 1 127.3193 -4.0225 8.4408 0.0000 0.0000 0.0000
# 2 -4.0225 45.6653 -2.8974 0.0000 0.0000 0.0000
# 3 8.4408 -2.8974 62.9772 0.0000 0.0000 0.0000
# 4 0.0000 0.0000 0.0000 16.8334 0.0000 0.0000
# 5 0.0000 0.0000 0.0000 0.0000 28.0404 0.0000
# 6 0.0000 0.0000 0.0000 0.0000 0.0000 8.4513
#
#
#
# Elastic Compliance Matrix: (Units=1/GPa)
#
#
# Indices 1 2 3 4 5 6 
#
# 1 0.007943 0.000634 -0.001035 0.000000 0.000000 0.000000
# 2 0.000634 0.022013 0.000928 0.000000 0.000000 0.000000
# 3 -0.001035 0.000928 0.016060 0.000000 0.000000 0.000000
# 4 0.000000 0.000000 0.000000 0.059406 0.000000 0.000000
# 5 0.000000 0.000000 0.000000 0.000000 0.035663 0.000000
# 6 0.000000 0.000000 0.000000 0.000000 0.000000 0.118325
#
#
# Mechanical properties :
#
#
# Convention : Reuss Voigt Hill
#
# Bulk Modulus (GPa) = 21.24539 26.55595 23.90067
# Shear Modulus (GPa) = 18.24506 26.29441 22.26973
#
# Velocity S-wave (km/s) = 2.76388 3.31802 3.05355
# Velocity P-wave (km/s) = 4.36814 5.07915 4.73700
#
# Compressibility (1/GPa) = 0.04706904
#
# Stress axis : x y z
#
# Youngs Moduli (GPa) = 125.89787 45.42730 62.26562
#
# Poissons Ratio (x) = -0.02880 0.06447
# Poissons Ratio (y) = -0.07982 -0.05777
# Poissons Ratio (z) = 0.13036 -0.04215
#
# Static dielectric constant tensor:
#      x y z
#    x 1.939860 0.000000 0.000000 
#    y 0.000000 2.226790 0.000000 
#    z 0.000000 0.000000 1.964570 
# 
# From -- ./inp_files/3073.got.cif
#   From: 2010.05.17/outbox.cif.g08.bks.cpg/sg40_2_cif.got.tgz:3073.got - 2010.06.03 18:35:42.
