data_PCOD9365107
_publ_section_title
;
Structure prediction by ZEFSAII (Michael W. Deem and Ramdas Pophale) SiO2 
 PCOD9365107
Probable space group: A M A 2
;
_chemical_formula_sum "Si O2"
_cell_formula_units_Z 60
_cell_length_a 25.032762
_cell_length_b 9.311901
_cell_length_c 11.191751
_cell_angle_alpha 90.000000
_cell_angle_beta 90.000000
_cell_angle_gamma 90.000000
_cell_volume 2608.826273
_symmetry_space_group_name_H-M "A M A 2"
_symmetry_group_IT_number 40
_symmetry_cell_setting 'orthorhombic'
loop_
_space_group_symop_operation_xyz
x,y,z
-x,-y,z
1/2-x,y,z
1/2+x,-y,z
x,1/2+y,1/2+z
-x,1/2-y,1/2+z
1/2-x,1/2+y,1/2+z
1/2+x,1/2-y,1/2+z
loop_
_atom_site_type_symbol
_atom_site_label
_atom_site_fract_x
_atom_site_fract_y
_atom_site_fract_z
Si Si1 0.994910 0.169092 0.245690
Si Si2 0.690979 0.873985 0.481237
Si Si3 0.348557 0.825315 0.417096
Si Si4 0.918402 0.164773 0.618079
Si Si5 0.378278 0.818720 0.144417
Si Si6 0.190392 0.023840 0.988899
Si Si7 0.500000 0.000000 0.757774
Si Si8 0.190750 0.829236 0.760167
O O1 0.853557 0.184768 0.276086
O O2 0.941357 0.173549 0.166014
O O3 0.994400 0.333862 0.312675
O O4 0.000000 0.000000 0.292827
O O5 0.750000 0.837574 0.529395
O O6 0.645102 0.812515 0.566358
O O7 0.686721 0.804768 0.350140
O O8 0.684122 0.039000 0.459065
O O9 0.407419 0.839156 0.477329
O O10 0.320974 0.687608 0.470783
O O11 0.953306 0.299754 0.662732
O O12 0.949335 0.027972 0.672146
O O13 0.860388 0.168189 0.678017
O O14 0.353927 0.952700 0.072007
O O15 0.250000 0.996122 0.036386
O O16 0.187533 0.957355 0.856319
O O17 0.250000 0.830995 0.705012
#
# Coordination Sequence:
#
# PCOD9365107 Si02
#       8
#     8   8   8   8   8   8   4   8
#     4  10  22  43  70  99 145 189 245 303 370 428
#     4  10  24  45  71 104 147 192 237 302 371 431
#     4  12  26  40  74 106 140 186 249 293 370 440
#     4  10  23  45  66 105 142 188 247 303 363 445
#     4  11  25  49  70 102 145 193 244 306 360 446
#     4  10  24  44  69 103 145 187 237 300 362 438
#     4   8  22  40  72  94 148 184 240 300 362 434
#     4   9  21  44  72 100 142 193 232 294 373 431
#
# _framework density 22.998849
#
# number of rings (size 3 to 8) (size 9 to 14) (size 15 to 20)
#    0.800    1.067    0.000    3.200    7.467    3.200 
#    6.000    0.000    7.333    0.000    0.000    0.000 
#    0.000    0.000    0.000    0.000    0.000    0.000 
#
# Total GULP energy -167270.889632 kJ/mol
# GULP energy per Si atom -5575.696321 kJ/mol
# Density = 2.294650 g / cm^3
# Si number density = 22.998849 Si / 1000 Ang^3
#
#
#
# Elastic Constant Matrix: (Units=GPa)
#
#
# Indices 1 2 3 4 5 6 
#
# 1 161.1668 41.7728 41.8084 0.0000 0.0000 0.0000
# 2 41.7728 201.3240 30.9813 0.0000 0.0000 0.0000
# 3 41.8084 30.9813 69.2666 0.0000 0.0000 0.0000
# 4 0.0000 0.0000 0.0000 -32.2786 0.0000 0.0000
# 5 0.0000 0.0000 0.0000 0.0000 3.8582 0.0000
# 6 0.0000 0.0000 0.0000 0.0000 0.0000 22.3662
#
#
#
# Elastic Compliance Matrix: (Units=1/GPa)
#
#
# Indices 1 2 3 4 5 6 
#
# 1 0.007514 -0.000925 -0.004121 0.000000 0.000000 0.000000
# 2 -0.000925 0.005448 -0.001879 0.000000 0.000000 0.000000
# 3 -0.004121 -0.001879 0.017765 0.000000 0.000000 0.000000
# 4 0.000000 0.000000 0.000000 -0.030980 0.000000 0.000000
# 5 0.000000 0.000000 0.000000 0.000000 0.259191 0.000000
# 6 0.000000 0.000000 0.000000 0.000000 0.000000 0.044710
#
#
# Mechanical properties :
#
#
# Convention : Reuss Voigt Hill
#
# Bulk Modulus (GPa) = 59.25271 73.43137 66.34204
# Shear Modulus (GPa) = 15.47399 19.93548 17.70473
#
# Velocity S-wave (km/s) = 2.59668 2.94735 2.77755
# Velocity P-wave (km/s) = 5.89997 6.60152 6.26058
#
# Compressibility (1/GPa) = 0.01687687
#
# Stress axis : x y z
#
# Youngs Moduli (GPa) = 133.09212 183.55043 56.29072
#
# Poissons Ratio (x) = 0.16974 0.23200
# Poissons Ratio (y) = 0.12308 0.10575
# Poissons Ratio (z) = 0.54854 0.34482
#
# Static dielectric constant tensor:
#      x y z
#    x 1.859490 0.000000 0.000000 
#    y 0.000000 1.945020 0.000000 
#    z 0.000000 0.000000 1.836670 
# 
# From -- ./inp_files/14236.got.cif
#   From: 2010.05.17/outbox.cif.g08.bks.cpg/sg40_8_cif.got.tgz:14236.got - 2010.06.03 18:35:42.
