data_PCOD9365685
_publ_section_title
;
Structure prediction by ZEFSAII (Michael W. Deem and Ramdas Pophale) SiO2 
 PCOD9365685
Probable space group: A M A 2
;
_chemical_formula_sum "Si O2"
_cell_formula_units_Z 30
_cell_length_a 27.000000
_cell_length_b 6.000000
_cell_length_c 18.000000
_cell_angle_alpha 90.000000
_cell_angle_beta 90.000000
_cell_angle_gamma 90.000000
_cell_volume 2916.000000
_symmetry_space_group_name_H-M "A M A 2"
_symmetry_group_IT_number 40
_symmetry_cell_setting 'orthorhombic'
loop_
_space_group_symop_operation_xyz
x,y,z
-x,-y,z
1/2-x,y,z
1/2+x,-y,z
x,1/2+y,1/2+z
-x,1/2-y,1/2+z
1/2-x,1/2+y,1/2+z
1/2+x,1/2-y,1/2+z
loop_
_atom_site_type_symbol
_atom_site_label
_atom_site_fract_x
_atom_site_fract_y
_atom_site_fract_z
Si Si1 0.901263 0.623596 0.514000
Si Si2 0.806705 0.318396 0.544908
Si Si3 0.500000 0.500000 0.605632
Si Si4 0.306557 0.121801 0.762905
Si Si5 0.115543 0.804398 0.850393
Si Si6 0.543448 0.155790 0.722988
Si Si7 0.866171 0.958879 0.629150
Si Si8 0.302713 0.469495 0.894395
O O1 0.850371 0.494884 0.533736
O O2 0.908090 0.594005 0.425440
O O3 0.887830 0.859426 0.552913
O O4 0.951319 0.547459 0.555977
O O5 0.750000 0.395456 0.560138
O O6 0.828376 0.156315 0.608186
O O7 0.804401 0.183373 0.467197
O O8 0.516240 0.306866 0.662360
O O9 0.250000 0.037171 0.751219
O O10 0.333016 0.189653 0.685528
O O11 0.302332 0.323692 0.820138
O O12 0.344233 0.952597 0.804936
O O13 0.073614 0.734134 0.791286
O O14 0.148930 0.614698 0.886931
O O15 0.500000 0.000000 0.754524
O O16 0.586164 0.029549 0.676815
O O17 0.250000 0.598587 0.898571
#
# Coordination Sequence:
#
# PCOD9365685 Si02
#       8
#     8   8   4   8   8   8   8   8
#     4  12  25  43  68  99 129 175 220 275 330 393
#     4  11  23  40  65 100 136 171 218 271 327 391
#     4  12  26  46  70  92 130 174 224 276 332 392
#     4  10  22  39  61  93 133 173 212 260 316 390
#     4  11  24  40  66  93 129 169 221 263 329 391
#     4  11  25  45  66  93 127 171 214 277 331 388
#     4  11  23  42  66  94 133 169 217 268 332 393
#     4  10  21  38  62  94 134 175 213 262 319 388
#
# _framework density 10.288066000000001
#
# number of rings (size 3 to 8) (size 9 to 14) (size 15 to 20)
#    0.000    1.067    5.333    0.800    2.800    1.600 
#    0.000    4.000    0.000    0.000    0.000    0.000 
#    0.000    0.000    0.000    0.000    0.000    0.000 
#
# Total GULP energy -167196.173168 kJ/mol
# GULP energy per Si atom -5573.205772 kJ/mol
# Density = 1.026465 g / cm^3
# Si number density = 10.288066 Si / 1000 Ang^3
#
#
#
# Elastic Constant Matrix: (Units=GPa)
#
#
# Indices 1 2 3 4 5 6 
#
# 1 155.0981 24.7837 39.5224 0.0000 0.0000 0.0000
# 2 24.7837 8.9955 -2.8337 0.0000 0.0000 0.0000
# 3 39.5224 -2.8337 82.2698 0.0000 0.0000 0.0000
# 4 0.0000 0.0000 0.0000 26.0870 0.0000 0.0000
# 5 0.0000 0.0000 0.0000 0.0000 35.8304 0.0000
# 6 0.0000 0.0000 0.0000 0.0000 0.0000 41.4050
#
#
#
# Elastic Compliance Matrix: (Units=1/GPa)
#
#
# Indices 1 2 3 4 5 6 
#
# 1 0.016867 -0.049560 -0.009810 0.000000 0.000000 0.000000
# 2 -0.049560 0.258012 0.032696 0.000000 0.000000 0.000000
# 3 -0.009810 0.032696 0.017994 0.000000 0.000000 0.000000
# 4 0.000000 0.000000 0.000000 0.038333 0.000000 0.000000
# 5 0.000000 0.000000 0.000000 0.000000 0.027909 0.000000
# 6 0.000000 0.000000 0.000000 0.000000 0.000000 0.024152
#
#
# Mechanical properties :
#
#
# Convention : Reuss Voigt Hill
#
# Bulk Modulus (GPa) = 4.17496 41.03423 22.60459
# Shear Modulus (GPa) = 9.68137 32.99055 21.33596
#
# Velocity S-wave (km/s) = 2.17149 4.00852 3.22363
# Velocity P-wave (km/s) = 2.88454 6.43508 4.98652
#
# Compressibility (1/GPa) = 0.23952339
#
# Stress axis : x y z
#
# Youngs Moduli (GPa) = 59.28858 3.87580 55.57442
#
# Poissons Ratio (x) = 0.19208 0.54517
# Poissons Ratio (y) = 2.93835 -1.81704
# Poissons Ratio (z) = 0.58161 -0.12672
#
# Static dielectric constant tensor:
#      x y z
#    x 1.726500 0.000000 0.000000 
#    y 0.000000 1.835290 0.000000 
#    z 0.000000 0.000000 1.716470 
# 
# From -- ./inp_files/21610.got.cif
#   From: 2010.05.17/outbox.ucp.g08.bks.cvg/sg40_11_cif.got.tgz:21610.got - 2010.06.11 16:26:39.
