data_PCOD9365059
_publ_section_title
;
Structure prediction by ZEFSAII (Michael W. Deem and Ramdas Pophale) SiO2 
 PCOD9365059
Probable space group: A M A 2
;
_chemical_formula_sum "Si O2"
_cell_formula_units_Z 40
_cell_length_a 18.317092
_cell_length_b 13.342127
_cell_length_c 7.503871
_cell_angle_alpha 90.000000
_cell_angle_beta 90.000000
_cell_angle_gamma 90.000000
_cell_volume 1833.863288
_symmetry_space_group_name_H-M "A M A 2"
_symmetry_group_IT_number 40
_symmetry_cell_setting 'orthorhombic'
loop_
_space_group_symop_operation_xyz
x,y,z
-x,-y,z
1/2-x,y,z
1/2+x,-y,z
x,1/2+y,1/2+z
-x,1/2-y,1/2+z
1/2-x,1/2+y,1/2+z
1/2+x,1/2-y,1/2+z
loop_
_atom_site_type_symbol
_atom_site_label
_atom_site_fract_x
_atom_site_fract_y
_atom_site_fract_z
Si Si1 0.963683 0.106947 0.806800
Si Si2 0.664777 0.381341 0.076169
Si Si3 0.447016 0.780693 0.142246
Si Si4 0.165190 0.000126 0.926701
Si Si5 0.414373 0.474799 0.800800
O O1 0.994635 0.196764 0.692271
O O2 0.877667 0.087459 0.820959
O O3 0.983741 0.142064 0.006000
O O4 0.000000 0.000000 0.764149
O O5 0.750000 0.371721 0.032593
O O6 0.618194 0.281000 0.050367
O O7 0.658783 0.408338 0.287165
O O8 0.628581 0.469086 0.957838
O O9 0.414065 0.853096 0.294226
O O10 0.250000 0.979345 0.956798
O O11 0.123778 0.009761 0.115075
O O12 0.500000 0.500000 0.816546
#
# Coordination Sequence:
#
# PCOD9365059 Si02
#       5
#     8   8   8   8   8
#     4  11  23  41  66  95 137 171 224 284 329 396
#     4  11  25  44  69 100 137 181 224 278 343 402
#     4  11  24  39  69  99 130 178 229 273 340 400
#     4  10  22  42  67  94 137 179 213 276 340 390
#     4  11  25  44  69 102 136 177 228 283 334 398
#
# _framework density 21.811878
#
# number of rings (size 3 to 8) (size 9 to 14) (size 15 to 20)
#    0.000    1.200    2.000    4.200    5.600    4.000 
#    0.000    0.000    0.000    3.600    0.000    0.000 
#    0.000    0.000    0.000    0.000    0.000    0.000 
#
# Total GULP energy -111631.462047 kJ/mol
# GULP energy per Si atom -5581.573102 kJ/mol
# Density = 2.176223 g / cm^3
# Si number density = 21.811878 Si / 1000 Ang^3
#
#
#
# Elastic Constant Matrix: (Units=GPa)
#
#
# Indices 1 2 3 4 5 6 
#
# 1 133.9518 3.8511 43.5280 0.0000 0.0000 0.0000
# 2 3.8511 93.5366 29.3105 0.0000 0.0000 0.0000
# 3 43.5280 29.3105 91.8926 0.0000 0.0000 0.0000
# 4 0.0000 0.0000 0.0000 29.1550 0.0000 0.0000
# 5 0.0000 0.0000 0.0000 0.0000 28.5805 0.0000
# 6 0.0000 0.0000 0.0000 0.0000 0.0000 14.8263
#
#
#
# Elastic Compliance Matrix: (Units=1/GPa)
#
#
# Indices 1 2 3 4 5 6 
#
# 1 0.008918 0.001063 -0.004563 0.000000 0.000000 0.000000
# 2 0.001063 0.012005 -0.004333 0.000000 0.000000 0.000000
# 3 -0.004563 -0.004333 0.014426 0.000000 0.000000 0.000000
# 4 0.000000 0.000000 0.000000 0.034299 0.000000 0.000000
# 5 0.000000 0.000000 0.000000 0.000000 0.034989 0.000000
# 6 0.000000 0.000000 0.000000 0.000000 0.000000 0.067448
#
#
# Mechanical properties :
#
#
# Convention : Reuss Voigt Hill
#
# Bulk Modulus (GPa) = 50.80695 52.52892 51.66794
# Shear Modulus (GPa) = 25.73199 30.69178 28.21189
#
# Velocity S-wave (km/s) = 3.43844 3.75522 3.60031
# Velocity P-wave (km/s) = 6.25361 6.55265 6.40488
#
# Compressibility (1/GPa) = 0.01968235
#
# Stress axis : x y z
#
# Youngs Moduli (GPa) = 112.13764 83.29937 69.32093
#
# Poissons Ratio (x) = -0.08852 0.31632
# Poissons Ratio (y) = -0.11917 0.30034
# Poissons Ratio (z) = 0.51170 0.36090
#
# Static dielectric constant tensor:
#      x y z
#    x 1.796950 0.000000 0.000000 
#    y 0.000000 1.832840 0.000000 
#    z 0.000000 0.000000 1.912100 
# 
# From -- ./inp_files/7152.got.cif
#   From: 2010.05.17/outbox.cif.g08.bks.cpg/sg40_4_cif.got.tgz:7152.got - 2010.06.03 18:35:42.
