data_PCOD9365624
_publ_section_title
;
Structure prediction by ZEFSAII (Michael W. Deem and Ramdas Pophale) SiO2 
 PCOD9365624
Probable space group: A M A 2
;
_chemical_formula_sum "Si O2"
_cell_formula_units_Z 32
_cell_length_a 9.000000
_cell_length_b 15.000000
_cell_length_c 30.000000
_cell_angle_alpha 90.000000
_cell_angle_beta 90.000000
_cell_angle_gamma 90.000000
_cell_volume 4050.000000
_symmetry_space_group_name_H-M "A M A 2"
_symmetry_group_IT_number 40
_symmetry_cell_setting 'orthorhombic'
loop_
_space_group_symop_operation_xyz
x,y,z
-x,-y,z
1/2-x,y,z
1/2+x,-y,z
x,1/2+y,1/2+z
-x,1/2-y,1/2+z
1/2-x,1/2+y,1/2+z
1/2+x,1/2-y,1/2+z
loop_
_atom_site_type_symbol
_atom_site_label
_atom_site_fract_x
_atom_site_fract_y
_atom_site_fract_z
Si Si1 0.428590 0.597235 0.117190
Si Si2 0.429479 0.098054 0.512745
Si Si3 0.428850 0.902219 0.350574
Si Si4 0.929831 0.098093 0.246346
Si Si5 0.430618 0.780515 0.161127
Si Si6 0.930225 0.599363 0.473659
Si Si7 0.069725 0.277312 0.936031
Si Si8 0.928554 0.596465 0.577433
O O1 0.500000 0.500000 0.125841
O O2 0.250000 0.588536 0.120789
O O3 0.459122 0.621826 0.064965
O O4 0.477015 0.678291 0.149867
O O5 0.250000 0.096580 0.506869
O O6 0.503291 0.164014 0.476868
O O7 0.500000 0.000000 0.505881
O O8 0.250000 0.911665 0.352182
O O9 0.467417 0.878205 0.298496
O O10 0.467973 0.829499 0.389232
O O11 0.500000 0.000000 0.359796
O O12 0.750000 0.090827 0.244107
O O13 0.975546 0.169172 0.207404
O O14 0.000000 0.000000 0.237614
O O15 0.250000 0.779188 0.161929
O O16 0.475642 0.838054 0.117418
O O17 0.750000 0.596268 0.468593
O O18 0.963195 0.622900 0.526041
O O19 0.000000 0.500000 0.465849
O O20 0.000463 0.678049 0.443214
O O21 0.250000 0.272752 0.938806
O O22 0.750000 0.589471 0.579734
O O23 0.000000 0.500000 0.584892
#
# Coordination Sequence:
#
# PCOD9365624 Si02
#       8
#     8   8   8   8   8   8   8   8
#     4   9  18  32  47  65  91 123 157 193 231 273
#     4  10  19  31  47  69  98 128 159 195 236 282
#     4   9  19  33  49  71  97 123 152 189 232 279
#     4   9  17  31  50  71  95 122 150 183 227 276
#     4   9  16  28  48  69  91 122 155 184 224 277
#     4  10  20  34  50  69  96 128 161 197 236 276
#     4  11  21  32  48  70  95 125 163 199 234 280
#     4   9  17  29  45  68  96 123 151 184 223 271
#
# _framework density 7.9012349999999998
#
# number of rings (size 3 to 8) (size 9 to 14) (size 15 to 20)
#    0.000    2.500    0.000    2.625    0.000    5.000 
#    0.000    1.250    0.000    0.750    0.000    1.750 
#    0.000    0.000    0.000    0.000    0.000    0.000 
#
# Total GULP energy -178317.654528 kJ/mol
# GULP energy per Si atom -5572.426704 kJ/mol
# Density = 0.788325 g / cm^3
# Si number density = 7.901235 Si / 1000 Ang^3
#
#
#
# Elastic Constant Matrix: (Units=GPa)
#
#
# Indices 1 2 3 4 5 6 
#
# 1 43.4289 34.2508 32.1364 0.0000 0.0000 0.0000
# 2 34.2508 134.6431 86.9620 0.0000 0.0000 0.0000
# 3 32.1364 86.9620 121.7320 0.0000 0.0000 0.0000
# 4 0.0000 0.0000 0.0000 36.1057 0.0000 0.0000
# 5 0.0000 0.0000 0.0000 0.0000 21.1692 0.0000
# 6 0.0000 0.0000 0.0000 0.0000 0.0000 31.9176
#
#
#
# Elastic Compliance Matrix: (Units=1/GPa)
#
#
# Indices 1 2 3 4 5 6 
#
# 1 0.030133 -0.004693 -0.004603 0.000000 0.000000 0.000000
# 2 -0.004693 0.014520 -0.009134 0.000000 0.000000 0.000000
# 3 -0.004603 -0.009134 0.015955 0.000000 0.000000 0.000000
# 4 0.000000 0.000000 0.000000 0.027696 0.000000 0.000000
# 5 0.000000 0.000000 0.000000 0.000000 0.047239 0.000000
# 6 0.000000 0.000000 0.000000 0.000000 0.000000 0.031331
#
#
# Mechanical properties :
#
#
# Convention : Reuss Voigt Hill
#
# Bulk Modulus (GPa) = 42.10611 67.38914 54.74763
# Shear Modulus (GPa) = 23.62410 27.60214 25.61312
#
# Velocity S-wave (km/s) = 3.87067 4.18389 4.03032
# Velocity P-wave (km/s) = 6.83222 8.12878 7.50854
#
# Compressibility (1/GPa) = 0.02374952
#
# Stress axis : x y z
#
# Youngs Moduli (GPa) = 33.18642 68.87006 62.67670
#
# Poissons Ratio (x) = 0.32317 0.28848
# Poissons Ratio (y) = 0.15573 0.57249
# Poissons Ratio (z) = 0.15275 0.62906
#
# Static dielectric constant tensor:
#      x y z
#    x 1.528150 0.000000 0.000000 
#    y 0.000000 1.528180 0.000000 
#    z 0.000000 0.000000 1.542000 
# 
# From -- ./inp_files/24305.got.cif
#   From: 2010.05.17/outbox.ucp.g08.bks.cvg/sg40_13_cif.got.tgz:24305.got - 2010.06.11 16:26:39.
