data_PCOD9365109
_publ_section_title
;
Structure prediction by ZEFSAII (Michael W. Deem and Ramdas Pophale) SiO2 
 PCOD9365109
Probable space group: A M A 2
;
_chemical_formula_sum "Si O2"
_cell_formula_units_Z 36
_cell_length_a 9.978078
_cell_length_b 20.574066
_cell_length_c 8.789553
_cell_angle_alpha 90.000000
_cell_angle_beta 90.000000
_cell_angle_gamma 90.000000
_cell_volume 1804.404130
_symmetry_space_group_name_H-M "A M A 2"
_symmetry_group_IT_number 40
_symmetry_cell_setting 'orthorhombic'
loop_
_space_group_symop_operation_xyz
x,y,z
-x,-y,z
1/2-x,y,z
1/2+x,-y,z
x,1/2+y,1/2+z
-x,1/2-y,1/2+z
1/2-x,1/2+y,1/2+z
1/2+x,1/2-y,1/2+z
loop_
_atom_site_type_symbol
_atom_site_label
_atom_site_fract_x
_atom_site_fract_y
_atom_site_fract_z
Si Si1 0.545102 0.324408 0.975080
Si Si2 0.250000 0.400951 0.412789
Si Si3 0.750000 0.726152 0.603974
Si Si4 0.750000 0.842021 0.207954
Si Si5 0.250000 0.273205 0.957561
Si Si6 0.750000 0.948494 0.970015
Si Si7 0.482420 0.075339 0.734403
O O1 0.618785 0.336752 0.815029
O O2 0.386778 0.313516 0.973095
O O3 0.618585 0.259768 0.034198
O O4 0.570270 0.381777 0.095502
O O5 0.250000 0.347854 0.546429
O O6 0.250000 0.473758 0.480116
O O7 0.380078 0.396392 0.304244
O O8 0.750000 0.745237 0.780160
O O9 0.750000 0.785677 0.079049
O O10 0.750000 0.911182 0.126963
O O11 0.622187 0.926785 0.872176
O O12 0.500000 0.000000 0.686491
#
# Coordination Sequence:
#
# PCOD9365109 Si02
#       7
#     8   4   4   4   4   4   8
#     4  11  25  41  66  98 129 175 212 275 325 386
#     4  10  24  42  71  96 127 170 224 275 322 392
#     4  11  26  42  64  95 130 167 225 263 334 388
#     4  11  25  42  64  97 135 169 221 264 328 395
#     4  12  25  41  64  96 131 175 211 270 331 385
#     4  10  22  43  71  92 129 175 217 266 329 392
#     4  10  22  44  70  96 127 174 221 268 327 390
#
# _framework density 19.951184000000001
#
# number of rings (size 3 to 8) (size 9 to 14) (size 15 to 20)
#    0.000    1.333    0.000    4.667   15.556    0.000 
#    4.000    0.000    0.000    0.000    0.000    0.000 
#    0.000    0.000    0.000    0.000    0.000    0.000 
#
# Total GULP energy -100596.976576 kJ/mol
# GULP energy per Si atom -5588.720921 kJ/mol
# Density = 1.990577 g / cm^3
# Si number density = 19.951184 Si / 1000 Ang^3
#
#
#
# Elastic Constant Matrix: (Units=GPa)
#
#
# Indices 1 2 3 4 5 6 
#
# 1 139.3406 41.4176 38.9194 0.0000 0.0000 0.0000
# 2 41.4176 85.3535 81.6717 0.0000 0.0000 0.0000
# 3 38.9194 81.6717 143.0701 0.0000 0.0000 0.0000
# 4 0.0000 0.0000 0.0000 43.0422 0.0000 0.0000
# 5 0.0000 0.0000 0.0000 0.0000 -80.5418 0.0000
# 6 0.0000 0.0000 0.0000 0.0000 0.0000 -242.7936
#
#
#
# Elastic Compliance Matrix: (Units=1/GPa)
#
#
# Indices 1 2 3 4 5 6 
#
# 1 0.008387 -0.004158 0.000092 0.000000 0.000000 0.000000
# 2 -0.004158 0.027880 -0.014784 0.000000 0.000000 0.000000
# 3 0.000092 -0.014784 0.015404 0.000000 0.000000 0.000000
# 4 0.000000 0.000000 0.000000 0.023233 0.000000 0.000000
# 5 0.000000 0.000000 0.000000 0.000000 -0.012416 0.000000
# 6 0.000000 0.000000 0.000000 0.000000 0.000000 -0.004119
#
#
# Mechanical properties :
#
#
# Convention : Reuss Voigt Hill
#
# Bulk Modulus (GPa) = 71.57693 76.86461 74.22077
# Shear Modulus (GPa) = 49.63923 -42.34162 3.64881
#
# Velocity S-wave (km/s) = 4.99343 -4.61180 1.35382
# Velocity P-wave (km/s) = 8.31864 3.20183 6.30283
#
# Compressibility (1/GPa) = 0.01397098
#
# Stress axis : x y z
#
# Youngs Moduli (GPa) = 119.23499 35.86782 64.91710
#
# Poissons Ratio (x) = 0.14913 -0.00597
# Poissons Ratio (y) = 0.49574 0.95976
# Poissons Ratio (z) = -0.01096 0.53028
#
# Static dielectric constant tensor:
#      x y z
#    x 1.772130 0.000000 0.000000 
#    y 0.000000 1.690310 0.000000 
#    z 0.000000 0.000000 1.688700 
# 
# From -- ./inp_files/4157.got.cif
#   From: 2010.05.17/outbox.cif.g08.bks.cpg/sg40_3_cif.got.tgz:4157.got - 2010.06.03 18:35:42.
