data_PCOD9365777
_publ_section_title
;
Structure prediction by ZEFSAII (Michael W. Deem and Ramdas Pophale) SiO2 
 PCOD9365777
Probable space group: A B A 2
;
_chemical_formula_sum "Si O2"
_cell_formula_units_Z 36
_cell_length_a 12.558722
_cell_length_b 18.280040
_cell_length_c 5.549799
_cell_angle_alpha 90.000000
_cell_angle_beta 90.000000
_cell_angle_gamma 90.000000
_cell_volume 1274.089225
_symmetry_space_group_name_H-M "A B A 2"
_symmetry_group_IT_number 41
_symmetry_cell_setting 'orthorhombic'
loop_
_space_group_symop_operation_xyz
x,y,z
-x,-y,z
1/2-x,y,1/2+z
1/2+x,-y,1/2+z
x,1/2+y,1/2+z
-x,1/2-y,1/2+z
1/2-x,1/2+y,z
1/2+x,1/2-y,z
loop_
_atom_site_type_symbol
_atom_site_label
_atom_site_fract_x
_atom_site_fract_y
_atom_site_fract_z
Si Si1 0.273027 0.984668 0.408530
Si Si2 0.500000 0.500000 0.813264
Si Si3 0.196230 0.648732 0.782031
Si Si4 0.549941 0.192766 0.676115
Si Si5 0.553598 0.152588 0.164480
O O1 0.220489 0.949197 0.641743
O O2 0.395871 0.996297 0.471894
O O3 0.221949 0.062679 0.332646
O O4 0.495210 0.574515 0.662451
O O5 0.258186 0.677648 0.541062
O O6 0.071549 0.660800 0.713553
O O7 0.600998 0.163540 0.430875
O O8 0.530262 0.279302 0.672502
O O9 0.611043 0.168390 0.914273
#
# Coordination Sequence:
#
# PCOD9365777 Si02
#       5
#     8   4   8   8   8
#     4  10  22  38  59  89 126 169 213 258 320 389
#     4  12  24  42  68 100 134 172 214 274 332 388
#     4  10  18  32  56  81 112 156 206 251 301 366
#     4  10  20  40  59  87 119 163 209 256 308 380
#     4  10  22  36  62  89 122 158 207 257 315 377
#
# _framework density 28.255478
#
# number of rings (size 3 to 8) (size 9 to 14) (size 15 to 20)
#    0.000    1.778    0.000    6.667    0.000    3.556 
#    0.000    2.222    0.000    0.000    0.000    0.000 
#    0.000    0.000    0.000    0.000    0.000    0.000 
#
# Total GULP energy -100575.558646 kJ/mol
# GULP energy per Si atom -5587.531036 kJ/mol
# Density = 2.819117 g / cm^3
# Si number density = 28.255478 Si / 1000 Ang^3
#
#
#
# Elastic Constant Matrix: (Units=GPa)
#
#
# Indices 1 2 3 4 5 6 
#
# 1 131.7741 -13.9758 20.3556 0.0000 0.0000 0.0000
# 2 -13.9758 155.2340 23.6394 0.0000 0.0000 0.0000
# 3 20.3556 23.6394 284.9354 0.0000 0.0000 0.0000
# 4 0.0000 0.0000 0.0000 30.4057 0.0000 0.0000
# 5 0.0000 0.0000 0.0000 0.0000 25.5183 0.0000
# 6 0.0000 0.0000 0.0000 0.0000 0.0000 26.5285
#
#
#
# Elastic Compliance Matrix: (Units=1/GPa)
#
#
# Indices 1 2 3 4 5 6 
#
# 1 0.007769 0.000794 -0.000621 0.000000 0.000000 0.000000
# 2 0.000794 0.006605 -0.000605 0.000000 0.000000 0.000000
# 3 -0.000621 -0.000605 0.003604 0.000000 0.000000 0.000000
# 4 0.000000 0.000000 0.000000 0.032889 0.000000 0.000000
# 5 0.000000 0.000000 0.000000 0.000000 0.039187 0.000000
# 6 0.000000 0.000000 0.000000 0.000000 0.000000 0.037695
#
#
# Mechanical properties :
#
#
# Convention : Reuss Voigt Hill
#
# Bulk Modulus (GPa) = 58.42776 70.22022 64.32399
# Shear Modulus (GPa) = 37.22506 52.61879 44.92193
#
# Velocity S-wave (km/s) = 3.63360 4.32006 3.99162
# Velocity P-wave (km/s) = 6.19091 7.05619 6.63766
#
# Compressibility (1/GPa) = 0.01711515
#
# Stress axis : x y z
#
# Youngs Moduli (GPa) = 128.71899 151.38993 277.46225
#
# Poissons Ratio (x) = -0.12020 0.17227
# Poissons Ratio (y) = -0.10220 0.16779
# Poissons Ratio (z) = 0.07992 0.09155
#
# Static dielectric constant tensor:
#      x y z
#    x 2.145110 0.000000 0.000000 
#    y 0.000000 2.268150 0.000000 
#    z 0.000000 0.000000 2.422510 
# 
# From -- ./inp_files/209.got.cif
#   From: 2010.05.17/outbox.cif.g08.bks.cpg/sg41_1_cif.got.tgz:209.got - 2010.06.03 18:54:24.
