data_PCOD9365745
_publ_section_title
;
Structure prediction by ZEFSAII (Michael W. Deem and Ramdas Pophale) SiO2 
 PCOD9365745
Probable space group: A B A 2
;
_chemical_formula_sum "Si O2"
_cell_formula_units_Z 60
_cell_length_a 23.801958
_cell_length_b 17.633925
_cell_length_c 7.790630
_cell_angle_alpha 90.000000
_cell_angle_beta 90.000000
_cell_angle_gamma 90.000000
_cell_volume 3269.898355
_symmetry_space_group_name_H-M "A B A 2"
_symmetry_group_IT_number 41
_symmetry_cell_setting 'orthorhombic'
loop_
_space_group_symop_operation_xyz
x,y,z
-x,-y,z
1/2-x,y,1/2+z
1/2+x,-y,1/2+z
x,1/2+y,1/2+z
-x,1/2-y,1/2+z
1/2-x,1/2+y,z
1/2+x,1/2-y,z
loop_
_atom_site_type_symbol
_atom_site_label
_atom_site_fract_x
_atom_site_fract_y
_atom_site_fract_z
Si Si1 0.595630 0.758700 0.931560
Si Si2 0.072933 0.899643 0.075896
Si Si3 0.138284 0.536034 0.644824
Si Si4 0.800825 0.373277 0.935521
Si Si5 0.558876 0.347360 0.750938
Si Si6 0.960230 0.837294 0.130808
Si Si7 0.500000 0.500000 0.814559
Si Si8 0.682973 0.894510 0.318290
O O1 0.654848 0.804007 0.931673
O O2 0.565928 0.772867 0.749138
O O3 0.601094 0.671659 0.983255
O O4 0.557396 0.798831 0.078931
O O5 0.115957 0.952160 0.176880
O O6 0.020933 0.867956 0.187332
O O7 0.044217 0.955597 0.935553
O O8 0.178593 0.568588 0.790409
O O9 0.084476 0.593221 0.641092
O O10 0.168351 0.541824 0.459164
O O11 0.736941 0.350884 0.893065
O O12 0.803416 0.412984 0.121379
O O13 0.533814 0.432146 0.720713
O O14 0.624744 0.349572 0.801105
O O15 0.532026 0.318290 0.928840
#
# Coordination Sequence:
#
# PCOD9365745 Si02
#       8
#     8   8   8   8   8   8   4   8
#     4  10  23  35  55  87 113 142 196 232 282 342
#     4  11  19  36  58  82 120 148 181 240 285 335
#     4  10  18  36  56  80 112 144 188 233 278 337
#     4  10  20  34  59  84 101 147 196 234 277 337
#     4   9  19  37  56  81 111 148 186 231 279 340
#     4   9  19  36  55  79 110 155 180 220 281 345
#     4  10  18  36  58  80 116 158 180 220 294 332
#     4  10  17  33  60  80 102 143 196 227 274 336
#
# _framework density 18.349193
#
# number of rings (size 3 to 8) (size 9 to 14) (size 15 to 20)
#    0.000    2.133    5.333    0.000    3.733    0.000 
#    7.200    1.333    5.867    0.000    0.000    0.000 
#    0.000    0.000    0.000    0.000    0.000    0.000 
#
# Total GULP energy -167049.422347 kJ/mol
# GULP energy per Si atom -5568.314078 kJ/mol
# Density = 1.830743 g / cm^3
# Si number density = 18.349193 Si / 1000 Ang^3
#
#
#
# Elastic Constant Matrix: (Units=GPa)
#
#
# Indices 1 2 3 4 5 6 
#
# 1 83.8089 28.0364 19.7473 0.0000 0.0000 0.0000
# 2 28.0364 87.0990 13.3201 0.0000 0.0000 0.0000
# 3 19.7473 13.3201 69.8430 0.0000 0.0000 0.0000
# 4 0.0000 0.0000 0.0000 22.9373 0.0000 0.0000
# 5 0.0000 0.0000 0.0000 0.0000 20.0098 0.0000
# 6 0.0000 0.0000 0.0000 0.0000 0.0000 9.2134
#
#
#
# Elastic Compliance Matrix: (Units=1/GPa)
#
#
# Indices 1 2 3 4 5 6 
#
# 1 0.014033 -0.004028 -0.003200 0.000000 0.000000 0.000000
# 2 -0.004028 0.012982 -0.001337 0.000000 0.000000 0.000000
# 3 -0.003200 -0.001337 0.015477 0.000000 0.000000 0.000000
# 4 0.000000 0.000000 0.000000 0.043597 0.000000 0.000000
# 5 0.000000 0.000000 0.000000 0.000000 0.049976 0.000000
# 6 0.000000 0.000000 0.000000 0.000000 0.000000 0.108538
#
#
# Mechanical properties :
#
#
# Convention : Reuss Voigt Hill
#
# Bulk Modulus (GPa) = 39.42609 40.32872 39.87741
# Shear Modulus (GPa) = 18.50569 22.40856 20.45712
#
# Velocity S-wave (km/s) = 3.17918 3.49840 3.34260
# Velocity P-wave (km/s) = 5.91688 6.19230 6.05615
#
# Compressibility (1/GPa) = 0.02536391
#
# Stress axis : x y z
#
# Youngs Moduli (GPa) = 71.25942 77.02850 64.61011
#
# Poissons Ratio (x) = 0.31026 0.20672
# Poissons Ratio (y) = 0.28702 0.08639
# Poissons Ratio (z) = 0.22800 0.10299
#
# Static dielectric constant tensor:
#      x y z
#    x 1.681410 0.000000 0.000000 
#    y 0.000000 1.635330 0.000000 
#    z 0.000000 0.000000 1.667000 
# 
# From -- ./inp_files/3853.got.cif
#   From: 2010.05.17/outbox.cif.g08.bks.cpg/sg41_2_cif.got.tgz:3853.got - 2010.06.03 18:54:24.
