data_PCOD9365100
_publ_section_title
;
Structure prediction by ZEFSAII (Michael W. Deem and Ramdas Pophale) SiO2 
 PCOD9365100
Probable space group: A M A 2
;
_chemical_formula_sum "Si O2"
_cell_formula_units_Z 48
_cell_length_a 23.161302
_cell_length_b 13.207813
_cell_length_c 7.496077
_cell_angle_alpha 90.000000
_cell_angle_beta 90.000000
_cell_angle_gamma 90.000000
_cell_volume 2293.126007
_symmetry_space_group_name_H-M "A M A 2"
_symmetry_group_IT_number 40
_symmetry_cell_setting 'orthorhombic'
loop_
_space_group_symop_operation_xyz
x,y,z
-x,-y,z
1/2-x,y,z
1/2+x,-y,z
x,1/2+y,1/2+z
-x,1/2-y,1/2+z
1/2-x,1/2+y,1/2+z
1/2+x,1/2-y,1/2+z
loop_
_atom_site_type_symbol
_atom_site_label
_atom_site_fract_x
_atom_site_fract_y
_atom_site_fract_z
Si Si1 0.184529 0.822430 0.934420
Si Si2 0.871273 0.375290 0.854736
Si Si3 0.931283 0.116409 0.716209
Si Si4 0.441319 0.123470 0.685271
Si Si5 0.185635 0.910919 0.331416
Si Si6 0.877533 0.763577 0.982614
O O1 0.250000 0.847489 0.869223
O O2 0.177094 0.700756 0.933763
O O3 0.127071 0.857039 0.825505
O O4 0.178860 0.872135 0.128795
O O5 0.855173 0.493097 0.866680
O O6 0.875913 0.340916 0.648260
O O7 0.927584 0.353635 0.977535
O O8 0.924404 0.178308 0.533017
O O9 0.996171 0.147736 0.769932
O O10 0.933318 0.996599 0.700738
O O11 0.394108 0.179150 0.804575
O O12 0.250000 0.949653 0.356581
O O13 0.176547 0.810360 0.450607
#
# Coordination Sequence:
#
# PCOD9365100 Si02
#       6
#     8   8   8   8   8   8
#     4  10  22  43  69  99 136 178 226 277 339 403
#     4  11  23  43  66  99 133 175 224 275 336 393
#     4  10  24  43  66 100 134 177 222 277 336 399
#     4  11  23  45  65  98 138 170 228 277 331 402
#     4  11  23  42  68  98 135 178 226 277 334 404
#     4  11  24  40  67  96 130 175 219 276 336 396
#
# _framework density 20.932126
#
# number of rings (size 3 to 8) (size 9 to 14) (size 15 to 20)
#    0.000    1.333    3.333    1.500    4.667    3.333 
#    0.000    2.500    0.000    0.000    0.000    0.000 
#    0.000    0.000    0.000    0.000    0.000    0.000 
#
# Total GULP energy -133608.501111 kJ/mol
# GULP energy per Si atom -5567.020880 kJ/mol
# Density = 2.088448 g / cm^3
# Si number density = 20.932126 Si / 1000 Ang^3
#
#
#
# Elastic Constant Matrix: (Units=GPa)
#
#
# Indices 1 2 3 4 5 6 
#
# 1 119.1860 32.3045 46.0361 0.0000 0.0000 0.0000
# 2 32.3045 95.1564 28.7169 0.0000 0.0000 0.0000
# 3 46.0361 28.7169 96.0684 0.0000 0.0000 0.0000
# 4 0.0000 0.0000 0.0000 27.5658 0.0000 0.0000
# 5 0.0000 0.0000 0.0000 0.0000 26.3682 0.0000
# 6 0.0000 0.0000 0.0000 0.0000 0.0000 29.9348
#
#
#
# Elastic Compliance Matrix: (Units=1/GPa)
#
#
# Indices 1 2 3 4 5 6 
#
# 1 0.010735 -0.002299 -0.004457 0.000000 0.000000 0.000000
# 2 -0.002299 0.012044 -0.002498 0.000000 0.000000 0.000000
# 3 -0.004457 -0.002498 0.013292 0.000000 0.000000 0.000000
# 4 0.000000 0.000000 0.000000 0.036277 0.000000 0.000000
# 5 0.000000 0.000000 0.000000 0.000000 0.037924 0.000000
# 6 0.000000 0.000000 0.000000 0.000000 0.000000 0.033406
#
#
# Mechanical properties :
#
#
# Convention : Reuss Voigt Hill
#
# Bulk Modulus (GPa) = 56.94324 58.28065 57.61194
# Shear Modulus (GPa) = 29.75479 30.33065 30.04272
#
# Velocity S-wave (km/s) = 3.77435 3.81070 3.79257
# Velocity P-wave (km/s) = 6.80126 6.87496 6.83821
#
# Compressibility (1/GPa) = 0.01756135
#
# Stress axis : x y z
#
# Youngs Moduli (GPa) = 93.15352 83.03195 75.23457
#
# Poissons Ratio (x) = 0.19092 0.33531
# Poissons Ratio (y) = 0.21419 0.18795
# Poissons Ratio (z) = 0.41517 0.20743
#
# Static dielectric constant tensor:
#      x y z
#    x 1.830580 0.000000 0.000000 
#    y 0.000000 1.737250 0.000000 
#    z 0.000000 0.000000 1.784600 
# 
# From -- ./inp_files/8181.got.cif
#   From: 2010.05.17/outbox.cif.g08.bks.cpg/sg40_5_cif.got.tgz:8181.got - 2010.06.03 18:35:42.
