data_PCOD9365062
_publ_section_title
;
Structure prediction by ZEFSAII (Michael W. Deem and Ramdas Pophale) SiO2 
 PCOD9365062
Probable space group: A M A 2
;
_chemical_formula_sum "Si O2"
_cell_formula_units_Z 60
_cell_length_a 23.550225
_cell_length_b 11.246814
_cell_length_c 9.283304
_cell_angle_alpha 90.000000
_cell_angle_beta 90.000000
_cell_angle_gamma 90.000000
_cell_volume 2458.822316
_symmetry_space_group_name_H-M "A M A 2"
_symmetry_group_IT_number 40
_symmetry_cell_setting 'orthorhombic'
loop_
_space_group_symop_operation_xyz
x,y,z
-x,-y,z
1/2-x,y,z
1/2+x,-y,z
x,1/2+y,1/2+z
-x,1/2-y,1/2+z
1/2-x,1/2+y,1/2+z
1/2+x,1/2-y,1/2+z
loop_
_atom_site_type_symbol
_atom_site_label
_atom_site_fract_x
_atom_site_fract_y
_atom_site_fract_z
Si Si1 0.500000 0.500000 0.006630
Si Si2 0.817733 0.002164 0.438844
Si Si3 0.385527 0.872764 0.865186
Si Si4 0.898239 0.893173 0.666094
Si Si5 0.558051 0.696173 0.834325
Si Si6 0.003709 0.357767 0.539920
Si Si7 0.816089 0.239617 0.619168
Si Si8 0.183581 0.493026 0.609079
O O1 0.538132 0.411208 0.101589
O O2 0.547424 0.571845 0.916186
O O3 0.750000 0.975096 0.440926
O O4 0.852226 0.912837 0.540859
O O5 0.837480 0.006388 0.273746
O O6 0.825803 0.133343 0.507077
O O7 0.346930 0.906957 0.000155
O O8 0.393043 0.995030 0.774679
O O9 0.443306 0.827861 0.935670
O O10 0.356144 0.782726 0.755418
O O11 0.893425 0.766300 0.744927
O O12 0.512750 0.678751 0.704179
O O13 0.546809 0.790549 0.961743
O O14 0.000000 0.500000 0.535803
O O15 0.750000 0.230570 0.666719
O O16 0.823336 0.370839 0.557381
O O17 0.250000 0.464476 0.613345
#
# Coordination Sequence:
#
# PCOD9365062 Si02
#       8
#     4   8   8   8   8   8   8   8
#     4  12  26  44  70  98 134 178 228 280 348 412
#     4   9  21  42  67  99 139 179 227 281 340 409
#     4  11  24  40  68  96 131 170 225 275 329 401
#     4  11  24  44  69  98 137 181 224 284 342 404
#     4  12  26  45  69  93 134 176 223 277 342 409
#     4  12  26  45  65  98 132 172 224 277 335 405
#     4   9  20  41  65  94 133 176 215 267 333 390
#     4  10  22  42  67  98 136 175 220 276 333 397
#
# _framework density 24.401924999999999
#
# number of rings (size 3 to 8) (size 9 to 14) (size 15 to 20)
#    0.000    1.333    3.333    1.200    3.733    3.733 
#    0.000    0.000    0.000    7.200    0.000    0.000 
#    0.000    0.000    0.000    0.000    0.000    0.000 
#
# Total GULP energy -167887.785688 kJ/mol
# GULP energy per Si atom -5596.259523 kJ/mol
# Density = 2.434639 g / cm^3
# Si number density = 24.401925 Si / 1000 Ang^3
#
#
#
# Elastic Constant Matrix: (Units=GPa)
#
#
# Indices 1 2 3 4 5 6 
#
# 1 62.1842 -3.3616 18.3864 0.0000 0.0000 0.0000
# 2 -3.3616 77.2982 7.5093 0.0000 0.0000 0.0000
# 3 18.3864 7.5093 97.2038 0.0000 0.0000 0.0000
# 4 0.0000 0.0000 0.0000 42.4222 0.0000 0.0000
# 5 0.0000 0.0000 0.0000 0.0000 41.0798 0.0000
# 6 0.0000 0.0000 0.0000 0.0000 0.0000 23.3058
#
#
#
# Elastic Compliance Matrix: (Units=1/GPa)
#
#
# Indices 1 2 3 4 5 6 
#
# 1 0.017121 0.001067 -0.003321 0.000000 0.000000 0.000000
# 2 0.001067 0.013101 -0.001214 0.000000 0.000000 0.000000
# 3 -0.003321 -0.001214 0.011010 0.000000 0.000000 0.000000
# 4 0.000000 0.000000 0.000000 0.023573 0.000000 0.000000
# 5 0.000000 0.000000 0.000000 0.000000 0.024343 0.000000
# 6 0.000000 0.000000 0.000000 0.000000 0.000000 0.042908
#
#
# Mechanical properties :
#
#
# Convention : Reuss Voigt Hill
#
# Bulk Modulus (GPa) = 29.15765 31.30605 30.23185
# Shear Modulus (GPa) = 33.23974 35.63838 34.43906
#
# Velocity S-wave (km/s) = 3.69477 3.82576 3.76084
# Velocity P-wave (km/s) = 5.49333 5.68968 5.59236
#
# Compressibility (1/GPa) = 0.03429631
#
# Stress axis : x y z
#
# Youngs Moduli (GPa) = 58.40826 76.32860 90.82978
#
# Poissons Ratio (x) = -0.08146 0.30164
# Poissons Ratio (y) = -0.06233 0.11026
# Poissons Ratio (z) = 0.19397 0.09266
#
# Static dielectric constant tensor:
#      x y z
#    x 2.013840 0.000000 0.000000 
#    y 0.000000 1.983090 0.000000 
#    z 0.000000 0.000000 1.896350 
# 
# From -- ./inp_files/9166.got.cif
#   From: 2010.05.17/outbox.cif.g08.bks.cpg/sg40_5_cif.got.tgz:9166.got - 2010.06.03 18:35:42.
