data_PCOD9365339
_publ_section_title
;
Structure prediction by ZEFSAII (Michael W. Deem and Ramdas Pophale) SiO2 
 PCOD9365339
Probable space group: A M A 2
;
_chemical_formula_sum "Si O2"
_cell_formula_units_Z 24
_cell_length_a 8.121141
_cell_length_b 23.392484
_cell_length_c 4.746307
_cell_angle_alpha 90.000000
_cell_angle_beta 90.000000
_cell_angle_gamma 90.000000
_cell_volume 901.673317
_symmetry_space_group_name_H-M "A M A 2"
_symmetry_group_IT_number 40
_symmetry_cell_setting 'orthorhombic'
loop_
_space_group_symop_operation_xyz
x,y,z
-x,-y,z
1/2-x,y,z
1/2+x,-y,z
x,1/2+y,1/2+z
-x,1/2-y,1/2+z
1/2-x,1/2+y,1/2+z
1/2+x,1/2-y,1/2+z
loop_
_atom_site_type_symbol
_atom_site_label
_atom_site_fract_x
_atom_site_fract_y
_atom_site_fract_z
Si Si1 0.943542 0.214770 0.072280
Si Si2 0.930847 0.888978 0.443788
Si Si3 0.250000 0.515054 0.643905
Si Si4 0.750000 0.564715 0.140928
O O1 0.750000 0.205358 0.032980
O O2 0.972331 0.268740 0.280196
O O3 0.024287 0.162407 0.236985
O O4 0.750000 0.879689 0.578108
O O5 0.080491 0.900417 0.658261
O O6 0.899482 0.944928 0.246939
O O7 0.250000 0.457082 0.820808
O O8 0.250000 0.492627 0.327122
#
# Coordination Sequence:
#
# PCOD9365339 Si02
#       4
#     8   8   4   4
#     4  12  26  49  80 117 157 201 258 322 390 467
#     4  10  25  50  74 115 149 204 254 318 379 459
#     4  10  28  44  76 106 152 200 256 312 369 462
#     4  12  24  52  68 110 152 202 252 314 379 442
#
# _framework density 26.617177000000002
#
# number of rings (size 3 to 8) (size 9 to 14) (size 15 to 20)
#    1.000    0.000    1.667    4.000    0.000   10.667 
#    3.000    0.000    0.000    0.000    0.000    0.000 
#    0.000    0.000    0.000    0.000    0.000    0.000 
#
# Total GULP energy -67304.323440 kJ/mol
# GULP energy per Si atom -5608.693620 kJ/mol
# Density = 2.655659 g / cm^3
# Si number density = 26.617177 Si / 1000 Ang^3
#
#
#
# Elastic Constant Matrix: (Units=GPa)
#
#
# Indices 1 2 3 4 5 6 
#
# 1 239.3241 47.2804 36.3077 0.0000 0.0000 0.0000
# 2 47.2804 94.8910 6.7649 0.0000 0.0000 0.0000
# 3 36.3077 6.7649 94.5481 0.0000 0.0000 0.0000
# 4 0.0000 0.0000 0.0000 49.7606 0.0000 0.0000
# 5 0.0000 0.0000 0.0000 0.0000 31.4938 0.0000
# 6 0.0000 0.0000 0.0000 0.0000 0.0000 52.6117
#
#
#
# Elastic Compliance Matrix: (Units=1/GPa)
#
#
# Indices 1 2 3 4 5 6 
#
# 1 0.004896 -0.002317 -0.001714 0.000000 0.000000 0.000000
# 2 -0.002317 0.011689 0.000054 0.000000 0.000000 0.000000
# 3 -0.001714 0.000054 0.011231 0.000000 0.000000 0.000000
# 4 0.000000 0.000000 0.000000 0.020096 0.000000 0.000000
# 5 0.000000 0.000000 0.000000 0.000000 0.031752 0.000000
# 6 0.000000 0.000000 0.000000 0.000000 0.000000 0.019007
#
#
# Mechanical properties :
#
#
# Convention : Reuss Voigt Hill
#
# Bulk Modulus (GPa) = 50.35211 67.71880 59.03545
# Shear Modulus (GPa) = 44.15041 49.33389 46.74215
#
# Velocity S-wave (km/s) = 4.07716 4.30985 4.19512
# Velocity P-wave (km/s) = 6.41268 7.08967 6.75966
#
# Compressibility (1/GPa) = 0.01986014
#
# Stress axis : x y z
#
# Youngs Moduli (GPa) = 204.23335 85.54849 89.03796
#
# Poissons Ratio (x) = 0.19825 0.15265
# Poissons Ratio (y) = 0.47330 -0.00477
# Poissons Ratio (z) = 0.35015 -0.00458
#
# Static dielectric constant tensor:
#      x y z
#    x 2.078260 0.000000 0.000000 
#    y 0.000000 2.070660 0.000000 
#    z 0.000000 0.000000 1.981130 
# 
# From -- ./inp_files/230.got.cif
#   From: 2010.05.17/outbox.cif.g08.bks.cpg/sg40_1_cif.got.tgz:230.got - 2010.06.03 18:35:42.
