data_PCOD9365187
_publ_section_title
;
Structure prediction by ZEFSAII (Michael W. Deem and Ramdas Pophale) SiO2 
 PCOD9365187
Probable space group: A M A 2
;
_chemical_formula_sum "Si O2"
_cell_formula_units_Z 48
_cell_length_a 22.533777
_cell_length_b 9.236737
_cell_length_c 10.638296
_cell_angle_alpha 90.000000
_cell_angle_beta 90.000000
_cell_angle_gamma 90.000000
_cell_volume 2214.239735
_symmetry_space_group_name_H-M "A M A 2"
_symmetry_group_IT_number 40
_symmetry_cell_setting 'orthorhombic'
loop_
_space_group_symop_operation_xyz
x,y,z
-x,-y,z
1/2-x,y,z
1/2+x,-y,z
x,1/2+y,1/2+z
-x,1/2-y,1/2+z
1/2-x,1/2+y,1/2+z
1/2+x,1/2-y,1/2+z
loop_
_atom_site_type_symbol
_atom_site_label
_atom_site_fract_x
_atom_site_fract_y
_atom_site_fract_z
Si Si1 0.652411 0.408453 0.732160
Si Si2 0.555029 0.107755 0.114230
Si Si3 0.606619 0.103660 0.836656
Si Si4 0.315793 0.143078 0.953178
Si Si5 0.181181 0.969237 0.490466
Si Si6 0.442613 0.063042 0.617528
O O1 0.598975 0.520295 0.705495
O O2 0.632742 0.246316 0.770714
O O3 0.684444 0.409699 0.597730
O O4 0.686548 0.462054 0.853423
O O5 0.545107 0.271726 0.156564
O O6 0.500000 0.000000 0.101940
O O7 0.580309 0.133198 0.973683
O O8 0.561032 0.038217 0.738892
O O9 0.652068 0.972931 0.866475
O O10 0.250000 0.161134 0.903104
O O11 0.340557 0.304551 0.967653
O O12 0.250000 0.969193 0.545713
O O13 0.124428 0.046562 0.558070
O O14 0.500000 0.000000 0.541233
#
# Coordination Sequence:
#
# PCOD9365187 Si02
#       6
#     8   8   8   8   8   8
#     4  11  22  44  67  96 136 180 230 282 349 407
#     4  11  25  43  67 101 136 182 230 287 349 417
#     4  11  23  43  68  97 137 178 231 282 348 416
#     4  10  23  41  68  98 134 180 228 284 345 410
#     4  11  24  44  69 100 137 183 232 284 343 414
#     4  12  25  45  69 103 140 184 231 287 352 415
#
# _framework density 21.677869000000001
#
# number of rings (size 3 to 8) (size 9 to 14) (size 15 to 20)
#    0.000    1.000    3.333    3.000    2.333    2.667 
#    3.000    0.833    0.000    0.000    0.000    0.000 
#    0.000    0.000    0.000    0.000    0.000    0.000 
#
# Total GULP energy -133775.157943 kJ/mol
# GULP energy per Si atom -5573.964914 kJ/mol
# Density = 2.162853 g / cm^3
# Si number density = 21.677869 Si / 1000 Ang^3
#
#
#
# Elastic Constant Matrix: (Units=GPa)
#
#
# Indices 1 2 3 4 5 6 
#
# 1 104.3983 46.9789 24.2458 0.0000 0.0000 0.0000
# 2 46.9789 152.9480 10.9715 0.0000 0.0000 0.0000
# 3 24.2458 10.9715 64.9314 0.0000 0.0000 0.0000
# 4 0.0000 0.0000 0.0000 30.1459 0.0000 0.0000
# 5 0.0000 0.0000 0.0000 0.0000 11.5034 0.0000
# 6 0.0000 0.0000 0.0000 0.0000 0.0000 1.9912
#
#
#
# Elastic Compliance Matrix: (Units=1/GPa)
#
#
# Indices 1 2 3 4 5 6 
#
# 1 0.012023 -0.003412 -0.003913 0.000000 0.000000 0.000000
# 2 -0.003412 0.007587 -0.000008 0.000000 0.000000 0.000000
# 3 -0.003913 -0.000008 0.016863 0.000000 0.000000 0.000000
# 4 0.000000 0.000000 0.000000 0.033172 0.000000 0.000000
# 5 0.000000 0.000000 0.000000 0.000000 0.086931 0.000000
# 6 0.000000 0.000000 0.000000 0.000000 0.000000 0.502210
#
#
# Mechanical properties :
#
#
# Convention : Reuss Voigt Hill
#
# Bulk Modulus (GPa) = 45.85639 54.07447 49.96543
# Shear Modulus (GPa) = 7.34515 24.73351 16.03933
#
# Velocity S-wave (km/s) = 1.84274 3.38147 2.72305
# Velocity P-wave (km/s) = 5.07218 6.34385 5.74332
#
# Compressibility (1/GPa) = 0.02180721
#
# Stress axis : x y z
#
# Youngs Moduli (GPa) = 83.17438 131.80755 59.30045
#
# Poissons Ratio (x) = 0.44976 0.23204
# Poissons Ratio (y) = 0.28381 0.00046
# Poissons Ratio (z) = 0.32545 0.00103
#
# Static dielectric constant tensor:
#      x y z
#    x 1.901870 0.000000 0.000000 
#    y 0.000000 1.798520 0.000000 
#    z 0.000000 0.000000 1.785660 
# 
# From -- ./inp_files/13921.got.cif
#   From: 2010.05.17/outbox.cif.g08.bks.cpg/sg40_7_cif.got.tgz:13921.got - 2010.06.03 18:35:42.
