data_PCOD9365776
_publ_section_title
;
Structure prediction by ZEFSAII (Michael W. Deem and Ramdas Pophale) SiO2 
 PCOD9365776
Probable space group: A B A 2
;
_chemical_formula_sum "Si O2"
_cell_formula_units_Z 32
_cell_length_a 13.735924
_cell_length_b 7.720354
_cell_length_c 12.057108
_cell_angle_alpha 90.000000
_cell_angle_beta 90.000000
_cell_angle_gamma 90.000000
_cell_volume 1278.610436
_symmetry_space_group_name_H-M "A B A 2"
_symmetry_group_IT_number 41
_symmetry_cell_setting 'orthorhombic'
loop_
_space_group_symop_operation_xyz
x,y,z
-x,-y,z
1/2-x,y,1/2+z
1/2+x,-y,1/2+z
x,1/2+y,1/2+z
-x,1/2-y,1/2+z
1/2-x,1/2+y,z
1/2+x,1/2-y,z
loop_
_atom_site_type_symbol
_atom_site_label
_atom_site_fract_x
_atom_site_fract_y
_atom_site_fract_z
Si Si1 0.238202 0.990017 0.017270
Si Si2 0.928406 0.832913 0.926679
Si Si3 0.387618 0.977847 0.215166
Si Si4 0.878904 0.806899 0.399402
O O1 0.155335 0.140889 0.015887
O O2 0.304426 0.990010 0.124812
O O3 0.314282 0.022907 0.915251
O O4 0.174544 0.821719 0.987606
O O5 0.879660 0.868560 0.807182
O O6 0.000000 0.000000 0.937470
O O7 0.007249 0.683487 0.928875
O O8 0.500000 0.000000 0.174522
O O9 0.377098 0.797262 0.283436
#
# Coordination Sequence:
#
# PCOD9365776 Si02
#       4
#     8   8   8   8
#     4  10  18  32  56  77  98 142 185 213 266 331
#     4   7  16  35  50  69 109 145 168 218 280 320
#     4   8  17  34  54  77 109 146 177 219 277 325
#     4   9  20  35  52  77 110 139 176 228 272 318
#
# _framework density 25.027170000000002
#
# number of rings (size 3 to 8) (size 9 to 14) (size 15 to 20)
#    0.000    4.500    0.000    0.000    0.000    6.000 
#    0.000    5.000    0.000   24.000    0.000    0.000 
#    0.000    0.000    0.000    0.000    0.000    0.000 
#
# Total GULP energy -89237.230271 kJ/mol
# GULP energy per Si atom -5577.326892 kJ/mol
# Density = 2.497021 g / cm^3
# Si number density = 25.027170 Si / 1000 Ang^3
#
#
#
# Elastic Constant Matrix: (Units=GPa)
#
#
# Indices 1 2 3 4 5 6 
#
# 1 188.7465 15.6211 94.5684 0.0000 0.0000 0.0000
# 2 15.6211 71.0196 27.6780 0.0000 0.0000 0.0000
# 3 94.5684 27.6780 136.9003 0.0000 0.0000 0.0000
# 4 0.0000 0.0000 0.0000 19.8553 0.0000 0.0000
# 5 0.0000 0.0000 0.0000 0.0000 67.6694 0.0000
# 6 0.0000 0.0000 0.0000 0.0000 0.0000 28.8288
#
#
#
# Elastic Compliance Matrix: (Units=1/GPa)
#
#
# Indices 1 2 3 4 5 6 
#
# 1 0.008115 0.000434 -0.005693 0.000000 0.000000 0.000000
# 2 0.000434 0.015308 -0.003395 0.000000 0.000000 0.000000
# 3 -0.005693 -0.003395 0.011924 0.000000 0.000000 0.000000
# 4 0.000000 0.000000 0.000000 0.050364 0.000000 0.000000
# 5 0.000000 0.000000 0.000000 0.000000 0.014778 0.000000
# 6 0.000000 0.000000 0.000000 0.000000 0.000000 0.034687
#
#
# Mechanical properties :
#
#
# Convention : Reuss Voigt Hill
#
# Bulk Modulus (GPa) = 55.43679 74.71126 65.07403
# Shear Modulus (GPa) = 31.54635 40.52396 36.03516
#
# Velocity S-wave (km/s) = 3.55418 4.02829 3.79864
# Velocity P-wave (km/s) = 6.24833 7.18005 6.73033
#
# Compressibility (1/GPa) = 0.01803856
#
# Stress axis : x y z
#
# Youngs Moduli (GPa) = 123.23316 65.32459 83.86660
#
# Poissons Ratio (x) = -0.02835 0.47747
# Poissons Ratio (y) = -0.05347 0.28470
# Poissons Ratio (z) = 0.70159 0.22176
#
# Static dielectric constant tensor:
#      x y z
#    x 2.023660 0.000000 0.000000 
#    y 0.000000 2.148840 0.000000 
#    z 0.000000 0.000000 1.985960 
# 
# From -- ./inp_files/5278.got.cif
#   From: 2010.05.17/outbox.cif.g08.bks.cpg/sg41_3_cif.got.tgz:5278.got - 2010.06.03 18:54:24.
