data_PCOD9365292
_publ_section_title
;
Structure prediction by ZEFSAII (Michael W. Deem and Ramdas Pophale) SiO2 
 PCOD9365292
Probable space group: A M A 2
;
_chemical_formula_sum "Si O2"
_cell_formula_units_Z 40
_cell_length_a 16.700405
_cell_length_b 16.657341
_cell_length_c 6.546078
_cell_angle_alpha 90.000000
_cell_angle_beta 90.000000
_cell_angle_gamma 90.000000
_cell_volume 1821.016394
_symmetry_space_group_name_H-M "A M A 2"
_symmetry_group_IT_number 40
_symmetry_cell_setting 'orthorhombic'
loop_
_space_group_symop_operation_xyz
x,y,z
-x,-y,z
1/2-x,y,z
1/2+x,-y,z
x,1/2+y,1/2+z
-x,1/2-y,1/2+z
1/2-x,1/2+y,1/2+z
1/2+x,1/2-y,1/2+z
loop_
_atom_site_type_symbol
_atom_site_label
_atom_site_fract_x
_atom_site_fract_y
_atom_site_fract_z
Si Si1 0.250000 0.318363 0.520771
Si Si2 0.615316 0.256505 0.722214
Si Si3 0.750000 0.001562 0.210154
Si Si4 0.114361 0.498395 0.030664
Si Si5 0.005933 0.636146 0.005941
Si Si6 0.250000 0.696438 0.391846
Si Si7 0.750000 0.470119 0.286831
O O1 0.326690 0.290534 0.383032
O O2 0.250000 0.411044 0.600576
O O3 0.250000 0.271372 0.734874
O O4 0.563251 0.323135 0.841079
O O5 0.545691 0.199236 0.631864
O O6 0.671840 0.290304 0.539563
O O7 0.825383 0.982826 0.348953
O O8 0.750000 0.944437 0.019701
O O9 0.174213 0.478986 0.215097
O O10 0.064691 0.573298 0.117307
O O11 0.061159 0.427804 0.938303
O O12 0.250000 0.623221 0.219952
#
# Coordination Sequence:
#
# PCOD9365292 Si02
#       7
#     4   8   4   8   8   4   4
#     4  11  24  45  70 100 135 186 235 286 341 429
#     4  11  26  42  68 103 138 180 236 285 360 414
#     4  11  22  41  70  91 126 179 226 269 334 425
#     4  10  24  44  62  96 136 170 222 282 344 398
#     4  11  24  44  64  95 140 174 218 295 340 404
#     4  11  24  45  70 100 135 186 235 286 341 429
#     4  11  22  41  70  91 126 179 226 269 334 425
#
# _framework density 21.965755000000001
#
# number of rings (size 3 to 8) (size 9 to 14) (size 15 to 20)
#    0.000    1.200    0.000    4.800    8.400    6.400 
#    0.000    2.000    0.000    0.000    0.000    0.000 
#    0.000    0.000    0.000    0.000    0.000    0.000 
#
# Total GULP energy -111363.304084 kJ/mol
# GULP energy per Si atom -5568.165204 kJ/mol
# Density = 2.191576 g / cm^3
# Si number density = 21.965755 Si / 1000 Ang^3
#
#
#
# Elastic Constant Matrix: (Units=GPa)
#
#
# Indices 1 2 3 4 5 6 
#
# 1 153.8965 52.0273 50.8771 0.0000 0.0000 0.0000
# 2 52.0273 88.2597 12.2129 0.0000 0.0000 0.0000
# 3 50.8771 12.2129 86.4139 0.0000 0.0000 0.0000
# 4 0.0000 0.0000 0.0000 22.6068 0.0000 0.0000
# 5 0.0000 0.0000 0.0000 0.0000 21.1901 0.0000
# 6 0.0000 0.0000 0.0000 0.0000 0.0000 -6.0748
#
#
#
# Elastic Compliance Matrix: (Units=1/GPa)
#
#
# Indices 1 2 3 4 5 6 
#
# 1 0.009929 -0.005145 -0.005119 0.000000 0.000000 0.000000
# 2 -0.005145 0.014222 0.001019 0.000000 0.000000 0.000000
# 3 -0.005119 0.001019 0.014442 0.000000 0.000000 0.000000
# 4 0.000000 0.000000 0.000000 0.044234 0.000000 0.000000
# 5 0.000000 0.000000 0.000000 0.000000 0.047192 0.000000
# 6 0.000000 0.000000 0.000000 0.000000 0.000000 -0.164616
#
#
# Mechanical properties :
#
#
# Convention : Reuss Voigt Hill
#
# Bulk Modulus (GPa) = 49.74134 62.08943 55.91539
# Shear Modulus (GPa) = -531.63246 21.77462 -254.92892
#
# Velocity S-wave (km/s) = -15.57412 3.15190 -10.78468
# Velocity P-wave (km/s) = 17.34100 6.44778 11.38280
#
# Compressibility (1/GPa) = 0.02010400
#
# Stress axis : x y z
#
# Youngs Moduli (GPa) = 100.71014 70.31365 69.24242
#
# Poissons Ratio (x) = 0.36176 0.35445
# Poissons Ratio (y) = 0.51814 -0.07057
# Poissons Ratio (z) = 0.51553 -0.07166
#
# Static dielectric constant tensor:
#      x y z
#    x 1.823760 0.000000 0.000000 
#    y 0.000000 5.695010 0.000000 
#    z 0.000000 0.000000 1.789090 
# 
# From -- ./inp_files/1772.got.cif
#   From: 2010.05.17/outbox.cif.g08.bks.cpg/sg40_1_cif.got.tgz:1772.got - 2010.06.03 18:35:42.
