data_PCOD9365910
_publ_section_title
;
Structure prediction by ZEFSAII (Michael W. Deem and Ramdas Pophale) SiO2 
 PCOD9365910
Probable space group: A B A 2
;
_chemical_formula_sum "Si O2"
_cell_formula_units_Z 48
_cell_length_a 18.505196
_cell_length_b 16.458841
_cell_length_c 9.109240
_cell_angle_alpha 90.000000
_cell_angle_beta 90.000000
_cell_angle_gamma 90.000000
_cell_volume 2774.438380
_symmetry_space_group_name_H-M "A B A 2"
_symmetry_group_IT_number 41
_symmetry_cell_setting 'orthorhombic'
loop_
_space_group_symop_operation_xyz
x,y,z
-x,-y,z
1/2-x,y,1/2+z
1/2+x,-y,1/2+z
x,1/2+y,1/2+z
-x,1/2-y,1/2+z
1/2-x,1/2+y,z
1/2+x,1/2-y,z
loop_
_atom_site_type_symbol
_atom_site_label
_atom_site_fract_x
_atom_site_fract_y
_atom_site_fract_z
Si Si1 0.954597 0.580576 0.882080
Si Si2 0.576199 0.840938 0.077648
Si Si3 0.670612 0.996661 0.064234
Si Si4 0.541863 0.415574 0.888184
Si Si5 0.415448 0.847656 0.574196
Si Si6 0.323751 0.481444 0.911438
O O1 0.919000 0.621671 0.741075
O O2 0.000000 0.500000 0.836722
O O3 0.892172 0.551421 0.992620
O O4 0.011510 0.637936 0.965613
O O5 0.549552 0.862979 0.241722
O O6 0.598191 0.747798 0.065828
O O7 0.640815 0.904716 0.051536
O O8 0.679356 0.019973 0.234870
O O9 0.745577 0.005436 0.979892
O O10 0.500000 0.500000 0.849801
O O11 0.619532 0.445650 0.945954
O O12 0.493791 0.368830 0.005569
O O13 0.358894 0.900728 0.480882
#
# Coordination Sequence:
#
# PCOD9365910 Si02
#       6
#     8   8   8   8   8   8
#     4  10  19  33  56  81 106 140 177 211 259 320
#     4  10  20  35  54  81 109 136 175 224 263 302
#     4  10  21  38  57  74 104 145 179 211 260 323
#     4   9  18  35  56  76 106 144 174 209 262 319
#     4  11  20  33  55  84 109 134 175 225 263 303
#     4  10  20  36  56  76 104 143 180 212 259 321
#
# _framework density 17.300798
#
# number of rings (size 3 to 8) (size 9 to 14) (size 15 to 20)
#    0.000    2.000    0.000    7.000    0.000    1.333 
#    0.000    8.333    0.000    0.000    0.000    0.000 
#    0.000    0.000    0.000    0.000    0.000    0.000 
#
# Total GULP energy -133963.973588 kJ/mol
# GULP energy per Si atom -5581.832233 kJ/mol
# Density = 1.726142 g / cm^3
# Si number density = 17.300798 Si / 1000 Ang^3
#
#
#
# Elastic Constant Matrix: (Units=GPa)
#
#
# Indices 1 2 3 4 5 6 
#
# 1 114.2030 52.6201 61.0167 0.0000 0.0000 0.0000
# 2 52.6201 121.9314 81.2287 0.0000 0.0000 0.0000
# 3 61.0167 81.2287 104.8120 0.0000 0.0000 0.0000
# 4 0.0000 0.0000 0.0000 5.8023 0.0000 0.0000
# 5 0.0000 0.0000 0.0000 0.0000 32.3940 0.0000
# 6 0.0000 0.0000 0.0000 0.0000 0.0000 7.6659
#
#
#
# Elastic Compliance Matrix: (Units=1/GPa)
#
#
# Indices 1 2 3 4 5 6 
#
# 1 0.012788 -0.001156 -0.006548 0.000000 0.000000 0.000000
# 2 -0.001156 0.017060 -0.012548 0.000000 0.000000 0.000000
# 3 -0.006548 -0.012548 0.023078 0.000000 0.000000 0.000000
# 4 0.000000 0.000000 0.000000 0.172346 0.000000 0.000000
# 5 0.000000 0.000000 0.000000 0.000000 0.030870 0.000000
# 6 0.000000 0.000000 0.000000 0.000000 0.000000 0.130448
#
#
# Mechanical properties :
#
#
# Convention : Reuss Voigt Hill
#
# Bulk Modulus (GPa) = 80.51619 81.18635 80.85127
# Shear Modulus (GPa) = 11.59462 18.91115 15.25289
#
# Velocity S-wave (km/s) = 2.59159 3.30976 2.97245
# Velocity P-wave (km/s) = 7.45622 7.85075 7.65602
#
# Compressibility (1/GPa) = 0.01241986
#
# Stress axis : x y z
#
# Youngs Moduli (GPa) = 78.19978 58.61825 43.33194
#
# Poissons Ratio (x) = 0.06777 0.28376
# Poissons Ratio (y) = 0.09041 0.54373
# Poissons Ratio (z) = 0.51208 0.73554
#
# Static dielectric constant tensor:
#      x y z
#    x 1.575540 0.000000 0.000000 
#    y 0.000000 1.566060 0.000000 
#    z 0.000000 0.000000 1.583050 
# 
# From -- ./inp_files/3031.got.cif
#   From: 2010.05.17/outbox.cif.g08.bks.cpg/sg41_2_cif.got.tgz:3031.got - 2010.06.03 18:54:24.
