data_PCOD9365657
_publ_section_title
;
Structure prediction by ZEFSAII (Michael W. Deem and Ramdas Pophale) SiO2 
 PCOD9365657
Probable space group: A M A 2
;
_chemical_formula_sum "Si O2"
_cell_formula_units_Z 24
_cell_length_a 15.000000
_cell_length_b 18.000000
_cell_length_c 9.000000
_cell_angle_alpha 90.000000
_cell_angle_beta 90.000000
_cell_angle_gamma 90.000000
_cell_volume 2430.000000
_symmetry_space_group_name_H-M "A M A 2"
_symmetry_group_IT_number 40
_symmetry_cell_setting 'orthorhombic'
loop_
_space_group_symop_operation_xyz
x,y,z
-x,-y,z
1/2-x,y,z
1/2+x,-y,z
x,1/2+y,1/2+z
-x,1/2-y,1/2+z
1/2-x,1/2+y,1/2+z
1/2+x,1/2-y,1/2+z
loop_
_atom_site_type_symbol
_atom_site_label
_atom_site_fract_x
_atom_site_fract_y
_atom_site_fract_z
Si Si1 0.352329 0.633443 0.892280
Si Si2 0.547961 0.658024 0.176739
Si Si3 0.353396 0.489204 0.103552
Si Si4 0.457291 0.674476 0.604409
Si Si5 0.646673 0.196210 0.981130
Si Si6 0.142000 0.116483 0.820243
O O1 0.250000 0.627388 0.834701
O O2 0.424301 0.645338 0.763410
O O3 0.353541 0.713230 0.977559
O O4 0.368068 0.558676 0.989073
O O5 0.581099 0.581760 0.098515
O O6 0.557821 0.736036 0.089779
O O7 0.613804 0.669012 0.318377
O O8 0.444648 0.651878 0.232058
O O9 0.250000 0.465189 0.084341
O O10 0.361082 0.531279 0.262961
O O11 0.564296 0.666492 0.581525
O O12 0.393262 0.633338 0.485534
O O13 0.750000 0.173953 0.012211
O O14 0.250000 0.137996 0.800012
#
# Coordination Sequence:
#
# PCOD9365657 Si02
#       6
#     8   8   8   8   8   8
#     4   9  18  34  57  85 117 151 187 234 295 349
#     4  10  20  35  59  88 114 146 194 244 281 326
#     4  10  20  35  59  87 114 150 191 232 283 340
#     4  10  20  35  60  89 114 148 193 239 286 336
#     4   9  18  33  55  84 117 153 192 234 283 340
#     4  10  21  36  57  85 117 154 192 229 281 351
#
# _framework density 9.8765429999999999
#
# number of rings (size 3 to 8) (size 9 to 14) (size 15 to 20)
#    0.000    2.333    0.000    2.500    0.000    4.000 
#    0.000    0.000    0.000   37.000    0.000   35.000 
#    0.000    0.000    0.000    0.000    0.000    0.000 
#
# Total GULP energy -133672.978886 kJ/mol
# GULP energy per Si atom -5569.707454 kJ/mol
# Density = 0.985406 g / cm^3
# Si number density = 9.876543 Si / 1000 Ang^3
#
#
#
# Elastic Constant Matrix: (Units=GPa)
#
#
# Indices 1 2 3 4 5 6 
#
# 1 184.5561 29.8484 55.0405 0.0000 0.0000 0.0000
# 2 29.8484 71.8046 19.4662 0.0000 0.0000 0.0000
# 3 55.0405 19.4662 51.2588 0.0000 0.0000 0.0000
# 4 0.0000 0.0000 0.0000 24.7349 0.0000 0.0000
# 5 0.0000 0.0000 0.0000 0.0000 35.6796 0.0000
# 6 0.0000 0.0000 0.0000 0.0000 0.0000 32.9450
#
#
#
# Elastic Compliance Matrix: (Units=1/GPa)
#
#
# Indices 1 2 3 4 5 6 
#
# 1 0.008051 -0.001118 -0.008220 0.000000 0.000000 0.000000
# 2 -0.001118 0.015680 -0.004754 0.000000 0.000000 0.000000
# 3 -0.008220 -0.004754 0.030141 0.000000 0.000000 0.000000
# 4 0.000000 0.000000 0.000000 0.040429 0.000000 0.000000
# 5 0.000000 0.000000 0.000000 0.000000 0.028027 0.000000
# 6 0.000000 0.000000 0.000000 0.000000 0.000000 0.030354
#
#
# Mechanical properties :
#
#
# Convention : Reuss Voigt Hill
#
# Bulk Modulus (GPa) = 38.92997 57.36995 48.14996
# Shear Modulus (GPa) = 26.39519 32.22287 29.30903
#
# Velocity S-wave (km/s) = 3.65945 4.04330 3.85615
# Velocity P-wave (km/s) = 6.13242 7.13472 6.65247
#
# Compressibility (1/GPa) = 0.02568715
#
# Stress axis : x y z
#
# Youngs Moduli (GPa) = 124.21244 63.77410 33.17763
#
# Poissons Ratio (x) = 0.07131 0.27272
# Poissons Ratio (y) = 0.13889 0.15773
# Poissons Ratio (z) = 1.02103 0.30319
#
# Static dielectric constant tensor:
#      x y z
#    x 1.718920 0.000000 0.000000 
#    y 0.000000 1.677080 0.000000 
#    z 0.000000 0.000000 1.767950 
# 
# From -- ./inp_files/6473.got.cif
#   From: 2010.05.17/outbox.ucp.g08.bks.cvg/sg40_4_cif.got.tgz:6473.got - 2010.06.11 16:26:39.
