data_PCOD9365586
_publ_section_title
;
Structure prediction by ZEFSAII (Michael W. Deem and Ramdas Pophale) SiO2 
 PCOD9365586
Probable space group: A M A 2
;
_chemical_formula_sum "Si O2"
_cell_formula_units_Z 40
_cell_length_a 21.455251
_cell_length_b 8.949475
_cell_length_c 9.290530
_cell_angle_alpha 90.000000
_cell_angle_beta 90.000000
_cell_angle_gamma 90.000000
_cell_volume 1783.904696
_symmetry_space_group_name_H-M "A M A 2"
_symmetry_group_IT_number 40
_symmetry_cell_setting 'orthorhombic'
loop_
_space_group_symop_operation_xyz
x,y,z
-x,-y,z
1/2-x,y,z
1/2+x,-y,z
x,1/2+y,1/2+z
-x,1/2-y,1/2+z
1/2-x,1/2+y,1/2+z
1/2+x,1/2-y,1/2+z
loop_
_atom_site_type_symbol
_atom_site_label
_atom_site_fract_x
_atom_site_fract_y
_atom_site_fract_z
Si Si1 0.250000 0.231711 0.648140
Si Si2 0.034699 0.644031 0.417348
Si Si3 0.944239 0.895938 0.365160
Si Si4 0.750000 0.427480 0.483882
Si Si5 0.875107 0.940050 0.655899
Si Si6 0.134402 0.722366 0.638761
O O1 0.250000 0.398715 0.559826
O O2 0.250000 0.150576 0.818453
O O3 0.182709 0.163983 0.608562
O O4 0.085385 0.611606 0.293921
O O5 0.072536 0.727142 0.540723
O O6 0.000000 0.500000 0.477418
O O7 0.976694 0.736086 0.358419
O O8 0.923432 0.937074 0.524355
O O9 0.883321 0.887517 0.268345
O O10 0.000000 0.000000 0.314626
O O11 0.810930 0.352482 0.550654
O O12 0.850644 0.108387 0.682897
#
# Coordination Sequence:
#
# PCOD9365586 Si02
#       6
#     4   8   8   4   8   8
#     4  12  31  53  82 111 156 206 274 332 409 480
#     4  12  24  46  74 107 156 196 248 314 391 471
#     4  12  26  44  76 113 152 198 253 321 394 481
#     4  12  31  53  82 113 150 212 272 334 403 490
#     4  12  27  50  75 109 155 202 259 324 395 473
#     4  12  27  49  77 106 154 202 259 318 397 471
#
# _framework density 22.422723999999999
#
# number of rings (size 3 to 8) (size 9 to 14) (size 15 to 20)
#    0.000    0.000    6.000    3.000   11.200    0.800 
#    0.000    0.000    0.000    0.000    0.000    0.000 
#    0.000    0.000    0.000    0.000    0.000    0.000 
#
# Total GULP energy -111381.815430 kJ/mol
# GULP energy per Si atom -5569.090772 kJ/mol
# Density = 2.237169 g / cm^3
# Si number density = 22.422724 Si / 1000 Ang^3
#
#
#
# Elastic Constant Matrix: (Units=GPa)
#
#
# Indices 1 2 3 4 5 6 
#
# 1 83.4045 19.6839 3.0391 0.0000 0.0000 0.0000
# 2 19.6839 97.6555 15.9500 0.0000 0.0000 0.0000
# 3 3.0391 15.9500 99.4723 0.0000 0.0000 0.0000
# 4 0.0000 0.0000 0.0000 17.2782 0.0000 0.0000
# 5 0.0000 0.0000 0.0000 0.0000 28.9275 0.0000
# 6 0.0000 0.0000 0.0000 0.0000 0.0000 42.1315
#
#
#
# Elastic Compliance Matrix: (Units=1/GPa)
#
#
# Indices 1 2 3 4 5 6 
#
# 1 0.012589 -0.002541 0.000023 0.000000 0.000000 0.000000
# 2 -0.002541 0.011028 -0.001691 0.000000 0.000000 0.000000
# 3 0.000023 -0.001691 0.010323 0.000000 0.000000 0.000000
# 4 0.000000 0.000000 0.000000 0.057876 0.000000 0.000000
# 5 0.000000 0.000000 0.000000 0.000000 0.034569 0.000000
# 6 0.000000 0.000000 0.000000 0.000000 0.000000 0.023735
#
#
# Mechanical properties :
#
#
# Convention : Reuss Voigt Hill
#
# Bulk Modulus (GPa) = 39.18113 39.76422 39.47268
# Shear Modulus (GPa) = 29.93171 33.79138 31.86155
#
# Velocity S-wave (km/s) = 3.65757 3.88624 3.77364
# Velocity P-wave (km/s) = 5.94549 6.15707 6.05221
#
# Compressibility (1/GPa) = 0.02552249
#
# Stress axis : x y z
#
# Youngs Moduli (GPa) = 79.43657 90.67471 96.86678
#
# Poissons Ratio (x) = 0.23042 -0.00221
# Poissons Ratio (y) = 0.20186 0.16378
# Poissons Ratio (z) = -0.00182 0.15331
#
# Static dielectric constant tensor:
#      x y z
#    x 1.771820 0.000000 0.000000 
#    y 0.000000 1.811140 0.000000 
#    z 0.000000 0.000000 1.888130 
# 
# From -- ./inp_files/8621.got.cif
#   From: 2010.05.17/outbox.cif.g08.bks.cpg/sg40_5_cif.got.tgz:8621.got - 2010.06.03 18:35:42.
