data_PCOD9365496
_publ_section_title
;
Structure prediction by ZEFSAII (Michael W. Deem and Ramdas Pophale) SiO2 
 PCOD9365496
Probable space group: A M A 2
;
_chemical_formula_sum "Si O2"
_cell_formula_units_Z 36
_cell_length_a 18.152525
_cell_length_b 9.224268
_cell_length_c 9.573801
_cell_angle_alpha 90.000000
_cell_angle_beta 90.000000
_cell_angle_gamma 90.000000
_cell_volume 1603.073194
_symmetry_space_group_name_H-M "A M A 2"
_symmetry_group_IT_number 40
_symmetry_cell_setting 'orthorhombic'
loop_
_space_group_symop_operation_xyz
x,y,z
-x,-y,z
1/2-x,y,z
1/2+x,-y,z
x,1/2+y,1/2+z
-x,1/2-y,1/2+z
1/2-x,1/2+y,1/2+z
1/2+x,1/2-y,1/2+z
loop_
_atom_site_type_symbol
_atom_site_label
_atom_site_fract_x
_atom_site_fract_y
_atom_site_fract_z
Si Si1 0.750000 0.207622 0.800071
Si Si2 0.750000 0.698521 0.009115
Si Si3 0.412329 0.668156 0.485496
Si Si4 0.750000 0.036393 0.234183
Si Si5 0.128742 0.348757 0.528461
Si Si6 0.516202 0.829690 0.688347
O O1 0.750000 0.116454 0.658618
O O2 0.750000 0.364423 0.728213
O O3 0.820513 0.185607 0.896312
O O4 0.674168 0.787644 0.980446
O O5 0.750000 0.574818 0.894061
O O6 0.416436 0.494062 0.494875
O O7 0.447236 0.741810 0.623445
O O8 0.455753 0.713107 0.343795
O O9 0.819258 0.103675 0.155736
O O10 0.080572 0.215640 0.580763
O O11 0.500000 0.000000 0.685405
#
# Coordination Sequence:
#
# PCOD9365496 Si02
#       6
#     4   4   8   4   8   8
#     4  11  26  43  79 114 148 190 252 308 375 441
#     4  12  25  48  79 105 143 195 250 301 370 438
#     4  12  28  51  75 108 151 195 248 310 372 444
#     4  11  23  45  74 113 143 199 242 313 363 447
#     4  11  25  49  75 107 154 195 247 308 376 439
#     4  12  29  47  73 109 150 198 249 303 375 442
#
# _framework density 22.456868
#
# number of rings (size 3 to 8) (size 9 to 14) (size 15 to 20)
#    0.000    0.444    4.444    2.667    9.333    1.778 
#    0.000    0.000    0.000    0.000    0.000    0.000 
#    0.000    0.000    0.000    0.000    0.000    0.000 
#
# Total GULP energy -100707.950177 kJ/mol
# GULP energy per Si atom -5594.886121 kJ/mol
# Density = 2.240576 g / cm^3
# Si number density = 22.456868 Si / 1000 Ang^3
#
#
#
# Elastic Constant Matrix: (Units=GPa)
#
#
# Indices 1 2 3 4 5 6 
#
# 1 140.1691 39.6034 63.8136 0.0000 0.0000 0.0000
# 2 39.6034 56.5457 17.1885 0.0000 0.0000 0.0000
# 3 63.8136 17.1885 168.6309 0.0000 0.0000 0.0000
# 4 0.0000 0.0000 0.0000 35.9998 0.0000 0.0000
# 5 0.0000 0.0000 0.0000 0.0000 20.4518 0.0000
# 6 0.0000 0.0000 0.0000 0.0000 0.0000 34.3092
#
#
#
# Elastic Compliance Matrix: (Units=1/GPa)
#
#
# Indices 1 2 3 4 5 6 
#
# 1 0.010414 -0.006291 -0.003300 0.000000 0.000000 0.000000
# 2 -0.006291 0.022050 0.000133 0.000000 0.000000 0.000000
# 3 -0.003300 0.000133 0.007165 0.000000 0.000000 0.000000
# 4 0.000000 0.000000 0.000000 0.027778 0.000000 0.000000
# 5 0.000000 0.000000 0.000000 0.000000 0.048896 0.000000
# 6 0.000000 0.000000 0.000000 0.000000 0.000000 0.029147
#
#
# Mechanical properties :
#
#
# Convention : Reuss Voigt Hill
#
# Bulk Modulus (GPa) = 48.27504 67.39519 57.83511
# Shear Modulus (GPa) = 29.19389 34.46817 31.83103
#
# Velocity S-wave (km/s) = 3.60946 3.92198 3.76896
# Velocity P-wave (km/s) = 6.23814 7.11234 6.68953
#
# Compressibility (1/GPa) = 0.02071464
#
# Stress axis : x y z
#
# Youngs Moduli (GPa) = 96.02680 45.35111 139.56341
#
# Poissons Ratio (x) = 0.28528 0.46050
# Poissons Ratio (y) = 0.60406 -0.01855
# Poissons Ratio (z) = 0.31685 -0.00603
#
# Static dielectric constant tensor:
#      x y z
#    x 1.885390 0.000000 0.000000 
#    y 0.000000 1.838760 0.000000 
#    z 0.000000 0.000000 1.829420 
# 
# From -- ./inp_files/7990.got.cif
#   From: 2010.05.17/outbox.cif.g08.bks.cpg/sg40_4_cif.got.tgz:7990.got - 2010.06.03 18:35:42.
