data_PCOD9365815
_publ_section_title
;
Structure prediction by ZEFSAII (Michael W. Deem and Ramdas Pophale) SiO2 
 PCOD9365815
Probable space group: A B A 2
;
_chemical_formula_sum "Si O2"
_cell_formula_units_Z 60
_cell_length_a 20.194948
_cell_length_b 14.068915
_cell_length_c 10.307434
_cell_angle_alpha 90.000000
_cell_angle_beta 90.000000
_cell_angle_gamma 90.000000
_cell_volume 2928.558526
_symmetry_space_group_name_H-M "A B A 2"
_symmetry_group_IT_number 41
_symmetry_cell_setting 'orthorhombic'
loop_
_space_group_symop_operation_xyz
x,y,z
-x,-y,z
1/2-x,y,1/2+z
1/2+x,-y,1/2+z
x,1/2+y,1/2+z
-x,1/2-y,1/2+z
1/2-x,1/2+y,z
1/2+x,1/2-y,z
loop_
_atom_site_type_symbol
_atom_site_label
_atom_site_fract_x
_atom_site_fract_y
_atom_site_fract_z
Si Si1 0.094824 0.057576 0.397660
Si Si2 0.181465 0.220832 0.465441
Si Si3 0.162124 0.047219 0.131990
Si Si4 0.047509 0.353697 0.876313
Si Si5 0.500000 0.500000 0.900195
Si Si6 0.604209 0.849405 0.380634
Si Si7 0.409548 0.869349 0.580467
Si Si8 0.735131 0.314867 0.722393
O O1 0.154266 0.112619 0.466876
O O2 0.108557 0.068426 0.243856
O O3 0.025371 0.111387 0.417524
O O4 0.091130 0.944689 0.421941
O O5 0.117491 0.283695 0.494814
O O6 0.218758 0.234481 0.329960
O O7 0.230677 0.236541 0.584835
O O8 0.230625 0.084494 0.189662
O O9 0.154375 0.936037 0.107465
O O10 0.141381 0.103554 0.003311
O O11 0.068710 0.249082 0.921937
O O12 0.057029 0.347689 0.719087
O O13 0.458305 0.431801 0.994141
O O14 0.551174 0.428088 0.830314
O O15 0.661419 0.825031 0.277950
#
# Coordination Sequence:
#
# PCOD9365815 Si02
#       8
#     8   8   8   8   4   8   8   8
#     4   9  20  36  62  89 124 159 205 247 318 376
#     4  11  22  41  62  91 127 166 212 260 311 378
#     4   9  20  39  60  87 116 167 203 249 307 380
#     4  10  18  35  63  93 118 162 201 260 309 376
#     4  10  22  38  62  92 124 170 206 250 322 382
#     4  11  20  37  63  86 126 155 211 255 311 367
#     4  10  19  38  64  90 123 165 214 250 312 387
#     4  11  22  41  61  86 129 163 207 265 315 367
#
# _framework density 20.487897
#
# number of rings (size 3 to 8) (size 9 to 14) (size 15 to 20)
#    0.000    1.867    2.667    3.200    0.000    0.000 
#    7.200    1.333    5.867    0.000    0.000    0.000 
#    0.000    0.000    0.000    0.000    0.000    0.000 
#
# Total GULP energy -167212.727471 kJ/mol
# GULP energy per Si atom -5573.757582 kJ/mol
# Density = 2.044127 g / cm^3
# Si number density = 20.487897 Si / 1000 Ang^3
#
#
#
# Elastic Constant Matrix: (Units=GPa)
#
#
# Indices 1 2 3 4 5 6 
#
# 1 57.8213 24.3075 -0.3121 0.0000 0.0000 0.0000
# 2 24.3075 80.0091 9.9801 0.0000 0.0000 0.0000
# 3 -0.3121 9.9801 56.1141 0.0000 0.0000 0.0000
# 4 0.0000 0.0000 0.0000 8.8869 0.0000 0.0000
# 5 0.0000 0.0000 0.0000 0.0000 19.3770 0.0000
# 6 0.0000 0.0000 0.0000 0.0000 0.0000 32.2554
#
#
#
# Elastic Compliance Matrix: (Units=1/GPa)
#
#
# Indices 1 2 3 4 5 6 
#
# 1 0.019907 -0.006199 0.001213 0.000000 0.000000 0.000000
# 2 -0.006199 0.014713 -0.002651 0.000000 0.000000 0.000000
# 3 0.001213 -0.002651 0.018299 0.000000 0.000000 0.000000
# 4 0.000000 0.000000 0.000000 0.112525 0.000000 0.000000
# 5 0.000000 0.000000 0.000000 0.000000 0.051608 0.000000
# 6 0.000000 0.000000 0.000000 0.000000 0.000000 0.031003
#
#
# Mechanical properties :
#
#
# Convention : Reuss Voigt Hill
#
# Bulk Modulus (GPa) = 26.56422 29.09951 27.83187
# Shear Modulus (GPa) = 18.12402 22.76846 20.44624
#
# Velocity S-wave (km/s) = 2.97748 3.33725 3.16249
# Velocity P-wave (km/s) = 4.98142 5.39294 5.19126
#
# Compressibility (1/GPa) = 0.03764462
#
# Stress axis : x y z
#
# Youngs Moduli (GPa) = 50.23266 67.96842 54.64753
#
# Poissons Ratio (x) = 0.42136 -0.06630
# Poissons Ratio (y) = 0.31141 0.14488
# Poissons Ratio (z) = -0.06095 0.18020
#
# Static dielectric constant tensor:
#      x y z
#    x 1.765050 0.000000 0.000000 
#    y 0.000000 1.759560 0.000000 
#    z 0.000000 0.000000 1.734260 
# 
# From -- ./inp_files/6270.got.cif
#   From: 2010.05.17/outbox.cif.g08.bks.cpg/sg41_4_cif.got.tgz:6270.got - 2010.06.03 18:54:24.
