data_PCOD9365312
_publ_section_title
;
Structure prediction by ZEFSAII (Michael W. Deem and Ramdas Pophale) SiO2 
 PCOD9365312
Probable space group: A M A 2
;
_chemical_formula_sum "Si O2"
_cell_formula_units_Z 64
_cell_length_a 8.743726
_cell_length_b 15.730504
_cell_length_c 24.037797
_cell_angle_alpha 90.000000
_cell_angle_beta 90.000000
_cell_angle_gamma 90.000000
_cell_volume 3306.235925
_symmetry_space_group_name_H-M "A M A 2"
_symmetry_group_IT_number 40
_symmetry_cell_setting 'orthorhombic'
loop_
_space_group_symop_operation_xyz
x,y,z
-x,-y,z
1/2-x,y,z
1/2+x,-y,z
x,1/2+y,1/2+z
-x,1/2-y,1/2+z
1/2-x,1/2+y,1/2+z
1/2+x,1/2-y,1/2+z
loop_
_atom_site_type_symbol
_atom_site_label
_atom_site_fract_x
_atom_site_fract_y
_atom_site_fract_z
Si Si1 0.067324 0.838394 0.299590
Si Si2 0.567710 0.592112 0.922614
Si Si3 0.568330 0.910932 0.187200
Si Si4 0.432439 0.258574 0.616684
Si Si5 0.432874 0.351432 0.300778
Si Si6 0.567512 0.410759 0.417320
Si Si7 0.932349 0.746432 0.485411
Si Si8 0.066932 0.588405 0.184245
O O1 0.250000 0.826211 0.293715
O O2 0.037507 0.885130 0.357871
O O3 0.004132 0.890203 0.247346
O O4 0.987210 0.746552 0.300402
O O5 0.500000 0.500000 0.935647
O O6 0.750000 0.592338 0.930679
O O7 0.493028 0.666346 0.959022
O O8 0.750000 0.916667 0.192129
O O9 0.521116 0.834061 0.146999
O O10 0.500000 0.000000 0.166781
O O11 0.250000 0.272318 0.624885
O O12 0.463175 0.255996 0.551164
O O13 0.471019 0.168873 0.645527
O O14 0.250000 0.356395 0.302468
O O15 0.503091 0.394375 0.355441
O O16 0.495819 0.394059 0.244816
O O17 0.500000 0.500000 0.438099
O O18 0.750000 0.414028 0.415688
O O19 0.512347 0.332260 0.454740
O O20 0.750000 0.740455 0.476609
O O21 0.250000 0.582752 0.188901
O O22 0.000000 0.500000 0.162289
#
# Coordination Sequence:
#
# PCOD9365312 Si02
#       8
#     8   8   8   8   8   8   8   8
#     4  11  22  39  64  95 132 168 207 257 315 378
#     4  11  24  41  65  95 130 170 211 260 316 376
#     4  12  25  41  66  96 129 169 212 261 315 378
#     4  10  24  45  67  91 125 167 213 267 320 373
#     4  12  23  38  64  97 130 167 208 256 315 381
#     4  12  25  43  66  95 129 169 211 261 318 379
#     4  11  24  44  68  94 125 166 215 268 320 377
#     4  11  23  41  65  93 130 168 209 261 314 377
#
# _framework density 19.35736
#
# number of rings (size 3 to 8) (size 9 to 14) (size 15 to 20)
#    0.000    0.750    2.500    5.625    0.000    5.000 
#    0.000    1.250    0.000    0.000    0.000    0.000 
#    0.000    0.000    0.000    0.000    0.000    0.000 
#
# Total GULP energy -179145.510428 kJ/mol
# GULP energy per Si atom -5598.297201 kJ/mol
# Density = 1.931330 g / cm^3
# Si number density = 19.357360 Si / 1000 Ang^3
#
#
#
# Elastic Constant Matrix: (Units=GPa)
#
#
# Indices 1 2 3 4 5 6 
#
# 1 127.6697 73.9907 67.8518 0.0000 0.0000 0.0000
# 2 73.9907 166.1436 46.9711 0.0000 0.0000 0.0000
# 3 67.8518 46.9711 94.2029 0.0000 0.0000 0.0000
# 4 0.0000 0.0000 0.0000 -10.0829 0.0000 0.0000
# 5 0.0000 0.0000 0.0000 0.0000 23.9433 0.0000
# 6 0.0000 0.0000 0.0000 0.0000 0.0000 36.2043
#
#
#
# Elastic Compliance Matrix: (Units=1/GPa)
#
#
# Indices 1 2 3 4 5 6 
#
# 1 0.014815 -0.004169 -0.008592 0.000000 0.000000 0.000000
# 2 -0.004169 0.008180 -0.001076 0.000000 0.000000 0.000000
# 3 -0.008592 -0.001076 0.017341 0.000000 0.000000 0.000000
# 4 0.000000 0.000000 0.000000 -0.099177 0.000000 0.000000
# 5 0.000000 0.000000 0.000000 0.000000 0.041765 0.000000
# 6 0.000000 0.000000 0.000000 0.000000 0.000000 0.027621
#
#
# Mechanical properties :
#
#
# Convention : Reuss Voigt Hill
#
# Bulk Modulus (GPa) = 78.97929 85.07147 82.02538
# Shear Modulus (GPa) = 117.81649 23.29311 70.55480
#
# Velocity S-wave (km/s) = 7.81000 3.47265 6.04381
# Velocity P-wave (km/s) = 11.05519 7.75386 9.54829
#
# Compressibility (1/GPa) = 0.01266155
#
# Stress axis : x y z
#
# Youngs Moduli (GPa) = 67.49823 122.25656 57.66761
#
# Poissons Ratio (x) = 0.50964 0.49551
# Poissons Ratio (y) = 0.28137 0.06204
# Poissons Ratio (z) = 0.57998 0.13153
#
# Static dielectric constant tensor:
#      x y z
#    x 1.644590 0.000000 0.000000 
#    y 0.000000 1.666770 0.000000 
#    z 0.000000 0.000000 1.649400 
# 
# From -- ./inp_files/24341.got.cif
#   From: 2010.05.17/outbox.cif.g08.bks.cpg/sg40_13_cif.got.tgz:24341.got - 2010.06.03 18:35:42.
