data_PCOD9365005
_publ_section_title
;
Structure prediction by ZEFSAII (Michael W. Deem and Ramdas Pophale) SiO2 
 PCOD9365005
Probable space group: A M A 2
;
_chemical_formula_sum "Si O2"
_cell_formula_units_Z 64
_cell_length_a 8.583037
_cell_length_b 27.558802
_cell_length_c 13.354931
_cell_angle_alpha 90.000000
_cell_angle_beta 90.000000
_cell_angle_gamma 90.000000
_cell_volume 3158.951570
_symmetry_space_group_name_H-M "A M A 2"
_symmetry_group_IT_number 40
_symmetry_cell_setting 'orthorhombic'
loop_
_space_group_symop_operation_xyz
x,y,z
-x,-y,z
1/2-x,y,z
1/2+x,-y,z
x,1/2+y,1/2+z
-x,1/2-y,1/2+z
1/2-x,1/2+y,1/2+z
1/2+x,1/2-y,1/2+z
loop_
_atom_site_type_symbol
_atom_site_label
_atom_site_fract_x
_atom_site_fract_y
_atom_site_fract_z
Si Si1 0.561499 0.445560 0.578560
Si Si2 0.438722 0.122833 0.892820
Si Si3 0.562285 0.405493 0.795793
Si Si4 0.436467 0.947245 0.501925
Si Si5 0.932844 0.772143 0.975984
Si Si6 0.937139 0.128725 0.673743
Si Si7 0.430848 0.736707 0.160438
Si Si8 0.432483 0.206243 0.332191
O O1 0.500000 0.500000 0.568394
O O2 0.750000 0.445745 0.579424
O O3 0.513738 0.412875 0.483231
O O4 0.510185 0.424077 0.686508
O O5 0.250000 0.121806 0.885277
O O6 0.509030 0.111522 0.784138
O O7 0.483140 0.177614 0.925292
O O8 0.750000 0.409794 0.799441
O O9 0.494198 0.433961 0.890528
O O10 0.523401 0.348930 0.811789
O O11 0.250000 0.948127 0.501178
O O12 0.486482 0.907483 0.584601
O O13 0.500000 0.000000 0.529667
O O14 0.750000 0.764844 0.959720
O O15 0.967225 0.773305 0.093579
O O16 0.031823 0.725216 0.943050
O O17 0.750000 0.132546 0.672341
O O18 0.008796 0.181865 0.657061
O O19 0.250000 0.739412 0.135401
O O20 0.460326 0.756986 0.270886
O O21 0.250000 0.212707 0.309575
#
# Coordination Sequence:
#
# PCOD9365005 Si02
#       8
#     8   8   8   8   8   8   8   8
#     4  10  22  41  63  90 122 161 207 258 317 376
#     4  10  22  41  64  89 125 167 207 256 318 381
#     4  10  22  41  65  93 127 165 206 259 321 383
#     4  11  25  43  65  93 124 164 211 267 326 381
#     4  11  22  38  60  88 122 163 207 254 307 370
#     4  11  24  42  64  91 126 165 213 267 316 375
#     4  12  24  38  59  89 125 168 209 252 309 371
#     4  11  22  38  61  91 124 161 203 251 308 372
#
# _framework density 20.259886000000002
#
# number of rings (size 3 to 8) (size 9 to 14) (size 15 to 20)
#    0.000    1.250    1.250    4.500    0.000   10.000 
#    0.000    3.750    0.000    0.000    0.000    0.000 
#    0.000    0.000    0.000    0.000    0.000    0.000 
#
# Total GULP energy -178818.437011 kJ/mol
# GULP energy per Si atom -5588.076157 kJ/mol
# Density = 2.021377 g / cm^3
# Si number density = 20.259886 Si / 1000 Ang^3
#
#
#
# Elastic Constant Matrix: (Units=GPa)
#
#
# Indices 1 2 3 4 5 6 
#
# 1 36.7214 27.6737 15.8689 0.0000 0.0000 0.0000
# 2 27.6737 94.4494 28.9942 0.0000 0.0000 0.0000
# 3 15.8689 28.9942 104.9515 0.0000 0.0000 0.0000
# 4 0.0000 0.0000 0.0000 35.0730 0.0000 0.0000
# 5 0.0000 0.0000 0.0000 0.0000 25.8195 0.0000
# 6 0.0000 0.0000 0.0000 0.0000 0.0000 18.1910
#
#
#
# Elastic Compliance Matrix: (Units=1/GPa)
#
#
# Indices 1 2 3 4 5 6 
#
# 1 0.035655 -0.009607 -0.002737 0.000000 0.000000 0.000000
# 2 -0.009607 0.014157 -0.002459 0.000000 0.000000 0.000000
# 3 -0.002737 -0.002459 0.010621 0.000000 0.000000 0.000000
# 4 0.000000 0.000000 0.000000 0.028512 0.000000 0.000000
# 5 0.000000 0.000000 0.000000 0.000000 0.038730 0.000000
# 6 0.000000 0.000000 0.000000 0.000000 0.000000 0.054972
#
#
# Mechanical properties :
#
#
# Convention : Reuss Voigt Hill
#
# Bulk Modulus (GPa) = 32.43750 42.35508 37.39629
# Shear Modulus (GPa) = 22.46907 26.72241 24.59574
#
# Velocity S-wave (km/s) = 3.33384 3.63572 3.48805
# Velocity P-wave (km/s) = 5.55561 6.21095 5.89240
#
# Compressibility (1/GPa) = 0.03082852
#
# Stress axis : x y z
#
# Youngs Moduli (GPa) = 28.04690 70.63570 94.15066
#
# Poissons Ratio (x) = 0.67857 0.25770
# Poissons Ratio (y) = 0.26943 0.23147
# Poissons Ratio (z) = 0.07677 0.17366
#
# Static dielectric constant tensor:
#      x y z
#    x 1.676200 0.000000 0.000000 
#    y 0.000000 1.685130 0.000000 
#    z 0.000000 0.000000 1.727660 
# 
# From -- ./inp_files/15585.got.cif
#   From: 2010.05.17/outbox.cif.g08.bks.cpg/sg40_8_cif.got.tgz:15585.got - 2010.06.03 18:35:42.
