data_PCOD9365849
_publ_section_title
;
Structure prediction by ZEFSAII (Michael W. Deem and Ramdas Pophale) SiO2 
 PCOD9365849
Probable space group: A B A 2
;
_chemical_formula_sum "Si O2"
_cell_formula_units_Z 60
_cell_length_a 12.060255
_cell_length_b 13.831742
_cell_length_c 18.015758
_cell_angle_alpha 90.000000
_cell_angle_beta 90.000000
_cell_angle_gamma 90.000000
_cell_volume 3005.286701
_symmetry_space_group_name_H-M "A B A 2"
_symmetry_group_IT_number 41
_symmetry_cell_setting 'orthorhombic'
loop_
_space_group_symop_operation_xyz
x,y,z
-x,-y,z
1/2-x,y,1/2+z
1/2+x,-y,1/2+z
x,1/2+y,1/2+z
-x,1/2-y,1/2+z
1/2-x,1/2+y,z
1/2+x,1/2-y,z
loop_
_atom_site_type_symbol
_atom_site_label
_atom_site_fract_x
_atom_site_fract_y
_atom_site_fract_z
Si Si1 0.000000 0.000000 0.657240
Si Si2 0.618383 0.782549 0.956461
Si Si3 0.876733 0.956603 0.339292
Si Si4 0.422320 0.831842 0.052050
Si Si5 0.783975 0.248572 0.108766
Si Si6 0.234520 0.912208 0.942585
Si Si7 0.275364 0.075410 0.199189
Si Si8 0.875871 0.034445 0.082931
O O1 0.987588 0.090484 0.601014
O O2 0.110886 0.014561 0.705457
O O3 0.613516 0.869601 0.898800
O O4 0.668866 0.685365 0.921852
O O5 0.499504 0.771798 0.996633
O O6 0.693371 0.800630 0.029674
O O7 0.811179 0.924667 0.266118
O O8 0.794589 0.034809 0.376241
O O9 0.000000 0.000000 0.325978
O O10 0.347046 0.771525 0.108176
O O11 0.333963 0.885562 0.999553
O O12 0.811274 0.316569 0.176852
O O13 0.850838 0.147064 0.105340
O O14 0.152123 0.972681 0.995346
O O15 0.209947 0.028599 0.130021
O O16 0.000000 0.000000 0.098052
#
# Coordination Sequence:
#
# PCOD9365849 Si02
#       8
#     4   8   8   8   8   8   8   8
#     4  12  20  42  64  92 128 170 218 270 328 398
#     4  10  20  39  68  98 123 171 217 274 320 393
#     4  12  25  46  65  91 135 184 220 264 336 411
#     4  10  18  38  70  95 123 160 217 276 323 388
#     4  10  23  38  67 104 126 165 223 272 329 381
#     4  10  22  40  67 100 129 165 225 269 331 392
#     4  12  25  40  66  95 134 177 219 269 336 399
#     4  10  22  42  66 101 134 166 217 282 325 383
#
# _framework density 19.964817
#
# number of rings (size 3 to 8) (size 9 to 14) (size 15 to 20)
#    0.000    1.600    5.333    2.000    3.733    1.067 
#    1.200    1.333    0.000    0.000    0.000    0.000 
#    0.000    0.000    0.000    0.000    0.000    0.000 
#
# Total GULP energy -167312.501041 kJ/mol
# GULP energy per Si atom -5577.083368 kJ/mol
# Density = 1.991938 g / cm^3
# Si number density = 19.964817 Si / 1000 Ang^3
#
#
#
# Elastic Constant Matrix: (Units=GPa)
#
#
# Indices 1 2 3 4 5 6 
#
# 1 135.3019 49.2957 26.6974 0.0000 0.0000 0.0000
# 2 49.2957 71.3237 37.8324 0.0000 0.0000 0.0000
# 3 26.6974 37.8324 46.1151 0.0000 0.0000 0.0000
# 4 0.0000 0.0000 0.0000 8.3805 0.0000 0.0000
# 5 0.0000 0.0000 0.0000 0.0000 18.4657 0.0000
# 6 0.0000 0.0000 0.0000 0.0000 0.0000 30.0807
#
#
#
# Elastic Compliance Matrix: (Units=1/GPa)
#
#
# Indices 1 2 3 4 5 6 
#
# 1 0.009880 -0.006718 -0.000208 0.000000 0.000000 0.000000
# 2 -0.006718 0.029390 -0.020222 0.000000 0.000000 0.000000
# 3 -0.000208 -0.020222 0.038396 0.000000 0.000000 0.000000
# 4 0.000000 0.000000 0.000000 0.119325 0.000000 0.000000
# 5 0.000000 0.000000 0.000000 0.000000 0.054154 0.000000
# 6 0.000000 0.000000 0.000000 0.000000 0.000000 0.033244
#
#
# Mechanical properties :
#
#
# Convention : Reuss Voigt Hill
#
# Bulk Modulus (GPa) = 42.79261 53.37684 48.08473
# Shear Modulus (GPa) = 14.43108 20.64640 17.53874
#
# Velocity S-wave (km/s) = 2.69146 3.21929 2.96714
# Velocity P-wave (km/s) = 5.58025 6.37275 5.98962
#
# Compressibility (1/GPa) = 0.02336852
#
# Stress axis : x y z
#
# Youngs Moduli (GPa) = 101.21940 34.02505 26.04462
#
# Poissons Ratio (x) = 0.22857 0.00543
# Poissons Ratio (y) = 0.67997 0.52668
# Poissons Ratio (z) = 0.02109 0.68806
#
# Static dielectric constant tensor:
#      x y z
#    x 1.760910 0.000000 0.000000 
#    y 0.000000 1.772750 0.000000 
#    z 0.000000 0.000000 1.694470 
# 
# From -- ./inp_files/10100.got.cif
#   From: 2010.05.17/outbox.cif.g08.bks.cpg/sg41_6_cif.got.tgz:10100.got - 2010.06.03 18:54:24.
