data_PCOD9365937
_publ_section_title
;
Structure prediction by ZEFSAII (Michael W. Deem and Ramdas Pophale) SiO2 
 PCOD9365937
Probable space group: A B A 2
;
_chemical_formula_sum "Si O2"
_cell_formula_units_Z 56
_cell_length_a 13.634391
_cell_length_b 35.775756
_cell_length_c 5.147755
_cell_angle_alpha 90.000000
_cell_angle_beta 90.000000
_cell_angle_gamma 90.000000
_cell_volume 2510.975257
_symmetry_space_group_name_H-M "A B A 2"
_symmetry_group_IT_number 41
_symmetry_cell_setting 'orthorhombic'
loop_
_space_group_symop_operation_xyz
x,y,z
-x,-y,z
1/2-x,y,1/2+z
1/2+x,-y,1/2+z
x,1/2+y,1/2+z
-x,1/2-y,1/2+z
1/2-x,1/2+y,z
1/2+x,1/2-y,z
loop_
_atom_site_type_symbol
_atom_site_label
_atom_site_fract_x
_atom_site_fract_y
_atom_site_fract_z
Si Si1 0.581132 0.466414 0.045670
Si Si2 0.560714 0.261730 0.834199
Si Si3 0.307395 0.417524 0.486910
Si Si4 0.004866 0.386669 0.683453
Si Si5 0.811002 0.195868 0.434051
Si Si6 0.379779 0.002172 0.038151
Si Si7 0.489208 0.159616 0.154256
O O1 0.500000 0.500000 0.049703
O O2 0.533818 0.426070 0.071482
O O3 0.644617 0.472864 0.296290
O O4 0.642600 0.475921 0.796164
O O5 0.511300 0.240319 0.586122
O O6 0.572842 0.304002 0.737563
O O7 0.657819 0.239433 0.917858
O O8 0.280888 0.408879 0.785353
O O9 0.397785 0.397759 0.346317
O O10 0.334439 0.461444 0.500919
O O11 0.012487 0.361606 0.424423
O O12 0.946346 0.365668 0.918251
O O13 0.770153 0.186432 0.150065
O O14 0.910780 0.176368 0.528318
O O15 0.500000 0.000000 0.044030
#
# Coordination Sequence:
#
# PCOD9365937 Si02
#       7
#     8   8   8   8   8   8   8
#     4  10  19  34  61  78 105 147 219 260 274 325
#     4  10  20  40  62  88 118 162 210 266 271 347
#     4  12  25  37  54  87 126 157 195 247 316 369
#     4  12  23  38  56  90 123 168 197 250 311 367
#     4  11  22  38  63  91 122 169 206 236 306 370
#     4  10  19  36  59  76 103 150 212 265 275 332
#     4  11  24  37  59  88 135 159 206 242 311 366
#
# _framework density 22.302091000000001
#
# number of rings (size 3 to 8) (size 9 to 14) (size 15 to 20)
#    0.000    1.143    2.857    6.857    4.000    3.429 
#    0.000    0.000    0.000    0.000    0.000   20.000 
#    0.000    0.000    0.000    0.000    0.000    0.000 
#
# Total GULP energy -156248.324488 kJ/mol
# GULP energy per Si atom -5580.297303 kJ/mol
# Density = 2.225133 g / cm^3
# Si number density = 22.302091 Si / 1000 Ang^3
#
#
#
# Elastic Constant Matrix: (Units=GPa)
#
#
# Indices 1 2 3 4 5 6 
#
# 1 41.8671 14.4179 12.2676 0.0000 0.0000 0.0000
# 2 14.4179 150.9725 50.2073 0.0000 0.0000 0.0000
# 3 12.2676 50.2073 207.8763 0.0000 0.0000 0.0000
# 4 0.0000 0.0000 0.0000 -20.4309 0.0000 0.0000
# 5 0.0000 0.0000 0.0000 0.0000 9.9794 0.0000
# 6 0.0000 0.0000 0.0000 0.0000 0.0000 16.5864
#
#
#
# Elastic Compliance Matrix: (Units=1/GPa)
#
#
# Indices 1 2 3 4 5 6 
#
# 1 0.024877 -0.002052 -0.000972 0.000000 0.000000 0.000000
# 2 -0.002052 0.007372 -0.001659 0.000000 0.000000 0.000000
# 3 -0.000972 -0.001659 0.005269 0.000000 0.000000 0.000000
# 4 0.000000 0.000000 0.000000 -0.048946 0.000000 0.000000
# 5 0.000000 0.000000 0.000000 0.000000 0.100206 0.000000
# 6 0.000000 0.000000 0.000000 0.000000 0.000000 0.060290
#
#
# Mechanical properties :
#
#
# Convention : Reuss Voigt Hill
#
# Bulk Modulus (GPa) = 35.52530 61.61129 48.56830
# Shear Modulus (GPa) = 29.79396 22.81520 26.30458
#
# Velocity S-wave (km/s) = 3.65900 3.20192 3.43806
# Velocity P-wave (km/s) = 5.81504 6.43082 6.13067
#
# Compressibility (1/GPa) = 0.02814896
#
# Stress axis : x y z
#
# Youngs Moduli (GPa) = 40.19810 135.65695 189.80022
#
# Poissons Ratio (x) = 0.27842 0.18456
# Poissons Ratio (y) = 0.08250 0.31493
# Poissons Ratio (z) = 0.03909 0.22509
#
# Static dielectric constant tensor:
#      x y z
#    x 1.643940 0.000000 0.000000 
#    y 0.000000 1.900830 0.000000 
#    z 0.000000 0.000000 1.837700 
# 
# From -- ./inp_files/322.got.cif
#   From: 2010.05.17/outbox.cif.g08.bks.cpg/sg41_1_cif.got.tgz:322.got - 2010.06.03 18:54:24.
