data_PCOD9365583
_publ_section_title
;
Structure prediction by ZEFSAII (Michael W. Deem and Ramdas Pophale) SiO2 
 PCOD9365583
Probable space group: A M A 2
;
_chemical_formula_sum "Si O2"
_cell_formula_units_Z 60
_cell_length_a 25.133373
_cell_length_b 7.547047
_cell_length_c 12.772356
_cell_angle_alpha 90.000000
_cell_angle_beta 90.000000
_cell_angle_gamma 90.000000
_cell_volume 2422.695576
_symmetry_space_group_name_H-M "A M A 2"
_symmetry_group_IT_number 40
_symmetry_cell_setting 'orthorhombic'
loop_
_space_group_symop_operation_xyz
x,y,z
-x,-y,z
1/2-x,y,z
1/2+x,-y,z
x,1/2+y,1/2+z
-x,1/2-y,1/2+z
1/2-x,1/2+y,1/2+z
1/2+x,1/2-y,1/2+z
loop_
_atom_site_type_symbol
_atom_site_label
_atom_site_fract_x
_atom_site_fract_y
_atom_site_fract_z
Si Si1 0.750000 0.640719 0.827490
Si Si2 0.355686 0.902690 0.941622
Si Si3 0.310820 0.417762 0.222610
Si Si4 0.332824 0.006257 0.170146
Si Si5 0.472958 0.338335 0.387576
Si Si6 0.162784 0.502463 0.986380
Si Si7 0.446156 0.091665 0.204528
Si Si8 0.548454 0.133129 0.533120
O O1 0.704226 0.624871 0.734116
O O2 0.796959 0.615089 0.918665
O O3 0.331643 0.997146 0.043709
O O4 0.332660 0.703379 0.945766
O O5 0.343510 0.973950 0.825452
O O6 0.419504 0.890369 0.948685
O O7 0.250000 0.461575 0.250258
O O8 0.324287 0.498584 0.110131
O O9 0.316737 0.204772 0.206582
O O10 0.394204 0.972269 0.200990
O O11 0.500000 0.500000 0.324834
O O12 0.458070 0.172111 0.317043
O O13 0.520237 0.276939 0.461203
O O14 0.101047 0.445709 0.980745
O O15 0.432786 0.263442 0.135534
O O16 0.500000 0.000000 0.167097
O O17 0.500000 0.000000 0.556441
#
# Coordination Sequence:
#
# PCOD9365583 Si02
#       8
#     4   8   8   8   8   8   8   8
#     4  12  26  48  74 108 148 204 252 306 376 444
#     4  12  26  49  75 109 151 195 250 310 377 453
#     4  12  25  49  76 107 145 198 250 315 374 438
#     4  12  25  48  75 105 151 200 247 311 375 440
#     4  12  25  45  72 110 149 193 245 307 379 456
#     4  12  25  49  77 106 153 197 249 312 377 450
#     4  12  26  46  72 110 149 196 250 309 381 458
#     4  12  24  43  73 108 146 193 243 308 382 447
#
# _framework density 24.765802999999998
#
# number of rings (size 3 to 8) (size 9 to 14) (size 15 to 20)
#    0.000    0.000    6.667    2.800    2.800    0.000 
#    2.400    0.000    0.000    0.000    0.000    0.000 
#    0.000    0.000    0.000    0.000    0.000    0.000 
#
# Total GULP energy -167563.933934 kJ/mol
# GULP energy per Si atom -5585.464464 kJ/mol
# Density = 2.470943 g / cm^3
# Si number density = 24.765803 Si / 1000 Ang^3
#
#
#
# Elastic Constant Matrix: (Units=GPa)
#
#
# Indices 1 2 3 4 5 6 
#
# 1 151.7907 9.5106 26.5593 0.0000 0.0000 0.0000
# 2 9.5106 36.4767 16.0075 0.0000 0.0000 0.0000
# 3 26.5593 16.0075 156.0018 0.0000 0.0000 0.0000
# 4 0.0000 0.0000 0.0000 26.2899 0.0000 0.0000
# 5 0.0000 0.0000 0.0000 0.0000 50.8173 0.0000
# 6 0.0000 0.0000 0.0000 0.0000 0.0000 17.2535
#
#
#
# Elastic Compliance Matrix: (Units=1/GPa)
#
#
# Indices 1 2 3 4 5 6 
#
# 1 0.006852 -0.001335 -0.001030 0.000000 0.000000 0.000000
# 2 -0.001335 0.028967 -0.002745 0.000000 0.000000 0.000000
# 3 -0.001030 -0.002745 0.006867 0.000000 0.000000 0.000000
# 4 0.000000 0.000000 0.000000 0.038037 0.000000 0.000000
# 5 0.000000 0.000000 0.000000 0.000000 0.019678 0.000000
# 6 0.000000 0.000000 0.000000 0.000000 0.000000 0.057959
#
#
# Mechanical properties :
#
#
# Convention : Reuss Voigt Hill
#
# Bulk Modulus (GPa) = 30.79991 49.82489 40.31240
# Shear Modulus (GPa) = 27.87027 38.35160 33.11093
#
# Velocity S-wave (km/s) = 3.35827 3.93946 3.66042
# Velocity P-wave (km/s) = 5.24412 6.39175 5.84616
#
# Compressibility (1/GPa) = 0.03246763
#
# Stress axis : x y z
#
# Youngs Moduli (GPa) = 145.94730 34.52152 145.62078
#
# Poissons Ratio (x) = 0.04607 0.14993
# Poissons Ratio (y) = 0.19479 0.39975
# Poissons Ratio (z) = 0.15026 0.09477
#
# Static dielectric constant tensor:
#      x y z
#    x 1.944830 0.000000 0.000000 
#    y 0.000000 2.038030 0.000000 
#    z 0.000000 0.000000 1.937490 
# 
# From -- ./inp_files/14241.got.cif
#   From: 2010.05.17/outbox.cif.g08.bks.cpg/sg40_8_cif.got.tgz:14241.got - 2010.06.03 18:35:42.
