data_PCOD9365091
_publ_section_title
;
Structure prediction by ZEFSAII (Michael W. Deem and Ramdas Pophale) SiO2 
 PCOD9365091
Probable space group: A M A 2
;
_chemical_formula_sum "Si O2"
_cell_formula_units_Z 60
_cell_length_a 26.488132
_cell_length_b 12.529883
_cell_length_c 7.851041
_cell_angle_alpha 90.000000
_cell_angle_beta 90.000000
_cell_angle_gamma 90.000000
_cell_volume 2605.707080
_symmetry_space_group_name_H-M "A M A 2"
_symmetry_group_IT_number 40
_symmetry_cell_setting 'orthorhombic'
loop_
_space_group_symop_operation_xyz
x,y,z
-x,-y,z
1/2-x,y,z
1/2+x,-y,z
x,1/2+y,1/2+z
-x,1/2-y,1/2+z
1/2-x,1/2+y,1/2+z
1/2+x,1/2-y,1/2+z
loop_
_atom_site_type_symbol
_atom_site_label
_atom_site_fract_x
_atom_site_fract_y
_atom_site_fract_z
Si Si1 0.191486 0.412566 0.011480
Si Si2 0.965063 0.103216 0.753695
Si Si3 0.630417 0.780875 0.851803
Si Si4 0.104083 0.998713 0.004654
Si Si5 0.807603 0.628320 0.409905
Si Si6 0.475602 0.788452 0.399375
Si Si7 0.000000 0.000000 0.215280
Si Si8 0.189654 0.143648 0.520360
O O1 0.250000 0.397510 0.959974
O O2 0.190775 0.415707 0.217879
O O3 0.172311 0.528918 0.952745
O O4 0.159198 0.315725 0.940748
O O5 0.914215 0.053865 0.825830
O O6 0.959799 0.175920 0.587883
O O7 0.990573 0.182645 0.891062
O O8 0.000000 0.000000 0.720972
O O9 0.575072 0.740238 0.796384
O O10 0.661912 0.826475 0.694664
O O11 0.620079 0.879712 0.977686
O O12 0.153683 0.928534 0.038902
O O13 0.053025 0.994096 0.114047
O O14 0.750000 0.615803 0.472239
O O15 0.818850 0.754521 0.400996
O O16 0.502558 0.891660 0.323404
O O17 0.250000 0.133801 0.549525
#
# Coordination Sequence:
#
# PCOD9365091 Si02
#       8
#     8   8   8   8   8   8   4   8
#     4  10  22  43  67  96 136 176 227 280 339 412
#     4  12  24  48  68  97 135 184 224 285 341 411
#     4  12  23  40  67  99 131 178 225 279 346 399
#     4  12  23  45  70  99 144 179 231 288 339 413
#     4  10  22  43  70  99 133 176 223 282 345 401
#     4  12  26  44  72  97 138 180 232 285 347 413
#     4  12  26  46  64 106 140 186 236 284 346 412
#     4  10  22  43  66  94 136 177 223 280 338 404
#
# _framework density 23.026377
#
# number of rings (size 3 to 8) (size 9 to 14) (size 15 to 20)
#    0.000    0.800    4.000    3.600    0.000    0.533 
#    7.200    0.000    0.000    0.000    0.000    0.000 
#    0.000    0.000    0.000    0.000    0.000    0.000 
#
# Total GULP energy -167864.768269 kJ/mol
# GULP energy per Si atom -5595.492276 kJ/mol
# Density = 2.297397 g / cm^3
# Si number density = 23.026377 Si / 1000 Ang^3
#
#
#
# Elastic Constant Matrix: (Units=GPa)
#
#
# Indices 1 2 3 4 5 6 
#
# 1 86.8754 60.4456 2.5244 0.0000 0.0000 0.0000
# 2 60.4456 189.0106 16.3535 0.0000 0.0000 0.0000
# 3 2.5244 16.3535 31.3064 0.0000 0.0000 0.0000
# 4 0.0000 0.0000 0.0000 38.2606 0.0000 0.0000
# 5 0.0000 0.0000 0.0000 0.0000 16.6431 0.0000
# 6 0.0000 0.0000 0.0000 0.0000 0.0000 45.3042
#
#
#
# Elastic Compliance Matrix: (Units=1/GPa)
#
#
# Indices 1 2 3 4 5 6 
#
# 1 0.014859 -0.004868 0.001345 0.000000 0.000000 0.000000
# 2 -0.004868 0.007136 -0.003335 0.000000 0.000000 0.000000
# 3 0.001345 -0.003335 0.033576 0.000000 0.000000 0.000000
# 4 0.000000 0.000000 0.000000 0.026137 0.000000 0.000000
# 5 0.000000 0.000000 0.000000 0.000000 0.060085 0.000000
# 6 0.000000 0.000000 0.000000 0.000000 0.000000 0.022073
#
#
# Mechanical properties :
#
#
# Convention : Reuss Voigt Hill
#
# Bulk Modulus (GPa) = 23.89253 51.75993 37.82623
# Shear Modulus (GPa) = 26.10501 35.23283 30.66892
#
# Velocity S-wave (km/s) = 3.37070 3.91590 3.65348
# Velocity P-wave (km/s) = 5.05445 6.55538 5.85323
#
# Compressibility (1/GPa) = 0.04185409
#
# Stress axis : x y z
#
# Youngs Moduli (GPa) = 67.29995 140.13197 29.78307
#
# Poissons Ratio (x) = 0.68219 -0.04005
# Poissons Ratio (y) = 0.32763 0.09933
# Poissons Ratio (z) = -0.09051 0.46736
#
# Static dielectric constant tensor:
#      x y z
#    x 1.899150 0.000000 0.000000 
#    y 0.000000 1.845000 0.000000 
#    z 0.000000 0.000000 1.885880 
# 
# From -- ./inp_files/9169.got.cif
#   From: 2010.05.17/outbox.cif.g08.bks.cpg/sg40_5_cif.got.tgz:9169.got - 2010.06.03 18:35:42.
