data_PCOD9365856
_publ_section_title
;
Structure prediction by ZEFSAII (Michael W. Deem and Ramdas Pophale) SiO2 
 PCOD9365856
Probable space group: A B A 2
;
_chemical_formula_sum "Si O2"
_cell_formula_units_Z 56
_cell_length_a 13.584540
_cell_length_b 18.062381
_cell_length_c 11.061155
_cell_angle_alpha 90.000000
_cell_angle_beta 90.000000
_cell_angle_gamma 90.000000
_cell_volume 2714.066059
_symmetry_space_group_name_H-M "A B A 2"
_symmetry_group_IT_number 41
_symmetry_cell_setting 'orthorhombic'
loop_
_space_group_symop_operation_xyz
x,y,z
-x,-y,z
1/2-x,y,1/2+z
1/2+x,-y,1/2+z
x,1/2+y,1/2+z
-x,1/2-y,1/2+z
1/2-x,1/2+y,z
1/2+x,1/2-y,z
loop_
_atom_site_type_symbol
_atom_site_label
_atom_site_fract_x
_atom_site_fract_y
_atom_site_fract_z
Si Si1 0.339050 0.713621 0.398260
Si Si2 0.907593 0.917845 0.098091
Si Si3 0.225720 0.185705 0.651838
Si Si4 0.924766 0.439444 0.222573
Si Si5 0.197487 0.977362 0.908952
Si Si6 0.557481 0.144296 0.421030
Si Si7 0.903784 0.956656 0.374024
O O1 0.260365 0.715326 0.285459
O O2 0.299044 0.734056 0.532972
O O3 0.427667 0.771584 0.381164
O O4 0.380748 0.629585 0.402875
O O5 0.820520 0.858984 0.106664
O O6 0.912985 0.953759 0.228973
O O7 0.870672 0.980209 0.005680
O O8 0.002826 0.874824 0.046771
O O9 0.134366 0.128524 0.664098
O O10 0.837679 0.487776 0.282238
O O11 0.000000 0.500000 0.166664
O O12 0.991279 0.399907 0.324587
O O13 0.310183 0.997924 0.922378
O O14 0.165135 0.893005 0.916566
O O15 0.000000 0.000000 0.415769
#
# Coordination Sequence:
#
# PCOD9365856 Si02
#       7
#     8   8   8   8   8   8   8
#     4  11  24  43  64  93 137 176 217 272 346 394
#     4  10  19  40  67  89 127 177 223 268 333 405
#     4  11  21  42  67  91 133 183 214 272 344 399
#     4   9  18  37  67  92 125 168 225 269 326 400
#     4  10  18  40  63  89 126 171 222 265 327 397
#     4  10  22  39  64  99 126 176 223 273 329 414
#     4  11  22  39  64  99 128 173 224 286 332 400
#
# _framework density 20.63325
#
# number of rings (size 3 to 8) (size 9 to 14) (size 15 to 20)
#    0.000    1.714    4.286    3.000    0.000    2.857 
#   10.286    0.000    0.000    0.000    0.000    0.000 
#    0.000    0.000    0.000    0.000    0.000    0.000 
#
# Total GULP energy -155887.387288 kJ/mol
# GULP energy per Si atom -5567.406689 kJ/mol
# Density = 2.058629 g / cm^3
# Si number density = 20.633250 Si / 1000 Ang^3
#
#
#
# Elastic Constant Matrix: (Units=GPa)
#
#
# Indices 1 2 3 4 5 6 
#
# 1 108.6170 50.7411 14.6650 0.0000 0.0000 0.0000
# 2 50.7411 55.4028 18.8562 0.0000 0.0000 0.0000
# 3 14.6650 18.8562 115.9429 0.0000 0.0000 0.0000
# 4 0.0000 0.0000 0.0000 -11.3123 0.0000 0.0000
# 5 0.0000 0.0000 0.0000 0.0000 -6.3278 0.0000
# 6 0.0000 0.0000 0.0000 0.0000 0.0000 5.7850
#
#
#
# Elastic Compliance Matrix: (Units=1/GPa)
#
#
# Indices 1 2 3 4 5 6 
#
# 1 0.016107 -0.014882 0.000383 0.000000 0.000000 0.000000
# 2 -0.014882 0.032858 -0.003461 0.000000 0.000000 0.000000
# 3 0.000383 -0.003461 0.009139 0.000000 0.000000 0.000000
# 4 0.000000 0.000000 0.000000 -0.088400 0.000000 0.000000
# 5 0.000000 0.000000 0.000000 0.000000 -0.158032 0.000000
# 6 0.000000 0.000000 0.000000 0.000000 0.000000 0.172862
#
#
# Mechanical properties :
#
#
# Convention : Reuss Voigt Hill
#
# Bulk Modulus (GPa) = 45.07929 49.83191 47.45560
# Shear Modulus (GPa) = 179.53210 10.67568 95.10389
#
# Velocity S-wave (km/s) = 9.33809 2.27711 6.79651
# Velocity P-wave (km/s) = 11.75423 5.57829 9.19998
#
# Compressibility (1/GPa) = 0.02218313
#
# Stress axis : x y z
#
# Youngs Moduli (GPa) = 62.08344 30.43411 109.41609
#
# Poissons Ratio (x) = 0.45293 -0.04191
# Poissons Ratio (y) = 0.92395 0.37873
# Poissons Ratio (z) = -0.02378 0.10534
#
# Static dielectric constant tensor:
#      x y z
#    x 1.748120 0.000000 0.000000 
#    y 0.000000 1.776570 0.000000 
#    z 0.000000 0.000000 1.819000 
# 
# From -- ./inp_files/5083.got.cif
#   From: 2010.05.17/outbox.cif.g08.bks.cpg/sg41_3_cif.got.tgz:5083.got - 2010.06.03 18:54:24.
