data_PCOD9365126
_publ_section_title
;
Structure prediction by ZEFSAII (Michael W. Deem and Ramdas Pophale) SiO2 
 PCOD9365126
Probable space group: A M A 2
;
_chemical_formula_sum "Si O2"
_cell_formula_units_Z 48
_cell_length_a 17.523296
_cell_length_b 15.904018
_cell_length_c 6.826671
_cell_angle_alpha 90.000000
_cell_angle_beta 90.000000
_cell_angle_gamma 90.000000
_cell_volume 1902.530505
_symmetry_space_group_name_H-M "A M A 2"
_symmetry_group_IT_number 40
_symmetry_cell_setting 'orthorhombic'
loop_
_space_group_symop_operation_xyz
x,y,z
-x,-y,z
1/2-x,y,z
1/2+x,-y,z
x,1/2+y,1/2+z
-x,1/2-y,1/2+z
1/2-x,1/2+y,1/2+z
1/2+x,1/2-y,1/2+z
loop_
_atom_site_type_symbol
_atom_site_label
_atom_site_fract_x
_atom_site_fract_y
_atom_site_fract_z
Si Si1 0.834766 0.907571 0.567380
Si Si2 0.929389 0.049792 0.938260
Si Si3 0.335809 0.891358 0.584158
Si Si4 0.917383 0.787493 0.347204
Si Si5 0.161119 0.615102 0.520785
Si Si6 0.577913 0.688964 0.722743
O O1 0.750000 0.877595 0.502231
O O2 0.873960 0.807140 0.143778
O O3 0.831521 0.007976 0.557755
O O4 0.845487 0.873668 0.787249
O O5 0.957724 0.107546 0.114190
O O6 0.874337 0.979086 0.032807
O O7 0.890572 0.109238 0.773926
O O8 0.000000 0.000000 0.846207
O O9 0.250000 0.861293 0.629152
O O10 0.368027 0.845202 0.393134
O O11 0.004526 0.762954 0.308986
O O12 0.885603 0.737079 0.536818
O O13 0.906101 0.880256 0.439038
O O14 0.250000 0.609287 0.568800
#
# Coordination Sequence:
#
# PCOD9365126 Si02
#       6
#     8   8   8   8   8   8
#     4   9  21  43  73 103 135 179 235 300 366 438
#     4  11  23  44  76 109 140 188 245 306 364 430
#     4  10  25  46  73 108 143 180 240 311 370 436
#     4  12  27  43  65  99 144 190 241 295 357 438
#     4  10  22  44  74 106 140 181 237 302 367 439
#     4  12  30  42  69 101 146 196 244 303 364 438
#
# _framework density 25.229557
#
# number of rings (size 3 to 8) (size 9 to 14) (size 15 to 20)
#    0.000    1.333    1.667    3.000    9.333    4.000 
#    0.000    1.667    0.000    0.000    0.000    0.000 
#    0.000    0.000    0.000    0.000    0.000    0.000 
#
# Total GULP energy -133979.686203 kJ/mol
# GULP energy per Si atom -5582.486925 kJ/mol
# Density = 2.517213 g / cm^3
# Si number density = 25.229557 Si / 1000 Ang^3
#
#
#
# Elastic Constant Matrix: (Units=GPa)
#
#
# Indices 1 2 3 4 5 6 
#
# 1 111.8219 21.8184 64.5096 0.0000 0.0000 0.0000
# 2 21.8184 50.4052 70.5454 0.0000 0.0000 0.0000
# 3 64.5096 70.5454 185.9831 0.0000 0.0000 0.0000
# 4 0.0000 0.0000 0.0000 67.4428 0.0000 0.0000
# 5 0.0000 0.0000 0.0000 0.0000 89.7202 0.0000
# 6 0.0000 0.0000 0.0000 0.0000 0.0000 0.2697
#
#
#
# Elastic Compliance Matrix: (Units=1/GPa)
#
#
# Indices 1 2 3 4 5 6 
#
# 1 0.011217 0.001257 -0.004368 0.000000 0.000000 0.000000
# 2 0.001257 0.042430 -0.016530 0.000000 0.000000 0.000000
# 3 -0.004368 -0.016530 0.013162 0.000000 0.000000 0.000000
# 4 0.000000 0.000000 0.000000 0.014827 0.000000 0.000000
# 5 0.000000 0.000000 0.000000 0.000000 0.011146 0.000000
# 6 0.000000 0.000000 0.000000 0.000000 0.000000 3.707850
#
#
# Mechanical properties :
#
#
# Convention : Reuss Voigt Hill
#
# Bulk Modulus (GPa) = 36.32651 73.55077 54.93864
# Shear Modulus (GPa) = 1.29901 44.24233 22.77067
#
# Velocity S-wave (km/s) = 0.71833 4.19213 3.00749
# Velocity P-wave (km/s) = 3.88814 7.25589 5.82089
#
# Compressibility (1/GPa) = 0.02752811
#
# Stress axis : x y z
#
# Youngs Moduli (GPa) = 89.14914 23.56798 75.97632
#
# Poissons Ratio (x) = -0.02964 0.33184
# Poissons Ratio (y) = -0.11210 1.25593
# Poissons Ratio (z) = 0.38938 0.38959
#
# Static dielectric constant tensor:
#      x y z
#    x 1.960650 0.000000 0.000000 
#    y 0.000000 2.105710 0.000000 
#    z 0.000000 0.000000 2.041790 
# 
# From -- ./inp_files/1879.got.cif
#   From: 2010.05.17/outbox.cif.g08.bks.cpg/sg40_1_cif.got.tgz:1879.got - 2010.06.03 18:35:42.
