data_PCOD9365448
_publ_section_title
;
Structure prediction by ZEFSAII (Michael W. Deem and Ramdas Pophale) SiO2 
 PCOD9365448
Probable space group: A M A 2
;
_chemical_formula_sum "Si O2"
_cell_formula_units_Z 64
_cell_length_a 13.729168
_cell_length_b 23.059252
_cell_length_c 9.475860
_cell_angle_alpha 90.000000
_cell_angle_beta 90.000000
_cell_angle_gamma 90.000000
_cell_volume 2999.908928
_symmetry_space_group_name_H-M "A M A 2"
_symmetry_group_IT_number 40
_symmetry_cell_setting 'orthorhombic'
loop_
_space_group_symop_operation_xyz
x,y,z
-x,-y,z
1/2-x,y,z
1/2+x,-y,z
x,1/2+y,1/2+z
-x,1/2-y,1/2+z
1/2-x,1/2+y,1/2+z
1/2+x,1/2-y,1/2+z
loop_
_atom_site_type_symbol
_atom_site_label
_atom_site_fract_x
_atom_site_fract_y
_atom_site_fract_z
Si Si1 0.507103 0.179428 0.175390
Si Si2 0.132713 0.975122 0.419311
Si Si3 0.636470 0.151911 0.402469
Si Si4 0.367197 0.484999 0.241245
Si Si5 0.637033 0.383770 0.193961
Si Si6 0.364797 0.874014 0.929288
Si Si7 0.636528 0.400751 0.853368
Si Si8 0.954550 0.191712 0.686437
O O1 0.592608 0.193711 0.287041
O O2 0.427693 0.142060 0.260682
O O3 0.461785 0.241610 0.141314
O O4 0.560183 0.144685 0.050819
O O5 0.250000 0.983141 0.428326
O O6 0.117670 0.913545 0.348105
O O7 0.098687 0.970684 0.581923
O O8 0.098131 0.033121 0.343776
O O9 0.750000 0.159297 0.425690
O O10 0.581441 0.158713 0.548148
O O11 0.250000 0.482790 0.236692
O O12 0.390709 0.553161 0.259452
O O13 0.392202 0.435604 0.354952
O O14 0.750000 0.371494 0.231486
O O15 0.558218 0.335502 0.232352
O O16 0.633795 0.388849 0.022340
O O17 0.250000 0.876281 0.972782
O O18 0.379353 0.824484 0.809830
O O19 0.750000 0.397240 0.810249
#
# Coordination Sequence:
#
# PCOD9365448 Si02
#       8
#     8   8   8   8   8   8   8   8
#     4  12  26  42  59  99 138 176 225 265 320 409
#     4   8  15  33  64  96 120 151 209 273 327 388
#     4  11  22  41  66  93 125 165 222 283 324 377
#     4   8  15  34  63  96 123 153 209 266 328 398
#     4   9  19  38  67  98 127 163 215 282 331 374
#     4  11  24  43  66  93 138 181 213 276 347 392
#     4   9  19  39  66  97 131 167 213 277 336 382
#     4  12  24  42  63  96 130 178 236 266 307 406
#
# _framework density 21.33398
#
# number of rings (size 3 to 8) (size 9 to 14) (size 15 to 20)
#    0.000    2.000    2.500    3.000    0.000    3.000 
#    0.000    3.125    0.000    3.000    0.000    0.875 
#    0.000    0.000    0.000    0.000    0.000    0.000 
#
# Total GULP energy -178612.189370 kJ/mol
# GULP energy per Si atom -5581.630918 kJ/mol
# Density = 2.128542 g / cm^3
# Si number density = 21.333980 Si / 1000 Ang^3
#
#
#
# Elastic Constant Matrix: (Units=GPa)
#
#
# Indices 1 2 3 4 5 6 
#
# 1 115.7009 54.0656 21.6289 0.0000 0.0000 0.0000
# 2 54.0656 127.0491 34.4421 0.0000 0.0000 0.0000
# 3 21.6289 34.4421 53.1775 0.0000 0.0000 0.0000
# 4 0.0000 0.0000 0.0000 9.5276 0.0000 0.0000
# 5 0.0000 0.0000 0.0000 0.0000 25.0453 0.0000
# 6 0.0000 0.0000 0.0000 0.0000 0.0000 24.4193
#
#
#
# Elastic Compliance Matrix: (Units=1/GPa)
#
#
# Indices 1 2 3 4 5 6 
#
# 1 0.010919 -0.004176 -0.001736 0.000000 0.000000 0.000000
# 2 -0.004176 0.011144 -0.005520 0.000000 0.000000 0.000000
# 3 -0.001736 -0.005520 0.023086 0.000000 0.000000 0.000000
# 4 0.000000 0.000000 0.000000 0.104959 0.000000 0.000000
# 5 0.000000 0.000000 0.000000 0.000000 0.039928 0.000000
# 6 0.000000 0.000000 0.000000 0.000000 0.000000 0.040951
#
#
# Mechanical properties :
#
#
# Convention : Reuss Voigt Hill
#
# Bulk Modulus (GPa) = 44.87178 57.35563 51.11371
# Shear Modulus (GPa) = 19.13665 24.18450 21.66057
#
# Velocity S-wave (km/s) = 2.99825 3.37057 3.18985
# Velocity P-wave (km/s) = 5.75019 6.48773 6.13006
#
# Compressibility (1/GPa) = 0.02228572
#
# Stress axis : x y z
#
# Youngs Moduli (GPa) = 91.58454 89.73226 43.31610
#
# Poissons Ratio (x) = 0.37470 0.07522
# Poissons Ratio (y) = 0.38244 0.23908
# Poissons Ratio (z) = 0.15903 0.49528
#
# Static dielectric constant tensor:
#      x y z
#    x 1.823550 0.000000 0.000000 
#    y 0.000000 1.790530 0.000000 
#    z 0.000000 0.000000 1.750990 
# 
# From -- ./inp_files/6868.got.cif
#   From: 2010.05.17/outbox.cif.g08.bks.cpg/sg40_4_cif.got.tgz:6868.got - 2010.06.03 18:35:42.
