data_PCOD9365185
_publ_section_title
;
Structure prediction by ZEFSAII (Michael W. Deem and Ramdas Pophale) SiO2 
 PCOD9365185
Probable space group: A M A 2
;
_chemical_formula_sum "Si O2"
_cell_formula_units_Z 48
_cell_length_a 30.272815
_cell_length_b 13.227541
_cell_length_c 5.098021
_cell_angle_alpha 90.000000
_cell_angle_beta 90.000000
_cell_angle_gamma 90.000000
_cell_volume 2041.425537
_symmetry_space_group_name_H-M "A M A 2"
_symmetry_group_IT_number 40
_symmetry_cell_setting 'orthorhombic'
loop_
_space_group_symop_operation_xyz
x,y,z
-x,-y,z
1/2-x,y,z
1/2+x,-y,z
x,1/2+y,1/2+z
-x,1/2-y,1/2+z
1/2-x,1/2+y,1/2+z
1/2+x,1/2-y,1/2+z
loop_
_atom_site_type_symbol
_atom_site_label
_atom_site_fract_x
_atom_site_fract_y
_atom_site_fract_z
Si Si1 0.954507 0.961849 0.314790
Si Si2 0.092406 0.898678 0.965497
Si Si3 0.298644 0.368398 0.960181
Si Si4 0.365677 0.545747 0.079304
Si Si5 0.673104 0.744876 0.467668
Si Si6 0.497269 0.816862 0.903187
O O1 0.912754 0.915624 0.463098
O O2 0.970860 0.895594 0.061369
O O3 0.000000 0.000000 0.445343
O O4 0.930361 0.064957 0.228983
O O5 0.125116 0.806847 0.983444
O O6 0.118920 0.995116 0.852632
O O7 0.048710 0.866658 0.810357
O O8 0.250000 0.412039 0.016635
O O9 0.298791 0.314885 0.680834
O O10 0.337388 0.452233 0.959427
O O11 0.309492 0.283516 0.179748
O O12 0.333084 0.640090 0.053324
O O13 0.485776 0.736554 0.137500
#
# Coordination Sequence:
#
# PCOD9365185 Si02
#       6
#     8   8   8   8   8   8
#     4  10  23  41  67  99 146 192 235 291 344 411
#     4  10  24  42  65 101 141 185 240 290 347 410
#     4  11  26  48  73 107 143 178 234 299 358 431
#     4  11  25  45  76 102 146 190 234 294 357 425
#     4  11  25  45  75 104 141 185 232 288 359 424
#     4  11  26  41  64 100 140 191 244 290 340 410
#
# _framework density 23.512979000000001
#
# number of rings (size 3 to 8) (size 9 to 14) (size 15 to 20)
#    0.000    1.333    1.667    1.500   11.667    2.000 
#    0.000    0.000    0.000    0.000    0.000    0.000 
#    0.000    0.000    0.000    0.000    0.000    0.000 
#
# Total GULP energy -133871.518802 kJ/mol
# GULP energy per Si atom -5577.979950 kJ/mol
# Density = 2.345946 g / cm^3
# Si number density = 23.512979 Si / 1000 Ang^3
#
#
#
# Elastic Constant Matrix: (Units=GPa)
#
#
# Indices 1 2 3 4 5 6 
#
# 1 135.0512 25.5627 20.3618 0.0000 0.0000 0.0000
# 2 25.5627 86.7012 19.1760 0.0000 0.0000 0.0000
# 3 20.3618 19.1760 84.2890 0.0000 0.0000 0.0000
# 4 0.0000 0.0000 0.0000 29.6614 0.0000 0.0000
# 5 0.0000 0.0000 0.0000 0.0000 15.4885 0.0000
# 6 0.0000 0.0000 0.0000 0.0000 0.0000 3.0262
#
#
#
# Elastic Compliance Matrix: (Units=1/GPa)
#
#
# Indices 1 2 3 4 5 6 
#
# 1 0.008012 -0.002037 -0.001472 0.000000 0.000000 0.000000
# 2 -0.002037 0.012663 -0.002389 0.000000 0.000000 0.000000
# 3 -0.001472 -0.002389 0.012763 0.000000 0.000000 0.000000
# 4 0.000000 0.000000 0.000000 0.033714 0.000000 0.000000
# 5 0.000000 0.000000 0.000000 0.000000 0.064564 0.000000
# 6 0.000000 0.000000 0.000000 0.000000 0.000000 0.330452
#
#
# Mechanical properties :
#
#
# Convention : Reuss Voigt Hill
#
# Bulk Modulus (GPa) = 46.20520 48.47138 47.33829
# Shear Modulus (GPa) = 10.39119 25.69793 18.04456
#
# Velocity S-wave (km/s) = 2.10450 3.30953 2.77326
# Velocity P-wave (km/s) = 5.05953 5.93830 5.51644
#
# Compressibility (1/GPa) = 0.02164259
#
# Stress axis : x y z
#
# Youngs Moduli (GPa) = 124.81195 78.97226 78.35129
#
# Poissons Ratio (x) = 0.16084 0.11534
# Poissons Ratio (y) = 0.25420 0.18717
# Poissons Ratio (z) = 0.18374 0.18865
#
# Static dielectric constant tensor:
#      x y z
#    x 1.960360 0.000000 0.000000 
#    y 0.000000 1.969570 0.000000 
#    z 0.000000 0.000000 1.963480 
# 
# From -- ./inp_files/3089.got.cif
#   From: 2010.05.17/outbox.cif.g08.bks.cpg/sg40_2_cif.got.tgz:3089.got - 2010.06.03 18:35:42.
