data_PCOD9365999
_publ_section_title
;
Structure prediction by ZEFSAII (Michael W. Deem and Ramdas Pophale) SiO2 
 PCOD9365999
Probable space group: A B A 2
;
_chemical_formula_sum "Si O2"
_cell_formula_units_Z 60
_cell_length_a 15.561465
_cell_length_b 14.707964
_cell_length_c 12.675378
_cell_angle_alpha 90.000000
_cell_angle_beta 90.000000
_cell_angle_gamma 90.000000
_cell_volume 2901.108410
_symmetry_space_group_name_H-M "A B A 2"
_symmetry_group_IT_number 41
_symmetry_cell_setting 'orthorhombic'
loop_
_space_group_symop_operation_xyz
x,y,z
-x,-y,z
1/2-x,y,1/2+z
1/2+x,-y,1/2+z
x,1/2+y,1/2+z
-x,1/2-y,1/2+z
1/2-x,1/2+y,z
1/2+x,1/2-y,z
loop_
_atom_site_type_symbol
_atom_site_label
_atom_site_fract_x
_atom_site_fract_y
_atom_site_fract_z
Si Si1 0.500000 0.000000 0.083460
Si Si2 0.418318 0.343227 0.728347
Si Si3 0.495582 0.610787 0.945596
Si Si4 0.951111 0.215862 0.148061
Si Si5 0.715303 0.528784 0.805048
Si Si6 0.154035 0.601731 0.116735
Si Si7 0.832364 0.444044 0.520244
Si Si8 0.904649 0.033321 0.236110
O O1 0.457512 0.919896 0.152030
O O2 0.584824 0.950491 0.040781
O O3 0.470245 0.353700 0.836353
O O4 0.452387 0.249447 0.679091
O O5 0.321845 0.375977 0.756914
O O6 0.500000 0.500000 0.945779
O O7 0.395639 0.628174 0.967146
O O8 0.544381 0.662172 0.038234
O O9 0.887898 0.301424 0.140652
O O10 0.915914 0.141391 0.227903
O O11 0.671037 0.453777 0.726708
O O12 0.686869 0.515379 0.925959
O O13 0.817506 0.516606 0.800252
O O14 0.244979 0.600454 0.059797
O O15 0.880327 0.487957 0.621954
O O16 0.000000 0.000000 0.268358
#
# Coordination Sequence:
#
# PCOD9365999 Si02
#       8
#     4   8   8   8   8   8   8   8
#     4   8  14  36  56  78 118 164 198 248 320 380
#     4  10  19  36  63  92 118 162 221 263 307 387
#     4  12  19  38  70  88 121 173 223 250 322 401
#     4  11  21  37  59  99 129 157 210 284 330 361
#     4  10  21  40  66  88 120 177 222 251 318 417
#     4   9  21  35  58  90 126 156 210 274 320 372
#     4  11  19  39  66  87 113 180 221 249 307 416
#     4  11  22  42  62  91 130 171 208 268 341 391
#
# _framework density 20.681749
#
# number of rings (size 3 to 8) (size 9 to 14) (size 15 to 20)
#    0.000    1.600    4.667    1.600    0.000    1.067 
#    3.600    8.000    0.000    0.000    0.000    0.000 
#    0.000    0.000    0.000    0.000    0.000    0.000 
#
# Total GULP energy -167046.986509 kJ/mol
# GULP energy per Si atom -5568.232884 kJ/mol
# Density = 2.063468 g / cm^3
# Si number density = 20.681749 Si / 1000 Ang^3
#
#
#
# Elastic Constant Matrix: (Units=GPa)
#
#
# Indices 1 2 3 4 5 6 
#
# 1 138.0468 22.0884 0.1085 0.0000 0.0000 0.0000
# 2 22.0884 81.1907 2.6286 0.0000 0.0000 0.0000
# 3 0.1085 2.6286 28.8910 0.0000 0.0000 0.0000
# 4 0.0000 0.0000 0.0000 23.2610 0.0000 0.0000
# 5 0.0000 0.0000 0.0000 0.0000 28.2968 0.0000
# 6 0.0000 0.0000 0.0000 0.0000 0.0000 22.9914
#
#
#
# Elastic Compliance Matrix: (Units=1/GPa)
#
#
# Indices 1 2 3 4 5 6 
#
# 1 0.007574 -0.002066 0.000160 0.000000 0.000000 0.000000
# 2 -0.002066 0.012916 -0.001167 0.000000 0.000000 0.000000
# 3 0.000160 -0.001167 0.034718 0.000000 0.000000 0.000000
# 4 0.000000 0.000000 0.000000 0.042990 0.000000 0.000000
# 5 0.000000 0.000000 0.000000 0.000000 0.035340 0.000000
# 6 0.000000 0.000000 0.000000 0.000000 0.000000 0.043494
#
#
# Mechanical properties :
#
#
# Convention : Reuss Voigt Hill
#
# Bulk Modulus (GPa) = 20.38244 33.08660 26.73452
# Shear Modulus (GPa) = 25.05823 29.79671 27.42747
#
# Velocity S-wave (km/s) = 3.48460 3.79981 3.64561
# Velocity P-wave (km/s) = 5.10554 5.94004 5.53853
#
# Compressibility (1/GPa) = 0.04906183
#
# Stress axis : x y z
#
# Youngs Moduli (GPa) = 132.02473 77.42045 28.80314
#
# Poissons Ratio (x) = 0.15994 -0.00459
# Poissons Ratio (y) = 0.27274 0.03363
# Poissons Ratio (z) = -0.02106 0.09038
#
# Static dielectric constant tensor:
#      x y z
#    x 1.820190 0.000000 0.000000 
#    y 0.000000 1.746530 0.000000 
#    z 0.000000 0.000000 1.764510 
# 
# From -- ./inp_files/8543.got.cif
#   From: 2010.05.17/outbox.cif.g08.bks.cpg/sg41_5_cif.got.tgz:8543.got - 2010.06.03 18:54:24.
