data_PCOD9365322
_publ_section_title
;
Structure prediction by ZEFSAII (Michael W. Deem and Ramdas Pophale) SiO2 
 PCOD9365322
Probable space group: A M A 2
;
_chemical_formula_sum "Si O2"
_cell_formula_units_Z 32
_cell_length_a 16.790824
_cell_length_b 7.730232
_cell_length_c 10.587502
_cell_angle_alpha 90.000000
_cell_angle_beta 90.000000
_cell_angle_gamma 90.000000
_cell_volume 1374.225626
_symmetry_space_group_name_H-M "A M A 2"
_symmetry_group_IT_number 40
_symmetry_cell_setting 'orthorhombic'
loop_
_space_group_symop_operation_xyz
x,y,z
-x,-y,z
1/2-x,y,z
1/2+x,-y,z
x,1/2+y,1/2+z
-x,1/2-y,1/2+z
1/2-x,1/2+y,1/2+z
1/2+x,1/2-y,1/2+z
loop_
_atom_site_type_symbol
_atom_site_label
_atom_site_fract_x
_atom_site_fract_y
_atom_site_fract_z
Si Si1 0.960408 0.721624 0.399290
Si Si2 0.342126 0.307435 0.205447
Si Si3 0.340952 0.483951 0.536983
Si Si4 0.922075 0.820408 0.665700
O O1 0.083739 0.456736 0.444280
O O2 0.025307 0.722024 0.288838
O O3 0.883358 0.793133 0.322603
O O4 0.972954 0.810926 0.534279
O O5 0.250000 0.338320 0.229357
O O6 0.348099 0.174470 0.091082
O O7 0.383784 0.491000 0.179501
O O8 0.250000 0.463277 0.490742
O O9 0.358021 0.331863 0.639384
#
# Coordination Sequence:
#
# PCOD9365322 Si02
#       4
#     8   8   8   8
#     4  10  24  47  70 107 153 187 243 311 360 441
#     4  11  23  44  74 107 143 194 248 303 372 437
#     4   9  22  47  74 104 146 191 245 304 362 438
#     4  10  24  48  73 107 151 190 246 303 371 438
#
# _framework density 23.285843
#
# number of rings (size 3 to 8) (size 9 to 14) (size 15 to 20)
#    1.500    0.500    0.000    2.250    0.000    5.000 
#   18.000    0.000    0.000    3.000    0.000    0.000 
#    0.000    0.000    0.000    0.000    0.000    0.000 
#
# Total GULP energy -89095.708616 kJ/mol
# GULP energy per Si atom -5568.481789 kJ/mol
# Density = 2.323284 g / cm^3
# Si number density = 23.285843 Si / 1000 Ang^3
#
#
#
# Elastic Constant Matrix: (Units=GPa)
#
#
# Indices 1 2 3 4 5 6 
#
# 1 125.1748 35.7838 52.5516 0.0000 0.0000 0.0000
# 2 35.7838 110.8327 44.0140 0.0000 0.0000 0.0000
# 3 52.5516 44.0140 143.2866 0.0000 0.0000 0.0000
# 4 0.0000 0.0000 0.0000 31.9065 0.0000 0.0000
# 5 0.0000 0.0000 0.0000 0.0000 -7.7741 0.0000
# 6 0.0000 0.0000 0.0000 0.0000 0.0000 13.4815
#
#
#
# Elastic Compliance Matrix: (Units=1/GPa)
#
#
# Indices 1 2 3 4 5 6 
#
# 1 0.009810 -0.001980 -0.002990 0.000000 0.000000 0.000000
# 2 -0.001980 0.010676 -0.002553 0.000000 0.000000 0.000000
# 3 -0.002990 -0.002553 0.008860 0.000000 0.000000 0.000000
# 4 0.000000 0.000000 0.000000 0.031342 0.000000 0.000000
# 5 0.000000 0.000000 0.000000 0.000000 -0.128633 0.000000
# 6 0.000000 0.000000 0.000000 0.000000 0.000000 0.074176
#
#
# Mechanical properties :
#
#
# Convention : Reuss Voigt Hill
#
# Bulk Modulus (GPa) = 69.93075 71.55478 70.74276
# Shear Modulus (GPa) = 191.99784 23.98579 107.99181
#
# Velocity S-wave (km/s) = 9.09019 3.21293 6.81742
# Velocity P-wave (km/s) = 11.84365 6.67529 9.61331
#
# Compressibility (1/GPa) = 0.01429986
#
# Stress axis : x y z
#
# Youngs Moduli (GPa) = 101.93674 93.66994 112.86970
#
# Poissons Ratio (x) = 0.18547 0.33745
# Poissons Ratio (y) = 0.20184 0.28817
# Poissons Ratio (z) = 0.30476 0.23915
#
# Static dielectric constant tensor:
#      x y z
#    x 1.898410 0.000000 0.000000 
#    y 0.000000 1.918160 0.000000 
#    z 0.000000 0.000000 2.000550 
# 
# From -- ./inp_files/11781.got.cif
#   From: 2010.05.17/outbox.cif.g08.bks.cpg/sg40_6_cif.got.tgz:11781.got - 2010.06.03 18:35:42.
