data_PCOD9365211
_publ_section_title
;
Structure prediction by ZEFSAII (Michael W. Deem and Ramdas Pophale) SiO2 
 PCOD9365211
Probable space group: A M A 2
;
_chemical_formula_sum "Si O2"
_cell_formula_units_Z 40
_cell_length_a 28.161700
_cell_length_b 7.752559
_cell_length_c 7.083686
_cell_angle_alpha 90.000000
_cell_angle_beta 90.000000
_cell_angle_gamma 90.000000
_cell_volume 1546.547452
_symmetry_space_group_name_H-M "A M A 2"
_symmetry_group_IT_number 40
_symmetry_cell_setting 'orthorhombic'
loop_
_space_group_symop_operation_xyz
x,y,z
-x,-y,z
1/2-x,y,z
1/2+x,-y,z
x,1/2+y,1/2+z
-x,1/2-y,1/2+z
1/2-x,1/2+y,1/2+z
1/2+x,1/2-y,1/2+z
loop_
_atom_site_type_symbol
_atom_site_label
_atom_site_fract_x
_atom_site_fract_y
_atom_site_fract_z
Si Si1 0.031947 0.851273 0.619000
Si Si2 0.054540 0.861572 0.194115
Si Si3 0.380753 0.526569 0.158612
Si Si4 0.854294 0.462159 0.722508
Si Si5 0.193829 0.695579 0.379355
O O1 0.042537 0.911609 0.407354
O O2 0.085077 0.861470 0.699951
O O3 0.996696 0.688973 0.608730
O O4 0.000000 0.000000 0.712747
O O5 0.085039 0.686309 0.209618
O O6 0.094782 0.992464 0.122752
O O7 0.333131 0.537663 0.278154
O O8 0.366548 0.566666 0.942361
O O9 0.826891 0.324405 0.592656
O O10 0.822436 0.636562 0.757594
O O11 0.250000 0.683995 0.381107
#
# Coordination Sequence:
#
# PCOD9365211 Si02
#       5
#     8   8   8   8   8
#     4   9  18  36  57  89 127 170 212 256 322 385
#     4   9  19  37  59  90 124 169 214 261 317 396
#     4   9  21  42  62  90 130 168 215 272 334 400
#     4  10  23  43  64  94 131 170 219 279 337 410
#     4  11  24  42  67  96 125 169 226 282 348 411
#
# _framework density 25.864065
#
# number of rings (size 3 to 8) (size 9 to 14) (size 15 to 20)
#    0.000    2.400    0.000    0.600    2.800    4.800 
#   28.800    0.000    0.000    0.000    0.000    0.000 
#    0.000    0.000    0.000    0.000    0.000    0.000 
#
# Total GULP energy -111600.891377 kJ/mol
# GULP energy per Si atom -5580.044569 kJ/mol
# Density = 2.580520 g / cm^3
# Si number density = 25.864065 Si / 1000 Ang^3
#
#
#
# Elastic Constant Matrix: (Units=GPa)
#
#
# Indices 1 2 3 4 5 6 
#
# 1 211.7525 16.3093 50.7533 0.0000 0.0000 0.0000
# 2 16.3093 84.6468 3.8014 0.0000 0.0000 0.0000
# 3 50.7533 3.8014 90.8682 0.0000 0.0000 0.0000
# 4 0.0000 0.0000 0.0000 17.9472 0.0000 0.0000
# 5 0.0000 0.0000 0.0000 0.0000 37.4575 0.0000
# 6 0.0000 0.0000 0.0000 0.0000 0.0000 19.2377
#
#
#
# Elastic Compliance Matrix: (Units=1/GPa)
#
#
# Indices 1 2 3 4 5 6 
#
# 1 0.005524 -0.000928 -0.003047 0.000000 0.000000 0.000000
# 2 -0.000928 0.011992 0.000016 0.000000 0.000000 0.000000
# 3 -0.003047 0.000016 0.012706 0.000000 0.000000 0.000000
# 4 0.000000 0.000000 0.000000 0.055719 0.000000 0.000000
# 5 0.000000 0.000000 0.000000 0.000000 0.026697 0.000000
# 6 0.000000 0.000000 0.000000 0.000000 0.000000 0.051981
#
#
# Mechanical properties :
#
#
# Convention : Reuss Voigt Hill
#
# Bulk Modulus (GPa) = 44.83044 58.77730 51.80387
# Shear Modulus (GPa) = 27.78238 36.02204 31.90221
#
# Velocity S-wave (km/s) = 3.28101 3.73600 3.51587
# Velocity P-wave (km/s) = 5.63241 6.43312 6.04604
#
# Compressibility (1/GPa) = 0.02230627
#
# Stress axis : x y z
#
# Youngs Moduli (GPa) = 181.02300 83.39054 78.70339
#
# Poissons Ratio (x) = 0.07735 0.23978
# Poissons Ratio (y) = 0.16791 -0.00129
# Poissons Ratio (z) = 0.55151 -0.00137
#
# Static dielectric constant tensor:
#      x y z
#    x 2.018330 0.000000 0.000000 
#    y 0.000000 2.204880 0.000000 
#    z 0.000000 0.000000 2.065340 
# 
# From -- ./inp_files/3321.got.cif
#   From: 2010.05.17/outbox.cif.g08.bks.cpg/sg40_2_cif.got.tgz:3321.got - 2010.06.03 18:35:42.
