data_PCOD9365196
_publ_section_title
;
Structure prediction by ZEFSAII (Michael W. Deem and Ramdas Pophale) SiO2 
 PCOD9365196
Probable space group: A M A 2
;
_chemical_formula_sum "Si O2"
_cell_formula_units_Z 32
_cell_length_a 22.673283
_cell_length_b 7.090396
_cell_length_c 7.483879
_cell_angle_alpha 90.000000
_cell_angle_beta 90.000000
_cell_angle_gamma 90.000000
_cell_volume 1203.127510
_symmetry_space_group_name_H-M "A M A 2"
_symmetry_group_IT_number 40
_symmetry_cell_setting 'orthorhombic'
loop_
_space_group_symop_operation_xyz
x,y,z
-x,-y,z
1/2-x,y,z
1/2+x,-y,z
x,1/2+y,1/2+z
-x,1/2-y,1/2+z
1/2-x,1/2+y,1/2+z
1/2+x,1/2-y,1/2+z
loop_
_atom_site_type_symbol
_atom_site_label
_atom_site_fract_x
_atom_site_fract_y
_atom_site_fract_z
Si Si1 0.436746 0.999526 0.407560
Si Si2 0.438982 0.909768 0.801534
Si Si3 0.187132 0.429229 0.328179
Si Si4 0.186828 0.992661 0.241578
O O1 0.447581 0.882326 0.588216
O O2 0.428219 0.225504 0.420442
O O3 0.374848 0.934647 0.327680
O O4 0.500000 0.000000 0.305470
O O5 0.500000 0.000000 0.862196
O O6 0.376705 0.020396 0.796351
O O7 0.250000 0.517933 0.271635
O O8 0.184972 0.222046 0.239508
O O9 0.189265 0.415689 0.541861
O O10 0.250000 0.945718 0.332327
#
# Coordination Sequence:
#
# PCOD9365196 Si02
#       4
#     8   8   8   8
#     4  10  23  42  65  93 126 164 207 255 308 367
#     4  10  23  42  65  93 126 164 207 255 308 367
#     4   9  19  37  61  89 121 159 203 251 304 362
#     4   9  19  37  61  89 121 159 203 251 304 362
#
# _framework density 26.597344
#
# number of rings (size 3 to 8) (size 9 to 14) (size 15 to 20)
#    0.000    2.500    0.000    0.000    0.000   18.000 
#    0.000    0.000    0.000   28.500    0.000    0.000 
#    0.000    0.000    0.000    0.000    0.000    0.000 
#
# Total GULP energy -89216.863253 kJ/mol
# GULP energy per Si atom -5576.053953 kJ/mol
# Density = 2.653681 g / cm^3
# Si number density = 26.597344 Si / 1000 Ang^3
#
#
#
# Elastic Constant Matrix: (Units=GPa)
#
#
# Indices 1 2 3 4 5 6 
#
# 1 329.5980 14.8720 17.3267 0.0000 0.0000 0.0000
# 2 14.8720 113.2220 6.1919 0.0000 0.0000 0.0000
# 3 17.3267 6.1919 83.8056 0.0000 0.0000 0.0000
# 4 0.0000 0.0000 0.0000 12.5865 0.0000 0.0000
# 5 0.0000 0.0000 0.0000 0.0000 35.1936 0.0000
# 6 0.0000 0.0000 0.0000 0.0000 0.0000 14.9675
#
#
#
# Elastic Compliance Matrix: (Units=1/GPa)
#
#
# Indices 1 2 3 4 5 6 
#
# 1 0.003083 -0.000372 -0.000610 0.000000 0.000000 0.000000
# 2 -0.000372 0.008913 -0.000582 0.000000 0.000000 0.000000
# 3 -0.000610 -0.000582 0.012101 0.000000 0.000000 0.000000
# 4 0.000000 0.000000 0.000000 0.079450 0.000000 0.000000
# 5 0.000000 0.000000 0.000000 0.000000 0.028414 0.000000
# 6 0.000000 0.000000 0.000000 0.000000 0.000000 0.066811
#
#
# Mechanical properties :
#
#
# Convention : Reuss Voigt Hill
#
# Bulk Modulus (GPa) = 47.68551 67.04520 57.36535
# Shear Modulus (GPa) = 23.93612 45.09853 34.51732
#
# Velocity S-wave (km/s) = 3.00316 4.12224 3.60637
# Velocity P-wave (km/s) = 5.47658 6.92238 6.24148
#
# Compressibility (1/GPa) = 0.02097073
#
# Stress axis : x y z
#
# Youngs Moduli (GPa) = 324.37747 112.19791 82.63471
#
# Poissons Ratio (x) = 0.04169 0.05040
# Poissons Ratio (y) = 0.12053 0.04807
# Poissons Ratio (z) = 0.19784 0.06526
#
# Static dielectric constant tensor:
#      x y z
#    x 2.231300 0.000000 0.000000 
#    y 0.000000 2.197240 0.000000 
#    z 0.000000 0.000000 2.061150 
# 
# From -- ./inp_files/8579.got.cif
#   From: 2010.05.17/outbox.cif.g08.bks.cpg/sg40_5_cif.got.tgz:8579.got - 2010.06.03 18:35:42.
