data_PCOD9365928
_publ_section_title
;
Structure prediction by ZEFSAII (Michael W. Deem and Ramdas Pophale) SiO2 
 PCOD9365928
Probable space group: A B A 2
;
_chemical_formula_sum "Si O2"
_cell_formula_units_Z 64
_cell_length_a 26.004781
_cell_length_b 22.077307
_cell_length_c 5.696438
_cell_angle_alpha 90.000000
_cell_angle_beta 90.000000
_cell_angle_gamma 90.000000
_cell_volume 3270.413542
_symmetry_space_group_name_H-M "A B A 2"
_symmetry_group_IT_number 41
_symmetry_cell_setting 'orthorhombic'
loop_
_space_group_symop_operation_xyz
x,y,z
-x,-y,z
1/2-x,y,1/2+z
1/2+x,-y,1/2+z
x,1/2+y,1/2+z
-x,1/2-y,1/2+z
1/2-x,1/2+y,z
1/2+x,1/2-y,z
loop_
_atom_site_type_symbol
_atom_site_label
_atom_site_fract_x
_atom_site_fract_y
_atom_site_fract_z
Si Si1 0.762704 0.228625 0.165720
Si Si2 0.547760 0.271245 0.383265
Si Si3 0.941845 0.175907 0.536961
Si Si4 0.562124 0.987852 0.476296
Si Si5 0.225734 0.133059 0.236703
Si Si6 0.128530 0.740449 0.267093
Si Si7 0.555849 0.033242 0.977901
Si Si8 0.884215 0.363276 0.588496
O O1 0.759163 0.199491 0.427215
O O2 0.735559 0.293937 0.214329
O O3 0.823024 0.238766 0.119452
O O4 0.489984 0.292334 0.409854
O O5 0.579481 0.277702 0.617779
O O6 0.552788 0.202005 0.299384
O O7 0.576695 0.315713 0.204914
O O8 0.889969 0.205035 0.434099
O O9 0.948052 0.105139 0.506783
O O10 0.581251 0.010515 0.221375
O O11 0.500000 0.000000 0.469950
O O12 0.581680 0.919049 0.501628
O O13 0.579676 0.018786 0.721931
O O14 0.251156 0.111144 0.483588
O O15 0.164589 0.119002 0.247566
O O16 0.143311 0.678167 0.393261
O O17 0.500000 0.000000 0.970840
#
# Coordination Sequence:
#
# PCOD9365928 Si02
#       8
#     8   8   8   8   8   8   8   8
#     4  10  19  36  55  85 125 152 195 239 307 384
#     4  11  22  36  55  87 126 166 196 248 311 380
#     4  11  24  37  57  86 124 167 206 250 304 371
#     4  10  23  38  58  85 113 165 212 256 289 354
#     4  10  19  34  56  89 125 150 189 251 315 383
#     4  11  23  35  59  90 127 162 191 251 317 383
#     4  10  23  41  59  78 114 163 213 251 283 339
#     4  11  23  35  62  90 124 161 205 252 321 374
#
# _framework density 19.569389000000001
#
# number of rings (size 3 to 8) (size 9 to 14) (size 15 to 20)
#    0.000    1.500    3.750    3.000    8.750    0.000 
#    0.000    0.000    0.000    0.000    0.000    5.250 
#    0.000    0.000    0.000    0.000    0.000    0.000 
#
# Total GULP energy -178184.299954 kJ/mol
# GULP energy per Si atom -5568.259374 kJ/mol
# Density = 1.952485 g / cm^3
# Si number density = 19.569389 Si / 1000 Ang^3
#
#
#
# Elastic Constant Matrix: (Units=GPa)
#
#
# Indices 1 2 3 4 5 6 
#
# 1 79.7151 4.8036 1.5152 0.0000 0.0000 0.0000
# 2 4.8036 74.2568 4.6683 0.0000 0.0000 0.0000
# 3 1.5152 4.6683 111.8029 0.0000 0.0000 0.0000
# 4 0.0000 0.0000 0.0000 9.8108 0.0000 0.0000
# 5 0.0000 0.0000 0.0000 0.0000 56.2930 0.0000
# 6 0.0000 0.0000 0.0000 0.0000 0.0000 3.3673
#
#
#
# Elastic Compliance Matrix: (Units=1/GPa)
#
#
# Indices 1 2 3 4 5 6 
#
# 1 0.012596 -0.000806 -0.000137 0.000000 0.000000 0.000000
# 2 -0.000806 0.013554 -0.000555 0.000000 0.000000 0.000000
# 3 -0.000137 -0.000555 0.008969 0.000000 0.000000 0.000000
# 4 0.000000 0.000000 0.000000 0.101929 0.000000 0.000000
# 5 0.000000 0.000000 0.000000 0.000000 0.017764 0.000000
# 6 0.000000 0.000000 0.000000 0.000000 0.000000 0.296975
#
#
# Mechanical properties :
#
#
# Convention : Reuss Voigt Hill
#
# Bulk Modulus (GPa) = 31.13080 31.97212 31.55146
# Shear Modulus (GPa) = 10.74134 30.88005 20.81069
#
# Velocity S-wave (km/s) = 2.34537 3.97669 3.26457
# Velocity P-wave (km/s) = 4.82460 6.12035 5.51069
#
# Compressibility (1/GPa) = 0.03212252
#
# Stress axis : x y z
#
# Youngs Moduli (GPa) = 79.39115 73.77993 111.49088
#
# Poissons Ratio (x) = 0.05948 0.01528
# Poissons Ratio (y) = 0.06400 0.06188
# Poissons Ratio (z) = 0.01088 0.04095
#
# Static dielectric constant tensor:
#      x y z
#    x 1.679170 0.000000 0.000000 
#    y 0.000000 1.656720 0.000000 
#    z 0.000000 0.000000 1.842180 
# 
# From -- ./inp_files/1231.got.cif
#   From: 2010.05.17/outbox.cif.g08.bks.cpg/sg41_1_cif.got.tgz:1231.got - 2010.06.03 18:54:24.
