data_PCOD9365515
_publ_section_title
;
Structure prediction by ZEFSAII (Michael W. Deem and Ramdas Pophale) SiO2 
 PCOD9365515
Probable space group: A M A 2
;
_chemical_formula_sum "Si O2"
_cell_formula_units_Z 32
_cell_length_a 24.929482
_cell_length_b 7.138409
_cell_length_c 7.329263
_cell_angle_alpha 90.000000
_cell_angle_beta 90.000000
_cell_angle_gamma 90.000000
_cell_volume 1304.292473
_symmetry_space_group_name_H-M "A M A 2"
_symmetry_group_IT_number 40
_symmetry_cell_setting 'orthorhombic'
loop_
_space_group_symop_operation_xyz
x,y,z
-x,-y,z
1/2-x,y,z
1/2+x,-y,z
x,1/2+y,1/2+z
-x,1/2-y,1/2+z
1/2-x,1/2+y,1/2+z
1/2+x,1/2-y,1/2+z
loop_
_atom_site_type_symbol
_atom_site_label
_atom_site_fract_x
_atom_site_fract_y
_atom_site_fract_z
Si Si1 0.861587 0.137860 0.334950
Si Si2 0.551273 0.883206 0.397820
Si Si3 0.419392 0.012524 0.815753
Si Si4 0.689443 0.480947 0.184766
O O1 0.907251 0.286693 0.406869
O O2 0.828155 0.261548 0.192248
O O3 0.898241 0.962977 0.282906
O O4 0.820732 0.070132 0.488410
O O5 0.545305 0.659538 0.383018
O O6 0.500000 0.000000 0.337414
O O7 0.563641 0.933202 0.609282
O O8 0.357934 0.934550 0.808545
O O9 0.750000 0.506172 0.245879
#
# Coordination Sequence:
#
# PCOD9365515 Si02
#       4
#     8   8   8   8
#     4   9  21  40  64  95 136 164 227 273 319 402
#     4  11  24  43  68  96 134 179 219 274 339 388
#     4   9  24  42  65  96 134 167 224 276 316 406
#     4   9  18  40  69  95 133 177 214 273 338 390
#
# _framework density 24.534374
#
# number of rings (size 3 to 8) (size 9 to 14) (size 15 to 20)
#    1.500    1.000    0.000    0.750    3.500    4.000 
#    0.000    6.250    0.000    0.000    0.000    0.000 
#    0.000    0.000    0.000    0.000    0.000    0.000 
#
# Total GULP energy -89141.003220 kJ/mol
# GULP energy per Si atom -5571.312701 kJ/mol
# Density = 2.447853 g / cm^3
# Si number density = 24.534374 Si / 1000 Ang^3
#
#
#
# Elastic Constant Matrix: (Units=GPa)
#
#
# Indices 1 2 3 4 5 6 
#
# 1 51.1644 10.7588 -22.6220 0.0000 0.0000 0.0000
# 2 10.7588 161.1731 45.4922 0.0000 0.0000 0.0000
# 3 -22.6220 45.4922 61.4341 0.0000 0.0000 0.0000
# 4 0.0000 0.0000 0.0000 46.4400 0.0000 0.0000
# 5 0.0000 0.0000 0.0000 0.0000 12.5171 0.0000
# 6 0.0000 0.0000 0.0000 0.0000 0.0000 21.5309
#
#
#
# Elastic Compliance Matrix: (Units=1/GPa)
#
#
# Indices 1 2 3 4 5 6 
#
# 1 0.027102 -0.005848 0.014311 0.000000 0.000000 0.000000
# 2 -0.005848 0.009106 -0.008897 0.000000 0.000000 0.000000
# 3 0.014311 -0.008897 0.028135 0.000000 0.000000 0.000000
# 4 0.000000 0.000000 0.000000 0.021533 0.000000 0.000000
# 5 0.000000 0.000000 0.000000 0.000000 0.079891 0.000000
# 6 0.000000 0.000000 0.000000 0.000000 0.000000 0.046445
#
#
# Mechanical properties :
#
#
# Convention : Reuss Voigt Hill
#
# Bulk Modulus (GPa) = 15.75440 37.89219 26.82330
# Shear Modulus (GPa) = 21.34571 32.10711 26.72641
#
# Velocity S-wave (km/s) = 2.95283 3.62146 3.30410
# Velocity P-wave (km/s) = 4.24981 5.74149 5.05102
#
# Compressibility (1/GPa) = 0.06347433
#
# Stress axis : x y z
#
# Youngs Moduli (GPa) = 36.89768 109.81715 35.54264
#
# Poissons Ratio (x) = 0.64226 -0.50864
# Poissons Ratio (y) = 0.21579 0.31621
# Poissons Ratio (z) = -0.52803 0.97700
#
# Static dielectric constant tensor:
#      x y z
#    x 1.985040 0.000000 0.000000 
#    y 0.000000 1.980050 0.000000 
#    z 0.000000 0.000000 1.995140 
# 
# From -- ./inp_files/9251.got.cif
#   From: 2010.05.17/outbox.cif.g08.bks.cpg/sg40_5_cif.got.tgz:9251.got - 2010.06.03 18:35:42.
