data_PCOD9365877
_publ_section_title
;
Structure prediction by ZEFSAII (Michael W. Deem and Ramdas Pophale) SiO2 
 PCOD9365877
Probable space group: A B A 2
;
_chemical_formula_sum "Si O2"
_cell_formula_units_Z 56
_cell_length_a 27.734027
_cell_length_b 5.579751
_cell_length_c 13.565247
_cell_angle_alpha 90.000000
_cell_angle_beta 90.000000
_cell_angle_gamma 90.000000
_cell_volume 2099.207932
_symmetry_space_group_name_H-M "A B A 2"
_symmetry_group_IT_number 41
_symmetry_cell_setting 'orthorhombic'
loop_
_space_group_symop_operation_xyz
x,y,z
-x,-y,z
1/2-x,y,1/2+z
1/2+x,-y,1/2+z
x,1/2+y,1/2+z
-x,1/2-y,1/2+z
1/2-x,1/2+y,z
1/2+x,1/2-y,z
loop_
_atom_site_type_symbol
_atom_site_label
_atom_site_fract_x
_atom_site_fract_y
_atom_site_fract_z
Si Si1 0.720888 0.249999 0.988520
Si Si2 0.384386 0.750000 0.669153
Si Si3 0.405900 0.750000 0.897717
Si Si4 0.115764 0.750000 0.868234
Si Si5 0.496261 0.750000 0.315762
Si Si6 0.721863 0.750000 0.253348
Si Si7 0.866579 0.250000 0.641280
O O1 0.750000 0.499998 0.002386
O O2 0.709876 0.250000 0.870449
O O3 0.679773 0.249999 0.072271
O O4 0.405512 0.750001 0.778278
O O5 0.326427 0.750000 0.687503
O O6 0.396097 0.494014 0.623643
O O7 0.396096 0.005985 0.623643
O O8 0.377808 0.503671 0.921419
O O9 0.464370 0.750000 0.906179
O O10 0.377808 0.996329 0.921419
O O11 0.058535 0.750000 0.851714
O O12 0.141974 0.750000 0.761307
O O13 0.500000 0.500000 0.259632
O O14 0.500000 0.000000 0.259632
O O15 0.750000 0.500000 0.235720
#
# Coordination Sequence:
#
# PCOD9365877 Si02
#       7
#     8   8   8   8   8   8   8
#     4  10  21  35  48  63  87 120 153 184 224 271
#     4  10  19  30  46  68  91 112 146 189 225 259
#     4   8  14  23  36  57  84 108 133 169 212 253
#     4   8  14  23  36  57  84 108 133 169 212 253
#     4   8  12  20  34  52  80 110 132 158 206 256
#     4  10  21  35  48  63  87 120 153 184 224 271
#     4  10  19  30  46  68  91 112 146 189 225 259
#
# _framework density 26.676727
#
# number of rings (size 3 to 8) (size 9 to 14) (size 15 to 20)
#    0.000    2.857    0.000    1.714    0.000    3.429 
#    0.000    0.000    0.000    0.000    0.000    0.000 
#    0.000   57.143    0.000    0.000    0.000   59.429 
#
# Total GULP energy -156297.069410 kJ/mol
# GULP energy per Si atom -5582.038193 kJ/mol
# Density = 2.661601 g / cm^3
# Si number density = 26.676727 Si / 1000 Ang^3
#
#
#
# Elastic Constant Matrix: (Units=GPa)
#
#
# Indices 1 2 3 4 5 6 
#
# 1 76.5524 31.3977 -5.9847 0.0000 0.0000 0.0000
# 2 31.3977 303.6119 9.9438 0.0000 0.0000 0.0000
# 3 -5.9847 9.9438 127.4586 0.0000 0.0000 0.0000
# 4 0.0000 0.0000 0.0000 -23.3892 0.0000 0.0000
# 5 0.0000 0.0000 0.0000 0.0000 15.6632 0.0000
# 6 0.0000 0.0000 0.0000 0.0000 0.0000 42.6096
#
#
#
# Elastic Compliance Matrix: (Units=1/GPa)
#
#
# Indices 1 2 3 4 5 6 
#
# 1 0.013714 -0.001443 0.000757 0.000000 0.000000 0.000000
# 2 -0.001443 0.003454 -0.000337 0.000000 0.000000 0.000000
# 3 0.000757 -0.000337 0.007908 0.000000 0.000000 0.000000
# 4 0.000000 0.000000 0.000000 -0.042755 0.000000 0.000000
# 5 0.000000 0.000000 0.000000 0.000000 0.063844 0.000000
# 6 0.000000 0.000000 0.000000 0.000000 0.000000 0.023469
#
#
# Mechanical properties :
#
#
# Convention : Reuss Voigt Hill
#
# Bulk Modulus (GPa) = 43.42543 64.25962 53.84252
# Shear Modulus (GPa) = 63.00661 38.46113 50.73387
#
# Velocity S-wave (km/s) = 4.86517 3.80116 4.36570
# Velocity P-wave (km/s) = 6.91907 6.58829 6.75571
#
# Compressibility (1/GPa) = 0.02302798
#
# Stress axis : x y z
#
# Youngs Moduli (GPa) = 72.91857 289.52374 126.46201
#
# Poissons Ratio (x) = 0.41778 -0.09567
# Poissons Ratio (y) = 0.10522 0.04265
# Poissons Ratio (z) = -0.05516 0.09763
#
# Static dielectric constant tensor:
#      x y z
#    x 2.152440 0.000000 0.000000 
#    y 0.000000 2.287170 0.000000 
#    z 0.000000 0.000000 2.012770 
# 
# From -- ./inp_files/1363.got.cif
#   From: 2010.05.17/outbox.cif.g08.bks.cpg/sg41_1_cif.got.tgz:1363.got - 2010.06.03 18:54:24.
