data_PCOD9365130
_publ_section_title
;
Structure prediction by ZEFSAII (Michael W. Deem and Ramdas Pophale) SiO2 
 PCOD9365130
Probable space group: A M A 2
;
_chemical_formula_sum "Si O2"
_cell_formula_units_Z 48
_cell_length_a 13.097027
_cell_length_b 29.103929
_cell_length_c 5.421874
_cell_angle_alpha 90.000000
_cell_angle_beta 90.000000
_cell_angle_gamma 90.000000
_cell_volume 2066.682518
_symmetry_space_group_name_H-M "A M A 2"
_symmetry_group_IT_number 40
_symmetry_cell_setting 'orthorhombic'
loop_
_space_group_symop_operation_xyz
x,y,z
-x,-y,z
1/2-x,y,z
1/2+x,-y,z
x,1/2+y,1/2+z
-x,1/2-y,1/2+z
1/2-x,1/2+y,1/2+z
1/2+x,1/2-y,1/2+z
loop_
_atom_site_type_symbol
_atom_site_label
_atom_site_fract_x
_atom_site_fract_y
_atom_site_fract_z
Si Si1 0.045717 0.045970 0.012280
Si Si2 0.916955 0.602180 0.156180
Si Si3 0.562195 0.189823 0.922190
Si Si4 0.750000 0.555707 0.843694
Si Si5 0.931411 0.362991 0.806922
Si Si6 0.750000 0.498507 0.336221
Si Si7 0.640696 0.784400 0.608818
O O1 0.087294 0.090894 0.154058
O O2 0.145450 0.029482 0.867292
O O3 0.000000 0.000000 0.148450
O O4 0.948661 0.063387 0.851312
O O5 0.878451 0.649437 0.277149
O O6 0.848632 0.585195 0.929209
O O7 0.027186 0.616279 0.059011
O O8 0.459884 0.206330 0.775074
O O9 0.520423 0.164523 0.165213
O O10 0.625540 0.234491 0.989535
O O11 0.750000 0.517415 0.058368
O O12 0.750000 0.535339 0.568636
O O13 0.857757 0.322883 0.894338
O O14 0.750000 0.786645 0.743399
#
# Coordination Sequence:
#
# PCOD9365130 Si02
#       7
#     8   8   8   4   8   4   8
#     4  11  23  44  69  99 141 188 233 293 363 425
#     4  10  24  43  70  98 144 185 237 300 362 427
#     4  10  22  45  64 100 138 177 240 295 369 428
#     4  12  26  48  72 113 142 188 255 304 364 440
#     4  10  23  44  67  95 139 183 229 295 352 440
#     4  12  28  44  74 105 144 194 243 304 364 444
#     4  11  23  42  69  97 138 184 233 297 362 443
#
# _framework density 23.225629999999999
#
# number of rings (size 3 to 8) (size 9 to 14) (size 15 to 20)
#    0.000    1.333    3.333    1.000    7.000    1.333 
#   13.500    0.000    0.000    0.000    0.000    0.000 
#    0.000    0.000    0.000    0.000    0.000    0.000 
#
# Total GULP energy -133775.806307 kJ/mol
# GULP energy per Si atom -5573.991929 kJ/mol
# Density = 2.317277 g / cm^3
# Si number density = 23.225630 Si / 1000 Ang^3
#
#
#
# Elastic Constant Matrix: (Units=GPa)
#
#
# Indices 1 2 3 4 5 6 
#
# 1 81.5080 35.5862 8.0405 0.0000 0.0000 0.0000
# 2 35.5862 159.3413 26.5404 0.0000 0.0000 0.0000
# 3 8.0405 26.5404 48.8481 0.0000 0.0000 0.0000
# 4 0.0000 0.0000 0.0000 27.8226 0.0000 0.0000
# 5 0.0000 0.0000 0.0000 0.0000 16.3558 0.0000
# 6 0.0000 0.0000 0.0000 0.0000 0.0000 -23.2669
#
#
#
# Elastic Compliance Matrix: (Units=1/GPa)
#
#
# Indices 1 2 3 4 5 6 
#
# 1 0.013613 -0.002932 -0.000647 0.000000 0.000000 0.000000
# 2 -0.002932 0.007532 -0.003610 0.000000 0.000000 0.000000
# 3 -0.000647 -0.003610 0.022539 0.000000 0.000000 0.000000
# 4 0.000000 0.000000 0.000000 0.035942 0.000000 0.000000
# 5 0.000000 0.000000 0.000000 0.000000 0.061141 0.000000
# 6 0.000000 0.000000 0.000000 0.000000 0.000000 -0.042979
#
#
# Mechanical properties :
#
#
# Convention : Reuss Voigt Hill
#
# Bulk Modulus (GPa) = 34.12354 47.78129 40.95241
# Shear Modulus (GPa) = 41.00557 18.81764 29.91161
#
# Velocity S-wave (km/s) = 4.20638 2.84951 3.59258
# Velocity P-wave (km/s) = 6.18996 5.60746 5.90589
#
# Compressibility (1/GPa) = 0.02930529
#
# Stress axis : x y z
#
# Youngs Moduli (GPa) = 73.45992 132.76753 44.36669
#
# Poissons Ratio (x) = 0.38932 0.02873
# Poissons Ratio (y) = 0.21541 0.16015
# Poissons Ratio (z) = 0.04756 0.47924
#
# Static dielectric constant tensor:
#      x y z
#    x 1.882090 0.000000 0.000000 
#    y 0.000000 1.968670 0.000000 
#    z 0.000000 0.000000 1.903630 
# 
# From -- ./inp_files/1364.got.cif
#   From: 2010.05.17/outbox.cif.g08.bks.cpg/sg40_1_cif.got.tgz:1364.got - 2010.06.03 18:35:42.
