data_PCOD9365626
_publ_section_title
;
Structure prediction by ZEFSAII (Michael W. Deem and Ramdas Pophale) SiO2 
 PCOD9365626
Probable space group: A M A 2
;
_chemical_formula_sum "Si O2"
_cell_formula_units_Z 32
_cell_length_a 9.000000
_cell_length_b 15.000000
_cell_length_c 30.000000
_cell_angle_alpha 90.000000
_cell_angle_beta 90.000000
_cell_angle_gamma 90.000000
_cell_volume 4050.000000
_symmetry_space_group_name_H-M "A M A 2"
_symmetry_group_IT_number 40
_symmetry_cell_setting 'orthorhombic'
loop_
_space_group_symop_operation_xyz
x,y,z
-x,-y,z
1/2-x,y,z
1/2+x,-y,z
x,1/2+y,1/2+z
-x,1/2-y,1/2+z
1/2-x,1/2+y,1/2+z
1/2+x,1/2-y,1/2+z
loop_
_atom_site_type_symbol
_atom_site_label
_atom_site_fract_x
_atom_site_fract_y
_atom_site_fract_z
Si Si1 0.429619 0.597506 0.117190
Si Si2 0.428480 0.096386 0.514279
Si Si3 0.429681 0.901214 0.350049
Si Si4 0.929257 0.097698 0.245293
Si Si5 0.430569 0.780664 0.160685
Si Si6 0.929210 0.597617 0.473726
Si Si7 0.930239 0.282298 0.929058
Si Si8 0.929212 0.596752 0.576705
O O1 0.500000 0.500000 0.126063
O O2 0.250000 0.589733 0.119504
O O3 0.467251 0.622828 0.065437
O O4 0.476418 0.678208 0.150160
O O5 0.250000 0.088744 0.513214
O O6 0.469884 0.162736 0.474213
O O7 0.500000 0.000000 0.506116
O O8 0.250000 0.905593 0.354600
O O9 0.463488 0.878723 0.297503
O O10 0.495309 0.830773 0.386196
O O11 0.500000 0.000000 0.358285
O O12 0.750000 0.089732 0.242472
O O13 0.976252 0.169076 0.206779
O O14 0.000000 0.000000 0.236544
O O15 0.250000 0.779660 0.161504
O O16 0.475244 0.837895 0.116852
O O17 0.750000 0.589078 0.471857
O O18 0.970902 0.679043 0.440547
O O19 0.967306 0.623068 0.525448
O O20 0.000000 0.500000 0.464702
O O21 0.750000 0.286100 0.923851
O O22 0.750000 0.590713 0.578384
O O23 0.000000 0.500000 0.584316
#
# Coordination Sequence:
#
# PCOD9365626 Si02
#       8
#     8   8   8   8   8   8   8   8
#     4   9  17  30  46  64  89 120 152 185 220 260
#     4   9  17  28  43  65  92 120 149 182 220 264
#     4  10  20  33  49  70  95 120 148 184 227 273
#     4   9  18  32  49  70  94 119 146 179 221 268
#     4   9  16  28  48  68  88 119 153 181 218 268
#     4   9  18  31  46  66  93 123 154 189 226 265
#     4  10  19  31  48  68  91 121 156 190 226 269
#     4   9  16  27  44  67  94 122 150 180 218 265
#
# _framework density 7.9012349999999998
#
# number of rings (size 3 to 8) (size 9 to 14) (size 15 to 20)
#    0.000    2.750    0.000    1.875    0.000    5.500 
#    0.000    1.250    0.000    6.750    0.000    3.500 
#    0.000    0.000    0.000    0.000    0.000    0.000 
#
# Total GULP energy -178248.357426 kJ/mol
# GULP energy per Si atom -5570.261170 kJ/mol
# Density = 0.788325 g / cm^3
# Si number density = 7.901235 Si / 1000 Ang^3
#
#
#
# Elastic Constant Matrix: (Units=GPa)
#
#
# Indices 1 2 3 4 5 6 
#
# 1 22.3486 28.4125 29.3325 0.0000 0.0000 0.0000
# 2 28.4125 132.6404 90.4441 0.0000 0.0000 0.0000
# 3 29.3325 90.4441 123.6933 0.0000 0.0000 0.0000
# 4 0.0000 0.0000 0.0000 36.3189 0.0000 0.0000
# 5 0.0000 0.0000 0.0000 0.0000 19.7252 0.0000
# 6 0.0000 0.0000 0.0000 0.0000 0.0000 27.9401
#
#
#
# Elastic Compliance Matrix: (Units=1/GPa)
#
#
# Indices 1 2 3 4 5 6 
#
# 1 0.068197 -0.007142 -0.010950 0.000000 0.000000 0.000000
# 2 -0.007142 0.015784 -0.009847 0.000000 0.000000 0.000000
# 3 -0.010950 -0.009847 0.017882 0.000000 0.000000 0.000000
# 4 0.000000 0.000000 0.000000 0.027534 0.000000 0.000000
# 5 0.000000 0.000000 0.000000 0.000000 0.050697 0.000000
# 6 0.000000 0.000000 0.000000 0.000000 0.000000 0.035791
#
#
# Mechanical properties :
#
#
# Convention : Reuss Voigt Hill
#
# Bulk Modulus (GPa) = 21.74672 63.89560 42.82116
# Shear Modulus (GPa) = 17.41611 25.49638 21.45625
#
# Velocity S-wave (km/s) = 3.32341 4.02113 3.68880
# Velocity P-wave (km/s) = 5.34025 7.87915 6.73050
#
# Compressibility (1/GPa) = 0.04598394
#
# Stress axis : x y z
#
# Youngs Moduli (GPa) = 14.66334 63.35667 55.92330
#
# Poissons Ratio (x) = 0.45247 0.61238
# Poissons Ratio (y) = 0.10472 0.55070
# Poissons Ratio (z) = 0.16057 0.62390
#
# Static dielectric constant tensor:
#      x y z
#    x 1.529480 0.000000 0.000000 
#    y 0.000000 1.526390 0.000000 
#    z 0.000000 0.000000 1.539470 
# 
# From -- ./inp_files/26446.got.cif
#   From: 2010.05.17/outbox.ucp.g08.bks.cvg/sg40_14_cif.got.tgz:26446.got - 2010.06.11 16:26:39.
