data_PCOD9365035
_publ_section_title
;
Structure prediction by ZEFSAII (Michael W. Deem and Ramdas Pophale) SiO2 
 PCOD9365035
Probable space group: A M A 2
;
_chemical_formula_sum "Si O2"
_cell_formula_units_Z 48
_cell_length_a 25.920066
_cell_length_b 10.178106
_cell_length_c 9.235652
_cell_angle_alpha 90.000000
_cell_angle_beta 90.000000
_cell_angle_gamma 90.000000
_cell_volume 2436.523659
_symmetry_space_group_name_H-M "A M A 2"
_symmetry_group_IT_number 40
_symmetry_cell_setting 'orthorhombic'
loop_
_space_group_symop_operation_xyz
x,y,z
-x,-y,z
1/2-x,y,z
1/2+x,-y,z
x,1/2+y,1/2+z
-x,1/2-y,1/2+z
1/2-x,1/2+y,1/2+z
1/2+x,1/2-y,1/2+z
loop_
_atom_site_type_symbol
_atom_site_label
_atom_site_fract_x
_atom_site_fract_y
_atom_site_fract_z
Si Si1 0.014977 0.652243 0.834020
Si Si2 0.808873 0.507360 0.893610
Si Si3 0.190999 0.703464 0.435800
Si Si4 0.873771 0.295492 0.723348
Si Si5 0.038616 0.122491 0.671740
Si Si6 0.651448 0.500792 0.217219
O O1 0.065459 0.685774 0.739815
O O2 0.000000 0.500000 0.811718
O O3 0.972672 0.756417 0.779319
O O4 0.028073 0.665312 0.004976
O O5 0.750000 0.471703 0.860348
O O6 0.846891 0.406655 0.818760
O O7 0.817734 0.659327 0.851508
O O8 0.818841 0.506514 0.065199
O O9 0.250000 0.709163 0.493050
O O10 0.149276 0.692446 0.562714
O O11 0.183697 0.582302 0.330436
O O12 0.859101 0.148299 0.771050
O O13 0.096473 0.069100 0.689201
O O14 0.000000 0.000000 0.702287
#
# Coordination Sequence:
#
# PCOD9365035 Si02
#       6
#     8   8   8   8   8   8
#     4  11  26  41  66  93 126 164 211 254 314 371
#     4  10  22  42  63  88 126 164 207 258 312 368
#     4  10  24  41  64  94 127 165 207 259 312 369
#     4  11  23  42  64  95 125 166 206 258 313 371
#     4  11  24  43  62  93 127 161 205 262 307 372
#     4  11  23  40  67  91 125 163 210 254 314 371
#
# _framework density 19.700198
#
# number of rings (size 3 to 8) (size 9 to 14) (size 15 to 20)
#    0.000    1.333    3.333    1.000    4.667    5.333 
#    0.000    0.000    0.000    0.000    0.000    0.000 
#    0.000    0.000    0.000    0.000    0.000    0.000 
#
# Total GULP energy -134128.226805 kJ/mol
# GULP energy per Si atom -5588.676117 kJ/mol
# Density = 1.965536 g / cm^3
# Si number density = 19.700198 Si / 1000 Ang^3
#
#
#
# Elastic Constant Matrix: (Units=GPa)
#
#
# Indices 1 2 3 4 5 6 
#
# 1 42.8526 7.0238 -6.5643 0.0000 0.0000 0.0000
# 2 7.0238 100.7500 25.6138 0.0000 0.0000 0.0000
# 3 -6.5643 25.6138 27.1135 0.0000 0.0000 0.0000
# 4 0.0000 0.0000 0.0000 24.9232 0.0000 0.0000
# 5 0.0000 0.0000 0.0000 0.0000 48.2849 0.0000
# 6 0.0000 0.0000 0.0000 0.0000 0.0000 55.4061
#
#
#
# Elastic Compliance Matrix: (Units=1/GPa)
#
#
# Indices 1 2 3 4 5 6 
#
# 1 0.025655 -0.004432 0.010398 0.000000 0.000000 0.000000
# 2 -0.004432 0.013829 -0.014137 0.000000 0.000000 0.000000
# 3 0.010398 -0.014137 0.052754 0.000000 0.000000 0.000000
# 4 0.000000 0.000000 0.000000 0.040123 0.000000 0.000000
# 5 0.000000 0.000000 0.000000 0.000000 0.020710 0.000000
# 6 0.000000 0.000000 0.000000 0.000000 0.000000 0.018049
#
#
# Mechanical properties :
#
#
# Convention : Reuss Voigt Hill
#
# Bulk Modulus (GPa) = 13.17582 24.76252 18.96917
# Shear Modulus (GPa) = 23.50065 35.36569 29.43317
#
# Velocity S-wave (km/s) = 3.45761 4.24157 3.86949
# Velocity P-wave (km/s) = 4.75844 6.04854 5.44186
#
# Compressibility (1/GPa) = 0.07589662
#
# Stress axis : x y z
#
# Youngs Moduli (GPa) = 38.97862 72.31419 18.95584
#
# Poissons Ratio (x) = 0.32050 -0.19711
# Poissons Ratio (y) = 0.17276 0.26797
# Poissons Ratio (z) = -0.40531 1.02228
#
# Static dielectric constant tensor:
#      x y z
#    x 1.474590 0.000000 0.000000 
#    y 0.000000 1.681810 0.000000 
#    z 0.000000 0.000000 1.666520 
# 
# From -- ./inp_files/9300.got.cif
#   From: 2010.05.17/outbox.cif.g08.bks.cpg/sg40_5_cif.got.tgz:9300.got - 2010.06.03 18:35:42.
