data_PCOD9365202
_publ_section_title
;
Structure prediction by ZEFSAII (Michael W. Deem and Ramdas Pophale) SiO2 
 PCOD9365202
Probable space group: A M A 2
;
_chemical_formula_sum "Si O2"
_cell_formula_units_Z 56
_cell_length_a 23.169220
_cell_length_b 7.692252
_cell_length_c 14.665511
_cell_angle_alpha 90.000000
_cell_angle_beta 90.000000
_cell_angle_gamma 90.000000
_cell_volume 2613.738390
_symmetry_space_group_name_H-M "A M A 2"
_symmetry_group_IT_number 40
_symmetry_cell_setting 'orthorhombic'
loop_
_space_group_symop_operation_xyz
x,y,z
-x,-y,z
1/2-x,y,z
1/2+x,-y,z
x,1/2+y,1/2+z
-x,1/2-y,1/2+z
1/2-x,1/2+y,1/2+z
1/2+x,1/2-y,1/2+z
loop_
_atom_site_type_symbol
_atom_site_label
_atom_site_fract_x
_atom_site_fract_y
_atom_site_fract_z
Si Si1 0.007801 0.799809 0.081520
Si Si2 0.181950 0.830576 0.309629
Si Si3 0.357815 0.226021 0.294032
Si Si4 0.682562 0.468080 0.161080
Si Si5 0.384274 0.662357 0.983816
Si Si6 0.006508 0.710129 0.777042
Si Si7 0.078185 0.301373 0.932351
O O1 0.066028 0.780502 0.024701
O O2 0.014819 0.715304 0.180393
O O3 0.000000 0.000000 0.098232
O O4 0.950014 0.742648 0.028975
O O5 0.250000 0.835139 0.331658
O O6 0.172013 0.696307 0.227638
O O7 0.142584 0.766235 0.394922
O O8 0.161811 0.024941 0.279532
O O9 0.331310 0.360401 0.221557
O O10 0.346720 0.250618 0.403543
O O11 0.426361 0.250681 0.284156
O O12 0.750000 0.473990 0.138609
O O13 0.649310 0.430722 0.066523
O O14 0.420357 0.510166 0.934152
O O15 0.000000 0.500000 0.778339
O O16 0.966145 0.774409 0.858447
#
# Coordination Sequence:
#
# PCOD9365202 Si02
#       7
#     8   8   8   8   8   8   8
#     4  11  24  35  62  99 132 173 222 279 352 423
#     4  10  23  42  68  93 131 182 225 286 346 409
#     4  11  23  43  72  96 136 181 229 284 357 419
#     4  11  26  46  68 101 137 181 241 292 344 421
#     4  11  23  42  65  98 135 177 230 291 353 414
#     4  11  19  38  62  91 130 178 212 277 347 411
#     4  11  21  41  64  89 136 169 224 276 342 423
#
# _framework density 21.425249999999998
#
# number of rings (size 3 to 8) (size 9 to 14) (size 15 to 20)
#    0.000    1.143    4.286    2.571    4.000    2.857 
#    0.000    1.429    0.000    1.714    0.000    0.000 
#    0.000    0.000    0.000    0.000    0.000    0.000 
#
# Total GULP energy -156178.095144 kJ/mol
# GULP energy per Si atom -5577.789112 kJ/mol
# Density = 2.137648 g / cm^3
# Si number density = 21.425250 Si / 1000 Ang^3
#
#
#
# Elastic Constant Matrix: (Units=GPa)
#
#
# Indices 1 2 3 4 5 6 
#
# 1 92.3897 18.9167 33.1278 0.0000 0.0000 0.0000
# 2 18.9167 55.5149 21.0461 0.0000 0.0000 0.0000
# 3 33.1278 21.0461 118.2035 0.0000 0.0000 0.0000
# 4 0.0000 0.0000 0.0000 -67.4524 0.0000 0.0000
# 5 0.0000 0.0000 0.0000 0.0000 18.4525 0.0000
# 6 0.0000 0.0000 0.0000 0.0000 0.0000 29.2126
#
#
#
# Elastic Compliance Matrix: (Units=1/GPa)
#
#
# Indices 1 2 3 4 5 6 
#
# 1 0.012526 -0.003150 -0.002950 0.000000 0.000000 0.000000
# 2 -0.003150 0.020109 -0.002698 0.000000 0.000000 0.000000
# 3 -0.002950 -0.002698 0.009767 0.000000 0.000000 0.000000
# 4 0.000000 0.000000 0.000000 -0.014825 0.000000 0.000000
# 5 0.000000 0.000000 0.000000 0.000000 0.054193 0.000000
# 6 0.000000 0.000000 0.000000 0.000000 0.000000 0.034232
#
#
# Mechanical properties :
#
#
# Convention : Reuss Voigt Hill
#
# Bulk Modulus (GPa) = 40.31005 45.80991 43.05998
# Shear Modulus (GPa) = 35.24440 8.91039 22.07739
#
# Velocity S-wave (km/s) = 4.06025 2.04153 3.21353
# Velocity P-wave (km/s) = 6.39030 5.19469 5.82326
#
# Compressibility (1/GPa) = 0.02480771
#
# Stress axis : x y z
#
# Youngs Moduli (GPa) = 79.83152 49.72841 102.38563
#
# Poissons Ratio (x) = 0.15665 0.30202
# Poissons Ratio (y) = 0.25147 0.27620
# Poissons Ratio (z) = 0.23549 0.13415
#
# Static dielectric constant tensor:
#      x y z
#    x 1.847470 0.000000 0.000000 
#    y 0.000000 2.334320 0.000000 
#    z 0.000000 0.000000 1.908560 
# 
# From -- ./inp_files/18241.got.cif
#   From: 2010.05.17/outbox.cif.g08.bks.cpg/sg40_10_cif.got.tgz:18241.got - 2010.06.03 18:35:42.
