data_PCOD9365660
_publ_section_title
;
Structure prediction by ZEFSAII (Michael W. Deem and Ramdas Pophale) SiO2 
 PCOD9365660
Probable space group: A M A 2
;
_chemical_formula_sum "Si O2"
_cell_formula_units_Z 24
_cell_length_a 9.000000
_cell_length_b 9.000000
_cell_length_c 30.000000
_cell_angle_alpha 90.000000
_cell_angle_beta 90.000000
_cell_angle_gamma 90.000000
_cell_volume 2430.000000
_symmetry_space_group_name_H-M "A M A 2"
_symmetry_group_IT_number 40
_symmetry_cell_setting 'orthorhombic'
loop_
_space_group_symop_operation_xyz
x,y,z
-x,-y,z
1/2-x,y,z
1/2+x,-y,z
x,1/2+y,1/2+z
-x,1/2-y,1/2+z
1/2-x,1/2+y,1/2+z
1/2+x,1/2-y,1/2+z
loop_
_atom_site_type_symbol
_atom_site_label
_atom_site_fract_x
_atom_site_fract_y
_atom_site_fract_z
Si Si1 0.570730 0.160111 0.781070
Si Si2 0.420346 0.846303 0.613816
Si Si3 0.576682 0.158611 0.461286
Si Si4 0.081507 0.146368 0.200511
Si Si5 0.573554 0.158589 0.037795
Si Si6 0.423685 0.153873 0.873756
O O1 0.750000 0.150434 0.780012
O O2 0.517666 0.276662 0.744350
O O3 0.511531 0.201054 0.829729
O O4 0.500000 0.000000 0.770892
O O5 0.250000 0.863143 0.598248
O O6 0.418716 0.760042 0.660129
O O7 0.515797 0.760009 0.577645
O O8 0.500000 0.000000 0.621337
O O9 0.750000 0.150509 0.474389
O O10 0.489255 0.270588 0.492846
O O11 0.568605 0.223407 0.411680
O O12 0.500000 0.000000 0.464744
O O13 0.250000 0.105314 0.211229
O O14 0.000000 0.000000 0.186078
O O15 0.750000 0.148215 0.036952
O O16 0.500000 0.000000 0.044104
O O17 0.250000 0.124838 0.863329
O O18 0.500000 0.000000 0.889135
#
# Coordination Sequence:
#
# PCOD9365660 Si02
#       6
#     8   8   8   8   8   8
#     4  10  20  36  58  85 115 150 193 239 289 344
#     4  11  23  41  63  89 120 155 196 240 291 346
#     4  11  24  41  61  87 119 156 197 241 292 347
#     4  10  23  39  58  85 117 154 195 239 288 344
#     4  12  25  42  64  90 120 154 194 240 291 347
#     4  10  21  37  59  86 115 151 194 239 290 346
#
# _framework density 9.8765429999999999
#
# number of rings (size 3 to 8) (size 9 to 14) (size 15 to 20)
#    0.000    1.333    0.000    6.500    0.000    8.667 
#    0.000    3.333    0.000    0.000    0.000    0.000 
#    0.000    0.000    0.000    0.000    0.000    0.000 
#
# Total GULP energy -134089.458172 kJ/mol
# GULP energy per Si atom -5587.060757 kJ/mol
# Density = 0.985406 g / cm^3
# Si number density = 9.876543 Si / 1000 Ang^3
#
#
#
# Elastic Constant Matrix: (Units=GPa)
#
#
# Indices 1 2 3 4 5 6 
#
# 1 138.2557 36.4819 19.5212 0.0000 0.0000 0.0000
# 2 36.4819 13.4799 29.7095 0.0000 0.0000 0.0000
# 3 19.5212 29.7095 1.3878 0.0000 0.0000 0.0000
# 4 0.0000 0.0000 0.0000 11.5352 0.0000 0.0000
# 5 0.0000 0.0000 0.0000 0.0000 40.2790 0.0000
# 6 0.0000 0.0000 0.0000 0.0000 0.0000 -14.5131
#
#
#
# Elastic Compliance Matrix: (Units=1/GPa)
#
#
# Indices 1 2 3 4 5 6 
#
# 1 0.010271 -0.006293 -0.009757 0.000000 0.000000 0.000000
# 2 -0.006293 0.002249 0.040366 0.000000 0.000000 0.000000
# 3 -0.009757 0.040366 -0.006334 0.000000 0.000000 0.000000
# 4 0.000000 0.000000 0.000000 0.086691 0.000000 0.000000
# 5 0.000000 0.000000 0.000000 0.000000 0.024827 0.000000
# 6 0.000000 0.000000 0.000000 0.000000 0.000000 -0.068903
#
#
# Mechanical properties :
#
#
# Convention : Reuss Voigt Hill
#
# Bulk Modulus (GPa) = 18.24187 36.06095 27.15141
# Shear Modulus (GPa) = 271.11051 11.95428 141.53240
#
# Velocity S-wave (km/s) = 11.72807 2.46272 8.47386
# Velocity P-wave (km/s) = 13.87991 5.13636 10.46504
#
# Compressibility (1/GPa) = 0.05481894
#
# Stress axis : x y z
#
# Youngs Moduli (GPa) = 97.35910 444.56251 -157.88723
#
# Poissons Ratio (x) = 2.79769 -1.54055
# Poissons Ratio (y) = 0.61269 6.37334
# Poissons Ratio (z) = 0.94996 -17.94539
#
# Static dielectric constant tensor:
#      x y z
#    x 1.655280 0.000000 0.000000 
#    y 0.000000 1.656210 0.000000 
#    z 0.000000 0.000000 1.685250 
# 
# From -- ./inp_files/26132.got.cif
#   From: 2010.05.17/outbox.ucp.g08.bks.cvg/sg40_14_cif.got.tgz:26132.got - 2010.06.11 16:26:39.
