data_PCOD9365310
_publ_section_title
;
Structure prediction by ZEFSAII (Michael W. Deem and Ramdas Pophale) SiO2 
 PCOD9365310
Probable space group: A M A 2
;
_chemical_formula_sum "Si O2"
_cell_formula_units_Z 60
_cell_length_a 24.109080
_cell_length_b 5.327474
_cell_length_c 18.750281
_cell_angle_alpha 90.000000
_cell_angle_beta 90.000000
_cell_angle_gamma 90.000000
_cell_volume 2408.295408
_symmetry_space_group_name_H-M "A M A 2"
_symmetry_group_IT_number 40
_symmetry_cell_setting 'orthorhombic'
loop_
_space_group_symop_operation_xyz
x,y,z
-x,-y,z
1/2-x,y,z
1/2+x,-y,z
x,1/2+y,1/2+z
-x,1/2-y,1/2+z
1/2-x,1/2+y,1/2+z
1/2+x,1/2-y,1/2+z
loop_
_atom_site_type_symbol
_atom_site_label
_atom_site_fract_x
_atom_site_fract_y
_atom_site_fract_z
Si Si1 0.123978 0.424864 0.030030
Si Si2 0.936999 0.472502 0.797883
Si Si3 0.841827 0.620181 0.282036
Si Si4 0.155211 0.264576 0.890372
Si Si5 0.033230 0.257455 0.500981
Si Si6 0.081797 0.527554 0.631160
Si Si7 0.685786 0.297912 0.144046
Si Si8 0.750000 0.924479 0.333983
O O1 0.094632 0.647860 0.983801
O O2 0.174632 0.532692 0.074397
O O3 0.084049 0.292319 0.089180
O O4 0.137743 0.218855 0.970881
O O5 0.903148 0.210912 0.802988
O O6 0.897609 0.661536 0.841361
O O7 0.937195 0.498498 0.712152
O O8 0.000000 0.500000 0.823436
O O9 0.816948 0.464181 0.348113
O O10 0.837700 0.451519 0.212142
O O11 0.799463 0.850231 0.275924
O O12 0.200751 0.481489 0.888220
O O13 0.046140 0.341779 0.582168
O O14 0.000000 0.500000 0.469566
O O15 0.000000 0.000000 0.491908
O O16 0.145593 0.437432 0.632597
O O17 0.750000 0.246125 0.154617
#
# Coordination Sequence:
#
# PCOD9365310 Si02
#       8
#     8   8   8   8   8   8   8   4
#     4  11  26  46  71 112 153 194 259 322 386 464
#     4  11  25  44  73 107 146 194 254 314 376 462
#     4  11  22  45  76 106 143 199 252 310 382 466
#     4  11  26  48  70 109 150 196 256 309 395 460
#     4  11  23  45  75 108 145 204 255 315 380 453
#     4  11  23  43  72 109 150 194 252 315 383 453
#     4  11  24  42  72 109 148 194 256 317 381 458
#     4  10  24  44  76  96 148 200 254 304 384 470
#
# _framework density 24.913888
#
# number of rings (size 3 to 8) (size 9 to 14) (size 15 to 20)
#    0.000    1.067    4.667    0.800    0.933    5.867 
#    0.000    0.000    0.000    0.000    0.000    0.000 
#    0.000    0.000    0.000    0.000    0.000    0.000 
#
# Total GULP energy -167014.162968 kJ/mol
# GULP energy per Si atom -5567.138766 kJ/mol
# Density = 2.485718 g / cm^3
# Si number density = 24.913888 Si / 1000 Ang^3
#
#
#
# Elastic Constant Matrix: (Units=GPa)
#
#
# Indices 1 2 3 4 5 6 
#
# 1 168.3748 45.4795 22.3015 0.0000 0.0000 0.0000
# 2 45.4795 86.0639 7.0077 0.0000 0.0000 0.0000
# 3 22.3015 7.0077 87.1837 0.0000 0.0000 0.0000
# 4 0.0000 0.0000 0.0000 14.9271 0.0000 0.0000
# 5 0.0000 0.0000 0.0000 0.0000 8.8626 0.0000
# 6 0.0000 0.0000 0.0000 0.0000 0.0000 -23.4804
#
#
#
# Elastic Compliance Matrix: (Units=1/GPa)
#
#
# Indices 1 2 3 4 5 6 
#
# 1 0.007125 -0.003641 -0.001530 0.000000 0.000000 0.000000
# 2 -0.003641 0.013556 -0.000158 0.000000 0.000000 0.000000
# 3 -0.001530 -0.000158 0.011874 0.000000 0.000000 0.000000
# 4 0.000000 0.000000 0.000000 0.066992 0.000000 0.000000
# 5 0.000000 0.000000 0.000000 0.000000 0.112833 0.000000
# 6 0.000000 0.000000 0.000000 0.000000 0.000000 -0.042589
#
#
# Mechanical properties :
#
#
# Convention : Reuss Voigt Hill
#
# Bulk Modulus (GPa) = 45.66751 54.57774 50.12263
# Shear Modulus (GPa) = 26.63127 17.85077 22.24102
#
# Velocity S-wave (km/s) = 3.27300 2.67965 2.99108
# Velocity P-wave (km/s) = 5.71431 5.61499 5.66487
#
# Compressibility (1/GPa) = 0.02189740
#
# Stress axis : x y z
#
# Youngs Moduli (GPa) = 140.34802 73.76797 84.21669
#
# Poissons Ratio (x) = 0.26856 0.12885
# Poissons Ratio (y) = 0.51095 0.01333
# Poissons Ratio (z) = 0.21473 0.01168
#
# Static dielectric constant tensor:
#      x y z
#    x 2.033700 0.000000 0.000000 
#    y 0.000000 2.210050 0.000000 
#    z 0.000000 0.000000 2.020750 
# 
# From -- ./inp_files/23687.got.cif
#   From: 2010.05.17/outbox.cif.g08.bks.cpg/sg40_12_cif.got.tgz:23687.got - 2010.06.03 18:35:42.
