data_PCOD9365572
_publ_section_title
;
Structure prediction by ZEFSAII (Michael W. Deem and Ramdas Pophale) SiO2 
 PCOD9365572
Probable space group: A M A 2
;
_chemical_formula_sum "Si O2"
_cell_formula_units_Z 48
_cell_length_a 21.996227
_cell_length_b 10.410964
_cell_length_c 9.900302
_cell_angle_alpha 90.000000
_cell_angle_beta 90.000000
_cell_angle_gamma 90.000000
_cell_volume 2267.188240
_symmetry_space_group_name_H-M "A M A 2"
_symmetry_group_IT_number 40
_symmetry_cell_setting 'orthorhombic'
loop_
_space_group_symop_operation_xyz
x,y,z
-x,-y,z
1/2-x,y,z
1/2+x,-y,z
x,1/2+y,1/2+z
-x,1/2-y,1/2+z
1/2-x,1/2+y,1/2+z
1/2+x,1/2-y,1/2+z
loop_
_atom_site_type_symbol
_atom_site_label
_atom_site_fract_x
_atom_site_fract_y
_atom_site_fract_z
Si Si1 0.381475 0.812587 0.935680
Si Si2 0.063083 0.959915 0.320753
Si Si3 0.404385 0.572732 0.106137
Si Si4 0.382784 0.576543 0.568000
Si Si5 0.678984 0.674970 0.161633
Si Si6 0.024747 0.672054 0.360760
O O1 0.338600 0.778184 0.811586
O O2 0.452006 0.815715 0.880611
O O3 0.378316 0.711104 0.058438
O O4 0.362007 0.954639 0.981356
O O5 0.056954 0.809263 0.340472
O O6 0.066340 0.024295 0.466743
O O7 0.111534 0.018300 0.218357
O O8 0.000000 0.000000 0.254546
O O9 0.357225 0.458900 0.140670
O O10 0.451042 0.594943 0.229445
O O11 0.344191 0.707167 0.568637
O O12 0.446563 0.614652 0.497026
O O13 0.750000 0.654542 0.144115
#
# Coordination Sequence:
#
# PCOD9365572 Si02
#       6
#     8   8   8   8   8   8
#     4  12  26  43  76 109 148 185 236 300 372 436
#     4  12  23  38  68 107 149 182 222 282 362 434
#     4  12  26  44  72 107 142 191 238 291 360 435
#     4  12  25  45  70 107 142 190 234 292 362 425
#     4  12  29  50  70 100 146 199 254 300 352 423
#     4  12  25  40  73 114 151 175 228 296 374 446
#
# _framework density 21.171600999999999
#
# number of rings (size 3 to 8) (size 9 to 14) (size 15 to 20)
#    0.000    0.000    8.333    1.500    4.667    1.333 
#    0.000    0.000    0.000    0.000    0.000    0.000 
#    0.000    0.000    0.000    0.000    0.000    0.000 
#
# Total GULP energy -134019.080160 kJ/mol
# GULP energy per Si atom -5584.128340 kJ/mol
# Density = 2.112341 g / cm^3
# Si number density = 21.171601 Si / 1000 Ang^3
#
#
#
# Elastic Constant Matrix: (Units=GPa)
#
#
# Indices 1 2 3 4 5 6 
#
# 1 56.7072 30.4591 23.3135 0.0000 0.0000 0.0000
# 2 30.4591 160.8007 37.0325 0.0000 0.0000 0.0000
# 3 23.3135 37.0325 108.5524 0.0000 0.0000 0.0000
# 4 0.0000 0.0000 0.0000 47.8001 0.0000 0.0000
# 5 0.0000 0.0000 0.0000 0.0000 14.9047 0.0000
# 6 0.0000 0.0000 0.0000 0.0000 0.0000 14.0708
#
#
#
# Elastic Compliance Matrix: (Units=1/GPa)
#
#
# Indices 1 2 3 4 5 6 
#
# 1 0.020712 -0.003146 -0.003375 0.000000 0.000000 0.000000
# 2 -0.003146 0.007227 -0.001790 0.000000 0.000000 0.000000
# 3 -0.003375 -0.001790 0.010548 0.000000 0.000000 0.000000
# 4 0.000000 0.000000 0.000000 0.020920 0.000000 0.000000
# 5 0.000000 0.000000 0.000000 0.000000 0.067093 0.000000
# 6 0.000000 0.000000 0.000000 0.000000 0.000000 0.071069
#
#
# Mechanical properties :
#
#
# Convention : Reuss Voigt Hill
#
# Bulk Modulus (GPa) = 45.73565 56.40782 51.07174
# Shear Modulus (GPa) = 22.57550 31.03879 26.80714
#
# Velocity S-wave (km/s) = 3.26898 3.83307 3.56221
# Velocity P-wave (km/s) = 5.99146 6.80374 6.41048
#
# Compressibility (1/GPa) = 0.02186478
#
# Stress axis : x y z
#
# Youngs Moduli (GPa) = 48.28173 138.37006 94.80869
#
# Poissons Ratio (x) = 0.43531 0.31997
# Poissons Ratio (y) = 0.15189 0.16969
# Poissons Ratio (z) = 0.16295 0.24766
#
# Static dielectric constant tensor:
#      x y z
#    x 1.718380 0.000000 0.000000 
#    y 0.000000 1.849600 0.000000 
#    z 0.000000 0.000000 1.768130 
# 
# From -- ./inp_files/8721.got.cif
#   From: 2010.05.17/outbox.cif.g08.bks.cpg/sg40_5_cif.got.tgz:8721.got - 2010.06.03 18:35:42.
