data_PCOD9365534
_publ_section_title
;
Structure prediction by ZEFSAII (Michael W. Deem and Ramdas Pophale) SiO2 
 PCOD9365534
Probable space group: A M A 2
;
_chemical_formula_sum "Si O2"
_cell_formula_units_Z 32
_cell_length_a 15.127283
_cell_length_b 7.246114
_cell_length_c 12.219795
_cell_angle_alpha 90.000000
_cell_angle_beta 90.000000
_cell_angle_gamma 90.000000
_cell_volume 1339.460818
_symmetry_space_group_name_H-M "A M A 2"
_symmetry_group_IT_number 40
_symmetry_cell_setting 'orthorhombic'
loop_
_space_group_symop_operation_xyz
x,y,z
-x,-y,z
1/2-x,y,z
1/2+x,-y,z
x,1/2+y,1/2+z
-x,1/2-y,1/2+z
1/2-x,1/2+y,1/2+z
1/2+x,1/2-y,1/2+z
loop_
_atom_site_type_symbol
_atom_site_label
_atom_site_fract_x
_atom_site_fract_y
_atom_site_fract_z
Si Si1 0.651770 0.249380 0.753140
Si Si2 0.021913 0.198122 0.065053
Si Si3 0.400466 0.446472 0.881368
Si Si4 0.648924 0.831821 0.692278
O O1 0.750000 0.278147 0.709088
O O2 0.581468 0.337992 0.671291
O O3 0.646308 0.354990 0.868886
O O4 0.633996 0.031669 0.748512
O O5 0.930688 0.291801 0.107055
O O6 0.000000 0.000000 0.011903
O O7 0.083963 0.328370 0.990667
O O8 0.500000 0.500000 0.854156
O O9 0.358347 0.316641 0.789515
O O10 0.750000 0.828799 0.648099
#
# Coordination Sequence:
#
# PCOD9365534 Si02
#       4
#     8   8   8   8
#     4  11  24  46  74 105 149 200 253 314 378 450
#     4  12  26  46  79 111 154 204 254 313 388 454
#     4  12  25  43  75 108 147 200 252 310 377 456
#     4  11  24  48  77 108 153 201 254 319 383 454
#
# _framework density 23.890211000000001
#
# number of rings (size 3 to 8) (size 9 to 14) (size 15 to 20)
#    0.000    0.500    5.000    3.000    3.500    2.000 
#    0.000    2.500    0.000    0.000    0.000    0.000 
#    0.000    0.000    0.000    0.000    0.000    0.000 
#
# Total GULP energy -89369.194622 kJ/mol
# GULP energy per Si atom -5585.574664 kJ/mol
# Density = 2.383584 g / cm^3
# Si number density = 23.890211 Si / 1000 Ang^3
#
#
#
# Elastic Constant Matrix: (Units=GPa)
#
#
# Indices 1 2 3 4 5 6 
#
# 1 90.0095 -1.7865 9.0794 0.0000 0.0000 0.0000
# 2 -1.7865 131.0227 25.8455 0.0000 0.0000 0.0000
# 3 9.0794 25.8455 85.6977 0.0000 0.0000 0.0000
# 4 0.0000 0.0000 0.0000 33.6048 0.0000 0.0000
# 5 0.0000 0.0000 0.0000 0.0000 26.7231 0.0000
# 6 0.0000 0.0000 0.0000 0.0000 0.0000 36.7630
#
#
#
# Elastic Compliance Matrix: (Units=1/GPa)
#
#
# Indices 1 2 3 4 5 6 
#
# 1 0.011251 0.000413 -0.001317 0.000000 0.000000 0.000000
# 2 0.000413 0.008130 -0.002496 0.000000 0.000000 0.000000
# 3 -0.001317 -0.002496 0.012561 0.000000 0.000000 0.000000
# 4 0.000000 0.000000 0.000000 0.029758 0.000000 0.000000
# 5 0.000000 0.000000 0.000000 0.000000 0.037421 0.000000
# 6 0.000000 0.000000 0.000000 0.000000 0.000000 0.027201
#
#
# Mechanical properties :
#
#
# Convention : Reuss Voigt Hill
#
# Bulk Modulus (GPa) = 39.77122 41.44518 40.60820
# Shear Modulus (GPa) = 35.33528 37.65763 36.49645
#
# Velocity S-wave (km/s) = 3.85004 3.97454 3.91279
# Velocity P-wave (km/s) = 6.03717 6.20069 6.11947
#
# Compressibility (1/GPa) = 0.02514381
#
# Stress axis : x y z
#
# Youngs Moduli (GPa) = 88.88142 122.99811 79.61080
#
# Poissons Ratio (x) = -0.05081 0.10482
# Poissons Ratio (y) = -0.03672 0.19869
# Poissons Ratio (z) = 0.11702 0.30697
#
# Static dielectric constant tensor:
#      x y z
#    x 1.816140 0.000000 0.000000 
#    y 0.000000 2.084460 0.000000 
#    z 0.000000 0.000000 1.949350 
# 
# From -- ./inp_files/11769.got.cif
#   From: 2010.05.17/outbox.cif.g08.bks.cpg/sg40_6_cif.got.tgz:11769.got - 2010.06.03 18:35:42.
