data_PCOD9365392
_publ_section_title
;
Structure prediction by ZEFSAII (Michael W. Deem and Ramdas Pophale) SiO2 
 PCOD9365392
Probable space group: A M A 2
;
_chemical_formula_sum "Si O2"
_cell_formula_units_Z 40
_cell_length_a 8.511096
_cell_length_b 13.995329
_cell_length_c 19.134397
_cell_angle_alpha 90.000000
_cell_angle_beta 90.000000
_cell_angle_gamma 90.000000
_cell_volume 2279.204963
_symmetry_space_group_name_H-M "A M A 2"
_symmetry_group_IT_number 40
_symmetry_cell_setting 'orthorhombic'
loop_
_space_group_symop_operation_xyz
x,y,z
-x,-y,z
1/2-x,y,z
1/2+x,-y,z
x,1/2+y,1/2+z
-x,1/2-y,1/2+z
1/2-x,1/2+y,1/2+z
1/2+x,1/2-y,1/2+z
loop_
_atom_site_type_symbol
_atom_site_label
_atom_site_fract_x
_atom_site_fract_y
_atom_site_fract_z
Si Si1 0.941549 0.798770 0.512630
Si Si2 0.560836 0.895817 0.656319
Si Si3 0.060137 0.798858 0.227076
Si Si4 0.938259 0.392099 0.868126
Si Si5 0.060782 0.895517 0.082220
O O1 0.750000 0.798879 0.512356
O O2 0.990463 0.865075 0.577988
O O3 0.995303 0.839294 0.438632
O O4 0.990860 0.690687 0.531360
O O5 0.750000 0.897394 0.656182
O O6 0.512130 0.809303 0.707250
O O7 0.500000 0.000000 0.674899
O O8 0.250000 0.801325 0.230494
O O9 0.012435 0.864465 0.160824
O O10 0.992330 0.837272 0.298882
O O11 0.750000 0.394440 0.869753
O O12 0.000000 0.500000 0.866659
O O13 0.250000 0.896919 0.081394
O O14 0.000000 0.000000 0.064381
#
# Coordination Sequence:
#
# PCOD9365392 Si02
#       5
#     8   8   8   8   8
#     4   8  17  33  50  70  97 128 159 194 239 287
#     4   9  17  32  53  73  96 127 162 201 241 282
#     4   9  19  34  50  71 100 130 161 198 239 285
#     4  11  21  33  51  73  99 128 158 196 242 290
#     4   9  17  32  52  71  94 125 161 199 238 280
#
# _framework density 17.549979
#
# number of rings (size 3 to 8) (size 9 to 14) (size 15 to 20)
#    0.000    2.800    0.000    4.200    0.000    3.200 
#    0.000    7.000    0.000    4.800    0.000    0.000 
#    0.000    0.000    0.000    0.000    0.000    0.000 
#
# Total GULP energy -111521.675118 kJ/mol
# GULP energy per Si atom -5576.083756 kJ/mol
# Density = 1.751003 g / cm^3
# Si number density = 17.549979 Si / 1000 Ang^3
#
#
#
# Elastic Constant Matrix: (Units=GPa)
#
#
# Indices 1 2 3 4 5 6 
#
# 1 12.9468 24.4504 25.8271 0.0000 0.0000 0.0000
# 2 24.4504 169.9856 93.3359 0.0000 0.0000 0.0000
# 3 25.8271 93.3359 150.1160 0.0000 0.0000 0.0000
# 4 0.0000 0.0000 0.0000 16.3385 0.0000 0.0000
# 5 0.0000 0.0000 0.0000 0.0000 40.7127 0.0000
# 6 0.0000 0.0000 0.0000 0.0000 0.0000 31.6995
#
#
#
# Elastic Compliance Matrix: (Units=1/GPa)
#
#
# Indices 1 2 3 4 5 6 
#
# 1 0.126996 -0.009520 -0.015930 0.000000 0.000000 0.000000
# 2 -0.009520 0.009646 -0.004360 0.000000 0.000000 0.000000
# 3 -0.015930 -0.004360 0.012113 0.000000 0.000000 0.000000
# 4 0.000000 0.000000 0.000000 0.061205 0.000000 0.000000
# 5 0.000000 0.000000 0.000000 0.000000 0.024562 0.000000
# 6 0.000000 0.000000 0.000000 0.000000 0.000000 0.031546
#
#
# Mechanical properties :
#
#
# Convention : Reuss Voigt Hill
#
# Bulk Modulus (GPa) = 11.21886 68.91948 40.06917
# Shear Modulus (GPa) = 14.06864 30.37913 22.22389
#
# Velocity S-wave (km/s) = 2.83438 4.16505 3.56240
# Velocity P-wave (km/s) = 4.13740 7.90480 6.30888
#
# Compressibility (1/GPa) = 0.08913560
#
# Stress axis : x y z
#
# Youngs Moduli (GPa) = 7.87424 103.67068 82.55659
#
# Poissons Ratio (x) = 0.98693 1.31516
# Poissons Ratio (y) = 0.07496 0.35991
# Poissons Ratio (z) = 0.12544 0.45196
#
# Static dielectric constant tensor:
#      x y z
#    x 1.606220 0.000000 0.000000 
#    y 0.000000 1.584930 0.000000 
#    z 0.000000 0.000000 1.585990 
# 
# From -- ./inp_files/14803.got.cif
#   From: 2010.05.17/outbox.cif.g08.bks.cpg/sg40_8_cif.got.tgz:14803.got - 2010.06.03 18:35:42.
