data_PCOD9365765
_publ_section_title
;
Structure prediction by ZEFSAII (Michael W. Deem and Ramdas Pophale) SiO2 
 PCOD9365765
Probable space group: A B A 2
;
_chemical_formula_sum "Si O2"
_cell_formula_units_Z 56
_cell_length_a 19.179978
_cell_length_b 5.510393
_cell_length_c 18.606805
_cell_angle_alpha 90.000000
_cell_angle_beta 90.000000
_cell_angle_gamma 90.000000
_cell_volume 1966.538642
_symmetry_space_group_name_H-M "A B A 2"
_symmetry_group_IT_number 41
_symmetry_cell_setting 'orthorhombic'
loop_
_space_group_symop_operation_xyz
x,y,z
-x,-y,z
1/2-x,y,1/2+z
1/2+x,-y,1/2+z
x,1/2+y,1/2+z
-x,1/2-y,1/2+z
1/2-x,1/2+y,z
1/2+x,1/2-y,z
loop_
_atom_site_type_symbol
_atom_site_label
_atom_site_fract_x
_atom_site_fract_y
_atom_site_fract_z
Si Si1 0.284330 0.514519 0.213330
Si Si2 0.100895 0.547634 0.399278
Si Si3 0.500000 0.000000 0.265951
Si Si4 0.856631 0.961312 0.358198
Si Si5 0.913522 0.254232 0.546657
Si Si6 0.380350 0.758844 0.606349
Si Si7 0.254105 0.257972 0.499056
Si Si8 0.500000 0.500000 0.265363
O O1 0.273715 0.804313 0.192815
O O2 0.298946 0.561861 0.296899
O O3 0.349958 0.357762 0.182488
O O4 0.062584 0.517583 0.323108
O O5 0.153099 0.767256 0.386669
O O6 0.059187 0.681094 0.465321
O O7 0.130092 0.273538 0.410201
O O8 0.498979 0.751931 0.223277
O O9 0.932401 0.981700 0.316939
O O10 0.925669 0.509800 0.584465
O O11 0.828856 0.257475 0.537380
O O12 0.920134 0.992794 0.585974
O O13 0.308616 0.752131 0.557903
O O14 0.252775 0.508620 0.458634
#
# Coordination Sequence:
#
# PCOD9365765 Si02
#       8
#     8   8   4   8   8   8   8   4
#     4  12  23  38  57  79 116 154 191 236 283 349
#     4  10  19  35  55  82 113 140 184 234 291 354
#     4   8  16  30  54  79 104 141 176 224 282 342
#     4  10  21  37  57  84 112 150 190 235 295 344
#     4  10  18  30  51  75 100 133 176 228 267 314
#     4  10  19  33  51  73  99 142 192 221 258 323
#     4   8  14  25  39  60  84 115 163 202 236 281
#     4   8  16  34  58  79 104 139 196 238 262 336
#
# _framework density 28.476431999999999
#
# number of rings (size 3 to 8) (size 9 to 14) (size 15 to 20)
#    0.000    2.286    0.000    5.143    0.000    0.000 
#    0.000   12.857    0.000    0.857    0.000    2.000 
#    0.000    0.000    0.000    0.000    0.000    0.000 
#
# Total GULP energy -155881.662904 kJ/mol
# GULP energy per Si atom -5567.202247 kJ/mol
# Density = 2.841162 g / cm^3
# Si number density = 28.476432 Si / 1000 Ang^3
#
#
#
# Elastic Constant Matrix: (Units=GPa)
#
#
# Indices 1 2 3 4 5 6 
#
# 1 86.1662 31.1755 6.5387 0.0000 0.0000 0.0000
# 2 31.1755 312.0590 12.6083 0.0000 0.0000 0.0000
# 3 6.5387 12.6083 80.6569 0.0000 0.0000 0.0000
# 4 0.0000 0.0000 0.0000 52.2635 0.0000 0.0000
# 5 0.0000 0.0000 0.0000 0.0000 27.8341 0.0000
# 6 0.0000 0.0000 0.0000 0.0000 0.0000 15.1144
#
#
#
# Elastic Compliance Matrix: (Units=1/GPa)
#
#
# Indices 1 2 3 4 5 6 
#
# 1 0.012091 -0.001176 -0.000796 0.000000 0.000000 0.000000
# 2 -0.001176 0.003339 -0.000427 0.000000 0.000000 0.000000
# 3 -0.000796 -0.000427 0.012529 0.000000 0.000000 0.000000
# 4 0.000000 0.000000 0.000000 0.019134 0.000000 0.000000
# 5 0.000000 0.000000 0.000000 0.000000 0.035927 0.000000
# 6 0.000000 0.000000 0.000000 0.000000 0.000000 0.066162
#
#
# Mechanical properties :
#
#
# Convention : Reuss Voigt Hill
#
# Bulk Modulus (GPa) = 43.17365 64.39189 53.78277
# Shear Modulus (GPa) = 30.92118 47.61304 39.26711
#
# Velocity S-wave (km/s) = 3.29880 4.09347 3.71743
# Velocity P-wave (km/s) = 5.45010 6.70846 6.11175
#
# Compressibility (1/GPa) = 0.02316227
#
# Stress axis : x y z
#
# Youngs Moduli (GPa) = 82.70395 299.47069 79.81189
#
# Poissons Ratio (x) = 0.35211 0.06356
# Poissons Ratio (y) = 0.09724 0.03405
# Poissons Ratio (z) = 0.06587 0.12778
#
# Static dielectric constant tensor:
#      x y z
#    x 2.226600 0.000000 0.000000 
#    y 0.000000 2.236480 0.000000 
#    z 0.000000 0.000000 2.375090 
# 
# From -- ./inp_files/11767.got.cif
#   From: 2010.05.17/outbox.cif.g08.bks.cpg/sg41_6_cif.got.tgz:11767.got - 2010.06.03 18:54:24.
