data_PCOD9365123
_publ_section_title
;
Structure prediction by ZEFSAII (Michael W. Deem and Ramdas Pophale) SiO2 
 PCOD9365123
Probable space group: A M A 2
;
_chemical_formula_sum "Si O2"
_cell_formula_units_Z 64
_cell_length_a 17.746023
_cell_length_b 11.767052
_cell_length_c 14.595394
_cell_angle_alpha 90.000000
_cell_angle_beta 90.000000
_cell_angle_gamma 90.000000
_cell_volume 3047.786464
_symmetry_space_group_name_H-M "A M A 2"
_symmetry_group_IT_number 40
_symmetry_cell_setting 'orthorhombic'
loop_
_space_group_symop_operation_xyz
x,y,z
-x,-y,z
1/2-x,y,z
1/2+x,-y,z
x,1/2+y,1/2+z
-x,1/2-y,1/2+z
1/2-x,1/2+y,1/2+z
1/2+x,1/2-y,1/2+z
loop_
_atom_site_type_symbol
_atom_site_label
_atom_site_fract_x
_atom_site_fract_y
_atom_site_fract_z
Si Si1 0.835147 0.066374 0.547930
Si Si2 0.611305 0.246147 0.769619
Si Si3 0.167903 0.496406 0.256340
Si Si4 0.936083 0.775652 0.000813
Si Si5 0.055604 0.690015 0.287958
Si Si6 0.163686 0.166958 0.452322
Si Si7 0.159964 0.571980 0.613648
Si Si8 0.406372 0.819745 0.107696
O O1 0.750000 0.116080 0.538517
O O2 0.837812 0.006721 0.646468
O O3 0.899368 0.159571 0.538073
O O4 0.845131 0.964506 0.477538
O O5 0.664092 0.136576 0.779692
O O6 0.529978 0.190831 0.752401
O O7 0.611038 0.305653 0.867507
O O8 0.636105 0.338439 0.694003
O O9 0.250000 0.543150 0.283656
O O10 0.098965 0.570491 0.292136
O O11 0.873672 0.871159 0.022441
O O12 0.011498 0.809699 0.057369
O O13 0.945899 0.765230 0.891933
O O14 0.095095 0.764704 0.208906
O O15 0.250000 0.184994 0.424265
O O16 0.145538 0.247084 0.538619
O O17 0.250000 0.561469 0.613382
O O18 0.121060 0.448928 0.619658
#
# Coordination Sequence:
#
# PCOD9365123 Si02
#       8
#     8   8   8   8   8   8   8   8
#     4  10  22  44  71  99 137 183 236 289 344 412
#     4  12  25  46  72 104 144 189 239 291 353 428
#     4  11  23  43  72 102 141 186 238 294 349 416
#     4  12  26  46  70 103 143 187 232 292 355 426
#     4  12  27  45  71 108 141 189 236 297 363 427
#     4  11  24  45  72 103 139 187 240 291 349 417
#     4  12  27  47  74 104 142 193 241 292 356 425
#     4  12  26  48  69 102 146 188 232 292 355 431
#
# _framework density 20.998847000000001
#
# number of rings (size 3 to 8) (size 9 to 14) (size 15 to 20)
#    0.000    0.500    5.000    2.625    3.500    3.000 
#    0.000    0.000    0.000    0.000    0.000    0.000 
#    0.000    0.000    0.000    0.000    0.000    0.000 
#
# Total GULP energy -178762.842419 kJ/mol
# GULP energy per Si atom -5586.338826 kJ/mol
# Density = 2.095105 g / cm^3
# Si number density = 20.998847 Si / 1000 Ang^3
#
#
#
# Elastic Constant Matrix: (Units=GPa)
#
#
# Indices 1 2 3 4 5 6 
#
# 1 114.0498 57.0114 13.5071 0.0000 0.0000 0.0000
# 2 57.0114 99.5210 17.2123 0.0000 0.0000 0.0000
# 3 13.5071 17.2123 95.8728 0.0000 0.0000 0.0000
# 4 0.0000 0.0000 0.0000 24.1617 0.0000 0.0000
# 5 0.0000 0.0000 0.0000 0.0000-1521.6769 0.0000
# 6 0.0000 0.0000 0.0000 0.0000 0.0000 85.4180
#
#
#
# Elastic Compliance Matrix: (Units=1/GPa)
#
#
# Indices 1 2 3 4 5 6 
#
# 1 0.012308 -0.006967 -0.000483 0.000000 0.000000 0.000000
# 2 -0.006967 0.014314 -0.001588 0.000000 0.000000 0.000000
# 3 -0.000483 -0.001588 0.010784 0.000000 0.000000 0.000000
# 4 0.000000 0.000000 0.000000 0.041388 0.000000 0.000000
# 5 0.000000 0.000000 0.000000 0.000000 -0.000657 0.000000
# 6 0.000000 0.000000 0.000000 0.000000 0.000000 0.011707
#
#
# Mechanical properties :
#
#
# Convention : Reuss Voigt Hill
#
# Bulk Modulus (GPa) = 51.73702 53.87834 52.80768
# Shear Modulus (GPa) = 43.72009 -267.63859 -111.95925
#
# Velocity S-wave (km/s) = 4.56787 -11.30180 -7.30976
# Velocity P-wave (km/s) = 7.24652 12.02473 6.78535
#
# Compressibility (1/GPa) = 0.01932852
#
# Stress axis : x y z
#
# Youngs Moduli (GPa) = 81.24722 69.86143 92.73248
#
# Poissons Ratio (x) = 0.48674 0.04481
# Poissons Ratio (y) = 0.56607 0.14728
# Poissons Ratio (z) = 0.03926 0.11096
#
# Static dielectric constant tensor:
#      x y z
#    x 2.476770 0.000000 0.000000 
#    y 0.000000 1.774290 0.000000 
#    z 0.000000 0.000000 1.788720 
# 
# From -- ./inp_files/17890.got.cif
#   From: 2010.05.17/outbox.cif.g08.bks.cpg/sg40_9_cif.got.tgz:17890.got - 2010.06.03 18:35:42.
