data_PCOD9365410
_publ_section_title
;
Structure prediction by ZEFSAII (Michael W. Deem and Ramdas Pophale) SiO2 
 PCOD9365410
Probable space group: A M A 2
;
_chemical_formula_sum "Si O2"
_cell_formula_units_Z 48
_cell_length_a 13.803460
_cell_length_b 9.357967
_cell_length_c 17.463327
_cell_angle_alpha 90.000000
_cell_angle_beta 90.000000
_cell_angle_gamma 90.000000
_cell_volume 2255.778519
_symmetry_space_group_name_H-M "A M A 2"
_symmetry_group_IT_number 40
_symmetry_cell_setting 'orthorhombic'
loop_
_space_group_symop_operation_xyz
x,y,z
-x,-y,z
1/2-x,y,z
1/2+x,-y,z
x,1/2+y,1/2+z
-x,1/2-y,1/2+z
1/2-x,1/2+y,1/2+z
1/2+x,1/2-y,1/2+z
loop_
_atom_site_type_symbol
_atom_site_label
_atom_site_fract_x
_atom_site_fract_y
_atom_site_fract_z
Si Si1 0.750000 0.567046 0.297740
Si Si2 0.250000 0.347236 0.753387
Si Si3 0.072838 0.875596 0.906803
Si Si4 0.959630 0.344630 0.629748
Si Si5 0.461766 0.340437 0.800027
Si Si6 0.069072 0.130091 0.525453
Si Si7 0.750000 0.340197 0.691010
Si Si8 0.250000 0.608936 0.136516
O O1 0.842227 0.557216 0.354315
O O2 0.750000 0.720791 0.256401
O O3 0.750000 0.729791 0.670192
O O4 0.346969 0.320138 0.800318
O O5 0.250000 0.513095 0.735853
O O6 0.250000 0.030169 0.720224
O O7 0.108708 0.752784 0.966793
O O8 0.009452 0.778174 0.851049
O O9 0.000000 0.000000 0.936526
O O10 0.845234 0.337926 0.639751
O O11 0.000000 0.500000 0.607521
O O12 0.004959 0.317126 0.713030
O O13 0.994983 0.222547 0.574963
O O14 0.500000 0.500000 0.819085
O O15 0.156071 0.081779 0.582766
O O16 0.000000 0.000000 0.495239
#
# Coordination Sequence:
#
# PCOD9365410 Si02
#       8
#     4   4   8   8   8   8   4   4
#     4  12  25  43  73 104 134 180 244 301 352 423
#     4  12  20  35  65 102 131 175 231 291 341 420
#     4  12  27  46  68  98 143 186 233 294 365 423
#     4  11  21  39  66 100 136 180 233 293 355 427
#     4  11  21  39  66 100 136 180 233 293 355 427
#     4  12  27  46  68  98 143 186 233 294 365 423
#     4  12  20  35  65 102 131 175 231 291 341 420
#     4  12  25  43  73 104 134 180 244 301 352 423
#
# _framework density 21.278683999999998
#
# number of rings (size 3 to 8) (size 9 to 14) (size 15 to 20)
#    0.000    0.333    6.667    3.500    0.000    0.000 
#    0.000    6.667    0.000    0.000    0.000    0.000 
#    0.000    0.000    0.000    0.000    0.000    0.000 
#
# Total GULP energy -133986.795328 kJ/mol
# GULP energy per Si atom -5582.783139 kJ/mol
# Density = 2.123025 g / cm^3
# Si number density = 21.278684 Si / 1000 Ang^3
#
#
#
# Elastic Constant Matrix: (Units=GPa)
#
#
# Indices 1 2 3 4 5 6 
#
# 1 164.3591 -6.2474 36.5411 0.0000 0.0000 0.0000
# 2 -6.2474 56.7703 32.0040 0.0000 0.0000 0.0000
# 3 36.5411 32.0040 94.6295 0.0000 0.0000 0.0000
# 4 0.0000 0.0000 0.0000 18.7287 0.0000 0.0000
# 5 0.0000 0.0000 0.0000 0.0000 32.1886 0.0000
# 6 0.0000 0.0000 0.0000 0.0000 0.0000 30.0085
#
#
#
# Elastic Compliance Matrix: (Units=1/GPa)
#
#
# Indices 1 2 3 4 5 6 
#
# 1 0.007007 0.002837 -0.003665 0.000000 0.000000 0.000000
# 2 0.002837 0.022913 -0.008845 0.000000 0.000000 0.000000
# 3 -0.003665 -0.008845 0.014974 0.000000 0.000000 0.000000
# 4 0.000000 0.000000 0.000000 0.053394 0.000000 0.000000
# 5 0.000000 0.000000 0.000000 0.000000 0.031067 0.000000
# 6 0.000000 0.000000 0.000000 0.000000 0.000000 0.033324
#
#
# Mechanical properties :
#
#
# Convention : Reuss Voigt Hill
#
# Bulk Modulus (GPa) = 39.14085 48.92826 44.03456
# Shear Modulus (GPa) = 26.24095 33.08258 29.66176
#
# Velocity S-wave (km/s) = 3.51551 3.94728 3.73764
# Velocity P-wave (km/s) = 5.90870 6.61957 6.27421
#
# Compressibility (1/GPa) = 0.02554875
#
# Stress axis : x y z
#
# Youngs Moduli (GPa) = 142.71457 43.64247 66.78086
#
# Poissons Ratio (x) = -0.12383 0.24478
# Poissons Ratio (y) = -0.40494 0.59068
# Poissons Ratio (z) = 0.52310 0.38602
#
# Static dielectric constant tensor:
#      x y z
#    x 1.826050 0.000000 0.000000 
#    y 0.000000 1.798830 0.000000 
#    z 0.000000 0.000000 1.776900 
# 
# From -- ./inp_files/20613.got.cif
#   From: 2010.05.17/outbox.cif.g08.bks.cpg/sg40_11_cif.got.tgz:20613.got - 2010.06.03 18:35:42.
