data_PCOD9365714
_publ_section_title
;
Structure prediction by ZEFSAII (Michael W. Deem and Ramdas Pophale) SiO2 
 PCOD9365714
Probable space group: A B A 2
;
_chemical_formula_sum "Si O2"
_cell_formula_units_Z 64
_cell_length_a 20.530309
_cell_length_b 16.391198
_cell_length_c 9.420362
_cell_angle_alpha 90.000000
_cell_angle_beta 90.000000
_cell_angle_gamma 90.000000
_cell_volume 3170.105928
_symmetry_space_group_name_H-M "A B A 2"
_symmetry_group_IT_number 41
_symmetry_cell_setting 'orthorhombic'
loop_
_space_group_symop_operation_xyz
x,y,z
-x,-y,z
1/2-x,y,1/2+z
1/2+x,-y,1/2+z
x,1/2+y,1/2+z
-x,1/2-y,1/2+z
1/2-x,1/2+y,z
1/2+x,1/2-y,z
loop_
_atom_site_type_symbol
_atom_site_label
_atom_site_fract_x
_atom_site_fract_y
_atom_site_fract_z
Si Si1 0.789255 0.446503 0.720610
Si Si2 0.958426 0.875464 0.606554
Si Si3 0.144141 0.298164 0.103274
Si Si4 0.280610 0.712671 0.611584
Si Si5 0.619075 0.814078 0.862058
Si Si6 0.621221 0.299386 0.846994
Si Si7 0.596419 0.543015 0.677866
Si Si8 0.173052 0.520434 0.426092
O O1 0.743920 0.379357 0.640637
O O2 0.848028 0.393953 0.789431
O O3 0.816211 0.500289 0.590735
O O4 0.740872 0.484403 0.837518
O O5 0.944865 0.835631 0.453864
O O6 0.935172 0.818079 0.734591
O O7 0.028014 0.912401 0.646482
O O8 0.909040 0.953090 0.613618
O O9 0.216841 0.264944 0.090246
O O10 0.114164 0.256284 0.244279
O O11 0.146219 0.394973 0.107810
O O12 0.104589 0.262060 0.971367
O O13 0.327920 0.714266 0.478238
O O14 0.319904 0.735903 0.752556
O O15 0.646798 0.385437 0.913337
O O16 0.619142 0.531274 0.840176
#
# Coordination Sequence:
#
# PCOD9365714 Si02
#       8
#     8   8   8   8   8   8   8   8
#     4  10  16  29  56  86 110 142 200 226 276 362
#     4   9  21  42  60  71 108 166 206 219 278 366
#     4  11  19  32  56  88 112 132 187 251 295 327
#     4   9  16  31  51  85 116 144 177 228 295 357
#     4  10  18  33  63  85 106 148 199 242 271 358
#     4   9  17  32  60  78 105 151 192 224 281 352
#     4  10  23  38  56  79 119 155 189 237 299 342
#     4  10  18  33  54  83 112 155 186 230 286 365
#
# _framework density 20.188599
#
# number of rings (size 3 to 8) (size 9 to 14) (size 15 to 20)
#    0.000    2.250    3.750    2.250    0.000    1.000 
#    4.500    0.000    8.250    0.000    0.000    0.000 
#    0.000    0.000    0.000    0.000    0.000    0.000 
#
# Total GULP energy -178479.009459 kJ/mol
# GULP energy per Si atom -5577.469046 kJ/mol
# Density = 2.014265 g / cm^3
# Si number density = 20.188599 Si / 1000 Ang^3
#
#
#
# Elastic Constant Matrix: (Units=GPa)
#
#
# Indices 1 2 3 4 5 6 
#
# 1 45.3095 6.3241 10.3384 0.0000 0.0000 0.0000
# 2 6.3241 39.0957 18.8582 0.0000 0.0000 0.0000
# 3 10.3384 18.8582 114.6357 0.0000 0.0000 0.0000
# 4 0.0000 0.0000 0.0000 11.7143 0.0000 0.0000
# 5 0.0000 0.0000 0.0000 0.0000 11.4893 0.0000
# 6 0.0000 0.0000 0.0000 0.0000 0.0000 13.2650
#
#
#
# Elastic Compliance Matrix: (Units=1/GPa)
#
#
# Indices 1 2 3 4 5 6 
#
# 1 0.022840 -0.002934 -0.001577 0.000000 0.000000 0.000000
# 2 -0.002934 0.028160 -0.004368 0.000000 0.000000 0.000000
# 3 -0.001577 -0.004368 0.009584 0.000000 0.000000 0.000000
# 4 0.000000 0.000000 0.000000 0.085366 0.000000 0.000000
# 5 0.000000 0.000000 0.000000 0.000000 0.087038 0.000000
# 6 0.000000 0.000000 0.000000 0.000000 0.000000 0.075387
#
#
# Mechanical properties :
#
#
# Convention : Reuss Voigt Hill
#
# Bulk Modulus (GPa) = 23.35035 30.00916 26.67975
# Shear Modulus (GPa) = 14.68831 18.19504 16.44168
#
# Velocity S-wave (km/s) = 2.70025 3.00535 2.85687
# Velocity P-wave (km/s) = 4.61660 5.19033 4.91185
#
# Compressibility (1/GPa) = 0.04282591
#
# Stress axis : x y z
#
# Youngs Moduli (GPa) = 43.78331 35.51179 104.33988
#
# Poissons Ratio (x) = 0.10418 0.16456
# Poissons Ratio (y) = 0.12845 0.45574
# Poissons Ratio (z) = 0.06905 0.15511
#
# Static dielectric constant tensor:
#      x y z
#    x 1.779690 0.000000 0.000000 
#    y 0.000000 1.723620 0.000000 
#    z 0.000000 0.000000 1.735820 
# 
# From -- ./inp_files/3504.got.cif
#   From: 2010.05.17/outbox.cif.g08.bks.cpg/sg41_2_cif.got.tgz:3504.got - 2010.06.03 18:54:24.
