data_PCOD9365636
_publ_section_title
;
Structure prediction by ZEFSAII (Michael W. Deem and Ramdas Pophale) SiO2 
 PCOD9365636
Probable space group: A M A 2
;
_chemical_formula_sum "Si O2"
_cell_formula_units_Z 32
_cell_length_a 15.000000
_cell_length_b 18.000000
_cell_length_c 12.000000
_cell_angle_alpha 90.000000
_cell_angle_beta 90.000000
_cell_angle_gamma 90.000000
_cell_volume 3240.000000
_symmetry_space_group_name_H-M "A M A 2"
_symmetry_group_IT_number 40
_symmetry_cell_setting 'orthorhombic'
loop_
_space_group_symop_operation_xyz
x,y,z
-x,-y,z
1/2-x,y,z
1/2+x,-y,z
x,1/2+y,1/2+z
-x,1/2-y,1/2+z
1/2-x,1/2+y,1/2+z
1/2+x,1/2-y,1/2+z
loop_
_atom_site_type_symbol
_atom_site_label
_atom_site_fract_x
_atom_site_fract_y
_atom_site_fract_z
Si Si1 0.650682 0.498920 0.952530
Si Si2 0.021596 0.632731 0.286610
Si Si3 0.425547 0.558040 0.722645
Si Si4 0.151555 0.785526 0.496064
Si Si5 0.354810 0.408415 0.161699
Si Si6 0.148649 0.108576 0.988733
Si Si7 0.352884 0.160500 0.569804
Si Si8 0.475185 0.702859 0.868596
O O1 0.750000 0.529002 0.938723
O O2 0.612806 0.486458 0.830138
O O3 0.610541 0.548361 0.051230
O O4 0.654013 0.418748 0.009524
O O5 0.077655 0.596568 0.388578
O O6 0.088780 0.647787 0.181733
O O7 0.933144 0.586688 0.251723
O O8 0.985973 0.714691 0.320078
O O9 0.500000 0.500000 0.682970
O O10 0.369684 0.573808 0.610532
O O11 0.451154 0.638271 0.778988
O O12 0.250000 0.800974 0.448930
O O13 0.147356 0.824065 0.616396
O O14 0.142965 0.697539 0.506045
O O15 0.072477 0.815382 0.419384
O O16 0.250000 0.429536 0.187274
O O17 0.250000 0.090037 0.952959
O O18 0.250000 0.185988 0.591532
O O19 0.407125 0.205717 0.474481
#
# Coordination Sequence:
#
# PCOD9365636 Si02
#       8
#     8   8   8   8   8   8   8   8
#     4   9  20  37  60  90 119 151 196 248 300 356
#     4  11  22  37  64  86 123 159 204 250 302 353
#     4  11  22  36  60  89 122 158 198 241 303 360
#     4   9  17  33  58  88 118 153 194 242 297 351
#     4  10  19  34  59  92 124 154 195 250 307 356
#     4  10  22  40  60  84 118 162 207 243 292 363
#     4  10  21  38  60  90 120 156 203 251 298 351
#     4  10  21  36  61  90 122 154 199 250 302 353
#
# _framework density 9.8765429999999999
#
# number of rings (size 3 to 8) (size 9 to 14) (size 15 to 20)
#    0.000    2.000    1.250    2.250    3.500    1.500 
#    2.250    0.625    0.000    0.750    0.000    0.000 
#    0.000    0.000    0.000    0.000    0.000    0.000 
#
# Total GULP energy -178248.579256 kJ/mol
# GULP energy per Si atom -5570.268102 kJ/mol
# Density = 0.985406 g / cm^3
# Si number density = 9.876543 Si / 1000 Ang^3
#
#
#
# Elastic Constant Matrix: (Units=GPa)
#
#
# Indices 1 2 3 4 5 6 
#
# 1 128.3191 21.4134 71.6626 0.0000 0.0000 0.0000
# 2 21.4134 38.1059 20.8811 0.0000 0.0000 0.0000
# 3 71.6626 20.8811 117.2358 0.0000 0.0000 0.0000
# 4 0.0000 0.0000 0.0000 26.0534 0.0000 0.0000
# 5 0.0000 0.0000 0.0000 0.0000 34.3394 0.0000
# 6 0.0000 0.0000 0.0000 0.0000 0.0000 18.7493
#
#
#
# Elastic Compliance Matrix: (Units=1/GPa)
#
#
# Indices 1 2 3 4 5 6 
#
# 1 0.012145 -0.003055 -0.006880 0.000000 0.000000 0.000000
# 2 -0.003055 0.029849 -0.003449 0.000000 0.000000 0.000000
# 3 -0.006880 -0.003449 0.013350 0.000000 0.000000 0.000000
# 4 0.000000 0.000000 0.000000 0.038383 0.000000 0.000000
# 5 0.000000 0.000000 0.000000 0.000000 0.029121 0.000000
# 6 0.000000 0.000000 0.000000 0.000000 0.000000 0.053335
#
#
# Mechanical properties :
#
#
# Convention : Reuss Voigt Hill
#
# Bulk Modulus (GPa) = 34.99400 56.84167 45.91783
# Shear Modulus (GPa) = 23.53205 27.14200 25.33703
#
# Velocity S-wave (km/s) = 3.45528 3.71086 3.58535
# Velocity P-wave (km/s) = 5.80283 6.87017 6.35893
#
# Compressibility (1/GPa) = 0.02857633
#
# Stress axis : x y z
#
# Youngs Moduli (GPa) = 82.33836 33.50146 74.90899
#
# Poissons Ratio (x) = 0.10234 0.51536
# Poissons Ratio (y) = 0.25154 0.25837
# Poissons Ratio (z) = 0.56647 0.11555
#
# Static dielectric constant tensor:
#      x y z
#    x 1.775760 0.000000 0.000000 
#    y 0.000000 1.733710 0.000000 
#    z 0.000000 0.000000 1.702190 
# 
# From -- ./inp_files/12479.got.cif
#   From: 2010.05.17/outbox.ucp.g08.bks.cvg/sg40_7_cif.got.tgz:12479.got - 2010.06.11 16:26:39.
