data_PCOD9365088
_publ_section_title
;
Structure prediction by ZEFSAII (Michael W. Deem and Ramdas Pophale) SiO2 
 PCOD9365088
Probable space group: A M A 2
;
_chemical_formula_sum "Si O2"
_cell_formula_units_Z 36
_cell_length_a 18.191805
_cell_length_b 10.691945
_cell_length_c 9.180563
_cell_angle_alpha 90.000000
_cell_angle_beta 90.000000
_cell_angle_gamma 90.000000
_cell_volume 1785.672553
_symmetry_space_group_name_H-M "A M A 2"
_symmetry_group_IT_number 40
_symmetry_cell_setting 'orthorhombic'
loop_
_space_group_symop_operation_xyz
x,y,z
-x,-y,z
1/2-x,y,z
1/2+x,-y,z
x,1/2+y,1/2+z
-x,1/2-y,1/2+z
1/2-x,1/2+y,1/2+z
1/2+x,1/2-y,1/2+z
loop_
_atom_site_type_symbol
_atom_site_label
_atom_site_fract_x
_atom_site_fract_y
_atom_site_fract_z
Si Si1 0.591238 0.298115 0.902710
Si Si2 0.510355 0.148762 0.650646
Si Si3 0.750000 0.472403 0.157222
Si Si4 0.372094 0.433395 0.934592
Si Si5 0.750000 0.670204 0.412290
Si Si6 0.750000 0.182143 0.233977
O O1 0.541262 0.219921 0.790656
O O2 0.589817 0.445514 0.863452
O O3 0.675118 0.249675 0.892732
O O4 0.560581 0.293494 0.068995
O O5 0.570719 0.151063 0.521291
O O6 0.500000 0.000000 0.682237
O O7 0.750000 0.560301 0.296589
O O8 0.680423 0.506964 0.058289
O O9 0.750000 0.618715 0.576112
O O10 0.320964 0.359221 0.824648
O O11 0.750000 0.829149 0.702875
#
# Coordination Sequence:
#
# PCOD9365088 Si02
#       6
#     8   8   4   8   4   4
#     4  11  23  45  69  95 134 172 219 276 327 398
#     4  10  24  43  67  96 133 176 218 269 339 391
#     4  11  21  41  64  92 134 175 217 269 324 392
#     4  10  22  43  66  92 132 177 215 268 332 390
#     4  12  23  40  69  95 130 172 219 273 328 393
#     4  11  24  39  67 101 130 171 228 268 326 389
#
# _framework density 20.160471000000001
#
# number of rings (size 3 to 8) (size 9 to 14) (size 15 to 20)
#    0.000    1.333    4.444    0.667    3.111    1.778 
#    4.000    0.000    0.000    0.000    0.000    0.000 
#    0.000    0.000    0.000    0.000    0.000    0.000 
#
# Total GULP energy -100572.211617 kJ/mol
# GULP energy per Si atom -5587.345090 kJ/mol
# Density = 2.011458 g / cm^3
# Si number density = 20.160471 Si / 1000 Ang^3
#
#
#
# Elastic Constant Matrix: (Units=GPa)
#
#
# Indices 1 2 3 4 5 6 
#
# 1 100.7374 36.4461 41.9186 0.0000 0.0000 0.0000
# 2 36.4461 86.1941 71.5523 0.0000 0.0000 0.0000
# 3 41.9186 71.5523 113.3365 0.0000 0.0000 0.0000
# 4 0.0000 0.0000 0.0000 37.7070 0.0000 0.0000
# 5 0.0000 0.0000 0.0000 0.0000 29.9683 0.0000
# 6 0.0000 0.0000 0.0000 0.0000 0.0000 28.9810
#
#
#
# Elastic Compliance Matrix: (Units=1/GPa)
#
#
# Indices 1 2 3 4 5 6 
#
# 1 0.012077 -0.002939 -0.002611 0.000000 0.000000 0.000000
# 2 -0.002939 0.025093 -0.014755 0.000000 0.000000 0.000000
# 3 -0.002611 -0.014755 0.019104 0.000000 0.000000 0.000000
# 4 0.000000 0.000000 0.000000 0.026520 0.000000 0.000000
# 5 0.000000 0.000000 0.000000 0.000000 0.033369 0.000000
# 6 0.000000 0.000000 0.000000 0.000000 0.000000 0.034505
#
#
# Mechanical properties :
#
#
# Convention : Reuss Voigt Hill
#
# Bulk Modulus (GPa) = 63.84125 66.67800 65.25963
# Shear Modulus (GPa) = 25.44547 29.35466 27.40006
#
# Velocity S-wave (km/s) = 3.55652 3.81996 3.69059
# Velocity P-wave (km/s) = 6.97140 7.25269 7.11344
#
# Compressibility (1/GPa) = 0.01566385
#
# Stress axis : x y z
#
# Youngs Moduli (GPa) = 82.80446 39.85233 52.34454
#
# Poissons Ratio (x) = 0.11711 0.13669
# Poissons Ratio (y) = 0.24333 0.77233
# Poissons Ratio (z) = 0.21624 0.58801
#
# Static dielectric constant tensor:
#      x y z
#    x 1.801880 0.000000 0.000000 
#    y 0.000000 1.699750 0.000000 
#    z 0.000000 0.000000 1.687990 
# 
# From -- ./inp_files/8062.got.cif
#   From: 2010.05.17/outbox.cif.g08.bks.cpg/sg40_5_cif.got.tgz:8062.got - 2010.06.03 18:35:42.
