data_PCOD9365667
_publ_section_title
;
Structure prediction by ZEFSAII (Michael W. Deem and Ramdas Pophale) SiO2 
 PCOD9365667
Probable space group: A M A 2
;
_chemical_formula_sum "Si O2"
_cell_formula_units_Z 32
_cell_length_a 9.000000
_cell_length_b 15.000000
_cell_length_c 24.000000
_cell_angle_alpha 90.000000
_cell_angle_beta 90.000000
_cell_angle_gamma 90.000000
_cell_volume 3240.000000
_symmetry_space_group_name_H-M "A M A 2"
_symmetry_group_IT_number 40
_symmetry_cell_setting 'orthorhombic'
loop_
_space_group_symop_operation_xyz
x,y,z
-x,-y,z
1/2-x,y,z
1/2+x,-y,z
x,1/2+y,1/2+z
-x,1/2-y,1/2+z
1/2-x,1/2+y,1/2+z
1/2+x,1/2-y,1/2+z
loop_
_atom_site_type_symbol
_atom_site_label
_atom_site_fract_x
_atom_site_fract_y
_atom_site_fract_z
Si Si1 0.928469 0.232124 0.483970
Si Si2 0.073654 0.348650 0.794102
Si Si3 0.070908 0.094801 0.177196
Si Si4 0.425573 0.906056 0.939054
Si Si5 0.429864 0.262384 0.109501
Si Si6 0.573550 0.590036 0.194827
Si Si7 0.427302 0.087812 0.405039
Si Si8 0.923456 0.164878 0.814518
O O1 0.750000 0.222733 0.477248
O O2 0.972924 0.210973 0.547476
O O3 0.981791 0.331492 0.471189
O O4 0.015716 0.170655 0.440801
O O5 0.250000 0.364663 0.792122
O O6 0.996745 0.370864 0.735548
O O7 0.996004 0.402845 0.843559
O O8 0.034676 0.247216 0.809942
O O9 0.250000 0.090636 0.181989
O O10 0.028622 0.163701 0.128658
O O11 0.000000 0.000000 0.165756
O O12 0.250000 0.903411 0.952679
O O13 0.438767 0.884664 0.872939
O O14 0.500000 0.000000 0.950586
O O15 0.250000 0.264289 0.110203
O O16 0.483229 0.328656 0.157560
O O17 0.500000 0.500000 0.175571
O O18 0.750000 0.584618 0.187793
O O19 0.546799 0.606013 0.260147
O O20 0.250000 0.083753 0.402954
O O21 0.500000 0.000000 0.431115
O O22 0.750000 0.196792 0.810670
#
# Coordination Sequence:
#
# PCOD9365667 Si02
#       8
#     8   8   8   8   8   8   8   8
#     4  11  23  42  65  92 123 161 210 260 311 365
#     4  12  23  37  62  95 126 160 201 250 308 371
#     4  11  22  41  64  90 125 163 203 251 305 366
#     4  11  23  39  62  92 125 165 205 251 309 366
#     4   9  21  41  64  86 121 165 203 250 307 360
#     4  10  20  38  61  89 121 160 198 241 298 358
#     4  12  25  43  65  92 125 164 206 253 311 372
#     4  10  20  37  62  88 124 162 197 244 307 368
#
# _framework density 9.8765429999999999
#
# number of rings (size 3 to 8) (size 9 to 14) (size 15 to 20)
#    0.000    1.250    2.500    4.125    0.000    2.000 
#    0.000    6.250    0.000    0.000    0.000    0.000 
#    0.000    0.000    0.000    0.000    0.000    0.000 
#
# Total GULP energy -178765.326842 kJ/mol
# GULP energy per Si atom -5586.416464 kJ/mol
# Density = 0.985406 g / cm^3
# Si number density = 9.876543 Si / 1000 Ang^3
#
#
#
# Elastic Constant Matrix: (Units=GPa)
#
#
# Indices 1 2 3 4 5 6 
#
# 1 91.9163 21.5532 7.9849 0.0000 0.0000 0.0000
# 2 21.5532 78.9072 -15.4363 0.0000 0.0000 0.0000
# 3 7.9849 -15.4363 46.3953 0.0000 0.0000 0.0000
# 4 0.0000 0.0000 0.0000 -25.9360 0.0000 0.0000
# 5 0.0000 0.0000 0.0000 0.0000 9.1845 0.0000
# 6 0.0000 0.0000 0.0000 0.0000 0.0000 31.2927
#
#
#
# Elastic Compliance Matrix: (Units=1/GPa)
#
#
# Indices 1 2 3 4 5 6 
#
# 1 0.012107 -0.003973 -0.003406 0.000000 0.000000 0.000000
# 2 -0.003973 0.014859 0.005628 0.000000 0.000000 0.000000
# 3 -0.003406 0.005628 0.024012 0.000000 0.000000 0.000000
# 4 0.000000 0.000000 0.000000 -0.038556 0.000000 0.000000
# 5 0.000000 0.000000 0.000000 0.000000 0.108879 0.000000
# 6 0.000000 0.000000 0.000000 0.000000 0.000000 0.031956
#
#
# Mechanical properties :
#
#
# Convention : Reuss Voigt Hill
#
# Bulk Modulus (GPa) = 21.06308 27.26917 24.16613
# Shear Modulus (GPa) = 28.97125 16.44938 22.71031
#
# Velocity S-wave (km/s) = 3.83387 2.88887 3.39442
# Velocity P-wave (km/s) = 5.50312 4.99624 5.25580
#
# Compressibility (1/GPa) = 0.04747643
#
# Stress axis : x y z
#
# Youngs Moduli (GPa) = 82.59699 67.29787 41.64510
#
# Poissons Ratio (x) = 0.26739 0.14183
# Poissons Ratio (y) = 0.32818 -0.23437
# Poissons Ratio (z) = 0.28129 -0.37873
#
# Static dielectric constant tensor:
#      x y z
#    x 1.654510 0.000000 0.000000 
#    y 0.000000 1.822350 0.000000 
#    z 0.000000 0.000000 1.699060 
# 
# From -- ./inp_files/24229.got.cif
#   From: 2010.05.17/outbox.ucp.g08.bks.cvg/sg40_13_cif.got.tgz:24229.got - 2010.06.11 16:26:39.
