data_PCOD9365694
_publ_section_title
;
Structure prediction by ZEFSAII (Michael W. Deem and Ramdas Pophale) SiO2 
 PCOD9365694
Probable space group: A M A 2
;
_chemical_formula_sum "Si O2"
_cell_formula_units_Z 32
_cell_length_a 9.000000
_cell_length_b 24.000000
_cell_length_c 15.000000
_cell_angle_alpha 90.000000
_cell_angle_beta 90.000000
_cell_angle_gamma 90.000000
_cell_volume 3240.000000
_symmetry_space_group_name_H-M "A M A 2"
_symmetry_group_IT_number 40
_symmetry_cell_setting 'orthorhombic'
loop_
_space_group_symop_operation_xyz
x,y,z
-x,-y,z
1/2-x,y,z
1/2+x,-y,z
x,1/2+y,1/2+z
-x,1/2-y,1/2+z
1/2-x,1/2+y,1/2+z
1/2+x,1/2-y,1/2+z
loop_
_atom_site_type_symbol
_atom_site_label
_atom_site_fract_x
_atom_site_fract_y
_atom_site_fract_z
Si Si1 0.926851 0.255752 0.777120
Si Si2 0.423648 0.644206 0.333440
Si Si3 0.576060 0.557043 0.669162
Si Si4 0.425181 0.440042 0.196409
Si Si5 0.927285 0.882590 0.333786
Si Si6 0.075476 0.238757 0.586772
Si Si7 0.925477 0.627184 0.016131
Si Si8 0.081470 0.859733 0.004790
O O1 0.750000 0.247439 0.782594
O O2 0.961131 0.317558 0.811974
O O3 0.008983 0.206169 0.827862
O O4 0.983169 0.249689 0.676189
O O5 0.250000 0.645636 0.316244
O O6 0.503169 0.605026 0.262144
O O7 0.463562 0.622764 0.431411
O O8 0.500000 0.500000 0.639031
O O9 0.750000 0.547991 0.688209
O O10 0.492538 0.579793 0.755718
O O11 0.565143 0.604018 0.593400
O O12 0.500000 0.500000 0.206141
O O13 0.250000 0.444315 0.214173
O O14 0.445860 0.415301 0.097541
O O15 0.750000 0.888269 0.339386
O O16 0.005106 0.896514 0.426343
O O17 0.250000 0.229760 0.607533
O O18 0.065062 0.294865 0.529310
O O19 0.009578 0.184671 0.539151
O O20 0.750000 0.638211 0.006077
O O21 0.250000 0.867948 0.970031
#
# Coordination Sequence:
#
# PCOD9365694 Si02
#       8
#     8   8   8   8   8   8   8   8
#     4  11  22  38  62  93 130 168 206 256 315 375
#     4  12  25  40  65  96 128 168 210 257 312 379
#     4  11  24  44  67  92 124 166 213 264 316 373
#     4  11  25  45  67  91 123 164 211 265 316 371
#     4  11  24  41  65  95 129 168 210 261 313 373
#     4  11  21  37  64  95 127 166 208 255 314 377
#     4  11  24  41  64  94 129 168 207 257 315 376
#     4  10  23  42  64  92 129 167 207 261 314 371
#
# _framework density 9.8765429999999999
#
# number of rings (size 3 to 8) (size 9 to 14) (size 15 to 20)
#    0.000    1.000    2.500    4.125    0.000    9.000 
#    0.000    2.500    0.000    0.000    0.000    0.000 
#    0.000    0.000    0.000    0.000    0.000    0.000 
#
# Total GULP energy -178994.293748 kJ/mol
# GULP energy per Si atom -5593.571680 kJ/mol
# Density = 0.985406 g / cm^3
# Si number density = 9.876543 Si / 1000 Ang^3
#
#
#
# Elastic Constant Matrix: (Units=GPa)
#
#
# Indices 1 2 3 4 5 6 
#
# 1 58.0406 17.7761 18.2615 0.0000 0.0000 0.0000
# 2 17.7761 36.3733 -17.8909 0.0000 0.0000 0.0000
# 3 18.2615 -17.8909 54.4384 0.0000 0.0000 0.0000
# 4 0.0000 0.0000 0.0000 -31.4900 0.0000 0.0000
# 5 0.0000 0.0000 0.0000 0.0000 30.6976 0.0000
# 6 0.0000 0.0000 0.0000 0.0000 0.0000 49.5376
#
#
#
# Elastic Compliance Matrix: (Units=1/GPa)
#
#
# Indices 1 2 3 4 5 6 
#
# 1 0.029964 -0.023364 -0.017730 0.000000 0.000000 0.000000
# 2 -0.023364 0.051012 0.024603 0.000000 0.000000 0.000000
# 3 -0.017730 0.024603 0.032402 0.000000 0.000000 0.000000
# 4 0.000000 0.000000 0.000000 -0.031756 0.000000 0.000000
# 5 0.000000 0.000000 0.000000 0.000000 0.032576 0.000000
# 6 0.000000 0.000000 0.000000 0.000000 0.000000 0.020187
#
#
# Mechanical properties :
#
#
# Convention : Reuss Voigt Hill
#
# Bulk Modulus (GPa) = 12.43858 20.57173 16.50515
# Shear Modulus (GPa) = 25.75110 18.46276 22.10693
#
# Velocity S-wave (km/s) = 3.61453 3.06057 3.34902
# Velocity P-wave (km/s) = 4.87139 4.78816 4.82995
#
# Compressibility (1/GPa) = 0.08039502
#
# Stress axis : x y z
#
# Youngs Moduli (GPa) = 33.37389 19.60308 30.86187
#
# Poissons Ratio (x) = 0.45801 0.54718
# Poissons Ratio (y) = 0.77976 -0.75928
# Poissons Ratio (z) = 0.59172 -0.48229
#
# Static dielectric constant tensor:
#      x y z
#    x 1.667740 0.000000 0.000000 
#    y 0.000000 1.660350 0.000000 
#    z 0.000000 0.000000 1.713290 
# 
# From -- ./inp_files/15620.got.cif
#   From: 2010.05.17/outbox.ucp.g08.bks.cvg/sg40_8_cif.got.tgz:15620.got - 2010.06.11 16:26:39.
