data_PCOD9365504
_publ_section_title
;
Structure prediction by ZEFSAII (Michael W. Deem and Ramdas Pophale) SiO2 
 PCOD9365504
Probable space group: A M A 2
;
_chemical_formula_sum "Si O2"
_cell_formula_units_Z 40
_cell_length_a 26.851841
_cell_length_b 12.739503
_cell_length_c 5.193416
_cell_angle_alpha 90.000000
_cell_angle_beta 90.000000
_cell_angle_gamma 90.000000
_cell_volume 1776.559118
_symmetry_space_group_name_H-M "A M A 2"
_symmetry_group_IT_number 40
_symmetry_cell_setting 'orthorhombic'
loop_
_space_group_symop_operation_xyz
x,y,z
-x,-y,z
1/2-x,y,z
1/2+x,-y,z
x,1/2+y,1/2+z
-x,1/2-y,1/2+z
1/2-x,1/2+y,1/2+z
1/2+x,1/2-y,1/2+z
loop_
_atom_site_type_symbol
_atom_site_label
_atom_site_fract_x
_atom_site_fract_y
_atom_site_fract_z
Si Si1 0.388171 0.861830 0.088640
Si Si2 0.556468 0.287927 0.502488
Si Si3 0.192369 0.190387 0.645995
Si Si4 0.353809 0.095802 0.171655
Si Si5 0.518455 0.598683 0.231559
O O1 0.416540 0.785286 0.289668
O O2 0.336948 0.796271 0.061116
O O3 0.372396 0.976765 0.185479
O O4 0.426851 0.890120 0.856423
O O5 0.598326 0.327081 0.701300
O O6 0.527863 0.394266 0.427145
O O7 0.513895 0.209383 0.593281
O O8 0.250000 0.211509 0.698119
O O9 0.184483 0.116299 0.399619
O O10 0.168328 0.132039 0.894927
O O11 0.500000 0.500000 0.065432
#
# Coordination Sequence:
#
# PCOD9365504 Si02
#       5
#     8   8   8   8   8
#     4  11  25  42  68  98 136 181 226 284 338 408
#     4  11  24  39  63  99 139 179 228 271 335 403
#     4  11  26  47  71 100 134 174 231 292 347 407
#     4  11  25  45  71 101 136 178 225 282 346 406
#     4  12  23  38  63  99 135 183 224 271 331 407
#
# _framework density 22.515436999999999
#
# number of rings (size 3 to 8) (size 9 to 14) (size 15 to 20)
#    0.000    0.800    6.000    0.600    2.800    4.000 
#    0.000    0.000    0.000    0.000    0.000    0.000 
#    0.000    0.000    0.000    0.000    0.000    0.000 
#
# Total GULP energy -111421.570943 kJ/mol
# GULP energy per Si atom -5571.078547 kJ/mol
# Density = 2.246419 g / cm^3
# Si number density = 22.515437 Si / 1000 Ang^3
#
#
#
# Elastic Constant Matrix: (Units=GPa)
#
#
# Indices 1 2 3 4 5 6 
#
# 1 110.3507 47.3273 7.4713 0.0000 0.0000 0.0000
# 2 47.3273 112.6770 9.2737 0.0000 0.0000 0.0000
# 3 7.4713 9.2737 65.4726 0.0000 0.0000 0.0000
# 4 0.0000 0.0000 0.0000 18.9385 0.0000 0.0000
# 5 0.0000 0.0000 0.0000 0.0000 26.4647 0.0000
# 6 0.0000 0.0000 0.0000 0.0000 0.0000 28.7764
#
#
#
# Elastic Compliance Matrix: (Units=1/GPa)
#
#
# Indices 1 2 3 4 5 6 
#
# 1 0.011077 -0.004602 -0.000612 0.000000 0.000000 0.000000
# 2 -0.004602 0.010892 -0.001018 0.000000 0.000000 0.000000
# 3 -0.000612 -0.001018 0.015488 0.000000 0.000000 0.000000
# 4 0.000000 0.000000 0.000000 0.052803 0.000000 0.000000
# 5 0.000000 0.000000 0.000000 0.000000 0.037786 0.000000
# 6 0.000000 0.000000 0.000000 0.000000 0.000000 0.034751
#
#
# Mechanical properties :
#
#
# Convention : Reuss Voigt Hill
#
# Bulk Modulus (GPa) = 40.01206 46.29386 43.15296
# Shear Modulus (GPa) = 27.23442 29.79778 28.51610
#
# Velocity S-wave (km/s) = 3.48169 3.64186 3.56267
# Velocity P-wave (km/s) = 5.82858 6.18787 6.01091
#
# Compressibility (1/GPa) = 0.02499246
#
# Stress axis : x y z
#
# Youngs Moduli (GPa) = 90.27436 91.81225 64.56800
#
# Poissons Ratio (x) = 0.42256 0.03953
# Poissons Ratio (y) = 0.41548 0.06570
# Poissons Ratio (z) = 0.05526 0.09342
#
# Static dielectric constant tensor:
#      x y z
#    x 1.841630 0.000000 0.000000 
#    y 0.000000 1.801290 0.000000 
#    z 0.000000 0.000000 1.979650 
# 
# From -- ./inp_files/2946.got.cif
#   From: 2010.05.17/outbox.cif.g08.bks.cpg/sg40_2_cif.got.tgz:2946.got - 2010.06.03 18:35:42.
