data_PCOD9365385
_publ_section_title
;
Structure prediction by ZEFSAII (Michael W. Deem and Ramdas Pophale) SiO2 
 PCOD9365385
Probable space group: A M A 2
;
_chemical_formula_sum "Si O2"
_cell_formula_units_Z 40
_cell_length_a 14.142002
_cell_length_b 11.103834
_cell_length_c 11.867502
_cell_angle_alpha 90.000000
_cell_angle_beta 90.000000
_cell_angle_gamma 90.000000
_cell_volume 1863.559092
_symmetry_space_group_name_H-M "A M A 2"
_symmetry_group_IT_number 40
_symmetry_cell_setting 'orthorhombic'
loop_
_space_group_symop_operation_xyz
x,y,z
-x,-y,z
1/2-x,y,z
1/2+x,-y,z
x,1/2+y,1/2+z
-x,1/2-y,1/2+z
1/2-x,1/2+y,1/2+z
1/2+x,1/2-y,1/2+z
loop_
_atom_site_type_symbol
_atom_site_label
_atom_site_fract_x
_atom_site_fract_y
_atom_site_fract_z
Si Si1 0.506257 0.161516 0.684120
Si Si2 0.144184 0.037791 0.794863
Si Si3 0.913777 0.411736 0.753771
Si Si4 0.358528 0.677760 0.998327
Si Si5 0.110239 0.461217 0.540844
O O1 0.585403 0.069471 0.732419
O O2 0.549412 0.293638 0.686904
O O3 0.448479 0.128582 0.570268
O O4 0.419332 0.154700 0.772275
O O5 0.250000 0.042588 0.751734
O O6 0.148580 0.019546 0.927561
O O7 0.868873 0.361318 0.868302
O O8 0.856035 0.488598 0.661223
O O9 0.000000 0.500000 0.786588
O O10 0.250000 0.646007 0.030447
O O11 0.370459 0.820484 0.021405
O O12 0.000000 0.500000 0.539196
#
# Coordination Sequence:
#
# PCOD9365385 Si02
#       5
#     8   8   8   8   8
#     4  11  23  43  69  94 146 186 235 299 365 422
#     4  11  23  42  70 100 134 186 243 296 360 434
#     4  11  24  43  71  99 139 192 237 296 370 430
#     4  12  25  43  67 100 143 190 240 297 355 429
#     4  11  20  43  70  98 133 182 233 295 362 425
#
# _framework density 21.464303999999998
#
# number of rings (size 3 to 8) (size 9 to 14) (size 15 to 20)
#    0.000    0.800    8.000    1.200    2.800    1.600 
#    0.000    0.000    0.000    0.000    0.000    0.000 
#    0.000    0.000    0.000    0.000    0.000    0.000 
#
# Total GULP energy -111442.898323 kJ/mol
# GULP energy per Si atom -5572.144916 kJ/mol
# Density = 2.141545 g / cm^3
# Si number density = 21.464304 Si / 1000 Ang^3
#
#
#
# Elastic Constant Matrix: (Units=GPa)
#
#
# Indices 1 2 3 4 5 6 
#
# 1 132.5725 11.9304 40.3418 0.0000 0.0000 0.0000
# 2 11.9304 82.4813 51.3840 0.0000 0.0000 0.0000
# 3 40.3418 51.3840 189.7878 0.0000 0.0000 0.0000
# 4 0.0000 0.0000 0.0000 40.8454 0.0000 0.0000
# 5 0.0000 0.0000 0.0000 0.0000 14.2133 0.0000
# 6 0.0000 0.0000 0.0000 0.0000 0.0000 30.9997
#
#
#
# Elastic Compliance Matrix: (Units=1/GPa)
#
#
# Indices 1 2 3 4 5 6 
#
# 1 0.008066 -0.000119 -0.001682 0.000000 0.000000 0.000000
# 2 -0.000119 0.014586 -0.003924 0.000000 0.000000 0.000000
# 3 -0.001682 -0.003924 0.006689 0.000000 0.000000 0.000000
# 4 0.000000 0.000000 0.000000 0.024483 0.000000 0.000000
# 5 0.000000 0.000000 0.000000 0.000000 0.070357 0.000000
# 6 0.000000 0.000000 0.000000 0.000000 0.000000 0.032258
#
#
# Mechanical properties :
#
#
# Convention : Reuss Voigt Hill
#
# Bulk Modulus (GPa) = 55.89465 68.01711 61.95588
# Shear Modulus (GPa) = 28.76030 37.29070 33.02550
#
# Velocity S-wave (km/s) = 3.66445 4.17266 3.92679
# Velocity P-wave (km/s) = 6.63337 7.41431 7.03469
#
# Compressibility (1/GPa) = 0.01789080
#
# Stress axis : x y z
#
# Youngs Moduli (GPa) = 123.98251 68.56117 149.49962
#
# Poissons Ratio (x) = 0.00813 0.25151
# Poissons Ratio (y) = 0.01470 0.58660
# Poissons Ratio (z) = 0.20858 0.26902
#
# Static dielectric constant tensor:
#      x y z
#    x 1.782320 0.000000 0.000000 
#    y 0.000000 1.827930 0.000000 
#    z 0.000000 0.000000 1.867430 
# 
# From -- ./inp_files/11946.got.cif
#   From: 2010.05.17/outbox.cif.g08.bks.cpg/sg40_6_cif.got.tgz:11946.got - 2010.06.03 18:35:42.
