data_PCOD9365915
_publ_section_title
;
Structure prediction by ZEFSAII (Michael W. Deem and Ramdas Pophale) SiO2 
 PCOD9365915
Probable space group: A B A 2
;
_chemical_formula_sum "Si O2"
_cell_formula_units_Z 56
_cell_length_a 8.993072
_cell_length_b 15.995002
_cell_length_c 19.194070
_cell_angle_alpha 90.000000
_cell_angle_beta 90.000000
_cell_angle_gamma 90.000000
_cell_volume 2760.955733
_symmetry_space_group_name_H-M "A B A 2"
_symmetry_group_IT_number 41
_symmetry_cell_setting 'orthorhombic'
loop_
_space_group_symop_operation_xyz
x,y,z
-x,-y,z
1/2-x,y,1/2+z
1/2+x,-y,1/2+z
x,1/2+y,1/2+z
-x,1/2-y,1/2+z
1/2-x,1/2+y,z
1/2+x,1/2-y,z
loop_
_atom_site_type_symbol
_atom_site_label
_atom_site_fract_x
_atom_site_fract_y
_atom_site_fract_z
Si Si1 0.000000 0.000000 0.440610
Si Si2 0.142044 0.250864 0.280849
Si Si3 0.882359 0.824710 0.694661
Si Si4 0.137200 0.832267 0.104189
Si Si5 0.389079 0.836407 0.870903
Si Si6 0.500000 0.500000 0.098631
Si Si7 0.630777 0.744816 0.519799
Si Si8 0.293404 0.591051 0.552272
O O1 0.086219 0.932592 0.392836
O O2 0.895208 0.950708 0.494667
O O3 0.249513 0.176631 0.250716
O O4 0.239243 0.311457 0.330063
O O5 0.044673 0.310030 0.228080
O O6 0.020339 0.199852 0.324015
O O7 0.844146 0.733342 0.664440
O O8 0.860322 0.889991 0.630469
O O9 0.074444 0.919023 0.133273
O O10 0.292631 0.831854 0.062329
O O11 0.008633 0.789274 0.056745
O O12 0.395828 0.785321 0.942922
O O13 0.358956 0.538318 0.058078
O O14 0.751577 0.818079 0.523350
#
# Coordination Sequence:
#
# PCOD9365915 Si02
#       8
#     4   8   8   8   8   4   8   8
#     4  12  24  40  61  94 125 146 194 264 324 354
#     4  10  22  39  63  83 118 169 208 239 276 370
#     4  10  20  40  61  88 114 156 213 244 293 365
#     4  10  19  33  58  86 117 148 189 254 304 343
#     4  11  22  39  61  88 119 162 206 244 298 363
#     4  10  20  32  51  90 123 148 178 234 324 364
#     4  10  19  35  59  84 113 154 199 241 289 355
#     4  10  22  37  61  90 122 155 195 261 314 358
#
# _framework density 20.282831000000002
#
# number of rings (size 3 to 8) (size 9 to 14) (size 15 to 20)
#    0.000    1.714    0.000    6.857    0.000    2.286 
#    0.000    7.857    0.000    1.714    0.000    0.000 
#    0.000    0.000    0.000    0.000    0.000    0.000 
#
# Total GULP energy -155984.283762 kJ/mol
# GULP energy per Si atom -5570.867277 kJ/mol
# Density = 2.023667 g / cm^3
# Si number density = 20.282831 Si / 1000 Ang^3
#
#
#
# Elastic Constant Matrix: (Units=GPa)
#
#
# Indices 1 2 3 4 5 6 
#
# 1 94.8691 26.8309 31.6043 0.0000 0.0000 0.0000
# 2 26.8309 65.3941 9.9537 0.0000 0.0000 0.0000
# 3 31.6043 9.9537 54.3608 0.0000 0.0000 0.0000
# 4 0.0000 0.0000 0.0000 24.2533 0.0000 0.0000
# 5 0.0000 0.0000 0.0000 0.0000 30.6486 0.0000
# 6 0.0000 0.0000 0.0000 0.0000 0.0000 27.0232
#
#
#
# Elastic Compliance Matrix: (Units=1/GPa)
#
#
# Indices 1 2 3 4 5 6 
#
# 1 0.014383 -0.004761 -0.007490 0.000000 0.000000 0.000000
# 2 -0.004761 0.017306 -0.000401 0.000000 0.000000 0.000000
# 3 -0.007490 -0.000401 0.022824 0.000000 0.000000 0.000000
# 4 0.000000 0.000000 0.000000 0.041232 0.000000 0.000000
# 5 0.000000 0.000000 0.000000 0.000000 0.032628 0.000000
# 6 0.000000 0.000000 0.000000 0.000000 0.000000 0.037005
#
#
# Mechanical properties :
#
#
# Convention : Reuss Voigt Hill
#
# Bulk Modulus (GPa) = 34.23647 39.04466 36.64056
# Shear Modulus (GPa) = 24.94797 26.13402 25.54100
#
# Velocity S-wave (km/s) = 3.51095 3.59343 3.55243
# Velocity P-wave (km/s) = 5.77510 6.04226 5.91019
#
# Compressibility (1/GPa) = 0.02920862
#
# Stress axis : x y z
#
# Youngs Moduli (GPa) = 69.52882 57.78225 43.81444
#
# Poissons Ratio (x) = 0.27510 0.32817
# Poissons Ratio (y) = 0.33103 0.01757
# Poissons Ratio (z) = 0.52077 0.02317
#
# Static dielectric constant tensor:
#      x y z
#    x 1.820530 0.000000 0.000000 
#    y 0.000000 1.747850 0.000000 
#    z 0.000000 0.000000 1.774920 
# 
# From -- ./inp_files/11259.got.cif
#   From: 2010.05.17/outbox.cif.g08.bks.cpg/sg41_6_cif.got.tgz:11259.got - 2010.06.03 18:54:24.
