data_PCOD9365853
_publ_section_title
;
Structure prediction by ZEFSAII (Michael W. Deem and Ramdas Pophale) SiO2 
 PCOD9365853
Probable space group: A B A 2
;
_chemical_formula_sum "Si O2"
_cell_formula_units_Z 60
_cell_length_a 16.766863
_cell_length_b 13.592572
_cell_length_c 14.154047
_cell_angle_alpha 90.000000
_cell_angle_beta 90.000000
_cell_angle_gamma 90.000000
_cell_volume 3225.775145
_symmetry_space_group_name_H-M "A B A 2"
_symmetry_group_IT_number 41
_symmetry_cell_setting 'orthorhombic'
loop_
_space_group_symop_operation_xyz
x,y,z
-x,-y,z
1/2-x,y,1/2+z
1/2+x,-y,1/2+z
x,1/2+y,1/2+z
-x,1/2-y,1/2+z
1/2-x,1/2+y,z
1/2+x,1/2-y,z
loop_
_atom_site_type_symbol
_atom_site_label
_atom_site_fract_x
_atom_site_fract_y
_atom_site_fract_z
Si Si1 0.282304 0.885264 0.460010
Si Si2 0.267004 0.505138 0.633892
Si Si3 0.500000 0.500000 0.364771
Si Si4 0.461682 0.392456 0.878978
Si Si5 0.504057 0.300505 0.489139
Si Si6 0.188278 0.173703 0.494014
Si Si7 0.059430 0.408846 0.158724
Si Si8 0.823006 0.980839 0.328686
O O1 0.282451 0.938659 0.560900
O O2 0.369333 0.893699 0.412295
O O3 0.263237 0.772124 0.478229
O O4 0.215710 0.933885 0.393440
O O5 0.280875 0.605361 0.577020
O O6 0.351679 0.451922 0.651394
O O7 0.224411 0.523727 0.732153
O O8 0.494069 0.399712 0.426486
O O9 0.583304 0.494634 0.310394
O O10 0.500000 0.500000 0.897429
O O11 0.506065 0.301481 0.931573
O O12 0.460619 0.377329 0.765660
O O13 0.597152 0.299456 0.517839
O O14 0.453288 0.322243 0.582887
O O15 0.186602 0.113900 0.395890
O O16 0.000000 0.500000 0.134537
#
# Coordination Sequence:
#
# PCOD9365853 Si02
#       8
#     8   8   4   8   8   8   8   8
#     4  10  21  41  58  90 128 159 203 261 309 368
#     4  11  21  39  62  92 119 164 206 258 307 375
#     4  10  20  42  64  96 120 164 214 266 308 378
#     4  10  23  41  60  93 133 162 204 262 316 373
#     4  10  18  39  67  89 122 163 209 258 299 373
#     4   9  20  38  63  87 120 158 203 255 305 365
#     4  11  19  39  68  90 114 165 221 248 301 383
#     4  10  21  40  64  87 124 159 209 260 311 363
#
# _framework density 18.600180000000002
#
# number of rings (size 3 to 8) (size 9 to 14) (size 15 to 20)
#    0.000    1.867    3.333    1.600    0.000    1.067 
#   18.000    0.000    0.000    0.000    0.000    0.000 
#    0.000    0.000    0.000    0.000    0.000    0.000 
#
# Total GULP energy -167379.619048 kJ/mol
# GULP energy per Si atom -5579.320635 kJ/mol
# Density = 1.855785 g / cm^3
# Si number density = 18.600180 Si / 1000 Ang^3
#
#
#
# Elastic Constant Matrix: (Units=GPa)
#
#
# Indices 1 2 3 4 5 6 
#
# 1 67.0487 26.2230 44.0456 0.0000 0.0000 0.0000
# 2 26.2230 129.3204 56.4384 0.0000 0.0000 0.0000
# 3 44.0456 56.4384 128.7102 0.0000 0.0000 0.0000
# 4 0.0000 0.0000 0.0000 12.0042 0.0000 0.0000
# 5 0.0000 0.0000 0.0000 0.0000 79.3908 0.0000
# 6 0.0000 0.0000 0.0000 0.0000 0.0000 -0.2031
#
#
#
# Elastic Compliance Matrix: (Units=1/GPa)
#
#
# Indices 1 2 3 4 5 6 
#
# 1 0.019410 -0.001282 -0.006080 0.000000 0.000000 0.000000
# 2 -0.001282 0.009647 -0.003791 0.000000 0.000000 0.000000
# 3 -0.006080 -0.003791 0.011513 0.000000 0.000000 0.000000
# 4 0.000000 0.000000 0.000000 0.083304 0.000000 0.000000
# 5 0.000000 0.000000 0.000000 0.000000 0.012596 0.000000
# 6 0.000000 0.000000 0.000000 0.000000 0.000000 -4.924277
#
#
# Mechanical properties :
#
#
# Convention : Reuss Voigt Hill
#
# Bulk Modulus (GPa) = 54.75743 64.27706 59.51724
# Shear Modulus (GPa) = -1.05055 31.46321 15.20633
#
# Velocity S-wave (km/s) = -0.75235 4.11731 2.86236
# Velocity P-wave (km/s) = 5.36175 7.56540 6.55682
#
# Compressibility (1/GPa) = 0.01826236
#
# Stress axis : x y z
#
# Youngs Moduli (GPa) = 51.51947 103.65410 86.86196
#
# Poissons Ratio (x) = 0.13293 0.52812
# Poissons Ratio (y) = 0.06607 0.32933
# Poissons Ratio (z) = 0.31324 0.39300
#
# Static dielectric constant tensor:
#      x y z
#    x 1.643950 0.000000 0.000000 
#    y 0.000000 1.706870 0.000000 
#    z 0.000000 0.000000 1.625530 
# 
# From -- ./inp_files/8524.got.cif
#   From: 2010.05.17/outbox.cif.g08.bks.cpg/sg41_5_cif.got.tgz:8524.got - 2010.06.03 18:54:24.
