data_PCOD9365628
_publ_section_title
;
Structure prediction by ZEFSAII (Michael W. Deem and Ramdas Pophale) SiO2 
 PCOD9365628
Probable space group: A M A 2
;
_chemical_formula_sum "Si O2"
_cell_formula_units_Z 32
_cell_length_a 9.000000
_cell_length_b 15.000000
_cell_length_c 24.000000
_cell_angle_alpha 90.000000
_cell_angle_beta 90.000000
_cell_angle_gamma 90.000000
_cell_volume 3240.000000
_symmetry_space_group_name_H-M "A M A 2"
_symmetry_group_IT_number 40
_symmetry_cell_setting 'orthorhombic'
loop_
_space_group_symop_operation_xyz
x,y,z
-x,-y,z
1/2-x,y,z
1/2+x,-y,z
x,1/2+y,1/2+z
-x,1/2-y,1/2+z
1/2-x,1/2+y,1/2+z
1/2+x,1/2-y,1/2+z
loop_
_atom_site_type_symbol
_atom_site_label
_atom_site_fract_x
_atom_site_fract_y
_atom_site_fract_z
Si Si1 0.424766 0.587197 0.837790
Si Si2 0.917217 0.626591 0.726029
Si Si3 0.914798 0.831261 0.763101
Si Si4 0.427857 0.401802 0.034113
Si Si5 0.070519 0.903810 0.097163
Si Si6 0.575159 0.094455 0.657104
Si Si7 0.071402 0.272608 0.496558
Si Si8 0.427690 0.287195 0.372744
O O1 0.500000 0.500000 0.863628
O O2 0.250000 0.578031 0.842782
O O3 0.471946 0.589986 0.772665
O O4 0.467380 0.682300 0.864177
O O5 0.750000 0.586443 0.729838
O O6 0.902522 0.728175 0.745650
O O7 0.967668 0.621019 0.661655
O O8 0.750000 0.871660 0.761762
O O9 0.015799 0.866856 0.713937
O O10 0.986551 0.838089 0.823884
O O11 0.500000 0.500000 0.027055
O O12 0.250000 0.409683 0.027947
O O13 0.461409 0.364257 0.096912
O O14 0.496503 0.324500 0.996773
O O15 0.250000 0.908817 0.095263
O O16 0.024915 0.833559 0.049163
O O17 0.000000 0.000000 0.085786
O O18 0.750000 0.087289 0.659934
O O19 0.500000 0.000000 0.652299
O O20 0.250000 0.260729 0.499896
O O21 0.038379 0.314827 0.435973
O O22 0.250000 0.294618 0.363685
#
# Coordination Sequence:
#
# PCOD9365628 Si02
#       8
#     8   8   8   8   8   8   8   8
#     4  10  19  31  49  74 103 134 167 206 255 311
#     4   9  18  32  51  77 106 135 167 207 259 318
#     4  10  19  33  55  80 106 137 174 218 269 324
#     4  10  21  36  57  86 117 148 182 224 275 335
#     4  10  21  36  55  79 107 140 179 224 272 322
#     4  10  20  34  53  79 110 140 173 216 269 328
#     4  10  21  39  59  78 107 148 190 233 279 325
#     4   9  20  37  54  73 101 140 182 222 266 317
#
# _framework density 9.8765429999999999
#
# number of rings (size 3 to 8) (size 9 to 14) (size 15 to 20)
#    0.000    2.250    0.000    2.625    0.000    6.500 
#    0.000    1.875    0.000    1.500    0.000    0.000 
#    0.000    0.000    0.000    0.000    0.000    0.000 
#
# Total GULP energy -178334.530121 kJ/mol
# GULP energy per Si atom -5572.954066 kJ/mol
# Density = 0.985406 g / cm^3
# Si number density = 9.876543 Si / 1000 Ang^3
#
#
#
# Elastic Constant Matrix: (Units=GPa)
#
#
# Indices 1 2 3 4 5 6 
#
# 1 23.8066 9.3860 27.6573 0.0000 0.0000 0.0000
# 2 9.3860 24.0622 24.3348 0.0000 0.0000 0.0000
# 3 27.6573 24.3348 90.0622 0.0000 0.0000 0.0000
# 4 0.0000 0.0000 0.0000 15.8587 0.0000 0.0000
# 5 0.0000 0.0000 0.0000 0.0000 21.5868 0.0000
# 6 0.0000 0.0000 0.0000 0.0000 0.0000 28.9029
#
#
#
# Elastic Compliance Matrix: (Units=1/GPa)
#
#
# Indices 1 2 3 4 5 6 
#
# 1 0.066208 -0.007243 -0.018375 0.000000 0.000000 0.000000
# 2 -0.007243 0.057978 -0.013441 0.000000 0.000000 0.000000
# 3 -0.018375 -0.013441 0.020378 0.000000 0.000000 0.000000
# 4 0.000000 0.000000 0.000000 0.063057 0.000000 0.000000
# 5 0.000000 0.000000 0.000000 0.000000 0.046325 0.000000
# 6 0.000000 0.000000 0.000000 0.000000 0.000000 0.034599
#
#
# Mechanical properties :
#
#
# Convention : Reuss Voigt Hill
#
# Bulk Modulus (GPa) = 15.04990 28.96523 22.00757
# Shear Modulus (GPa) = 12.85976 18.37321 15.61648
#
# Velocity S-wave (km/s) = 2.55429 3.05313 2.81478
# Velocity P-wave (km/s) = 4.04163 5.20810 4.66149
#
# Compressibility (1/GPa) = 0.06644561
#
# Stress axis : x y z
#
# Youngs Moduli (GPa) = 15.10401 17.24799 49.07238
#
# Poissons Ratio (x) = 0.12492 0.90170
# Poissons Ratio (y) = 0.10939 0.65960
# Poissons Ratio (z) = 0.27753 0.23184
#
# Static dielectric constant tensor:
#      x y z
#    x 1.667450 0.000000 0.000000 
#    y 0.000000 1.729370 0.000000 
#    z 0.000000 0.000000 1.741370 
# 
# From -- ./inp_files/24226.got.cif
#   From: 2010.05.17/outbox.ucp.g08.bks.cvg/sg40_13_cif.got.tgz:24226.got - 2010.06.11 16:26:39.
