data_PCOD9365065
_publ_section_title
;
Structure prediction by ZEFSAII (Michael W. Deem and Ramdas Pophale) SiO2 
 PCOD9365065
Probable space group: A M A 2
;
_chemical_formula_sum "Si O2"
_cell_formula_units_Z 36
_cell_length_a 8.888044
_cell_length_b 8.660327
_cell_length_c 20.671840
_cell_angle_alpha 90.000000
_cell_angle_beta 90.000000
_cell_angle_gamma 90.000000
_cell_volume 1591.181136
_symmetry_space_group_name_H-M "A M A 2"
_symmetry_group_IT_number 40
_symmetry_cell_setting 'orthorhombic'
loop_
_space_group_symop_operation_xyz
x,y,z
-x,-y,z
1/2-x,y,z
1/2+x,-y,z
x,1/2+y,1/2+z
-x,1/2-y,1/2+z
1/2-x,1/2+y,1/2+z
1/2+x,1/2-y,1/2+z
loop_
_atom_site_type_symbol
_atom_site_label
_atom_site_fract_x
_atom_site_fract_y
_atom_site_fract_z
Si Si1 0.079298 0.175391 0.731510
Si Si2 0.250000 0.225868 0.575203
Si Si3 0.250000 0.942602 0.195415
Si Si4 0.500000 0.500000 0.036640
Si Si5 0.750000 0.200257 0.673635
Si Si6 0.250000 0.779157 0.515447
Si Si7 0.750000 0.064868 0.952214
Si Si8 0.500000 0.500000 0.355205
O O1 0.250000 0.126567 0.705920
O O2 0.105696 0.358434 0.726214
O O3 0.073030 0.119114 0.805009
O O4 0.914148 0.139187 0.700307
O O5 0.250000 0.372395 0.622398
O O6 0.250000 0.303482 0.505186
O O7 0.394117 0.114160 0.578330
O O8 0.250000 0.122950 0.197137
O O9 0.394195 0.382877 0.997358
O O10 0.750000 0.213110 0.594965
O O11 0.250000 0.606457 0.486606
O O12 0.612274 0.080079 0.903900
#
# Coordination Sequence:
#
# PCOD9365065 Si02
#       8
#     8   4   4   4   4   4   4   4
#     4  10  25  42  67  97 145 179 242 315 347 431
#     4  11  22  44  69 108 142 192 229 310 378 450
#     4  10  22  42  68 103 149 182 243 311 370 443
#     4  10  24  39  62  96 158 175 228 288 380 454
#     4  12  22  42  76 105 145 198 239 309 386 443
#     4  11  24  44  69 112 144 188 241 304 384 460
#     4  12  24  44  84  96 146 194 248 312 356 452
#     4  12  24  47  70 102 134 193 262 288 364 438
#
# _framework density 22.624704999999999
#
# number of rings (size 3 to 8) (size 9 to 14) (size 15 to 20)
#    0.667    0.444    2.222    4.000    0.000    5.333 
#    0.000    0.000   48.889    0.000    0.000    0.000 
#    0.000    0.000    0.000    0.000    0.000    0.000 
#
# Total GULP energy -100300.948001 kJ/mol
# GULP energy per Si atom -5572.274889 kJ/mol
# Density = 2.257321 g / cm^3
# Si number density = 22.624705 Si / 1000 Ang^3
#
#
#
# Elastic Constant Matrix: (Units=GPa)
#
#
# Indices 1 2 3 4 5 6 
#
# 1 176.5482 71.3920 41.5757 0.0000 0.0000 0.0000
# 2 71.3920 102.3786 26.5274 0.0000 0.0000 0.0000
# 3 41.5757 26.5274 117.0759 0.0000 0.0000 0.0000
# 4 0.0000 0.0000 0.0000 34.4306 0.0000 0.0000
# 5 0.0000 0.0000 0.0000 0.0000 38.1480 0.0000
# 6 0.0000 0.0000 0.0000 0.0000 0.0000 39.9319
#
#
#
# Elastic Compliance Matrix: (Units=1/GPa)
#
#
# Indices 1 2 3 4 5 6 
#
# 1 0.008201 -0.005274 -0.001717 0.000000 0.000000 0.000000
# 2 -0.005274 0.013769 -0.001247 0.000000 0.000000 0.000000
# 3 -0.001717 -0.001247 0.009434 0.000000 0.000000 0.000000
# 4 0.000000 0.000000 0.000000 0.029044 0.000000 0.000000
# 5 0.000000 0.000000 0.000000 0.000000 0.026214 0.000000
# 6 0.000000 0.000000 0.000000 0.000000 0.000000 0.025043
#
#
# Mechanical properties :
#
#
# Convention : Reuss Voigt Hill
#
# Bulk Modulus (GPa) = 66.99208 74.99920 70.99564
# Shear Modulus (GPa) = 37.54989 39.60261 38.57625
#
# Velocity S-wave (km/s) = 4.07834 4.18833 4.13370
# Velocity P-wave (km/s) = 7.20081 7.52401 7.36418
#
# Compressibility (1/GPa) = 0.01492714
#
# Stress axis : x y z
#
# Youngs Moduli (GPa) = 121.93156 72.62953 106.00117
#
# Poissons Ratio (x) = 0.38305 0.18205
# Poissons Ratio (y) = 0.64307 0.13216
# Poissons Ratio (z) = 0.20941 0.09055
#
# Static dielectric constant tensor:
#      x y z
#    x 1.703340 0.000000 0.000000 
#    y 0.000000 1.854110 0.000000 
#    z 0.000000 0.000000 1.798520 
# 
# From -- ./inp_files/21884.got.cif
#   From: 2010.05.17/outbox.cif.g08.bks.cpg/sg40_11_cif.got.tgz:21884.got - 2010.06.03 18:35:42.
