data_PCOD9365649
_publ_section_title
;
Structure prediction by ZEFSAII (Michael W. Deem and Ramdas Pophale) SiO2 
 PCOD9365649
Probable space group: A M A 2
;
_chemical_formula_sum "Si O2"
_cell_formula_units_Z 32
_cell_length_a 30.000000
_cell_length_b 12.000000
_cell_length_c 9.000000
_cell_angle_alpha 90.000000
_cell_angle_beta 90.000000
_cell_angle_gamma 90.000000
_cell_volume 3240.000000
_symmetry_space_group_name_H-M "A M A 2"
_symmetry_group_IT_number 40
_symmetry_cell_setting 'orthorhombic'
loop_
_space_group_symop_operation_xyz
x,y,z
-x,-y,z
1/2-x,y,z
1/2+x,-y,z
x,1/2+y,1/2+z
-x,1/2-y,1/2+z
1/2-x,1/2+y,1/2+z
1/2+x,1/2-y,1/2+z
loop_
_atom_site_type_symbol
_atom_site_label
_atom_site_fract_x
_atom_site_fract_y
_atom_site_fract_z
Si Si1 0.802069 0.623386 0.176830
Si Si2 0.453855 0.449816 0.168157
Si Si3 0.017628 0.377509 0.481694
Si Si4 0.197817 0.911333 0.033079
Si Si5 0.134171 0.077389 0.687537
Si Si6 0.835736 0.343565 0.504661
Si Si7 0.573645 0.746313 0.974287
Si Si8 0.892282 0.201660 0.138311
O O1 0.750000 0.597435 0.152044
O O2 0.807921 0.627104 0.358555
O O3 0.834644 0.521968 0.131440
O O4 0.814031 0.734492 0.081908
O O5 0.500000 0.500000 0.102749
O O6 0.472052 0.381242 0.307014
O O7 0.414938 0.530346 0.232435
O O8 0.428231 0.371839 0.054948
O O9 0.064669 0.348321 0.556651
O O10 0.000000 0.500000 0.526322
O O11 0.975591 0.295890 0.497535
O O12 0.250000 0.884747 0.073588
O O13 0.154747 0.862844 0.121254
O O14 0.189951 0.044381 0.050082
O O15 0.160880 0.136075 0.824790
O O16 0.120962 0.175886 0.576254
O O17 0.888402 0.327732 0.542075
O O18 0.589425 0.721629 0.805832
#
# Coordination Sequence:
#
# PCOD9365649 Si02
#       8
#     8   8   8   8   8   8   8   8
#     4  10  20  38  65  94 118 162 224 266 320 397
#     4  11  21  39  63  88 124 173 216 258 318 384
#     4  11  21  38  63  92 126 174 215 263 319 389
#     4  10  22  41  63  91 128 168 211 273 339 392
#     4  10  21  39  60  89 126 167 205 263 324 386
#     4  10  19  38  64  90 118 164 215 263 316 390
#     4  11  22  37  60  94 129 165 216 262 317 398
#     4  11  23  40  61  94 135 166 212 269 334 394
#
# _framework density 9.8765429999999999
#
# number of rings (size 3 to 8) (size 9 to 14) (size 15 to 20)
#    0.000    1.500    1.250    7.125    0.000    1.500 
#    2.250    6.250    0.000    0.000    0.000    0.000 
#    0.000    0.000    0.000    0.000    0.000    0.000 
#
# Total GULP energy -178141.689303 kJ/mol
# GULP energy per Si atom -5566.927791 kJ/mol
# Density = 0.985406 g / cm^3
# Si number density = 9.876543 Si / 1000 Ang^3
#
#
#
# Elastic Constant Matrix: (Units=GPa)
#
#
# Indices 1 2 3 4 5 6 
#
# 1 175.8923 56.9169 27.5886 0.0000 0.0000 0.0000
# 2 56.9169 99.6120 49.6895 0.0000 0.0000 0.0000
# 3 27.5886 49.6895 17.4695 0.0000 0.0000 0.0000
# 4 0.0000 0.0000 0.0000 29.7309 0.0000 0.0000
# 5 0.0000 0.0000 0.0000 0.0000 19.6897 0.0000
# 6 0.0000 0.0000 0.0000 0.0000 0.0000 47.7895
#
#
#
# Elastic Compliance Matrix: (Units=1/GPa)
#
#
# Indices 1 2 3 4 5 6 
#
# 1 0.006971 -0.003601 -0.000765 0.000000 0.000000 0.000000
# 2 -0.003601 -0.022107 0.068568 0.000000 0.000000 0.000000
# 3 -0.000765 0.068568 -0.136580 0.000000 0.000000 0.000000
# 4 0.000000 0.000000 0.000000 0.033635 0.000000 0.000000
# 5 0.000000 0.000000 0.000000 0.000000 0.050788 0.000000
# 6 0.000000 0.000000 0.000000 0.000000 0.000000 0.020925
#
#
# Mechanical properties :
#
#
# Convention : Reuss Voigt Hill
#
# Bulk Modulus (GPa) = -42.89237 62.37375 9.74069
# Shear Modulus (GPa) = -27.39091 30.02727 1.31818
#
# Velocity S-wave (km/s) = -3.72783 3.90311 0.81779
# Velocity P-wave (km/s) = 6.34747 7.20817 2.41529
#
# Compressibility (1/GPa) = -0.02331417
#
# Stress axis : x y z
#
# Youngs Moduli (GPa) = 143.45898 -45.23450 -7.32170
#
# Poissons Ratio (x) = -0.16290 -0.00560
# Poissons Ratio (y) = 0.51663 0.50203
# Poissons Ratio (z) = 0.10978 3.10162
#
# Static dielectric constant tensor:
#      x y z
#    x 1.715410 0.000000 0.000000 
#    y 0.000000 1.778370 0.000000 
#    z 0.000000 0.000000 1.722690 
# 
# From -- ./inp_files/9420.got.cif
#   From: 2010.05.17/outbox.ucp.g08.bks.cvg/sg40_5_cif.got.tgz:9420.got - 2010.06.11 16:26:39.
