data_PCOD9365773
_publ_section_title
;
Structure prediction by ZEFSAII (Michael W. Deem and Ramdas Pophale) SiO2 
 PCOD9365773
Probable space group: A B A 2
;
_chemical_formula_sum "Si O2"
_cell_formula_units_Z 64
_cell_length_a 5.570358
_cell_length_b 17.730109
_cell_length_c 29.627971
_cell_angle_alpha 90.000000
_cell_angle_beta 90.000000
_cell_angle_gamma 90.000000
_cell_volume 2926.148915
_symmetry_space_group_name_H-M "A B A 2"
_symmetry_group_IT_number 41
_symmetry_cell_setting 'orthorhombic'
loop_
_space_group_symop_operation_xyz
x,y,z
-x,-y,z
1/2-x,y,1/2+z
1/2+x,-y,1/2+z
x,1/2+y,1/2+z
-x,1/2-y,1/2+z
1/2-x,1/2+y,z
1/2+x,1/2-y,z
loop_
_atom_site_type_symbol
_atom_site_label
_atom_site_fract_x
_atom_site_fract_y
_atom_site_fract_z
Si Si1 0.896332 0.402135 0.789310
Si Si2 0.497722 0.092586 0.141090
Si Si3 0.497062 0.294083 0.899600
Si Si4 0.001113 0.914106 0.183635
Si Si5 0.644585 0.741983 0.752525
Si Si6 0.519999 0.657738 0.541168
Si Si7 0.481726 0.670417 0.005673
Si Si8 0.104399 0.399685 0.318893
O O1 0.959900 0.417344 0.737225
O O2 0.860494 0.310975 0.788738
O O3 0.641674 0.437910 0.801976
O O4 0.119969 0.425657 0.819740
O O5 0.243733 0.118249 0.162585
O O6 0.517207 0.131592 0.092619
O O7 0.734288 0.114531 0.170219
O O8 0.500000 0.000000 0.138016
O O9 0.754261 0.254374 0.890702
O O10 0.467324 0.365224 0.866946
O O11 0.501908 0.313507 0.952566
O O12 0.000000 0.000000 0.166705
O O13 0.394867 0.751016 0.726871
O O14 0.634902 0.665911 0.780751
O O15 0.772462 0.630162 0.520348
O O16 0.522555 0.748309 0.531641
O O17 0.270569 0.631675 0.518123
#
# Coordination Sequence:
#
# PCOD9365773 Si02
#       8
#     8   8   8   8   8   8   8   8
#     4  10  18  32  48  69 102 137 165 213 262 302
#     4  10  21  37  60  82 101 135 182 240 277 314
#     4  12  18  30  48  81 110 138 182 212 248 302
#     4  10  21  37  57  80  99 129 187 238 271 311
#     4   8  14  25  39  59  88 127 150 189 226 284
#     4  10  18  35  53  76 113 136 177 219 270 343
#     4  10  19  32  53  79 112 145 170 213 263 336
#     4  10  19  28  48  72 106 139 167 210 245 300
#
# _framework density 21.871752000000001
#
# number of rings (size 3 to 8) (size 9 to 14) (size 15 to 20)
#    0.000    2.000    2.500    4.500    0.000    0.000 
#    0.000    0.000   49.500    0.000    0.000    5.250 
#    0.000    0.000    0.000    0.000    0.000    0.000 
#
# Total GULP energy -178385.015872 kJ/mol
# GULP energy per Si atom -5574.531746 kJ/mol
# Density = 2.182197 g / cm^3
# Si number density = 21.871752 Si / 1000 Ang^3
#
#
#
# Elastic Constant Matrix: (Units=GPa)
#
#
# Indices 1 2 3 4 5 6 
#
# 1 264.7025 19.7151 57.6559 0.0000 0.0000 0.0000
# 2 19.7151 24.9658 7.8106 0.0000 0.0000 0.0000
# 3 57.6559 7.8106 113.2574 0.0000 0.0000 0.0000
# 4 0.0000 0.0000 0.0000 409.3252 0.0000 0.0000
# 5 0.0000 0.0000 0.0000 0.0000 29.3981 0.0000
# 6 0.0000 0.0000 0.0000 0.0000 0.0000 27.4390
#
#
#
# Elastic Compliance Matrix: (Units=1/GPa)
#
#
# Indices 1 2 3 4 5 6 
#
# 1 0.004440 -0.002861 -0.002063 0.000000 0.000000 0.000000
# 2 -0.002861 0.042781 -0.001494 0.000000 0.000000 0.000000
# 3 -0.002063 -0.001494 0.009983 0.000000 0.000000 0.000000
# 4 0.000000 0.000000 0.000000 0.002443 0.000000 0.000000
# 5 0.000000 0.000000 0.000000 0.000000 0.034016 0.000000
# 6 0.000000 0.000000 0.000000 0.000000 0.000000 0.036445
#
#
# Mechanical properties :
#
#
# Convention : Reuss Voigt Hill
#
# Bulk Modulus (GPa) = 22.53852 63.69875 43.11864
# Shear Modulus (GPa) = 31.69907 114.41539 73.05723
#
# Velocity S-wave (km/s) = 3.81112 7.24055 5.78576
# Velocity P-wave (km/s) = 5.44916 9.95428 8.02437
#
# Compressibility (1/GPa) = 0.04436849
#
# Stress axis : x y z
#
# Youngs Moduli (GPa) = 225.21069 23.37461 100.17296
#
# Poissons Ratio (x) = 0.06687 0.20667
# Poissons Ratio (y) = 0.64432 0.14965
# Poissons Ratio (z) = 0.46463 0.03492
#
# Static dielectric constant tensor:
#      x y z
#    x 1.965820 0.000000 0.000000 
#    y 0.000000 1.891210 0.000000 
#    z 0.000000 0.000000 1.724460 
# 
# From -- ./inp_files/11906.got.cif
#   From: 2010.05.17/outbox.cif.g08.bks.cpg/sg41_6_cif.got.tgz:11906.got - 2010.06.03 18:54:24.
