data_PCOD9365427
_publ_section_title
;
Structure prediction by ZEFSAII (Michael W. Deem and Ramdas Pophale) SiO2 
 PCOD9365427
Probable space group: A M A 2
;
_chemical_formula_sum "Si O2"
_cell_formula_units_Z 40
_cell_length_a 13.757550
_cell_length_b 17.909138
_cell_length_c 6.241282
_cell_angle_alpha 90.000000
_cell_angle_beta 90.000000
_cell_angle_gamma 90.000000
_cell_volume 1537.763642
_symmetry_space_group_name_H-M "A M A 2"
_symmetry_group_IT_number 40
_symmetry_cell_setting 'orthorhombic'
loop_
_space_group_symop_operation_xyz
x,y,z
-x,-y,z
1/2-x,y,z
1/2+x,-y,z
x,1/2+y,1/2+z
-x,1/2-y,1/2+z
1/2-x,1/2+y,1/2+z
1/2+x,1/2-y,1/2+z
loop_
_atom_site_type_symbol
_atom_site_label
_atom_site_fract_x
_atom_site_fract_y
_atom_site_fract_z
Si Si1 0.584985 0.684535 0.878650
Si Si2 0.524318 0.919675 0.711045
Si Si3 0.750000 0.441396 0.280599
Si Si4 0.883982 0.781518 0.231825
Si Si5 0.750000 0.921456 0.285429
Si Si6 0.351770 0.370904 0.476250
O O1 0.499922 0.714832 0.728633
O O2 0.648739 0.632510 0.730783
O O3 0.524236 0.639691 0.054271
O O4 0.641879 0.749754 0.997999
O O5 0.637334 0.910448 0.769044
O O6 0.448548 0.913933 0.909203
O O7 0.500000 0.000000 0.612701
O O8 0.750000 0.458384 0.546781
O O9 0.750000 0.465158 0.015235
O O10 0.838894 0.861118 0.285181
O O11 0.855026 0.715016 0.393085
O O12 0.250000 0.402082 0.381353
#
# Coordination Sequence:
#
# PCOD9365427 Si02
#       6
#     8   8   4   8   4   8
#     4  11  23  41  68 104 147 196 242 305 379 456
#     4  11  28  51  74 101 148 196 265 320 375 448
#     4  12  28  50  77 114 147 204 262 314 382 450
#     4  11  22  36  66 106 150 193 235 296 374 454
#     4  12  26  42  73 112 155 198 248 306 378 460
#     4  11  25  44  69 108 147 196 247 307 385 456
#
# _framework density 26.011801999999999
#
# number of rings (size 3 to 8) (size 9 to 14) (size 15 to 20)
#    0.000    0.800    5.000    1.200    8.400    1.600 
#    0.000    0.000    0.000    0.000    0.000    0.000 
#    0.000    0.000    0.000    0.000    0.000    0.000 
#
# Total GULP energy -111404.869560 kJ/mol
# GULP energy per Si atom -5570.243478 kJ/mol
# Density = 2.595260 g / cm^3
# Si number density = 26.011802 Si / 1000 Ang^3
#
#
#
# Elastic Constant Matrix: (Units=GPa)
#
#
# Indices 1 2 3 4 5 6 
#
# 1 212.6776 -2.5450 26.0204 0.0000 0.0000 0.0000
# 2 -2.5450 76.4546 -2.7095 0.0000 0.0000 0.0000
# 3 26.0204 -2.7095 127.9646 0.0000 0.0000 0.0000
# 4 0.0000 0.0000 0.0000 25.3338 0.0000 0.0000
# 5 0.0000 0.0000 0.0000 0.0000 22.2460 0.0000
# 6 0.0000 0.0000 0.0000 0.0000 0.0000 1.4212
#
#
#
# Elastic Compliance Matrix: (Units=1/GPa)
#
#
# Indices 1 2 3 4 5 6 
#
# 1 0.004823 0.000126 -0.000978 0.000000 0.000000 0.000000
# 2 0.000126 0.013093 0.000252 0.000000 0.000000 0.000000
# 3 -0.000978 0.000252 0.008019 0.000000 0.000000 0.000000
# 4 0.000000 0.000000 0.000000 0.039473 0.000000 0.000000
# 5 0.000000 0.000000 0.000000 0.000000 0.044952 0.000000
# 6 0.000000 0.000000 0.000000 0.000000 0.000000 0.703634
#
#
# Mechanical properties :
#
#
# Convention : Reuss Voigt Hill
#
# Bulk Modulus (GPa) = 40.43076 50.95873 45.69475
# Shear Modulus (GPa) = 6.07209 36.22227 21.14718
#
# Velocity S-wave (km/s) = 1.52952 3.73571 2.85438
# Velocity P-wave (km/s) = 4.32391 6.18389 5.33558
#
# Compressibility (1/GPa) = 0.02473364
#
# Stress axis : x y z
#
# Youngs Moduli (GPa) = 207.33459 76.37810 124.70590
#
# Poissons Ratio (x) = -0.00962 0.12197
# Poissons Ratio (y) = -0.02610 -0.03138
# Poissons Ratio (z) = 0.20279 -0.01922
#
# Static dielectric constant tensor:
#      x y z
#    x 2.087740 0.000000 0.000000 
#    y 0.000000 2.124120 0.000000 
#    z 0.000000 0.000000 2.193990 
# 
# From -- ./inp_files/1242.got.cif
#   From: 2010.05.17/outbox.cif.g08.bks.cpg/sg40_1_cif.got.tgz:1242.got - 2010.06.03 18:35:42.
