data_PCOD9365430
_publ_section_title
;
Structure prediction by ZEFSAII (Michael W. Deem and Ramdas Pophale) SiO2 
 PCOD9365430
Probable space group: A M A 2
;
_chemical_formula_sum "Si O2"
_cell_formula_units_Z 48
_cell_length_a 8.710223
_cell_length_b 21.080049
_cell_length_c 10.134366
_cell_angle_alpha 90.000000
_cell_angle_beta 90.000000
_cell_angle_gamma 90.000000
_cell_volume 1860.790477
_symmetry_space_group_name_H-M "A M A 2"
_symmetry_group_IT_number 40
_symmetry_cell_setting 'orthorhombic'
loop_
_space_group_symop_operation_xyz
x,y,z
-x,-y,z
1/2-x,y,z
1/2+x,-y,z
x,1/2+y,1/2+z
-x,1/2-y,1/2+z
1/2-x,1/2+y,1/2+z
1/2+x,1/2-y,1/2+z
loop_
_atom_site_type_symbol
_atom_site_label
_atom_site_fract_x
_atom_site_fract_y
_atom_site_fract_z
Si Si1 0.931436 0.212479 0.408540
Si Si2 0.936021 0.206629 0.076269
Si Si3 0.426805 0.565220 0.202545
Si Si4 0.918281 0.418231 0.893375
Si Si5 0.427171 0.935583 0.132509
Si Si6 0.066694 0.295402 0.243550
O O1 0.750000 0.195203 0.408563
O O2 0.946958 0.226390 0.576492
O O3 0.019439 0.285345 0.410323
O O4 0.057575 0.156628 0.405846
O O5 0.750000 0.211617 0.064148
O O6 0.992945 0.133094 0.092923
O O7 0.944624 0.229426 0.241737
O O8 0.500000 0.500000 0.254884
O O9 0.250000 0.572208 0.245758
O O10 0.574208 0.441206 0.042866
O O11 0.484697 0.369484 0.231704
O O12 0.750000 0.432764 0.836520
O O13 0.048869 0.438264 0.791311
O O14 0.250000 0.934104 0.097950
O O15 0.500000 0.000000 0.078432
O O16 0.250000 0.287002 0.256001
#
# Coordination Sequence:
#
# PCOD9365430 Si02
#       6
#     8   8   8   8   8   8
#     4  12  24  39  63  94 126 161 208 260 312 366
#     4  11  23  41  63  91 125 163 209 258 308 368
#     4  11  24  41  62  91 129 167 209 258 311 373
#     4  11  22  37  62  92 128 164 204 255 310 370
#     4  11  24  40  62  90 128 166 207 256 310 372
#     4  12  24  40  65  92 124 165 209 257 311 369
#
# _framework density 25.795487999999999
#
# number of rings (size 3 to 8) (size 9 to 14) (size 15 to 20)
#    0.000    0.667    3.333    5.500    0.000    5.333 
#    0.000    0.833    0.000    2.000    0.000    0.000 
#    0.000    0.000    0.000    0.000    0.000    0.000 
#
# Total GULP energy -134120.822410 kJ/mol
# GULP energy per Si atom -5588.367600 kJ/mol
# Density = 2.573678 g / cm^3
# Si number density = 25.795488 Si / 1000 Ang^3
#
#
#
# Elastic Constant Matrix: (Units=GPa)
#
#
# Indices 1 2 3 4 5 6 
#
# 1 103.2973 85.7828 22.9593 0.0000 0.0000 0.0000
# 2 85.7828 219.2911 44.5727 0.0000 0.0000 0.0000
# 3 22.9593 44.5727 173.7999 0.0000 0.0000 0.0000
# 4 0.0000 0.0000 0.0000 11.7861 0.0000 0.0000
# 5 0.0000 0.0000 0.0000 0.0000 54.3524 0.0000
# 6 0.0000 0.0000 0.0000 0.0000 0.0000 36.2208
#
#
#
# Elastic Compliance Matrix: (Units=1/GPa)
#
#
# Indices 1 2 3 4 5 6 
#
# 1 0.014377 -0.005526 -0.000482 0.000000 0.000000 0.000000
# 2 -0.005526 0.006935 -0.001049 0.000000 0.000000 0.000000
# 3 -0.000482 -0.001049 0.006086 0.000000 0.000000 0.000000
# 4 0.000000 0.000000 0.000000 0.084846 0.000000 0.000000
# 5 0.000000 0.000000 0.000000 0.000000 0.018398 0.000000
# 6 0.000000 0.000000 0.000000 0.000000 0.000000 0.027608
#
#
# Mechanical properties :
#
#
# Convention : Reuss Voigt Hill
#
# Bulk Modulus (GPa) = 75.27241 89.22422 82.24832
# Shear Modulus (GPa) = 28.28176 43.34342 35.81259
#
# Velocity S-wave (km/s) = 3.31476 4.10356 3.73007
# Velocity P-wave (km/s) = 6.62525 7.55754 7.10670
#
# Compressibility (1/GPa) = 0.01328508
#
# Stress axis : x y z
#
# Youngs Moduli (GPa) = 69.55543 144.19678 164.30272
#
# Poissons Ratio (x) = 0.79684 0.07920
# Poissons Ratio (y) = 0.38437 0.17228
# Poissons Ratio (z) = 0.03353 0.15120
#
# Static dielectric constant tensor:
#      x y z
#    x 1.835370 0.000000 0.000000 
#    y 0.000000 2.010970 0.000000 
#    z 0.000000 0.000000 2.193410 
# 
# From -- ./inp_files/15149.got.cif
#   From: 2010.05.17/outbox.cif.g08.bks.cpg/sg40_8_cif.got.tgz:15149.got - 2010.06.03 18:35:42.
