data_PCOD9365519
_publ_section_title
;
Structure prediction by ZEFSAII (Michael W. Deem and Ramdas Pophale) SiO2 
 PCOD9365519
Probable space group: A M A 2
;
_chemical_formula_sum "Si O2"
_cell_formula_units_Z 40
_cell_length_a 13.772904
_cell_length_b 22.929194
_cell_length_c 5.327303
_cell_angle_alpha 90.000000
_cell_angle_beta 90.000000
_cell_angle_gamma 90.000000
_cell_volume 1682.370746
_symmetry_space_group_name_H-M "A M A 2"
_symmetry_group_IT_number 40
_symmetry_cell_setting 'orthorhombic'
loop_
_space_group_symop_operation_xyz
x,y,z
-x,-y,z
1/2-x,y,z
1/2+x,-y,z
x,1/2+y,1/2+z
-x,1/2-y,1/2+z
1/2-x,1/2+y,1/2+z
1/2+x,1/2-y,1/2+z
loop_
_atom_site_type_symbol
_atom_site_label
_atom_site_fract_x
_atom_site_fract_y
_atom_site_fract_z
Si Si1 0.959920 0.820867 0.571440
Si Si2 0.414168 0.379533 0.430046
Si Si3 0.044904 0.056480 0.284899
Si Si4 0.750000 0.066494 0.626578
Si Si5 0.646029 0.719930 0.779963
Si Si6 0.750000 0.991771 0.127998
O O1 0.946028 0.882217 0.429998
O O2 0.872971 0.775787 0.602442
O O3 0.994837 0.841265 0.844126
O O4 0.052030 0.787306 0.453624
O O5 0.462359 0.433303 0.573444
O O6 0.346672 0.397392 0.196930
O O7 0.354465 0.338657 0.614977
O O8 0.151165 0.043233 0.177830
O O9 0.000000 0.000000 0.430997
O O10 0.750000 0.041450 0.347437
O O11 0.750000 0.017222 0.846350
O O12 0.750000 0.725645 0.910893
#
# Coordination Sequence:
#
# PCOD9365519 Si02
#       6
#     8   8   8   4   8   4
#     4  11  25  45  69 103 142 191 242 311 373 450
#     4  11  24  43  73 100 144 187 243 303 368 441
#     4  11  25  46  70 104 147 188 241 308 375 445
#     4  12  26  46  77 106 143 200 256 302 368 448
#     4  11  24  44  68 102 141 186 248 304 378 446
#     4  12  28  48  73 110 151 194 256 304 376 454
#
# _framework density 23.775971999999999
#
# number of rings (size 3 to 8) (size 9 to 14) (size 15 to 20)
#    0.000    0.800    5.000    1.200    8.400    0.800 
#    1.800    0.000    0.000    0.000    0.000    0.000 
#    0.000    0.000    0.000    0.000    0.000    0.000 
#
# Total GULP energy -111854.993119 kJ/mol
# GULP energy per Si atom -5592.749656 kJ/mol
# Density = 2.372186 g / cm^3
# Si number density = 23.775972 Si / 1000 Ang^3
#
#
#
# Elastic Constant Matrix: (Units=GPa)
#
#
# Indices 1 2 3 4 5 6 
#
# 1 123.7349 56.2809 1.5570 0.0000 0.0000 0.0000
# 2 56.2809 133.7273 18.4647 0.0000 0.0000 0.0000
# 3 1.5570 18.4647 42.4302 0.0000 0.0000 0.0000
# 4 0.0000 0.0000 0.0000 26.1454 0.0000 0.0000
# 5 0.0000 0.0000 0.0000 0.0000 24.5732 0.0000
# 6 0.0000 0.0000 0.0000 0.0000 0.0000 30.5399
#
#
#
# Elastic Compliance Matrix: (Units=1/GPa)
#
#
# Indices 1 2 3 4 5 6 
#
# 1 0.010093 -0.004465 0.001573 0.000000 0.000000 0.000000
# 2 -0.004465 0.009931 -0.004158 0.000000 0.000000 0.000000
# 3 0.001573 -0.004158 0.025320 0.000000 0.000000 0.000000
# 4 0.000000 0.000000 0.000000 0.038248 0.000000 0.000000
# 5 0.000000 0.000000 0.000000 0.000000 0.040695 0.000000
# 6 0.000000 0.000000 0.000000 0.000000 0.000000 0.032744
#
#
# Mechanical properties :
#
#
# Convention : Reuss Voigt Hill
#
# Bulk Modulus (GPa) = 32.00668 50.27752 41.14210
# Shear Modulus (GPa) = 27.54135 31.15767 29.34951
#
# Velocity S-wave (km/s) = 3.40717 3.62397 3.51724
# Velocity P-wave (km/s) = 5.38233 6.22118 5.81690
#
# Compressibility (1/GPa) = 0.03124348
#
# Stress axis : x y z
#
# Youngs Moduli (GPa) = 99.08009 100.69358 39.49468
#
# Poissons Ratio (x) = 0.44958 -0.06211
# Poissons Ratio (y) = 0.44238 0.16422
# Poissons Ratio (z) = -0.15582 0.41868
#
# Static dielectric constant tensor:
#      x y z
#    x 1.875640 0.000000 0.000000 
#    y 0.000000 1.985670 0.000000 
#    z 0.000000 0.000000 1.934300 
# 
# From -- ./inp_files/817.got.cif
#   From: 2010.05.17/outbox.cif.g08.bks.cpg/sg40_1_cif.got.tgz:817.got - 2010.06.03 18:35:42.
