data_PCOD9365526
_publ_section_title
;
Structure prediction by ZEFSAII (Michael W. Deem and Ramdas Pophale) SiO2 
 PCOD9365526
Probable space group: A M A 2
;
_chemical_formula_sum "Si O2"
_cell_formula_units_Z 32
_cell_length_a 11.162494
_cell_length_b 5.097939
_cell_length_c 24.814213
_cell_angle_alpha 90.000000
_cell_angle_beta 90.000000
_cell_angle_gamma 90.000000
_cell_volume 1412.070496
_symmetry_space_group_name_H-M "A M A 2"
_symmetry_group_IT_number 40
_symmetry_cell_setting 'orthorhombic'
loop_
_space_group_symop_operation_xyz
x,y,z
-x,-y,z
1/2-x,y,z
1/2+x,-y,z
x,1/2+y,1/2+z
-x,1/2-y,1/2+z
1/2-x,1/2+y,1/2+z
1/2+x,1/2-y,1/2+z
loop_
_atom_site_type_symbol
_atom_site_label
_atom_site_fract_x
_atom_site_fract_y
_atom_site_fract_z
Si Si1 0.380671 0.817337 0.892870
Si Si2 0.572240 0.252008 0.010890
Si Si3 0.250000 0.953329 0.670756
Si Si4 0.500000 0.000000 0.305979
Si Si5 0.250000 0.947476 0.100569
Si Si6 0.000000 0.500000 0.233251
O O1 0.250000 0.952504 0.887375
O O2 0.397038 0.603555 0.846086
O O3 0.500000 0.000000 0.886807
O O4 0.376306 0.677453 0.951882
O O5 0.500000 0.500000 0.030678
O O6 0.643919 0.137477 0.061038
O O7 0.500000 0.000000 0.994066
O O8 0.250000 0.744897 0.621092
O O9 0.250000 0.252889 0.650688
O O10 0.378038 0.920582 0.701082
O O11 0.533535 0.247217 0.269064
#
# Coordination Sequence:
#
# PCOD9365526 Si02
#       6
#     8   8   4   4   4   4
#     4  11  25  47  75 118 161 201 248 306 382 479
#     4  11  24  44  71 112 155 194 242 295 372 468
#     4  12  30  52  76 107 149 192 272 318 377 437
#     4  12  26  48  79 108 151 202 246 318 390 434
#     4  12  26  48  78 105 145 208 236 324 379 443
#     4  12  30  52  75 110 145 198 266 326 370 444
#
# _framework density 22.661757999999999
#
# number of rings (size 3 to 8) (size 9 to 14) (size 15 to 20)
#    0.000    0.500    3.750    3.000    8.750    1.000 
#    2.250    0.000    0.000    0.000    0.000    0.000 
#    0.000    0.000    0.000    0.000    0.000    0.000 
#
# Total GULP energy -89172.710103 kJ/mol
# GULP energy per Si atom -5573.294381 kJ/mol
# Density = 2.261018 g / cm^3
# Si number density = 22.661758 Si / 1000 Ang^3
#
#
#
# Elastic Constant Matrix: (Units=GPa)
#
#
# Indices 1 2 3 4 5 6 
#
# 1 147.8862 27.2459 44.9498 0.0000 0.0000 0.0000
# 2 27.2459 94.5768 15.7953 0.0000 0.0000 0.0000
# 3 44.9498 15.7953 99.7406 0.0000 0.0000 0.0000
# 4 0.0000 0.0000 0.0000 47.6295 0.0000 0.0000
# 5 0.0000 0.0000 0.0000 0.0000 32.6976 0.0000
# 6 0.0000 0.0000 0.0000 0.0000 0.0000 10.9891
#
#
#
# Elastic Compliance Matrix: (Units=1/GPa)
#
#
# Indices 1 2 3 4 5 6 
#
# 1 0.008115 -0.001774 -0.003376 0.000000 0.000000 0.000000
# 2 -0.001774 0.011248 -0.000982 0.000000 0.000000 0.000000
# 3 -0.003376 -0.000982 0.011703 0.000000 0.000000 0.000000
# 4 0.000000 0.000000 0.000000 0.020995 0.000000 0.000000
# 5 0.000000 0.000000 0.000000 0.000000 0.030583 0.000000
# 6 0.000000 0.000000 0.000000 0.000000 0.000000 0.090999
#
#
# Mechanical properties :
#
#
# Convention : Reuss Voigt Hill
#
# Bulk Modulus (GPa) = 53.18474 57.57618 55.38046
# Shear Modulus (GPa) = 26.01785 35.21075 30.61430
#
# Velocity S-wave (km/s) = 3.39203 3.94604 3.67948
# Velocity P-wave (km/s) = 6.23386 6.79879 6.52245
#
# Compressibility (1/GPa) = 0.01880239
#
# Stress axis : x y z
#
# Youngs Moduli (GPa) = 123.22898 88.90123 85.44772
#
# Poissons Ratio (x) = 0.15770 0.28849
# Poissons Ratio (y) = 0.21860 0.08390
# Poissons Ratio (z) = 0.41605 0.08729
#
# Static dielectric constant tensor:
#      x y z
#    x 1.942290 0.000000 0.000000 
#    y 0.000000 1.794710 0.000000 
#    z 0.000000 0.000000 1.877580 
# 
# From -- ./inp_files/22682.got.cif
#   From: 2010.05.17/outbox.cif.g08.bks.cpg/sg40_12_cif.got.tgz:22682.got - 2010.06.03 18:35:42.
