data_PCOD9365221
_publ_section_title
;
Structure prediction by ZEFSAII (Michael W. Deem and Ramdas Pophale) SiO2 
 PCOD9365221
Probable space group: A M A 2
;
_chemical_formula_sum "Si O2"
_cell_formula_units_Z 52
_cell_length_a 16.534695
_cell_length_b 25.528670
_cell_length_c 5.441827
_cell_angle_alpha 90.000000
_cell_angle_beta 90.000000
_cell_angle_gamma 90.000000
_cell_volume 2297.042914
_symmetry_space_group_name_H-M "A M A 2"
_symmetry_group_IT_number 40
_symmetry_cell_setting 'orthorhombic'
loop_
_space_group_symop_operation_xyz
x,y,z
-x,-y,z
1/2-x,y,z
1/2+x,-y,z
x,1/2+y,1/2+z
-x,1/2-y,1/2+z
1/2-x,1/2+y,1/2+z
1/2+x,1/2-y,1/2+z
loop_
_atom_site_type_symbol
_atom_site_label
_atom_site_fract_x
_atom_site_fract_y
_atom_site_fract_z
Si Si1 0.373835 0.873044 0.728230
Si Si2 0.523590 0.311692 0.696148
Si Si3 0.841573 0.063098 0.225197
Si Si4 0.500000 0.000000 0.377750
Si Si5 0.051800 0.605221 0.083057
Si Si6 0.836456 0.817598 0.812340
Si Si7 0.118509 0.771825 0.967135
O O1 0.348411 0.900362 0.471916
O O2 0.472401 0.873635 0.725792
O O3 0.347377 0.812268 0.767511
O O4 0.345511 0.905989 0.965592
O O5 0.544715 0.366712 0.819990
O O6 0.590738 0.303521 0.489549
O O7 0.544180 0.263521 0.873405
O O8 0.428487 0.310113 0.651833
O O9 0.750000 0.039073 0.237034
O O10 0.922879 0.026467 0.237866
O O11 0.540533 0.955691 0.547270
O O12 0.133707 0.627739 0.196217
O O13 0.750000 0.821973 0.938144
O O14 0.831784 0.771916 0.608165
#
# Coordination Sequence:
#
# PCOD9365221 Si02
#       7
#     8   8   8   4   8   8   8
#     4  11  23  43  73 103 139 185 235 290 353 418
#     4  11  20  38  65  96 134 182 230 283 334 419
#     4  11  26  46  70 108 147 178 235 307 360 422
#     4  10  24  46  78 100 130 186 242 286 370 438
#     4  10  23  43  69  97 132 178 235 294 350 429
#     4  11  25  39  61 101 142 181 233 290 350 419
#     4  11  20  37  66  93 133 189 232 273 339 424
#
# _framework density 22.637799000000001
#
# number of rings (size 3 to 8) (size 9 to 14) (size 15 to 20)
#    0.000    1.231    3.077    3.231    2.154    6.769 
#    0.000    0.000    0.000    0.000    0.000    0.000 
#    0.000    0.000    0.000    0.000    0.000    0.000 
#
# Total GULP energy -144957.727380 kJ/mol
# GULP energy per Si atom -5575.297207 kJ/mol
# Density = 2.258627 g / cm^3
# Si number density = 22.637799 Si / 1000 Ang^3
#
#
#
# Elastic Constant Matrix: (Units=GPa)
#
#
# Indices 1 2 3 4 5 6 
#
# 1 148.8056 26.1689 26.9194 0.0000 0.0000 0.0000
# 2 26.1689 113.5372 25.3141 0.0000 0.0000 0.0000
# 3 26.9194 25.3141 77.3618 0.0000 0.0000 0.0000
# 4 0.0000 0.0000 0.0000 17.1413 0.0000 0.0000
# 5 0.0000 0.0000 0.0000 0.0000 11.4821 0.0000
# 6 0.0000 0.0000 0.0000 0.0000 0.0000 -121.0143
#
#
#
# Elastic Compliance Matrix: (Units=1/GPa)
#
#
# Indices 1 2 3 4 5 6 
#
# 1 0.007322 -0.001208 -0.002153 0.000000 0.000000 0.000000
# 2 -0.001208 0.009700 -0.002754 0.000000 0.000000 0.000000
# 3 -0.002153 -0.002754 0.014576 0.000000 0.000000 0.000000
# 4 0.000000 0.000000 0.000000 0.058339 0.000000 0.000000
# 5 0.000000 0.000000 0.000000 0.000000 0.087092 0.000000
# 6 0.000000 0.000000 0.000000 0.000000 0.000000 -0.008263
#
#
# Mechanical properties :
#
#
# Convention : Reuss Voigt Hill
#
# Bulk Modulus (GPa) = 51.62567 55.16773 53.39670
# Shear Modulus (GPa) = 26.67367 -1.05805 12.80781
#
# Velocity S-wave (km/s) = 3.43633 -0.68439 2.38117
# Velocity P-wave (km/s) = 6.21282 4.87833 5.58557
#
# Compressibility (1/GPa) = 0.01937021
#
# Stress axis : x y z
#
# Youngs Moduli (GPa) = 136.57512 103.09260 68.60400
#
# Poissons Ratio (x) = 0.12450 0.14768
# Poissons Ratio (y) = 0.16494 0.18892
# Poissons Ratio (z) = 0.29400 0.28389
#
# Static dielectric constant tensor:
#      x y z
#    x 1.818320 0.000000 0.000000 
#    y 0.000000 1.895510 0.000000 
#    z 0.000000 0.000000 2.002660 
# 
# From -- ./inp_files/1926.got.cif
#   From: 2010.05.17/outbox.cif.g08.bks.cpg/sg40_1_cif.got.tgz:1926.got - 2010.06.03 18:35:42.
