data_PCOD9365271
_publ_section_title
;
Structure prediction by ZEFSAII (Michael W. Deem and Ramdas Pophale) SiO2 
 PCOD9365271
Probable space group: A M A 2
;
_chemical_formula_sum "Si O2"
_cell_formula_units_Z 32
_cell_length_a 27.660792
_cell_length_b 9.065989
_cell_length_c 5.449772
_cell_angle_alpha 90.000000
_cell_angle_beta 90.000000
_cell_angle_gamma 90.000000
_cell_volume 1366.652600
_symmetry_space_group_name_H-M "A M A 2"
_symmetry_group_IT_number 40
_symmetry_cell_setting 'orthorhombic'
loop_
_space_group_symop_operation_xyz
x,y,z
-x,-y,z
1/2-x,y,z
1/2+x,-y,z
x,1/2+y,1/2+z
-x,1/2-y,1/2+z
1/2-x,1/2+y,1/2+z
1/2+x,1/2-y,1/2+z
loop_
_atom_site_type_symbol
_atom_site_label
_atom_site_fract_x
_atom_site_fract_y
_atom_site_fract_z
Si Si1 0.389072 0.646697 0.677860
Si Si2 0.638928 0.642092 0.823449
Si Si3 0.693037 0.368108 0.994507
Si Si4 0.483172 0.169913 0.456717
O O1 0.385942 0.471761 0.630966
O O2 0.400010 0.757993 0.461652
O O3 0.425478 0.666372 0.902171
O O4 0.333931 0.687575 0.749367
O O5 0.676555 0.752247 0.697949
O O6 0.666131 0.526300 0.004612
O O7 0.750000 0.382398 0.978879
O O8 0.496906 0.257254 0.703387
O O9 0.500000 0.000000 0.477660
#
# Coordination Sequence:
#
# PCOD9365271 Si02
#       4
#     8   8   8   8
#     4  10  26  44  71  94 142 174 232 280 355 406
#     4  10  24  41  67  94 133 178 224 283 335 414
#     4  10  24  42  66  99 135 178 226 277 342 412
#     4  12  28  47  76 108 144 187 243 296 360 428
#
# _framework density 23.414874000000001
#
# number of rings (size 3 to 8) (size 9 to 14) (size 15 to 20)
#    1.500    0.000    0.000    3.000   10.500    2.000 
#    0.000    0.000    0.000    0.000    0.000    0.000 
#    0.000    0.000    0.000    0.000    0.000    0.000 
#
# Total GULP energy -89184.961549 kJ/mol
# GULP energy per Si atom -5574.060097 kJ/mol
# Density = 2.336158 g / cm^3
# Si number density = 23.414874 Si / 1000 Ang^3
#
#
#
# Elastic Constant Matrix: (Units=GPa)
#
#
# Indices 1 2 3 4 5 6 
#
# 1 86.9548 35.6538 24.7547 0.0000 0.0000 0.0000
# 2 35.6538 202.7978 71.1443 0.0000 0.0000 0.0000
# 3 24.7547 71.1443 92.9207 0.0000 0.0000 0.0000
# 4 0.0000 0.0000 0.0000 36.1812 0.0000 0.0000
# 5 0.0000 0.0000 0.0000 0.0000 32.7250 0.0000
# 6 0.0000 0.0000 0.0000 0.0000 0.0000 18.0583
#
#
#
# Elastic Compliance Matrix: (Units=1/GPa)
#
#
# Indices 1 2 3 4 5 6 
#
# 1 0.012742 -0.001435 -0.002296 0.000000 0.000000 0.000000
# 2 -0.001435 0.006903 -0.004903 0.000000 0.000000 0.000000
# 3 -0.002296 -0.004903 0.015128 0.000000 0.000000 0.000000
# 4 0.000000 0.000000 0.000000 0.027639 0.000000 0.000000
# 5 0.000000 0.000000 0.000000 0.000000 0.030558 0.000000
# 6 0.000000 0.000000 0.000000 0.000000 0.000000 0.055376
#
#
# Mechanical properties :
#
#
# Convention : Reuss Voigt Hill
#
# Bulk Modulus (GPa) = 57.12647 71.75323 64.43985
# Shear Modulus (GPa) = 29.16311 34.13425 31.64868
#
# Velocity S-wave (km/s) = 3.53299 3.82226 3.68047
# Velocity P-wave (km/s) = 6.41039 7.08452 6.75587
#
# Compressibility (1/GPa) = 0.01750502
#
# Stress axis : x y z
#
# Youngs Moduli (GPa) = 78.47963 144.85571 66.10340
#
# Poissons Ratio (x) = 0.20782 0.15178
# Poissons Ratio (y) = 0.11259 0.32413
# Poissons Ratio (z) = 0.18020 0.71028
#
# Static dielectric constant tensor:
#      x y z
#    x 1.888310 0.000000 0.000000 
#    y 0.000000 1.914360 0.000000 
#    z 0.000000 0.000000 1.947710 
# 
# From -- ./inp_files/3253.got.cif
#   From: 2010.05.17/outbox.cif.g08.bks.cpg/sg40_2_cif.got.tgz:3253.got - 2010.06.03 18:35:42.
