data_PCOD9365117
_publ_section_title
;
Structure prediction by ZEFSAII (Michael W. Deem and Ramdas Pophale) SiO2 
 PCOD9365117
Probable space group: A M A 2
;
_chemical_formula_sum "Si O2"
_cell_formula_units_Z 40
_cell_length_a 16.738370
_cell_length_b 19.793668
_cell_length_c 5.134014
_cell_angle_alpha 90.000000
_cell_angle_beta 90.000000
_cell_angle_gamma 90.000000
_cell_volume 1700.969373
_symmetry_space_group_name_H-M "A M A 2"
_symmetry_group_IT_number 40
_symmetry_cell_setting 'orthorhombic'
loop_
_space_group_symop_operation_xyz
x,y,z
-x,-y,z
1/2-x,y,z
1/2+x,-y,z
x,1/2+y,1/2+z
-x,1/2-y,1/2+z
1/2-x,1/2+y,1/2+z
1/2+x,1/2-y,1/2+z
loop_
_atom_site_type_symbol
_atom_site_label
_atom_site_fract_x
_atom_site_fract_y
_atom_site_fract_z
Si Si1 0.656903 0.947745 0.193550
Si Si2 0.914962 0.170784 0.643651
Si Si3 0.583728 0.320911 0.876836
Si Si4 0.250000 0.284500 0.082362
Si Si5 0.592544 0.520175 0.210026
Si Si6 0.250000 0.701871 0.108017
O O1 0.750000 0.933255 0.245763
O O2 0.604263 0.879252 0.172566
O O3 0.621815 0.995625 0.424150
O O4 0.647014 0.983576 0.919463
O O5 0.920540 0.242800 0.789724
O O6 0.830555 0.178551 0.496449
O O7 0.997289 0.163999 0.490684
O O8 0.903938 0.099440 0.780358
O O9 0.662334 0.328868 0.057666
O O10 0.250000 0.217445 0.912506
O O11 0.250000 0.263605 0.388782
O O12 0.500000 0.500000 0.234962
#
# Coordination Sequence:
#
# PCOD9365117 Si02
#       6
#     8   8   8   4   8   4
#     4  12  28  51  78 109 152 204 256 313 383 457
#     4  11  26  45  75 111 149 199 247 314 379 452
#     4  11  24  47  75 112 143 200 250 315 374 450
#     4  10  24  42  66 104 146 186 235 306 369 444
#     4  12  28  51  75 112 154 202 253 313 382 462
#     4  10  22  44  68 106 144 182 241 306 367 436
#
# _framework density 23.516002
#
# number of rings (size 3 to 8) (size 9 to 14) (size 15 to 20)
#    0.000    0.800    3.000    2.400    5.600    6.400 
#    0.000    0.000    0.000    0.000    0.000    0.000 
#    0.000    0.000    0.000    0.000    0.000    0.000 
#
# Total GULP energy -111662.560997 kJ/mol
# GULP energy per Si atom -5583.128050 kJ/mol
# Density = 2.346248 g / cm^3
# Si number density = 23.516002 Si / 1000 Ang^3
#
#
#
# Elastic Constant Matrix: (Units=GPa)
#
#
# Indices 1 2 3 4 5 6 
#
# 1 210.8619 27.9685 10.8545 0.0000 0.0000 0.0000
# 2 27.9685 185.6367 13.0163 0.0000 0.0000 0.0000
# 3 10.8545 13.0163 62.9157 0.0000 0.0000 0.0000
# 4 0.0000 0.0000 0.0000 20.2489 0.0000 0.0000
# 5 0.0000 0.0000 0.0000 0.0000 10.1964 0.0000
# 6 0.0000 0.0000 0.0000 0.0000 0.0000 59.9455
#
#
#
# Elastic Compliance Matrix: (Units=1/GPa)
#
#
# Indices 1 2 3 4 5 6 
#
# 1 0.004869 -0.000685 -0.000698 0.000000 0.000000 0.000000
# 2 -0.000685 0.005562 -0.001033 0.000000 0.000000 0.000000
# 3 -0.000698 -0.001033 0.016228 0.000000 0.000000 0.000000
# 4 0.000000 0.000000 0.000000 0.049385 0.000000 0.000000
# 5 0.000000 0.000000 0.000000 0.000000 0.098074 0.000000
# 6 0.000000 0.000000 0.000000 0.000000 0.000000 0.016682
#
#
# Mechanical properties :
#
#
# Convention : Reuss Voigt Hill
#
# Bulk Modulus (GPa) = 45.81143 62.56587 54.18865
# Shear Modulus (GPa) = 24.64160 45.24981 34.94570
#
# Velocity S-wave (km/s) = 3.24059 4.39134 3.85910
# Velocity P-wave (km/s) = 5.79009 7.23708 6.55364
#
# Compressibility (1/GPa) = 0.02182861
#
# Stress axis : x y z
#
# Youngs Moduli (GPa) = 205.37242 179.77778 61.62030
#
# Poissons Ratio (x) = 0.12308 0.04304
# Poissons Ratio (y) = 0.14061 0.06363
# Poissons Ratio (z) = 0.14344 0.18565
#
# Static dielectric constant tensor:
#      x y z
#    x 1.891820 0.000000 0.000000 
#    y 0.000000 2.074830 0.000000 
#    z 0.000000 0.000000 1.840850 
# 
# From -- ./inp_files/1760.got.cif
#   From: 2010.05.17/outbox.cif.g08.bks.cpg/sg40_1_cif.got.tgz:1760.got - 2010.06.03 18:35:42.
