data_PCOD9365386
_publ_section_title
;
Structure prediction by ZEFSAII (Michael W. Deem and Ramdas Pophale) SiO2 
 PCOD9365386
Probable space group: A M A 2
;
_chemical_formula_sum "Si O2"
_cell_formula_units_Z 64
_cell_length_a 14.686097
_cell_length_b 7.410168
_cell_length_c 22.834797
_cell_angle_alpha 90.000000
_cell_angle_beta 90.000000
_cell_angle_gamma 90.000000
_cell_volume 2485.029803
_symmetry_space_group_name_H-M "A M A 2"
_symmetry_group_IT_number 40
_symmetry_cell_setting 'orthorhombic'
loop_
_space_group_symop_operation_xyz
x,y,z
-x,-y,z
1/2-x,y,z
1/2+x,-y,z
x,1/2+y,1/2+z
-x,1/2-y,1/2+z
1/2-x,1/2+y,1/2+z
1/2+x,1/2-y,1/2+z
loop_
_atom_site_type_symbol
_atom_site_label
_atom_site_fract_x
_atom_site_fract_y
_atom_site_fract_z
Si Si1 0.354227 0.294281 0.084210
Si Si2 0.861179 0.713372 0.832741
Si Si3 0.855059 0.637052 0.582592
Si Si4 0.903197 0.587590 0.211190
Si Si5 0.149026 0.804920 0.208306
Si Si6 0.360683 0.794224 0.458911
Si Si7 0.859055 0.140752 0.832648
Si Si8 0.860872 0.636184 0.457971
O O1 0.250000 0.359133 0.088996
O O2 0.397486 0.333136 0.146644
O O3 0.351693 0.078508 0.077551
O O4 0.392746 0.364419 0.022130
O O5 0.750000 0.701655 0.830810
O O6 0.893530 0.638000 0.770269
O O7 0.889997 0.634134 0.895335
O O8 0.883711 0.927156 0.832963
O O9 0.750000 0.704354 0.585912
O O10 0.899160 0.671727 0.645703
O O11 0.895763 0.703893 0.520990
O O12 0.840222 0.410790 0.213285
O O13 0.885058 0.709111 0.268217
O O14 0.000000 0.500000 0.219625
O O15 0.250000 0.891727 0.203661
O O16 0.250000 0.812548 0.460630
O O17 0.379234 0.578831 0.456407
O O18 0.750000 0.154698 0.835566
O O19 0.893468 0.212131 0.895529
O O20 0.750000 0.656149 0.460249
#
# Coordination Sequence:
#
# PCOD9365386 Si02
#       8
#     8   8   8   8   8   8   8   8
#     4   9  16  28  46  66  87 112 142 178 221 263
#     4   7  10  18  36  63  86 103 132 171 204 241
#     4   8  14  25  46  74  94 109 137 179 222 262
#     4  11  21  30  41  61  90 121 152 183 213 251
#     4   9  16  28  47  68  89 113 141 176 219 263
#     4   7  10  18  36  62  85 103 132 172 206 242
#     4   8  13  24  43  63  83 109 141 179 221 258
#     4   7  10  19  39  67  90 104 129 176 224 258
#
# _framework density 25.754218000000002
#
# number of rings (size 3 to 8) (size 9 to 14) (size 15 to 20)
#    0.000    3.750    0.000    4.875    0.000    0.000 
#    0.000    0.625    0.000    7.500    0.000    7.000 
#    0.000    0.000    0.000    0.000    0.000    0.000 
#
# Total GULP energy -178302.345658 kJ/mol
# GULP energy per Si atom -5571.948302 kJ/mol
# Density = 2.569560 g / cm^3
# Si number density = 25.754218 Si / 1000 Ang^3
#
#
#
# Elastic Constant Matrix: (Units=GPa)
#
#
# Indices 1 2 3 4 5 6 
#
# 1 51.4190 3.8901 29.0855 0.0000 0.0000 0.0000
# 2 3.8901 72.5251 18.9274 0.0000 0.0000 0.0000
# 3 29.0855 18.9274 396.2174 0.0000 0.0000 0.0000
# 4 0.0000 0.0000 0.0000 18.7495 0.0000 0.0000
# 5 0.0000 0.0000 0.0000 0.0000 55.7255 0.0000
# 6 0.0000 0.0000 0.0000 0.0000 0.0000 -31.7683
#
#
#
# Elastic Compliance Matrix: (Units=1/GPa)
#
#
# Indices 1 2 3 4 5 6 
#
# 1 0.020327 -0.000710 -0.001458 0.000000 0.000000 0.000000
# 2 -0.000710 0.013987 -0.000616 0.000000 0.000000 0.000000
# 3 -0.001458 -0.000616 0.002660 0.000000 0.000000 0.000000
# 4 0.000000 0.000000 0.000000 0.053335 0.000000 0.000000
# 5 0.000000 0.000000 0.000000 0.000000 0.017945 0.000000
# 6 0.000000 0.000000 0.000000 0.000000 0.000000 -0.031478
#
#
# Mechanical properties :
#
#
# Convention : Reuss Voigt Hill
#
# Bulk Modulus (GPa) = 31.84092 69.32972 50.58532
# Shear Modulus (GPa) = 53.87194 39.75859 46.81527
#
# Velocity S-wave (km/s) = 4.57855 3.93335 4.26816
# Velocity P-wave (km/s) = 6.35146 6.89974 6.63127
#
# Compressibility (1/GPa) = 0.03140612
#
# Stress axis : x y z
#
# Youngs Moduli (GPa) = 49.19658 71.49401 375.89144
#
# Poissons Ratio (x) = 0.05074 0.54814
# Poissons Ratio (y) = 0.03492 0.23158
# Poissons Ratio (z) = 0.07174 0.04405
#
# Static dielectric constant tensor:
#      x y z
#    x 1.825610 0.000000 0.000000 
#    y 0.000000 2.053520 0.000000 
#    z 0.000000 0.000000 2.156320 
# 
# From -- ./inp_files/23412.got.cif
#   From: 2010.05.17/outbox.cif.g08.bks.cpg/sg40_12_cif.got.tgz:23412.got - 2010.06.03 18:35:42.
