data_PCOD9365896
_publ_section_title
;
Structure prediction by ZEFSAII (Michael W. Deem and Ramdas Pophale) SiO2 
 PCOD9365896
Probable space group: A B A 2
;
_chemical_formula_sum "Si O2"
_cell_formula_units_Z 52
_cell_length_a 12.561694
_cell_length_b 24.801021
_cell_length_c 7.047008
_cell_angle_alpha 90.000000
_cell_angle_beta 90.000000
_cell_angle_gamma 90.000000
_cell_volume 2195.444862
_symmetry_space_group_name_H-M "A B A 2"
_symmetry_group_IT_number 41
_symmetry_cell_setting 'orthorhombic'
loop_
_space_group_symop_operation_xyz
x,y,z
-x,-y,z
1/2-x,y,1/2+z
1/2+x,-y,1/2+z
x,1/2+y,1/2+z
-x,1/2-y,1/2+z
1/2-x,1/2+y,z
1/2+x,1/2-y,z
loop_
_atom_site_type_symbol
_atom_site_label
_atom_site_fract_x
_atom_site_fract_y
_atom_site_fract_z
Si Si1 0.000000 0.500000 0.391460
Si Si2 0.339219 0.451045 0.166729
Si Si3 0.929574 0.182935 0.494575
Si Si4 0.894018 0.068364 0.604678
Si Si5 0.116137 0.833587 0.074654
Si Si6 0.652613 0.787224 0.047709
Si Si7 0.112846 0.699120 0.487818
O O1 0.901919 0.506219 0.537960
O O2 0.989845 0.548225 0.238018
O O3 0.213184 0.459995 0.181263
O O4 0.393054 0.444362 0.376355
O O5 0.341973 0.393879 0.050823
O O6 0.895780 0.133138 0.622080
O O7 0.867617 0.175495 0.299343
O O8 0.907042 0.241661 0.576884
O O9 0.055390 0.183504 0.442931
O O10 0.158412 0.776446 0.991991
O O11 0.989910 0.835579 0.033390
O O12 0.614209 0.791167 0.263506
O O13 0.766641 0.815434 0.036853
#
# Coordination Sequence:
#
# PCOD9365896 Si02
#       7
#     4   8   8   8   8   8   8
#     4  12  26  44  72 100 128 168 214 288 336 394
#     4  11  23  44  72  98 130 167 221 276 337 397
#     4   9  20  36  58  89 121 165 208 258 309 383
#     4  11  23  44  72  98 130 167 221 276 337 397
#     4   9  20  36  58  89 121 165 208 258 309 383
#     4  10  19  32  54  85 129 166 205 248 309 375
#     4  10  19  32  54  85 129 166 205 248 309 375
#
# _framework density 23.685406
#
# number of rings (size 3 to 8) (size 9 to 14) (size 15 to 20)
#    0.000    1.846    1.538    2.308    2.154    1.231 
#    0.000    1.538    6.769    0.000    0.000    0.000 
#    0.000    0.000    0.000    0.000    0.000    0.000 
#
# Total GULP energy -145087.385744 kJ/mol
# GULP energy per Si atom -5580.284067 kJ/mol
# Density = 2.363150 g / cm^3
# Si number density = 23.685406 Si / 1000 Ang^3
#
#
#
# Elastic Constant Matrix: (Units=GPa)
#
#
# Indices 1 2 3 4 5 6 
#
# 1 121.4368 12.8219 11.2484 0.0000 0.0000 0.0000
# 2 12.8219 36.0909 19.8280 0.0000 0.0000 0.0000
# 3 11.2484 19.8280 110.4411 0.0000 0.0000 0.0000
# 4 0.0000 0.0000 0.0000 34.7625 0.0000 0.0000
# 5 0.0000 0.0000 0.0000 0.0000 31.3076 0.0000
# 6 0.0000 0.0000 0.0000 0.0000 0.0000 28.6802
#
#
#
# Elastic Compliance Matrix: (Units=1/GPa)
#
#
# Indices 1 2 3 4 5 6 
#
# 1 0.008569 -0.002845 -0.000362 0.000000 0.000000 0.000000
# 2 -0.002845 0.031685 -0.005399 0.000000 0.000000 0.000000
# 3 -0.000362 -0.005399 0.010061 0.000000 0.000000 0.000000
# 4 0.000000 0.000000 0.000000 0.028767 0.000000 0.000000
# 5 0.000000 0.000000 0.000000 0.000000 0.031941 0.000000
# 6 0.000000 0.000000 0.000000 0.000000 0.000000 0.034867
#
#
# Mechanical properties :
#
#
# Convention : Reuss Voigt Hill
#
# Bulk Modulus (GPa) = 30.20950 39.52949 34.86949
# Shear Modulus (GPa) = 28.71335 33.88808 31.30071
#
# Velocity S-wave (km/s) = 3.48556 3.78664 3.63921
# Velocity P-wave (km/s) = 5.38340 5.98697 5.69319
#
# Compressibility (1/GPa) = 0.03310217
#
# Stress axis : x y z
#
# Youngs Moduli (GPa) = 116.70401 31.56104 99.39656
#
# Poissons Ratio (x) = 0.08980 0.03597
# Poissons Ratio (y) = 0.33207 0.53661
# Poissons Ratio (z) = 0.04223 0.17039
#
# Static dielectric constant tensor:
#      x y z
#    x 2.008420 0.000000 0.000000 
#    y 0.000000 1.903950 0.000000 
#    z 0.000000 0.000000 1.983860 
# 
# From -- ./inp_files/2150.got.cif
#   From: 2010.05.17/outbox.cif.g08.bks.cpg/sg41_2_cif.got.tgz:2150.got - 2010.06.03 18:54:24.
