data_PCOD9365489
_publ_section_title
;
Structure prediction by ZEFSAII (Michael W. Deem and Ramdas Pophale) SiO2 
 PCOD9365489
Probable space group: A M A 2
;
_chemical_formula_sum "Si O2"
_cell_formula_units_Z 52
_cell_length_a 23.347650
_cell_length_b 12.539346
_cell_length_c 7.779211
_cell_angle_alpha 90.000000
_cell_angle_beta 90.000000
_cell_angle_gamma 90.000000
_cell_volume 2277.474965
_symmetry_space_group_name_H-M "A M A 2"
_symmetry_group_IT_number 40
_symmetry_cell_setting 'orthorhombic'
loop_
_space_group_symop_operation_xyz
x,y,z
-x,-y,z
1/2-x,y,z
1/2+x,-y,z
x,1/2+y,1/2+z
-x,1/2-y,1/2+z
1/2-x,1/2+y,1/2+z
1/2+x,1/2-y,1/2+z
loop_
_atom_site_type_symbol
_atom_site_label
_atom_site_fract_x
_atom_site_fract_y
_atom_site_fract_z
Si Si1 0.750000 0.361468 0.618660
Si Si2 0.982422 0.389244 0.369684
Si Si3 0.369050 0.888650 0.278362
Si Si4 0.052926 0.795753 0.575688
Si Si5 0.250000 0.548243 0.265455
Si Si6 0.627006 0.881102 0.268019
Si Si7 0.250000 0.375232 0.975331
Si Si8 0.630278 0.344305 0.159874
O O1 0.750000 0.454020 0.473292
O O2 0.693927 0.364099 0.733615
O O3 0.750000 0.250398 0.514417
O O4 0.991648 0.286008 0.488386
O O5 0.917362 0.380577 0.298714
O O6 0.000000 0.500000 0.453681
O O7 0.022616 0.374864 0.204741
O O8 0.412974 0.857644 0.429421
O O9 0.306848 0.902137 0.367527
O O10 0.367093 0.784350 0.160075
O O11 0.386418 0.000939 0.196284
O O12 0.094570 0.715055 0.676694
O O13 0.250000 0.439673 0.155056
O O14 0.307912 0.610026 0.212375
O O15 0.614764 0.883195 0.470258
#
# Coordination Sequence:
#
# PCOD9365489 Si02
#       8
#     4   8   8   8   4   8   4   8
#     4  12  24  40  62 102 139 172 224 279 323 413
#     4  11  25  44  70  96 134 178 222 278 338 393
#     4  11  23  44  69  96 137 178 218 281 336 401
#     4  11  25  44  65  99 133 171 229 278 323 403
#     4  12  23  41  71  96 132 176 218 270 339 393
#     4  12  24  41  68  99 134 176 226 274 338 397
#     4  12  21  41  69  96 135 174 214 275 342 392
#     4  11  23  43  69  99 131 175 224 273 333 404
#
# _framework density 22.832303
#
# number of rings (size 3 to 8) (size 9 to 14) (size 15 to 20)
#    0.000    0.615    4.615    3.692    0.000    4.923 
#    0.000    0.769    0.000    0.000    0.000    0.000 
#    0.000    0.000    0.000    0.000    0.000    0.000 
#
# Total GULP energy -145601.826915 kJ/mol
# GULP energy per Si atom -5600.070266 kJ/mol
# Density = 2.278034 g / cm^3
# Si number density = 22.832303 Si / 1000 Ang^3
#
#
#
# Elastic Constant Matrix: (Units=GPa)
#
#
# Indices 1 2 3 4 5 6 
#
# 1 73.8178 29.8917 -9.3387 0.0000 0.0000 0.0000
# 2 29.8917 92.1030 -4.0259 0.0000 0.0000 0.0000
# 3 -9.3387 -4.0259 34.2711 0.0000 0.0000 0.0000
# 4 0.0000 0.0000 0.0000 34.5522 0.0000 0.0000
# 5 0.0000 0.0000 0.0000 0.0000 -17.9962 0.0000
# 6 0.0000 0.0000 0.0000 0.0000 0.0000 12.6058
#
#
#
# Elastic Compliance Matrix: (Units=1/GPa)
#
#
# Indices 1 2 3 4 5 6 
#
# 1 0.016071 -0.005050 0.003786 0.000000 0.000000 0.000000
# 2 -0.005050 0.012500 0.000092 0.000000 0.000000 0.000000
# 3 0.003786 0.000092 0.030222 0.000000 0.000000 0.000000
# 4 0.000000 0.000000 0.000000 0.028942 0.000000 0.000000
# 5 0.000000 0.000000 0.000000 0.000000 -0.055567 0.000000
# 6 0.000000 0.000000 0.000000 0.000000 0.000000 0.079329
#
#
# Mechanical properties :
#
#
# Convention : Reuss Voigt Hill
#
# Bulk Modulus (GPa) = 17.71511 25.91624 21.81567
# Shear Modulus (GPa) = 37.69129 18.07666 27.88397
#
# Velocity S-wave (km/s) = 4.06740 2.81679 3.49843
# Velocity P-wave (km/s) = 5.46204 4.68556 5.08863
#
# Compressibility (1/GPa) = 0.05644898
#
# Stress axis : x y z
#
# Youngs Moduli (GPa) = 62.22432 79.99681 33.08888
#
# Poissons Ratio (x) = 0.40401 -0.12527
# Poissons Ratio (y) = 0.31425 -0.00305
# Poissons Ratio (z) = -0.23558 -0.00738
#
# Static dielectric constant tensor:
#      x y z
#    x 1.841060 0.000000 0.000000 
#    y 0.000000 1.826880 0.000000 
#    z 0.000000 0.000000 1.825520 
# 
# From -- ./inp_files/9129.got.cif
#   From: 2010.05.17/outbox.cif.g08.bks.cpg/sg40_5_cif.got.tgz:9129.got - 2010.06.03 18:35:42.
