data_PCOD9365797
_publ_section_title
;
Structure prediction by ZEFSAII (Michael W. Deem and Ramdas Pophale) SiO2 
 PCOD9365797
Probable space group: A B A 2
;
_chemical_formula_sum "Si O2"
_cell_formula_units_Z 52
_cell_length_a 8.410833
_cell_length_b 16.940478
_cell_length_c 15.266167
_cell_angle_alpha 90.000000
_cell_angle_beta 90.000000
_cell_angle_gamma 90.000000
_cell_volume 2175.177385
_symmetry_space_group_name_H-M "A B A 2"
_symmetry_group_IT_number 41
_symmetry_cell_setting 'orthorhombic'
loop_
_space_group_symop_operation_xyz
x,y,z
-x,-y,z
1/2-x,y,1/2+z
1/2+x,-y,1/2+z
x,1/2+y,1/2+z
-x,1/2-y,1/2+z
1/2-x,1/2+y,z
1/2+x,1/2-y,z
loop_
_atom_site_type_symbol
_atom_site_label
_atom_site_fract_x
_atom_site_fract_y
_atom_site_fract_z
Si Si1 0.429625 0.777355 0.167890
Si Si2 0.121251 0.368096 0.640832
Si Si3 0.173825 0.233964 0.368141
Si Si4 0.053348 0.082483 0.310670
Si Si5 0.978784 0.863928 0.902968
Si Si6 0.500000 0.000000 0.528997
Si Si7 0.595471 0.425625 0.723151
O O1 0.485651 0.697550 0.121236
O O2 0.284205 0.823699 0.127538
O O3 0.368162 0.754641 0.266440
O O4 0.570815 0.842276 0.173522
O O5 0.115963 0.449791 0.589498
O O6 0.080344 0.390412 0.741260
O O7 0.078811 0.151934 0.379976
O O8 0.350858 0.203886 0.382860
O O9 0.132118 0.311180 0.423579
O O10 0.220667 0.069213 0.256092
O O11 0.000000 0.000000 0.349862
O O12 0.003258 0.910563 0.812854
O O13 0.926632 0.930730 0.970200
O O14 0.500000 0.500000 0.682255
#
# Coordination Sequence:
#
# PCOD9365797 Si02
#       7
#     8   8   8   8   8   4   8
#     4  10  20  38  64  94 116 148 199 253 317 349
#     4  11  22  39  60  87 122 160 194 246 298 368
#     4   9  19  37  65  88 117 144 196 255 303 352
#     4  10  18  33  59  98 123 149 188 249 317 347
#     4  10  21  40  58  88 118 160 196 239 298 358
#     4  12  26  40  58  80 124 170 204 232 292 360
#     4  10  19  33  63  97 122 145 193 258 308 353
#
# _framework density 23.906099000000001
#
# number of rings (size 3 to 8) (size 9 to 14) (size 15 to 20)
#    0.000    1.846    1.538    5.538    0.000    2.462 
#    0.000    0.000    0.000    1.846    0.000    0.000 
#    0.000    0.000    0.000    0.000    0.000    0.000 
#
# Total GULP energy -145068.336123 kJ/mol
# GULP energy per Si atom -5579.551389 kJ/mol
# Density = 2.385169 g / cm^3
# Si number density = 23.906099 Si / 1000 Ang^3
#
#
#
# Elastic Constant Matrix: (Units=GPa)
#
#
# Indices 1 2 3 4 5 6 
#
# 1 78.9764 45.4379 0.5353 0.0000 0.0000 0.0000
# 2 45.4379 177.4666 15.9609 0.0000 0.0000 0.0000
# 3 0.5353 15.9609 26.5752 0.0000 0.0000 0.0000
# 4 0.0000 0.0000 0.0000 19.1485 0.0000 0.0000
# 5 0.0000 0.0000 0.0000 0.0000 -3.1308 0.0000
# 6 0.0000 0.0000 0.0000 0.0000 0.0000 43.2023
#
#
#
# Elastic Compliance Matrix: (Units=1/GPa)
#
#
# Indices 1 2 3 4 5 6 
#
# 1 0.014961 -0.004021 0.002113 0.000000 0.000000 0.000000
# 2 -0.004021 0.007037 -0.004145 0.000000 0.000000 0.000000
# 3 0.002113 -0.004145 0.040076 0.000000 0.000000 0.000000
# 4 0.000000 0.000000 0.000000 0.052223 0.000000 0.000000
# 5 0.000000 0.000000 0.000000 0.000000 -0.319402 0.000000
# 6 0.000000 0.000000 0.000000 0.000000 0.000000 0.023147
#
#
# Mechanical properties :
#
#
# Convention : Reuss Voigt Hill
#
# Bulk Modulus (GPa) = 20.01245 45.20960 32.61103
# Shear Modulus (GPa) = -32.63794 26.58292 -3.02751
#
# Velocity S-wave (km/s) = -3.69895 3.33824 -1.12657
# Velocity P-wave (km/s) = 3.13903 5.81471 3.46102
#
# Compressibility (1/GPa) = 0.04996890
#
# Stress axis : x y z
#
# Youngs Moduli (GPa) = 66.84095 142.10358 24.95243
#
# Poissons Ratio (x) = 0.57134 -0.05273
# Poissons Ratio (y) = 0.26874 0.10344
# Poissons Ratio (z) = -0.14126 0.58909
#
# Static dielectric constant tensor:
#      x y z
#    x 1.989110 0.000000 0.000000 
#    y 0.000000 1.941680 0.000000 
#    z 0.000000 0.000000 1.980460 
# 
# From -- ./inp_files/9744.got.cif
#   From: 2010.05.17/outbox.cif.g08.bks.cpg/sg41_5_cif.got.tgz:9744.got - 2010.06.03 18:54:24.
