data_PCOD9365183
_publ_section_title
;
Structure prediction by ZEFSAII (Michael W. Deem and Ramdas Pophale) SiO2 
 PCOD9365183
Probable space group: A M A 2
;
_chemical_formula_sum "Si O2"
_cell_formula_units_Z 56
_cell_length_a 15.621058
_cell_length_b 11.788509
_cell_length_c 14.809816
_cell_angle_alpha 90.000000
_cell_angle_beta 90.000000
_cell_angle_gamma 90.000000
_cell_volume 2727.212552
_symmetry_space_group_name_H-M "A M A 2"
_symmetry_group_IT_number 40
_symmetry_cell_setting 'orthorhombic'
loop_
_space_group_symop_operation_xyz
x,y,z
-x,-y,z
1/2-x,y,z
1/2+x,-y,z
x,1/2+y,1/2+z
-x,1/2-y,1/2+z
1/2-x,1/2+y,1/2+z
1/2+x,1/2-y,1/2+z
loop_
_atom_site_type_symbol
_atom_site_label
_atom_site_fract_x
_atom_site_fract_y
_atom_site_fract_z
Si Si1 0.470969 0.653017 0.016140
Si Si2 0.148684 0.752785 0.675079
Si Si3 0.955786 0.889894 0.037058
Si Si4 0.149673 0.114503 0.347755
Si Si5 0.651152 0.122383 0.413277
Si Si6 0.844559 0.882574 0.867826
Si Si7 0.409621 0.511447 0.191764
O O1 0.477367 0.787003 0.032003
O O2 0.433882 0.587294 0.103867
O O3 0.404958 0.636539 0.935975
O O4 0.566962 0.616575 0.979154
O O5 0.250000 0.753248 0.676827
O O6 0.117746 0.671601 0.595027
O O7 0.116664 0.691296 0.766145
O O8 0.119919 0.883680 0.669226
O O9 0.914910 0.921892 0.940389
O O10 0.000000 0.000000 0.077959
O O11 0.250000 0.141260 0.360838
O O12 0.143584 0.977950 0.339975
O O13 0.750000 0.110698 0.453321
O O14 0.647577 0.246149 0.369643
O O15 0.750000 0.913061 0.902505
O O16 0.851835 0.929109 0.766477
O O17 0.500000 0.500000 0.241776
#
# Coordination Sequence:
#
# PCOD9365183 Si02
#       7
#     8   8   8   8   8   8   8
#     4  11  24  42  66 101 137 174 225 287 342 400
#     4  11  26  46  70 100 140 183 228 279 349 421
#     4  11  25  43  68  97 134 179 231 280 346 406
#     4  10  23  41  65  97 133 179 225 280 344 405
#     4   9  20  40  68  98 134 178 230 279 345 413
#     4  10  23  41  66  98 136 181 224 280 345 409
#     4  12  24  42  65 102 136 174 228 280 339 411
#
# _framework density 20.533785999999999
#
# number of rings (size 3 to 8) (size 9 to 14) (size 15 to 20)
#    0.000    1.429    1.429    2.571    8.000    4.000 
#    0.000    0.714    0.000    0.000    0.000    0.000 
#    0.000    0.000    0.000    0.000    0.000    0.000 
#
# Total GULP energy -156103.161018 kJ/mol
# GULP energy per Si atom -5575.112894 kJ/mol
# Density = 2.048705 g / cm^3
# Si number density = 20.533786 Si / 1000 Ang^3
#
#
#
# Elastic Constant Matrix: (Units=GPa)
#
#
# Indices 1 2 3 4 5 6 
#
# 1 70.0075 40.0410 38.1649 0.0000 0.0000 0.0000
# 2 40.0410 113.0769 47.8710 0.0000 0.0000 0.0000
# 3 38.1649 47.8710 117.3030 0.0000 0.0000 0.0000
# 4 0.0000 0.0000 0.0000 10.3346 0.0000 0.0000
# 5 0.0000 0.0000 0.0000 0.0000 33.3361 0.0000
# 6 0.0000 0.0000 0.0000 0.0000 0.0000 28.9221
#
#
#
# Elastic Compliance Matrix: (Units=1/GPa)
#
#
# Indices 1 2 3 4 5 6 
#
# 1 0.019535 -0.005109 -0.004271 0.000000 0.000000 0.000000
# 2 -0.005109 0.012027 -0.003246 0.000000 0.000000 0.000000
# 3 -0.004271 -0.003246 0.011239 0.000000 0.000000 0.000000
# 4 0.000000 0.000000 0.000000 0.096762 0.000000 0.000000
# 5 0.000000 0.000000 0.000000 0.000000 0.029998 0.000000
# 6 0.000000 0.000000 0.000000 0.000000 0.000000 0.034576
#
#
# Mechanical properties :
#
#
# Convention : Reuss Voigt Hill
#
# Bulk Modulus (GPa) = 56.98303 61.39347 59.18825
# Shear Modulus (GPa) = 21.25518 26.13926 23.69722
#
# Velocity S-wave (km/s) = 3.22084 3.57177 3.40083
# Velocity P-wave (km/s) = 6.45313 6.85374 6.65644
#
# Compressibility (1/GPa) = 0.01754908
#
# Stress axis : x y z
#
# Youngs Moduli (GPa) = 51.19131 83.14699 88.97627
#
# Poissons Ratio (x) = 0.42483 0.37997
# Poissons Ratio (y) = 0.26155 0.28880
# Poissons Ratio (z) = 0.21861 0.26988
#
# Static dielectric constant tensor:
#      x y z
#    x 1.577690 0.000000 0.000000 
#    y 0.000000 1.797440 0.000000 
#    z 0.000000 0.000000 1.748320 
# 
# From -- ./inp_files/17091.got.cif
#   From: 2010.05.17/outbox.cif.g08.bks.cpg/sg40_9_cif.got.tgz:17091.got - 2010.06.03 18:35:42.
