data_PCOD9365498
_publ_section_title
;
Structure prediction by ZEFSAII (Michael W. Deem and Ramdas Pophale) SiO2 
 PCOD9365498
Probable space group: A M A 2
;
_chemical_formula_sum "Si O2"
_cell_formula_units_Z 48
_cell_length_a 9.540929
_cell_length_b 16.347727
_cell_length_c 13.938897
_cell_angle_alpha 90.000000
_cell_angle_beta 90.000000
_cell_angle_gamma 90.000000
_cell_volume 2174.084649
_symmetry_space_group_name_H-M "A M A 2"
_symmetry_group_IT_number 40
_symmetry_cell_setting 'orthorhombic'
loop_
_space_group_symop_operation_xyz
x,y,z
-x,-y,z
1/2-x,y,z
1/2+x,-y,z
x,1/2+y,1/2+z
-x,1/2-y,1/2+z
1/2-x,1/2+y,1/2+z
1/2+x,1/2-y,1/2+z
loop_
_atom_site_type_symbol
_atom_site_label
_atom_site_fract_x
_atom_site_fract_y
_atom_site_fract_z
Si Si1 0.750000 0.430463 0.753850
Si Si2 0.587035 0.915455 0.800895
Si Si3 0.750000 0.376920 0.971789
Si Si4 0.587035 0.584545 0.472293
Si Si5 0.004763 0.837786 0.167465
Si Si6 0.750000 0.623080 0.801400
Si Si7 0.250000 0.930463 0.519338
Si Si8 0.495237 0.162214 0.605724
O O1 0.750000 0.384973 0.857206
O O2 0.614525 0.400953 0.697108
O O3 0.750000 0.527812 0.767730
O O4 0.750000 0.926692 0.826724
O O5 0.500000 0.872185 0.886594
O O6 0.581585 0.869918 0.700322
O O7 0.500000 0.000000 0.787995
O O8 0.750000 0.472188 0.005458
O O9 0.614543 0.334397 0.018132
O O10 0.500000 0.500000 0.485193
O O11 0.750000 0.573308 0.446464
O O12 0.581585 0.630082 0.572866
O O13 0.114544 0.834397 0.255056
O O14 0.945565 0.750000 0.136594
O O15 0.750000 0.615027 0.915983
O O16 0.385475 0.900953 0.576081
#
# Coordination Sequence:
#
# PCOD9365498 Si02
#       8
#     4   8   4   8   8   4   4   8
#     4  11  25  44  73 101 131 179 234 281 330 412
#     4  11  24  42  69  97 133 177 227 275 327 397
#     4  11  23  46  73  99 133 179 230 281 338 396
#     4  11  24  42  69  97 133 177 227 275 327 397
#     4  12  26  44  65 103 138 174 218 279 350 406
#     4  11  23  46  73  99 133 179 230 281 338 396
#     4  11  25  44  73 101 131 179 234 281 330 412
#     4  12  26  44  65 103 138 174 218 279 350 406
#
# _framework density 22.078258000000002
#
# number of rings (size 3 to 8) (size 9 to 14) (size 15 to 20)
#    0.000    0.667    1.667    7.000    4.667    5.333 
#    0.000    0.000    0.000    0.000    0.000    0.000 
#    0.000    0.000    0.000    0.000    0.000    0.000 
#
# Total GULP energy -134245.587267 kJ/mol
# GULP energy per Si atom -5593.566136 kJ/mol
# Density = 2.202801 g / cm^3
# Si number density = 22.078258 Si / 1000 Ang^3
#
#
#
# Elastic Constant Matrix: (Units=GPa)
#
#
# Indices 1 2 3 4 5 6 
#
# 1 147.7988 -0.3872 27.8862 0.0000 0.0000 0.0000
# 2 -0.3872 43.8630 16.2880 0.0000 0.0000 0.0000
# 3 27.8862 16.2880 117.7550 0.0000 0.0000 0.0000
# 4 0.0000 0.0000 0.0000 15.3695 0.0000 0.0000
# 5 0.0000 0.0000 0.0000 0.0000 34.1030 0.0000
# 6 0.0000 0.0000 0.0000 0.0000 0.0000 95.0758
#
#
#
# Elastic Compliance Matrix: (Units=1/GPa)
#
#
# Indices 1 2 3 4 5 6 
#
# 1 0.007104 0.000725 -0.001783 0.000000 0.000000 0.000000
# 2 0.000725 0.024107 -0.003506 0.000000 0.000000 0.000000
# 3 -0.001783 -0.003506 0.009399 0.000000 0.000000 0.000000
# 4 0.000000 0.000000 0.000000 0.065064 0.000000 0.000000
# 5 0.000000 0.000000 0.000000 0.000000 0.029323 0.000000
# 6 0.000000 0.000000 0.000000 0.000000 0.000000 0.010518
#
#
# Mechanical properties :
#
#
# Convention : Reuss Voigt Hill
#
# Bulk Modulus (GPa) = 31.76411 44.11010 37.93711
# Shear Modulus (GPa) = 30.27793 46.61833 38.44813
#
# Velocity S-wave (km/s) = 3.70725 4.60010 4.17759
# Velocity P-wave (km/s) = 5.72217 6.94528 6.36318
#
# Compressibility (1/GPa) = 0.03148207
#
# Stress axis : x y z
#
# Youngs Moduli (GPa) = 140.76198 41.48244 106.39066
#
# Poissons Ratio (x) = -0.03006 0.18965
# Poissons Ratio (y) = -0.10201 0.37301
# Poissons Ratio (z) = 0.25093 0.14544
#
# Static dielectric constant tensor:
#      x y z
#    x 1.780860 0.000000 0.000000 
#    y 0.000000 1.821170 0.000000 
#    z 0.000000 0.000000 1.806460 
# 
# From -- ./inp_files/15117.got.cif
#   From: 2010.05.17/outbox.cif.g08.bks.cpg/sg40_8_cif.got.tgz:15117.got - 2010.06.03 18:35:42.
