data_PCOD9365969
_publ_section_title
;
Structure prediction by ZEFSAII (Michael W. Deem and Ramdas Pophale) SiO2 
 PCOD9365969
Probable space group: A B A 2
;
_chemical_formula_sum "Si O2"
_cell_formula_units_Z 64
_cell_length_a 27.309030
_cell_length_b 18.573241
_cell_length_c 5.281432
_cell_angle_alpha 90.000000
_cell_angle_beta 90.000000
_cell_angle_gamma 90.000000
_cell_volume 2678.833128
_symmetry_space_group_name_H-M "A B A 2"
_symmetry_group_IT_number 41
_symmetry_cell_setting 'orthorhombic'
loop_
_space_group_symop_operation_xyz
x,y,z
-x,-y,z
1/2-x,y,1/2+z
1/2+x,-y,1/2+z
x,1/2+y,1/2+z
-x,1/2-y,1/2+z
1/2-x,1/2+y,z
1/2+x,1/2-y,z
loop_
_atom_site_type_symbol
_atom_site_label
_atom_site_fract_x
_atom_site_fract_y
_atom_site_fract_z
Si Si1 0.133477 0.076534 0.022770
Si Si2 0.483406 0.140966 0.712838
Si Si3 0.566246 0.752977 0.360866
Si Si4 0.620387 0.131244 0.141522
Si Si5 0.774075 0.512427 0.670660
Si Si6 0.265783 0.327888 0.664381
Si Si7 0.421553 0.944444 0.642953
Si Si8 0.889129 0.848912 0.509424
O O1 0.175797 0.018062 0.066904
O O2 0.138325 0.136389 0.244875
O O3 0.085923 0.028180 0.085365
O O4 0.133113 0.104518 0.737606
O O5 0.451624 0.172125 0.480812
O O6 0.519645 0.208214 0.772468
O O7 0.522181 0.078502 0.668946
O O8 0.445545 0.130939 0.941597
O O9 0.592772 0.705013 0.571049
O O10 0.603992 0.770224 0.134017
O O11 0.678135 0.147034 0.157539
O O12 0.600477 0.098193 0.401854
O O13 0.606079 0.079339 0.903114
O O14 0.735345 0.488053 0.456745
O O15 0.768065 0.599176 0.671001
O O16 0.248962 0.286755 0.416167
#
# Coordination Sequence:
#
# PCOD9365969 Si02
#       8
#     8   8   8   8   8   8   8   8
#     4  12  25  43  63 100 140 178 217 278 346 412
#     4  11  23  43  69  95 125 179 235 277 326 379
#     4  11  23  43  71  93 133 175 236 283 328 397
#     4  11  23  39  70 103 130 170 220 290 342 391
#     4  10  19  36  66  90 124 165 212 267 328 412
#     4  10  19  35  61  96 130 158 203 271 343 402
#     4  11  24  40  64 100 139 171 226 277 337 403
#     4  12  26  43  65  94 137 184 229 268 331 409
#
# _framework density 23.891000999999999
#
# number of rings (size 3 to 8) (size 9 to 14) (size 15 to 20)
#    0.000    1.000    2.500    6.000    3.500    0.500 
#    2.250    0.000    0.000    4.500    0.000    0.000 
#    0.000    0.000    0.000    0.000    0.000    0.000 
#
# Total GULP energy -178919.967730 kJ/mol
# GULP energy per Si atom -5591.248992 kJ/mol
# Density = 2.383662 g / cm^3
# Si number density = 23.891001 Si / 1000 Ang^3
#
#
#
# Elastic Constant Matrix: (Units=GPa)
#
#
# Indices 1 2 3 4 5 6 
#
# 1 35.8185 -13.9570 -1.5398 0.0000 0.0000 0.0000
# 2 -13.9570 50.4333 7.7245 0.0000 0.0000 0.0000
# 3 -1.5398 7.7245 150.4834 0.0000 0.0000 0.0000
# 4 0.0000 0.0000 0.0000 32.1818 0.0000 0.0000
# 5 0.0000 0.0000 0.0000 0.0000 41.1249 0.0000
# 6 0.0000 0.0000 0.0000 0.0000 0.0000 19.6293
#
#
#
# Elastic Compliance Matrix: (Units=1/GPa)
#
#
# Indices 1 2 3 4 5 6 
#
# 1 0.031295 0.008680 -0.000125 0.000000 0.000000 0.000000
# 2 0.008680 0.022393 -0.001061 0.000000 0.000000 0.000000
# 3 -0.000125 -0.001061 0.006698 0.000000 0.000000 0.000000
# 4 0.000000 0.000000 0.000000 0.031073 0.000000 0.000000
# 5 0.000000 0.000000 0.000000 0.000000 0.024316 0.000000
# 6 0.000000 0.000000 0.000000 0.000000 0.000000 0.050944
#
#
# Mechanical properties :
#
#
# Convention : Reuss Voigt Hill
#
# Bulk Modulus (GPa) = 13.26709 24.57673 18.92191
# Shear Modulus (GPa) = 28.27140 34.88770 31.57955
#
# Velocity S-wave (km/s) = 3.44372 3.82552 3.63963
# Velocity P-wave (km/s) = 4.62358 5.46096 5.05962
#
# Compressibility (1/GPa) = 0.07537447
#
# Stress axis : x y z
#
# Youngs Moduli (GPa) = 31.95360 44.65738 149.28912
#
# Poissons Ratio (x) = -0.38762 0.01871
# Poissons Ratio (y) = -0.27736 0.15834
# Poissons Ratio (z) = 0.00400 0.04736
#
# Static dielectric constant tensor:
#      x y z
#    x 1.944010 0.000000 0.000000 
#    y 0.000000 1.946140 0.000000 
#    z 0.000000 0.000000 1.985990 
# 
# From -- ./inp_files/1233.got.cif
#   From: 2010.05.17/outbox.cif.g08.bks.cpg/sg41_1_cif.got.tgz:1233.got - 2010.06.03 18:54:24.
