data_PCOD9365477
_publ_section_title
;
Structure prediction by ZEFSAII (Michael W. Deem and Ramdas Pophale) SiO2 
 PCOD9365477
Probable space group: A M A 2
;
_chemical_formula_sum "Si O2"
_cell_formula_units_Z 64
_cell_length_a 30.595267
_cell_length_b 11.741626
_cell_length_c 8.681187
_cell_angle_alpha 90.000000
_cell_angle_beta 90.000000
_cell_angle_gamma 90.000000
_cell_volume 3118.613840
_symmetry_space_group_name_H-M "A M A 2"
_symmetry_group_IT_number 40
_symmetry_cell_setting 'orthorhombic'
loop_
_space_group_symop_operation_xyz
x,y,z
-x,-y,z
1/2-x,y,z
1/2+x,-y,z
x,1/2+y,1/2+z
-x,1/2-y,1/2+z
1/2-x,1/2+y,1/2+z
1/2+x,1/2-y,1/2+z
loop_
_atom_site_type_symbol
_atom_site_label
_atom_site_fract_x
_atom_site_fract_y
_atom_site_fract_z
Si Si1 0.469042 0.604750 0.845150
Si Si2 0.413282 0.725274 0.256096
Si Si3 0.147617 0.887484 0.086025
Si Si4 0.869809 0.896550 0.296326
Si Si5 0.005260 0.278204 0.129156
Si Si6 0.899585 0.180610 0.593566
Si Si7 0.299876 0.668799 0.058800
Si Si8 0.149578 0.009666 0.755468
O O1 0.500000 0.500000 0.879504
O O2 0.418135 0.579428 0.865508
O O3 0.479749 0.650787 0.674411
O O4 0.485397 0.701751 0.961239
O O5 0.463275 0.693190 0.231043
O O6 0.405642 0.790762 0.415381
O O7 0.385248 0.611369 0.265670
O O8 0.395385 0.809701 0.121759
O O9 0.186130 0.795687 0.112500
O O10 0.151189 0.940062 0.914992
O O11 0.146000 0.993915 0.201412
O O12 0.879812 0.790062 0.182718
O O13 0.834288 0.861601 0.423384
O O14 0.050921 0.344557 0.152261
O O15 0.867388 0.077953 0.627585
O O16 0.250000 0.666723 0.006904
O O17 0.307919 0.576252 0.193978
#
# Coordination Sequence:
#
# PCOD9365477 Si02
#       8
#     8   8   8   8   8   8   8   8
#     4  11  24  41  61  95 137 184 224 273 324 383
#     4  11  23  40  62  94 134 181 229 272 325 382
#     4  11  23  43  73  95 129 170 217 276 336 398
#     4  11  23  44  70 100 135 177 225 275 340 398
#     4  11  24  38  59  94 137 179 233 274 310 383
#     4  11  23  42  63  95 138 183 225 272 332 390
#     4  11  26  47  72 100 130 168 217 279 351 415
#     4  11  24  42  68  97 128 170 220 270 336 404
#
# _framework density 20.521937000000001
#
# number of rings (size 3 to 8) (size 9 to 14) (size 15 to 20)
#    0.000    1.000    3.750    3.000    5.250    1.000 
#    0.000    0.625    0.000    0.000    0.000    0.000 
#    0.000    0.000    0.000    0.000    0.000    0.000 
#
# Total GULP energy -178700.842562 kJ/mol
# GULP energy per Si atom -5584.401330 kJ/mol
# Density = 2.047523 g / cm^3
# Si number density = 20.521937 Si / 1000 Ang^3
#
#
#
# Elastic Constant Matrix: (Units=GPa)
#
#
# Indices 1 2 3 4 5 6 
#
# 1 138.7242 46.2824 35.5755 0.0000 0.0000 0.0000
# 2 46.2824 100.1804 44.3533 0.0000 0.0000 0.0000
# 3 35.5755 44.3533 88.4211 0.0000 0.0000 0.0000
# 4 0.0000 0.0000 0.0000 41.7073 0.0000 0.0000
# 5 0.0000 0.0000 0.0000 0.0000 18.7451 0.0000
# 6 0.0000 0.0000 0.0000 0.0000 0.0000 13.3577
#
#
#
# Elastic Compliance Matrix: (Units=1/GPa)
#
#
# Indices 1 2 3 4 5 6 
#
# 1 0.008769 -0.003200 -0.001923 0.000000 0.000000 0.000000
# 2 -0.003200 0.013999 -0.005735 0.000000 0.000000 0.000000
# 3 -0.001923 -0.005735 0.014960 0.000000 0.000000 0.000000
# 4 0.000000 0.000000 0.000000 0.023977 0.000000 0.000000
# 5 0.000000 0.000000 0.000000 0.000000 0.053347 0.000000
# 6 0.000000 0.000000 0.000000 0.000000 0.000000 0.074863
#
#
# Mechanical properties :
#
#
# Convention : Reuss Voigt Hill
#
# Bulk Modulus (GPa) = 62.44978 64.41646 63.43312
# Shear Modulus (GPa) = 23.04474 28.16964 25.60719
#
# Velocity S-wave (km/s) = 3.35465 3.70896 3.53625
# Velocity P-wave (km/s) = 6.74550 7.05685 6.90293
#
# Compressibility (1/GPa) = 0.01601287
#
# Stress axis : x y z
#
# Youngs Moduli (GPa) = 114.03399 71.43208 66.84517
#
# Poissons Ratio (x) = 0.22858 0.12855
# Poissons Ratio (y) = 0.36490 0.38334
# Poissons Ratio (z) = 0.21930 0.40965
#
# Static dielectric constant tensor:
#      x y z
#    x 1.709830 0.000000 0.000000 
#    y 0.000000 1.737320 0.000000 
#    z 0.000000 0.000000 1.803540 
# 
# From -- ./inp_files/9444.got.cif
#   From: 2010.05.17/outbox.cif.g08.bks.cpg/sg40_5_cif.got.tgz:9444.got - 2010.06.03 18:35:42.
