data_PCOD9365072
_publ_section_title
;
Structure prediction by ZEFSAII (Michael W. Deem and Ramdas Pophale) SiO2 
 PCOD9365072
Probable space group: A M A 2
;
_chemical_formula_sum "Si O2"
_cell_formula_units_Z 56
_cell_length_a 14.634726
_cell_length_b 12.774734
_cell_length_c 13.301760
_cell_angle_alpha 90.000000
_cell_angle_beta 90.000000
_cell_angle_gamma 90.000000
_cell_volume 2486.826973
_symmetry_space_group_name_H-M "A M A 2"
_symmetry_group_IT_number 40
_symmetry_cell_setting 'orthorhombic'
loop_
_space_group_symop_operation_xyz
x,y,z
-x,-y,z
1/2-x,y,z
1/2+x,-y,z
x,1/2+y,1/2+z
-x,1/2-y,1/2+z
1/2-x,1/2+y,1/2+z
1/2+x,1/2-y,1/2+z
loop_
_atom_site_type_symbol
_atom_site_label
_atom_site_fract_x
_atom_site_fract_y
_atom_site_fract_z
Si Si1 0.897996 0.952227 0.668460
Si Si2 0.530756 0.697019 0.470344
Si Si3 0.889889 0.002199 0.240956
Si Si4 0.145240 0.283606 0.661547
Si Si5 0.353522 0.187027 0.099048
Si Si6 0.592591 0.434381 0.949987
Si Si7 0.852790 0.649204 0.281672
O O1 0.895346 0.828778 0.693620
O O2 0.859923 0.960083 0.554833
O O3 0.847765 0.031265 0.741027
O O4 0.000000 0.000000 0.665456
O O5 0.590185 0.667071 0.568050
O O6 0.426749 0.688376 0.508540
O O7 0.557713 0.817014 0.456034
O O8 0.570643 0.647483 0.368884
O O9 0.860302 0.122751 0.240501
O O10 0.856557 0.926807 0.152015
O O11 0.857956 0.952708 0.345848
O O12 0.000000 0.000000 0.235341
O O13 0.250000 0.264511 0.633210
O O14 0.250000 0.209740 0.066032
O O15 0.376585 0.272082 0.188124
O O16 0.500000 0.500000 0.946000
O O17 0.750000 0.680482 0.317627
#
# Coordination Sequence:
#
# PCOD9365072 Si02
#       7
#     8   8   8   8   8   8   8
#     4  10  22  42  69 101 141 191 237 294 356 427
#     4  11  22  43  71 102 141 192 237 295 363 442
#     4  11  21  40  71 102 143 190 239 298 370 431
#     4  11  23  41  68 105 147 190 245 302 362 432
#     4  11  23  42  73 111 143 184 244 308 363 431
#     4   9  19  36  69 102 132 181 237 283 353 427
#     4  11  23  43  72 105 143 186 238 293 364 437
#
# _framework density 22.518654999999999
#
# number of rings (size 3 to 8) (size 9 to 14) (size 15 to 20)
#    0.000    1.429    2.857    3.857    0.000    0.000 
#    2.571    2.143    0.000   22.286    0.000    0.000 
#    0.000    0.000    0.000    0.000    0.000    0.000 
#
# Total GULP energy -156350.151662 kJ/mol
# GULP energy per Si atom -5583.933988 kJ/mol
# Density = 2.246740 g / cm^3
# Si number density = 22.518655 Si / 1000 Ang^3
#
#
#
# Elastic Constant Matrix: (Units=GPa)
#
#
# Indices 1 2 3 4 5 6 
#
# 1 158.0654 19.1038 56.3163 0.0000 0.0000 0.0000
# 2 19.1038 79.8520 51.7214 0.0000 0.0000 0.0000
# 3 56.3163 51.7214 108.3554 0.0000 0.0000 0.0000
# 4 0.0000 0.0000 0.0000 37.1092 0.0000 0.0000
# 5 0.0000 0.0000 0.0000 0.0000 53.0691 0.0000
# 6 0.0000 0.0000 0.0000 0.0000 0.0000 23.8416
#
#
#
# Elastic Compliance Matrix: (Units=1/GPa)
#
#
# Indices 1 2 3 4 5 6 
#
# 1 0.007831 0.001104 -0.004597 0.000000 0.000000 0.000000
# 2 0.001104 0.018283 -0.009301 0.000000 0.000000 0.000000
# 3 -0.004597 -0.009301 0.016058 0.000000 0.000000 0.000000
# 4 0.000000 0.000000 0.000000 0.026947 0.000000 0.000000
# 5 0.000000 0.000000 0.000000 0.000000 0.018843 0.000000
# 6 0.000000 0.000000 0.000000 0.000000 0.000000 0.041944
#
#
# Mechanical properties :
#
#
# Convention : Reuss Voigt Hill
#
# Bulk Modulus (GPa) = 60.29853 66.72841 63.51347
# Shear Modulus (GPa) = 31.05153 37.41274 34.23214
#
# Velocity S-wave (km/s) = 3.71742 4.08046 3.90316
# Velocity P-wave (km/s) = 6.72762 7.20396 6.96986
#
# Compressibility (1/GPa) = 0.01658415
#
# Stress axis : x y z
#
# Youngs Moduli (GPa) = 127.69914 54.69417 62.27492
#
# Poissons Ratio (x) = -0.06039 0.28628
# Poissons Ratio (y) = -0.14099 0.57923
# Poissons Ratio (z) = 0.58704 0.50872
#
# Static dielectric constant tensor:
#      x y z
#    x 1.833090 0.000000 0.000000 
#    y 0.000000 1.769470 0.000000 
#    z 0.000000 0.000000 1.915350 
# 
# From -- ./inp_files/17101.got.cif
#   From: 2010.05.17/outbox.cif.g08.bks.cpg/sg40_9_cif.got.tgz:17101.got - 2010.06.03 18:35:42.
