data_PCOD9365841
_publ_section_title
;
Structure prediction by ZEFSAII (Michael W. Deem and Ramdas Pophale) SiO2 
 PCOD9365841
Probable space group: A B A 2
;
_chemical_formula_sum "Si O2"
_cell_formula_units_Z 52
_cell_length_a 9.142298
_cell_length_b 14.029524
_cell_length_c 18.290595
_cell_angle_alpha 90.000000
_cell_angle_beta 90.000000
_cell_angle_gamma 90.000000
_cell_volume 2345.989928
_symmetry_space_group_name_H-M "A B A 2"
_symmetry_group_IT_number 41
_symmetry_cell_setting 'orthorhombic'
loop_
_space_group_symop_operation_xyz
x,y,z
-x,-y,z
1/2-x,y,1/2+z
1/2+x,-y,1/2+z
x,1/2+y,1/2+z
-x,1/2-y,1/2+z
1/2-x,1/2+y,z
1/2+x,1/2-y,z
loop_
_atom_site_type_symbol
_atom_site_label
_atom_site_fract_x
_atom_site_fract_y
_atom_site_fract_z
Si Si1 0.064301 0.339935 0.547730
Si Si2 0.070597 0.163103 0.655552
Si Si3 0.020388 0.792149 0.891785
Si Si4 0.000000 0.500000 0.337364
Si Si5 0.274120 0.747725 0.795337
Si Si6 0.719639 0.564301 0.725681
Si Si7 0.294759 0.525853 0.086927
O O1 0.064268 0.264138 0.613729
O O2 0.066127 0.276790 0.474386
O O3 0.190302 0.422523 0.547159
O O4 0.915583 0.402278 0.555655
O O5 0.171111 0.185288 0.727123
O O6 0.146600 0.085962 0.601302
O O7 0.914332 0.119906 0.682454
O O8 0.107720 0.745932 0.823633
O O9 0.026560 0.906328 0.883152
O O10 0.856057 0.768440 0.871460
O O11 0.861646 0.497151 0.283397
O O12 0.301901 0.854966 0.769353
O O13 0.821516 0.509351 0.669989
#
# Coordination Sequence:
#
# PCOD9365841 Si02
#       7
#     8   8   8   4   8   8   8
#     4  11  27  41  63 100 138 183 228 289 350 428
#     4  12  22  41  71 101 134 179 232 294 343 417
#     4  11  25  42  65  97 136 187 226 281 353 415
#     4  10  18  38  60  90 132 170 222 274 334 400
#     4  11  22  41  70  98 138 178 235 286 347 414
#     4  11  20  38  68 102 126 180 230 289 340 414
#     4  11  23  41  67  96 137 174 234 284 354 411
#
# _framework density 22.165482000000001
#
# number of rings (size 3 to 8) (size 9 to 14) (size 15 to 20)
#    0.000    0.923    6.154    1.846    2.154    0.000 
#    0.000    0.000    0.000    0.000    0.000    0.000 
#    0.000    0.000    0.000    0.000    0.000    0.000 
#
# Total GULP energy -144863.668646 kJ/mol
# GULP energy per Si atom -5571.679563 kJ/mol
# Density = 2.211503 g / cm^3
# Si number density = 22.165482 Si / 1000 Ang^3
#
#
#
# Elastic Constant Matrix: (Units=GPa)
#
#
# Indices 1 2 3 4 5 6 
#
# 1 44.5104 9.5826 18.9707 0.0000 0.0000 0.0000
# 2 9.5826 80.3519 21.5074 0.0000 0.0000 0.0000
# 3 18.9707 21.5074 94.8464 0.0000 0.0000 0.0000
# 4 0.0000 0.0000 0.0000 35.6190 0.0000 0.0000
# 5 0.0000 0.0000 0.0000 0.0000 19.9544 0.0000
# 6 0.0000 0.0000 0.0000 0.0000 0.0000 31.0529
#
#
#
# Elastic Compliance Matrix: (Units=1/GPa)
#
#
# Indices 1 2 3 4 5 6 
#
# 1 0.024785 -0.001734 -0.004564 0.000000 0.000000 0.000000
# 2 -0.001734 0.013371 -0.002685 0.000000 0.000000 0.000000
# 3 -0.004564 -0.002685 0.012065 0.000000 0.000000 0.000000
# 4 0.000000 0.000000 0.000000 0.028075 0.000000 0.000000
# 5 0.000000 0.000000 0.000000 0.000000 0.050114 0.000000
# 6 0.000000 0.000000 0.000000 0.000000 0.000000 0.032203
#
#
# Mechanical properties :
#
#
# Convention : Reuss Voigt Hill
#
# Bulk Modulus (GPa) = 31.00362 35.53669 33.27016
# Shear Modulus (GPa) = 26.40863 28.63511 27.52187
#
# Velocity S-wave (km/s) = 3.45546 3.59817 3.52753
# Velocity P-wave (km/s) = 5.47156 5.77319 5.62439
#
# Compressibility (1/GPa) = 0.03225430
#
# Stress axis : x y z
#
# Youngs Moduli (GPa) = 40.34645 74.78991 82.88338
#
# Poissons Ratio (x) = 0.12970 0.37830
# Poissons Ratio (y) = 0.06997 0.22255
# Poissons Ratio (z) = 0.18415 0.20082
#
# Static dielectric constant tensor:
#      x y z
#    x 1.869750 0.000000 0.000000 
#    y 0.000000 1.855920 0.000000 
#    z 0.000000 0.000000 1.829780 
# 
# From -- ./inp_files/11171.got.cif
#   From: 2010.05.17/outbox.cif.g08.bks.cpg/sg41_6_cif.got.tgz:11171.got - 2010.06.03 18:54:24.
