data_PCOD9365592
_publ_section_title
;
Structure prediction by ZEFSAII (Michael W. Deem and Ramdas Pophale) SiO2 
 PCOD9365592
Probable space group: A M A 2
;
_chemical_formula_sum "Si O2"
_cell_formula_units_Z 40
_cell_length_a 15.326882
_cell_length_b 8.990334
_cell_length_c 12.388043
_cell_angle_alpha 90.000000
_cell_angle_beta 90.000000
_cell_angle_gamma 90.000000
_cell_volume 1706.995375
_symmetry_space_group_name_H-M "A M A 2"
_symmetry_group_IT_number 40
_symmetry_cell_setting 'orthorhombic'
loop_
_space_group_symop_operation_xyz
x,y,z
-x,-y,z
1/2-x,y,z
1/2+x,-y,z
x,1/2+y,1/2+z
-x,1/2-y,1/2+z
1/2-x,1/2+y,1/2+z
1/2+x,1/2-y,1/2+z
loop_
_atom_site_type_symbol
_atom_site_label
_atom_site_fract_x
_atom_site_fract_y
_atom_site_fract_z
Si Si1 0.656202 0.241864 0.576890
Si Si2 0.146123 0.296577 0.693914
Si Si3 0.101027 0.108788 0.288427
Si Si4 0.900828 0.435110 0.021942
Si Si5 0.045249 0.160302 0.876367
O O1 0.750000 0.288752 0.533151
O O2 0.646746 0.295580 0.698276
O O3 0.583365 0.304019 0.494678
O O4 0.648736 0.065213 0.582907
O O5 0.250000 0.323114 0.685265
O O6 0.097142 0.450495 0.724961
O O7 0.109273 0.218716 0.585788
O O8 0.122914 0.182610 0.790374
O O9 0.141635 0.067607 0.403417
O O10 0.023723 0.214345 0.336003
O O11 0.000000 0.500000 0.015827
O O12 0.000000 0.000000 0.871842
#
# Coordination Sequence:
#
# PCOD9365592 Si02
#       5
#     8   8   8   8   8
#     4  12  27  49  78 113 156 201 259 332 396 463
#     4  12  26  47  78 114 158 204 260 330 398 466
#     4  12  27  51  77 112 155 203 262 321 396 474
#     4  12  25  48  80 114 155 211 260 319 396 476
#     4  12  27  47  79 111 155 211 269 320 390 474
#
# _framework density 23.432987000000001
#
# number of rings (size 3 to 8) (size 9 to 14) (size 15 to 20)
#    0.000    0.000    4.000    5.400    2.800    3.200 
#    0.000    3.000    0.000    0.000    0.000    0.000 
#    0.000    0.000    0.000    0.000    0.000    0.000 
#
# Total GULP energy -111689.123386 kJ/mol
# GULP energy per Si atom -5584.456169 kJ/mol
# Density = 2.337965 g / cm^3
# Si number density = 23.432987 Si / 1000 Ang^3
#
#
#
# Elastic Constant Matrix: (Units=GPa)
#
#
# Indices 1 2 3 4 5 6 
#
# 1 141.6494 63.6985 35.2149 0.0000 0.0000 0.0000
# 2 63.6985 167.2977 85.3688 0.0000 0.0000 0.0000
# 3 35.2149 85.3688 131.6631 0.0000 0.0000 0.0000
# 4 0.0000 0.0000 0.0000 57.1684 0.0000 0.0000
# 5 0.0000 0.0000 0.0000 0.0000 34.6669 0.0000
# 6 0.0000 0.0000 0.0000 0.0000 0.0000 6.4070
#
#
#
# Elastic Compliance Matrix: (Units=1/GPa)
#
#
# Indices 1 2 3 4 5 6 
#
# 1 0.008524 -0.003112 -0.000262 0.000000 0.000000 0.000000
# 2 -0.003112 0.010069 -0.005696 0.000000 0.000000 0.000000
# 3 -0.000262 -0.005696 0.011359 0.000000 0.000000 0.000000
# 4 0.000000 0.000000 0.000000 0.017492 0.000000 0.000000
# 5 0.000000 0.000000 0.000000 0.000000 0.028846 0.000000
# 6 0.000000 0.000000 0.000000 0.000000 0.000000 0.156080
#
#
# Mechanical properties :
#
#
# Convention : Reuss Voigt Hill
#
# Bulk Modulus (GPa) = 84.66557 89.90828 87.28693
# Shear Modulus (GPa) = 19.65044 36.73700 28.19372
#
# Velocity S-wave (km/s) = 2.89897 3.96377 3.47243
# Velocity P-wave (km/s) = 6.88583 7.70715 7.30804
#
# Compressibility (1/GPa) = 0.01181118
#
# Stress axis : x y z
#
# Youngs Moduli (GPa) = 117.31279 99.31620 88.03847
#
# Poissons Ratio (x) = 0.30905 0.02309
# Poissons Ratio (y) = 0.36505 0.50149
# Poissons Ratio (z) = 0.03077 0.56573
#
# Static dielectric constant tensor:
#      x y z
#    x 1.945030 0.000000 0.000000 
#    y 0.000000 1.877290 0.000000 
#    z 0.000000 0.000000 1.876590 
# 
# From -- ./inp_files/12709.got.cif
#   From: 2010.05.17/outbox.cif.g08.bks.cpg/sg40_7_cif.got.tgz:12709.got - 2010.06.03 18:35:42.
