data_PCOD9365954
_publ_section_title
;
Structure prediction by ZEFSAII (Michael W. Deem and Ramdas Pophale) SiO2 
 PCOD9365954
Probable space group: A B A 2
;
_chemical_formula_sum "Si O2"
_cell_formula_units_Z 48
_cell_length_a 9.298455
_cell_length_b 13.640889
_cell_length_c 17.196665
_cell_angle_alpha 90.000000
_cell_angle_beta 90.000000
_cell_angle_gamma 90.000000
_cell_volume 2181.211103
_symmetry_space_group_name_H-M "A B A 2"
_symmetry_group_IT_number 41
_symmetry_cell_setting 'orthorhombic'
loop_
_space_group_symop_operation_xyz
x,y,z
-x,-y,z
1/2-x,y,1/2+z
1/2+x,-y,1/2+z
x,1/2+y,1/2+z
-x,1/2-y,1/2+z
1/2-x,1/2+y,z
1/2+x,1/2-y,z
loop_
_atom_site_type_symbol
_atom_site_label
_atom_site_fract_x
_atom_site_fract_y
_atom_site_fract_z
Si Si1 0.319205 0.681925 0.800340
Si Si2 0.122990 0.576478 0.449463
Si Si3 0.323986 0.293216 0.092520
Si Si4 0.352155 0.798996 0.947609
Si Si5 0.434016 0.230030 0.694808
Si Si6 0.413288 0.586663 0.530941
O O1 0.347597 0.591248 0.857551
O O2 0.302368 0.775169 0.860386
O O3 0.456548 0.707391 0.747783
O O4 0.175061 0.671817 0.750668
O O5 0.094933 0.689861 0.474219
O O6 0.268386 0.548289 0.492730
O O7 0.000000 0.500000 0.464646
O O8 0.177804 0.293685 0.143169
O O9 0.459921 0.334391 0.139856
O O10 0.370757 0.179062 0.082743
O O11 0.275219 0.325570 0.006866
O O12 0.483668 0.871264 0.962402
O O13 0.500000 0.500000 0.571424
#
# Coordination Sequence:
#
# PCOD9365954 Si02
#       6
#     8   8   8   8   8   8
#     4   9  20  34  62  91 123 156 215 250 318 375
#     4   9  21  38  61  99 129 160 211 267 317 379
#     4  10  20  37  60  88 120 166 217 258 319 372
#     4   9  20  38  66  89 123 167 216 264 317 374
#     4  10  19  35  57  91 119 165 205 256 311 386
#     4  11  22  38  60  95 128 163 216 268 318 375
#
# _framework density 22.006122999999999
#
# number of rings (size 3 to 8) (size 9 to 14) (size 15 to 20)
#    1.000    1.333    1.667    1.000    0.000    4.000 
#    0.000    3.333    0.000    2.000    4.333    0.000 
#    0.000    0.000    0.000    0.000    0.000    0.000 
#
# Total GULP energy -133788.618699 kJ/mol
# GULP energy per Si atom -5574.525779 kJ/mol
# Density = 2.195604 g / cm^3
# Si number density = 22.006123 Si / 1000 Ang^3
#
#
#
# Elastic Constant Matrix: (Units=GPa)
#
#
# Indices 1 2 3 4 5 6 
#
# 1 177.8714 33.3646 41.8583 0.0000 0.0000 0.0000
# 2 33.3646 70.9357 -0.6761 0.0000 0.0000 0.0000
# 3 41.8583 -0.6761 84.2396 0.0000 0.0000 0.0000
# 4 0.0000 0.0000 0.0000 -0.0791 0.0000 0.0000
# 5 0.0000 0.0000 0.0000 0.0000 41.9464 0.0000
# 6 0.0000 0.0000 0.0000 0.0000 0.0000 2.0098
#
#
#
# Elastic Compliance Matrix: (Units=1/GPa)
#
#
# Indices 1 2 3 4 5 6 
#
# 1 0.007089 -0.003368 -0.003550 0.000000 0.000000 0.000000
# 2 -0.003368 0.015699 0.001800 0.000000 0.000000 0.000000
# 3 -0.003550 0.001800 0.013649 0.000000 0.000000 0.000000
# 4 0.000000 0.000000 0.000000-12.645460 0.000000 0.000000
# 5 0.000000 0.000000 0.000000 0.000000 0.023840 0.000000
# 6 0.000000 0.000000 0.000000 0.000000 0.000000 0.497559
#
#
# Mechanical properties :
#
#
# Convention : Reuss Voigt Hill
#
# Bulk Modulus (GPa) = 38.16707 53.57115 45.86911
# Shear Modulus (GPa) = -0.41430 26.00873 12.79722
#
# Velocity S-wave (km/s) = -0.43436 3.44159 2.41411
# Velocity P-wave (km/s) = 4.13883 6.33950 5.35347
#
# Compressibility (1/GPa) = 0.02620060
#
# Stress axis : x y z
#
# Youngs Moduli (GPa) = 141.06025 63.69968 73.26470
#
# Poissons Ratio (x) = 0.21455 0.26006
# Poissons Ratio (y) = 0.47512 -0.13185
# Poissons Ratio (z) = 0.50071 -0.11464
#
# Static dielectric constant tensor:
#      x y z
#    x 1.828370 0.000000 0.000000 
#    y 0.000000 1.826280 0.000000 
#    z 0.000000 0.000000 1.877130 
# 
# From -- ./inp_files/11240.got.cif
#   From: 2010.05.17/outbox.cif.g08.bks.cpg/sg41_6_cif.got.tgz:11240.got - 2010.06.03 18:54:24.
