data_PCOD9365570
_publ_section_title
;
Structure prediction by ZEFSAII (Michael W. Deem and Ramdas Pophale) SiO2 
 PCOD9365570
Probable space group: A M A 2
;
_chemical_formula_sum "Si O2"
_cell_formula_units_Z 32
_cell_length_a 11.778782
_cell_length_b 26.437509
_cell_length_c 5.078945
_cell_angle_alpha 90.000000
_cell_angle_beta 90.000000
_cell_angle_gamma 90.000000
_cell_volume 1581.591879
_symmetry_space_group_name_H-M "A M A 2"
_symmetry_group_IT_number 40
_symmetry_cell_setting 'orthorhombic'
loop_
_space_group_symop_operation_xyz
x,y,z
-x,-y,z
1/2-x,y,z
1/2+x,-y,z
x,1/2+y,1/2+z
-x,1/2-y,1/2+z
1/2-x,1/2+y,1/2+z
1/2+x,1/2-y,1/2+z
loop_
_atom_site_type_symbol
_atom_site_label
_atom_site_fract_x
_atom_site_fract_y
_atom_site_fract_z
Si Si1 0.498184 0.940126 0.850940
Si Si2 0.750000 0.603803 0.390656
Si Si3 0.613703 0.888453 0.354595
Si Si4 0.750000 0.668053 0.889219
Si Si5 0.512380 0.217212 0.417335
O O1 0.366367 0.924854 0.831684
O O2 0.564317 0.922755 0.589830
O O3 0.500000 0.000000 0.892964
O O4 0.557389 0.909924 0.089040
O O5 0.750000 0.620174 0.694918
O O6 0.750000 0.651306 0.192842
O O7 0.750000 0.890415 0.343185
O O8 0.570597 0.831030 0.401688
O O9 0.636531 0.698485 0.833628
O O10 0.520587 0.239672 0.709626
#
# Coordination Sequence:
#
# PCOD9365570 Si02
#       5
#     8   4   8   4   8
#     4  12  26  47  72 104 136 185 228 280 346 405
#     4  12  22  46  72  97 138 179 232 288 330 400
#     4  12  27  48  68 103 145 178 226 286 342 410
#     4  12  24  46  68  97 138 177 236 288 330 402
#     4  12  26  44  68  99 133 183 227 279 343 399
#
# _framework density 20.232779000000001
#
# number of rings (size 3 to 8) (size 9 to 14) (size 15 to 20)
#    0.000    0.000    5.000    4.500    7.000    0.000 
#    0.000    0.000    0.000    0.000    0.000    0.000 
#    0.000    0.000    0.000    0.000    0.000    0.000 
#
# Total GULP energy -89559.499479 kJ/mol
# GULP energy per Si atom -5597.468717 kJ/mol
# Density = 2.018673 g / cm^3
# Si number density = 20.232779 Si / 1000 Ang^3
#
#
#
# Elastic Constant Matrix: (Units=GPa)
#
#
# Indices 1 2 3 4 5 6 
#
# 1 150.9693 29.3567 -8.0982 0.0000 0.0000 0.0000
# 2 29.3567 82.0796 -6.5490 0.0000 0.0000 0.0000
# 3 -8.0982 -6.5490 75.9124 0.0000 0.0000 0.0000
# 4 0.0000 0.0000 0.0000 -508.6018 0.0000 0.0000
# 5 0.0000 0.0000 0.0000 0.0000 39.6973 0.0000
# 6 0.0000 0.0000 0.0000 0.0000 0.0000 -0.9893
#
#
#
# Elastic Compliance Matrix: (Units=1/GPa)
#
#
# Indices 1 2 3 4 5 6 
#
# 1 0.007141 -0.002511 0.000545 0.000000 0.000000 0.000000
# 2 -0.002511 0.013150 0.000867 0.000000 0.000000 0.000000
# 3 0.000545 0.000867 0.013306 0.000000 0.000000 0.000000
# 4 0.000000 0.000000 0.000000 -0.001966 0.000000 0.000000
# 5 0.000000 0.000000 0.000000 0.000000 0.025191 0.000000
# 6 0.000000 0.000000 0.000000 0.000000 0.000000 -1.010802
#
#
# Mechanical properties :
#
#
# Convention : Reuss Voigt Hill
#
# Bulk Modulus (GPa) = 31.84694 37.59779 34.72237
# Shear Modulus (GPa) = -5.31172 -74.36197 -39.83684
#
# Velocity S-wave (km/s) = -1.62204 -6.06902 -4.44207
# Velocity P-wave (km/s) = 3.50235 5.52157 3.01838
#
# Compressibility (1/GPa) = 0.03140019
#
# Stress axis : x y z
#
# Youngs Moduli (GPa) = 140.03008 76.04323 75.15397
#
# Poissons Ratio (x) = 0.19092 -0.04098
# Poissons Ratio (y) = 0.35157 -0.06513
# Poissons Ratio (z) = -0.07635 -0.06590
#
# Static dielectric constant tensor:
#      x y z
#    x 1.625000 0.000000 0.000000 
#    y 0.000000 3.765360 0.000000 
#    z 0.000000 0.000000 1.687040 
# 
# From -- ./inp_files/644.got.cif
#   From: 2010.05.17/outbox.cif.g08.bks.cpg/sg40_1_cif.got.tgz:644.got - 2010.06.03 18:35:42.
