data_PCOD9365925
_publ_section_title
;
Structure prediction by ZEFSAII (Michael W. Deem and Ramdas Pophale) SiO2 
 PCOD9365925
Probable space group: A B A 2
;
_chemical_formula_sum "Si O2"
_cell_formula_units_Z 48
_cell_length_a 8.446727
_cell_length_b 17.662326
_cell_length_c 15.074106
_cell_angle_alpha 90.000000
_cell_angle_beta 90.000000
_cell_angle_gamma 90.000000
_cell_volume 2248.888477
_symmetry_space_group_name_H-M "A B A 2"
_symmetry_group_IT_number 41
_symmetry_cell_setting 'orthorhombic'
loop_
_space_group_symop_operation_xyz
x,y,z
-x,-y,z
1/2-x,y,1/2+z
1/2+x,-y,1/2+z
x,1/2+y,1/2+z
-x,1/2-y,1/2+z
1/2-x,1/2+y,z
1/2+x,1/2-y,z
loop_
_atom_site_type_symbol
_atom_site_label
_atom_site_fract_x
_atom_site_fract_y
_atom_site_fract_z
Si Si1 0.433977 0.076377 0.122500
Si Si2 0.378879 0.786775 0.196235
Si Si3 0.564964 0.640561 0.254523
Si Si4 0.178023 0.220557 0.003558
Si Si5 0.938082 0.923041 0.077837
Si Si6 0.501194 0.359712 0.442386
O O1 0.484891 0.152077 0.173959
O O2 0.246649 0.071707 0.105815
O O3 0.500000 0.000000 0.165306
O O4 0.520320 0.086210 0.026756
O O5 0.452237 0.714060 0.243279
O O6 0.243089 0.829081 0.249864
O O7 0.305597 0.756374 0.102586
O O8 0.536335 0.590366 0.167593
O O9 0.516641 0.603096 0.347010
O O10 0.052027 0.152432 0.017992
O O11 0.331672 0.180926 0.963545
O O12 0.120162 0.289824 0.945220
O O13 0.000000 0.000000 0.034725
#
# Coordination Sequence:
#
# PCOD9365925 Si02
#       6
#     8   8   8   8   8   8
#     4  10  21  37  55  76 106 144 183 219 261 320
#     4  10  19  34  55  79 107 142 181 218 263 323
#     4  11  20  33  55  82 108 135 173 224 274 317
#     4   9  18  34  53  77 105 139 177 213 259 319
#     4  10  20  35  56  78 105 142 183 220 261 321
#     4  10  20  33  54  80 107 134 170 222 270 314
#
# _framework density 21.343876999999999
#
# number of rings (size 3 to 8) (size 9 to 14) (size 15 to 20)
#    0.000    2.000    0.000    7.000    0.000    2.000 
#    0.000    0.000    0.000    7.000    0.000    0.000 
#    0.000    0.000    0.000    0.000    0.000    0.000 
#
# Total GULP energy -134029.546700 kJ/mol
# GULP energy per Si atom -5584.564446 kJ/mol
# Density = 2.129530 g / cm^3
# Si number density = 21.343877 Si / 1000 Ang^3
#
#
#
# Elastic Constant Matrix: (Units=GPa)
#
#
# Indices 1 2 3 4 5 6 
#
# 1 60.6295 -2.1868 -8.5611 0.0000 0.0000 0.0000
# 2 -2.1868 76.0840 -7.4834 0.0000 0.0000 0.0000
# 3 -8.5611 -7.4834 44.8259 0.0000 0.0000 0.0000
# 4 0.0000 0.0000 0.0000 5.0816 0.0000 0.0000
# 5 0.0000 0.0000 0.0000 0.0000 -9.2896 0.0000
# 6 0.0000 0.0000 0.0000 0.0000 0.0000 26.7676
#
#
#
# Elastic Compliance Matrix: (Units=1/GPa)
#
#
# Indices 1 2 3 4 5 6 
#
# 1 0.017001 0.000821 0.003384 0.000000 0.000000 0.000000
# 2 0.000821 0.013402 0.002394 0.000000 0.000000 0.000000
# 3 0.003384 0.002394 0.023355 0.000000 0.000000 0.000000
# 4 0.000000 0.000000 0.000000 0.196787 0.000000 0.000000
# 5 0.000000 0.000000 0.000000 0.000000 -0.107647 0.000000
# 6 0.000000 0.000000 0.000000 0.000000 0.000000 0.037359
#
#
# Mechanical properties :
#
#
# Convention : Reuss Voigt Hill
#
# Bulk Modulus (GPa) = 14.93473 16.11965 15.52719
# Shear Modulus (GPa) = 26.40245 17.82996 22.11621
#
# Velocity S-wave (km/s) = 3.52092 2.89341 3.22248
# Velocity P-wave (km/s) = 4.85197 4.32795 4.59743
#
# Compressibility (1/GPa) = 0.06695803
#
# Stress axis : x y z
#
# Youngs Moduli (GPa) = 58.81972 74.61307 42.81817
#
# Poissons Ratio (x) = -0.06129 -0.14490
# Poissons Ratio (y) = -0.04832 -0.10252
# Poissons Ratio (z) = -0.19905 -0.17865
#
# Static dielectric constant tensor:
#      x y z
#    x 1.784900 0.000000 0.000000 
#    y 0.000000 1.763580 0.000000 
#    z 0.000000 0.000000 1.802490 
# 
# From -- ./inp_files/7306.got.cif
#   From: 2010.05.17/outbox.cif.g08.bks.cpg/sg41_4_cif.got.tgz:7306.got - 2010.06.03 18:54:24.
