data_PCOD9365238
_publ_section_title
;
Structure prediction by ZEFSAII (Michael W. Deem and Ramdas Pophale) SiO2 
 PCOD9365238
Probable space group: A M A 2
;
_chemical_formula_sum "Si O2"
_cell_formula_units_Z 40
_cell_length_a 9.730273
_cell_length_b 6.864196
_cell_length_c 27.321246
_cell_angle_alpha 90.000000
_cell_angle_beta 90.000000
_cell_angle_gamma 90.000000
_cell_volume 1824.799708
_symmetry_space_group_name_H-M "A M A 2"
_symmetry_group_IT_number 40
_symmetry_cell_setting 'orthorhombic'
loop_
_space_group_symop_operation_xyz
x,y,z
-x,-y,z
1/2-x,y,z
1/2+x,-y,z
x,1/2+y,1/2+z
-x,1/2-y,1/2+z
1/2-x,1/2+y,1/2+z
1/2+x,1/2-y,1/2+z
loop_
_atom_site_type_symbol
_atom_site_label
_atom_site_fract_x
_atom_site_fract_y
_atom_site_fract_z
Si Si1 0.910249 0.817616 0.170130
Si Si2 0.404976 0.818237 0.022868
Si Si3 0.904976 0.181763 0.911215
Si Si4 0.000000 0.000000 0.596495
Si Si5 0.089751 0.682384 0.263953
Si Si6 0.000000 0.500000 0.837588
O O1 0.750000 0.867263 0.181402
O O2 0.913307 0.641131 0.131694
O O3 1.000000 0.750000 0.217042
O O4 0.000000 0.000000 0.150836
O O5 0.250000 0.891510 0.023478
O O6 0.418595 0.643562 0.060756
O O7 0.500000 0.000000 0.035087
O O8 0.437702 0.754279 0.967041
O O9 0.750000 0.108490 0.910605
O O10 0.918596 0.356438 0.873326
O O11 0.000000 0.000000 0.898996
O O12 0.250000 0.632737 0.252681
O O13 0.000000 0.500000 0.283248
O O14 0.086693 0.858869 0.302389
#
# Coordination Sequence:
#
# PCOD9365238 Si02
#       6
#     8   8   8   4   8   4
#     4  12  27  46  70  98 135 179 232 288 347 409
#     4  10  23  44  70 103 141 181 228 282 341 409
#     4  10  23  44  70 103 141 181 228 282 341 409
#     4  12  25  42  72 102 138 182 235 276 348 406
#     4  12  27  46  70  98 135 179 232 288 347 409
#     4  12  25  42  72 102 138 182 235 276 348 406
#
# _framework density 21.920214999999999
#
# number of rings (size 3 to 8) (size 9 to 14) (size 15 to 20)
#    0.000    0.800    2.000    4.200    0.000   11.200 
#    0.000    4.000    0.000    0.000    0.000    0.000 
#    0.000    0.000    0.000    0.000    0.000    0.000 
#
# Total GULP energy -111810.257344 kJ/mol
# GULP energy per Si atom -5590.512867 kJ/mol
# Density = 2.187032 g / cm^3
# Si number density = 21.920215 Si / 1000 Ang^3
#
#
#
# Elastic Constant Matrix: (Units=GPa)
#
#
# Indices 1 2 3 4 5 6 
#
# 1 172.4575 73.7981 59.2552 0.0000 0.0000 0.0000
# 2 73.7981 134.9972 63.9300 0.0000 0.0000 0.0000
# 3 59.2552 63.9300 140.3272 0.0000 0.0000 0.0000
# 4 0.0000 0.0000 0.0000 42.8829 0.0000 0.0000
# 5 0.0000 0.0000 0.0000 0.0000 42.8413 0.0000
# 6 0.0000 0.0000 0.0000 0.0000 0.0000 24.2357
#
#
#
# Elastic Compliance Matrix: (Units=1/GPa)
#
#
# Indices 1 2 3 4 5 6 
#
# 1 0.007890 -0.003488 -0.001743 0.000000 0.000000 0.000000
# 2 -0.003488 0.010987 -0.003533 0.000000 0.000000 0.000000
# 3 -0.001743 -0.003533 0.009471 0.000000 0.000000 0.000000
# 4 0.000000 0.000000 0.000000 0.023319 0.000000 0.000000
# 5 0.000000 0.000000 0.000000 0.000000 0.023342 0.000000
# 6 0.000000 0.000000 0.000000 0.000000 0.000000 0.041261
#
#
# Mechanical properties :
#
#
# Convention : Reuss Voigt Hill
#
# Bulk Modulus (GPa) = 92.40320 93.52761 92.96540
# Shear Modulus (GPa) = 36.38879 38.71188 37.55033
#
# Velocity S-wave (km/s) = 4.07880 4.20698 4.14339
# Velocity P-wave (km/s) = 8.02670 8.14605 8.08660
#
# Compressibility (1/GPa) = 0.01082214
#
# Stress axis : x y z
#
# Youngs Moduli (GPa) = 126.74610 91.01486 105.58009
#
# Poissons Ratio (x) = 0.31744 0.18398
# Poissons Ratio (y) = 0.44207 0.37299
# Poissons Ratio (z) = 0.22087 0.32153
#
# Static dielectric constant tensor:
#      x y z
#    x 1.769250 0.000000 0.000000 
#    y 0.000000 1.798960 0.000000 
#    z 0.000000 0.000000 1.850150 
# 
# From -- ./inp_files/25599.got.cif
#   From: 2010.05.17/outbox.cif.g08.bks.cpg/sg40_13_cif.got.tgz:25599.got - 2010.06.03 18:35:42.
