data_PCOD9365898
_publ_section_title
;
Structure prediction by ZEFSAII (Michael W. Deem and Ramdas Pophale) SiO2 
 PCOD9365898
Probable space group: A B A 2
;
_chemical_formula_sum "Si O2"
_cell_formula_units_Z 60
_cell_length_a 18.569420
_cell_length_b 16.404492
_cell_length_c 9.003858
_cell_angle_alpha 90.000000
_cell_angle_beta 90.000000
_cell_angle_gamma 90.000000
_cell_volume 2742.772348
_symmetry_space_group_name_H-M "A B A 2"
_symmetry_group_IT_number 41
_symmetry_cell_setting 'orthorhombic'
loop_
_space_group_symop_operation_xyz
x,y,z
-x,-y,z
1/2-x,y,1/2+z
1/2+x,-y,1/2+z
x,1/2+y,1/2+z
-x,1/2-y,1/2+z
1/2-x,1/2+y,z
1/2+x,1/2-y,z
loop_
_atom_site_type_symbol
_atom_site_label
_atom_site_fract_x
_atom_site_fract_y
_atom_site_fract_z
Si Si1 0.657695 0.550390 0.190460
Si Si2 0.772905 0.681467 0.155684
Si Si3 0.120449 0.207259 0.281254
Si Si4 0.332740 0.240732 0.360524
Si Si5 0.036054 0.341771 0.800436
Si Si6 0.000000 0.500000 0.005400
Si Si7 0.145333 0.063333 0.488668
Si Si8 0.193660 0.593070 0.536944
O O1 0.734829 0.594961 0.179196
O O2 0.592532 0.614335 0.191038
O O3 0.652887 0.495928 0.341771
O O4 0.649655 0.489144 0.054338
O O5 0.841440 0.705491 0.259359
O O6 0.707965 0.739319 0.209620
O O7 0.794483 0.702771 0.987379
O O8 0.129472 0.156053 0.432703
O O9 0.164587 0.153508 0.163074
O O10 0.036643 0.198924 0.242147
O O11 0.414656 0.270334 0.368496
O O12 0.319080 0.146738 0.392904
O O13 0.014683 0.417958 0.907277
O O14 0.922768 0.475433 0.075860
O O15 0.223630 0.069373 0.558267
#
# Coordination Sequence:
#
# PCOD9365898 Si02
#       8
#     8   8   8   8   8   4   8   8
#     4   9  20  31  57  84 119 154 208 259 313 379
#     4  10  20  36  58  90 120 157 205 261 311 373
#     4   9  18  35  58  81 116 159 209 251 312 383
#     4  10  21  37  59  88 124 159 209 265 315 387
#     4   9  18  36  57  84 117 161 212 263 320 381
#     4   8  16  28  56  82 114 150 208 256 314 378
#     4   9  16  32  53  84 111 155 201 255 307 376
#     4  10  19  32  58  87 116 164 203 261 315 373
#
# _framework density 21.875675000000001
#
# number of rings (size 3 to 8) (size 9 to 14) (size 15 to 20)
#    0.000    2.667    1.333    0.800    5.600    0.000 
#    0.000    5.333    2.933    0.000    0.000    0.000 
#    0.000    0.000    0.000    0.000    0.000    0.000 
#
# Total GULP energy -167013.548076 kJ/mol
# GULP energy per Si atom -5567.118269 kJ/mol
# Density = 2.182589 g / cm^3
# Si number density = 21.875675 Si / 1000 Ang^3
#
#
#
# Elastic Constant Matrix: (Units=GPa)
#
#
# Indices 1 2 3 4 5 6 
#
# 1 165.0054 41.1883 20.8583 0.0000 0.0000 0.0000
# 2 41.1883 90.9168 4.4575 0.0000 0.0000 0.0000
# 3 20.8583 4.4575 17.6670 0.0000 0.0000 0.0000
# 4 0.0000 0.0000 0.0000 13.7006 0.0000 0.0000
# 5 0.0000 0.0000 0.0000 0.0000 14.2583 0.0000
# 6 0.0000 0.0000 0.0000 0.0000 0.0000 38.8184
#
#
#
# Elastic Compliance Matrix: (Units=1/GPa)
#
#
# Indices 1 2 3 4 5 6 
#
# 1 0.007936 -0.003175 -0.008569 0.000000 0.000000 0.000000
# 2 -0.003175 0.012407 0.000618 0.000000 0.000000 0.000000
# 3 -0.008569 0.000618 0.066563 0.000000 0.000000 0.000000
# 4 0.000000 0.000000 0.000000 0.072989 0.000000 0.000000
# 5 0.000000 0.000000 0.000000 0.000000 0.070135 0.000000
# 6 0.000000 0.000000 0.000000 0.000000 0.000000 0.025761
#
#
# Mechanical properties :
#
#
# Convention : Reuss Voigt Hill
#
# Bulk Modulus (GPa) = 15.46660 45.17749 30.32205
# Shear Modulus (GPa) = 16.68926 27.16114 21.92520
#
# Velocity S-wave (km/s) = 2.76509 3.52748 3.16929
# Velocity P-wave (km/s) = 4.15690 6.10635 5.22338
#
# Compressibility (1/GPa) = 0.06465545
#
# Stress axis : x y z
#
# Youngs Moduli (GPa) = 126.00559 80.59812 15.02338
#
# Poissons Ratio (x) = 0.25592 0.12873
# Poissons Ratio (y) = 0.40010 -0.00929
# Poissons Ratio (z) = 1.07969 -0.04984
#
# Static dielectric constant tensor:
#      x y z
#    x 1.834210 0.000000 0.000000 
#    y 0.000000 1.903710 0.000000 
#    z 0.000000 0.000000 1.881980 
# 
# From -- ./inp_files/5689.got.cif
#   From: 2010.05.17/outbox.cif.g08.bks.cpg/sg41_3_cif.got.tgz:5689.got - 2010.06.03 18:54:24.
