data_PCOD9365079
_publ_section_title
;
Structure prediction by ZEFSAII (Michael W. Deem and Ramdas Pophale) SiO2 
 PCOD9365079
Probable space group: A M A 2
;
_chemical_formula_sum "Si O2"
_cell_formula_units_Z 40
_cell_length_a 20.593605
_cell_length_b 8.002864
_cell_length_c 12.032725
_cell_angle_alpha 90.000000
_cell_angle_beta 90.000000
_cell_angle_gamma 90.000000
_cell_volume 1983.087177
_symmetry_space_group_name_H-M "A M A 2"
_symmetry_group_IT_number 40
_symmetry_cell_setting 'orthorhombic'
loop_
_space_group_symop_operation_xyz
x,y,z
-x,-y,z
1/2-x,y,z
1/2+x,-y,z
x,1/2+y,1/2+z
-x,1/2-y,1/2+z
1/2-x,1/2+y,1/2+z
1/2+x,1/2-y,1/2+z
loop_
_atom_site_type_symbol
_atom_site_label
_atom_site_fract_x
_atom_site_fract_y
_atom_site_fract_z
Si Si1 0.545596 0.662885 0.757220
Si Si2 0.250000 0.459888 0.446334
Si Si3 0.250000 0.307319 0.022961
Si Si4 0.391841 0.847630 0.015264
Si Si5 0.358530 0.004721 0.411600
Si Si6 0.750000 0.321916 0.769043
Si Si7 0.500000 0.000000 0.860374
O O1 0.500000 0.500000 0.754731
O O2 0.582920 0.663422 0.640408
O O3 0.594733 0.630038 0.858283
O O4 0.510225 0.836602 0.784162
O O5 0.250000 0.658643 0.432687
O O6 0.316766 0.406118 0.507265
O O7 0.250000 0.355571 0.332583
O O8 0.250000 0.214050 0.139788
O O9 0.312324 0.422134 0.003452
O O10 0.395099 0.662776 0.962477
O O11 0.438245 0.964857 0.940487
O O12 0.312022 0.077427 0.314456
#
# Coordination Sequence:
#
# PCOD9365079 Si02
#       7
#     8   4   4   8   8   4   4
#     4  12  25  44  69  95 137 180 223 282 340 399
#     4  10  22  42  70  98 138 174 231 282 331 420
#     4  11  21  39  66 100 132 178 215 279 344 393
#     4  11  24  46  69 100 136 182 228 283 344 405
#     4  10  23  41  64  97 136 172 226 278 331 409
#     4   9  21  41  66  94 134 174 220 277 337 399
#     4  12  26  44  70 104 132 184 236 276 340 412
#
# _framework density 20.170570999999999
#
# number of rings (size 3 to 8) (size 9 to 14) (size 15 to 20)
#    0.000    1.200    3.000    3.000    0.000    7.200 
#    3.600    3.000    0.000    0.000    0.000    0.000 
#    0.000    0.000    0.000    0.000    0.000    0.000 
#
# Total GULP energy -111782.917104 kJ/mol
# GULP energy per Si atom -5589.145855 kJ/mol
# Density = 2.012466 g / cm^3
# Si number density = 20.170571 Si / 1000 Ang^3
#
#
#
# Elastic Constant Matrix: (Units=GPa)
#
#
# Indices 1 2 3 4 5 6 
#
# 1 88.4038 27.9745 33.3150 0.0000 0.0000 0.0000
# 2 27.9745 122.3175 21.4009 0.0000 0.0000 0.0000
# 3 33.3150 21.4009 61.9336 0.0000 0.0000 0.0000
# 4 0.0000 0.0000 0.0000 8.5276 0.0000 0.0000
# 5 0.0000 0.0000 0.0000 0.0000 2.7482 0.0000
# 6 0.0000 0.0000 0.0000 0.0000 0.0000 35.8801
#
#
#
# Elastic Compliance Matrix: (Units=1/GPa)
#
#
# Indices 1 2 3 4 5 6 
#
# 1 0.014679 -0.002103 -0.007169 0.000000 0.000000 0.000000
# 2 -0.002103 0.009003 -0.001980 0.000000 0.000000 0.000000
# 3 -0.007169 -0.001980 0.020687 0.000000 0.000000 0.000000
# 4 0.000000 0.000000 0.000000 0.117267 0.000000 0.000000
# 5 0.000000 0.000000 0.000000 0.000000 0.363877 0.000000
# 6 0.000000 0.000000 0.000000 0.000000 0.000000 0.027871
#
#
# Mechanical properties :
#
#
# Convention : Reuss Voigt Hill
#
# Bulk Modulus (GPa) = 45.73569 48.67064 47.20317
# Shear Modulus (GPa) = 8.57375 22.09548 15.33461
#
# Velocity S-wave (km/s) = 2.06394 3.31332 2.76025
# Velocity P-wave (km/s) = 5.32949 6.23052 5.79754
#
# Compressibility (1/GPa) = 0.02186476
#
# Stress axis : x y z
#
# Youngs Moduli (GPa) = 68.12491 111.07739 48.33967
#
# Poissons Ratio (x) = 0.23357 0.34657
# Poissons Ratio (y) = 0.14325 0.09570
# Poissons Ratio (z) = 0.48842 0.21991
#
# Static dielectric constant tensor:
#      x y z
#    x 1.747200 0.000000 0.000000 
#    y 0.000000 1.704670 0.000000 
#    z 0.000000 0.000000 1.670770 
# 
# From -- ./inp_files/12754.got.cif
#   From: 2010.05.17/outbox.cif.g08.bks.cpg/sg40_7_cif.got.tgz:12754.got - 2010.06.03 18:35:42.
