data_PCOD9365492
_publ_section_title
;
Structure prediction by ZEFSAII (Michael W. Deem and Ramdas Pophale) SiO2 
 PCOD9365492
Probable space group: A M A 2
;
_chemical_formula_sum "Si O2"
_cell_formula_units_Z 32
_cell_length_a 13.449591
_cell_length_b 8.231517
_cell_length_c 12.979110
_cell_angle_alpha 90.000000
_cell_angle_beta 90.000000
_cell_angle_gamma 90.000000
_cell_volume 1436.924237
_symmetry_space_group_name_H-M "A M A 2"
_symmetry_group_IT_number 40
_symmetry_cell_setting 'orthorhombic'
loop_
_space_group_symop_operation_xyz
x,y,z
-x,-y,z
1/2-x,y,z
1/2+x,-y,z
x,1/2+y,1/2+z
-x,1/2-y,1/2+z
1/2-x,1/2+y,1/2+z
1/2+x,1/2-y,1/2+z
loop_
_atom_site_type_symbol
_atom_site_label
_atom_site_fract_x
_atom_site_fract_y
_atom_site_fract_z
Si Si1 0.010545 0.252935 0.463680
Si Si2 0.000000 0.000000 0.115477
Si Si3 0.364204 0.177303 0.793010
Si Si4 0.000000 0.000000 0.625144
Si Si5 0.362942 0.572919 0.789379
O O1 0.083186 0.156207 0.386605
O O2 0.061004 0.379494 0.541837
O O3 0.931139 0.347131 0.393858
O O4 0.957357 0.129042 0.542438
O O5 0.070633 0.105103 0.189260
O O6 0.250000 0.123728 0.800638
O O7 0.363660 0.375472 0.789286
O O8 0.419208 0.086828 0.698670
O O9 0.250000 0.628710 0.782361
#
# Coordination Sequence:
#
# PCOD9365492 Si02
#       5
#     8   4   8   4   8
#     4  12  23  44  70  97 141 182 225 283 347 405
#     4  12  24  44  70 100 138 186 228 278 342 410
#     4  11  24  43  69 103 140 179 232 287 336 408
#     4  12  22  42  72 100 138 186 224 276 354 408
#     4  11  23  44  71 102 139 180 231 287 339 401
#
# _framework density 22.269788999999999
#
# number of rings (size 3 to 8) (size 9 to 14) (size 15 to 20)
#    0.000    0.500    7.500    0.750    0.000    4.000 
#    0.000    8.750    0.000    0.000    0.000    0.000 
#    0.000    0.000    0.000    0.000    0.000    0.000 
#
# Total GULP energy -89252.164527 kJ/mol
# GULP energy per Si atom -5578.260283 kJ/mol
# Density = 2.221910 g / cm^3
# Si number density = 22.269789 Si / 1000 Ang^3
#
#
#
# Elastic Constant Matrix: (Units=GPa)
#
#
# Indices 1 2 3 4 5 6 
#
# 1 171.2863 35.2340 88.5523 0.0000 0.0000 0.0000
# 2 35.2340 64.8538 72.9909 0.0000 0.0000 0.0000
# 3 88.5523 72.9909 196.5868 0.0000 0.0000 0.0000
# 4 0.0000 0.0000 0.0000 71.5385 0.0000 0.0000
# 5 0.0000 0.0000 0.0000 0.0000 1.0978 0.0000
# 6 0.0000 0.0000 0.0000 0.0000 0.0000 21.4163
#
#
#
# Elastic Compliance Matrix: (Units=1/GPa)
#
#
# Indices 1 2 3 4 5 6 
#
# 1 0.007619 -0.000475 -0.003255 0.000000 0.000000 0.000000
# 2 -0.000475 0.026518 -0.009632 0.000000 0.000000 0.000000
# 3 -0.003255 -0.009632 0.010129 0.000000 0.000000 0.000000
# 4 0.000000 0.000000 0.000000 0.013978 0.000000 0.000000
# 5 0.000000 0.000000 0.000000 0.000000 0.910903 0.000000
# 6 0.000000 0.000000 0.000000 0.000000 0.000000 0.046693
#
#
# Mechanical properties :
#
#
# Convention : Reuss Voigt Hill
#
# Bulk Modulus (GPa) = 57.00896 91.80903 74.40899
# Shear Modulus (GPa) = 4.76912 34.54049 19.65480
#
# Velocity S-wave (km/s) = 1.46498 3.94255 2.97404
# Velocity P-wave (km/s) = 5.34007 7.87656 6.72892
#
# Compressibility (1/GPa) = 0.01754110
#
# Stress axis : x y z
#
# Youngs Moduli (GPa) = 131.25104 37.71072 98.72276
#
# Poissons Ratio (x) = 0.01793 0.32139
# Poissons Ratio (y) = 0.06239 0.95086
# Poissons Ratio (z) = 0.42728 0.36322
#
# Static dielectric constant tensor:
#      x y z
#    x 1.784710 0.000000 0.000000 
#    y 0.000000 1.966570 0.000000 
#    z 0.000000 0.000000 1.834640 
# 
# From -- ./inp_files/11744.got.cif
#   From: 2010.05.17/outbox.cif.g08.bks.cpg/sg40_6_cif.got.tgz:11744.got - 2010.06.03 18:35:42.
