data_PCOD9365111
_publ_section_title
;
Structure prediction by ZEFSAII (Michael W. Deem and Ramdas Pophale) SiO2 
 PCOD9365111
Probable space group: A M A 2
;
_chemical_formula_sum "Si O2"
_cell_formula_units_Z 40
_cell_length_a 11.240539
_cell_length_b 9.011352
_cell_length_c 15.959386
_cell_angle_alpha 90.000000
_cell_angle_beta 90.000000
_cell_angle_gamma 90.000000
_cell_volume 1616.565366
_symmetry_space_group_name_H-M "A M A 2"
_symmetry_group_IT_number 40
_symmetry_cell_setting 'orthorhombic'
loop_
_space_group_symop_operation_xyz
x,y,z
-x,-y,z
1/2-x,y,z
1/2+x,-y,z
x,1/2+y,1/2+z
-x,1/2-y,1/2+z
1/2-x,1/2+y,1/2+z
1/2+x,1/2-y,1/2+z
loop_
_atom_site_type_symbol
_atom_site_label
_atom_site_fract_x
_atom_site_fract_y
_atom_site_fract_z
Si Si1 0.624724 0.567857 0.616360
Si Si2 0.499057 0.675681 0.056391
Si Si3 0.375276 0.432143 0.814862
Si Si4 0.000943 0.675681 0.374830
Si Si5 0.382950 0.891650 0.715611
O O1 0.500000 0.500000 0.585307
O O2 0.750000 0.514963 0.578654
O O3 0.612562 0.743796 0.599758
O O4 0.627556 0.542298 0.715611
O O5 0.500000 0.500000 0.043556
O O6 0.599686 0.699246 0.128890
O O7 0.500000 0.750000 0.965611
O O8 0.500000 0.500000 0.845915
O O9 0.250000 0.485037 0.852568
O O10 0.387438 0.256204 0.831464
O O11 0.000000 0.500000 0.387666
O O12 0.900314 0.699246 0.302332
O O13 0.250000 0.955415 0.715611
O O14 0.500000 0.000000 0.715611
#
# Coordination Sequence:
#
# PCOD9365111 Si02
#       5
#     8   8   8   8   8
#     4  10  22  43  72 108 150 195 247 310 380 454
#     4  11  24  45  73 110 151 202 259 320 388 465
#     4  10  22  43  72 108 150 195 247 310 380 454
#     4  11  24  45  73 110 151 202 259 320 388 465
#     4  10  24  46  75 112 153 204 260 322 394 474
#
# _framework density 24.743817
#
# number of rings (size 3 to 8) (size 9 to 14) (size 15 to 20)
#    0.000    1.600    2.000    1.200    0.000    9.600 
#    0.000    4.000    0.000    0.000    0.000    0.000 
#    0.000    0.000    0.000    0.000    0.000    0.000 
#
# Total GULP energy -111409.640699 kJ/mol
# GULP energy per Si atom -5570.482035 kJ/mol
# Density = 2.468750 g / cm^3
# Si number density = 24.743817 Si / 1000 Ang^3
#
#
#
# Elastic Constant Matrix: (Units=GPa)
#
#
# Indices 1 2 3 4 5 6 
#
# 1 235.8381 63.7413 31.5869 0.0000 0.0000 0.0000
# 2 63.7413 126.3790 38.4305 0.0000 0.0000 0.0000
# 3 31.5869 38.4305 168.3350 0.0000 0.0000 0.0000
# 4 0.0000 0.0000 0.0000 53.7383 0.0000 0.0000
# 5 0.0000 0.0000 0.0000 0.0000 -2.2254 0.0000
# 6 0.0000 0.0000 0.0000 0.0000 0.0000 27.1618
#
#
#
# Elastic Compliance Matrix: (Units=1/GPa)
#
#
# Indices 1 2 3 4 5 6 
#
# 1 0.004932 -0.002371 -0.000384 0.000000 0.000000 0.000000
# 2 -0.002371 0.009643 -0.001757 0.000000 0.000000 0.000000
# 3 -0.000384 -0.001757 0.006414 0.000000 0.000000 0.000000
# 4 0.000000 0.000000 0.000000 0.018609 0.000000 0.000000
# 5 0.000000 0.000000 0.000000 0.000000 -0.449348 0.000000
# 6 0.000000 0.000000 0.000000 0.000000 0.000000 0.036816
#
#
# Mechanical properties :
#
#
# Convention : Reuss Voigt Hill
#
# Bulk Modulus (GPa) = 83.57447 88.67438 86.12442
# Shear Modulus (GPa) = -13.89187 42.18784 14.14798
#
# Velocity S-wave (km/s) = -2.37202 4.13363 2.39378
# Velocity P-wave (km/s) = 5.13296 7.66141 6.52091
#
# Compressibility (1/GPa) = 0.01196538
#
# Stress axis : x y z
#
# Youngs Moduli (GPa) = 202.73835 103.70590 155.91757
#
# Poissons Ratio (x) = 0.24588 0.05991
# Poissons Ratio (y) = 0.48068 0.27387
# Poissons Ratio (z) = 0.07791 0.18216
#
# Static dielectric constant tensor:
#      x y z
#    x 1.959670 0.000000 0.000000 
#    y 0.000000 2.246140 0.000000 
#    z 0.000000 0.000000 2.011440 
# 
# From -- ./inp_files/19880.got.cif
#   From: 2010.05.17/outbox.cif.g08.bks.cpg/sg40_10_cif.got.tgz:19880.got - 2010.06.03 18:35:42.
