data_PCOD9365620
_publ_section_title
;
Structure prediction by ZEFSAII (Michael W. Deem and Ramdas Pophale) SiO2 
 PCOD9365620
Probable space group: A M A 2
;
_chemical_formula_sum "Si O2"
_cell_formula_units_Z 32
_cell_length_a 15.000000
_cell_length_b 18.000000
_cell_length_c 12.000000
_cell_angle_alpha 90.000000
_cell_angle_beta 90.000000
_cell_angle_gamma 90.000000
_cell_volume 3240.000000
_symmetry_space_group_name_H-M "A M A 2"
_symmetry_group_IT_number 40
_symmetry_cell_setting 'orthorhombic'
loop_
_space_group_symop_operation_xyz
x,y,z
-x,-y,z
1/2-x,y,z
1/2+x,-y,z
x,1/2+y,1/2+z
-x,1/2-y,1/2+z
1/2-x,1/2+y,1/2+z
1/2+x,1/2-y,1/2+z
loop_
_atom_site_type_symbol
_atom_site_label
_atom_site_fract_x
_atom_site_fract_y
_atom_site_fract_z
Si Si1 0.080653 0.557485 0.489860
Si Si2 0.653146 0.082571 0.926747
Si Si3 0.351338 0.590217 0.051660
Si Si4 0.146228 0.319797 0.795682
Si Si5 0.473196 0.343189 0.002788
Si Si6 0.852466 0.070582 0.665786
Si Si7 0.975961 0.177054 0.075002
Si Si8 0.849369 0.353505 0.293557
O O1 0.156165 0.495163 0.494532
O O2 0.087893 0.600076 0.372809
O O3 0.000000 0.500000 0.489980
O O4 0.061211 0.621212 0.579950
O O5 0.750000 0.118349 0.929663
O O6 0.633025 0.062984 0.797957
O O7 0.584860 0.139839 0.979709
O O8 0.250000 0.600066 0.008967
O O9 0.359684 0.507618 0.101415
O O10 0.363351 0.640483 0.162289
O O11 0.434216 0.614175 0.976988
O O12 0.250000 0.343981 0.779805
O O13 0.095447 0.354411 0.901022
O O14 0.084194 0.325885 0.686096
O O15 0.149105 0.232250 0.823864
O O16 0.425260 0.376979 0.111083
O O17 0.494968 0.257916 0.033432
O O18 0.750000 0.097019 0.650204
O O19 0.750000 0.384399 0.313299
#
# Coordination Sequence:
#
# PCOD9365620 Si02
#       8
#     8   8   8   8   8   8   8   8
#     4  10  20  33  56  91 121 151 199 258 314 369
#     4  10  21  38  63  92 124 156 199 266 325 371
#     4  10  21  37  62  95 125 157 203 260 325 377
#     4  11  24  43  61  85 128 175 215 248 303 386
#     4  12  24  37  64  89 127 167 211 254 309 372
#     4  10  22  39  62  97 129 158 205 267 328 369
#     4  11  24  36  59  90 124 160 208 252 306 370
#     4  10  18  33  58  87 118 158 198 248 312 377
#
# _framework density 9.8765429999999999
#
# number of rings (size 3 to 8) (size 9 to 14) (size 15 to 20)
#    0.000    1.500    3.750    1.500    5.250    0.500 
#    0.000    3.750    0.000    3.000    0.000    0.000 
#    0.000    0.000    0.000    0.000    0.000    0.000 
#
# Total GULP energy -178255.033746 kJ/mol
# GULP energy per Si atom -5570.469805 kJ/mol
# Density = 0.985406 g / cm^3
# Si number density = 9.876543 Si / 1000 Ang^3
#
#
#
# Elastic Constant Matrix: (Units=GPa)
#
#
# Indices 1 2 3 4 5 6 
#
# 1 102.3573 40.4075 37.3220 0.0000 0.0000 0.0000
# 2 40.4075 64.7315 10.3728 0.0000 0.0000 0.0000
# 3 37.3220 10.3728 46.4329 0.0000 0.0000 0.0000
# 4 0.0000 0.0000 0.0000 26.5454 0.0000 0.0000
# 5 0.0000 0.0000 0.0000 0.0000 28.1000 0.0000
# 6 0.0000 0.0000 0.0000 0.0000 0.0000 17.4991
#
#
#
# Elastic Compliance Matrix: (Units=1/GPa)
#
#
# Indices 1 2 3 4 5 6 
#
# 1 0.017895 -0.009195 -0.012330 0.000000 0.000000 0.000000
# 2 -0.009195 0.020747 0.002756 0.000000 0.000000 0.000000
# 3 -0.012330 0.002756 0.030831 0.000000 0.000000 0.000000
# 4 0.000000 0.000000 0.000000 0.037671 0.000000 0.000000
# 5 0.000000 0.000000 0.000000 0.000000 0.035587 0.000000
# 6 0.000000 0.000000 0.000000 0.000000 0.000000 0.057146
#
#
# Mechanical properties :
#
#
# Convention : Reuss Voigt Hill
#
# Bulk Modulus (GPa) = 31.31288 43.30291 37.30790
# Shear Modulus (GPa) = 20.15635 22.79018 21.47326
#
# Velocity S-wave (km/s) = 3.19786 3.40038 3.30067
# Velocity P-wave (km/s) = 5.43338 6.11445 5.78395
#
# Compressibility (1/GPa) = 0.03193574
#
# Stress axis : x y z
#
# Youngs Moduli (GPa) = 55.88015 48.20053 32.43457
#
# Poissons Ratio (x) = 0.44321 0.39992
# Poissons Ratio (y) = 0.51382 -0.08940
# Poissons Ratio (z) = 0.68900 -0.13285
#
# Static dielectric constant tensor:
#      x y z
#    x 1.842600 0.000000 0.000000 
#    y 0.000000 1.719070 0.000000 
#    z 0.000000 0.000000 1.697630 
# 
# From -- ./inp_files/12417.got.cif
#   From: 2010.05.17/outbox.ucp.g08.bks.cvg/sg40_7_cif.got.tgz:12417.got - 2010.06.11 16:26:39.
