data_PCOD9365270
_publ_section_title
;
Structure prediction by ZEFSAII (Michael W. Deem and Ramdas Pophale) SiO2 
 PCOD9365270
Probable space group: A M A 2
;
_chemical_formula_sum "Si O2"
_cell_formula_units_Z 32
_cell_length_a 27.337541
_cell_length_b 9.014899
_cell_length_c 5.377975
_cell_angle_alpha 90.000000
_cell_angle_beta 90.000000
_cell_angle_gamma 90.000000
_cell_volume 1325.375969
_symmetry_space_group_name_H-M "A M A 2"
_symmetry_group_IT_number 40
_symmetry_cell_setting 'orthorhombic'
loop_
_space_group_symop_operation_xyz
x,y,z
-x,-y,z
1/2-x,y,z
1/2+x,-y,z
x,1/2+y,1/2+z
-x,1/2-y,1/2+z
1/2-x,1/2+y,1/2+z
1/2+x,1/2-y,1/2+z
loop_
_atom_site_type_symbol
_atom_site_label
_atom_site_fract_x
_atom_site_fract_y
_atom_site_fract_z
Si Si1 0.136331 0.396578 0.243740
Si Si2 0.110382 0.830680 0.244777
Si Si3 0.307430 0.175142 0.930228
Si Si4 0.982714 0.831351 0.868824
O O1 0.098673 0.378937 0.468767
O O2 0.175729 0.515569 0.335380
O O3 0.110541 0.439907 0.981221
O O4 0.163231 0.241395 0.167901
O O5 0.167477 0.784197 0.229340
O O6 0.075249 0.697872 0.326553
O O7 0.250000 0.187717 0.958163
O O8 0.005529 0.734768 0.641954
O O9 0.000000 0.000000 0.848772
#
# Coordination Sequence:
#
# PCOD9365270 Si02
#       4
#     8   8   8   8
#     4  10  24  41  66  95 135 176 224 279 344 408
#     4  10  26  44  71  94 142 174 233 280 358 407
#     4  10  24  42  66  98 133 179 228 281 344 414
#     4  12  28  47  76 108 144 187 243 297 362 430
#
# _framework density 24.144091
#
# number of rings (size 3 to 8) (size 9 to 14) (size 15 to 20)
#    1.500    0.000    0.000    3.000   10.500    2.000 
#    0.000    0.000    0.000    0.000    0.000    0.000 
#    0.000    0.000    0.000    0.000    0.000    0.000 
#
# Total GULP energy -89188.955838 kJ/mol
# GULP energy per Si atom -5574.309740 kJ/mol
# Density = 2.408914 g / cm^3
# Si number density = 24.144091 Si / 1000 Ang^3
#
#
#
# Elastic Constant Matrix: (Units=GPa)
#
#
# Indices 1 2 3 4 5 6 
#
# 1 88.9697 8.0124 35.6951 0.0000 0.0000 0.0000
# 2 8.0124 82.9267 60.3470 0.0000 0.0000 0.0000
# 3 35.6951 60.3470 192.0632 0.0000 0.0000 0.0000
# 4 0.0000 0.0000 0.0000 43.4367 0.0000 0.0000
# 5 0.0000 0.0000 0.0000 0.0000 21.2700 0.0000
# 6 0.0000 0.0000 0.0000 0.0000 0.0000 37.1254
#
#
#
# Elastic Compliance Matrix: (Units=1/GPa)
#
#
# Indices 1 2 3 4 5 6 
#
# 1 0.012169 0.000609 -0.002453 0.000000 0.000000 0.000000
# 2 0.000609 0.015664 -0.005035 0.000000 0.000000 0.000000
# 3 -0.002453 -0.005035 0.007245 0.000000 0.000000 0.000000
# 4 0.000000 0.000000 0.000000 0.023022 0.000000 0.000000
# 5 0.000000 0.000000 0.000000 0.000000 0.047014 0.000000
# 6 0.000000 0.000000 0.000000 0.000000 0.000000 0.026936
#
#
# Mechanical properties :
#
#
# Convention : Reuss Voigt Hill
#
# Bulk Modulus (GPa) = 46.90371 63.56317 55.23344
# Shear Modulus (GPa) = 32.69813 37.69341 35.19577
#
# Velocity S-wave (km/s) = 3.68406 3.95547 3.82218
# Velocity P-wave (km/s) = 6.12904 6.87348 6.51191
#
# Compressibility (1/GPa) = 0.02132028
#
# Stress axis : x y z
#
# Youngs Moduli (GPa) = 82.17530 63.84083 138.03523
#
# Poissons Ratio (x) = -0.03890 0.33862
# Poissons Ratio (y) = -0.05008 0.69500
# Poissons Ratio (z) = 0.20158 0.32143
#
# Static dielectric constant tensor:
#      x y z
#    x 1.917170 0.000000 0.000000 
#    y 0.000000 1.927260 0.000000 
#    z 0.000000 0.000000 2.022300 
# 
# From -- ./inp_files/3261.got.cif
#   From: 2010.05.17/outbox.cif.g08.bks.cpg/sg40_2_cif.got.tgz:3261.got - 2010.06.03 18:35:42.
