data_PCOD9365178
_publ_section_title
;
Structure prediction by ZEFSAII (Michael W. Deem and Ramdas Pophale) SiO2 
 PCOD9365178
Probable space group: A M A 2
;
_chemical_formula_sum "Si O2"
_cell_formula_units_Z 56
_cell_length_a 27.240952
_cell_length_b 18.727037
_cell_length_c 5.137934
_cell_angle_alpha 90.000000
_cell_angle_beta 90.000000
_cell_angle_gamma 90.000000
_cell_volume 2621.077550
_symmetry_space_group_name_H-M "A M A 2"
_symmetry_group_IT_number 40
_symmetry_cell_setting 'orthorhombic'
loop_
_space_group_symop_operation_xyz
x,y,z
-x,-y,z
1/2-x,y,z
1/2+x,-y,z
x,1/2+y,1/2+z
-x,1/2-y,1/2+z
1/2-x,1/2+y,1/2+z
1/2+x,1/2-y,1/2+z
loop_
_atom_site_type_symbol
_atom_site_label
_atom_site_fract_x
_atom_site_fract_y
_atom_site_fract_z
Si Si1 0.108166 0.300249 0.978790
Si Si2 0.048502 0.028153 0.744034
Si Si3 0.356434 0.443934 0.126225
Si Si4 0.876475 0.863308 0.032490
Si Si5 0.308131 0.013501 0.123199
Si Si6 0.463834 0.144619 0.358039
Si Si7 0.042291 0.800319 0.992952
O O1 0.126416 0.218808 0.946551
O O2 0.082515 0.320604 0.708761
O O3 0.146830 0.360688 0.054911
O O4 0.068119 0.304104 0.213129
O O5 0.086242 0.084159 0.877333
O O6 0.024573 0.072947 0.508314
O O7 0.086119 0.965778 0.661058
O O8 0.000000 0.000000 0.893265
O O9 0.328566 0.464272 0.390027
O O10 0.334174 0.489318 0.889371
O O11 0.905769 0.858078 0.303841
O O12 0.826458 0.906401 0.057567
O O13 0.250000 0.008807 0.144976
O O14 0.494828 0.156801 0.093556
O O15 0.471507 0.216585 0.523243
#
# Coordination Sequence:
#
# PCOD9365178 Si02
#       7
#     8   8   8   8   8   8   8
#     4  11  23  42  65  94 135 172 222 271 323 388
#     4  11  23  37  61  92 136 179 219 265 313 393
#     4  11  24  44  67 101 131 171 217 272 337 396
#     4  10  23  41  64  94 130 171 223 271 320 389
#     4  11  24  47  72  96 129 171 217 278 349 407
#     4  11  21  37  54  90 129 177 224 264 306 381
#     4  11  23  34  61  87 131 184 219 260 315 374
#
# _framework density 21.365258000000001
#
# number of rings (size 3 to 8) (size 9 to 14) (size 15 to 20)
#    0.000    1.143    2.857    3.857    4.000    0.571 
#    0.000    1.429    0.000    0.000    0.000    0.000 
#    0.000    0.000    0.000    0.000    0.000    0.000 
#
# Total GULP energy -156384.255371 kJ/mol
# GULP energy per Si atom -5585.151978 kJ/mol
# Density = 2.131663 g / cm^3
# Si number density = 21.365258 Si / 1000 Ang^3
#
#
#
# Elastic Constant Matrix: (Units=GPa)
#
#
# Indices 1 2 3 4 5 6 
#
# 1 111.1777 27.0769 13.0448 0.0000 0.0000 0.0000
# 2 27.0769 115.4821 -10.1545 0.0000 0.0000 0.0000
# 3 13.0448 -10.1545 58.7512 0.0000 0.0000 0.0000
# 4 0.0000 0.0000 0.0000 30.5603 0.0000 0.0000
# 5 0.0000 0.0000 0.0000 0.0000 9.3980 0.0000
# 6 0.0000 0.0000 0.0000 0.0000 0.0000 20.3218
#
#
#
# Elastic Compliance Matrix: (Units=1/GPa)
#
#
# Indices 1 2 3 4 5 6 
#
# 1 0.009929 -0.002561 -0.002647 0.000000 0.000000 0.000000
# 2 -0.002561 0.009453 0.002203 0.000000 0.000000 0.000000
# 3 -0.002647 0.002203 0.017989 0.000000 0.000000 0.000000
# 4 0.000000 0.000000 0.000000 0.032722 0.000000 0.000000
# 5 0.000000 0.000000 0.000000 0.000000 0.106406 0.000000
# 6 0.000000 0.000000 0.000000 0.000000 0.000000 0.049208
#
#
# Mechanical properties :
#
#
# Convention : Reuss Voigt Hill
#
# Bulk Modulus (GPa) = 31.88692 38.37172 35.12932
# Shear Modulus (GPa) = 20.64647 29.08560 24.86604
#
# Velocity S-wave (km/s) = 3.11200 3.69365 3.41523
# Velocity P-wave (km/s) = 5.27918 6.01578 5.65948
#
# Compressibility (1/GPa) = 0.03136082
#
# Stress axis : x y z
#
# Youngs Moduli (GPa) = 100.71632 105.78151 55.58841
#
# Poissons Ratio (x) = 0.27088 0.14715
# Poissons Ratio (y) = 0.25791 -0.12243
# Poissons Ratio (z) = 0.26661 -0.23298
#
# Static dielectric constant tensor:
#      x y z
#    x 1.757980 0.000000 0.000000 
#    y 0.000000 1.848200 0.000000 
#    z 0.000000 0.000000 1.850160 
# 
# From -- ./inp_files/2786.got.cif
#   From: 2010.05.17/outbox.cif.g08.bks.cpg/sg40_2_cif.got.tgz:2786.got - 2010.06.03 18:35:42.
