data_PCOD9365491
_publ_section_title
;
Structure prediction by ZEFSAII (Michael W. Deem and Ramdas Pophale) SiO2 
 PCOD9365491
Probable space group: A M A 2
;
_chemical_formula_sum "Si O2"
_cell_formula_units_Z 40
_cell_length_a 10.180073
_cell_length_b 8.789077
_cell_length_c 22.966275
_cell_angle_alpha 90.000000
_cell_angle_beta 90.000000
_cell_angle_gamma 90.000000
_cell_volume 2054.871754
_symmetry_space_group_name_H-M "A M A 2"
_symmetry_group_IT_number 40
_symmetry_cell_setting 'orthorhombic'
loop_
_space_group_symop_operation_xyz
x,y,z
-x,-y,z
1/2-x,y,z
1/2+x,-y,z
x,1/2+y,1/2+z
-x,1/2-y,1/2+z
1/2-x,1/2+y,1/2+z
1/2+x,1/2-y,1/2+z
loop_
_atom_site_type_symbol
_atom_site_label
_atom_site_fract_x
_atom_site_fract_y
_atom_site_fract_z
Si Si1 0.904291 0.145221 0.053520
Si Si2 0.250000 0.690038 0.853855
Si Si3 0.987199 0.182002 0.925503
Si Si4 0.750000 0.837621 0.215399
Si Si5 0.750000 0.194983 0.240517
Si Si6 0.487228 0.180948 0.668109
Si Si7 0.250000 0.334491 0.878830
O O1 0.750000 0.101681 0.054199
O O2 0.935289 0.257115 0.106470
O O3 0.938253 0.217505 0.990845
O O4 0.000000 0.000000 0.060314
O O5 0.121518 0.768311 0.879479
O O6 0.250000 0.698909 0.784234
O O7 0.250000 0.517100 0.877339
O O8 0.122375 0.264849 0.909699
O O9 0.000000 0.000000 0.923012
O O10 0.622050 0.766116 0.185118
O O11 0.750000 0.021612 0.215856
O O12 0.620861 0.274282 0.215809
O O13 0.750000 0.203549 0.310093
O O14 0.500000 0.000000 0.666482
#
# Coordination Sequence:
#
# PCOD9365491 Si02
#       7
#     8   4   8   4   4   8   4
#     4  11  25  46  71  96 131 175 221 265 327 404
#     4  11  23  44  65  98 137 170 222 265 326 389
#     4  11  24  42  68  97 130 173 218 270 324 388
#     4  11  25  42  69  96 129 184 216 261 326 401
#     4  11  23  46  65  94 135 176 222 259 322 405
#     4  12  26  42  67 100 133 166 219 280 331 377
#     4  11  25  40  69  98 131 176 216 269 326 389
#
# _framework density 19.465935000000002
#
# number of rings (size 3 to 8) (size 9 to 14) (size 15 to 20)
#    0.000    0.800    2.000    4.800    5.600    9.600 
#    0.000    0.000    0.000    0.000    0.000    0.000 
#    0.000    0.000    0.000    0.000    0.000    0.000 
#
# Total GULP energy -111902.251485 kJ/mol
# GULP energy per Si atom -5595.112574 kJ/mol
# Density = 1.942163 g / cm^3
# Si number density = 19.465935 Si / 1000 Ang^3
#
#
#
# Elastic Constant Matrix: (Units=GPa)
#
#
# Indices 1 2 3 4 5 6 
#
# 1 180.5970 43.3785 48.9237 0.0000 0.0000 0.0000
# 2 43.3785 79.7711 54.6030 0.0000 0.0000 0.0000
# 3 48.9237 54.6030 93.8998 0.0000 0.0000 0.0000
# 4 0.0000 0.0000 0.0000 28.5090 0.0000 0.0000
# 5 0.0000 0.0000 0.0000 0.0000 27.8092 0.0000
# 6 0.0000 0.0000 0.0000 0.0000 0.0000 43.7711
#
#
#
# Elastic Compliance Matrix: (Units=1/GPa)
#
#
# Indices 1 2 3 4 5 6 
#
# 1 0.006646 -0.002066 -0.002261 0.000000 0.000000 0.000000
# 2 -0.002066 0.021467 -0.011407 0.000000 0.000000 0.000000
# 3 -0.002261 -0.011407 0.018461 0.000000 0.000000 0.000000
# 4 0.000000 0.000000 0.000000 0.035077 0.000000 0.000000
# 5 0.000000 0.000000 0.000000 0.000000 0.035959 0.000000
# 6 0.000000 0.000000 0.000000 0.000000 0.000000 0.022846
#
#
# Mechanical properties :
#
#
# Convention : Reuss Voigt Hill
#
# Bulk Modulus (GPa) = 66.19967 72.00870 69.10419
# Shear Modulus (GPa) = 28.25497 33.84205 31.04851
#
# Velocity S-wave (km/s) = 3.81400 4.17409 3.99810
# Velocity P-wave (km/s) = 7.31281 7.76551 7.54256
#
# Compressibility (1/GPa) = 0.01510582
#
# Stress axis : x y z
#
# Youngs Moduli (GPa) = 150.46527 46.58235 54.16872
#
# Poissons Ratio (x) = 0.09625 0.12249
# Poissons Ratio (y) = 0.31090 0.61789
# Poissons Ratio (z) = 0.34023 0.53135
#
# Static dielectric constant tensor:
#      x y z
#    x 2.832450 0.000000 0.000000 
#    y 0.000000 1.655590 0.000000 
#    z 0.000000 0.000000 1.665280 
# 
# From -- ./inp_files/23860.got.cif
#   From: 2010.05.17/outbox.cif.g08.bks.cpg/sg40_12_cif.got.tgz:23860.got - 2010.06.03 18:35:42.
