data_PCOD9365710
_publ_section_title
;
Structure prediction by ZEFSAII (Michael W. Deem and Ramdas Pophale) SiO2 
 PCOD9365710
Probable space group: A B A 2
;
_chemical_formula_sum "Si O2"
_cell_formula_units_Z 48
_cell_length_a 17.132257
_cell_length_b 28.737091
_cell_length_c 5.393678
_cell_angle_alpha 90.000000
_cell_angle_beta 90.000000
_cell_angle_gamma 90.000000
_cell_volume 2655.476116
_symmetry_space_group_name_H-M "A B A 2"
_symmetry_group_IT_number 41
_symmetry_cell_setting 'orthorhombic'
loop_
_space_group_symop_operation_xyz
x,y,z
-x,-y,z
1/2-x,y,1/2+z
1/2+x,-y,1/2+z
x,1/2+y,1/2+z
-x,1/2-y,1/2+z
1/2-x,1/2+y,z
1/2+x,1/2-y,z
loop_
_atom_site_type_symbol
_atom_site_label
_atom_site_fract_x
_atom_site_fract_y
_atom_site_fract_z
Si Si1 0.298529 0.795976 0.404090
Si Si2 0.405220 0.491600 0.903833
Si Si3 0.406001 0.881898 0.404243
Si Si4 0.581090 0.969644 0.903834
Si Si5 0.506812 0.869147 0.904243
Si Si6 0.454169 0.735279 0.403785
O O1 0.250051 0.788451 0.654192
O O2 0.331572 0.848594 0.404049
O O3 0.372688 0.762012 0.403910
O O4 0.500000 0.500000 0.903721
O O5 0.389900 0.436847 0.904110
O O6 0.376175 0.515395 0.653659
O O7 0.376202 0.515471 0.153835
O O8 0.454609 0.871073 0.654649
O O9 0.454733 0.871057 0.154091
O O10 0.558319 0.915766 0.904110
O O11 0.500000 0.000000 0.903722
O O12 0.552249 0.820542 0.904019
O O13 0.500050 0.750025 0.653656
#
# Coordination Sequence:
#
# PCOD9365710 Si02
#       6
#     8   8   8   8   8   8
#     4  12  26  43  59  84 121 167 202 247 317 387
#     4  10  16  28  46  82 118 147 166 226 291 331
#     4  12  20  33  58  82 119 150 193 241 297 369
#     4  10  16  26  46  78 126 139 170 223 302 334
#     4  12  19  32  55  88 115 146 191 246 306 335
#     4  12  23  40  62  88 116 151 205 265 303 347
#
# _framework density 18.075855000000001
#
# number of rings (size 3 to 8) (size 9 to 14) (size 15 to 20)
#    0.000    0.667   10.000    2.000    0.000    0.000 
#    0.000    0.000    0.000    0.000    0.000    7.000 
#    0.000    0.000    0.000    0.000    0.000    0.000 
#
# Total GULP energy -133980.597524 kJ/mol
# GULP energy per Si atom -5582.524897 kJ/mol
# Density = 1.803471 g / cm^3
# Si number density = 18.075855 Si / 1000 Ang^3
#
#
#
# Elastic Constant Matrix: (Units=GPa)
#
#
# Indices 1 2 3 4 5 6 
#
# 1 73.0238 53.9987 60.6217 0.0000 0.0000 0.0000
# 2 53.9987 167.9726 52.8025 0.0000 0.0000 0.0000
# 3 60.6217 52.8025 215.0985 0.0000 0.0000 0.0000
# 4 0.0000 0.0000 0.0000 29.2652 0.0000 0.0000
# 5 0.0000 0.0000 0.0000 0.0000 22.2145 0.0000
# 6 0.0000 0.0000 0.0000 0.0000 0.0000 24.8865
#
#
#
# Elastic Compliance Matrix: (Units=1/GPa)
#
#
# Indices 1 2 3 4 5 6 
#
# 1 0.021707 -0.005478 -0.004773 0.000000 0.000000 0.000000
# 2 -0.005478 0.007834 -0.000379 0.000000 0.000000 0.000000
# 3 -0.004773 -0.000379 0.006087 0.000000 0.000000 0.000000
# 4 0.000000 0.000000 0.000000 0.034170 0.000000 0.000000
# 5 0.000000 0.000000 0.000000 0.000000 0.045016 0.000000
# 6 0.000000 0.000000 0.000000 0.000000 0.000000 0.040182
#
#
# Mechanical properties :
#
#
# Convention : Reuss Voigt Hill
#
# Bulk Modulus (GPa) = 69.59953 87.88230 78.74092
# Shear Modulus (GPa) = 27.61727 34.51804 31.06766
#
# Velocity S-wave (km/s) = 3.91302 4.37466 4.15026
# Velocity P-wave (km/s) = 7.68136 8.61632 8.16224
#
# Compressibility (1/GPa) = 0.01436791
#
# Stress axis : x y z
#
# Youngs Moduli (GPa) = 46.06738 127.65635 164.27597
#
# Poissons Ratio (x) = 0.69929 0.78411
# Poissons Ratio (y) = 0.25235 0.06228
# Poissons Ratio (z) = 0.21988 0.04840
#
# Static dielectric constant tensor:
#      x y z
#    x 1.576530 0.000000 0.000000 
#    y 0.000000 1.605960 0.000000 
#    z 0.000000 0.000000 1.553490 
# 
# From -- ./inp_files/295.got.cif
#   From: 2010.05.17/outbox.cif.g08.bks.cpg/sg41_1_cif.got.tgz:295.got - 2010.06.03 18:54:24.
