data_PCOD9365160
_publ_section_title
;
Structure prediction by ZEFSAII (Michael W. Deem and Ramdas Pophale) SiO2 
 PCOD9365160
Probable space group: A M A 2
;
_chemical_formula_sum "Si O2"
_cell_formula_units_Z 64
_cell_length_a 18.326067
_cell_length_b 12.043787
_cell_length_c 15.479372
_cell_angle_alpha 90.000000
_cell_angle_beta 90.000000
_cell_angle_gamma 90.000000
_cell_volume 3416.533422
_symmetry_space_group_name_H-M "A M A 2"
_symmetry_group_IT_number 40
_symmetry_cell_setting 'orthorhombic'
loop_
_space_group_symop_operation_xyz
x,y,z
-x,-y,z
1/2-x,y,z
1/2+x,-y,z
x,1/2+y,1/2+z
-x,1/2-y,1/2+z
1/2-x,1/2+y,1/2+z
1/2+x,1/2-y,1/2+z
loop_
_atom_site_type_symbol
_atom_site_label
_atom_site_fract_x
_atom_site_fract_y
_atom_site_fract_z
Si Si1 0.663425 0.217723 0.165740
Si Si2 0.410772 0.682294 0.786666
Si Si3 0.412705 0.016538 0.130126
Si Si4 0.913289 0.497804 0.930928
Si Si5 0.837654 0.453641 0.106553
Si Si6 0.422197 0.778595 0.331813
Si Si7 0.579620 0.443385 0.434171
Si Si8 0.662276 0.076364 0.784947
O O1 0.750000 0.204227 0.161310
O O2 0.641446 0.323220 0.108008
O O3 0.637287 0.252404 0.260797
O O4 0.624566 0.102361 0.145051
O O5 0.392647 0.605284 0.704062
O O6 0.395263 0.610261 0.873079
O O7 0.498068 0.705413 0.788752
O O8 0.369009 0.798690 0.785138
O O9 0.500000 0.000000 0.136154
O O10 0.394161 0.053674 0.032994
O O11 0.898799 0.605445 0.873120
O O12 0.000000 0.500000 0.947499
O O13 0.871778 0.503842 0.020794
O O14 0.750000 0.459509 0.103173
O O15 0.860185 0.514836 0.195367
O O16 0.427665 0.682140 0.401714
O O17 0.500000 0.500000 0.431555
O O18 0.629904 0.510519 0.366951
O O19 0.750000 0.077548 0.788892
#
# Coordination Sequence:
#
# PCOD9365160 Si02
#       8
#     8   8   8   8   8   8   8   8
#     4  11  23  41  66  91 125 172 214 259 319 380
#     4  11  22  42  65  92 129 166 209 264 321 378
#     4  11  23  41  66  96 129 165 210 268 318 379
#     4  10  23  39  65  95 122 160 211 260 312 376
#     4  10  24  43  62  91 127 167 212 258 318 381
#     4  11  21  42  66  93 126 164 212 264 315 376
#     4  11  24  40  66  98 126 169 218 261 322 386
#     4  11  25  43  61  90 132 170 208 263 321 380
#
# _framework density 18.732437999999998
#
# number of rings (size 3 to 8) (size 9 to 14) (size 15 to 20)
#    0.000    1.250    5.000    0.375    3.500    4.500 
#    0.000    0.000    0.000    0.000    0.000    0.000 
#    0.000    0.000    0.000    0.000    0.000    0.000 
#
# Total GULP energy -178737.480615 kJ/mol
# GULP energy per Si atom -5585.546269 kJ/mol
# Density = 1.868980 g / cm^3
# Si number density = 18.732438 Si / 1000 Ang^3
#
#
#
# Elastic Constant Matrix: (Units=GPa)
#
#
# Indices 1 2 3 4 5 6 
#
# 1 41.1249 31.0476 29.7416 0.0000 0.0000 0.0000
# 2 31.0476 103.4626 31.4525 0.0000 0.0000 0.0000
# 3 29.7416 31.4525 112.2976 0.0000 0.0000 0.0000
# 4 0.0000 0.0000 0.0000 14.9504 0.0000 0.0000
# 5 0.0000 0.0000 0.0000 0.0000 -2.4688 0.0000
# 6 0.0000 0.0000 0.0000 0.0000 0.0000 26.8692
#
#
#
# Elastic Compliance Matrix: (Units=1/GPa)
#
#
# Indices 1 2 3 4 5 6 
#
# 1 0.035977 -0.008635 -0.007110 0.000000 0.000000 0.000000
# 2 -0.008635 0.012637 -0.001253 0.000000 0.000000 0.000000
# 3 -0.007110 -0.001253 0.011139 0.000000 0.000000 0.000000
# 4 0.000000 0.000000 0.000000 0.066888 0.000000 0.000000
# 5 0.000000 0.000000 0.000000 0.000000 -0.405051 0.000000
# 6 0.000000 0.000000 0.000000 0.000000 0.000000 0.037217
#
#
# Mechanical properties :
#
#
# Convention : Reuss Voigt Hill
#
# Bulk Modulus (GPa) = 38.82216 49.04094 43.93155
# Shear Modulus (GPa) = -25.17468 18.84637 -3.16416
#
# Velocity S-wave (km/s) = -3.66991 3.17532 -1.30108
# Velocity P-wave (km/s) = 1.67686 6.29921 4.60934
#
# Compressibility (1/GPa) = 0.02575848
#
# Stress axis : x y z
#
# Youngs Moduli (GPa) = 27.79555 79.13092 89.77656
#
# Poissons Ratio (x) = 0.68328 0.63830
# Poissons Ratio (y) = 0.24001 0.11245
# Poissons Ratio (z) = 0.19762 0.09912
#
# Static dielectric constant tensor:
#      x y z
#    x 1.626760 0.000000 0.000000 
#    y 0.000000 1.649150 0.000000 
#    z 0.000000 0.000000 1.634410 
# 
# From -- ./inp_files/17837.got.cif
#   From: 2010.05.17/outbox.cif.g08.bks.cpg/sg40_9_cif.got.tgz:17837.got - 2010.06.03 18:35:42.
