data_PCOD9365511
_publ_section_title
;
Structure prediction by ZEFSAII (Michael W. Deem and Ramdas Pophale) SiO2 
 PCOD9365511
Probable space group: A M A 2
;
_chemical_formula_sum "Si O2"
_cell_formula_units_Z 48
_cell_length_a 29.946979
_cell_length_b 12.842092
_cell_length_c 5.656189
_cell_angle_alpha 90.000000
_cell_angle_beta 90.000000
_cell_angle_gamma 90.000000
_cell_volume 2175.267683
_symmetry_space_group_name_H-M "A M A 2"
_symmetry_group_IT_number 40
_symmetry_cell_setting 'orthorhombic'
loop_
_space_group_symop_operation_xyz
x,y,z
-x,-y,z
1/2-x,y,z
1/2+x,-y,z
x,1/2+y,1/2+z
-x,1/2-y,1/2+z
1/2-x,1/2+y,1/2+z
1/2+x,1/2-y,1/2+z
loop_
_atom_site_type_symbol
_atom_site_label
_atom_site_fract_x
_atom_site_fract_y
_atom_site_fract_z
Si Si1 0.750000 0.280557 0.228240
Si Si2 0.828610 0.351665 0.977480
Si Si3 0.405917 0.006564 0.601245
Si Si4 0.032003 0.375379 0.754529
Si Si5 0.396338 0.807885 0.865821
Si Si6 0.750000 0.271919 0.727534
Si Si7 0.946868 0.836208 0.994817
O O1 0.750000 0.221194 0.473293
O O2 0.793717 0.352764 0.193925
O O3 0.750000 0.214145 0.982716
O O4 0.856743 0.245598 0.006244
O O5 0.795075 0.339800 0.756886
O O6 0.866245 0.438161 0.960340
O O7 0.444784 0.953169 0.442810
O O8 0.382434 0.909521 0.726269
O O9 0.425503 0.089901 0.792684
O O10 0.065763 0.350707 0.540514
O O11 0.028004 0.262202 0.878883
O O12 0.983820 0.398106 0.643408
O O13 0.413703 0.720694 0.679272
#
# Coordination Sequence:
#
# PCOD9365511 Si02
#       7
#     4   8   8   8   8   4   8
#     4   8  20  38  72 101 139 184 219 284 369 425
#     4   9  22  43  67 101 140 173 228 289 354 421
#     4  11  26  42  69 101 133 186 235 294 348 426
#     4  11  24  46  63  98 133 189 237 288 353 408
#     4  11  24  42  68  97 130 183 228 285 347 422
#     4   8  20  38  76 101 137 184 217 286 369 425
#     4  11  24  47  65  90 145 179 238 302 346 402
#
# _framework density 22.06625
#
# number of rings (size 3 to 8) (size 9 to 14) (size 15 to 20)
#    1.000    0.667    3.333    0.000    4.667    0.667 
#    6.000    3.333    0.000    6.000    0.000    0.000 
#    0.000    0.000    0.000    0.000    0.000    0.000 
#
# Total GULP energy -133702.732028 kJ/mol
# GULP energy per Si atom -5570.947168 kJ/mol
# Density = 2.201603 g / cm^3
# Si number density = 22.066250 Si / 1000 Ang^3
#
#
#
# Elastic Constant Matrix: (Units=GPa)
#
#
# Indices 1 2 3 4 5 6 
#
# 1 56.2815 31.4397 1.5023 0.0000 0.0000 0.0000
# 2 31.4397 80.1143 33.5494 0.0000 0.0000 0.0000
# 3 1.5023 33.5494 99.0499 0.0000 0.0000 0.0000
# 4 0.0000 0.0000 0.0000 53.4356 0.0000 0.0000
# 5 0.0000 0.0000 0.0000 0.0000 -19.2946 0.0000
# 6 0.0000 0.0000 0.0000 0.0000 0.0000 -3.3654
#
#
#
# Elastic Compliance Matrix: (Units=1/GPa)
#
#
# Indices 1 2 3 4 5 6 
#
# 1 0.023617 -0.010625 0.003241 0.000000 0.000000 0.000000
# 2 -0.010625 0.019326 -0.006385 0.000000 0.000000 0.000000
# 3 0.003241 -0.006385 0.012209 0.000000 0.000000 0.000000
# 4 0.000000 0.000000 0.000000 0.018714 0.000000 0.000000
# 5 0.000000 0.000000 0.000000 0.000000 -0.051828 0.000000
# 6 0.000000 0.000000 0.000000 0.000000 0.000000 -0.297139
#
#
# Mechanical properties :
#
#
# Convention : Reuss Voigt Hill
#
# Bulk Modulus (GPa) = 36.21436 40.93648 38.57542
# Shear Modulus (GPa) = -20.97680 17.41872 -1.77904
#
# Velocity S-wave (km/s) = -3.08657 2.81264 -0.89887
# Velocity P-wave (km/s) = 1.93513 5.39813 4.05491
#
# Compressibility (1/GPa) = 0.02761336
#
# Stress axis : x y z
#
# Youngs Moduli (GPa) = 42.34295 51.74501 81.90456
#
# Poissons Ratio (x) = 0.54980 -0.26542
# Poissons Ratio (y) = 0.44990 0.52293
# Poissons Ratio (z) = -0.13722 0.33037
#
# Static dielectric constant tensor:
#      x y z
#    x 1.814500 0.000000 0.000000 
#    y 0.000000 1.836610 0.000000 
#    z 0.000000 0.000000 1.926860 
# 
# From -- ./inp_files/3373.got.cif
#   From: 2010.05.17/outbox.cif.g08.bks.cpg/sg40_2_cif.got.tgz:3373.got - 2010.06.03 18:35:42.
