data_PCOD9365290
_publ_section_title
;
Structure prediction by ZEFSAII (Michael W. Deem and Ramdas Pophale) SiO2 
 PCOD9365290
Probable space group: A M A 2
;
_chemical_formula_sum "Si O2"
_cell_formula_units_Z 36
_cell_length_a 10.271551
_cell_length_b 21.466110
_cell_length_c 7.367736
_cell_angle_alpha 90.000000
_cell_angle_beta 90.000000
_cell_angle_gamma 90.000000
_cell_volume 1624.513906
_symmetry_space_group_name_H-M "A M A 2"
_symmetry_group_IT_number 40
_symmetry_cell_setting 'orthorhombic'
loop_
_space_group_symop_operation_xyz
x,y,z
-x,-y,z
1/2-x,y,z
1/2+x,-y,z
x,1/2+y,1/2+z
-x,1/2-y,1/2+z
1/2-x,1/2+y,1/2+z
1/2+x,1/2-y,1/2+z
loop_
_atom_site_type_symbol
_atom_site_label
_atom_site_fract_x
_atom_site_fract_y
_atom_site_fract_z
Si Si1 0.750000 0.251230 0.886250
Si Si2 0.455682 0.655706 0.029960
Si Si3 0.250000 0.856169 0.134485
Si Si4 0.514788 0.430429 0.703851
Si Si5 0.892664 0.448696 0.303548
Si Si6 0.250000 0.801189 0.515275
O O1 0.623658 0.282325 0.979817
O O2 0.750000 0.254230 0.666034
O O3 0.750000 0.179096 0.943887
O O4 0.425254 0.612123 0.857842
O O5 0.610048 0.666615 0.049536
O O6 0.410427 0.616928 0.203146
O O7 0.376146 0.899115 0.157126
O O8 0.250000 0.802774 0.293709
O O9 0.500000 0.500000 0.777979
O O10 0.592611 0.436779 0.517610
O O11 0.750000 0.474089 0.261559
O O12 0.000000 0.500000 0.251669
#
# Coordination Sequence:
#
# PCOD9365290 Si02
#       6
#     4   8   4   8   8   4
#     4  12  26  43  72 100 142 183 240 287 349 426
#     4  11  25  46  69 102 137 187 238 293 349 427
#     4  10  24  47  68 104 138 183 228 289 359 422
#     4  10  24  43  74  99 138 180 235 291 356 417
#     4  11  25  42  68 104 142 184 234 294 359 424
#     4  10  26  44  68  94 136 186 226 290 350 412
#
# _framework density 22.160475000000002
#
# number of rings (size 3 to 8) (size 9 to 14) (size 15 to 20)
#    0.000    1.333    1.111    2.000   15.556    1.778 
#    4.000    0.000    0.000    0.000    0.000    0.000 
#    0.000    0.000    0.000    0.000    0.000    0.000 
#
# Total GULP energy -100534.307068 kJ/mol
# GULP energy per Si atom -5585.239282 kJ/mol
# Density = 2.211004 g / cm^3
# Si number density = 22.160475 Si / 1000 Ang^3
#
#
#
# Elastic Constant Matrix: (Units=GPa)
#
#
# Indices 1 2 3 4 5 6 
#
# 1 134.8592 25.4943 22.9588 0.0000 0.0000 0.0000
# 2 25.4943 77.7925 16.9658 0.0000 0.0000 0.0000
# 3 22.9588 16.9658 56.9085 0.0000 0.0000 0.0000
# 4 0.0000 0.0000 0.0000 49.9217 0.0000 0.0000
# 5 0.0000 0.0000 0.0000 0.0000 154.5683 0.0000
# 6 0.0000 0.0000 0.0000 0.0000 0.0000 19.4150
#
#
#
# Elastic Compliance Matrix: (Units=1/GPa)
#
#
# Indices 1 2 3 4 5 6 
#
# 1 0.008277 -0.002122 -0.002707 0.000000 0.000000 0.000000
# 2 -0.002122 0.014293 -0.003405 0.000000 0.000000 0.000000
# 3 -0.002707 -0.003405 0.019679 0.000000 0.000000 0.000000
# 4 0.000000 0.000000 0.000000 0.020031 0.000000 0.000000
# 5 0.000000 0.000000 0.000000 0.000000 0.006470 0.000000
# 6 0.000000 0.000000 0.000000 0.000000 0.000000 0.051507
#
#
# Mechanical properties :
#
#
# Convention : Reuss Voigt Hill
#
# Bulk Modulus (GPa) = 38.78738 44.48866 41.63802
# Shear Modulus (GPa) = 34.40735 58.39042 46.39889
#
# Velocity S-wave (km/s) = 3.94464 5.13869 4.58073
# Velocity P-wave (km/s) = 6.18772 7.43824 6.84161
#
# Compressibility (1/GPa) = 0.02578158
#
# Stress axis : x y z
#
# Youngs Moduli (GPa) = 120.81488 69.96536 50.81554
#
# Poissons Ratio (x) = 0.14849 0.13754
# Poissons Ratio (y) = 0.25641 0.17302
# Poissons Ratio (z) = 0.32699 0.23822
#
# Static dielectric constant tensor:
#      x y z
#    x 1.953190 0.000000 0.000000 
#    y 0.000000 1.774620 0.000000 
#    z 0.000000 0.000000 1.810240 
# 
# From -- ./inp_files/4150.got.cif
#   From: 2010.05.17/outbox.cif.g08.bks.cpg/sg40_3_cif.got.tgz:4150.got - 2010.06.03 18:35:42.
