data_PCOD9365341
_publ_section_title
;
Structure prediction by ZEFSAII (Michael W. Deem and Ramdas Pophale) SiO2 
 PCOD9365341
Probable space group: A M A 2
;
_chemical_formula_sum "Si O2"
_cell_formula_units_Z 52
_cell_length_a 15.374010
_cell_length_b 21.934816
_cell_length_c 7.721230
_cell_angle_alpha 90.000000
_cell_angle_beta 90.000000
_cell_angle_gamma 90.000000
_cell_volume 2603.800130
_symmetry_space_group_name_H-M "A M A 2"
_symmetry_group_IT_number 40
_symmetry_cell_setting 'orthorhombic'
loop_
_space_group_symop_operation_xyz
x,y,z
-x,-y,z
1/2-x,y,z
1/2+x,-y,z
x,1/2+y,1/2+z
-x,1/2-y,1/2+z
1/2-x,1/2+y,1/2+z
1/2+x,1/2-y,1/2+z
loop_
_atom_site_type_symbol
_atom_site_label
_atom_site_fract_x
_atom_site_fract_y
_atom_site_fract_z
Si Si1 0.750000 0.669375 0.893270
Si Si2 0.149558 0.586690 0.900790
Si Si3 0.588601 0.757843 0.888541
Si Si4 0.353272 0.115713 0.775173
Si Si5 0.895676 0.777902 0.295367
Si Si6 0.750000 0.073336 0.091818
Si Si7 0.905434 0.977286 0.071740
Si Si8 0.750000 0.178762 0.808096
O O1 0.664515 0.709473 0.848933
O O2 0.750000 0.609380 0.774708
O O3 0.750000 0.660617 0.103041
O O4 0.250000 0.567632 0.874864
O O5 0.142622 0.658574 0.860967
O O6 0.091983 0.550987 0.763876
O O7 0.125049 0.579193 0.100637
O O8 0.599290 0.819341 0.778233
O O9 0.493238 0.730778 0.862941
O O10 0.601918 0.777970 0.087070
O O11 0.250000 0.128264 0.772799
O O12 0.374966 0.075683 0.941844
O O13 0.833721 0.721466 0.343452
O O14 0.834711 0.030934 0.073317
O O15 0.750000 0.122308 0.936950
O O16 0.000000 0.000000 0.019274
#
# Coordination Sequence:
#
# PCOD9365341 Si02
#       8
#     4   8   8   8   8   4   8   4
#     4  10  26  43  63  99 137 178 214 273 338 400
#     4  11  23  43  72 100 130 178 233 282 333 398
#     4  11  23  40  67 101 140 171 218 279 340 402
#     4  11  23  43  72 100 130 178 233 282 333 398
#     4  11  23  40  67 101 140 171 218 279 340 402
#     4  12  28  46  70  90 142 184 224 268 344 402
#     4  12  28  48  70  98 136 186 231 283 329 404
#     4  10  26  43  63  99 137 178 214 273 338 400
#
# _framework density 19.970811000000001
#
# number of rings (size 3 to 8) (size 9 to 14) (size 15 to 20)
#    0.000    0.923    4.615    0.923    8.615    1.846 
#    0.000    0.000    0.000    0.000    0.000    0.000 
#    0.000    0.000    0.000    0.000    0.000    0.000 
#
# Total GULP energy -145431.457731 kJ/mol
# GULP energy per Si atom -5593.517605 kJ/mol
# Density = 1.992536 g / cm^3
# Si number density = 19.970811 Si / 1000 Ang^3
#
#
#
# Elastic Constant Matrix: (Units=GPa)
#
#
# Indices 1 2 3 4 5 6 
#
# 1 100.6380 27.5565 11.1179 0.0000 0.0000 0.0000
# 2 27.5565 79.7682 11.9105 0.0000 0.0000 0.0000
# 3 11.1179 11.9105 46.8318 0.0000 0.0000 0.0000
# 4 0.0000 0.0000 0.0000 26.0636 0.0000 0.0000
# 5 0.0000 0.0000 0.0000 0.0000 16.9609 0.0000
# 6 0.0000 0.0000 0.0000 0.0000 0.0000 15.8138
#
#
#
# Elastic Compliance Matrix: (Units=1/GPa)
#
#
# Indices 1 2 3 4 5 6 
#
# 1 0.011107 -0.003579 -0.001727 0.000000 0.000000 0.000000
# 2 -0.003579 0.014185 -0.002758 0.000000 0.000000 0.000000
# 3 -0.001727 -0.002758 0.022464 0.000000 0.000000 0.000000
# 4 0.000000 0.000000 0.000000 0.038368 0.000000 0.000000
# 5 0.000000 0.000000 0.000000 0.000000 0.058959 0.000000
# 6 0.000000 0.000000 0.000000 0.000000 0.000000 0.063236
#
#
# Mechanical properties :
#
#
# Convention : Reuss Voigt Hill
#
# Bulk Modulus (GPa) = 31.61665 36.48977 34.05321
# Shear Modulus (GPa) = 21.27757 23.54454 22.41106
#
# Velocity S-wave (km/s) = 3.26764 3.43731 3.35355
# Velocity P-wave (km/s) = 5.48657 5.83649 5.66423
#
# Compressibility (1/GPa) = 0.03162890
#
# Stress axis : x y z
#
# Youngs Moduli (GPa) = 90.02975 70.49895 44.51517
#
# Poissons Ratio (x) = 0.25234 0.07686
# Poissons Ratio (y) = 0.32225 0.12276
# Poissons Ratio (z) = 0.15544 0.19442
#
# Static dielectric constant tensor:
#      x y z
#    x 1.676510 0.000000 0.000000 
#    y 0.000000 1.663930 0.000000 
#    z 0.000000 0.000000 1.726220 
# 
# From -- ./inp_files/6684.got.cif
#   From: 2010.05.17/outbox.cif.g08.bks.cpg/sg40_4_cif.got.tgz:6684.got - 2010.06.03 18:35:42.
