data_PCOD9365634
_publ_section_title
;
Structure prediction by ZEFSAII (Michael W. Deem and Ramdas Pophale) SiO2 
 PCOD9365634
Probable space group: A M A 2
;
_chemical_formula_sum "Si O2"
_cell_formula_units_Z 24
_cell_length_a 9.000000
_cell_length_b 30.000000
_cell_length_c 9.000000
_cell_angle_alpha 90.000000
_cell_angle_beta 90.000000
_cell_angle_gamma 90.000000
_cell_volume 2430.000000
_symmetry_space_group_name_H-M "A M A 2"
_symmetry_group_IT_number 40
_symmetry_cell_setting 'orthorhombic'
loop_
_space_group_symop_operation_xyz
x,y,z
-x,-y,z
1/2-x,y,z
1/2+x,-y,z
x,1/2+y,1/2+z
-x,1/2-y,1/2+z
1/2-x,1/2+y,1/2+z
1/2+x,1/2-y,1/2+z
loop_
_atom_site_type_symbol
_atom_site_label
_atom_site_fract_x
_atom_site_fract_y
_atom_site_fract_z
Si Si1 0.419438 0.805195 0.909730
Si Si2 0.427576 0.142429 0.143821
Si Si3 0.571420 0.296211 0.897332
Si Si4 0.927914 0.952102 0.748483
Si Si5 0.420349 0.862439 0.619365
Si Si6 0.573997 0.454055 0.606629
O O1 0.250000 0.806700 0.970444
O O2 0.479406 0.754619 0.922971
O O3 0.410511 0.823623 0.743637
O O4 0.522735 0.842182 0.983312
O O5 0.250000 0.140236 0.154942
O O6 0.480369 0.184385 0.239979
O O7 0.482932 0.092435 0.176886
O O8 0.750000 0.293310 0.899945
O O9 0.519752 0.336730 0.000220
O O10 0.750000 0.951819 0.719105
O O11 0.006541 0.908784 0.675661
O O12 0.948074 0.949522 0.928089
O O13 0.000000 0.000000 0.703049
O O14 0.250000 0.871382 0.570620
O O15 0.500000 0.500000 0.656603
O O16 0.750000 0.457446 0.632773
#
# Coordination Sequence:
#
# PCOD9365634 Si02
#       6
#     8   8   8   8   8   8
#     4  10  21  36  56  82 109 144 189 234 277 327
#     4  10  20  37  58  81 110 146 185 227 280 335
#     4  10  22  38  55  78 113 151 186 227 279 336
#     4  10  19  34  57  85 113 144 184 231 280 330
#     4  11  22  37  57  84 115 148 188 232 279 333
#     4   9  18  32  54  82 108 139 177 223 274 323
#
# _framework density 9.8765429999999999
#
# number of rings (size 3 to 8) (size 9 to 14) (size 15 to 20)
#    0.000    2.000    1.667    2.000    0.000    4.667 
#    0.000    0.833    0.000    2.000    0.000    0.000 
#    0.000    0.000    0.000    0.000    0.000    0.000 
#
# Total GULP energy -133609.131688 kJ/mol
# GULP energy per Si atom -5567.047154 kJ/mol
# Density = 0.985406 g / cm^3
# Si number density = 9.876543 Si / 1000 Ang^3
#
#
#
# Elastic Constant Matrix: (Units=GPa)
#
#
# Indices 1 2 3 4 5 6 
#
# 1 -7.5850 35.5727 -8.3759 0.0000 0.0000 0.0000
# 2 35.5727 174.3900 -4.3319 0.0000 0.0000 0.0000
# 3 -8.3759 -4.3319 2.4486 0.0000 0.0000 0.0000
# 4 0.0000 0.0000 0.0000 1.9533 0.0000 0.0000
# 5 0.0000 0.0000 0.0000 0.0000 -13.5577 0.0000
# 6 0.0000 0.0000 0.0000 0.0000 0.0000 48.0649
#
#
#
# Elastic Compliance Matrix: (Units=1/GPa)
#
#
# Indices 1 2 3 4 5 6 
#
# 1 -0.025760 0.003207 -0.082444 0.000000 0.000000 0.000000
# 2 0.003207 0.005599 0.020874 0.000000 0.000000 0.000000
# 3 -0.082444 0.020874 0.163310 0.000000 0.000000 0.000000
# 4 0.000000 0.000000 0.000000 0.511948 0.000000 0.000000
# 5 0.000000 0.000000 0.000000 0.000000 -0.073759 0.000000
# 6 0.000000 0.000000 0.000000 0.000000 0.000000 0.020805
#
#
# Mechanical properties :
#
#
# Convention : Reuss Voigt Hill
#
# Bulk Modulus (GPa) = 37.84627 23.88705 30.86666
# Shear Modulus (GPa) = 6.87119 17.05135 11.96127
#
# Velocity S-wave (km/s) = 1.86711 2.94126 2.46344
# Velocity P-wave (km/s) = 4.88358 4.86351 4.87356
#
# Compressibility (1/GPa) = 0.02642268
#
# Stress axis : x y z
#
# Youngs Moduli (GPa) = -38.81970 178.61380 6.12332
#
# Poissons Ratio (x) = -0.57276 0.50483
# Poissons Ratio (y) = 0.12448 -0.12782
# Poissons Ratio (z) = -3.20043 -3.72835
#
# Static dielectric constant tensor:
#      x y z
#    x 1.732990 0.000000 0.000000 
#    y 0.000000 1.671180 0.000000 
#    z 0.000000 0.000000 1.761480 
# 
# From -- ./inp_files/4578.got.cif
#   From: 2010.05.17/outbox.ucp.g08.bks.cvg/sg40_3_cif.got.tgz:4578.got - 2010.06.11 16:26:39.
