data_PCOD9365367
_publ_section_title
;
Structure prediction by ZEFSAII (Michael W. Deem and Ramdas Pophale) SiO2 
 PCOD9365367
Probable space group: A M A 2
;
_chemical_formula_sum "Si O2"
_cell_formula_units_Z 56
_cell_length_a 7.869441
_cell_length_b 21.410384
_cell_length_c 14.493319
_cell_angle_alpha 90.000000
_cell_angle_beta 90.000000
_cell_angle_gamma 90.000000
_cell_volume 2441.946762
_symmetry_space_group_name_H-M "A M A 2"
_symmetry_group_IT_number 40
_symmetry_cell_setting 'orthorhombic'
loop_
_space_group_symop_operation_xyz
x,y,z
-x,-y,z
1/2-x,y,z
1/2+x,-y,z
x,1/2+y,1/2+z
-x,1/2-y,1/2+z
1/2-x,1/2+y,1/2+z
1/2+x,1/2-y,1/2+z
loop_
_atom_site_type_symbol
_atom_site_label
_atom_site_fract_x
_atom_site_fract_y
_atom_site_fract_z
Si Si1 0.551782 0.929838 0.196790
Si Si2 0.541717 0.251570 0.221936
Si Si3 0.044882 0.353596 0.865800
Si Si4 0.546837 0.569367 0.034039
Si Si5 0.554979 0.068693 0.931020
Si Si6 0.949725 0.894137 0.737118
Si Si7 0.559015 0.170727 0.058478
O O1 0.750000 0.919780 0.175566
O O2 0.513610 0.910303 0.300984
O O3 0.439900 0.884146 0.134842
O O4 0.500000 0.000000 0.180688
O O5 0.750000 0.248944 0.218814
O O6 0.487106 0.207751 0.308291
O O7 0.489275 0.322516 0.235005
O O8 0.480376 0.225379 0.122022
O O9 0.250000 0.350379 0.868122
O O10 0.985938 0.374107 0.967439
O O11 0.500000 0.500000 0.999065
O O12 0.750000 0.572859 0.038235
O O13 0.477391 0.577094 0.136924
O O14 0.750000 0.073907 0.957487
O O15 0.537772 0.071257 0.821382
O O16 0.500000 0.000000 0.963413
O O17 0.473804 0.132257 0.974329
O O18 0.750000 0.894744 0.758018
O O19 0.750000 0.191430 0.032190
#
# Coordination Sequence:
#
# PCOD9365367 Si02
#       7
#     8   8   8   8   8   8   8
#     4  11  20  30  49  79 114 149 185 228 278 336
#     4   8  17  37  61  86 116 151 186 223 280 343
#     4   9  19  37  59  82 112 148 185 230 283 338
#     4  11  23  39  60  85 114 149 192 240 287 336
#     4  11  23  39  60  85 114 149 192 240 287 336
#     4  11  23  39  60  83 114 154 193 235 281 337
#     4   9  19  37  59  82 112 148 185 230 283 338
#
# _framework density 22.932524000000001
#
# number of rings (size 3 to 8) (size 9 to 14) (size 15 to 20)
#    0.000    2.000    0.000    4.714    0.000    5.714 
#    0.000    5.714    0.000    0.000    0.000    0.000 
#    0.000    0.000    0.000    0.000    0.000    0.000 
#
# Total GULP energy -156260.907730 kJ/mol
# GULP energy per Si atom -5580.746705 kJ/mol
# Density = 2.288033 g / cm^3
# Si number density = 22.932524 Si / 1000 Ang^3
#
#
#
# Elastic Constant Matrix: (Units=GPa)
#
#
# Indices 1 2 3 4 5 6 
#
# 1 27.4780 -4.5747 4.6669 0.0000 0.0000 0.0000
# 2 -4.5747 94.6634 8.5841 0.0000 0.0000 0.0000
# 3 4.6669 8.5841 97.5286 0.0000 0.0000 0.0000
# 4 0.0000 0.0000 0.0000 32.7189 0.0000 0.0000
# 5 0.0000 0.0000 0.0000 0.0000 -4.0506 0.0000
# 6 0.0000 0.0000 0.0000 0.0000 0.0000 11.5898
#
#
#
# Elastic Compliance Matrix: (Units=1/GPa)
#
#
# Indices 1 2 3 4 5 6 
#
# 1 0.037051 0.001967 -0.001946 0.000000 0.000000 0.000000
# 2 0.001967 0.010753 -0.001041 0.000000 0.000000 0.000000
# 3 -0.001946 -0.001041 0.010438 0.000000 0.000000 0.000000
# 4 0.000000 0.000000 0.000000 0.030563 0.000000 0.000000
# 5 0.000000 0.000000 0.000000 0.000000 -0.246876 0.000000
# 6 0.000000 0.000000 0.000000 0.000000 0.000000 0.086283
#
#
# Mechanical properties :
#
#
# Convention : Reuss Voigt Hill
#
# Bulk Modulus (GPa) = 17.79276 26.33585 22.06431
# Shear Modulus (GPa) = -98.01176 22.11787 -37.94695
#
# Velocity S-wave (km/s) = -6.54461 3.10897 -4.07224
# Velocity P-wave (km/s) = 7.02380 4.93929 3.53109
#
# Compressibility (1/GPa) = 0.05620263
#
# Stress axis : x y z
#
# Youngs Moduli (GPa) = 26.99006 92.99594 95.80278
#
# Poissons Ratio (x) = -0.18292 0.18644
# Poissons Ratio (y) = -0.05309 0.09969
# Poissons Ratio (z) = 0.05252 0.09677
#
# Static dielectric constant tensor:
#      x y z
#    x 1.860750 0.000000 0.000000 
#    y 0.000000 1.860780 0.000000 
#    z 0.000000 0.000000 1.904430 
# 
# From -- ./inp_files/15345.got.cif
#   From: 2010.05.17/outbox.cif.g08.bks.cpg/sg40_8_cif.got.tgz:15345.got - 2010.06.03 18:35:42.
