data_PCOD9365658
_publ_section_title
;
Structure prediction by ZEFSAII (Michael W. Deem and Ramdas Pophale) SiO2 
 PCOD9365658
Probable space group: A M A 2
;
_chemical_formula_sum "Si O2"
_cell_formula_units_Z 20
_cell_length_a 9.000000
_cell_length_b 9.000000
_cell_length_c 27.000000
_cell_angle_alpha 90.000000
_cell_angle_beta 90.000000
_cell_angle_gamma 90.000000
_cell_volume 2187.000000
_symmetry_space_group_name_H-M "A M A 2"
_symmetry_group_IT_number 40
_symmetry_cell_setting 'orthorhombic'
loop_
_space_group_symop_operation_xyz
x,y,z
-x,-y,z
1/2-x,y,z
1/2+x,-y,z
x,1/2+y,1/2+z
-x,1/2-y,1/2+z
1/2-x,1/2+y,1/2+z
1/2+x,1/2-y,1/2+z
loop_
_atom_site_type_symbol
_atom_site_label
_atom_site_fract_x
_atom_site_fract_y
_atom_site_fract_z
Si Si1 0.428065 0.161775 0.639520
Si Si2 0.571765 0.163246 0.451917
Si Si3 0.428923 0.661562 0.247507
Si Si4 0.571329 0.660378 0.541775
Si Si5 0.427942 0.839141 0.342922
O O1 0.250000 0.144784 0.638107
O O2 0.466886 0.228104 0.693513
O O3 0.472258 0.258057 0.592646
O O4 0.500000 0.000000 0.635830
O O5 0.750000 0.154518 0.458548
O O6 0.495643 0.253742 0.495233
O O7 0.540885 0.228722 0.397077
O O8 0.500000 0.000000 0.452714
O O9 0.500000 0.500000 0.248522
O O10 0.250000 0.649832 0.250171
O O11 0.481610 0.749609 0.295421
O O12 0.500000 0.500000 0.542236
O O13 0.750000 0.654978 0.538672
O O14 0.250000 0.854401 0.339540
O O15 0.500000 0.000000 0.341883
#
# Coordination Sequence:
#
# PCOD9365658 Si02
#       5
#     8   8   8   8   8
#     4   9  19  35  55  76 101 134 172 210 253 305
#     4  10  20  36  56  78 104 138 176 214 256 308
#     4   9  18  34  53  76 104 134 169 210 253 302
#     4  11  23  37  53  77 106 137 172 215 263 310
#     4   9  19  34  53  77 105 135 170 209 252 301
#
# _framework density 9.1449470000000002
#
# number of rings (size 3 to 8) (size 9 to 14) (size 15 to 20)
#    0.000    2.400    0.000    1.800    0.000    6.400 
#    0.000    2.000    0.000    0.000    0.000    0.000 
#    0.000    0.000    0.000    0.000    0.000    0.000 
#
# Total GULP energy -111475.733478 kJ/mol
# GULP energy per Si atom -5573.786674 kJ/mol
# Density = 0.912413 g / cm^3
# Si number density = 9.144947 Si / 1000 Ang^3
#
#
#
# Elastic Constant Matrix: (Units=GPa)
#
#
# Indices 1 2 3 4 5 6 
#
# 1 25.3917 22.9153 58.5365 0.0000 0.0000 0.0000
# 2 22.9153 68.7887 97.5163 0.0000 0.0000 0.0000
# 3 58.5365 97.5163 226.3968 0.0000 0.0000 0.0000
# 4 0.0000 0.0000 0.0000 29.6225 0.0000 0.0000
# 5 0.0000 0.0000 0.0000 0.0000 24.6859 0.0000
# 6 0.0000 0.0000 0.0000 0.0000 0.0000 27.4963
#
#
#
# Elastic Compliance Matrix: (Units=1/GPa)
#
#
# Indices 1 2 3 4 5 6 
#
# 1 0.099409 0.008530 -0.029377 0.000000 0.000000 0.000000
# 2 0.008530 0.038066 -0.018602 0.000000 0.000000 0.000000
# 3 -0.029377 -0.018602 0.020025 0.000000 0.000000 0.000000
# 4 0.000000 0.000000 0.000000 0.033758 0.000000 0.000000
# 5 0.000000 0.000000 0.000000 0.000000 0.040509 0.000000
# 6 0.000000 0.000000 0.000000 0.000000 0.000000 0.036369
#
#
# Mechanical properties :
#
#
# Convention : Reuss Voigt Hill
#
# Bulk Modulus (GPa) = 12.72230 75.39037 44.05634
# Shear Modulus (GPa) = 13.39642 25.80153 19.59897
#
# Velocity S-wave (km/s) = 2.70932 3.76000 3.27704
# Velocity P-wave (km/s) = 4.09368 7.75624 6.20151
#
# Compressibility (1/GPa) = 0.07860215
#
# Stress axis : x y z
#
# Youngs Moduli (GPa) = 10.05943 26.27033 49.93780
#
# Poissons Ratio (x) = -0.22408 1.46702
# Poissons Ratio (y) = -0.08580 0.92892
# Poissons Ratio (z) = 0.29552 0.48867
#
# Static dielectric constant tensor:
#      x y z
#    x 1.605930 0.000000 0.000000 
#    y 0.000000 1.561760 0.000000 
#    z 0.000000 0.000000 1.681390 
# 
# From -- ./inp_files/23805.got.cif
#   From: 2010.05.17/outbox.ucp.g08.bks.cvg/sg40_12_cif.got.tgz:23805.got - 2010.06.11 16:26:39.
