data_PCOD9365171
_publ_section_title
;
Structure prediction by ZEFSAII (Michael W. Deem and Ramdas Pophale) SiO2 
 PCOD9365171
Probable space group: A M A 2
;
_chemical_formula_sum "Si O2"
_cell_formula_units_Z 64
_cell_length_a 30.464462
_cell_length_b 10.052336
_cell_length_c 9.898202
_cell_angle_alpha 90.000000
_cell_angle_beta 90.000000
_cell_angle_gamma 90.000000
_cell_volume 3031.215562
_symmetry_space_group_name_H-M "A M A 2"
_symmetry_group_IT_number 40
_symmetry_cell_setting 'orthorhombic'
loop_
_space_group_symop_operation_xyz
x,y,z
-x,-y,z
1/2-x,y,z
1/2+x,-y,z
x,1/2+y,1/2+z
-x,1/2-y,1/2+z
1/2-x,1/2+y,1/2+z
1/2+x,1/2-y,1/2+z
loop_
_atom_site_type_symbol
_atom_site_label
_atom_site_fract_x
_atom_site_fract_y
_atom_site_fract_z
Si Si1 0.824600 0.402671 0.107800
Si Si2 0.642029 0.180117 0.710765
Si Si3 0.396974 0.264936 0.945858
Si Si4 0.950734 0.483069 0.526654
Si Si5 0.200490 0.085756 0.291579
Si Si6 0.550039 0.984406 0.340240
Si Si7 0.899805 0.745903 0.485888
Si Si8 0.201242 0.785580 0.330457
O O1 0.831710 0.550663 0.163008
O O2 0.869159 0.315383 0.096701
O O3 0.796288 0.323962 0.214773
O O4 0.807993 0.405756 0.953403
O O5 0.603006 0.189882 0.603060
O O6 0.668546 0.318812 0.709967
O O7 0.627753 0.174836 0.866109
O O8 0.421736 0.123408 0.943618
O O9 0.422132 0.380028 0.863299
O O10 0.344733 0.260157 0.909277
O O11 0.952468 0.441541 0.683743
O O12 0.930438 0.629466 0.535429
O O13 0.000000 0.500000 0.471968
O O14 0.250000 0.127531 0.264037
O O15 0.195228 0.930297 0.261997
O O16 0.574303 0.867356 0.418985
O O17 0.500000 0.000000 0.388701
O O18 0.250000 0.790219 0.400410
#
# Coordination Sequence:
#
# PCOD9365171 Si02
#       8
#     8   8   8   8   8   8   8   8
#     4  11  22  41  65  90 125 168 215 270 323 380
#     4  11  22  39  65  91 122 172 212 258 330 386
#     4  12  22  43  68  92 135 172 213 273 325 388
#     4  11  25  42  66  96 130 171 217 271 331 395
#     4  10  23  41  61  89 127 166 213 269 318 378
#     4  11  23  42  66  95 130 170 217 267 329 394
#     4  11  22  40  63  91 126 165 214 263 326 389
#     4  11  24  42  67  96 128 174 223 269 327 388
#
# _framework density 21.113641999999999
#
# number of rings (size 3 to 8) (size 9 to 14) (size 15 to 20)
#    0.000    1.000    3.750    3.375    1.750    1.500 
#    0.000    0.625    0.000    0.000    0.000    0.000 
#    0.000    0.000    0.000    0.000    0.000    0.000 
#
# Total GULP energy -178634.152069 kJ/mol
# GULP energy per Si atom -5582.317252 kJ/mol
# Density = 2.106559 g / cm^3
# Si number density = 21.113642 Si / 1000 Ang^3
#
#
#
# Elastic Constant Matrix: (Units=GPa)
#
#
# Indices 1 2 3 4 5 6 
#
# 1 114.4232 25.4395 6.0520 0.0000 0.0000 0.0000
# 2 25.4395 89.6786 8.0561 0.0000 0.0000 0.0000
# 3 6.0520 8.0561 40.3614 0.0000 0.0000 0.0000
# 4 0.0000 0.0000 0.0000 27.3984 0.0000 0.0000
# 5 0.0000 0.0000 0.0000 0.0000 22.1151 0.0000
# 6 0.0000 0.0000 0.0000 0.0000 0.0000 16.0962
#
#
#
# Elastic Compliance Matrix: (Units=1/GPa)
#
#
# Indices 1 2 3 4 5 6 
#
# 1 0.009359 -0.002575 -0.000889 0.000000 0.000000 0.000000
# 2 -0.002575 0.012063 -0.002022 0.000000 0.000000 0.000000
# 3 -0.000889 -0.002022 0.025313 0.000000 0.000000 0.000000
# 4 0.000000 0.000000 0.000000 0.036498 0.000000 0.000000
# 5 0.000000 0.000000 0.000000 0.000000 0.045218 0.000000
# 6 0.000000 0.000000 0.000000 0.000000 0.000000 0.062126
#
#
# Mechanical properties :
#
#
# Convention : Reuss Voigt Hill
#
# Bulk Modulus (GPa) = 27.96184 35.95090 31.95637
# Shear Modulus (GPa) = 23.42239 26.78299 25.10269
#
# Velocity S-wave (km/s) = 3.33430 3.56549 3.45183
# Velocity P-wave (km/s) = 5.30054 5.83220 5.57271
#
# Compressibility (1/GPa) = 0.03576302
#
# Stress axis : x y z
#
# Youngs Moduli (GPa) = 106.84876 82.89804 39.50533
#
# Poissons Ratio (x) = 0.21346 0.03513
# Poissons Ratio (y) = 0.27514 0.07987
# Poissons Ratio (z) = 0.09503 0.16759
#
# Static dielectric constant tensor:
#      x y z
#    x 1.906230 0.000000 0.000000 
#    y 0.000000 1.729430 0.000000 
#    z 0.000000 0.000000 1.763870 
# 
# From -- ./inp_files/14399.got.cif
#   From: 2010.05.17/outbox.cif.g08.bks.cpg/sg40_8_cif.got.tgz:14399.got - 2010.06.03 18:35:42.
