data_PCOD9365627
_publ_section_title
;
Structure prediction by ZEFSAII (Michael W. Deem and Ramdas Pophale) SiO2 
 PCOD9365627
Probable space group: A M A 2
;
_chemical_formula_sum "Si O2"
_cell_formula_units_Z 32
_cell_length_a 9.000000
_cell_length_b 15.000000
_cell_length_c 30.000000
_cell_angle_alpha 90.000000
_cell_angle_beta 90.000000
_cell_angle_gamma 90.000000
_cell_volume 4050.000000
_symmetry_space_group_name_H-M "A M A 2"
_symmetry_group_IT_number 40
_symmetry_cell_setting 'orthorhombic'
loop_
_space_group_symop_operation_xyz
x,y,z
-x,-y,z
1/2-x,y,z
1/2+x,-y,z
x,1/2+y,1/2+z
-x,1/2-y,1/2+z
1/2-x,1/2+y,1/2+z
1/2+x,1/2-y,1/2+z
loop_
_atom_site_type_symbol
_atom_site_label
_atom_site_fract_x
_atom_site_fract_y
_atom_site_fract_z
Si Si1 0.929551 0.900837 0.208800
Si Si2 0.430203 0.599572 0.815109
Si Si3 0.429667 0.598167 0.977337
Si Si4 0.929925 0.214001 0.397135
Si Si5 0.070330 0.098601 0.943579
Si Si6 0.071233 0.098198 0.581704
Si Si7 0.929366 0.096952 0.039895
Si Si8 0.429375 0.783613 0.128014
O O1 0.750000 0.905171 0.203818
O O2 0.959472 0.878578 0.261929
O O3 0.994812 0.831466 0.171395
O O4 0.000000 0.000000 0.201173
O O5 0.500000 0.500000 0.822761
O O6 0.250000 0.596336 0.820668
O O7 0.499088 0.669011 0.851936
O O8 0.500000 0.500000 0.971044
O O9 0.250000 0.596604 0.971981
O O10 0.502518 0.661278 0.939894
O O11 0.461252 0.622747 0.029476
O O12 0.750000 0.203131 0.395273
O O13 0.959285 0.319728 0.408659
O O14 0.250000 0.089465 0.947411
O O15 0.000000 0.000000 0.932850
O O16 0.001407 0.124584 0.992215
O O17 0.250000 0.089081 0.584784
O O18 0.028064 0.180859 0.614464
O O19 0.000000 0.000000 0.590467
O O20 0.750000 0.091652 0.034616
O O21 0.960006 0.159623 0.082640
O O22 0.000000 0.000000 0.049319
O O23 0.250000 0.785135 0.134947
#
# Coordination Sequence:
#
# PCOD9365627 Si02
#       8
#     8   8   8   8   8   8   8   8
#     4  10  21  36  55  79 104 131 163 200 247 300
#     4  10  21  37  56  78 104 132 162 200 247 299
#     4  10  19  32  50  73 104 138 170 206 247 293
#     4  11  22  34  51  76 102 131 169 208 249 298
#     4  10  21  35  51  72 100 134 171 210 250 292
#     4   9  19  34  50  71 100 135 173 210 249 291
#     4  10  19  31  48  72 103 136 169 204 245 295
#     4  10  20  33  51  75 102 133 169 208 250 296
#
# _framework density 7.9012349999999998
#
# number of rings (size 3 to 8) (size 9 to 14) (size 15 to 20)
#    0.000    2.000    0.000    4.500    0.000    7.500 
#    0.000    0.000    0.000    0.750    0.000    0.000 
#    0.000    0.000    0.000    0.000    0.000    0.000 
#
# Total GULP energy -178407.933476 kJ/mol
# GULP energy per Si atom -5575.247921 kJ/mol
# Density = 0.788325 g / cm^3
# Si number density = 7.901235 Si / 1000 Ang^3
#
#
#
# Elastic Constant Matrix: (Units=GPa)
#
#
# Indices 1 2 3 4 5 6 
#
# 1 95.4193 48.3881 50.7516 0.0000 0.0000 0.0000
# 2 48.3881 127.5221 80.8030 0.0000 0.0000 0.0000
# 3 50.7516 80.8030 126.0544 0.0000 0.0000 0.0000
# 4 0.0000 0.0000 0.0000 39.4314 0.0000 0.0000
# 5 0.0000 0.0000 0.0000 0.0000 33.7055 0.0000
# 6 0.0000 0.0000 0.0000 0.0000 0.0000 30.4779
#
#
#
# Elastic Compliance Matrix: (Units=1/GPa)
#
#
# Indices 1 2 3 4 5 6 
#
# 1 0.013954 -0.002922 -0.003745 0.000000 0.000000 0.000000
# 2 -0.002922 0.013817 -0.007681 0.000000 0.000000 0.000000
# 3 -0.003745 -0.007681 0.014364 0.000000 0.000000 0.000000
# 4 0.000000 0.000000 0.000000 0.025360 0.000000 0.000000
# 5 0.000000 0.000000 0.000000 0.000000 0.029669 0.000000
# 6 0.000000 0.000000 0.000000 0.000000 0.000000 0.032811
#
#
# Mechanical properties :
#
#
# Convention : Reuss Voigt Hill
#
# Bulk Modulus (GPa) = 74.40366 78.76458 76.58412
# Shear Modulus (GPa) = 30.64659 31.99319 31.31989
#
# Velocity S-wave (km/s) = 4.40859 4.50440 4.45675
# Velocity P-wave (km/s) = 8.54985 8.77521 8.66326
#
# Compressibility (1/GPa) = 0.01344020
#
# Stress axis : x y z
#
# Youngs Moduli (GPa) = 71.66602 72.37340 69.61631
#
# Poissons Ratio (x) = 0.21145 0.26072
# Poissons Ratio (y) = 0.20938 0.53471
# Poissons Ratio (z) = 0.26840 0.55588
#
# Static dielectric constant tensor:
#      x y z
#    x 1.534590 0.000000 0.000000 
#    y 0.000000 1.541680 0.000000 
#    z 0.000000 0.000000 1.530360 
# 
# From -- ./inp_files/26383.got.cif
#   From: 2010.05.17/outbox.ucp.g08.bks.cvg/sg40_14_cif.got.tgz:26383.got - 2010.06.11 16:26:39.
