data_PCOD9365556
_publ_section_title
;
Structure prediction by ZEFSAII (Michael W. Deem and Ramdas Pophale) SiO2 
 PCOD9365556
Probable space group: A M A 2
;
_chemical_formula_sum "Si O2"
_cell_formula_units_Z 24
_cell_length_a 13.854479
_cell_length_b 13.796942
_cell_length_c 5.006368
_cell_angle_alpha 90.000000
_cell_angle_beta 90.000000
_cell_angle_gamma 90.000000
_cell_volume 956.964456
_symmetry_space_group_name_H-M "A M A 2"
_symmetry_group_IT_number 40
_symmetry_cell_setting 'orthorhombic'
loop_
_space_group_symop_operation_xyz
x,y,z
-x,-y,z
1/2-x,y,z
1/2+x,-y,z
x,1/2+y,1/2+z
-x,1/2-y,1/2+z
1/2-x,1/2+y,1/2+z
1/2+x,1/2-y,1/2+z
loop_
_atom_site_type_symbol
_atom_site_label
_atom_site_fract_x
_atom_site_fract_y
_atom_site_fract_z
Si Si1 0.941173 0.856187 0.532830
Si Si2 0.637267 0.461408 0.520846
Si Si3 0.639965 0.167675 0.305051
O O1 0.909738 0.891753 0.241630
O O2 0.883870 0.761572 0.628487
O O3 0.055206 0.835671 0.523948
O O4 0.911526 0.939261 0.740223
O O5 0.750000 0.438288 0.496082
O O6 0.629650 0.570344 0.629405
O O7 0.750000 0.170919 0.408385
#
# Coordination Sequence:
#
# PCOD9365556 Si02
#       3
#     8   8   8
#     4  12  26  48  77 111 150 193 246 306 364 434
#     4  11  26  49  77 109 148 193 244 303 368 439
#     4  11  27  49  76 110 148 196 248 301 367 437
#
# _framework density 25.0793
#
# number of rings (size 3 to 8) (size 9 to 14) (size 15 to 20)
#    0.000    0.667    0.000    6.000    0.000   13.333 
#    0.000   21.667    0.000    4.000    0.000    0.000 
#    0.000    0.000    0.000    0.000    0.000    0.000 
#
# Total GULP energy -67421.317264 kJ/mol
# GULP energy per Si atom -5618.443105 kJ/mol
# Density = 2.502222 g / cm^3
# Si number density = 25.079300 Si / 1000 Ang^3
#
#
#
# Elastic Constant Matrix: (Units=GPa)
#
#
# Indices 1 2 3 4 5 6 
#
# 1 231.5978 30.1563 28.5736 0.0000 0.0000 0.0000
# 2 30.1563 104.4108 -30.3606 0.0000 0.0000 0.0000
# 3 28.5736 -30.3606 54.3839 0.0000 0.0000 0.0000
# 4 0.0000 0.0000 0.0000 -137.8733 0.0000 0.0000
# 5 0.0000 0.0000 0.0000 0.0000 44.3564 0.0000
# 6 0.0000 0.0000 0.0000 0.0000 0.0000 44.2314
#
#
#
# Elastic Compliance Matrix: (Units=1/GPa)
#
#
# Indices 1 2 3 4 5 6 
#
# 1 0.005201 -0.002742 -0.004263 0.000000 0.000000 0.000000
# 2 -0.002742 0.012879 0.008630 0.000000 0.000000 0.000000
# 3 -0.004263 0.008630 0.025446 0.000000 0.000000 0.000000
# 4 0.000000 0.000000 0.000000 -0.007253 0.000000 0.000000
# 5 0.000000 0.000000 0.000000 0.000000 0.022545 0.000000
# 6 0.000000 0.000000 0.000000 0.000000 0.000000 0.022608
#
#
# Mechanical properties :
#
#
# Convention : Reuss Voigt Hill
#
# Bulk Modulus (GPa) = 21.37824 49.68123 35.52974
# Shear Modulus (GPa) = 53.32385 14.27779 33.80082
#
# Velocity S-wave (km/s) = 4.61609 2.38860 3.67516
# Velocity P-wave (km/s) = 6.07896 5.24022 5.67511
#
# Compressibility (1/GPa) = 0.04677653
#
# Stress axis : x y z
#
# Youngs Moduli (GPa) = 192.27799 77.64580 39.29934
#
# Poissons Ratio (x) = 0.21289 0.16754
# Poissons Ratio (y) = 0.52718 -0.33917
# Poissons Ratio (z) = 0.81971 -0.67012
#
# Static dielectric constant tensor:
#      x y z
#    x 1.968670 0.000000 0.000000 
#    y 0.000000 1.987170 0.000000 
#    z 0.000000 0.000000 1.901920 
# 
# From -- ./inp_files/957.got.cif
#   From: 2010.05.17/outbox.cif.g08.bks.cpg/sg40_1_cif.got.tgz:957.got - 2010.06.03 18:35:42.
