data_PCOD9365152
_publ_section_title
;
Structure prediction by ZEFSAII (Michael W. Deem and Ramdas Pophale) SiO2 
 PCOD9365152
Probable space group: A M A 2
;
_chemical_formula_sum "Si O2"
_cell_formula_units_Z 60
_cell_length_a 24.977901
_cell_length_b 19.181097
_cell_length_c 5.073908
_cell_angle_alpha 90.000000
_cell_angle_beta 90.000000
_cell_angle_gamma 90.000000
_cell_volume 2430.927294
_symmetry_space_group_name_H-M "A M A 2"
_symmetry_group_IT_number 40
_symmetry_cell_setting 'orthorhombic'
loop_
_space_group_symop_operation_xyz
x,y,z
-x,-y,z
1/2-x,y,z
1/2+x,-y,z
x,1/2+y,1/2+z
-x,1/2-y,1/2+z
1/2-x,1/2+y,1/2+z
1/2+x,1/2-y,1/2+z
loop_
_atom_site_type_symbol
_atom_site_label
_atom_site_fract_x
_atom_site_fract_y
_atom_site_fract_z
Si Si1 0.750000 0.941732 0.642340
Si Si2 0.643461 0.998869 0.881601
Si Si3 0.512786 0.206983 0.879721
Si Si4 0.948130 0.023212 0.264050
Si Si5 0.069636 0.605452 0.123736
Si Si6 0.689207 0.740330 0.881311
Si Si7 0.832257 0.833394 0.380157
Si Si8 0.898874 0.133802 0.576052
O O1 0.703862 0.979763 0.825973
O O2 0.796866 0.900639 0.462614
O O3 0.612983 0.927736 0.814786
O O4 0.628680 0.066217 0.705046
O O5 0.612000 0.017142 0.148376
O O6 0.496798 0.267939 0.674268
O O7 0.471901 0.147050 0.795662
O O8 0.571081 0.178762 0.799807
O O9 0.944286 0.100354 0.385549
O O10 0.952898 0.961574 0.475474
O O11 0.000000 0.000000 0.087205
O O12 0.104802 0.651261 0.921489
O O13 0.750000 0.713150 0.910162
O O14 0.682956 0.774541 0.595280
O O15 0.644551 0.682266 0.935311
O O16 0.681438 0.802229 0.095440
#
# Coordination Sequence:
#
# PCOD9365152 Si02
#       8
#     4   8   8   8   8   8   8   8
#     4  10  22  50  68 110 144 188 264 292 372 424
#     4  10  26  43  74 101 143 195 241 316 355 434
#     4  12  27  44  71 105 142 189 232 299 357 437
#     4  11  24  45  73 103 144 197 238 309 371 438
#     4  10  24  42  68 102 139 183 241 293 361 426
#     4  12  25  45  72 103 145 193 232 299 359 430
#     4  11  24  45  75 104 141 188 242 296 357 428
#     4  11  27  45  67 106 145 185 250 291 375 439
#
# _framework density 24.681940999999998
#
# number of rings (size 3 to 8) (size 9 to 14) (size 15 to 20)
#    0.000    1.067    2.667    1.600   12.133    0.000 
#    3.600    0.000    0.000    0.000    0.000    0.000 
#    0.000    0.000    0.000    0.000    0.000    0.000 
#
# Total GULP energy -167313.667045 kJ/mol
# GULP energy per Si atom -5577.122235 kJ/mol
# Density = 2.462576 g / cm^3
# Si number density = 24.681941 Si / 1000 Ang^3
#
#
#
# Elastic Constant Matrix: (Units=GPa)
#
#
# Indices 1 2 3 4 5 6 
#
# 1 132.0871 62.8276 14.4157 0.0000 0.0000 0.0000
# 2 62.8276 109.1544 31.5278 0.0000 0.0000 0.0000
# 3 14.4157 31.5278 58.4602 0.0000 0.0000 0.0000
# 4 0.0000 0.0000 0.0000 35.1345 0.0000 0.0000
# 5 0.0000 0.0000 0.0000 0.0000 -115.8646 0.0000
# 6 0.0000 0.0000 0.0000 0.0000 0.0000 22.6327
#
#
#
# Elastic Compliance Matrix: (Units=1/GPa)
#
#
# Indices 1 2 3 4 5 6 
#
# 1 0.010456 -0.006246 0.000790 0.000000 0.000000 0.000000
# 2 -0.006246 0.014583 -0.006325 0.000000 0.000000 0.000000
# 3 0.000790 -0.006325 0.020322 0.000000 0.000000 0.000000
# 4 0.000000 0.000000 0.000000 0.028462 0.000000 0.000000
# 5 0.000000 0.000000 0.000000 0.000000 -0.008631 0.000000
# 6 0.000000 0.000000 0.000000 0.000000 0.000000 0.044184
#
#
# Mechanical properties :
#
#
# Convention : Reuss Voigt Hill
#
# Bulk Modulus (GPa) = 45.87244 57.47156 51.67200
# Shear Modulus (GPa) = 35.66246 1.10924 18.38585
#
# Velocity S-wave (km/s) = 3.80528 0.67111 2.73227
# Velocity P-wave (km/s) = 6.15895 4.89244 5.56186
#
# Compressibility (1/GPa) = 0.02179958
#
# Stress axis : x y z
#
# Youngs Moduli (GPa) = 95.64243 68.57087 49.20863
#
# Poissons Ratio (x) = 0.42832 -0.03890
# Poissons Ratio (y) = 0.59742 0.31123
# Poissons Ratio (z) = -0.07560 0.43368
#
# Static dielectric constant tensor:
#      x y z
#    x 2.152610 0.000000 0.000000 
#    y 0.000000 1.957200 0.000000 
#    z 0.000000 0.000000 2.056790 
# 
# From -- ./inp_files/3183.got.cif
#   From: 2010.05.17/outbox.cif.g08.bks.cpg/sg40_2_cif.got.tgz:3183.got - 2010.06.03 18:35:42.
