data_PCOD9365144
_publ_section_title
;
Structure prediction by ZEFSAII (Michael W. Deem and Ramdas Pophale) SiO2 
 PCOD9365144
Probable space group: A M A 2
;
_chemical_formula_sum "Si O2"
_cell_formula_units_Z 56
_cell_length_a 15.552394
_cell_length_b 5.077564
_cell_length_c 28.260551
_cell_angle_alpha 90.000000
_cell_angle_beta 90.000000
_cell_angle_gamma 90.000000
_cell_volume 2231.686988
_symmetry_space_group_name_H-M "A M A 2"
_symmetry_group_IT_number 40
_symmetry_cell_setting 'orthorhombic'
loop_
_space_group_symop_operation_xyz
x,y,z
-x,-y,z
1/2-x,y,z
1/2+x,-y,z
x,1/2+y,1/2+z
-x,1/2-y,1/2+z
1/2-x,1/2+y,1/2+z
1/2+x,1/2-y,1/2+z
loop_
_atom_site_type_symbol
_atom_site_label
_atom_site_fract_x
_atom_site_fract_y
_atom_site_fract_z
Si Si1 0.098939 0.911667 0.497040
Si Si2 0.848693 0.592391 0.438670
Si Si3 0.250000 0.588178 0.716448
Si Si4 0.589981 0.089157 0.673056
Si Si5 0.415245 0.833266 0.833814
Si Si6 0.159778 0.826256 0.296102
Si Si7 0.846772 0.815752 0.583265
Si Si8 0.500000 0.000000 0.101629
O O1 0.147187 0.137806 0.467480
O O2 0.140582 0.933016 0.549250
O O3 0.110307 0.640048 0.469551
O O4 0.000000 0.000000 0.498506
O O5 0.750000 0.520075 0.428853
O O6 0.896132 0.639220 0.389159
O O7 0.328728 0.778726 0.698054
O O8 0.176093 0.393096 0.741733
O O9 0.548173 0.293738 0.635407
O O10 0.500000 0.000000 0.699335
O O11 0.632956 0.872561 0.638210
O O12 0.349121 0.018608 0.805237
O O13 0.500000 0.000000 0.823632
O O14 0.407493 0.532577 0.817546
O O15 0.250000 0.914368 0.320065
O O16 0.750000 0.713357 0.578448
O O17 0.926072 0.629634 0.570045
#
# Coordination Sequence:
#
# PCOD9365144 Si02
#       8
#     8   8   4   8   8   8   8   4
#     4  12  26  45  68 110 149 194 251 309 364 430
#     4  12  26  45  73 103 145 193 248 306 363 448
#     4  10  24  46  74 108 142 190 244 308 374 444
#     4  10  22  47  69 105 145 191 241 302 370 442
#     4  12  24  47  73 104 143 191 241 299 381 446
#     4  10  24  45  70 104 140 183 236 300 370 446
#     4  11  24  43  72 102 151 197 246 299 370 437
#     4  10  24  42  68 106 134 204 232 310 352 446
#
# _framework density 25.093128
#
# number of rings (size 3 to 8) (size 9 to 14) (size 15 to 20)
#    0.429    0.571    0.714    6.429    5.000    0.571 
#   12.857    0.000    0.000    0.000    0.000    0.000 
#    0.000    0.000    0.000    0.000    0.000    0.000 
#
# Total GULP energy -156047.238727 kJ/mol
# GULP energy per Si atom -5573.115669 kJ/mol
# Density = 2.503601 g / cm^3
# Si number density = 25.093128 Si / 1000 Ang^3
#
#
#
# Elastic Constant Matrix: (Units=GPa)
#
#
# Indices 1 2 3 4 5 6 
#
# 1 141.4567 0.4693 2.8259 0.0000 0.0000 0.0000
# 2 0.4693 94.9251 18.0543 0.0000 0.0000 0.0000
# 3 2.8259 18.0543 78.6504 0.0000 0.0000 0.0000
# 4 0.0000 0.0000 0.0000 8.7853 0.0000 0.0000
# 5 0.0000 0.0000 0.0000 0.0000 104.4847 0.0000
# 6 0.0000 0.0000 0.0000 0.0000 0.0000 26.5640
#
#
#
# Elastic Compliance Matrix: (Units=1/GPa)
#
#
# Indices 1 2 3 4 5 6 
#
# 1 0.007074 0.000014 -0.000257 0.000000 0.000000 0.000000
# 2 0.000014 0.011016 -0.002529 0.000000 0.000000 0.000000
# 3 -0.000257 -0.002529 0.013304 0.000000 0.000000 0.000000
# 4 0.000000 0.000000 0.000000 0.113827 0.000000 0.000000
# 5 0.000000 0.000000 0.000000 0.000000 0.009571 0.000000
# 6 0.000000 0.000000 0.000000 0.000000 0.000000 0.037645
#
#
# Mechanical properties :
#
#
# Convention : Reuss Voigt Hill
#
# Bulk Modulus (GPa) = 38.68597 39.74793 39.21695
# Shear Modulus (GPa) = 24.20156 47.54564 35.87360
#
# Velocity S-wave (km/s) = 3.10896 4.35762 3.78513
# Velocity P-wave (km/s) = 5.32334 6.41817 5.89622
#
# Compressibility (1/GPa) = 0.02584916
#
# Stress axis : x y z
#
# Youngs Moduli (GPa) = 141.35478 90.78052 75.16366
#
# Poissons Ratio (x) = -0.00127 0.01935
# Poissons Ratio (y) = -0.00198 0.19010
# Poissons Ratio (z) = 0.03638 0.22960
#
# Static dielectric constant tensor:
#      x y z
#    x 2.086850 0.000000 0.000000 
#    y 0.000000 1.993140 0.000000 
#    z 0.000000 0.000000 1.984740 
# 
# From -- ./inp_files/26626.got.cif
#   From: 2010.05.17/outbox.cif.g08.bks.cpg/sg40_14_cif.got.tgz:26626.got - 2010.06.03 18:35:42.
