data_PCOD9365602
_publ_section_title
;
Structure prediction by ZEFSAII (Michael W. Deem and Ramdas Pophale) SiO2 
 PCOD9365602
Probable space group: A M A 2
;
_chemical_formula_sum "Si O2"
_cell_formula_units_Z 56
_cell_length_a 11.415261
_cell_length_b 14.168781
_cell_length_c 13.561951
_cell_angle_alpha 90.000000
_cell_angle_beta 90.000000
_cell_angle_gamma 90.000000
_cell_volume 2193.514473
_symmetry_space_group_name_H-M "A M A 2"
_symmetry_group_IT_number 40
_symmetry_cell_setting 'orthorhombic'
loop_
_space_group_symop_operation_xyz
x,y,z
-x,-y,z
1/2-x,y,z
1/2+x,-y,z
x,1/2+y,1/2+z
-x,1/2-y,1/2+z
1/2-x,1/2+y,1/2+z
1/2+x,1/2-y,1/2+z
loop_
_atom_site_type_symbol
_atom_site_label
_atom_site_fract_x
_atom_site_fract_y
_atom_site_fract_z
Si Si1 0.625602 0.038268 0.242480
Si Si2 0.874748 0.712714 0.172275
Si Si3 0.375244 0.491011 0.068851
Si Si4 0.874675 0.746549 0.407469
Si Si5 0.123350 0.189795 0.679575
Si Si6 0.876271 0.043091 0.005469
Si Si7 0.375558 0.776874 0.373854
O O1 0.750000 0.987290 0.266087
O O2 0.622051 0.045063 0.124263
O O3 0.630813 0.137499 0.297288
O O4 0.500000 0.000000 0.273532
O O5 0.750000 0.755994 0.138861
O O6 0.874430 0.603706 0.135923
O O7 0.873750 0.726902 0.290075
O O8 0.006349 0.744250 0.144396
O O9 0.500000 0.500000 0.013772
O O10 0.250000 0.488309 0.013373
O O11 0.375692 0.584476 0.136540
O O12 0.750000 0.796464 0.430969
O O13 0.873123 0.647242 0.461665
O O14 0.002487 0.789669 0.429999
O O15 0.250000 0.232410 0.652757
O O16 0.117896 0.188353 0.798893
O O17 0.750000 0.996998 0.976987
O O18 0.000000 0.000000 0.972172
O O19 0.250000 0.774370 0.427367
#
# Coordination Sequence:
#
# PCOD9365602 Si02
#       7
#     8   8   8   8   8   8   8
#     4   9  18  33  50  67  90 123 162 200 238 283
#     4   8  13  20  29  44  70 103 134 162 195 239
#     4   8  12  17  25  38  60  91 123 151 182 225
#     4   9  17  27  40  62  91 120 151 190 234 278
#     4   8  13  20  30  46  68  95 127 163 204 246
#     4   9  18  31  46  66  95 131 166 196 229 277
#     4   9  17  28  43  63  87 115 149 192 237 280
#
# _framework density 25.529806000000001
#
# number of rings (size 3 to 8) (size 9 to 14) (size 15 to 20)
#    0.000    3.429    0.000    0.000    0.000    4.000 
#    0.000    4.286    0.000    0.000    0.000    0.000 
#    0.000    6.857    0.000   31.429    0.000   14.000 
#
# Total GULP energy -156032.334028 kJ/mol
# GULP energy per Si atom -5572.583358 kJ/mol
# Density = 2.547170 g / cm^3
# Si number density = 25.529806 Si / 1000 Ang^3
#
#
#
# Elastic Constant Matrix: (Units=GPa)
#
#
# Indices 1 2 3 4 5 6 
#
# 1 364.2544 28.4236 0.6287 0.0000 0.0000 0.0000
# 2 28.4236 40.2953 9.7190 0.0000 0.0000 0.0000
# 3 0.6287 9.7190 85.1956 0.0000 0.0000 0.0000
# 4 0.0000 0.0000 0.0000 27.7378 0.0000 0.0000
# 5 0.0000 0.0000 0.0000 0.0000 -43.9826 0.0000
# 6 0.0000 0.0000 0.0000 0.0000 0.0000 -29.9715
#
#
#
# Elastic Compliance Matrix: (Units=1/GPa)
#
#
# Indices 1 2 3 4 5 6 
#
# 1 0.002909 -0.002105 0.000219 0.000000 0.000000 0.000000
# 2 -0.002105 0.027042 -0.003069 0.000000 0.000000 0.000000
# 3 0.000219 -0.003069 0.012086 0.000000 0.000000 0.000000
# 4 0.000000 0.000000 0.000000 0.036052 0.000000 0.000000
# 5 0.000000 0.000000 0.000000 0.000000 -0.022736 0.000000
# 6 0.000000 0.000000 0.000000 0.000000 0.000000 -0.033365
#
#
# Mechanical properties :
#
#
# Convention : Reuss Voigt Hill
#
# Bulk Modulus (GPa) = 31.12729 63.03199 47.07964
# Shear Modulus (GPa) = 117.34969 20.82167 69.08568
#
# Velocity S-wave (km/s) = 6.78716 2.85894 5.20764
# Velocity P-wave (km/s) = 8.58136 5.97003 7.39192
#
# Compressibility (1/GPa) = 0.03212615
#
# Stress axis : x y z
#
# Youngs Moduli (GPa) = 343.73683 36.97975 82.73878
#
# Poissons Ratio (x) = 0.07784 -0.01809
# Poissons Ratio (y) = 0.72351 0.25396
# Poissons Ratio (z) = -0.07516 0.11350
#
# Static dielectric constant tensor:
#      x y z
#    x 2.163060 0.000000 0.000000 
#    y 0.000000 1.960740 0.000000 
#    z 0.000000 0.000000 1.950780 
# 
# From -- ./inp_files/20177.got.cif
#   From: 2010.05.17/outbox.cif.g08.bks.cpg/sg40_11_cif.got.tgz:20177.got - 2010.06.03 18:35:42.
