data_PCOD9365260
_publ_section_title
;
Structure prediction by ZEFSAII (Michael W. Deem and Ramdas Pophale) SiO2 
 PCOD9365260
Probable space group: A M A 2
;
_chemical_formula_sum "Si O2"
_cell_formula_units_Z 52
_cell_length_a 9.092616
_cell_length_b 21.203500
_cell_length_c 14.154859
_cell_angle_alpha 90.000000
_cell_angle_beta 90.000000
_cell_angle_gamma 90.000000
_cell_volume 2728.990052
_symmetry_space_group_name_H-M "A M A 2"
_symmetry_group_IT_number 40
_symmetry_cell_setting 'orthorhombic'
loop_
_space_group_symop_operation_xyz
x,y,z
-x,-y,z
1/2-x,y,z
1/2+x,-y,z
x,1/2+y,1/2+z
-x,1/2-y,1/2+z
1/2-x,1/2+y,1/2+z
1/2+x,1/2-y,1/2+z
loop_
_atom_site_type_symbol
_atom_site_label
_atom_site_fract_x
_atom_site_fract_y
_atom_site_fract_z
Si Si1 0.078228 0.643407 0.911730
Si Si2 0.425400 0.568070 0.107818
Si Si3 0.250000 0.019145 0.175110
Si Si4 0.426742 0.222781 0.923749
Si Si5 0.919900 0.719705 0.622688
Si Si6 0.072615 0.830934 0.739461
Si Si7 0.484469 0.910482 0.216917
O O1 0.250000 0.662939 0.904978
O O2 0.043977 0.598139 0.823544
O O3 0.975062 0.704482 0.906036
O O4 0.056712 0.607190 0.010249
O O5 0.500000 0.500000 0.097652
O O6 0.250000 0.562926 0.125811
O O7 0.507496 0.606942 0.189758
O O8 0.372066 0.966642 0.206687
O O9 0.377982 0.070946 0.153069
O O10 0.250000 0.217323 0.924957
O O11 0.499375 0.181262 0.841133
O O12 0.503588 0.206734 0.022803
O O13 0.750000 0.741271 0.610582
O O14 0.014487 0.772927 0.675367
O O15 0.921374 0.656170 0.683505
O O16 0.250000 0.831786 0.743949
#
# Coordination Sequence:
#
# PCOD9365260 Si02
#       7
#     8   8   4   8   8   8   8
#     4  11  23  38  62  99 135 175 216 265 326 394
#     4  11  25  43  67  96 137 179 225 274 333 400
#     4  10  24  40  60  92 130 178 216 260 322 402
#     4  12  26  41  67  98 132 171 219 276 335 391
#     4  12  24  42  67  98 130 171 220 274 333 389
#     4  12  25  44  68  97 132 173 223 277 332 391
#     4  11  23  40  64  92 134 173 217 264 326 389
#
# _framework density 19.054667999999999
#
# number of rings (size 3 to 8) (size 9 to 14) (size 15 to 20)
#    0.000    0.615    4.615    3.692    5.385    0.615 
#    0.000    0.000    3.385    0.000    0.000    0.000 
#    0.000    0.000    0.000    0.000    0.000    0.000 
#
# Total GULP energy -144751.124542 kJ/mol
# GULP energy per Si atom -5567.350944 kJ/mol
# Density = 1.901130 g / cm^3
# Si number density = 19.054668 Si / 1000 Ang^3
#
#
#
# Elastic Constant Matrix: (Units=GPa)
#
#
# Indices 1 2 3 4 5 6 
#
# 1 181.3711 12.8179 24.5332 0.0000 0.0000 0.0000
# 2 12.8179 48.5121 -9.3400 0.0000 0.0000 0.0000
# 3 24.5332 -9.3400 82.3384 0.0000 0.0000 0.0000
# 4 0.0000 0.0000 0.0000 14.6641 0.0000 0.0000
# 5 0.0000 0.0000 0.0000 0.0000 30.7070 0.0000
# 6 0.0000 0.0000 0.0000 0.0000 0.0000 83.8461
#
#
#
# Elastic Compliance Matrix: (Units=1/GPa)
#
#
# Indices 1 2 3 4 5 6 
#
# 1 0.005920 -0.001946 -0.001985 0.000000 0.000000 0.000000
# 2 -0.001946 0.021713 0.003043 0.000000 0.000000 0.000000
# 3 -0.001985 0.003043 0.013081 0.000000 0.000000 0.000000
# 4 0.000000 0.000000 0.000000 0.068194 0.000000 0.000000
# 5 0.000000 0.000000 0.000000 0.000000 0.032566 0.000000
# 6 0.000000 0.000000 0.000000 0.000000 0.000000 0.011927
#
#
# Mechanical properties :
#
#
# Convention : Reuss Voigt Hill
#
# Bulk Modulus (GPa) = 25.68121 40.91599 33.29860
# Shear Modulus (GPa) = 29.73433 44.79080 37.26257
#
# Velocity S-wave (km/s) = 3.95457 4.85361 4.42697
# Velocity P-wave (km/s) = 5.86160 7.27527 6.60636
#
# Compressibility (1/GPa) = 0.03893897
#
# Stress axis : x y z
#
# Youngs Moduli (GPa) = 168.93228 46.05435 76.44403
#
# Poissons Ratio (x) = 0.08963 0.15170
# Poissons Ratio (y) = 0.32877 -0.23261
# Poissons Ratio (z) = 0.33525 -0.14014
#
# Static dielectric constant tensor:
#      x y z
#    x 1.652770 0.000000 0.000000 
#    y 0.000000 1.654000 0.000000 
#    z 0.000000 0.000000 1.680360 
# 
# From -- ./inp_files/15213.got.cif
#   From: 2010.05.17/outbox.cif.g08.bks.cpg/sg40_8_cif.got.tgz:15213.got - 2010.06.03 18:35:42.
