data_PCOD9365257
_publ_section_title
;
Structure prediction by ZEFSAII (Michael W. Deem and Ramdas Pophale) SiO2 
 PCOD9365257
Probable space group: A M A 2
;
_chemical_formula_sum "Si O2"
_cell_formula_units_Z 24
_cell_length_a 11.064414
_cell_length_b 18.706902
_cell_length_c 5.055501
_cell_angle_alpha 90.000000
_cell_angle_beta 90.000000
_cell_angle_gamma 90.000000
_cell_volume 1046.392189
_symmetry_space_group_name_H-M "A M A 2"
_symmetry_group_IT_number 40
_symmetry_cell_setting 'orthorhombic'
loop_
_space_group_symop_operation_xyz
x,y,z
-x,-y,z
1/2-x,y,z
1/2+x,-y,z
x,1/2+y,1/2+z
-x,1/2-y,1/2+z
1/2-x,1/2+y,1/2+z
1/2+x,1/2-y,1/2+z
loop_
_atom_site_type_symbol
_atom_site_label
_atom_site_fract_x
_atom_site_fract_y
_atom_site_fract_z
Si Si1 0.250000 0.529502 0.350101
Si Si2 0.750000 0.367689 0.840657
Si Si3 0.610072 0.051640 0.485247
Si Si4 0.009901 0.205379 0.466901
O O1 0.250000 0.576059 0.606503
O O2 0.363473 0.478925 0.281360
O O3 0.250000 0.587652 0.112115
O O4 0.866266 0.319267 0.833886
O O5 0.750000 0.049958 0.371964
O O6 0.568509 0.133267 0.487238
O O7 0.500000 0.000000 0.382836
O O8 0.038413 0.237445 0.755084
#
# Coordination Sequence:
#
# PCOD9365257 Si02
#       4
#     4   4   8   8
#     4  10  24  44  76 104 140 187 256 307 368 430
#     4  12  24  48  72 106 152 195 244 317 378 432
#     4  10  23  49  75 110 143 197 253 314 367 445
#     4  12  28  46  73 108 154 198 248 306 380 449
#
# _framework density 22.935950999999999
#
# number of rings (size 3 to 8) (size 9 to 14) (size 15 to 20)
#    1.000    0.000    3.333    2.000    4.667    2.667 
#    0.000    0.000    0.000    0.000    0.000    0.000 
#    0.000    0.000    0.000    0.000    0.000    0.000 
#
# Total GULP energy -66922.697618 kJ/mol
# GULP energy per Si atom -5576.891468 kJ/mol
# Density = 2.288375 g / cm^3
# Si number density = 22.935951 Si / 1000 Ang^3
#
#
#
# Elastic Constant Matrix: (Units=GPa)
#
#
# Indices 1 2 3 4 5 6 
#
# 1 146.2908 40.6415 17.9716 0.0000 0.0000 0.0000
# 2 40.6415 124.2292 38.1599 0.0000 0.0000 0.0000
# 3 17.9716 38.1599 122.7609 0.0000 0.0000 0.0000
# 4 0.0000 0.0000 0.0000 40.2565 0.0000 0.0000
# 5 0.0000 0.0000 0.0000 0.0000 28.1943 0.0000
# 6 0.0000 0.0000 0.0000 0.0000 0.0000 -957.8400
#
#
#
# Elastic Compliance Matrix: (Units=1/GPa)
#
#
# Indices 1 2 3 4 5 6 
#
# 1 0.007534 -0.002351 -0.000372 0.000000 0.000000 0.000000
# 2 -0.002351 0.009633 -0.002650 0.000000 0.000000 0.000000
# 3 -0.000372 -0.002650 0.009024 0.000000 0.000000 0.000000
# 4 0.000000 0.000000 0.000000 0.024841 0.000000 0.000000
# 5 0.000000 0.000000 0.000000 0.000000 0.035468 0.000000
# 6 0.000000 0.000000 0.000000 0.000000 0.000000 -0.001044
#
#
# Mechanical properties :
#
#
# Convention : Reuss Voigt Hill
#
# Bulk Modulus (GPa) = 64.74487 65.20300 64.97393
# Shear Modulus (GPa) = 49.33365 -158.11064 -54.38850
#
# Velocity S-wave (km/s) = 4.64284 -8.31176 -4.87490
# Velocity P-wave (km/s) = 7.55190 7.97645 1.81558
#
# Compressibility (1/GPa) = 0.01544524
#
# Stress axis : x y z
#
# Youngs Moduli (GPa) = 132.72372 103.81341 110.81279
#
# Poissons Ratio (x) = 0.24401 0.04126
# Poissons Ratio (y) = 0.31197 0.29367
# Poissons Ratio (z) = 0.04942 0.27512
#
# Static dielectric constant tensor:
#      x y z
#    x 1.907330 0.000000 0.000000 
#    y 0.000000 1.888600 0.000000 
#    z 0.000000 0.000000 1.901660 
# 
# From -- ./inp_files/516.got.cif
#   From: 2010.05.17/outbox.cif.g08.bks.cpg/sg40_1_cif.got.tgz:516.got - 2010.06.03 18:35:42.
