data_PCOD9365725
_publ_section_title
;
Structure prediction by ZEFSAII (Michael W. Deem and Ramdas Pophale) SiO2 
 PCOD9365725
Probable space group: A B A 2
;
_chemical_formula_sum "Si O2"
_cell_formula_units_Z 56
_cell_length_a 15.289883
_cell_length_b 21.946182
_cell_length_c 8.650008
_cell_angle_alpha 90.000000
_cell_angle_beta 90.000000
_cell_angle_gamma 90.000000
_cell_volume 2902.549586
_symmetry_space_group_name_H-M "A B A 2"
_symmetry_group_IT_number 41
_symmetry_cell_setting 'orthorhombic'
loop_
_space_group_symop_operation_xyz
x,y,z
-x,-y,z
1/2-x,y,1/2+z
1/2+x,-y,1/2+z
x,1/2+y,1/2+z
-x,1/2-y,1/2+z
1/2-x,1/2+y,z
1/2+x,1/2-y,z
loop_
_atom_site_type_symbol
_atom_site_label
_atom_site_fract_x
_atom_site_fract_y
_atom_site_fract_z
Si Si1 0.554546 0.152512 0.226610
Si Si2 0.168179 0.846320 0.012524
Si Si3 0.743328 0.335893 0.377445
Si Si4 0.629045 0.890451 0.146881
Si Si5 0.688235 0.248554 0.110157
Si Si6 0.862862 0.027471 0.604571
Si Si7 0.703555 0.073626 0.792066
O O1 0.584635 0.164132 0.403796
O O2 0.452211 0.151844 0.193767
O O3 0.609950 0.200821 0.125893
O O4 0.586897 0.085112 0.176035
O O5 0.222041 0.788781 0.076936
O O6 0.151592 0.888325 0.162279
O O7 0.236396 0.880266 0.895144
O O8 0.673803 0.366940 0.490022
O O9 0.795392 0.383823 0.274493
O O10 0.698036 0.286558 0.266742
O O11 0.814489 0.298307 0.476378
O O12 0.600706 0.960549 0.133357
O O13 0.768767 0.031855 0.691397
O O14 0.851060 0.038641 0.421510
#
# Coordination Sequence:
#
# PCOD9365725 Si02
#       7
#     8   8   8   8   8   8   8
#     4  11  22  35  66  95 118 156 206 270 306 351
#     4  10  16  32  59  97 119 145 194 260 311 352
#     4  10  24  40  61  80 125 174 201 241 312 376
#     4  11  24  43  57  86 126 172 205 245 312 382
#     4  11  18  38  63  90 120 153 204 259 304 362
#     4  10  19  35  60  89 125 158 203 253 303 364
#     4   9  16  29  58  92 114 157 198 236 312 361
#
# _framework density 19.293382999999999
#
# number of rings (size 3 to 8) (size 9 to 14) (size 15 to 20)
#    0.000    1.714    5.714    1.286    0.000    1.143 
#    0.000    2.857    0.000    5.143    0.000    0.000 
#    0.000    0.000    0.000    0.000    0.000    0.000 
#
# Total GULP energy -156147.857314 kJ/mol
# GULP energy per Si atom -5576.709190 kJ/mol
# Density = 1.924947 g / cm^3
# Si number density = 19.293383 Si / 1000 Ang^3
#
#
#
# Elastic Constant Matrix: (Units=GPa)
#
#
# Indices 1 2 3 4 5 6 
#
# 1 53.7829 -0.5422 15.3570 0.0000 0.0000 0.0000
# 2 -0.5422 67.2985 18.2576 0.0000 0.0000 0.0000
# 3 15.3570 18.2576 101.1937 0.0000 0.0000 0.0000
# 4 0.0000 0.0000 0.0000 11.8048 0.0000 0.0000
# 5 0.0000 0.0000 0.0000 0.0000 18.0548 0.0000
# 6 0.0000 0.0000 0.0000 0.0000 0.0000 7.6767
#
#
#
# Elastic Compliance Matrix: (Units=1/GPa)
#
#
# Indices 1 2 3 4 5 6 
#
# 1 0.019500 0.001009 -0.003141 0.000000 0.000000 0.000000
# 2 0.001009 0.015676 -0.002982 0.000000 0.000000 0.000000
# 3 -0.003141 -0.002982 0.010897 0.000000 0.000000 0.000000
# 4 0.000000 0.000000 0.000000 0.084711 0.000000 0.000000
# 5 0.000000 0.000000 0.000000 0.000000 0.055387 0.000000
# 6 0.000000 0.000000 0.000000 0.000000 0.000000 0.130265
#
#
# Mechanical properties :
#
#
# Convention : Reuss Voigt Hill
#
# Bulk Modulus (GPa) = 27.89704 32.04665 29.97185
# Shear Modulus (GPa) = 14.76615 20.12078 17.44347
#
# Velocity S-wave (km/s) = 2.76949 3.23288 3.01012
# Velocity P-wave (km/s) = 4.97168 5.53006 5.25829
#
# Compressibility (1/GPa) = 0.03584610
#
# Stress axis : x y z
#
# Youngs Moduli (GPa) = 51.28092 63.79113 91.77082
#
# Poissons Ratio (x) = -0.06439 0.28829
# Poissons Ratio (y) = -0.05176 0.27362
# Poissons Ratio (z) = 0.16110 0.19019
#
# Static dielectric constant tensor:
#      x y z
#    x 1.672510 0.000000 0.000000 
#    y 0.000000 1.704460 0.000000 
#    z 0.000000 0.000000 1.685000 
# 
# From -- ./inp_files/3192.got.cif
#   From: 2010.05.17/outbox.cif.g08.bks.cpg/sg41_2_cif.got.tgz:3192.got - 2010.06.03 18:54:24.
