data_PCOD9365010
_publ_section_title
;
Structure prediction by ZEFSAII (Michael W. Deem and Ramdas Pophale) SiO2 
 PCOD9365010
Probable space group: A M A 2
;
_chemical_formula_sum "Si O2"
_cell_formula_units_Z 64
_cell_length_a 17.615954
_cell_length_b 12.361080
_cell_length_c 15.613049
_cell_angle_alpha 90.000000
_cell_angle_beta 90.000000
_cell_angle_gamma 90.000000
_cell_volume 3399.776029
_symmetry_space_group_name_H-M "A M A 2"
_symmetry_group_IT_number 40
_symmetry_cell_setting 'orthorhombic'
loop_
_space_group_symop_operation_xyz
x,y,z
-x,-y,z
1/2-x,y,z
1/2+x,-y,z
x,1/2+y,1/2+z
-x,1/2-y,1/2+z
1/2-x,1/2+y,1/2+z
1/2+x,1/2-y,1/2+z
loop_
_atom_site_type_symbol
_atom_site_label
_atom_site_fract_x
_atom_site_fract_y
_atom_site_fract_z
Si Si1 0.915938 0.130498 0.940320
Si Si2 0.595113 0.147523 0.224176
Si Si3 0.660762 0.281043 0.075068
Si Si4 0.837037 0.179298 0.403414
Si Si5 0.088931 0.613469 0.478311
Si Si6 0.340761 0.076739 0.161686
Si Si7 0.930284 0.317903 0.808236
Si Si8 0.415918 0.529160 0.975718
O O1 0.923974 0.200308 0.853237
O O2 0.998519 0.131469 0.986270
O O3 0.897058 0.003705 0.935208
O O4 0.857048 0.193240 0.000667
O O5 0.615831 0.241127 0.158010
O O6 0.651586 0.150412 0.304494
O O7 0.510728 0.161673 0.261618
O O8 0.612146 0.033629 0.178530
O O9 0.750000 0.285194 0.091874
O O10 0.629009 0.393810 0.039854
O O11 0.750000 0.192630 0.425771
O O12 0.880830 0.289519 0.421170
O O13 0.872893 0.081434 0.456554
O O14 0.130619 0.617523 0.569601
O O15 0.250000 0.058229 0.161540
O O16 0.365642 0.156467 0.238529
O O17 0.924349 0.403580 0.886619
O O18 0.500000 0.500000 0.006578
#
# Coordination Sequence:
#
# PCOD9365010 Si02
#       8
#     8   8   8   8   8   8   8   8
#     4  10  22  41  64  90 125 169 217 256 315 376
#     4  12  22  40  62  94 127 162 212 256 316 379
#     4  11  23  38  62  95 128 161 205 264 319 370
#     4  12  23  39  64  91 128 168 207 256 317 381
#     4  11  23  42  64  92 129 169 214 261 316 384
#     4  12  24  38  63  99 130 163 210 270 324 372
#     4  11  22  40  65  95 124 165 213 266 315 373
#     4  11  21  41  63  91 126 163 213 259 311 376
#
# _framework density 18.824769
#
# number of rings (size 3 to 8) (size 9 to 14) (size 15 to 20)
#    0.000    0.750    5.000    3.750    1.750    2.500 
#    0.000    2.500    0.000    0.000    0.000    0.000 
#    0.000    0.000    0.000    0.000    0.000    0.000 
#
# Total GULP energy -178867.656248 kJ/mol
# GULP energy per Si atom -5589.614258 kJ/mol
# Density = 1.878192 g / cm^3
# Si number density = 18.824769 Si / 1000 Ang^3
#
#
#
# Elastic Constant Matrix: (Units=GPa)
#
#
# Indices 1 2 3 4 5 6 
#
# 1 66.4057 10.6548 8.1114 0.0000 0.0000 0.0000
# 2 10.6548 75.9058 -8.8767 0.0000 0.0000 0.0000
# 3 8.1114 -8.8767 21.3802 0.0000 0.0000 0.0000
# 4 0.0000 0.0000 0.0000 26.8582 0.0000 0.0000
# 5 0.0000 0.0000 0.0000 0.0000 3.9064 0.0000
# 6 0.0000 0.0000 0.0000 0.0000 0.0000 -2.5222
#
#
#
# Elastic Compliance Matrix: (Units=1/GPa)
#
#
# Indices 1 2 3 4 5 6 
#
# 1 0.016500 -0.003204 -0.007590 0.000000 0.000000 0.000000
# 2 -0.003204 0.014469 0.007223 0.000000 0.000000 0.000000
# 3 -0.007590 0.007223 0.052651 0.000000 0.000000 0.000000
# 4 0.000000 0.000000 0.000000 0.037233 0.000000 0.000000
# 5 0.000000 0.000000 0.000000 0.000000 0.255989 0.000000
# 6 0.000000 0.000000 0.000000 0.000000 0.000000 -0.396483
#
#
# Mechanical properties :
#
#
# Convention : Reuss Voigt Hill
#
# Bulk Modulus (GPa) = 13.07586 20.38563 16.73074
# Shear Modulus (GPa) = 384.84666 15.90198 200.37432
#
# Velocity S-wave (km/s) = 14.31363 2.90959 10.32826
# Velocity P-wave (km/s) = 16.73722 4.70534 12.29380
#
# Compressibility (1/GPa) = 0.07647680
#
# Stress axis : x y z
#
# Youngs Moduli (GPa) = 60.60575 69.11536 18.99315
#
# Poissons Ratio (x) = 0.22143 0.14416
# Poissons Ratio (y) = 0.19416 -0.13718
# Poissons Ratio (z) = 0.46000 -0.49919
#
# Static dielectric constant tensor:
#      x y z
#    x 1.681050 0.000000 0.000000 
#    y 0.000000 1.646090 0.000000 
#    z 0.000000 0.000000 1.633490 
# 
# From -- ./inp_files/17834.got.cif
#   From: 2010.05.17/outbox.cif.g08.bks.cpg/sg40_9_cif.got.tgz:17834.got - 2010.06.03 18:35:42.
