data_PCOD9365248
_publ_section_title
;
Structure prediction by ZEFSAII (Michael W. Deem and Ramdas Pophale) SiO2 
 PCOD9365248
Probable space group: A M A 2
;
_chemical_formula_sum "Si O2"
_cell_formula_units_Z 28
_cell_length_a 14.683124
_cell_length_b 5.447320
_cell_length_c 14.199700
_cell_angle_alpha 90.000000
_cell_angle_beta 90.000000
_cell_angle_gamma 90.000000
_cell_volume 1135.744190
_symmetry_space_group_name_H-M "A M A 2"
_symmetry_group_IT_number 40
_symmetry_cell_setting 'orthorhombic'
loop_
_space_group_symop_operation_xyz
x,y,z
-x,-y,z
1/2-x,y,z
1/2+x,-y,z
x,1/2+y,1/2+z
-x,1/2-y,1/2+z
1/2-x,1/2+y,1/2+z
1/2+x,1/2-y,1/2+z
loop_
_atom_site_type_symbol
_atom_site_label
_atom_site_fract_x
_atom_site_fract_y
_atom_site_fract_z
Si Si1 0.250000 0.132901 0.309070
Si Si2 0.250000 0.397964 0.620989
Si Si3 0.550737 0.747059 0.367927
Si Si4 0.408191 0.086365 0.571614
Si Si5 0.750000 0.228559 0.475829
O O1 0.344922 0.256732 0.335391
O O2 0.250000 0.107055 0.197396
O O3 0.250000 0.873931 0.369325
O O4 0.341035 0.243765 0.634754
O O5 0.250000 0.493433 0.512928
O O6 0.500000 0.500000 0.340974
O O7 0.554793 0.762672 0.481792
O O8 0.500000 0.000000 0.337300
O O9 0.500000 0.000000 0.621011
O O10 0.340799 0.885769 0.524060
#
# Coordination Sequence:
#
# PCOD9365248 Si02
#       5
#     4   4   8   8   4
#     4  10  24  48  69 110 148 181 253 313 363 463
#     4  11  23  43  73 101 141 195 234 313 384 436
#     4  10  23  45  74 106 141 196 243 297 374 442
#     4   9  21  41  67 101 139 183 243 297 356 450
#     4   9  21  43  66  97 137 188 237 288 373 435
#
# _framework density 24.653441000000001
#
# number of rings (size 3 to 8) (size 9 to 14) (size 15 to 20)
#    0.000    2.286    0.000    0.857   12.000    1.143 
#   15.429    0.000    6.286    0.000    0.000    0.000 
#    0.000    0.000    0.000    0.000    0.000    0.000 
#
# Total GULP energy -78298.826177 kJ/mol
# GULP energy per Si atom -5592.773298 kJ/mol
# Density = 2.459733 g / cm^3
# Si number density = 24.653441 Si / 1000 Ang^3
#
#
#
# Elastic Constant Matrix: (Units=GPa)
#
#
# Indices 1 2 3 4 5 6 
#
# 1 240.9485 96.0058 35.1775 0.0000 0.0000 0.0000
# 2 96.0058 112.0567 19.6791 0.0000 0.0000 0.0000
# 3 35.1775 19.6791 72.6791 0.0000 0.0000 0.0000
# 4 0.0000 0.0000 0.0000 9.5568 0.0000 0.0000
# 5 0.0000 0.0000 0.0000 0.0000 5.1904 0.0000
# 6 0.0000 0.0000 0.0000 0.0000 0.0000 16.8156
#
#
#
# Elastic Compliance Matrix: (Units=1/GPa)
#
#
# Indices 1 2 3 4 5 6 
#
# 1 0.006500 -0.005267 -0.001720 0.000000 0.000000 0.000000
# 2 -0.005267 0.013637 -0.001143 0.000000 0.000000 0.000000
# 3 -0.001720 -0.001143 0.014901 0.000000 0.000000 0.000000
# 4 0.000000 0.000000 0.000000 0.104638 0.000000 0.000000
# 5 0.000000 0.000000 0.000000 0.000000 0.192663 0.000000
# 6 0.000000 0.000000 0.000000 0.000000 0.000000 0.059469
#
#
# Mechanical properties :
#
#
# Convention : Reuss Voigt Hill
#
# Bulk Modulus (GPa) = 53.25338 80.82323 67.03831
# Shear Modulus (GPa) = 12.06776 24.63402 18.35089
#
# Velocity S-wave (km/s) = 2.21486 3.16446 2.73125
# Velocity P-wave (km/s) = 5.30928 6.79755 6.09898
#
# Compressibility (1/GPa) = 0.01877815
#
# Stress axis : x y z
#
# Youngs Moduli (GPa) = 153.84763 73.32856 67.10885
#
# Poissons Ratio (x) = 0.38621 0.11542
# Poissons Ratio (y) = 0.81029 0.07673
# Poissons Ratio (z) = 0.26461 0.08384
#
# Static dielectric constant tensor:
#      x y z
#    x 1.927920 0.000000 0.000000 
#    y 0.000000 2.036040 0.000000 
#    z 0.000000 0.000000 1.901420 
# 
# From -- ./inp_files/20255.got.cif
#   From: 2010.05.17/outbox.cif.g08.bks.cpg/sg40_11_cif.got.tgz:20255.got - 2010.06.03 18:35:42.
