data_PCOD9365722
_publ_section_title
;
Structure prediction by ZEFSAII (Michael W. Deem and Ramdas Pophale) SiO2 
 PCOD9365722
Probable space group: A B A 2
;
_chemical_formula_sum "Si O2"
_cell_formula_units_Z 40
_cell_length_a 5.191873
_cell_length_b 23.128579
_cell_length_c 13.489055
_cell_angle_alpha 90.000000
_cell_angle_beta 90.000000
_cell_angle_gamma 90.000000
_cell_volume 1619.774423
_symmetry_space_group_name_H-M "A B A 2"
_symmetry_group_IT_number 41
_symmetry_cell_setting 'orthorhombic'
loop_
_space_group_symop_operation_xyz
x,y,z
-x,-y,z
1/2-x,y,1/2+z
1/2+x,-y,1/2+z
x,1/2+y,1/2+z
-x,1/2-y,1/2+z
1/2-x,1/2+y,z
1/2+x,1/2-y,z
loop_
_atom_site_type_symbol
_atom_site_label
_atom_site_fract_x
_atom_site_fract_y
_atom_site_fract_z
Si Si1 0.249104 0.602722 0.446270
Si Si2 0.500000 0.500000 0.680992
Si Si3 0.670241 0.230207 0.118508
Si Si4 0.406884 0.721167 0.891142
Si Si5 0.725704 0.107212 0.063875
Si Si6 0.500000 0.000000 0.820892
O O1 0.131402 0.653102 0.378922
O O2 0.502841 0.632979 0.492518
O O3 0.388507 0.550055 0.391565
O O4 0.997821 0.586857 0.514840
O O5 0.558174 0.555781 0.612627
O O6 0.247297 0.494623 0.749602
O O7 0.386779 0.228877 0.163461
O O8 0.781997 0.164925 0.125412
O O9 0.601385 0.261684 0.010666
O O10 0.677029 0.740913 0.851912
#
# Coordination Sequence:
#
# PCOD9365722 Si02
#       6
#     8   4   8   8   8   4
#     4  12  22  40  72 101 124 171 240 293 328 409
#     4  12  29  48  61  90 148 196 224 278 361 422
#     4  10  16  31  58 103 131 147 197 296 361 380
#     4  10  16  31  58 103 131 147 197 296 361 380
#     4  12  22  40  72 101 124 171 240 293 328 409
#     4  12  29  48  61  90 148 196 224 278 361 422
#
# _framework density 24.694797000000001
#
# number of rings (size 3 to 8) (size 9 to 14) (size 15 to 20)
#    0.000    0.800    8.000    3.000    0.000    1.600 
#    0.000    0.000    0.000    7.200    0.000    0.000 
#    0.000    0.000    0.000    0.000    0.000    0.000 
#
# Total GULP energy -111387.366284 kJ/mol
# GULP energy per Si atom -5569.368314 kJ/mol
# Density = 2.463859 g / cm^3
# Si number density = 24.694797 Si / 1000 Ang^3
#
#
#
# Elastic Constant Matrix: (Units=GPa)
#
#
# Indices 1 2 3 4 5 6 
#
# 1 198.4755 36.6805 23.1701 0.0000 0.0000 0.0000
# 2 36.6805 168.4890 18.7881 0.0000 0.0000 0.0000
# 3 23.1701 18.7881 46.0179 0.0000 0.0000 0.0000
# 4 0.0000 0.0000 0.0000 4.8639 0.0000 0.0000
# 5 0.0000 0.0000 0.0000 0.0000 48.8795 0.0000
# 6 0.0000 0.0000 0.0000 0.0000 0.0000 49.5831
#
#
#
# Elastic Compliance Matrix: (Units=1/GPa)
#
#
# Indices 1 2 3 4 5 6 
#
# 1 0.005488 -0.000929 -0.002384 0.000000 0.000000 0.000000
# 2 -0.000929 0.006375 -0.002135 0.000000 0.000000 0.000000
# 3 -0.002384 -0.002135 0.023803 0.000000 0.000000 0.000000
# 4 0.000000 0.000000 0.000000 0.205598 0.000000 0.000000
# 5 0.000000 0.000000 0.000000 0.000000 0.020458 0.000000
# 6 0.000000 0.000000 0.000000 0.000000 0.000000 0.020168
#
#
# Mechanical properties :
#
#
# Convention : Reuss Voigt Hill
#
# Bulk Modulus (GPa) = 40.37134 63.36218 51.86676
# Shear Modulus (GPa) = 16.60883 42.95488 29.78185
#
# Velocity S-wave (km/s) = 2.59620 4.17517 3.47651
# Velocity P-wave (km/s) = 5.03692 6.99690 6.09619
#
# Compressibility (1/GPa) = 0.02477005
#
# Stress axis : x y z
#
# Youngs Moduli (GPa) = 182.20190 156.85184 42.01178
#
# Poissons Ratio (x) = 0.14571 0.10016
# Poissons Ratio (y) = 0.16926 0.08970
# Poissons Ratio (z) = 0.43439 0.33491
#
# Static dielectric constant tensor:
#      x y z
#    x 2.033810 0.000000 0.000000 
#    y 0.000000 2.035790 0.000000 
#    z 0.000000 0.000000 2.388090 
# 
# From -- ./inp_files/9401.got.cif
#   From: 2010.05.17/outbox.cif.g08.bks.cpg/sg41_5_cif.got.tgz:9401.got - 2010.06.03 18:54:24.
