data_PCOD9365419
_publ_section_title
;
Structure prediction by ZEFSAII (Michael W. Deem and Ramdas Pophale) SiO2 
 PCOD9365419
Probable space group: A M A 2
;
_chemical_formula_sum "Si O2"
_cell_formula_units_Z 36
_cell_length_a 14.135785
_cell_length_b 12.931840
_cell_length_c 7.025639
_cell_angle_alpha 90.000000
_cell_angle_beta 90.000000
_cell_angle_gamma 90.000000
_cell_volume 1284.298822
_symmetry_space_group_name_H-M "A M A 2"
_symmetry_group_IT_number 40
_symmetry_cell_setting 'orthorhombic'
loop_
_space_group_symop_operation_xyz
x,y,z
-x,-y,z
1/2-x,y,z
1/2+x,-y,z
x,1/2+y,1/2+z
-x,1/2-y,1/2+z
1/2-x,1/2+y,1/2+z
1/2+x,1/2-y,1/2+z
loop_
_atom_site_type_symbol
_atom_site_label
_atom_site_fract_x
_atom_site_fract_y
_atom_site_fract_z
Si Si1 0.883993 0.218389 0.422830
Si Si2 0.750000 0.373944 0.221519
Si Si3 0.890260 0.029135 0.924067
Si Si4 0.612947 0.490755 0.867502
Si Si5 0.891517 0.768482 0.351348
O O1 0.830883 0.281516 0.263061
O O2 0.868891 0.269658 0.627330
O O3 0.995727 0.220368 0.377668
O O4 0.851632 0.100195 0.440205
O O5 0.830749 0.463459 0.277286
O O6 0.870319 0.151883 0.914398
O O7 0.000000 0.000000 0.888731
O O8 0.870816 0.996149 0.140866
O O9 0.500000 0.500000 0.901403
O O10 0.651839 0.377542 0.929648
#
# Coordination Sequence:
#
# PCOD9365419 Si02
#       5
#     8   4   8   8   8
#     4  11  23  42  74 100 141 179 234 290 350 410
#     4  12  24  44  70 106 138 188 234 290 346 420
#     4  11  22  44  72  98 140 185 229 289 352 401
#     4   9  20  41  67  99 128 178 228 282 344 410
#     4  11  21  44  70 100 136 185 227 284 351 417
#
# _framework density 28.030859
#
# number of rings (size 3 to 8) (size 9 to 14) (size 15 to 20)
#    0.000    1.333    4.444    2.667    0.000    4.444 
#    4.000    0.000    0.000    1.333    0.000    0.000 
#    0.000    0.000    0.000    0.000    0.000    0.000 
#
# Total GULP energy -100446.266588 kJ/mol
# GULP energy per Si atom -5580.348144 kJ/mol
# Density = 2.796706 g / cm^3
# Si number density = 28.030859 Si / 1000 Ang^3
#
#
#
# Elastic Constant Matrix: (Units=GPa)
#
#
# Indices 1 2 3 4 5 6 
#
# 1 121.5028 -7.5145 -54.0892 0.0000 0.0000 0.0000
# 2 -7.5145 316.3097 28.6674 0.0000 0.0000 0.0000
# 3 -54.0892 28.6674 80.8256 0.0000 0.0000 0.0000
# 4 0.0000 0.0000 0.0000 67.8044 0.0000 0.0000
# 5 0.0000 0.0000 0.0000 0.0000 162.6191 0.0000
# 6 0.0000 0.0000 0.0000 0.0000 0.0000 -132.9140
#
#
#
# Elastic Compliance Matrix: (Units=1/GPa)
#
#
# Indices 1 2 3 4 5 6 
#
# 1 0.011784 -0.000449 0.008045 0.000000 0.000000 0.000000
# 2 -0.000449 0.003284 -0.001465 0.000000 0.000000 0.000000
# 3 0.008045 -0.001465 0.018276 0.000000 0.000000 0.000000
# 4 0.000000 0.000000 0.000000 0.014748 0.000000 0.000000
# 5 0.000000 0.000000 0.000000 0.000000 0.006149 0.000000
# 6 0.000000 0.000000 0.000000 0.000000 0.000000 -0.007524
#
#
# Mechanical properties :
#
#
# Convention : Reuss Voigt Hill
#
# Bulk Modulus (GPa) = 21.92731 50.30726 36.11729
# Shear Modulus (GPa) = 100.68953 56.27353 78.48153
#
# Velocity S-wave (km/s) = 5.99991 4.48544 5.29708
# Velocity P-wave (km/s) = 7.47249 6.69415 7.09400
#
# Compressibility (1/GPa) = 0.04560523
#
# Stress axis : x y z
#
# Youngs Moduli (GPa) = 84.86094 304.54540 54.71662
#
# Poissons Ratio (x) = 0.13680 -0.44021
# Poissons Ratio (y) = 0.03812 0.08017
# Poissons Ratio (z) = -0.68273 0.44623
#
# Static dielectric constant tensor:
#      x y z
#    x 0.365560 0.000000 0.000000 
#    y 0.000000 2.111750 0.000000 
#    z 0.000000 0.000000 2.271190 
# 
# From -- ./inp_files/11868.got.cif
#   From: 2010.05.17/outbox.cif.g08.bks.cpg/sg40_6_cif.got.tgz:11868.got - 2010.06.03 18:35:42.
