data_PCOD9365846
_publ_section_title
;
Structure prediction by ZEFSAII (Michael W. Deem and Ramdas Pophale) SiO2 
 PCOD9365846
Probable space group: A B A 2
;
_chemical_formula_sum "Si O2"
_cell_formula_units_Z 60
_cell_length_a 14.322543
_cell_length_b 12.075381
_cell_length_c 16.634492
_cell_angle_alpha 90.000000
_cell_angle_beta 90.000000
_cell_angle_gamma 90.000000
_cell_volume 2876.938113
_symmetry_space_group_name_H-M "A B A 2"
_symmetry_group_IT_number 41
_symmetry_cell_setting 'orthorhombic'
loop_
_space_group_symop_operation_xyz
x,y,z
-x,-y,z
1/2-x,y,1/2+z
1/2+x,-y,1/2+z
x,1/2+y,1/2+z
-x,1/2-y,1/2+z
1/2-x,1/2+y,z
1/2+x,1/2-y,z
loop_
_atom_site_type_symbol
_atom_site_label
_atom_site_fract_x
_atom_site_fract_y
_atom_site_fract_z
Si Si1 0.301147 0.267331 0.536790
Si Si2 0.659985 0.503758 0.583630
Si Si3 0.468450 0.625717 0.980040
Si Si4 0.121158 0.186436 0.463316
Si Si5 0.540121 0.878218 0.792222
Si Si6 0.500000 0.500000 0.692937
Si Si7 0.274939 0.156002 0.693690
Si Si8 0.100516 0.677247 0.303005
O O1 0.311960 0.397975 0.524383
O O2 0.392606 0.189966 0.534293
O O3 0.228636 0.221868 0.471556
O O4 0.262716 0.252331 0.627354
O O5 0.612901 0.404565 0.533528
O O6 0.580227 0.553891 0.639545
O O7 0.739107 0.450647 0.641337
O O8 0.500000 0.500000 0.999336
O O9 0.558414 0.705363 0.977973
O O10 0.418959 0.632090 0.892406
O O11 0.089563 0.135389 0.379182
O O12 0.620573 0.853295 0.727014
O O13 0.453396 0.793171 0.793288
O O14 0.500000 0.000000 0.781083
O O15 0.452288 0.592312 0.745515
O O16 0.205316 0.177173 0.768524
#
# Coordination Sequence:
#
# PCOD9365846 Si02
#       8
#     8   8   8   8   8   4   8   8
#     4  11  24  42  67  95 132 175 217 274 332 395
#     4  10  22  39  68  93 134 176 219 267 332 393
#     4  11  24  42  68  98 134 172 222 273 336 396
#     4  10  25  43  64  98 130 170 223 274 325 400
#     4  11  25  43  67  97 133 172 220 280 333 388
#     4  10  18  38  66  92 126 172 218 264 320 396
#     4  10  24  43  63 101 132 174 223 269 336 393
#     4  10  22  43  65  97 130 171 221 270 330 397
#
# _framework density 20.855505000000001
#
# number of rings (size 3 to 8) (size 9 to 14) (size 15 to 20)
#    0.000    1.600    0.667    2.400   10.267    2.667 
#    0.000    0.000    0.000    0.000    0.000    0.000 
#    0.000    0.000    0.000    0.000    0.000    0.000 
#
# Total GULP energy -167458.132765 kJ/mol
# GULP energy per Si atom -5581.937759 kJ/mol
# Density = 2.080804 g / cm^3
# Si number density = 20.855505 Si / 1000 Ang^3
#
#
#
# Elastic Constant Matrix: (Units=GPa)
#
#
# Indices 1 2 3 4 5 6 
#
# 1 58.9770 25.0200 9.0448 0.0000 0.0000 0.0000
# 2 25.0200 91.2353 11.6124 0.0000 0.0000 0.0000
# 3 9.0448 11.6124 60.6208 0.0000 0.0000 0.0000
# 4 0.0000 0.0000 0.0000 17.0325 0.0000 0.0000
# 5 0.0000 0.0000 0.0000 0.0000 40.1405 0.0000
# 6 0.0000 0.0000 0.0000 0.0000 0.0000 18.8211
#
#
#
# Elastic Compliance Matrix: (Units=1/GPa)
#
#
# Indices 1 2 3 4 5 6 
#
# 1 0.019404 -0.005077 -0.001923 0.000000 0.000000 0.000000
# 2 -0.005077 0.012563 -0.001649 0.000000 0.000000 0.000000
# 3 -0.001923 -0.001649 0.017099 0.000000 0.000000 0.000000
# 4 0.000000 0.000000 0.000000 0.058711 0.000000 0.000000
# 5 0.000000 0.000000 0.000000 0.000000 0.024912 0.000000
# 6 0.000000 0.000000 0.000000 0.000000 0.000000 0.053132
#
#
# Mechanical properties :
#
#
# Convention : Reuss Voigt Hill
#
# Bulk Modulus (GPa) = 31.47720 33.57639 32.52680
# Shear Modulus (GPa) = 23.39639 26.20919 24.80279
#
# Velocity S-wave (km/s) = 3.35301 3.54885 3.45232
# Velocity P-wave (km/s) = 5.48780 5.73820 5.61440
#
# Compressibility (1/GPa) = 0.03176902
#
# Stress axis : x y z
#
# Youngs Moduli (GPa) = 51.53489 79.60033 58.48377
#
# Poissons Ratio (x) = 0.40410 0.11245
# Poissons Ratio (y) = 0.26162 0.09644
# Poissons Ratio (z) = 0.09909 0.13126
#
# Static dielectric constant tensor:
#      x y z
#    x 1.718300 0.000000 0.000000 
#    y 0.000000 1.495670 0.000000 
#    z 0.000000 0.000000 1.772660 
# 
# From -- ./inp_files/10383.got.cif
#   From: 2010.05.17/outbox.cif.g08.bks.cpg/sg41_6_cif.got.tgz:10383.got - 2010.06.03 18:54:24.
