data_PCOD9365147
_publ_section_title
;
Structure prediction by ZEFSAII (Michael W. Deem and Ramdas Pophale) SiO2 
 PCOD9365147
Probable space group: A M A 2
;
_chemical_formula_sum "Si O2"
_cell_formula_units_Z 40
_cell_length_a 19.490325
_cell_length_b 8.591093
_cell_length_c 11.625450
_cell_angle_alpha 90.000000
_cell_angle_beta 90.000000
_cell_angle_gamma 90.000000
_cell_volume 1946.602488
_symmetry_space_group_name_H-M "A M A 2"
_symmetry_group_IT_number 40
_symmetry_cell_setting 'orthorhombic'
loop_
_space_group_symop_operation_xyz
x,y,z
-x,-y,z
1/2-x,y,z
1/2+x,-y,z
x,1/2+y,1/2+z
-x,1/2-y,1/2+z
1/2-x,1/2+y,1/2+z
1/2+x,1/2-y,1/2+z
loop_
_atom_site_type_symbol
_atom_site_label
_atom_site_fract_x
_atom_site_fract_y
_atom_site_fract_z
Si Si1 0.615079 0.906324 0.954060
Si Si2 0.250000 0.964437 0.679927
Si Si3 0.000000 0.000000 0.129802
Si Si4 0.511198 0.822656 0.748752
Si Si5 0.750000 0.945507 0.412264
Si Si6 0.857301 0.705012 0.326997
Si Si7 0.250000 0.222761 0.881064
O O1 0.567929 0.855405 0.845961
O O2 0.681700 0.799425 0.957225
O O3 0.646496 0.074058 0.924889
O O4 0.562686 0.926713 0.057236
O O5 0.250000 0.019126 0.548762
O O6 0.250000 0.107174 0.772095
O O7 0.183622 0.863384 0.717277
O O8 0.029952 0.840919 0.187418
O O9 0.437091 0.778624 0.801024
O O10 0.500000 0.000000 0.693852
O O11 0.817129 0.851253 0.374918
O O12 0.750000 0.102427 0.339973
#
# Coordination Sequence:
#
# PCOD9365147 Si02
#       7
#     8   4   4   8   4   8   4
#     4  10  22  48  63  96 137 168 217 283 323 390
#     4   9  21  41  62  88 132 177 209 268 339 373
#     4  12  24  42  74  96 128 192 218 260 356 390
#     4  10  23  45  66  98 138 168 225 281 323 396
#     4  11  23  39  66  98 126 181 224 254 342 395
#     4   9  20  43  61  91 138 163 217 290 308 390
#     4  10  24  42  66  96 136 164 221 280 317 402
#
# _framework density 20.548622000000002
#
# number of rings (size 3 to 8) (size 9 to 14) (size 15 to 20)
#    0.000    2.000    3.000    0.600    5.600    4.800 
#    1.800    3.000    0.000    0.000    0.000    0.000 
#    0.000    0.000    0.000    0.000    0.000    0.000 
#
# Total GULP energy -111386.877285 kJ/mol
# GULP energy per Si atom -5569.343864 kJ/mol
# Density = 2.050185 g / cm^3
# Si number density = 20.548622 Si / 1000 Ang^3
#
#
#
# Elastic Constant Matrix: (Units=GPa)
#
#
# Indices 1 2 3 4 5 6 
#
# 1 130.0208 34.5859 9.8822 0.0000 0.0000 0.0000
# 2 34.5859 124.0050 47.5464 0.0000 0.0000 0.0000
# 3 9.8822 47.5464 62.3381 0.0000 0.0000 0.0000
# 4 0.0000 0.0000 0.0000 24.1572 0.0000 0.0000
# 5 0.0000 0.0000 0.0000 0.0000 -8.4778 0.0000
# 6 0.0000 0.0000 0.0000 0.0000 0.0000 8.0624
#
#
#
# Elastic Compliance Matrix: (Units=1/GPa)
#
#
# Indices 1 2 3 4 5 6 
#
# 1 0.008325 -0.002567 0.000638 0.000000 0.000000 0.000000
# 2 -0.002567 0.012188 -0.008889 0.000000 0.000000 0.000000
# 3 0.000638 -0.008889 0.022721 0.000000 0.000000 0.000000
# 4 0.000000 0.000000 0.000000 0.041395 0.000000 0.000000
# 5 0.000000 0.000000 0.000000 0.000000 -0.117955 0.000000
# 6 0.000000 0.000000 0.000000 0.000000 0.000000 0.124032
#
#
# Mechanical properties :
#
#
# Convention : Reuss Voigt Hill
#
# Bulk Modulus (GPa) = 46.30082 55.59920 50.95001
# Shear Modulus (GPa) = 41.82608 19.70499 30.76554
#
# Velocity S-wave (km/s) = 4.51651 3.10004 3.87357
# Velocity P-wave (km/s) = 7.05548 6.31900 6.69737
#
# Compressibility (1/GPa) = 0.02159789
#
# Stress axis : x y z
#
# Youngs Moduli (GPa) = 120.11563 82.04491 44.01286
#
# Poissons Ratio (x) = 0.21057 -0.02807
# Poissons Ratio (y) = 0.30828 0.39125
# Poissons Ratio (z) = -0.07661 0.72934
#
# Static dielectric constant tensor:
#      x y z
#    x 1.763690 0.000000 0.000000 
#    y 0.000000 1.864640 0.000000 
#    z 0.000000 0.000000 1.757630 
# 
# From -- ./inp_files/13464.got.cif
#   From: 2010.05.17/outbox.cif.g08.bks.cpg/sg40_7_cif.got.tgz:13464.got - 2010.06.03 18:35:42.
