data_PCOD9365162
_publ_section_title
;
Structure prediction by ZEFSAII (Michael W. Deem and Ramdas Pophale) SiO2 
 PCOD9365162
Probable space group: A M A 2
;
_chemical_formula_sum "Si O2"
_cell_formula_units_Z 44
_cell_length_a 7.604044
_cell_length_b 32.138174
_cell_length_c 8.340890
_cell_angle_alpha 90.000000
_cell_angle_beta 90.000000
_cell_angle_gamma 90.000000
_cell_volume 2038.347442
_symmetry_space_group_name_H-M "A M A 2"
_symmetry_group_IT_number 40
_symmetry_cell_setting 'orthorhombic'
loop_
_space_group_symop_operation_xyz
x,y,z
-x,-y,z
1/2-x,y,z
1/2+x,-y,z
x,1/2+y,1/2+z
-x,1/2-y,1/2+z
1/2-x,1/2+y,1/2+z
1/2+x,1/2-y,1/2+z
loop_
_atom_site_type_symbol
_atom_site_label
_atom_site_fract_x
_atom_site_fract_y
_atom_site_fract_z
Si Si1 0.049996 0.889375 0.956960
Si Si2 0.050284 0.548157 0.201343
Si Si3 0.040403 0.230703 0.440120
Si Si4 0.750000 0.097508 0.499235
Si Si5 0.548461 0.311321 0.266676
Si Si6 0.951124 0.853631 0.295278
O O1 0.250000 0.900681 0.996597
O O2 0.959307 0.928088 0.871924
O O3 0.050688 0.851721 0.828116
O O4 0.962291 0.871497 0.116235
O O5 0.250000 0.551795 0.138717
O O6 0.000000 0.500000 0.218484
O O7 0.904872 0.570468 0.092419
O O8 0.250000 0.237788 0.456171
O O9 0.977295 0.209173 0.603964
O O10 0.010791 0.195894 0.303787
O O11 0.957414 0.274404 0.395764
O O12 0.594933 0.123564 0.402366
O O13 0.750000 0.324113 0.239556
O O14 0.750000 0.858538 0.355195
#
# Coordination Sequence:
#
# PCOD9365162 Si02
#       6
#     8   8   8   4   8   8
#     4  12  24  44  71 102 139 186 243 294 359 422
#     4  12  25  48  78 107 142 182 236 293 357 431
#     4  10  23  40  59  93 138 186 239 292 349 412
#     4  12  24  44  74 106 140 184 224 286 348 424
#     4  11  23  38  62  94 134 188 239 295 352 416
#     4  11  24  44  70 103 147 189 236 291 351 423
#
# _framework density 21.586113000000001
#
# number of rings (size 3 to 8) (size 9 to 14) (size 15 to 20)
#    0.000    0.727    2.727    4.909    1.273    5.818 
#    0.000    0.909    0.000    0.000    0.000    0.000 
#    0.000    0.000    0.000    0.000    0.000    0.000 
#
# Total GULP energy -122583.002983 kJ/mol
# GULP energy per Si atom -5571.954681 kJ/mol
# Density = 2.153698 g / cm^3
# Si number density = 21.586113 Si / 1000 Ang^3
#
#
#
# Elastic Constant Matrix: (Units=GPa)
#
#
# Indices 1 2 3 4 5 6 
#
# 1 157.3510 32.5657 8.9149 0.0000 0.0000 0.0000
# 2 32.5657 105.7537 30.6511 0.0000 0.0000 0.0000
# 3 8.9149 30.6511 43.7543 0.0000 0.0000 0.0000
# 4 0.0000 0.0000 0.0000 24.9557 0.0000 0.0000
# 5 0.0000 0.0000 0.0000 0.0000 26.4895 0.0000
# 6 0.0000 0.0000 0.0000 0.0000 0.0000 116.8481
#
#
#
# Elastic Compliance Matrix: (Units=1/GPa)
#
#
# Indices 1 2 3 4 5 6 
#
# 1 0.006788 -0.002120 0.000102 0.000000 0.000000 0.000000
# 2 -0.002120 0.012527 -0.008344 0.000000 0.000000 0.000000
# 3 0.000102 -0.008344 0.028679 0.000000 0.000000 0.000000
# 4 0.000000 0.000000 0.000000 0.040071 0.000000 0.000000
# 5 0.000000 0.000000 0.000000 0.000000 0.037751 0.000000
# 6 0.000000 0.000000 0.000000 0.000000 0.000000 0.008558
#
#
# Mechanical properties :
#
#
# Convention : Reuss Voigt Hill
#
# Bulk Modulus (GPa) = 36.66874 50.12471 43.39673
# Shear Modulus (GPa) = 30.45296 49.30714 39.88005
#
# Velocity S-wave (km/s) = 3.76009 4.78452 4.30290
# Velocity P-wave (km/s) = 5.98958 7.33440 6.69584
#
# Compressibility (1/GPa) = 0.02727118
#
# Stress axis : x y z
#
# Youngs Moduli (GPa) = 147.31484 79.82759 34.86867
#
# Poissons Ratio (x) = 0.16923 -0.00356
# Poissons Ratio (y) = 0.31229 0.29093
# Poissons Ratio (z) = -0.01502 0.66605
#
# Static dielectric constant tensor:
#      x y z
#    x 1.812430 0.000000 0.000000 
#    y 0.000000 1.734740 0.000000 
#    z 0.000000 0.000000 1.819630 
# 
# From -- ./inp_files/4468.got.cif
#   From: 2010.05.17/outbox.cif.g08.bks.cpg/sg40_3_cif.got.tgz:4468.got - 2010.06.03 18:35:42.
