data_PCOD9365307
_publ_section_title
;
Structure prediction by ZEFSAII (Michael W. Deem and Ramdas Pophale) SiO2 
 PCOD9365307
Probable space group: A M A 2
;
_chemical_formula_sum "Si O2"
_cell_formula_units_Z 28
_cell_length_a 17.446403
_cell_length_b 8.603716
_cell_length_c 7.072820
_cell_angle_alpha 90.000000
_cell_angle_beta 90.000000
_cell_angle_gamma 90.000000
_cell_volume 1061.657842
_symmetry_space_group_name_H-M "A M A 2"
_symmetry_group_IT_number 40
_symmetry_cell_setting 'orthorhombic'
loop_
_space_group_symop_operation_xyz
x,y,z
-x,-y,z
1/2-x,y,z
1/2+x,-y,z
x,1/2+y,1/2+z
-x,1/2-y,1/2+z
1/2-x,1/2+y,1/2+z
1/2+x,1/2-y,1/2+z
loop_
_atom_site_type_symbol
_atom_site_label
_atom_site_fract_x
_atom_site_fract_y
_atom_site_fract_z
Si Si1 0.453533 0.307718 0.494210
Si Si2 0.500000 0.000000 0.341550
Si Si3 0.250000 0.213630 0.610817
Si Si4 0.750000 0.415299 0.686858
Si Si5 0.875482 0.414481 0.385660
O O1 0.324988 0.143941 0.712955
O O2 0.538805 0.353373 0.420930
O O3 0.389574 0.399184 0.375977
O O4 0.454080 0.122986 0.467852
O O5 0.549624 0.105840 0.197233
O O6 0.250000 0.396484 0.662870
O O7 0.250000 0.155403 0.395081
O O8 0.824838 0.367617 0.567164
#
# Coordination Sequence:
#
# PCOD9365307 Si02
#       5
#     8   4   4   4   8
#     4  10  24  48  74 112 148 195 249 322 379 446
#     4  10  24  44  72 112 150 188 246 310 390 446
#     4  11  26  45  80 101 155 202 252 308 381 457
#     4  11  26  47  72 111 147 204 252 306 383 455
#     4   9  24  49  72 112 151 196 256 317 375 458
#
# _framework density 26.373847999999999
#
# number of rings (size 3 to 8) (size 9 to 14) (size 15 to 20)
#    0.000    2.286    0.000    0.000    8.000   17.143 
#    0.000    0.000    0.000    0.000    0.000    0.000 
#    0.000    0.000    0.000    0.000    0.000    0.000 
#
# Total GULP energy -78318.693437 kJ/mol
# GULP energy per Si atom -5594.192388 kJ/mol
# Density = 2.631382 g / cm^3
# Si number density = 26.373848 Si / 1000 Ang^3
#
#
#
# Elastic Constant Matrix: (Units=GPa)
#
#
# Indices 1 2 3 4 5 6 
#
# 1 136.6744 10.6531 56.2035 0.0000 0.0000 0.0000
# 2 10.6531 151.3144 69.3950 0.0000 0.0000 0.0000
# 3 56.2035 69.3950 172.1870 0.0000 0.0000 0.0000
# 4 0.0000 0.0000 0.0000 44.1119 0.0000 0.0000
# 5 0.0000 0.0000 0.0000 0.0000 3.5598 0.0000
# 6 0.0000 0.0000 0.0000 0.0000 0.0000 35.6306
#
#
#
# Elastic Compliance Matrix: (Units=1/GPa)
#
#
# Indices 1 2 3 4 5 6 
#
# 1 0.008535 0.000830 -0.003121 0.000000 0.000000 0.000000
# 2 0.000830 0.008188 -0.003571 0.000000 0.000000 0.000000
# 3 -0.003121 -0.003571 0.008265 0.000000 0.000000 0.000000
# 4 0.000000 0.000000 0.000000 0.022670 0.000000 0.000000
# 5 0.000000 0.000000 0.000000 0.000000 0.280918 0.000000
# 6 0.000000 0.000000 0.000000 0.000000 0.000000 0.028066
#
#
# Mechanical properties :
#
#
# Convention : Reuss Voigt Hill
#
# Bulk Modulus (GPa) = 75.38050 81.40875 78.39463
# Shear Modulus (GPa) = 13.41249 38.25541 25.83395
#
# Velocity S-wave (km/s) = 2.25756 3.81268 3.13314
# Velocity P-wave (km/s) = 5.95307 7.09340 6.54810
#
# Compressibility (1/GPa) = 0.01326603
#
# Stress axis : x y z
#
# Youngs Moduli (GPa) = 117.16202 122.13024 120.98658
#
# Poissons Ratio (x) = -0.10140 0.37755
# Poissons Ratio (y) = -0.09727 0.43203
# Poissons Ratio (z) = 0.36561 0.43612
#
# Static dielectric constant tensor:
#      x y z
#    x 2.119780 0.000000 0.000000 
#    y 0.000000 2.223650 0.000000 
#    z 0.000000 0.000000 2.165740 
# 
# From -- ./inp_files/7060.got.cif
#   From: 2010.05.17/outbox.cif.g08.bks.cpg/sg40_4_cif.got.tgz:7060.got - 2010.06.03 18:35:42.
