data_PCOD9365959
_publ_section_title
;
Structure prediction by ZEFSAII (Michael W. Deem and Ramdas Pophale) SiO2 
 PCOD9365959
Probable space group: A B A 2
;
_chemical_formula_sum "Si O2"
_cell_formula_units_Z 56
_cell_length_a 13.061887
_cell_length_b 13.170021
_cell_length_c 13.893984
_cell_angle_alpha 90.000000
_cell_angle_beta 90.000000
_cell_angle_gamma 90.000000
_cell_volume 2390.117128
_symmetry_space_group_name_H-M "A B A 2"
_symmetry_group_IT_number 41
_symmetry_cell_setting 'orthorhombic'
loop_
_space_group_symop_operation_xyz
x,y,z
-x,-y,z
1/2-x,y,1/2+z
1/2+x,-y,1/2+z
x,1/2+y,1/2+z
-x,1/2-y,1/2+z
1/2-x,1/2+y,z
1/2+x,1/2-y,z
loop_
_atom_site_type_symbol
_atom_site_label
_atom_site_fract_x
_atom_site_fract_y
_atom_site_fract_z
Si Si1 0.897004 0.555605 0.153830
Si Si2 0.605654 0.753018 0.260623
Si Si3 0.119153 0.257701 0.037083
Si Si4 0.318887 0.130370 0.069218
Si Si5 0.608402 0.969465 0.363580
Si Si6 0.757315 0.625775 0.881389
Si Si7 0.436616 0.729976 0.409679
O O1 0.896858 0.672998 0.129919
O O2 0.811167 0.482648 0.110928
O O3 0.898259 0.537910 0.266735
O O4 0.000000 0.500000 0.116984
O O5 0.627616 0.798454 0.153948
O O6 0.622433 0.854501 0.327157
O O7 0.686173 0.662776 0.283802
O O8 0.498349 0.714157 0.309334
O O9 0.206461 0.175631 0.051838
O O10 0.161792 0.340812 0.961620
O O11 0.015732 0.221021 0.987272
O O12 0.387792 0.138901 0.972777
O O13 0.500000 0.000000 0.412823
O O14 0.714171 0.014190 0.402854
O O15 0.659113 0.697754 0.893284
#
# Coordination Sequence:
#
# PCOD9365959 Si02
#       7
#     8   8   8   8   8   8   8
#     4  10  19  35  59  83 108 148 194 231 279 342
#     4  10  21  36  58  86 115 151 192 235 286 338
#     4  10  21  35  55  82 116 150 186 238 285 336
#     4  10  21  36  58  86 115 151 192 235 286 338
#     4  10  19  35  59  83 108 148 194 231 279 342
#     4  10  21  35  55  82 116 150 186 238 285 336
#     4  10  20  36  54  84 116 148 186 234 286 336
#
# _framework density 23.429815000000001
#
# number of rings (size 3 to 8) (size 9 to 14) (size 15 to 20)
#    0.000    2.000    2.857    0.857    0.000    4.571 
#    0.000    0.000    0.000    0.000    0.000   16.000 
#    0.000    0.000    0.000    0.000    0.000    0.000 
#
# Total GULP energy -156066.558818 kJ/mol
# GULP energy per Si atom -5573.805672 kJ/mol
# Density = 2.337649 g / cm^3
# Si number density = 23.429815 Si / 1000 Ang^3
#
#
#
# Elastic Constant Matrix: (Units=GPa)
#
#
# Indices 1 2 3 4 5 6 
#
# 1 90.9907 4.3582 11.3794 0.0000 0.0000 0.0000
# 2 4.3582 55.1971 4.2701 0.0000 0.0000 0.0000
# 3 11.3794 4.2701 58.7891 0.0000 0.0000 0.0000
# 4 0.0000 0.0000 0.0000 37.1278 0.0000 0.0000
# 5 0.0000 0.0000 0.0000 0.0000 31.3977 0.0000
# 6 0.0000 0.0000 0.0000 0.0000 0.0000 27.4438
#
#
#
# Elastic Compliance Matrix: (Units=1/GPa)
#
#
# Indices 1 2 3 4 5 6 
#
# 1 0.011292 -0.000727 -0.002133 0.000000 0.000000 0.000000
# 2 -0.000727 0.018266 -0.001186 0.000000 0.000000 0.000000
# 3 -0.002133 -0.001186 0.017509 0.000000 0.000000 0.000000
# 4 0.000000 0.000000 0.000000 0.026934 0.000000 0.000000
# 5 0.000000 0.000000 0.000000 0.000000 0.031849 0.000000
# 6 0.000000 0.000000 0.000000 0.000000 0.000000 0.036438
#
#
# Mechanical properties :
#
#
# Convention : Reuss Voigt Hill
#
# Bulk Modulus (GPa) = 25.65708 27.22135 26.43922
# Shear Modulus (GPa) = 30.60516 31.52514 31.06515
#
# Velocity S-wave (km/s) = 3.61813 3.67210 3.64522
# Velocity P-wave (km/s) = 5.33187 5.44267 5.38755
#
# Compressibility (1/GPa) = 0.03897560
#
# Stress axis : x y z
#
# Youngs Moduli (GPa) = 88.56082 54.74646 57.11361
#
# Poissons Ratio (x) = 0.03978 0.12182
# Poissons Ratio (y) = 0.06435 0.06774
# Poissons Ratio (z) = 0.18889 0.06493
#
# Static dielectric constant tensor:
#      x y z
#    x 2.083240 0.000000 0.000000 
#    y 0.000000 1.942810 0.000000 
#    z 0.000000 0.000000 2.000650 
# 
# From -- ./inp_files/7955.got.cif
#   From: 2010.05.17/outbox.cif.g08.bks.cpg/sg41_4_cif.got.tgz:7955.got - 2010.06.03 18:54:24.
