data_PCOD9365827
_publ_section_title
;
Structure prediction by ZEFSAII (Michael W. Deem and Ramdas Pophale) SiO2 
 PCOD9365827
Probable space group: A B A 2
;
_chemical_formula_sum "Si O2"
_cell_formula_units_Z 44
_cell_length_a 8.054178
_cell_length_b 16.893184
_cell_length_c 15.800540
_cell_angle_alpha 90.000000
_cell_angle_beta 90.000000
_cell_angle_gamma 90.000000
_cell_volume 2149.832705
_symmetry_space_group_name_H-M "A B A 2"
_symmetry_group_IT_number 41
_symmetry_cell_setting 'orthorhombic'
loop_
_space_group_symop_operation_xyz
x,y,z
-x,-y,z
1/2-x,y,1/2+z
1/2+x,-y,1/2+z
x,1/2+y,1/2+z
-x,1/2-y,1/2+z
1/2-x,1/2+y,z
1/2+x,1/2-y,z
loop_
_atom_site_type_symbol
_atom_site_label
_atom_site_fract_x
_atom_site_fract_y
_atom_site_fract_z
Si Si1 0.449068 0.261298 0.444660
Si Si2 0.500000 0.000000 0.425194
Si Si3 0.575919 0.828565 0.100754
Si Si4 0.202409 0.841446 0.163632
Si Si5 0.167850 0.347373 0.350393
Si Si6 0.606054 0.892000 0.564101
O O1 0.570961 0.316113 0.499125
O O2 0.293961 0.315304 0.421359
O O3 0.523070 0.219023 0.361107
O O4 0.415661 0.190529 0.511594
O O5 0.410376 0.931927 0.372337
O O6 0.621448 0.956656 0.491136
O O7 0.388211 0.849813 0.125529
O O8 0.633958 0.747048 0.145069
O O9 0.726512 0.888174 0.118511
O O10 0.234872 0.850929 0.262904
O O11 0.061386 0.896547 0.120666
#
# Coordination Sequence:
#
# PCOD9365827 Si02
#       6
#     8   4   8   8   8   8
#     4  10  18  36  66  92 119 166 218 257 314 385
#     4  10  24  44  62  88 136 176 202 266 328 388
#     4  11  18  36  63  96 118 161 215 262 305 384
#     4  11  21  35  63  97 126 159 214 269 324 364
#     4  11  22  39  63  95 136 162 212 278 325 374
#     4  10  21  41  64  88 126 167 217 261 312 394
#
# _framework density 20.466709999999999
#
# number of rings (size 3 to 8) (size 9 to 14) (size 15 to 20)
#    0.000    1.455    5.455    3.273    0.000    0.000 
#    3.273    2.727    0.000    0.000    0.000    0.000 
#    0.000    0.000    0.000    0.000    0.000    0.000 
#
# Total GULP energy -122571.368359 kJ/mol
# GULP energy per Si atom -5571.425835 kJ/mol
# Density = 2.042013 g / cm^3
# Si number density = 20.466710 Si / 1000 Ang^3
#
#
#
# Elastic Constant Matrix: (Units=GPa)
#
#
# Indices 1 2 3 4 5 6 
#
# 1 144.1292 29.1869 31.8568 0.0000 0.0000 0.0000
# 2 29.1869 55.1208 25.6690 0.0000 0.0000 0.0000
# 3 31.8568 25.6690 85.9971 0.0000 0.0000 0.0000
# 4 0.0000 0.0000 0.0000 11.5657 0.0000 0.0000
# 5 0.0000 0.0000 0.0000 0.0000 36.2005 0.0000
# 6 0.0000 0.0000 0.0000 0.0000 0.0000 19.7486
#
#
#
# Elastic Compliance Matrix: (Units=1/GPa)
#
#
# Indices 1 2 3 4 5 6 
#
# 1 0.008054 -0.003339 -0.001987 0.000000 0.000000 0.000000
# 2 -0.003339 0.022455 -0.005466 0.000000 0.000000 0.000000
# 3 -0.001987 -0.005466 0.013996 0.000000 0.000000 0.000000
# 4 0.000000 0.000000 0.000000 0.086463 0.000000 0.000000
# 5 0.000000 0.000000 0.000000 0.000000 0.027624 0.000000
# 6 0.000000 0.000000 0.000000 0.000000 0.000000 0.050637
#
#
# Mechanical properties :
#
#
# Convention : Reuss Voigt Hill
#
# Bulk Modulus (GPa) = 43.62714 50.96362 47.29538
# Shear Modulus (GPa) = 20.96863 26.73858 23.85360
#
# Velocity S-wave (km/s) = 3.20429 3.61840 3.41762
# Velocity P-wave (km/s) = 5.92051 6.51244 6.22351
#
# Compressibility (1/GPa) = 0.02292151
#
# Stress axis : x y z
#
# Youngs Moduli (GPa) = 124.16902 44.53269 71.45077
#
# Poissons Ratio (x) = 0.14871 0.14195
# Poissons Ratio (y) = 0.41463 0.39053
# Poissons Ratio (z) = 0.24668 0.24340
#
# Static dielectric constant tensor:
#      x y z
#    x 1.828270 0.000000 0.000000 
#    y 0.000000 1.761820 0.000000 
#    z 0.000000 0.000000 1.747300 
# 
# From -- ./inp_files/7264.got.cif
#   From: 2010.05.17/outbox.cif.g08.bks.cpg/sg41_4_cif.got.tgz:7264.got - 2010.06.03 18:54:24.
