data_PCOD9365194
_publ_section_title
;
Structure prediction by ZEFSAII (Michael W. Deem and Ramdas Pophale) SiO2 
 PCOD9365194
Probable space group: A M A 2
;
_chemical_formula_sum "Si O2"
_cell_formula_units_Z 44
_cell_length_a 9.370185
_cell_length_b 16.957274
_cell_length_c 13.802371
_cell_angle_alpha 90.000000
_cell_angle_beta 90.000000
_cell_angle_gamma 90.000000
_cell_volume 2193.097299
_symmetry_space_group_name_H-M "A M A 2"
_symmetry_group_IT_number 40
_symmetry_cell_setting 'orthorhombic'
loop_
_space_group_symop_operation_xyz
x,y,z
-x,-y,z
1/2-x,y,z
1/2+x,-y,z
x,1/2+y,1/2+z
-x,1/2-y,1/2+z
1/2-x,1/2+y,1/2+z
1/2+x,1/2-y,1/2+z
loop_
_atom_site_type_symbol
_atom_site_label
_atom_site_fract_x
_atom_site_fract_y
_atom_site_fract_z
Si Si1 0.084715 0.697303 0.476010
Si Si2 0.912032 0.074127 0.862822
Si Si3 0.904862 0.616250 0.143923
Si Si4 0.083070 0.358502 0.867320
Si Si5 0.580195 0.226472 0.162170
Si Si6 0.000000 0.500000 0.977635
O O1 0.250000 0.673707 0.476464
O O2 0.077569 0.789068 0.446657
O O3 0.997446 0.650686 0.395231
O O4 0.006551 0.683666 0.577269
O O5 0.750000 0.075525 0.898869
O O6 0.906677 0.071836 0.746519
O O7 0.000000 0.000000 0.900412
O O8 0.750000 0.657679 0.136894
O O9 0.025621 0.683035 0.153765
O O10 0.913927 0.552986 0.057005
O O11 0.250000 0.387316 0.863649
O O12 0.051986 0.316011 0.764961
O O13 0.976695 0.427822 0.901427
O O14 0.750000 0.224618 0.146169
#
# Coordination Sequence:
#
# PCOD9365194 Si02
#       6
#     8   8   8   8   8   4
#     4  11  22  43  68  94 130 175 223 283 345 406
#     4  11  23  40  63  97 132 169 218 276 340 408
#     4  11  23  39  64 100 135 166 215 275 336 404
#     4  10  23  42  64  95 135 176 225 282 341 408
#     4  11  23  42  67  94 128 176 226 275 339 413
#     4  12  22  42  66  98 136 182 226 284 356 398
#
# _framework density 20.062950000000001
#
# number of rings (size 3 to 8) (size 9 to 14) (size 15 to 20)
#    0.000    1.091    4.545    2.182    0.000    2.182 
#    1.636    3.636    0.000    0.000    0.000    0.000 
#    0.000    0.000    0.000    0.000    0.000    0.000 
#
# Total GULP energy -122544.359779 kJ/mol
# GULP energy per Si atom -5570.198172 kJ/mol
# Density = 2.001729 g / cm^3
# Si number density = 20.062950 Si / 1000 Ang^3
#
#
#
# Elastic Constant Matrix: (Units=GPa)
#
#
# Indices 1 2 3 4 5 6 
#
# 1 126.2346 51.4675 48.7159 0.0000 0.0000 0.0000
# 2 51.4675 87.6094 19.9661 0.0000 0.0000 0.0000
# 3 48.7159 19.9661 118.7621 0.0000 0.0000 0.0000
# 4 0.0000 0.0000 0.0000 37.8822 0.0000 0.0000
# 5 0.0000 0.0000 0.0000 0.0000 19.3292 0.0000
# 6 0.0000 0.0000 0.0000 0.0000 0.0000 19.0427
#
#
#
# Elastic Compliance Matrix: (Units=1/GPa)
#
#
# Indices 1 2 3 4 5 6 
#
# 1 0.011902 -0.006113 -0.003854 0.000000 0.000000 0.000000
# 2 -0.006113 0.015009 -0.000016 0.000000 0.000000 0.000000
# 3 -0.003854 -0.000016 0.010004 0.000000 0.000000 0.000000
# 4 0.000000 0.000000 0.000000 0.026398 0.000000 0.000000
# 5 0.000000 0.000000 0.000000 0.000000 0.051735 0.000000
# 6 0.000000 0.000000 0.000000 0.000000 0.000000 0.052513
#
#
# Mechanical properties :
#
#
# Convention : Reuss Voigt Hill
#
# Bulk Modulus (GPa) = 59.00345 63.65613 61.32979
# Shear Modulus (GPa) = 25.88298 29.41461 27.64879
#
# Velocity S-wave (km/s) = 3.59568 3.83314 3.71631
# Velocity P-wave (km/s) = 6.83458 7.16852 7.00354
#
# Compressibility (1/GPa) = 0.01694816
#
# Stress axis : x y z
#
# Youngs Moduli (GPa) = 84.02147 66.62533 99.96170
#
# Poissons Ratio (x) = 0.40731 0.38528
# Poissons Ratio (y) = 0.51366 0.00156
# Poissons Ratio (z) = 0.32384 0.00104
#
# Static dielectric constant tensor:
#      x y z
#    x 1.692510 0.000000 0.000000 
#    y 0.000000 1.725450 0.000000 
#    z 0.000000 0.000000 1.748980 
# 
# From -- ./inp_files/14967.got.cif
#   From: 2010.05.17/outbox.cif.g08.bks.cpg/sg40_8_cif.got.tgz:14967.got - 2010.06.03 18:35:42.
