data_PCOD9365755
_publ_section_title
;
Structure prediction by ZEFSAII (Michael W. Deem and Ramdas Pophale) SiO2 
 PCOD9365755
Probable space group: A B A 2
;
_chemical_formula_sum "Si O2"
_cell_formula_units_Z 56
_cell_length_a 9.520563
_cell_length_b 19.980772
_cell_length_c 14.009491
_cell_angle_alpha 90.000000
_cell_angle_beta 90.000000
_cell_angle_gamma 90.000000
_cell_volume 2665.000236
_symmetry_space_group_name_H-M "A B A 2"
_symmetry_group_IT_number 41
_symmetry_cell_setting 'orthorhombic'
loop_
_space_group_symop_operation_xyz
x,y,z
-x,-y,z
1/2-x,y,1/2+z
1/2+x,-y,1/2+z
x,1/2+y,1/2+z
-x,1/2-y,1/2+z
1/2-x,1/2+y,z
1/2+x,1/2-y,z
loop_
_atom_site_type_symbol
_atom_site_label
_atom_site_fract_x
_atom_site_fract_y
_atom_site_fract_z
Si Si1 0.000000 0.000000 0.772640
Si Si2 0.949638 0.727532 0.020618
Si Si3 0.329806 0.829015 0.492272
Si Si4 0.149221 0.323482 0.722602
Si Si5 0.407682 0.605459 0.629877
Si Si6 0.500000 0.500000 0.477038
Si Si7 0.755023 0.062786 0.862930
Si Si8 0.169670 0.194799 0.195800
O O1 0.002186 0.066999 0.708943
O O2 0.853354 0.003025 0.827323
O O3 0.828438 0.691087 0.963286
O O4 0.868615 0.778777 0.089653
O O5 0.064023 0.770201 0.965246
O O6 0.023849 0.673239 0.088780
O O7 0.336155 0.835684 0.607379
O O8 0.353368 0.897326 0.437941
O O9 0.212526 0.385764 0.779273
O O10 0.235551 0.254444 0.740228
O O11 0.982583 0.315599 0.743015
O O12 0.413360 0.552297 0.543354
O O13 0.262240 0.628754 0.677891
O O14 0.614442 0.538029 0.414037
#
# Coordination Sequence:
#
# PCOD9365755 Si02
#       8
#     4   8   8   8   8   4   8   8
#     4  11  28  44  65  90 136 186 225 266 317 404
#     4  10  17  37  68 100 119 160 212 270 340 381
#     4  10  21  40  66  95 131 161 209 275 337 386
#     4  10  23  40  70 100 134 164 217 282 339 396
#     4  11  21  44  72  88 130 182 218 260 336 397
#     4  11  28  44  65  88 136 190 221 262 319 404
#     4  12  27  45  61  99 134 176 230 272 322 401
#     4  10  19  38  71 102 125 163 216 275 345 392
#
# _framework density 21.013131000000001
#
# number of rings (size 3 to 8) (size 9 to 14) (size 15 to 20)
#    0.000    1.429    5.714    1.714    4.000    3.429 
#    0.000    0.714    0.000    0.000    0.000    0.000 
#    0.000    0.000    0.000    0.000    0.000    0.000 
#
# Total GULP energy -156262.386230 kJ/mol
# GULP energy per Si atom -5580.799508 kJ/mol
# Density = 2.096530 g / cm^3
# Si number density = 21.013131 Si / 1000 Ang^3
#
#
#
# Elastic Constant Matrix: (Units=GPa)
#
#
# Indices 1 2 3 4 5 6 
#
# 1 140.5357 48.4255 26.4181 0.0000 0.0000 0.0000
# 2 48.4255 84.3417 29.3325 0.0000 0.0000 0.0000
# 3 26.4181 29.3325 52.3322 0.0000 0.0000 0.0000
# 4 0.0000 0.0000 0.0000 18.0248 0.0000 0.0000
# 5 0.0000 0.0000 0.0000 0.0000 10.4607 0.0000
# 6 0.0000 0.0000 0.0000 0.0000 0.0000 37.1527
#
#
#
# Elastic Compliance Matrix: (Units=1/GPa)
#
#
# Indices 1 2 3 4 5 6 
#
# 1 0.009045 -0.004478 -0.002056 0.000000 0.000000 0.000000
# 2 -0.004478 0.016945 -0.007237 0.000000 0.000000 0.000000
# 3 -0.002056 -0.007237 0.024203 0.000000 0.000000 0.000000
# 4 0.000000 0.000000 0.000000 0.055479 0.000000 0.000000
# 5 0.000000 0.000000 0.000000 0.000000 0.095596 0.000000
# 6 0.000000 0.000000 0.000000 0.000000 0.000000 0.026916
#
#
# Mechanical properties :
#
#
# Convention : Reuss Voigt Hill
#
# Bulk Modulus (GPa) = 44.14940 53.95131 49.05036
# Shear Modulus (GPa) = 18.99142 24.66319 21.82731
#
# Velocity S-wave (km/s) = 3.00957 3.42965 3.22645
# Velocity P-wave (km/s) = 5.75610 6.43538 6.10519
#
# Compressibility (1/GPa) = 0.02265036
#
# Stress axis : x y z
#
# Youngs Moduli (GPa) = 110.55495 59.01563 41.31734
#
# Poissons Ratio (x) = 0.26429 0.08495
# Poissons Ratio (y) = 0.49511 0.29901
# Poissons Ratio (z) = 0.22731 0.42709
#
# Static dielectric constant tensor:
#      x y z
#    x 1.802790 0.000000 0.000000 
#    y 0.000000 1.772550 0.000000 
#    z 0.000000 0.000000 1.776500 
# 
# From -- ./inp_files/7503.got.cif
#   From: 2010.05.17/outbox.cif.g08.bks.cpg/sg41_4_cif.got.tgz:7503.got - 2010.06.03 18:54:24.
