data_PCOD9365026
_publ_section_title
;
Structure prediction by ZEFSAII (Michael W. Deem and Ramdas Pophale) SiO2 
 PCOD9365026
Probable space group: A M A 2
;
_chemical_formula_sum "Si O2"
_cell_formula_units_Z 32
_cell_length_a 19.337736
_cell_length_b 11.984895
_cell_length_c 6.919482
_cell_angle_alpha 90.000000
_cell_angle_beta 90.000000
_cell_angle_gamma 90.000000
_cell_volume 1603.664238
_symmetry_space_group_name_H-M "A M A 2"
_symmetry_group_IT_number 40
_symmetry_cell_setting 'orthorhombic'
loop_
_space_group_symop_operation_xyz
x,y,z
-x,-y,z
1/2-x,y,z
1/2+x,-y,z
x,1/2+y,1/2+z
-x,1/2-y,1/2+z
1/2-x,1/2+y,1/2+z
1/2+x,1/2-y,1/2+z
loop_
_atom_site_type_symbol
_atom_site_label
_atom_site_fract_x
_atom_site_fract_y
_atom_site_fract_z
Si Si1 0.831842 0.500000 0.671590
Si Si2 0.928685 0.193949 0.248103
Si Si3 0.928685 0.864769 0.424258
Si Si4 0.428685 0.058718 0.842409
O O1 0.750000 0.499999 0.671590
O O2 0.865295 0.610212 0.767630
O O3 0.865295 0.396873 0.788889
O O4 0.865295 0.492914 0.458252
O O5 0.926266 0.307321 0.374340
O O6 0.000000 0.133829 0.305419
O O7 0.926266 0.244964 0.031197
O O8 0.926266 0.947714 0.609233
O O9 0.500000 0.000000 0.903932
#
# Coordination Sequence:
#
# PCOD9365026 Si02
#       4
#     8   8   8   8
#     4  12  25  41  58  90 136 170 202 252 316 389
#     4  10  22  41  69  92 122 158 216 270 310 362
#     4  10  22  41  69  92 122 158 216 270 310 362
#     4  10  22  41  69  92 122 158 216 270 310 362
#
# _framework density 19.954301999999998
#
# number of rings (size 3 to 8) (size 9 to 14) (size 15 to 20)
#    1.500    0.000    0.000    6.750    0.000    3.000 
#    4.500    0.000    0.000    0.000    0.000    0.000 
#    0.000    0.000    0.000    0.000    0.000    0.000 
#
# Total GULP energy -89154.992046 kJ/mol
# GULP energy per Si atom -5572.187003 kJ/mol
# Density = 1.990889 g / cm^3
# Si number density = 19.954302 Si / 1000 Ang^3
#
#
#
# Elastic Constant Matrix: (Units=GPa)
#
#
# Indices 1 2 3 4 5 6 
#
# 1 227.5987 67.1081 67.1088 0.0000 0.0000 0.0000
# 2 67.1081 97.6822 37.1293 0.0000 0.0000 0.0000
# 3 67.1088 37.1293 97.6837 0.0000 0.0000 0.0000
# 4 0.0000 0.0000 0.0000 30.2772 0.0000 0.0000
# 5 0.0000 0.0000 0.0000 0.0000 10.1853 0.0000
# 6 0.0000 0.0000 0.0000 0.0000 0.0000 10.1853
#
#
#
# Elastic Compliance Matrix: (Units=1/GPa)
#
#
# Indices 1 2 3 4 5 6 
#
# 1 0.006219 -0.003096 -0.003096 0.000000 0.000000 0.000000
# 2 -0.003096 0.013507 -0.003007 0.000000 0.000000 0.000000
# 3 -0.003096 -0.003007 0.013507 0.000000 0.000000 0.000000
# 4 0.000000 0.000000 0.000000 0.033028 0.000000 0.000000
# 5 0.000000 0.000000 0.000000 0.000000 0.098180 0.000000
# 6 0.000000 0.000000 0.000000 0.000000 0.000000 0.098181
#
#
# Mechanical properties :
#
#
# Convention : Reuss Voigt Hill
#
# Bulk Modulus (GPa) = 67.40559 85.07300 76.23930
# Shear Modulus (GPa) = 17.48456 26.90412 22.19434
#
# Velocity S-wave (km/s) = 2.96333 3.67589 3.33867
# Velocity P-wave (km/s) = 6.74994 7.79376 7.29056
#
# Compressibility (1/GPa) = 0.01483557
#
# Stress axis : x y z
#
# Youngs Moduli (GPa) = 160.78672 74.03431 74.03538
#
# Poissons Ratio (x) = 0.22921 0.22921
# Poissons Ratio (y) = 0.49779 0.22263
# Poissons Ratio (z) = 0.49779 0.22263
#
# Static dielectric constant tensor:
#      x y z
#    x 1.619580 0.000000 0.000000 
#    y 0.000000 1.751590 0.000000 
#    z 0.000000 0.000000 1.751590 
# 
# From -- ./inp_files/2110.got.cif
#   From: 2010.05.17/outbox.cif.g08.bks.cpg/sg40_2_cif.got.tgz:2110.got - 2010.06.03 18:35:42.
