data_PCOD9365316
_publ_section_title
;
Structure prediction by ZEFSAII (Michael W. Deem and Ramdas Pophale) SiO2 
 PCOD9365316
Probable space group: A M A 2
;
_chemical_formula_sum "Si O2"
_cell_formula_units_Z 40
_cell_length_a 27.898725
_cell_length_b 7.705136
_cell_length_c 7.021398
_cell_angle_alpha 90.000000
_cell_angle_beta 90.000000
_cell_angle_gamma 90.000000
_cell_volume 1509.344081
_symmetry_space_group_name_H-M "A M A 2"
_symmetry_group_IT_number 40
_symmetry_cell_setting 'orthorhombic'
loop_
_space_group_symop_operation_xyz
x,y,z
-x,-y,z
1/2-x,y,z
1/2+x,-y,z
x,1/2+y,1/2+z
-x,1/2-y,1/2+z
1/2-x,1/2+y,1/2+z
1/2+x,1/2-y,1/2+z
loop_
_atom_site_type_symbol
_atom_site_label
_atom_site_fract_x
_atom_site_fract_y
_atom_site_fract_z
Si Si1 0.651763 0.823235 0.252530
Si Si2 0.555674 0.641419 0.300459
Si Si3 0.045125 0.251004 0.885799
Si Si4 0.353583 0.793149 0.337868
Si Si5 0.250000 0.743445 0.145541
Si Si6 0.750000 0.118042 0.771547
O O1 0.608319 0.712797 0.335775
O O2 0.702451 0.730323 0.259048
O O3 0.652113 0.001492 0.365631
O O4 0.642901 0.827558 0.024936
O O5 0.510716 0.770952 0.333109
O O6 0.548040 0.458938 0.404000
O O7 0.553675 0.629932 0.069854
O O8 0.091988 0.282678 0.753538
O O9 0.302779 0.750699 0.241267
O O10 0.250000 0.532986 0.115981
O O11 0.250000 0.908882 0.001661
#
# Coordination Sequence:
#
# PCOD9365316 Si02
#       6
#     8   8   8   8   4   4
#     4  11  24  43  66  95 134 180 227 279 340 406
#     4  10  24  45  71 102 139 182 230 283 342 406
#     4  10  24  45  71 102 139 182 230 283 342 406
#     4  11  24  43  66  95 134 180 227 279 340 406
#     4  12  24  40  66  98 134 178 227 282 341 404
#     4  12  24  40  66  98 134 178 227 282 341 404
#
# _framework density 26.501577999999999
#
# number of rings (size 3 to 8) (size 9 to 14) (size 15 to 20)
#    0.000    1.200    0.000    4.800    0.000   18.400 
#    0.000    0.000    0.000    0.000    0.000    0.000 
#    0.000    0.000    0.000    0.000    0.000    0.000 
#
# Total GULP energy -111513.167359 kJ/mol
# GULP energy per Si atom -5575.658368 kJ/mol
# Density = 2.644126 g / cm^3
# Si number density = 26.501578 Si / 1000 Ang^3
#
#
#
# Elastic Constant Matrix: (Units=GPa)
#
#
# Indices 1 2 3 4 5 6 
#
# 1 237.5687 53.3223 -24.7860 0.0000 0.0000 0.0000
# 2 53.3223 75.2749 7.6734 0.0000 0.0000 0.0000
# 3 -24.7860 7.6734 55.6149 0.0000 0.0000 0.0000
# 4 0.0000 0.0000 0.0000 11.5395 0.0000 0.0000
# 5 0.0000 0.0000 0.0000 0.0000 36.3295 0.0000
# 6 0.0000 0.0000 0.0000 0.0000 0.0000 73.0479
#
#
#
# Elastic Compliance Matrix: (Units=1/GPa)
#
#
# Indices 1 2 3 4 5 6 
#
# 1 0.005460 -0.004175 0.003010 0.000000 0.000000 0.000000
# 2 -0.004175 0.016666 -0.004160 0.000000 0.000000 0.000000
# 3 0.003010 -0.004160 0.019896 0.000000 0.000000 0.000000
# 4 0.000000 0.000000 0.000000 0.086659 0.000000 0.000000
# 5 0.000000 0.000000 0.000000 0.000000 0.027526 0.000000
# 6 0.000000 0.000000 0.000000 0.000000 0.000000 0.013690
#
#
# Mechanical properties :
#
#
# Convention : Reuss Voigt Hill
#
# Bulk Modulus (GPa) = 31.87567 48.98642 40.43105
# Shear Modulus (GPa) = 26.17747 46.33330 36.25538
#
# Velocity S-wave (km/s) = 3.14629 4.18583 3.70272
# Velocity P-wave (km/s) = 5.02522 6.47194 5.79391
#
# Compressibility (1/GPa) = 0.03137189
#
# Stress axis : x y z
#
# Youngs Moduli (GPa) = 183.13997 60.00276 50.26132
#
# Poissons Ratio (x) = 0.25049 -0.15126
# Poissons Ratio (y) = 0.76455 0.20909
# Poissons Ratio (z) = -0.55116 0.24961
#
# Static dielectric constant tensor:
#      x y z
#    x 2.149690 0.000000 0.000000 
#    y 0.000000 2.052810 0.000000 
#    z 0.000000 0.000000 2.332430 
# 
# From -- ./inp_files/9276.got.cif
#   From: 2010.05.17/outbox.cif.g08.bks.cpg/sg40_5_cif.got.tgz:9276.got - 2010.06.03 18:35:42.
