data_PCOD9365224
_publ_section_title
;
Structure prediction by ZEFSAII (Michael W. Deem and Ramdas Pophale) SiO2 
 PCOD9365224
Probable space group: A M A 2
;
_chemical_formula_sum "Si O2"
_cell_formula_units_Z 64
_cell_length_a 21.820937
_cell_length_b 24.389826
_cell_length_c 5.021074
_cell_angle_alpha 90.000000
_cell_angle_beta 90.000000
_cell_angle_gamma 90.000000
_cell_volume 2672.260052
_symmetry_space_group_name_H-M "A M A 2"
_symmetry_group_IT_number 40
_symmetry_cell_setting 'orthorhombic'
loop_
_space_group_symop_operation_xyz
x,y,z
-x,-y,z
1/2-x,y,z
1/2+x,-y,z
x,1/2+y,1/2+z
-x,1/2-y,1/2+z
1/2-x,1/2+y,1/2+z
1/2+x,1/2-y,1/2+z
loop_
_atom_site_type_symbol
_atom_site_label
_atom_site_fract_x
_atom_site_fract_y
_atom_site_fract_z
Si Si1 0.318262 0.018422 0.036850
Si Si2 0.884616 0.646643 0.303663
Si Si3 0.382519 0.239370 0.982137
Si Si4 0.821771 0.305351 0.996266
Si Si5 0.180402 0.402653 0.814868
Si Si6 0.060684 0.532782 0.242869
Si Si7 0.523313 0.850712 0.988691
Si Si8 0.109574 0.100211 0.360196
O O1 0.250000 0.021510 0.915036
O O2 0.336679 0.075815 0.174546
O O3 0.317604 0.966274 0.232238
O O4 0.376357 0.008483 0.848658
O O5 0.840213 0.631683 0.551681
O O6 0.952003 0.645162 0.434151
O O7 0.884566 0.703958 0.140043
O O8 0.865533 0.606508 0.061165
O O9 0.349034 0.239457 0.698345
O O10 0.446680 0.208169 0.922274
O O11 0.343102 0.203157 0.191327
O O12 0.750000 0.305328 0.015997
O O13 0.851725 0.363747 0.069387
O O14 0.250000 0.385871 0.893199
O O15 0.050771 0.594638 0.350887
O O16 0.000000 0.500000 0.298780
O O17 0.073934 0.544482 0.935394
O O18 0.552300 0.860935 0.279775
#
# Coordination Sequence:
#
# PCOD9365224 Si02
#       8
#     8   8   8   8   8   8   8   8
#     4  10  24  44  69 105 148 195 244 301 370 450
#     4  12  27  45  77  99 140 200 242 301 379 427
#     4  11  25  45  68 105 139 184 243 304 359 436
#     4  11  23  43  70 102 144 185 233 299 368 434
#     4  11  27  48  70 107 148 189 250 305 356 444
#     4  11  23  42  71 103 141 184 240 297 366 444
#     4  10  25  46  65 102 141 179 238 301 362 437
#     4  10  23  43  70 105 145 186 244 298 369 448
#
# _framework density 23.949766
#
# number of rings (size 3 to 8) (size 9 to 14) (size 15 to 20)
#    0.000    1.250    1.250    2.625    5.250    8.000 
#    0.000    0.000    0.000    0.000    0.000    0.000 
#    0.000    0.000    0.000    0.000    0.000    0.000 
#
# Total GULP energy -178455.712004 kJ/mol
# GULP energy per Si atom -5576.741000 kJ/mol
# Density = 2.389525 g / cm^3
# Si number density = 23.949766 Si / 1000 Ang^3
#
#
#
# Elastic Constant Matrix: (Units=GPa)
#
#
# Indices 1 2 3 4 5 6 
#
# 1 160.2068 33.7748 23.1252 0.0000 0.0000 0.0000
# 2 33.7748 92.6006 10.7783 0.0000 0.0000 0.0000
# 3 23.1252 10.7783 70.2806 0.0000 0.0000 0.0000
# 4 0.0000 0.0000 0.0000 40.9525 0.0000 0.0000
# 5 0.0000 0.0000 0.0000 0.0000 23.9744 0.0000
# 6 0.0000 0.0000 0.0000 0.0000 0.0000 8.5429
#
#
#
# Elastic Compliance Matrix: (Units=1/GPa)
#
#
# Indices 1 2 3 4 5 6 
#
# 1 0.007015 -0.002332 -0.001951 0.000000 0.000000 0.000000
# 2 -0.002332 0.011770 -0.001038 0.000000 0.000000 0.000000
# 3 -0.001951 -0.001038 0.015030 0.000000 0.000000 0.000000
# 4 0.000000 0.000000 0.000000 0.024419 0.000000 0.000000
# 5 0.000000 0.000000 0.000000 0.000000 0.041711 0.000000
# 6 0.000000 0.000000 0.000000 0.000000 0.000000 0.117056
#
#
# Mechanical properties :
#
#
# Convention : Reuss Voigt Hill
#
# Bulk Modulus (GPa) = 43.15051 50.93829 47.04440
# Shear Modulus (GPa) = 21.24351 31.72129 26.48240
#
# Velocity S-wave (km/s) = 2.98149 3.64331 3.32889
# Velocity P-wave (km/s) = 5.46887 6.24606 5.87034
#
# Compressibility (1/GPa) = 0.02317470
#
# Stress axis : x y z
#
# Youngs Moduli (GPa) = 142.55068 84.95969 66.53494
#
# Poissons Ratio (x) = 0.19809 0.12979
# Poissons Ratio (y) = 0.33237 0.06906
# Poissons Ratio (z) = 0.27807 0.08818
#
# Static dielectric constant tensor:
#      x y z
#    x 1.857190 0.000000 0.000000 
#    y 0.000000 2.089430 0.000000 
#    z 0.000000 0.000000 2.298860 
# 
# From -- ./inp_files/2467.got.cif
#   From: 2010.05.17/outbox.cif.g08.bks.cpg/sg40_2_cif.got.tgz:2467.got - 2010.06.03 18:35:42.
