data_PCOD9365981
_publ_section_title
;
Structure prediction by ZEFSAII (Michael W. Deem and Ramdas Pophale) SiO2 
 PCOD9365981
Probable space group: A B A 2
;
_chemical_formula_sum "Si O2"
_cell_formula_units_Z 52
_cell_length_a 13.190554
_cell_length_b 19.751697
_cell_length_c 9.039120
_cell_angle_alpha 90.000000
_cell_angle_beta 90.000000
_cell_angle_gamma 90.000000
_cell_volume 2355.014594
_symmetry_space_group_name_H-M "A B A 2"
_symmetry_group_IT_number 41
_symmetry_cell_setting 'orthorhombic'
loop_
_space_group_symop_operation_xyz
x,y,z
-x,-y,z
1/2-x,y,1/2+z
1/2+x,-y,1/2+z
x,1/2+y,1/2+z
-x,1/2-y,1/2+z
1/2-x,1/2+y,z
1/2+x,1/2-y,z
loop_
_atom_site_type_symbol
_atom_site_label
_atom_site_fract_x
_atom_site_fract_y
_atom_site_fract_z
Si Si1 0.884650 0.594369 0.340580
Si Si2 0.119195 0.120299 0.135685
Si Si3 0.000000 0.500000 0.507097
Si Si4 0.196868 0.172726 0.437540
Si Si5 0.969499 0.225112 0.964069
Si Si6 0.840692 0.210826 0.331409
Si Si7 0.744702 0.117274 0.084330
O O1 0.985777 0.558714 0.382766
O O2 0.902014 0.673730 0.365142
O O3 0.813599 0.572599 0.478102
O O4 0.831533 0.578404 0.189479
O O5 0.141999 0.130123 0.309393
O O6 0.223861 0.134041 0.043927
O O7 0.073110 0.045215 0.111114
O O8 0.038624 0.177939 0.073162
O O9 0.109886 0.217773 0.520773
O O10 0.265581 0.225956 0.344821
O O11 0.047338 0.262099 0.855272
O O12 0.814885 0.162874 0.192530
O O13 0.817365 0.165801 0.476631
#
# Coordination Sequence:
#
# PCOD9365981 Si02
#       7
#     8   8   4   8   8   8   8
#     4  10  22  37  62  81 120 163 207 253 306 376
#     4  10  25  41  65  93 133 179 214 281 319 404
#     4  10  24  48  60  86 124 178 234 256 316 380
#     4  11  21  38  63  98 131 164 212 269 352 386
#     4  10  21  31  59  94 127 157 196 258 332 387
#     4  10  20  32  55  90 133 148 196 250 328 402
#     4  10  19  36  56  87 115 163 193 255 317 374
#
# _framework density 22.080542999999999
#
# number of rings (size 3 to 8) (size 9 to 14) (size 15 to 20)
#    0.000    1.846    3.077    1.846    4.308    2.462 
#    2.769    0.000    0.000    2.769    0.000    0.000 
#    0.000    0.000    0.000    0.000    0.000    0.000 
#
# Total GULP energy -144870.827670 kJ/mol
# GULP energy per Si atom -5571.954910 kJ/mol
# Density = 2.203029 g / cm^3
# Si number density = 22.080543 Si / 1000 Ang^3
#
#
#
# Elastic Constant Matrix: (Units=GPa)
#
#
# Indices 1 2 3 4 5 6 
#
# 1 53.9566 6.3279 1.1456 0.0000 0.0000 0.0000
# 2 6.3279 60.9496 6.8859 0.0000 0.0000 0.0000
# 3 1.1456 6.8859 89.4913 0.0000 0.0000 0.0000
# 4 0.0000 0.0000 0.0000 11.5515 0.0000 0.0000
# 5 0.0000 0.0000 0.0000 0.0000 -39.9945 0.0000
# 6 0.0000 0.0000 0.0000 0.0000 0.0000 -36.6492
#
#
#
# Elastic Compliance Matrix: (Units=1/GPa)
#
#
# Indices 1 2 3 4 5 6 
#
# 1 0.018763 -0.001938 -0.000091 0.000000 0.000000 0.000000
# 2 -0.001938 0.016751 -0.001264 0.000000 0.000000 0.000000
# 3 -0.000091 -0.001264 0.011273 0.000000 0.000000 0.000000
# 4 0.000000 0.000000 0.000000 0.086569 0.000000 0.000000
# 5 0.000000 0.000000 0.000000 0.000000 -0.025003 0.000000
# 6 0.000000 0.000000 0.000000 0.000000 0.000000 -0.027286
#
#
# Mechanical properties :
#
#
# Convention : Reuss Voigt Hill
#
# Bulk Modulus (GPa) = 24.87530 25.90182 25.38856
# Shear Modulus (GPa) = 49.47954 -0.34922 24.56516
#
# Velocity S-wave (km/s) = 4.73891 -0.39812 3.33907
# Velocity P-wave (km/s) = 6.42131 3.39776 5.13702
#
# Compressibility (1/GPa) = 0.04020053
#
# Stress axis : x y z
#
# Youngs Moduli (GPa) = 53.29757 59.69799 88.70986
#
# Poissons Ratio (x) = 0.11568 0.00808
# Poissons Ratio (y) = 0.10327 0.11214
# Poissons Ratio (z) = 0.00485 0.07546
#
# Static dielectric constant tensor:
#      x y z
#    x 2.562730 0.000000 0.000000 
#    y 0.000000 2.018420 0.000000 
#    z 0.000000 0.000000 1.833800 
# 
# From -- ./inp_files/2643.got.cif
#   From: 2010.05.17/outbox.cif.g08.bks.cpg/sg41_2_cif.got.tgz:2643.got - 2010.06.03 18:54:24.
