data_PCOD9365646
_publ_section_title
;
Structure prediction by ZEFSAII (Michael W. Deem and Ramdas Pophale) SiO2 
 PCOD9365646
Probable space group: A M A 2
;
_chemical_formula_sum "Si O2"
_cell_formula_units_Z 24
_cell_length_a 18.000000
_cell_length_b 15.000000
_cell_length_c 9.000000
_cell_angle_alpha 90.000000
_cell_angle_beta 90.000000
_cell_angle_gamma 90.000000
_cell_volume 2430.000000
_symmetry_space_group_name_H-M "A M A 2"
_symmetry_group_IT_number 40
_symmetry_cell_setting 'orthorhombic'
loop_
_space_group_symop_operation_xyz
x,y,z
-x,-y,z
1/2-x,y,z
1/2+x,-y,z
x,1/2+y,1/2+z
-x,1/2-y,1/2+z
1/2-x,1/2+y,1/2+z
1/2+x,1/2-y,1/2+z
loop_
_atom_site_type_symbol
_atom_site_label
_atom_site_fract_x
_atom_site_fract_y
_atom_site_fract_z
Si Si1 0.924654 0.946619 0.823710
Si Si2 0.412135 0.814053 0.422930
Si Si3 0.950938 0.267426 0.130635
Si Si4 0.835984 0.842996 0.056586
Si Si5 0.164124 0.178631 0.398745
Si Si6 0.663526 0.515255 0.051446
O O1 0.943326 0.857472 0.728923
O O2 0.868854 0.000272 0.716256
O O3 0.885638 0.916773 0.975433
O O4 0.000000 0.000000 0.848342
O O5 0.442118 0.808205 0.255096
O O6 0.475144 0.777161 0.534373
O O7 0.345357 0.744723 0.453741
O O8 0.385725 0.910916 0.470503
O O9 0.886191 0.263276 0.007824
O O10 0.750000 0.870654 0.060502
O O11 0.858265 0.821496 0.226132
O O12 0.250000 0.206311 0.407241
O O13 0.158382 0.078074 0.462815
O O14 0.750000 0.541237 0.056863
#
# Coordination Sequence:
#
# PCOD9365646 Si02
#       6
#     8   8   8   8   8   8
#     4  10  19  37  58  85 115 151 193 230 286 348
#     4  11  21  36  57  85 116 149 196 237 287 343
#     4  10  21  36  57  83 117 154 192 236 291 344
#     4  10  21  38  58  82 115 153 190 235 291 349
#     4   9  20  39  58  81 114 153 195 236 288 346
#     4  10  20  36  60  85 112 148 192 238 284 338
#
# _framework density 9.8765429999999999
#
# number of rings (size 3 to 8) (size 9 to 14) (size 15 to 20)
#    0.000    2.000    1.667    2.000    0.000    4.667 
#    9.000    0.000    0.000    4.000    0.000    0.000 
#    0.000    0.000    0.000    0.000    0.000    0.000 
#
# Total GULP energy -133985.822427 kJ/mol
# GULP energy per Si atom -5582.742601 kJ/mol
# Density = 0.985406 g / cm^3
# Si number density = 9.876543 Si / 1000 Ang^3
#
#
#
# Elastic Constant Matrix: (Units=GPa)
#
#
# Indices 1 2 3 4 5 6 
#
# 1 79.9524 6.1797 49.0813 0.0000 0.0000 0.0000
# 2 6.1797 13.8307 2.4763 0.0000 0.0000 0.0000
# 3 49.0813 2.4763 116.7274 0.0000 0.0000 0.0000
# 4 0.0000 0.0000 0.0000 20.7188 0.0000 0.0000
# 5 0.0000 0.0000 0.0000 0.0000 35.0631 0.0000
# 6 0.0000 0.0000 0.0000 0.0000 0.0000 19.0854
#
#
#
# Elastic Compliance Matrix: (Units=1/GPa)
#
#
# Indices 1 2 3 4 5 6 
#
# 1 0.017422 -0.006498 -0.007188 0.000000 0.000000 0.000000
# 2 -0.006498 0.075002 0.001141 0.000000 0.000000 0.000000
# 3 -0.007188 0.001141 0.011565 0.000000 0.000000 0.000000
# 4 0.000000 0.000000 0.000000 0.048265 0.000000 0.000000
# 5 0.000000 0.000000 0.000000 0.000000 0.028520 0.000000
# 6 0.000000 0.000000 0.000000 0.000000 0.000000 0.052396
#
#
# Mechanical properties :
#
#
# Convention : Reuss Voigt Hill
#
# Bulk Modulus (GPa) = 12.67419 36.22058 24.44739
# Shear Modulus (GPa) = 17.57101 25.15833 21.36467
#
# Velocity S-wave (km/s) = 2.98574 3.57268 3.29232
# Velocity P-wave (km/s) = 4.27977 5.94939 5.18226
#
# Compressibility (1/GPa) = 0.07890048
#
# Stress axis : x y z
#
# Youngs Moduli (GPa) = 57.39835 13.33297 86.46731
#
# Poissons Ratio (x) = 0.08663 0.62151
# Poissons Ratio (y) = 0.37295 -0.09865
# Poissons Ratio (z) = 0.41257 -0.01521
#
# Static dielectric constant tensor:
#      x y z
#    x 1.718720 0.000000 0.000000 
#    y 0.000000 1.696360 0.000000 
#    z 0.000000 0.000000 1.667510 
# 
# From -- ./inp_files/6446.got.cif
#   From: 2010.05.17/outbox.ucp.g08.bks.cvg/sg40_4_cif.got.tgz:6446.got - 2010.06.11 16:26:39.
