data_PCOD9365890
_publ_section_title
;
Structure prediction by ZEFSAII (Michael W. Deem and Ramdas Pophale) SiO2 
 PCOD9365890
Probable space group: A B A 2
;
_chemical_formula_sum "Si O2"
_cell_formula_units_Z 40
_cell_length_a 14.911542
_cell_length_b 18.726537
_cell_length_c 5.391289
_cell_angle_alpha 90.000000
_cell_angle_beta 90.000000
_cell_angle_gamma 90.000000
_cell_volume 1505.471859
_symmetry_space_group_name_H-M "A B A 2"
_symmetry_group_IT_number 41
_symmetry_cell_setting 'orthorhombic'
loop_
_space_group_symop_operation_xyz
x,y,z
-x,-y,z
1/2-x,y,1/2+z
1/2+x,-y,1/2+z
x,1/2+y,1/2+z
-x,1/2-y,1/2+z
1/2-x,1/2+y,z
1/2+x,1/2-y,z
loop_
_atom_site_type_symbol
_atom_site_label
_atom_site_fract_x
_atom_site_fract_y
_atom_site_fract_z
Si Si1 0.304531 0.109390 0.031020
Si Si2 0.010145 0.680955 0.454899
Si Si3 0.304815 0.777277 0.479245
Si Si4 0.525911 0.150433 0.952674
Si Si5 0.309383 0.956503 0.922749
O O1 0.275814 0.103069 0.320683
O O2 0.324018 0.193071 0.989579
O O3 0.352400 0.034860 0.961297
O O4 0.032422 0.641530 0.705837
O O5 0.953896 0.737331 0.955025
O O6 0.028883 0.639640 0.204721
O O7 0.249201 0.793258 0.230752
O O8 0.401625 0.813792 0.463599
O O9 0.612413 0.101711 0.947019
O O10 0.260889 0.949881 0.653736
#
# Coordination Sequence:
#
# PCOD9365890 Si02
#       5
#     8   8   8   8   8
#     4   8  16  30  47  70  97 122 150 194 244 276
#     4  10  21  35  49  69 100 131 157 194 243 284
#     4  10  19  32  52  74  96 124 161 199 234 281
#     4  10  21  35  49  69 100 131 157 194 243 284
#     4  10  19  32  52  74  96 124 161 199 234 281
#
# _framework density 26.569742000000002
#
# number of rings (size 3 to 8) (size 9 to 14) (size 15 to 20)
#    0.000    2.400    0.000    2.400    0.000    4.800 
#    0.000    1.000    0.000    0.000    0.000   25.200 
#    0.000    0.000    0.000    0.000    0.000    0.000 
#
# Total GULP energy -111909.810715 kJ/mol
# GULP energy per Si atom -5595.490536 kJ/mol
# Density = 2.650927 g / cm^3
# Si number density = 26.569742 Si / 1000 Ang^3
#
#
#
# Elastic Constant Matrix: (Units=GPa)
#
#
# Indices 1 2 3 4 5 6 
#
# 1 58.7422 27.4704 20.8491 0.0000 0.0000 0.0000
# 2 27.4704 137.7526 22.1225 0.0000 0.0000 0.0000
# 3 20.8491 22.1225 231.9227 0.0000 0.0000 0.0000
# 4 0.0000 0.0000 0.0000 28.5723 0.0000 0.0000
# 5 0.0000 0.0000 0.0000 0.0000 44.3482 0.0000
# 6 0.0000 0.0000 0.0000 0.0000 0.0000 41.1452
#
#
#
# Elastic Compliance Matrix: (Units=1/GPa)
#
#
# Indices 1 2 3 4 5 6 
#
# 1 0.019201 -0.003607 -0.001382 0.000000 0.000000 0.000000
# 2 -0.003607 0.008050 -0.000444 0.000000 0.000000 0.000000
# 3 -0.001382 -0.000444 0.004478 0.000000 0.000000 0.000000
# 4 0.000000 0.000000 0.000000 0.034999 0.000000 0.000000
# 5 0.000000 0.000000 0.000000 0.000000 0.022549 0.000000
# 6 0.000000 0.000000 0.000000 0.000000 0.000000 0.024304
#
#
# Mechanical properties :
#
#
# Convention : Reuss Voigt Hill
#
# Bulk Modulus (GPa) = 47.92993 63.25571 55.59282
# Shear Modulus (GPa) = 38.05142 46.67815 42.36479
#
# Velocity S-wave (km/s) = 3.78846 4.19599 3.99742
# Velocity P-wave (km/s) = 6.10041 6.87998 6.50189
#
# Compressibility (1/GPa) = 0.02086379
#
# Stress axis : x y z
#
# Youngs Moduli (GPa) = 52.08093 124.22442 223.29723
#
# Poissons Ratio (x) = 0.44808 0.30860
# Poissons Ratio (y) = 0.18786 0.09905
# Poissons Ratio (z) = 0.07198 0.05511
#
# Static dielectric constant tensor:
#      x y z
#    x 2.175480 0.000000 0.000000 
#    y 0.000000 2.064600 0.000000 
#    z 0.000000 0.000000 2.235170 
# 
# From -- ./inp_files/677.got.cif
#   From: 2010.05.17/outbox.cif.g08.bks.cpg/sg41_1_cif.got.tgz:677.got - 2010.06.03 18:54:24.
