data_PCOD9365867
_publ_section_title
;
Structure prediction by ZEFSAII (Michael W. Deem and Ramdas Pophale) SiO2 
 PCOD9365867
Probable space group: A B A 2
;
_chemical_formula_sum "Si O2"
_cell_formula_units_Z 48
_cell_length_a 18.018868
_cell_length_b 9.580666
_cell_length_c 11.860631
_cell_angle_alpha 90.000000
_cell_angle_beta 90.000000
_cell_angle_gamma 90.000000
_cell_volume 2047.533418
_symmetry_space_group_name_H-M "A B A 2"
_symmetry_group_IT_number 41
_symmetry_cell_setting 'orthorhombic'
loop_
_space_group_symop_operation_xyz
x,y,z
-x,-y,z
1/2-x,y,1/2+z
1/2+x,-y,1/2+z
x,1/2+y,1/2+z
-x,1/2-y,1/2+z
1/2-x,1/2+y,z
1/2+x,1/2-y,z
loop_
_atom_site_type_symbol
_atom_site_label
_atom_site_fract_x
_atom_site_fract_y
_atom_site_fract_z
Si Si1 0.698606 0.369151 0.570820
Si Si2 0.796677 0.136820 0.690406
Si Si3 0.957091 0.848701 0.463334
Si Si4 0.102224 0.219710 0.039168
Si Si5 0.915271 0.958433 0.233202
Si Si6 0.702633 0.111379 0.882910
O O1 0.742579 0.230557 0.609755
O O2 0.711898 0.472410 0.675365
O O3 0.612643 0.336849 0.545989
O O4 0.716111 0.478917 0.466427
O O5 0.877537 0.169775 0.639248
O O6 0.775101 0.165445 0.818845
O O7 0.926685 0.846233 0.335383
O O8 0.020060 0.738101 0.493373
O O9 0.000000 0.000000 0.472603
O O10 0.115079 0.081818 0.110529
O O11 0.158905 0.262991 0.942868
O O12 0.857414 0.062946 0.289624
O O13 0.000000 0.000000 0.213255
#
# Coordination Sequence:
#
# PCOD9365867 Si02
#       6
#     8   8   8   8   8   8
#     4  10  23  40  67  94 130 173 224 270 333 398
#     4  11  23  40  65  95 130 177 215 274 333 399
#     4  10  18  42  66  91 129 176 215 278 335 394
#     4  11  22  39  69  96 131 174 224 271 337 398
#     4  10  20  38  66  93 126 171 212 273 337 386
#     4  10  22  42  63  93 132 172 218 271 331 401
#
# _framework density 23.44284
#
# number of rings (size 3 to 8) (size 9 to 14) (size 15 to 20)
#    0.000    1.667    6.667    1.000    2.333    8.000 
#    0.000    0.000    7.333    0.000    0.000    0.000 
#    0.000    0.000    0.000    0.000    0.000    0.000 
#
# Total GULP energy -133696.420869 kJ/mol
# GULP energy per Si atom -5570.684203 kJ/mol
# Density = 2.338948 g / cm^3
# Si number density = 23.442840 Si / 1000 Ang^3
#
#
#
# Elastic Constant Matrix: (Units=GPa)
#
#
# Indices 1 2 3 4 5 6 
#
# 1 65.1576 10.8361 25.8084 0.0000 0.0000 0.0000
# 2 10.8361 42.7782 18.1728 0.0000 0.0000 0.0000
# 3 25.8084 18.1728 98.9700 0.0000 0.0000 0.0000
# 4 0.0000 0.0000 0.0000 38.6944 0.0000 0.0000
# 5 0.0000 0.0000 0.0000 0.0000 41.1598 0.0000
# 6 0.0000 0.0000 0.0000 0.0000 0.0000 28.4547
#
#
#
# Elastic Compliance Matrix: (Units=1/GPa)
#
#
# Indices 1 2 3 4 5 6 
#
# 1 0.017396 -0.002689 -0.004043 0.000000 0.000000 0.000000
# 2 -0.002689 0.025770 -0.004031 0.000000 0.000000 0.000000
# 3 -0.004043 -0.004031 0.011898 0.000000 0.000000 0.000000
# 4 0.000000 0.000000 0.000000 0.025844 0.000000 0.000000
# 5 0.000000 0.000000 0.000000 0.000000 0.024296 0.000000
# 6 0.000000 0.000000 0.000000 0.000000 0.000000 0.035144
#
#
# Mechanical properties :
#
#
# Convention : Reuss Voigt Hill
#
# Bulk Modulus (GPa) = 29.81568 35.17116 32.49342
# Shear Modulus (GPa) = 28.89319 31.80100 30.34710
#
# Velocity S-wave (km/s) = 3.51450 3.68711 3.60184
# Velocity P-wave (km/s) = 5.40509 5.75864 5.58466
#
# Compressibility (1/GPa) = 0.03353940
#
# Stress axis : x y z
#
# Youngs Moduli (GPa) = 57.48503 38.80506 84.04543
#
# Poissons Ratio (x) = 0.10435 0.33975
# Poissons Ratio (y) = 0.15459 0.33875
# Poissons Ratio (z) = 0.23238 0.15641
#
# Static dielectric constant tensor:
#      x y z
#    x 1.927180 0.000000 0.000000 
#    y 0.000000 1.981330 0.000000 
#    z 0.000000 0.000000 1.942880 
# 
# From -- ./inp_files/5912.got.cif
#   From: 2010.05.17/outbox.cif.g08.bks.cpg/sg41_3_cif.got.tgz:5912.got - 2010.06.03 18:54:24.
