data_PCOD9365693
_publ_section_title
;
Structure prediction by ZEFSAII (Michael W. Deem and Ramdas Pophale) SiO2 
 PCOD9365693
Probable space group: A M A 2
;
_chemical_formula_sum "Si O2"
_cell_formula_units_Z 24
_cell_length_a 18.000000
_cell_length_b 12.000000
_cell_length_c 12.000000
_cell_angle_alpha 90.000000
_cell_angle_beta 90.000000
_cell_angle_gamma 90.000000
_cell_volume 2592.000000
_symmetry_space_group_name_H-M "A M A 2"
_symmetry_group_IT_number 40
_symmetry_cell_setting 'orthorhombic'
loop_
_space_group_symop_operation_xyz
x,y,z
-x,-y,z
1/2-x,y,z
1/2+x,-y,z
x,1/2+y,1/2+z
-x,1/2-y,1/2+z
1/2-x,1/2+y,1/2+z
1/2+x,1/2-y,1/2+z
loop_
_atom_site_type_symbol
_atom_site_label
_atom_site_fract_x
_atom_site_fract_y
_atom_site_fract_z
Si Si1 0.163132 0.596072 0.269160
Si Si2 0.159682 0.987726 0.526528
Si Si3 0.588056 0.326343 0.866738
Si Si4 0.420683 0.263428 0.933685
Si Si5 0.663227 0.595266 0.457280
Si Si6 0.423870 0.568458 0.620951
O O1 0.250000 0.629348 0.258410
O O2 0.140311 0.540884 0.149577
O O3 0.118714 0.699389 0.327714
O O4 0.158398 0.495247 0.357824
O O5 0.250000 0.980932 0.521485
O O6 0.126090 0.076727 0.439823
O O7 0.125519 0.866198 0.490994
O O8 0.500128 0.311664 0.893151
O O9 0.623965 0.208243 0.910191
O O10 0.597687 0.367811 0.737112
O O11 0.431688 0.166159 0.027267
O O12 0.750000 0.620594 0.479110
O O13 0.629133 0.527631 0.564152
O O14 0.500000 0.500000 0.640521
#
# Coordination Sequence:
#
# PCOD9365693 Si02
#       6
#     8   8   8   8   8   8
#     4   9  21  41  67  94 125 171 221 270 329 395
#     4  11  24  42  62  94 133 171 222 272 330 399
#     4  12  25  40  63  97 134 174 220 274 335 401
#     4  11  23  41  67  94 132 173 221 275 333 393
#     4  10  22  43  67  95 128 171 223 271 332 398
#     4  11  23  43  65  97 133 172 221 280 332 395
#
# _framework density 9.2592590000000001
#
# number of rings (size 3 to 8) (size 9 to 14) (size 15 to 20)
#    0.000    1.333    1.667    3.500    2.333    3.333 
#    3.000    0.000    0.000    0.000    0.000    0.000 
#    0.000    0.000    0.000    0.000    0.000    0.000 
#
# Total GULP energy -133850.631957 kJ/mol
# GULP energy per Si atom -5577.109665 kJ/mol
# Density = 0.923818 g / cm^3
# Si number density = 9.259259 Si / 1000 Ang^3
#
#
#
# Elastic Constant Matrix: (Units=GPa)
#
#
# Indices 1 2 3 4 5 6 
#
# 1 119.1822 56.1194 52.1749 0.0000 0.0000 0.0000
# 2 56.1194 141.2058 55.9242 0.0000 0.0000 0.0000
# 3 52.1749 55.9242 150.4127 0.0000 0.0000 0.0000
# 4 0.0000 0.0000 0.0000 44.9919 0.0000 0.0000
# 5 0.0000 0.0000 0.0000 0.0000 27.5367 0.0000
# 6 0.0000 0.0000 0.0000 0.0000 0.0000 47.1904
#
#
#
# Elastic Compliance Matrix: (Units=1/GPa)
#
#
# Indices 1 2 3 4 5 6 
#
# 1 0.011125 -0.003393 -0.002598 0.000000 0.000000 0.000000
# 2 -0.003393 0.009339 -0.002296 0.000000 0.000000 0.000000
# 3 -0.002598 -0.002296 0.008403 0.000000 0.000000 0.000000
# 4 0.000000 0.000000 0.000000 0.022226 0.000000 0.000000
# 5 0.000000 0.000000 0.000000 0.000000 0.036315 0.000000
# 6 0.000000 0.000000 0.000000 0.000000 0.000000 0.021191
#
#
# Mechanical properties :
#
#
# Convention : Reuss Voigt Hill
#
# Bulk Modulus (GPa) = 81.32947 82.13754 81.73350
# Shear Modulus (GPa) = 38.67870 40.38262 39.53066
#
# Velocity S-wave (km/s) = 4.57513 4.67482 4.62525
# Velocity P-wave (km/s) = 8.48071 8.57841 8.52970
#
# Compressibility (1/GPa) = 0.01229567
#
# Stress axis : x y z
#
# Youngs Moduli (GPa) = 89.88577 107.07352 119.00566
#
# Poissons Ratio (x) = 0.36327 0.30914
# Poissons Ratio (y) = 0.30495 0.27319
# Poissons Ratio (z) = 0.23349 0.24580
#
# Static dielectric constant tensor:
#      x y z
#    x 1.652950 0.000000 0.000000 
#    y 0.000000 1.627290 0.000000 
#    z 0.000000 0.000000 1.653150 
# 
# From -- ./inp_files/12923.got.cif
#   From: 2010.05.17/outbox.ucp.g08.bks.cvg/sg40_7_cif.got.tgz:12923.got - 2010.06.11 16:26:39.
