data_PCOD9365828
_publ_section_title
;
Structure prediction by ZEFSAII (Michael W. Deem and Ramdas Pophale) SiO2 
 PCOD9365828
Probable space group: A B A 2
;
_chemical_formula_sum "Si O2"
_cell_formula_units_Z 64
_cell_length_a 8.243910
_cell_length_b 19.021068
_cell_length_c 16.805245
_cell_angle_alpha 90.000000
_cell_angle_beta 90.000000
_cell_angle_gamma 90.000000
_cell_volume 2635.196399
_symmetry_space_group_name_H-M "A B A 2"
_symmetry_group_IT_number 41
_symmetry_cell_setting 'orthorhombic'
loop_
_space_group_symop_operation_xyz
x,y,z
-x,-y,z
1/2-x,y,1/2+z
1/2+x,-y,1/2+z
x,1/2+y,1/2+z
-x,1/2-y,1/2+z
1/2-x,1/2+y,z
1/2+x,1/2-y,z
loop_
_atom_site_type_symbol
_atom_site_label
_atom_site_fract_x
_atom_site_fract_y
_atom_site_fract_z
Si Si1 0.881416 0.405924 0.659360
Si Si2 0.485080 0.202920 0.336204
Si Si3 0.227202 0.738159 0.715826
Si Si4 0.242746 0.393814 0.677795
Si Si5 0.527399 0.663385 0.436293
Si Si6 0.155559 0.050627 0.340282
Si Si7 0.815595 0.580423 0.362699
Si Si8 0.950586 0.927123 0.575417
O O1 0.869277 0.321177 0.669256
O O2 0.833754 0.434752 0.746649
O O3 0.735750 0.429414 0.602516
O O4 0.071304 0.422473 0.644113
O O5 0.646880 0.235992 0.298110
O O6 0.383982 0.201805 0.254085
O O7 0.445652 0.257513 0.406354
O O8 0.519595 0.124633 0.364836
O O9 0.257304 0.809282 0.667864
O O10 0.246000 0.408098 0.772532
O O11 0.410349 0.423491 0.643159
O O12 0.390807 0.623379 0.382851
O O13 0.694288 0.621616 0.420785
O O14 0.474815 0.643675 0.524639
O O15 0.300556 0.002601 0.373791
O O16 0.000000 0.000000 0.351081
O O17 0.000000 0.000000 0.531306
#
# Coordination Sequence:
#
# PCOD9365828 Si02
#       8
#     8   8   8   8   8   8   8   8
#     4  12  22  41  73  99 136 186 223 287 343 415
#     4  11  19  37  68  98 128 168 223 276 332 397
#     4  11  19  39  67 105 131 167 229 288 329 403
#     4  11  22  43  68 102 136 176 231 285 346 406
#     4  11  21  44  63  93 136 183 218 272 353 406
#     4  10  18  36  71  97 121 176 231 271 341 405
#     4  10  19  36  69  97 120 170 227 278 322 403
#     4  12  29  43  65 102 143 180 230 287 349 415
#
# _framework density 24.286615000000001
#
# number of rings (size 3 to 8) (size 9 to 14) (size 15 to 20)
#    0.000    1.000    7.500    3.375    0.000    0.000 
#    2.250    1.250    0.000    1.500    0.000    0.000 
#    0.000    0.000    0.000    0.000    0.000    0.000 
#
# Total GULP energy -178701.240170 kJ/mol
# GULP energy per Si atom -5584.413755 kJ/mol
# Density = 2.423134 g / cm^3
# Si number density = 24.286615 Si / 1000 Ang^3
#
#
#
# Elastic Constant Matrix: (Units=GPa)
#
#
# Indices 1 2 3 4 5 6 
#
# 1 82.0736 37.9346 21.3593 0.0000 0.0000 0.0000
# 2 37.9346 129.3293 -15.4854 0.0000 0.0000 0.0000
# 3 21.3593 -15.4854 37.7097 0.0000 0.0000 0.0000
# 4 0.0000 0.0000 0.0000 20.8954 0.0000 0.0000
# 5 0.0000 0.0000 0.0000 0.0000 13.9700 0.0000
# 6 0.0000 0.0000 0.0000 0.0000 0.0000 38.1841
#
#
#
# Elastic Compliance Matrix: (Units=1/GPa)
#
#
# Indices 1 2 3 4 5 6 
#
# 1 0.019144 -0.007271 -0.013829 0.000000 0.000000 0.000000
# 2 -0.007271 0.010894 0.008592 0.000000 0.000000 0.000000
# 3 -0.013829 0.008592 0.037880 0.000000 0.000000 0.000000
# 4 0.000000 0.000000 0.000000 0.047857 0.000000 0.000000
# 5 0.000000 0.000000 0.000000 0.000000 0.071582 0.000000
# 6 0.000000 0.000000 0.000000 0.000000 0.000000 0.026189
#
#
# Mechanical properties :
#
#
# Convention : Reuss Voigt Hill
#
# Bulk Modulus (GPa) = 23.30973 37.41440 30.36207
# Shear Modulus (GPa) = 19.77356 28.29683 24.03520
#
# Velocity S-wave (km/s) = 2.85647 3.41709 3.14928
# Velocity P-wave (km/s) = 4.52745 5.56843 5.07471
#
# Compressibility (1/GPa) = 0.04290054
#
# Stress axis : x y z
#
# Youngs Moduli (GPa) = 52.23588 91.79599 26.39932
#
# Poissons Ratio (x) = 0.66746 0.36508
# Poissons Ratio (y) = 0.37981 -0.22682
# Poissons Ratio (z) = 0.72238 -0.78871
#
# Static dielectric constant tensor:
#      x y z
#    x 2.059990 0.000000 0.000000 
#    y 0.000000 2.008730 0.000000 
#    z 0.000000 0.000000 1.881410 
# 
# From -- ./inp_files/9829.got.cif
#   From: 2010.05.17/outbox.cif.g08.bks.cpg/sg41_5_cif.got.tgz:9829.got - 2010.06.03 18:54:24.
