data_PCOD9365193
_publ_section_title
;
Structure prediction by ZEFSAII (Michael W. Deem and Ramdas Pophale) SiO2 
 PCOD9365193
Probable space group: A M A 2
;
_chemical_formula_sum "Si O2"
_cell_formula_units_Z 64
_cell_length_a 17.405322
_cell_length_b 12.209961
_cell_length_c 15.331160
_cell_angle_alpha 90.000000
_cell_angle_beta 90.000000
_cell_angle_gamma 90.000000
_cell_volume 3258.152103
_symmetry_space_group_name_H-M "A M A 2"
_symmetry_group_IT_number 40
_symmetry_cell_setting 'orthorhombic'
loop_
_space_group_symop_operation_xyz
x,y,z
-x,-y,z
1/2-x,y,z
1/2+x,-y,z
x,1/2+y,1/2+z
-x,1/2-y,1/2+z
1/2-x,1/2+y,1/2+z
1/2+x,1/2-y,1/2+z
loop_
_atom_site_type_symbol
_atom_site_label
_atom_site_fract_x
_atom_site_fract_y
_atom_site_fract_z
Si Si1 0.662744 0.204085 0.165740
Si Si2 0.423553 0.691045 0.786659
Si Si3 0.412894 0.023949 0.124724
Si Si4 0.907918 0.488196 0.928279
Si Si5 0.842816 0.433254 0.112804
Si Si6 0.399727 0.783898 0.343102
Si Si7 0.658741 0.414675 0.442629
Si Si8 0.657549 0.074285 0.781982
O O1 0.750000 0.184914 0.137781
O O2 0.628872 0.307153 0.113957
O O3 0.658042 0.244431 0.265194
O O4 0.618507 0.090784 0.161194
O O5 0.413340 0.616246 0.700182
O O6 0.393505 0.617924 0.868041
O O7 0.513940 0.712051 0.804955
O O8 0.381270 0.806875 0.779814
O O9 0.500000 0.000000 0.097178
O O10 0.363392 0.053856 0.040505
O O11 0.880501 0.596529 0.878912
O O12 0.000000 0.500000 0.936875
O O13 0.870733 0.483466 0.022811
O O14 0.750000 0.428837 0.115525
O O15 0.867397 0.501699 0.198101
O O16 0.388950 0.692479 0.415858
O O17 0.750000 0.393547 0.436589
O O18 0.639934 0.509023 0.371467
O O19 0.750000 0.086697 0.777419
#
# Coordination Sequence:
#
# PCOD9365193 Si02
#       8
#     8   8   8   8   8   8   8   8
#     4  11  22  42  69  91 125 175 219 263 321 387
#     4  11  24  44  65  95 134 169 217 274 335 389
#     4  12  25  44  67  99 134 171 216 276 329 393
#     4  10  23  42  64  92 127 165 211 266 322 385
#     4  10  23  42  64  94 127 167 215 261 316 383
#     4  11  22  44  68  92 128 173 218 273 320 387
#     4  11  26  45  66  98 135 176 225 270 326 397
#     4  10  24  44  62  90 135 173 213 271 327 391
#
# _framework density 19.643037
#
# number of rings (size 3 to 8) (size 9 to 14) (size 15 to 20)
#    0.000    1.250    3.750    1.125    5.250    4.500 
#    0.000    0.000    0.000    0.000    0.000    0.000 
#    0.000    0.000    0.000    0.000    0.000    0.000 
#
# Total GULP energy -178763.619811 kJ/mol
# GULP energy per Si atom -5586.363119 kJ/mol
# Density = 1.959833 g / cm^3
# Si number density = 19.643037 Si / 1000 Ang^3
#
#
#
# Elastic Constant Matrix: (Units=GPa)
#
#
# Indices 1 2 3 4 5 6 
#
# 1 35.5575 40.0530 24.0766 0.0000 0.0000 0.0000
# 2 40.0530 127.9885 38.7806 0.0000 0.0000 0.0000
# 3 24.0766 38.7806 115.6093 0.0000 0.0000 0.0000
# 4 0.0000 0.0000 0.0000 21.6871 0.0000 0.0000
# 5 0.0000 0.0000 0.0000 0.0000 33.8466 0.0000
# 6 0.0000 0.0000 0.0000 0.0000 0.0000 27.3141
#
#
#
# Elastic Compliance Matrix: (Units=1/GPa)
#
#
# Indices 1 2 3 4 5 6 
#
# 1 0.046188 -0.012845 -0.005310 0.000000 0.000000 0.000000
# 2 -0.012845 0.012270 -0.001441 0.000000 0.000000 0.000000
# 3 -0.005310 -0.001441 0.010239 0.000000 0.000000 0.000000
# 4 0.000000 0.000000 0.000000 0.046110 0.000000 0.000000
# 5 0.000000 0.000000 0.000000 0.000000 0.029545 0.000000
# 6 0.000000 0.000000 0.000000 0.000000 0.000000 0.036611
#
#
# Mechanical properties :
#
#
# Convention : Reuss Voigt Hill
#
# Bulk Modulus (GPa) = 33.89298 53.88619 43.88958
# Shear Modulus (GPa) = 21.74001 28.31923 25.02962
#
# Velocity S-wave (km/s) = 3.33040 3.80108 3.57350
# Velocity P-wave (km/s) = 5.66398 6.83788 6.27842
#
# Compressibility (1/GPa) = 0.02950464
#
# Stress axis : x y z
#
# Youngs Moduli (GPa) = 21.65045 81.50262 97.66598
#
# Poissons Ratio (x) = 1.04692 0.51863
# Poissons Ratio (y) = 0.27811 0.14070
# Poissons Ratio (z) = 0.11497 0.11741
#
# Static dielectric constant tensor:
#      x y z
#    x 1.686270 0.000000 0.000000 
#    y 0.000000 1.678490 0.000000 
#    z 0.000000 0.000000 1.658000 
# 
# From -- ./inp_files/17838.got.cif
#   From: 2010.05.17/outbox.cif.g08.bks.cpg/sg40_9_cif.got.tgz:17838.got - 2010.06.03 18:35:42.
