data_PCOD9365396
_publ_section_title
;
Structure prediction by ZEFSAII (Michael W. Deem and Ramdas Pophale) SiO2 
 PCOD9365396
Probable space group: A M A 2
;
_chemical_formula_sum "Si O2"
_cell_formula_units_Z 40
_cell_length_a 8.571894
_cell_length_b 21.562984
_cell_length_c 13.085070
_cell_angle_alpha 90.000000
_cell_angle_beta 90.000000
_cell_angle_gamma 90.000000
_cell_volume 2418.586937
_symmetry_space_group_name_H-M "A M A 2"
_symmetry_group_IT_number 40
_symmetry_cell_setting 'orthorhombic'
loop_
_space_group_symop_operation_xyz
x,y,z
-x,-y,z
1/2-x,y,z
1/2+x,-y,z
x,1/2+y,1/2+z
-x,1/2-y,1/2+z
1/2-x,1/2+y,1/2+z
1/2+x,1/2-y,1/2+z
loop_
_atom_site_type_symbol
_atom_site_label
_atom_site_fract_x
_atom_site_fract_y
_atom_site_fract_z
Si Si1 0.437604 0.301670 0.059840
Si Si2 0.559950 0.162774 0.339780
Si Si3 0.436769 0.430658 0.666164
Si Si4 0.938411 0.338509 0.498197
Si Si5 0.937682 0.801512 0.777021
O O1 0.250000 0.303146 0.062377
O O2 0.483561 0.229561 0.041415
O O3 0.500695 0.323609 0.168306
O O4 0.489538 0.338497 0.958296
O O5 0.750000 0.162635 0.339525
O O6 0.506931 0.108082 0.265652
O O7 0.511936 0.229870 0.295075
O O8 0.500000 0.500000 0.665161
O O9 0.250000 0.432210 0.668583
O O10 0.490167 0.391764 0.567486
O O11 0.750000 0.342232 0.502703
O O12 0.985565 0.338622 0.378833
O O13 0.750000 0.801519 0.774624
#
# Coordination Sequence:
#
# PCOD9365396 Si02
#       5
#     8   8   8   8   8
#     4   9  16  28  48  72  98 125 157 199 243 289
#     4   8  16  30  46  67  97 130 157 191 242 288
#     4  11  21  34  52  70  97 131 167 202 237 286
#     4   9  18  31  47  70 100 129 161 200 242 287
#     4   9  16  29  48  71 100 128 155 196 245 289
#
# _framework density 16.538581000000001
#
# number of rings (size 3 to 8) (size 9 to 14) (size 15 to 20)
#    0.000    2.800    2.000    3.000    0.000    0.800 
#    0.000    5.000    0.000    1.200    0.000    5.600 
#    0.000    0.000    0.000    0.000    0.000    0.000 
#
# Total GULP energy -111423.402958 kJ/mol
# GULP energy per Si atom -5571.170148 kJ/mol
# Density = 1.650094 g / cm^3
# Si number density = 16.538581 Si / 1000 Ang^3
#
#
#
# Elastic Constant Matrix: (Units=GPa)
#
#
# Indices 1 2 3 4 5 6 
#
# 1 13.7550 23.6624 30.0070 0.0000 0.0000 0.0000
# 2 23.6624 98.2263 75.7093 0.0000 0.0000 0.0000
# 3 30.0070 75.7093 191.7897 0.0000 0.0000 0.0000
# 4 0.0000 0.0000 0.0000 18.3019 0.0000 0.0000
# 5 0.0000 0.0000 0.0000 0.0000 28.2545 0.0000
# 6 0.0000 0.0000 0.0000 0.0000 0.0000 96.5992
#
#
#
# Elastic Compliance Matrix: (Units=1/GPa)
#
#
# Indices 1 2 3 4 5 6 
#
# 1 0.142516 -0.024643 -0.012570 0.000000 0.000000 0.000000
# 2 -0.024643 0.018894 -0.003603 0.000000 0.000000 0.000000
# 3 -0.012570 -0.003603 0.008603 0.000000 0.000000 0.000000
# 4 0.000000 0.000000 0.000000 0.054639 0.000000 0.000000
# 5 0.000000 0.000000 0.000000 0.000000 0.035393 0.000000
# 6 0.000000 0.000000 0.000000 0.000000 0.000000 0.010352
#
#
# Mechanical properties :
#
#
# Convention : Reuss Voigt Hill
#
# Bulk Modulus (GPa) = 11.31464 62.50315 36.90890
# Shear Modulus (GPa) = 13.10655 40.25728 26.68192
#
# Velocity S-wave (km/s) = 2.81816 4.93906 4.02096
# Velocity P-wave (km/s) = 4.17679 8.39048 6.62743
#
# Compressibility (1/GPa) = 0.08838107
#
# Stress axis : x y z
#
# Youngs Moduli (GPa) = 7.01676 52.92691 116.24023
#
# Poissons Ratio (x) = 1.30430 1.46110
# Poissons Ratio (y) = 0.17292 0.41879
# Poissons Ratio (z) = 0.08820 0.19068
#
# Static dielectric constant tensor:
#      x y z
#    x 1.564460 0.000000 0.000000 
#    y 0.000000 1.524750 0.000000 
#    z 0.000000 0.000000 1.583620 
# 
# From -- ./inp_files/5287.got.cif
#   From: 2010.05.17/outbox.cif.g08.bks.cpg/sg40_3_cif.got.tgz:5287.got - 2010.06.03 18:35:42.
