data_PCOD9365894
_publ_section_title
;
Structure prediction by ZEFSAII (Michael W. Deem and Ramdas Pophale) SiO2 
 PCOD9365894
Probable space group: A B A 2
;
_chemical_formula_sum "Si O2"
_cell_formula_units_Z 64
_cell_length_a 7.801928
_cell_length_b 20.551111
_cell_length_c 16.143983
_cell_angle_alpha 90.000000
_cell_angle_beta 90.000000
_cell_angle_gamma 90.000000
_cell_volume 2588.498601
_symmetry_space_group_name_H-M "A B A 2"
_symmetry_group_IT_number 41
_symmetry_cell_setting 'orthorhombic'
loop_
_space_group_symop_operation_xyz
x,y,z
-x,-y,z
1/2-x,y,1/2+z
1/2+x,-y,1/2+z
x,1/2+y,1/2+z
-x,1/2-y,1/2+z
1/2-x,1/2+y,z
1/2+x,1/2-y,z
loop_
_atom_site_type_symbol
_atom_site_label
_atom_site_fract_x
_atom_site_fract_y
_atom_site_fract_z
Si Si1 0.463456 0.226588 0.980340
Si Si2 0.292669 0.535951 0.735647
Si Si3 0.707331 0.464049 0.541014
Si Si4 0.634933 0.838641 0.732197
Si Si5 0.463456 0.726588 0.796322
Si Si6 0.139678 0.904410 0.473341
Si Si7 0.865067 0.338641 0.544465
Si Si8 0.139678 0.904410 0.803321
O O1 0.500000 0.250000 0.888331
O O2 0.597312 0.168824 0.002675
O O3 0.474635 0.292251 0.033535
O O4 0.279456 0.194326 0.988804
O O5 0.343107 0.543110 0.638331
O O6 0.134499 0.584898 0.750905
O O7 0.262656 0.460147 0.751545
O O8 0.445599 0.563791 0.795056
O O9 0.554401 0.436209 0.481606
O O10 0.737344 0.539853 0.525117
O O11 0.865501 0.415102 0.525757
O O12 0.474635 0.792251 0.743127
O O13 0.695511 0.832270 0.638331
O O14 0.779456 0.805674 0.787858
O O15 0.597312 0.668824 0.773987
O O16 0.250000 0.899947 0.388331
#
# Coordination Sequence:
#
# PCOD9365894 Si02
#       8
#     8   8   8   8   8   8   8   8
#     4  11  22  37  56  84 116 147 183 230 283 336
#     4   9  20  37  56  79 109 146 188 232 278 334
#     4   9  20  37  56  79 109 146 188 232 278 334
#     4  10  21  37  58  82 110 147 189 231 278 333
#     4  11  22  37  56  84 116 147 183 230 283 336
#     4  10  19  32  53  81 107 141 183 227 277 331
#     4  10  21  37  58  82 110 147 189 231 278 333
#     4  10  19  32  53  81 107 141 183 227 277 331
#
# _framework density 24.724757
#
# number of rings (size 3 to 8) (size 9 to 14) (size 15 to 20)
#    0.000    2.000    0.000    4.500    0.000    9.000 
#    0.000    0.000    0.000    0.000    0.000   29.750 
#    0.000    0.000    0.000    0.000    0.000    0.000 
#
# Total GULP energy -178296.792182 kJ/mol
# GULP energy per Si atom -5571.774756 kJ/mol
# Density = 2.466848 g / cm^3
# Si number density = 24.724757 Si / 1000 Ang^3
#
#
#
# Elastic Constant Matrix: (Units=GPa)
#
#
# Indices 1 2 3 4 5 6 
#
# 1 90.3625 32.5010 14.6865 0.0000 0.0000 0.0000
# 2 32.5010 168.8523 -12.0752 0.0000 0.0000 0.0000
# 3 14.6865 -12.0752 57.4811 0.0000 0.0000 0.0000
# 4 0.0000 0.0000 0.0000 35.9737 0.0000 0.0000
# 5 0.0000 0.0000 0.0000 0.0000 21.8366 0.0000
# 6 0.0000 0.0000 0.0000 0.0000 0.0000 18.3338
#
#
#
# Elastic Compliance Matrix: (Units=1/GPa)
#
#
# Indices 1 2 3 4 5 6 
#
# 1 0.012659 -0.002709 -0.003803 0.000000 0.000000 0.000000
# 2 -0.002709 0.006592 0.002077 0.000000 0.000000 0.000000
# 3 -0.003803 0.002077 0.018805 0.000000 0.000000 0.000000
# 4 0.000000 0.000000 0.000000 0.027798 0.000000 0.000000
# 5 0.000000 0.000000 0.000000 0.000000 0.045795 0.000000
# 6 0.000000 0.000000 0.000000 0.000000 0.000000 0.054544
#
#
# Mechanical properties :
#
#
# Convention : Reuss Voigt Hill
#
# Bulk Modulus (GPa) = 34.26294 42.99116 38.62705
# Shear Modulus (GPa) = 27.05746 34.00106 30.52926
#
# Velocity S-wave (km/s) = 3.31168 3.71237 3.51773
# Velocity P-wave (km/s) = 5.33955 5.98341 5.67063
#
# Compressibility (1/GPa) = 0.02918606
#
# Stress axis : x y z
#
# Youngs Moduli (GPa) = 78.99572 151.69402 53.17711
#
# Poissons Ratio (x) = 0.41088 0.20225
# Poissons Ratio (y) = 0.21397 -0.11044
# Poissons Ratio (z) = 0.30045 -0.31505
#
# Static dielectric constant tensor:
#      x y z
#    x 2.106170 0.000000 0.000000 
#    y 0.000000 2.010960 0.000000 
#    z 0.000000 0.000000 1.991870 
# 
# From -- ./inp_files/9823.got.cif
#   From: 2010.05.17/outbox.cif.g08.bks.cpg/sg41_5_cif.got.tgz:9823.got - 2010.06.03 18:54:24.
