data_PCOD9365697
_publ_section_title
;
Structure prediction by ZEFSAII (Michael W. Deem and Ramdas Pophale) SiO2 
 PCOD9365697
Probable space group: A M A 2
;
_chemical_formula_sum "Si O2"
_cell_formula_units_Z 24
_cell_length_a 24.000000
_cell_length_b 12.000000
_cell_length_c 9.000000
_cell_angle_alpha 90.000000
_cell_angle_beta 90.000000
_cell_angle_gamma 90.000000
_cell_volume 2592.000000
_symmetry_space_group_name_H-M "A M A 2"
_symmetry_group_IT_number 40
_symmetry_cell_setting 'orthorhombic'
loop_
_space_group_symop_operation_xyz
x,y,z
-x,-y,z
1/2-x,y,z
1/2+x,-y,z
x,1/2+y,1/2+z
-x,1/2-y,1/2+z
1/2-x,1/2+y,1/2+z
1/2+x,1/2-y,1/2+z
loop_
_atom_site_type_symbol
_atom_site_label
_atom_site_fract_x
_atom_site_fract_y
_atom_site_fract_z
Si Si1 0.113241 0.138466 0.482590
Si Si2 0.536246 0.645449 0.461026
Si Si3 0.886705 0.491671 0.662267
Si Si4 0.817856 0.214704 0.191214
Si Si5 0.059869 0.442360 0.134721
Si Si6 0.906340 0.284562 0.456457
O O1 0.064965 0.233350 0.480593
O O2 0.165955 0.209912 0.545617
O O3 0.110889 0.069328 0.325452
O O4 0.102170 0.042308 0.602933
O O5 0.559629 0.565196 0.596267
O O6 0.557379 0.592259 0.306894
O O7 0.469989 0.666977 0.434003
O O8 0.838192 0.586181 0.663936
O O9 0.879734 0.384985 0.553770
O O10 0.750000 0.220771 0.220909
O O11 0.862321 0.255608 0.322412
O O12 0.000000 0.500000 0.093047
O O13 0.079237 0.332380 0.042496
#
# Coordination Sequence:
#
# PCOD9365697 Si02
#       6
#     8   8   8   8   8   8
#     4  11  23  42  67  99 137 178 225 279 341 418
#     4  11  24  39  66 104 144 176 215 277 352 422
#     4  11  24  43  69  99 135 174 229 285 346 410
#     4  11  27  48  69  93 130 187 240 288 337 398
#     4  12  22  38  64  99 144 180 213 269 345 420
#     4  12  24  41  69 100 139 181 223 277 350 414
#
# _framework density 9.2592590000000001
#
# number of rings (size 3 to 8) (size 9 to 14) (size 15 to 20)
#    0.000    0.667    5.000    3.500    2.333    4.000 
#    0.000    0.000    0.000    0.000    0.000    0.000 
#    0.000    0.000    0.000    0.000    0.000    0.000 
#
# Total GULP energy -133727.534174 kJ/mol
# GULP energy per Si atom -5571.980591 kJ/mol
# Density = 0.923818 g / cm^3
# Si number density = 9.259259 Si / 1000 Ang^3
#
#
#
# Elastic Constant Matrix: (Units=GPa)
#
#
# Indices 1 2 3 4 5 6 
#
# 1 126.3560 39.2244 47.4033 0.0000 0.0000 0.0000
# 2 39.2244 174.6987 57.5843 0.0000 0.0000 0.0000
# 3 47.4033 57.5843 109.5750 0.0000 0.0000 0.0000
# 4 0.0000 0.0000 0.0000 53.8233 0.0000 0.0000
# 5 0.0000 0.0000 0.0000 0.0000 28.8493 0.0000
# 6 0.0000 0.0000 0.0000 0.0000 0.0000 31.9536
#
#
#
# Elastic Compliance Matrix: (Units=1/GPa)
#
#
# Indices 1 2 3 4 5 6 
#
# 1 0.009576 -0.000949 -0.003644 0.000000 0.000000 0.000000
# 2 -0.000949 0.007017 -0.003277 0.000000 0.000000 0.000000
# 3 -0.003644 -0.003277 0.012425 0.000000 0.000000 0.000000
# 4 0.000000 0.000000 0.000000 0.018579 0.000000 0.000000
# 5 0.000000 0.000000 0.000000 0.000000 0.034663 0.000000
# 6 0.000000 0.000000 0.000000 0.000000 0.000000 0.031295
#
#
# Mechanical properties :
#
#
# Convention : Reuss Voigt Hill
#
# Bulk Modulus (GPa) = 75.31360 77.67261 76.49311
# Shear Modulus (GPa) = 37.39102 40.68641 39.03871
#
# Velocity S-wave (km/s) = 4.49833 4.69237 4.59638
# Velocity P-wave (km/s) = 8.23029 8.44938 8.34055
#
# Compressibility (1/GPa) = 0.01327781
#
# Stress axis : x y z
#
# Youngs Moduli (GPa) = 104.43051 142.50142 80.48366
#
# Poissons Ratio (x) = 0.13522 0.29327
# Poissons Ratio (y) = 0.09909 0.26377
# Poissons Ratio (z) = 0.38053 0.46703
#
# Static dielectric constant tensor:
#      x y z
#    x 1.652470 0.000000 0.000000 
#    y 0.000000 1.659760 0.000000 
#    z 0.000000 0.000000 1.697960 
# 
# From -- ./inp_files/8742.got.cif
#   From: 2010.05.17/outbox.ucp.g08.bks.cvg/sg40_5_cif.got.tgz:8742.got - 2010.06.11 16:26:39.
