data_PCOD9365398
_publ_section_title
;
Structure prediction by ZEFSAII (Michael W. Deem and Ramdas Pophale) SiO2 
 PCOD9365398
Probable space group: A M A 2
;
_chemical_formula_sum "Si O2"
_cell_formula_units_Z 48
_cell_length_a 21.774165
_cell_length_b 21.880137
_cell_length_c 5.133892
_cell_angle_alpha 90.000000
_cell_angle_beta 90.000000
_cell_angle_gamma 90.000000
_cell_volume 2445.897622
_symmetry_space_group_name_H-M "A M A 2"
_symmetry_group_IT_number 40
_symmetry_cell_setting 'orthorhombic'
loop_
_space_group_symop_operation_xyz
x,y,z
-x,-y,z
1/2-x,y,z
1/2+x,-y,z
x,1/2+y,1/2+z
-x,1/2-y,1/2+z
1/2-x,1/2+y,1/2+z
1/2+x,1/2-y,1/2+z
loop_
_atom_site_type_symbol
_atom_site_label
_atom_site_fract_x
_atom_site_fract_y
_atom_site_fract_z
Si Si1 0.068882 0.522674 0.309440
Si Si2 0.677736 0.168241 0.198804
Si Si3 0.617830 0.107719 0.700077
Si Si4 0.928699 0.894989 0.296808
Si Si5 0.402860 0.218118 0.595131
Si Si6 0.992544 0.674263 0.442801
O O1 0.110955 0.464342 0.245596
O O2 0.091875 0.563628 0.552113
O O3 0.000000 0.500000 0.379786
O O4 0.064376 0.561940 0.046247
O O5 0.750000 0.167872 0.243930
O O6 0.643131 0.130651 0.424835
O O7 0.651317 0.237390 0.183681
O O8 0.660215 0.137166 0.924717
O O9 0.550193 0.135025 0.754624
O O10 0.888998 0.836564 0.394827
O O11 0.993028 0.864636 0.200531
O O12 0.454396 0.264106 0.480021
O O13 0.440417 0.188422 0.831785
#
# Coordination Sequence:
#
# PCOD9365398 Si02
#       6
#     8   8   8   8   8   8
#     4  12  24  36  60  93 135 171 203 253 317 403
#     4  11  26  45  70  94 121 171 229 281 321 378
#     4  11  24  42  66  95 132 169 219 271 331 387
#     4  12  23  35  56  93 138 165 207 249 326 400
#     4  11  22  36  64  91 138 162 211 264 329 399
#     4  11  21  35  60  97 131 171 200 259 333 395
#
# _framework density 19.624697999999999
#
# number of rings (size 3 to 8) (size 9 to 14) (size 15 to 20)
#    0.000    0.667    5.000    3.000    9.333    0.000 
#    0.000    0.000    0.000    6.000    0.000    0.000 
#    0.000    0.000    0.000    0.000    0.000    0.000 
#
# Total GULP energy -134046.936655 kJ/mol
# GULP energy per Si atom -5585.289027 kJ/mol
# Density = 1.958003 g / cm^3
# Si number density = 19.624698 Si / 1000 Ang^3
#
#
#
# Elastic Constant Matrix: (Units=GPa)
#
#
# Indices 1 2 3 4 5 6 
#
# 1 70.1185 32.5684 11.7412 0.0000 0.0000 0.0000
# 2 32.5684 139.4508 47.2408 0.0000 0.0000 0.0000
# 3 11.7412 47.2408 108.6685 0.0000 0.0000 0.0000
# 4 0.0000 0.0000 0.0000 42.0325 0.0000 0.0000
# 5 0.0000 0.0000 0.0000 0.0000 16.6233 0.0000
# 6 0.0000 0.0000 0.0000 0.0000 0.0000 10.8857
#
#
#
# Elastic Compliance Matrix: (Units=1/GPa)
#
#
# Indices 1 2 3 4 5 6 
#
# 1 0.015998 -0.003695 -0.000122 0.000000 0.000000 0.000000
# 2 -0.003695 0.009263 -0.003628 0.000000 0.000000 0.000000
# 3 -0.000122 -0.003628 0.010792 0.000000 0.000000 0.000000
# 4 0.000000 0.000000 0.000000 0.023791 0.000000 0.000000
# 5 0.000000 0.000000 0.000000 0.000000 0.060157 0.000000
# 6 0.000000 0.000000 0.000000 0.000000 0.000000 0.091863
#
#
# Mechanical properties :
#
#
# Convention : Reuss Voigt Hill
#
# Bulk Modulus (GPa) = 47.24991 55.70427 51.47709
# Shear Modulus (GPa) = 21.38500 29.02080 25.20290
#
# Velocity S-wave (km/s) = 3.30464 3.84968 3.58752
# Velocity P-wave (km/s) = 6.22012 6.94308 6.59152
#
# Compressibility (1/GPa) = 0.02116406
#
# Stress axis : x y z
#
# Youngs Moduli (GPa) = 62.50683 107.95863 92.65705
#
# Poissons Ratio (x) = 0.39890 0.01133
# Poissons Ratio (y) = 0.23096 0.33612
# Poissons Ratio (z) = 0.00764 0.39162
#
# Static dielectric constant tensor:
#      x y z
#    x 1.651390 0.000000 0.000000 
#    y 0.000000 1.757980 0.000000 
#    z 0.000000 0.000000 1.749300 
# 
# From -- ./inp_files/2769.got.cif
#   From: 2010.05.17/outbox.cif.g08.bks.cpg/sg40_2_cif.got.tgz:2769.got - 2010.06.03 18:35:42.
