data_PCOD9365580
_publ_section_title
;
Structure prediction by ZEFSAII (Michael W. Deem and Ramdas Pophale) SiO2 
 PCOD9365580
Probable space group: A M A 2
;
_chemical_formula_sum "Si O2"
_cell_formula_units_Z 36
_cell_length_a 18.083892
_cell_length_b 8.257711
_cell_length_c 12.897377
_cell_angle_alpha 90.000000
_cell_angle_beta 90.000000
_cell_angle_gamma 90.000000
_cell_volume 1925.985349
_symmetry_space_group_name_H-M "A M A 2"
_symmetry_group_IT_number 40
_symmetry_cell_setting 'orthorhombic'
loop_
_space_group_symop_operation_xyz
x,y,z
-x,-y,z
1/2-x,y,z
1/2+x,-y,z
x,1/2+y,1/2+z
-x,1/2-y,1/2+z
1/2-x,1/2+y,1/2+z
1/2+x,1/2-y,1/2+z
loop_
_atom_site_type_symbol
_atom_site_label
_atom_site_fract_x
_atom_site_fract_y
_atom_site_fract_z
Si Si1 0.623003 0.660612 0.858570
Si Si2 0.750000 0.561454 0.213042
Si Si3 0.377918 0.140654 0.645136
Si Si4 0.750000 0.929439 0.275093
Si Si5 0.750000 0.134145 0.069978
Si Si6 0.000000 0.000000 0.498465
Si Si7 0.750000 0.868232 0.912556
O O1 0.605019 0.768109 0.755087
O O2 0.677050 0.510290 0.826948
O O3 0.676104 0.768878 0.931701
O O4 0.552809 0.602702 0.922421
O O5 0.671753 0.523882 0.157525
O O6 0.750000 0.736522 0.265345
O O7 0.750000 0.406277 0.290511
O O8 0.321946 0.257951 0.584750
O O9 0.448590 0.104963 0.575226
O O10 0.750000 0.998980 0.158954
O O11 0.750000 0.039597 0.964614
#
# Coordination Sequence:
#
# PCOD9365580 Si02
#       7
#     8   4   8   4   4   4   4
#     4   9  22  42  56  89 123 153 205 251 294 366
#     4   9  19  36  67  87 113 153 205 268 290 333
#     4   9  22  42  56  89 123 153 205 251 294 366
#     4   9  19  36  67  87 113 153 205 268 290 333
#     4   9  19  38  63  87 112 148 212 255 288 350
#     4  12  24  38  66  82 136 170 182 244 320 372
#     4   9  19  38  63  87 112 148 212 255 288 350
#
# _framework density 18.691728999999999
#
# number of rings (size 3 to 8) (size 9 to 14) (size 15 to 20)
#    0.000    2.667    0.000    2.667    6.222    3.556 
#    8.000    0.000    0.000    0.000    0.000    0.000 
#    0.000    0.000    0.000    0.000    0.000    0.000 
#
# Total GULP energy -100257.516132 kJ/mol
# GULP energy per Si atom -5569.862007 kJ/mol
# Density = 1.864919 g / cm^3
# Si number density = 18.691729 Si / 1000 Ang^3
#
#
#
# Elastic Constant Matrix: (Units=GPa)
#
#
# Indices 1 2 3 4 5 6 
#
# 1 147.5677 56.7495 76.4302 0.0000 0.0000 0.0000
# 2 56.7495 108.3566 44.2847 0.0000 0.0000 0.0000
# 3 76.4302 44.2847 82.2489 0.0000 0.0000 0.0000
# 4 0.0000 0.0000 0.0000 20.3138 0.0000 0.0000
# 5 0.0000 0.0000 0.0000 0.0000 17.5266 0.0000
# 6 0.0000 0.0000 0.0000 0.0000 0.0000 1.7565
#
#
#
# Elastic Compliance Matrix: (Units=1/GPa)
#
#
# Indices 1 2 3 4 5 6 
#
# 1 0.013575 -0.002505 -0.011266 0.000000 0.000000 0.000000
# 2 -0.002505 0.012295 -0.004292 0.000000 0.000000 0.000000
# 3 -0.011266 -0.004292 0.024938 0.000000 0.000000 0.000000
# 4 0.000000 0.000000 0.000000 0.049228 0.000000 0.000000
# 5 0.000000 0.000000 0.000000 0.000000 0.057056 0.000000
# 6 0.000000 0.000000 0.000000 0.000000 0.000000 0.569312
#
#
# Mechanical properties :
#
#
# Convention : Reuss Voigt Hill
#
# Bulk Modulus (GPa) = 68.11056 77.01134 72.56095
# Shear Modulus (GPa) = 6.51531 18.63329 12.57430
#
# Velocity S-wave (km/s) = 1.86902 3.16076 2.59650
# Velocity P-wave (km/s) = 6.41682 7.38991 6.92049
#
# Compressibility (1/GPa) = 0.01468201
#
# Stress axis : x y z
#
# Youngs Moduli (GPa) = 73.66583 81.33433 40.10016
#
# Poissons Ratio (x) = 0.20377 0.45175
# Poissons Ratio (y) = 0.18456 0.17210
# Poissons Ratio (z) = 0.82988 0.34907
#
# Static dielectric constant tensor:
#      x y z
#    x 1.641840 0.000000 0.000000 
#    y 0.000000 1.640330 0.000000 
#    z 0.000000 0.000000 1.693060 
# 
# From -- ./inp_files/6116.got.cif
#   From: 2010.05.17/outbox.cif.g08.bks.cpg/sg40_4_cif.got.tgz:6116.got - 2010.06.03 18:35:42.
