data_PCOD9365886
_publ_section_title
;
Structure prediction by ZEFSAII (Michael W. Deem and Ramdas Pophale) SiO2 
 PCOD9365886
Probable space group: A B A 2
;
_chemical_formula_sum "Si O2"
_cell_formula_units_Z 60
_cell_length_a 15.484726
_cell_length_b 23.379888
_cell_length_c 8.711360
_cell_angle_alpha 90.000000
_cell_angle_beta 90.000000
_cell_angle_gamma 90.000000
_cell_volume 3153.783762
_symmetry_space_group_name_H-M "A B A 2"
_symmetry_group_IT_number 41
_symmetry_cell_setting 'orthorhombic'
loop_
_space_group_symop_operation_xyz
x,y,z
-x,-y,z
1/2-x,y,1/2+z
1/2+x,-y,1/2+z
x,1/2+y,1/2+z
-x,1/2-y,1/2+z
1/2-x,1/2+y,z
1/2+x,1/2-y,z
loop_
_atom_site_type_symbol
_atom_site_label
_atom_site_fract_x
_atom_site_fract_y
_atom_site_fract_z
Si Si1 0.184099 0.193319 0.295430
Si Si2 0.000000 0.500000 0.791260
Si Si3 0.833624 0.890346 0.908842
Si Si4 0.233223 0.535375 0.165036
Si Si5 0.158123 0.842287 0.256112
Si Si6 0.034233 0.621863 0.658568
Si Si7 0.169594 0.962044 0.406421
Si Si8 0.761296 0.227790 0.518098
O O1 0.270064 0.157530 0.338984
O O2 0.102381 0.152066 0.274656
O O3 0.197418 0.227381 0.136857
O O4 0.183050 0.240470 0.429199
O O5 0.029528 0.553528 0.687348
O O6 0.068136 0.470236 0.902046
O O7 0.840997 0.934134 0.765727
O O8 0.779910 0.921022 0.047869
O O9 0.922039 0.870722 0.989965
O O10 0.298100 0.511228 0.290964
O O11 0.205374 0.480133 0.069224
O O12 0.189378 0.900797 0.336154
O O13 0.171784 0.794818 0.389869
O O14 0.220534 0.822853 0.118825
O O15 0.061032 0.852542 0.192055
#
# Coordination Sequence:
#
# PCOD9365886 Si02
#       8
#     8   4   8   8   8   8   8   8
#     4  11  20  37  65  86 127 158 209 261 319 366
#     4  10  20  36  56  86 126 152 192 254 314 366
#     4  11  18  35  59  95 123 160 202 255 314 382
#     4  10  19  31  61  88 118 159 205 237 306 393
#     4  10  23  39  64  84 126 166 217 263 319 377
#     4  11  21  37  63  93 124 166 205 260 316 380
#     4  10  19  35  57  83 117 163 196 247 307 378
#     4  10  22  41  60  89 121 168 214 267 314 369
#
# _framework density 19.024766
#
# number of rings (size 3 to 8) (size 9 to 14) (size 15 to 20)
#    0.000    1.600    4.000    1.600    0.000    1.067 
#    0.000    0.667   17.600    0.000    0.000    0.000 
#    0.000    0.000    0.000    0.000    0.000    0.000 
#
# Total GULP energy -167054.049317 kJ/mol
# GULP energy per Si atom -5568.468311 kJ/mol
# Density = 1.898146 g / cm^3
# Si number density = 19.024766 Si / 1000 Ang^3
#
#
#
# Elastic Constant Matrix: (Units=GPa)
#
#
# Indices 1 2 3 4 5 6 
#
# 1 68.4221 28.2821 28.0088 0.0000 0.0000 0.0000
# 2 28.2821 89.3755 29.3191 0.0000 0.0000 0.0000
# 3 28.0088 29.3191 92.1696 0.0000 0.0000 0.0000
# 4 0.0000 0.0000 0.0000 44.8706 0.0000 0.0000
# 5 0.0000 0.0000 0.0000 0.0000 24.6948 0.0000
# 6 0.0000 0.0000 0.0000 0.0000 0.0000 27.8777
#
#
#
# Elastic Compliance Matrix: (Units=1/GPa)
#
#
# Indices 1 2 3 4 5 6 
#
# 1 0.018109 -0.004382 -0.004109 0.000000 0.000000 0.000000
# 2 -0.004382 0.013553 -0.002979 0.000000 0.000000 0.000000
# 3 -0.004109 -0.002979 0.013046 0.000000 0.000000 0.000000
# 4 0.000000 0.000000 0.000000 0.022286 0.000000 0.000000
# 5 0.000000 0.000000 0.000000 0.000000 0.040494 0.000000
# 6 0.000000 0.000000 0.000000 0.000000 0.000000 0.035871
#
#
# Mechanical properties :
#
#
# Convention : Reuss Voigt Hill
#
# Bulk Modulus (GPa) = 45.94315 46.79857 46.37086
# Shear Modulus (GPa) = 28.80917 30.44575 29.62746
#
# Velocity S-wave (km/s) = 3.89562 4.00474 3.95056
# Velocity P-wave (km/s) = 6.66604 6.78499 6.72578
#
# Compressibility (1/GPa) = 0.02176603
#
# Stress axis : x y z
#
# Youngs Moduli (GPa) = 55.22242 73.78487 76.65225
#
# Poissons Ratio (x) = 0.32336 0.31495
# Poissons Ratio (y) = 0.24201 0.22838
# Poissons Ratio (z) = 0.22690 0.21984
#
# Static dielectric constant tensor:
#      x y z
#    x 1.684850 0.000000 0.000000 
#    y 0.000000 1.738450 0.000000 
#    z 0.000000 0.000000 1.687490 
# 
# From -- ./inp_files/2755.got.cif
#   From: 2010.05.17/outbox.cif.g08.bks.cpg/sg41_2_cif.got.tgz:2755.got - 2010.06.03 18:54:24.
