data_PCOD9365139
_publ_section_title
;
Structure prediction by ZEFSAII (Michael W. Deem and Ramdas Pophale) SiO2 
 PCOD9365139
Probable space group: A M A 2
;
_chemical_formula_sum "Si O2"
_cell_formula_units_Z 24
_cell_length_a 11.363526
_cell_length_b 17.023389
_cell_length_c 5.023827
_cell_angle_alpha 90.000000
_cell_angle_beta 90.000000
_cell_angle_gamma 90.000000
_cell_volume 971.837849
_symmetry_space_group_name_H-M "A M A 2"
_symmetry_group_IT_number 40
_symmetry_cell_setting 'orthorhombic'
loop_
_space_group_symop_operation_xyz
x,y,z
-x,-y,z
1/2-x,y,z
1/2+x,-y,z
x,1/2+y,1/2+z
-x,1/2-y,1/2+z
1/2-x,1/2+y,1/2+z
1/2+x,1/2-y,1/2+z
loop_
_atom_site_type_symbol
_atom_site_label
_atom_site_fract_x
_atom_site_fract_y
_atom_site_fract_z
Si Si1 0.949207 0.724043 0.674140
Si Si2 0.385324 0.956024 0.066881
Si Si3 0.750000 0.940329 0.416153
Si Si4 0.250000 0.170997 0.912751
O O1 0.918224 0.633986 0.619757
O O2 0.858377 0.772705 0.855865
O O3 0.947152 0.768246 0.391507
O O4 0.250000 0.955273 0.945827
O O5 0.500000 0.000000 0.943227
O O6 0.359931 0.003847 0.340725
O O7 0.750000 0.897492 0.692928
O O8 0.750000 0.874059 0.187924
#
# Coordination Sequence:
#
# PCOD9365139 Si02
#       4
#     8   8   4   4
#     4  12  26  44  73 100 142 185 238 288 354 414
#     4  10  22  46  69 105 141 186 232 289 353 420
#     4  10  25  40  77  92 148 178 234 282 361 406
#     4  12  21  46  63 108 132 186 232 294 339 426
#
# _framework density 24.695477
#
# number of rings (size 3 to 8) (size 9 to 14) (size 15 to 20)
#    1.000    0.000    1.667    6.000    0.000    2.667 
#    0.000    6.667    0.000    0.000    0.000    0.000 
#    0.000    0.000    0.000    0.000    0.000    0.000 
#
# Total GULP energy -66924.199351 kJ/mol
# GULP energy per Si atom -5577.016613 kJ/mol
# Density = 2.463927 g / cm^3
# Si number density = 24.695477 Si / 1000 Ang^3
#
#
#
# Elastic Constant Matrix: (Units=GPa)
#
#
# Indices 1 2 3 4 5 6 
#
# 1 97.5374 58.2285 42.6214 0.0000 0.0000 0.0000
# 2 58.2285 213.2133 49.7452 0.0000 0.0000 0.0000
# 3 42.6214 49.7452 136.7714 0.0000 0.0000 0.0000
# 4 0.0000 0.0000 0.0000 24.3075 0.0000 0.0000
# 5 0.0000 0.0000 0.0000 0.0000 22.1402 0.0000
# 6 0.0000 0.0000 0.0000 0.0000 0.0000 58.0458
#
#
#
# Elastic Compliance Matrix: (Units=1/GPa)
#
#
# Indices 1 2 3 4 5 6 
#
# 1 0.013351 -0.002924 -0.003097 0.000000 0.000000 0.000000
# 2 -0.002924 0.005765 -0.001186 0.000000 0.000000 0.000000
# 3 -0.003097 -0.001186 0.008708 0.000000 0.000000 0.000000
# 4 0.000000 0.000000 0.000000 0.041139 0.000000 0.000000
# 5 0.000000 0.000000 0.000000 0.000000 0.045167 0.000000
# 6 0.000000 0.000000 0.000000 0.000000 0.000000 0.017228
#
#
# Mechanical properties :
#
#
# Convention : Reuss Voigt Hill
#
# Bulk Modulus (GPa) = 74.56496 83.19024 78.87760
# Shear Modulus (GPa) = 33.27965 40.69386 36.98675
#
# Velocity S-wave (km/s) = 3.67495 4.06375 3.87423
# Velocity P-wave (km/s) = 6.94740 7.46849 7.21265
#
# Compressibility (1/GPa) = 0.01341113
#
# Stress axis : x y z
#
# Youngs Moduli (GPa) = 74.89944 173.45343 114.83775
#
# Poissons Ratio (x) = 0.50711 0.35568
# Poissons Ratio (y) = 0.21898 0.13618
# Poissons Ratio (z) = 0.23198 0.20568
#
# Static dielectric constant tensor:
#      x y z
#    x 2.085310 0.000000 0.000000 
#    y 0.000000 1.846930 0.000000 
#    z 0.000000 0.000000 1.931500 
# 
# From -- ./inp_files/513.got.cif
#   From: 2010.05.17/outbox.cif.g08.bks.cpg/sg40_1_cif.got.tgz:513.got - 2010.06.03 18:35:42.
