data_PCOD9365590
_publ_section_title
;
Structure prediction by ZEFSAII (Michael W. Deem and Ramdas Pophale) SiO2 
 PCOD9365590
Probable space group: A M A 2
;
_chemical_formula_sum "Si O2"
_cell_formula_units_Z 32
_cell_length_a 13.984167
_cell_length_b 20.364841
_cell_length_c 4.808820
_cell_angle_alpha 90.000000
_cell_angle_beta 90.000000
_cell_angle_gamma 90.000000
_cell_volume 1369.481427
_symmetry_space_group_name_H-M "A M A 2"
_symmetry_group_IT_number 40
_symmetry_cell_setting 'orthorhombic'
loop_
_space_group_symop_operation_xyz
x,y,z
-x,-y,z
1/2-x,y,z
1/2+x,-y,z
x,1/2+y,1/2+z
-x,1/2-y,1/2+z
1/2-x,1/2+y,1/2+z
1/2+x,1/2-y,1/2+z
loop_
_atom_site_type_symbol
_atom_site_label
_atom_site_fract_x
_atom_site_fract_y
_atom_site_fract_z
Si Si1 0.067506 0.752732 0.626440
Si Si2 0.093401 0.968733 0.368173
Si Si3 0.250000 0.163467 0.058741
Si Si4 0.358449 0.887961 0.843651
Si Si5 0.750000 0.927246 0.552187
O O1 0.152196 0.704840 0.521597
O O2 0.116975 0.812863 0.789041
O O3 0.005146 0.775718 0.359975
O O4 0.071265 0.929067 0.647974
O O5 0.161353 0.027897 0.462141
O O6 0.135602 0.916524 0.151691
O O7 0.000000 0.000000 0.238271
O O8 0.250000 0.098023 0.867988
O O9 0.250000 0.139184 0.375306
O O10 0.250000 0.900425 0.743927
#
# Coordination Sequence:
#
# PCOD9365590 Si02
#       5
#     8   8   4   8   4
#     4  12  28  48  75 109 146 198 249 301 373 433
#     4  12  27  45  74 106 141 189 240 299 365 432
#     4  12  28  48  72 108 154 192 240 309 366 439
#     4  12  24  50  73 100 144 191 247 299 354 435
#     4  12  26  46  72 106 152 188 236 301 374 435
#
# _framework density 23.366506999999999
#
# number of rings (size 3 to 8) (size 9 to 14) (size 15 to 20)
#    0.000    0.000    3.750    5.250   10.500    0.000 
#    0.000    0.000    0.000    0.000    0.000    0.000 
#    0.000    0.000    0.000    0.000    0.000    0.000 
#
# Total GULP energy -89512.963182 kJ/mol
# GULP energy per Si atom -5594.560199 kJ/mol
# Density = 2.331332 g / cm^3
# Si number density = 23.366507 Si / 1000 Ang^3
#
#
#
# Elastic Constant Matrix: (Units=GPa)
#
#
# Indices 1 2 3 4 5 6 
#
# 1 82.1502 38.0010 14.7654 0.0000 0.0000 0.0000
# 2 38.0010 89.6986 13.2976 0.0000 0.0000 0.0000
# 3 14.7654 13.2976 114.0069 0.0000 0.0000 0.0000
# 4 0.0000 0.0000 0.0000 45.8160 0.0000 0.0000
# 5 0.0000 0.0000 0.0000 0.0000 14.9994 0.0000
# 6 0.0000 0.0000 0.0000 0.0000 0.0000 31.5295
#
#
#
# Elastic Compliance Matrix: (Units=1/GPa)
#
#
# Indices 1 2 3 4 5 6 
#
# 1 0.015312 -0.006302 -0.001248 0.000000 0.000000 0.000000
# 2 -0.006302 0.013938 -0.000810 0.000000 0.000000 0.000000
# 3 -0.001248 -0.000810 0.009027 0.000000 0.000000 0.000000
# 4 0.000000 0.000000 0.000000 0.021826 0.000000 0.000000
# 5 0.000000 0.000000 0.000000 0.000000 0.066669 0.000000
# 6 0.000000 0.000000 0.000000 0.000000 0.000000 0.031716
#
#
# Mechanical properties :
#
#
# Convention : Reuss Voigt Hill
#
# Bulk Modulus (GPa) = 46.38489 46.44263 46.41376
# Shear Modulus (GPa) = 27.41288 33.12177 30.26732
#
# Velocity S-wave (km/s) = 3.42887 3.76904 3.60297
# Velocity P-wave (km/s) = 5.96409 6.23376 6.10041
#
# Compressibility (1/GPa) = 0.02155874
#
# Stress axis : x y z
#
# Youngs Moduli (GPa) = 65.30675 71.74455 110.77303
#
# Poissons Ratio (x) = 0.45214 0.13825
# Poissons Ratio (y) = 0.41157 0.08968
# Poissons Ratio (z) = 0.08151 0.05808
#
# Static dielectric constant tensor:
#      x y z
#    x 1.859320 0.000000 0.000000 
#    y 0.000000 1.893500 0.000000 
#    z 0.000000 0.000000 1.826130 
# 
# From -- ./inp_files/1065.got.cif
#   From: 2010.05.17/outbox.cif.g08.bks.cpg/sg40_1_cif.got.tgz:1065.got - 2010.06.03 18:35:42.
