data_PCOD9365986
_publ_section_title
;
Structure prediction by ZEFSAII (Michael W. Deem and Ramdas Pophale) SiO2 
 PCOD9365986
Probable space group: A B A 2
;
_chemical_formula_sum "Si O2"
_cell_formula_units_Z 32
_cell_length_a 14.861401
_cell_length_b 4.781959
_cell_length_c 20.402143
_cell_angle_alpha 90.000000
_cell_angle_beta 90.000000
_cell_angle_gamma 90.000000
_cell_volume 1449.911145
_symmetry_space_group_name_H-M "A B A 2"
_symmetry_group_IT_number 41
_symmetry_cell_setting 'orthorhombic'
loop_
_space_group_symop_operation_xyz
x,y,z
-x,-y,z
1/2-x,y,1/2+z
1/2+x,-y,1/2+z
x,1/2+y,1/2+z
-x,1/2-y,1/2+z
1/2-x,1/2+y,z
1/2+x,1/2-y,z
loop_
_atom_site_type_symbol
_atom_site_label
_atom_site_fract_x
_atom_site_fract_y
_atom_site_fract_z
Si Si1 0.059083 0.751568 0.514910
Si Si2 0.686402 0.019824 0.622246
Si Si3 0.188385 0.600151 0.764759
Si Si4 0.685900 0.466505 0.409142
O O1 0.120477 0.590819 0.567169
O O2 0.116684 0.917628 0.461257
O O3 0.000000 0.500000 0.484606
O O4 0.000000 0.000000 0.546845
O O5 0.777749 0.833895 0.616313
O O6 0.646010 0.972268 0.694957
O O7 0.282173 0.422793 0.764335
O O8 0.352059 0.019137 0.834830
O O9 0.723977 0.155149 0.417048
#
# Coordination Sequence:
#
# PCOD9365986 Si02
#       4
#     8   8   8   8
#     4  12  24  36  52  82 120 152 184 230 282 338
#     4  10  19  36  59  81 105 144 190 233 277 332
#     4   8  16  30  55  82 101 128 182 236 270 314
#     4  10  19  36  59  81 105 144 190 233 277 332
#
# _framework density 22.070318
#
# number of rings (size 3 to 8) (size 9 to 14) (size 15 to 20)
#    0.000    2.000    0.000    4.500    0.000    0.000 
#    0.000    1.250    0.000    3.000    0.000    0.000 
#    0.000    0.000    0.000    0.000    0.000    0.000 
#
# Total GULP energy -89313.530106 kJ/mol
# GULP energy per Si atom -5582.095632 kJ/mol
# Density = 2.202008 g / cm^3
# Si number density = 22.070318 Si / 1000 Ang^3
#
#
#
# Elastic Constant Matrix: (Units=GPa)
#
#
# Indices 1 2 3 4 5 6 
#
# 1 31.6578 0.7967 35.3678 0.0000 0.0000 0.0000
# 2 0.7967 84.4244 0.7507 0.0000 0.0000 0.0000
# 3 35.3678 0.7507 141.5230 0.0000 0.0000 0.0000
# 4 0.0000 0.0000 0.0000 34.4645 0.0000 0.0000
# 5 0.0000 0.0000 0.0000 0.0000 -19.0381 0.0000
# 6 0.0000 0.0000 0.0000 0.0000 0.0000 -0.1401
#
#
#
# Elastic Compliance Matrix: (Units=1/GPa)
#
#
# Indices 1 2 3 4 5 6 
#
# 1 0.043831 -0.000316 -0.010952 0.000000 0.000000 0.000000
# 2 -0.000316 0.011848 0.000016 0.000000 0.000000 0.000000
# 3 -0.010952 0.000016 0.009803 0.000000 0.000000 0.000000
# 4 0.000000 0.000000 0.000000 0.029015 0.000000 0.000000
# 5 0.000000 0.000000 0.000000 0.000000 -0.052526 0.000000
# 6 0.000000 0.000000 0.000000 0.000000 0.000000 -7.138391
#
#
# Mechanical properties :
#
#
# Convention : Reuss Voigt Hill
#
# Bulk Modulus (GPa) = 23.26792 36.82618 30.04705
# Shear Modulus (GPa) = -0.70826 17.76993 8.53084
#
# Velocity S-wave (km/s) = -0.56710 2.84060 1.96817
# Velocity P-wave (km/s) = 3.18382 5.24220 4.33690
#
# Compressibility (1/GPa) = 0.04297762
#
# Stress axis : x y z
#
# Youngs Moduli (GPa) = 22.81471 84.40413 102.01024
#
# Poissons Ratio (x) = 0.02669 1.11723
# Poissons Ratio (y) = 0.00722 -0.00165
# Poissons Ratio (z) = 0.24987 -0.00137
#
# Static dielectric constant tensor:
#      x y z
#    x 1.799510 0.000000 0.000000 
#    y 0.000000 1.781730 0.000000 
#    z 0.000000 0.000000 1.859430 
# 
# From -- ./inp_files/81.got.cif
#   From: 2010.05.17/outbox.cif.g08.bks.cpg/sg41_1_cif.got.tgz:81.got - 2010.06.03 18:54:24.
