data_PCOD9365568
_publ_section_title
;
Structure prediction by ZEFSAII (Michael W. Deem and Ramdas Pophale) SiO2 
 PCOD9365568
Probable space group: A M A 2
;
_chemical_formula_sum "Si O2"
_cell_formula_units_Z 40
_cell_length_a 10.227118
_cell_length_b 10.019953
_cell_length_c 19.905481
_cell_angle_alpha 90.000000
_cell_angle_beta 90.000000
_cell_angle_gamma 90.000000
_cell_volume 2039.818976
_symmetry_space_group_name_H-M "A M A 2"
_symmetry_group_IT_number 40
_symmetry_cell_setting 'orthorhombic'
loop_
_space_group_symop_operation_xyz
x,y,z
-x,-y,z
1/2-x,y,z
1/2+x,-y,z
x,1/2+y,1/2+z
-x,1/2-y,1/2+z
1/2-x,1/2+y,1/2+z
1/2+x,1/2-y,1/2+z
loop_
_atom_site_type_symbol
_atom_site_label
_atom_site_fract_x
_atom_site_fract_y
_atom_site_fract_z
Si Si1 0.250000 0.292552 0.869841
Si Si2 0.750000 0.489164 0.299125
Si Si3 0.250000 0.549807 0.771233
Si Si4 0.500000 0.000000 0.707532
Si Si5 0.250000 0.266265 0.381661
Si Si6 0.500000 0.500000 0.678877
Si Si7 0.999756 0.839497 0.460115
Si Si8 0.908686 0.767259 0.607024
O O1 0.250000 0.166122 0.819962
O O2 0.250000 0.426835 0.824478
O O3 0.374322 0.291824 0.918999
O O4 0.623249 0.525139 0.255512
O O5 0.750000 0.577868 0.366023
O O6 0.250000 0.686727 0.811853
O O7 0.378989 0.540977 0.726021
O O8 0.458422 0.123202 0.660441
O O9 0.124282 0.218943 0.421740
O O10 0.550806 0.622897 0.634509
O O11 0.982074 0.795397 0.537011
O O12 0.000000 0.000000 0.458128
O O13 0.750000 0.777269 0.599551
#
# Coordination Sequence:
#
# PCOD9365568 Si02
#       8
#     4   4   4   4   4   4   8   8
#     4  12  26  44  71 107 141 181 232 293 343 415
#     4  12  26  44  68 108 146 178 234 286 360 416
#     4  12  22  44  70 104 144 180 234 280 344 434
#     4  12  24  46  76 100 144 192 228 286 352 420
#     4  12  24  42  71  97 137 185 228 285 345 409
#     4  12  26  44  72 106 142 184 226 290 362 406
#     4  12  24  46  73  97 136 188 238 285 344 413
#     4  12  26  48  73 104 143 182 241 296 338 417
#
# _framework density 19.609583000000001
#
# number of rings (size 3 to 8) (size 9 to 14) (size 15 to 20)
#    0.000    0.000    6.000    4.800    0.000    3.200 
#    0.000    0.000    0.000    0.000    0.000    0.000 
#    0.000    0.000    0.000    0.000    0.000    0.000 
#
# Total GULP energy -111941.963447 kJ/mol
# GULP energy per Si atom -5597.098172 kJ/mol
# Density = 1.956495 g / cm^3
# Si number density = 19.609583 Si / 1000 Ang^3
#
#
#
# Elastic Constant Matrix: (Units=GPa)
#
#
# Indices 1 2 3 4 5 6 
#
# 1 144.9591 -2.4244 44.5323 0.0000 0.0000 0.0000
# 2 -2.4244 75.5740 10.8071 0.0000 0.0000 0.0000
# 3 44.5323 10.8071 93.0447 0.0000 0.0000 0.0000
# 4 0.0000 0.0000 0.0000 62.2103 0.0000 0.0000
# 5 0.0000 0.0000 0.0000 0.0000 33.0171 0.0000
# 6 0.0000 0.0000 0.0000 0.0000 0.0000 33.7430
#
#
#
# Elastic Compliance Matrix: (Units=1/GPa)
#
#
# Indices 1 2 3 4 5 6 
#
# 1 0.008139 0.000832 -0.003992 0.000000 0.000000 0.000000
# 2 0.000832 0.013541 -0.001971 0.000000 0.000000 0.000000
# 3 -0.003992 -0.001971 0.012887 0.000000 0.000000 0.000000
# 4 0.000000 0.000000 0.000000 0.016075 0.000000 0.000000
# 5 0.000000 0.000000 0.000000 0.000000 0.030287 0.000000
# 6 0.000000 0.000000 0.000000 0.000000 0.000000 0.029636
#
#
# Mechanical properties :
#
#
# Convention : Reuss Voigt Hill
#
# Bulk Modulus (GPa) = 41.14453 46.60086 43.87270
# Shear Modulus (GPa) = 38.78153 43.17160 40.97657
#
# Velocity S-wave (km/s) = 4.45194 4.69716 4.57619
# Velocity P-wave (km/s) = 6.88867 7.29614 7.09533
#
# Compressibility (1/GPa) = 0.02430457
#
# Stress axis : x y z
#
# Youngs Moduli (GPa) = 122.86884 73.85207 77.59736
#
# Poissons Ratio (x) = -0.06144 0.30976
# Poissons Ratio (y) = -0.10222 0.15294
# Poissons Ratio (z) = 0.49048 0.14556
#
# Static dielectric constant tensor:
#      x y z
#    x 1.649020 0.000000 0.000000 
#    y 0.000000 1.662410 0.000000 
#    z 0.000000 0.000000 1.670850 
# 
# From -- ./inp_files/23897.got.cif
#   From: 2010.05.17/outbox.cif.g08.bks.cpg/sg40_12_cif.got.tgz:23897.got - 2010.06.03 18:35:42.
