data_PCOD9365935
_publ_section_title
;
Structure prediction by ZEFSAII (Michael W. Deem and Ramdas Pophale) SiO2 
 PCOD9365935
Probable space group: A B A 2
;
_chemical_formula_sum "Si O2"
_cell_formula_units_Z 48
_cell_length_a 9.155183
_cell_length_b 11.874332
_cell_length_c 18.160195
_cell_angle_alpha 90.000000
_cell_angle_beta 90.000000
_cell_angle_gamma 90.000000
_cell_volume 1974.225352
_symmetry_space_group_name_H-M "A B A 2"
_symmetry_group_IT_number 41
_symmetry_cell_setting 'orthorhombic'
loop_
_space_group_symop_operation_xyz
x,y,z
-x,-y,z
1/2-x,y,1/2+z
1/2+x,-y,1/2+z
x,1/2+y,1/2+z
-x,1/2-y,1/2+z
1/2-x,1/2+y,z
1/2+x,1/2-y,z
loop_
_atom_site_type_symbol
_atom_site_label
_atom_site_fract_x
_atom_site_fract_y
_atom_site_fract_z
Si Si1 0.364105 0.568285 0.160470
Si Si2 0.694445 0.603979 0.378206
Si Si3 0.867961 0.426728 0.276615
Si Si4 0.670939 0.002018 0.033055
Si Si5 0.044778 0.250430 0.373178
Si Si6 0.573504 0.374142 0.011641
O O1 0.500000 0.500000 0.192851
O O2 0.251711 0.615891 0.218779
O O3 0.264578 0.486146 0.107825
O O4 0.432977 0.651664 0.098867
O O5 0.778785 0.506499 0.334077
O O6 0.699105 0.585467 0.465863
O O7 0.525325 0.628818 0.360459
O O8 0.788371 0.716914 0.362725
O O9 0.958366 0.332542 0.318315
O O10 0.000000 0.500000 0.240910
O O11 0.500000 0.000000 0.046741
O O12 0.751699 0.889857 0.000691
O O13 0.997891 0.291407 0.454697
O O14 0.500000 0.500000 0.001204
#
# Coordination Sequence:
#
# PCOD9365935 Si02
#       6
#     8   8   8   8   8   8
#     4   9  18  33  60  81 108 149 183 228 285 332
#     4  11  23  36  58  85 114 149 186 233 278 336
#     4  10  20  39  56  78 116 149 184 232 280 331
#     4  10  19  34  59  86 108 142 189 228 278 333
#     4  11  21  37  57  82 116 149 186 231 284 329
#     4   9  16  37  58  78 109 146 178 229 289 323
#
# _framework density 24.313334000000001
#
# number of rings (size 3 to 8) (size 9 to 14) (size 15 to 20)
#    1.000    1.000    3.333    1.000    2.333    2.000 
#    0.000    1.667    0.000    6.000    0.000    0.000 
#    0.000    0.000    0.000    0.000    0.000    0.000 
#
# Total GULP energy -133772.802068 kJ/mol
# GULP energy per Si atom -5573.866753 kJ/mol
# Density = 2.425800 g / cm^3
# Si number density = 24.313334 Si / 1000 Ang^3
#
#
#
# Elastic Constant Matrix: (Units=GPa)
#
#
# Indices 1 2 3 4 5 6 
#
# 1 136.0469 2.7062 21.4692 0.0000 0.0000 0.0000
# 2 2.7062 37.9851 8.0495 0.0000 0.0000 0.0000
# 3 21.4692 8.0495 95.3520 0.0000 0.0000 0.0000
# 4 0.0000 0.0000 0.0000 -0.7618 0.0000 0.0000
# 5 0.0000 0.0000 0.0000 0.0000 93.3758 0.0000
# 6 0.0000 0.0000 0.0000 0.0000 0.0000 33.4496
#
#
#
# Elastic Compliance Matrix: (Units=1/GPa)
#
#
# Indices 1 2 3 4 5 6 
#
# 1 0.007622 -0.000183 -0.001701 0.000000 0.000000 0.000000
# 2 -0.000183 0.026810 -0.002222 0.000000 0.000000 0.000000
# 3 -0.001701 -0.002222 0.011058 0.000000 0.000000 0.000000
# 4 0.000000 0.000000 0.000000 -1.312716 0.000000 0.000000
# 5 0.000000 0.000000 0.000000 0.000000 0.010709 0.000000
# 6 0.000000 0.000000 0.000000 0.000000 0.000000 0.029896
#
#
# Mechanical properties :
#
#
# Convention : Reuss Voigt Hill
#
# Bulk Modulus (GPa) = 26.82460 37.09266 31.95863
# Shear Modulus (GPa) = -4.14599 41.02334 18.43867
#
# Velocity S-wave (km/s) = -1.30726 4.11210 2.75685
# Velocity P-wave (km/s) = 2.96281 6.15102 4.82770
#
# Compressibility (1/GPa) = 0.03727922
#
# Stress axis : x y z
#
# Youngs Moduli (GPa) = 131.19157 37.29953 90.43225
#
# Poissons Ratio (x) = 0.00681 0.15381
# Poissons Ratio (y) = 0.02396 0.20095
# Poissons Ratio (z) = 0.22313 0.08289
#
# Static dielectric constant tensor:
#      x y z
#    x 1.943250 0.000000 0.000000 
#    y 0.000000 1.985440 0.000000 
#    z 0.000000 0.000000 1.973490 
# 
# From -- ./inp_files/11138.got.cif
#   From: 2010.05.17/outbox.cif.g08.bks.cpg/sg41_6_cif.got.tgz:11138.got - 2010.06.03 18:54:24.
