data_PCOD9365612
_publ_section_title
;
Structure prediction by ZEFSAII (Michael W. Deem and Ramdas Pophale) SiO2 
 PCOD9365612
Probable space group: A M A 2
;
_chemical_formula_sum "Si O2"
_cell_formula_units_Z 32
_cell_length_a 15.000000
_cell_length_b 15.000000
_cell_length_c 18.000000
_cell_angle_alpha 90.000000
_cell_angle_beta 90.000000
_cell_angle_gamma 90.000000
_cell_volume 4050.000000
_symmetry_space_group_name_H-M "A M A 2"
_symmetry_group_IT_number 40
_symmetry_cell_setting 'orthorhombic'
loop_
_space_group_symop_operation_xyz
x,y,z
-x,-y,z
1/2-x,y,z
1/2+x,-y,z
x,1/2+y,1/2+z
-x,1/2-y,1/2+z
1/2-x,1/2+y,1/2+z
1/2+x,1/2-y,1/2+z
loop_
_atom_site_type_symbol
_atom_site_label
_atom_site_fract_x
_atom_site_fract_y
_atom_site_fract_z
Si Si1 0.992569 0.391956 0.070070
Si Si2 0.856466 0.361520 0.205071
Si Si3 0.355569 0.771251 0.644411
Si Si4 0.146214 0.129324 0.013839
Si Si5 0.473285 0.790517 0.779488
Si Si6 0.854099 0.064477 0.975134
Si Si7 0.148277 0.458415 0.301468
Si Si8 0.017416 0.268974 0.451739
O O1 0.909361 0.378340 0.127361
O O2 0.000000 0.500000 0.055212
O O3 0.083166 0.351531 0.109239
O O4 0.979217 0.322504 0.000399
O O5 0.750000 0.337318 0.197298
O O6 0.858152 0.452252 0.253713
O O7 0.925197 0.295589 0.248959
O O8 0.250000 0.794470 0.652592
O O9 0.359360 0.686881 0.589091
O O10 0.406608 0.745283 0.720288
O O11 0.250000 0.130944 0.988531
O O12 0.078509 0.182163 0.960524
O O13 0.120880 0.024723 0.021049
O O14 0.429797 0.889999 0.780850
O O15 0.467123 0.755087 0.863694
O O16 0.750000 0.085939 0.989625
O O17 0.861182 0.029503 0.889909
O O18 0.913240 0.154124 0.980530
O O19 0.250000 0.422494 0.290434
#
# Coordination Sequence:
#
# PCOD9365612 Si02
#       8
#     8   8   8   8   8   8   8   8
#     4  10  21  35  50  70  97 132 173 208 238 280
#     4  10  19  30  47  71  98 126 156 199 254 302
#     4   9  18  33  52  72  93 122 163 207 247 285
#     4   9  17  30  49  72  97 124 156 196 241 292
#     4  10  18  29  46  69  96 124 157 197 241 292
#     4   9  17  29  47  74 103 126 150 186 242 304
#     4   9  16  26  43  68  95 121 148 187 243 298
#     4  10  20  32  49  72 100 131 161 198 242 287
#
# _framework density 7.9012349999999998
#
# number of rings (size 3 to 8) (size 9 to 14) (size 15 to 20)
#    0.000    2.500    0.000    3.375    0.000    6.000 
#    0.000    0.000    0.000    4.500    0.000    0.000 
#    0.000    0.000    0.000    0.000    0.000    0.000 
#
# Total GULP energy -178149.136533 kJ/mol
# GULP energy per Si atom -5567.160517 kJ/mol
# Density = 0.788325 g / cm^3
# Si number density = 7.901235 Si / 1000 Ang^3
#
#
#
# Elastic Constant Matrix: (Units=GPa)
#
#
# Indices 1 2 3 4 5 6 
#
# 1 121.0218 33.7474 37.6697 0.0000 0.0000 0.0000
# 2 33.7474 90.7138 44.6897 0.0000 0.0000 0.0000
# 3 37.6697 44.6897 85.9222 0.0000 0.0000 0.0000
# 4 0.0000 0.0000 0.0000 24.6641 0.0000 0.0000
# 5 0.0000 0.0000 0.0000 0.0000 25.3954 0.0000
# 6 0.0000 0.0000 0.0000 0.0000 0.0000 22.3169
#
#
#
# Elastic Compliance Matrix: (Units=1/GPa)
#
#
# Indices 1 2 3 4 5 6 
#
# 1 0.009849 -0.002066 -0.003243 0.000000 0.000000 0.000000
# 2 -0.002066 0.015255 -0.007029 0.000000 0.000000 0.000000
# 3 -0.003243 -0.007029 0.016716 0.000000 0.000000 0.000000
# 4 0.000000 0.000000 0.000000 0.040545 0.000000 0.000000
# 5 0.000000 0.000000 0.000000 0.000000 0.039377 0.000000
# 6 0.000000 0.000000 0.000000 0.000000 0.000000 0.044809
#
#
# Mechanical properties :
#
#
# Convention : Reuss Voigt Hill
#
# Bulk Modulus (GPa) = 58.33010 58.87461 58.60236
# Shear Modulus (GPa) = 25.38834 26.57867 25.98351
#
# Velocity S-wave (km/s) = 4.01260 4.10559 4.05936
# Velocity P-wave (km/s) = 7.64592 7.73382 7.68999
#
# Compressibility (1/GPa) = 0.01714381
#
# Stress axis : x y z
#
# Youngs Moduli (GPa) = 101.53721 65.55263 59.82306
#
# Poissons Ratio (x) = 0.13544 0.19401
# Poissons Ratio (y) = 0.20979 0.42047
# Poissons Ratio (z) = 0.32930 0.46074
#
# Static dielectric constant tensor:
#      x y z
#    x 1.563090 0.000000 0.000000 
#    y 0.000000 1.520620 0.000000 
#    z 0.000000 0.000000 1.562580 
# 
# From -- ./inp_files/20847.got.cif
#   From: 2010.05.17/outbox.ucp.g08.bks.cvg/sg40_11_cif.got.tgz:20847.got - 2010.06.11 16:26:39.
