data_PCOD9365314
_publ_section_title
;
Structure prediction by ZEFSAII (Michael W. Deem and Ramdas Pophale) SiO2 
 PCOD9365314
Probable space group: A M A 2
;
_chemical_formula_sum "Si O2"
_cell_formula_units_Z 64
_cell_length_a 20.965538
_cell_length_b 14.869145
_cell_length_c 9.670509
_cell_angle_alpha 90.000000
_cell_angle_beta 90.000000
_cell_angle_gamma 90.000000
_cell_volume 3014.680845
_symmetry_space_group_name_H-M "A M A 2"
_symmetry_group_IT_number 40
_symmetry_cell_setting 'orthorhombic'
loop_
_space_group_symop_operation_xyz
x,y,z
-x,-y,z
1/2-x,y,z
1/2+x,-y,z
x,1/2+y,1/2+z
-x,1/2-y,1/2+z
1/2-x,1/2+y,1/2+z
1/2+x,1/2-y,1/2+z
loop_
_atom_site_type_symbol
_atom_site_label
_atom_site_fract_x
_atom_site_fract_y
_atom_site_fract_z
Si Si1 0.488450 0.103744 0.754950
Si Si2 0.044261 0.206724 0.199022
Si Si3 0.630366 0.849410 0.952323
Si Si4 0.174992 0.957712 0.897404
Si Si5 0.178695 0.829825 0.349570
Si Si6 0.415777 0.128370 0.482861
Si Si7 0.174798 0.474802 0.073642
Si Si8 0.904408 0.175239 0.084297
O O1 0.536245 0.189937 0.752195
O O2 0.429172 0.136740 0.847951
O O3 0.468408 0.099833 0.594543
O O4 0.500000 0.000000 0.799257
O O5 0.054582 0.145554 0.333526
O O6 0.980050 0.178346 0.115698
O O7 0.102031 0.189096 0.094555
O O8 0.674973 0.774887 0.884844
O O9 0.665389 0.944177 0.963995
O O10 0.250000 0.930227 0.907178
O O11 0.125595 0.892423 0.973805
O O12 0.157198 0.966239 0.734858
O O13 0.250000 0.855532 0.305208
O O14 0.162654 0.884579 0.487757
O O15 0.129158 0.847775 0.228704
O O16 0.388358 0.223780 0.535720
O O17 0.362336 0.053222 0.495789
O O18 0.250000 0.493376 0.071451
#
# Coordination Sequence:
#
# PCOD9365314 Si02
#       8
#     8   8   8   8   8   8   8   8
#     4  11  24  43  70  97 133 181 231 279 342 411
#     4  11  27  44  63 106 145 174 235 282 350 416
#     4  12  25  43  69 100 140 183 224 289 343 417
#     4  11  25  47  72 103 136 182 241 290 347 418
#     4  11  24  46  72 101 138 182 230 286 349 412
#     4  11  24  44  67 100 136 184 222 286 341 416
#     4  10  24  45  71 102 135 180 239 288 343 415
#     4  11  25  45  71 101 140 181 228 290 353 413
#
# _framework density 21.229444999999998
#
# number of rings (size 3 to 8) (size 9 to 14) (size 15 to 20)
#    0.000    1.000    3.750    2.250    8.750    2.000 
#    0.000    0.625    0.000    0.000    0.000    0.000 
#    0.000    0.000    0.000    0.000    0.000    0.000 
#
# Total GULP energy -178882.973988 kJ/mol
# GULP energy per Si atom -5590.092937 kJ/mol
# Density = 2.118113 g / cm^3
# Si number density = 21.229445 Si / 1000 Ang^3
#
#
#
# Elastic Constant Matrix: (Units=GPa)
#
#
# Indices 1 2 3 4 5 6 
#
# 1 58.5384 42.1705 39.6268 0.0000 0.0000 0.0000
# 2 42.1705 128.3989 28.4724 0.0000 0.0000 0.0000
# 3 39.6268 28.4724 57.6237 0.0000 0.0000 0.0000
# 4 0.0000 0.0000 0.0000 31.0239 0.0000 0.0000
# 5 0.0000 0.0000 0.0000 0.0000 40.4895 0.0000
# 6 0.0000 0.0000 0.0000 0.0000 0.0000 30.7913
#
#
#
# Elastic Compliance Matrix: (Units=1/GPa)
#
#
# Indices 1 2 3 4 5 6 
#
# 1 0.037280 -0.007366 -0.021997 0.000000 0.000000 0.000000
# 2 -0.007366 0.010202 0.000025 0.000000 0.000000 0.000000
# 3 -0.021997 0.000025 0.032469 0.000000 0.000000 0.000000
# 4 0.000000 0.000000 0.000000 0.032233 0.000000 0.000000
# 5 0.000000 0.000000 0.000000 0.000000 0.024698 0.000000
# 6 0.000000 0.000000 0.000000 0.000000 0.000000 0.032477
#
#
# Mechanical properties :
#
#
# Convention : Reuss Voigt Hill
#
# Bulk Modulus (GPa) = 47.00653 51.67780 49.34217
# Shear Modulus (GPa) = 21.26513 29.41371 25.33942
#
# Velocity S-wave (km/s) = 3.16837 3.72629 3.45860
# Velocity P-wave (km/s) = 5.96447 6.55050 6.26434
#
# Compressibility (1/GPa) = 0.02127364
#
# Stress axis : x y z
#
# Youngs Moduli (GPa) = 26.82410 98.01950 30.79881
#
# Poissons Ratio (x) = 0.72203 0.67748
# Poissons Ratio (y) = 0.19759 -0.00076
# Poissons Ratio (z) = 0.59005 -0.00242
#
# Static dielectric constant tensor:
#      x y z
#    x 1.776590 0.000000 0.000000 
#    y 0.000000 1.764930 0.000000 
#    z 0.000000 0.000000 1.759410 
# 
# From -- ./inp_files/8923.got.cif
#   From: 2010.05.17/outbox.cif.g08.bks.cpg/sg40_5_cif.got.tgz:8923.got - 2010.06.03 18:35:42.
