data_PCOD9365569
_publ_section_title
;
Structure prediction by ZEFSAII (Michael W. Deem and Ramdas Pophale) SiO2 
 PCOD9365569
Probable space group: A M A 2
;
_chemical_formula_sum "Si O2"
_cell_formula_units_Z 32
_cell_length_a 14.853827
_cell_length_b 4.733621
_cell_length_c 18.960129
_cell_angle_alpha 90.000000
_cell_angle_beta 90.000000
_cell_angle_gamma 90.000000
_cell_volume 1333.131936
_symmetry_space_group_name_H-M "A M A 2"
_symmetry_group_IT_number 40
_symmetry_cell_setting 'orthorhombic'
loop_
_space_group_symop_operation_xyz
x,y,z
-x,-y,z
1/2-x,y,z
1/2+x,-y,z
x,1/2+y,1/2+z
-x,1/2-y,1/2+z
1/2-x,1/2+y,1/2+z
1/2+x,1/2-y,1/2+z
loop_
_atom_site_type_symbol
_atom_site_label
_atom_site_fract_x
_atom_site_fract_y
_atom_site_fract_z
Si Si1 0.643778 0.598835 0.903750
Si Si2 0.062073 0.728406 0.771349
Si Si3 0.750000 0.194245 0.699357
Si Si4 0.098023 0.895463 0.995726
Si Si5 0.250000 0.816212 0.106415
O O1 0.750000 0.550497 0.896727
O O2 0.594971 0.468412 0.836303
O O3 0.628549 0.920714 0.927287
O O4 0.605109 0.424152 0.969575
O O5 0.154835 0.848831 0.738290
O O6 0.000000 0.500000 0.728340
O O7 0.000000 0.000000 0.787908
O O8 0.750000 0.524151 0.680271
O O9 0.750000 0.010981 0.627593
O O10 0.000000 0.000000 0.014780
O O11 0.165359 0.912553 0.060557
#
# Coordination Sequence:
#
# PCOD9365569 Si02
#       5
#     8   8   4   8   4
#     4  12  22  44  72 105 142 179 221 292 371 428
#     4  12  26  46  74 107 145 189 239 298 367 431
#     4  12  28  48  70 100 144 194 250 294 343 420
#     4  12  25  43  71 104 139 178 230 291 357 428
#     4  12  26  46  70  98 142 192 240 294 345 414
#
# _framework density 24.003625
#
# number of rings (size 3 to 8) (size 9 to 14) (size 15 to 20)
#    0.000    0.000    3.750    7.500    0.000    3.000 
#    0.000    0.000    0.000    0.000    0.000    0.000 
#    0.000    0.000    0.000    0.000    0.000    0.000 
#
# Total GULP energy -89533.658545 kJ/mol
# GULP energy per Si atom -5595.853659 kJ/mol
# Density = 2.394899 g / cm^3
# Si number density = 24.003625 Si / 1000 Ang^3
#
#
#
# Elastic Constant Matrix: (Units=GPa)
#
#
# Indices 1 2 3 4 5 6 
#
# 1 233.8057 32.8871 51.0469 0.0000 0.0000 0.0000
# 2 32.8871 109.6497 7.7401 0.0000 0.0000 0.0000
# 3 51.0469 7.7401 59.2718 0.0000 0.0000 0.0000
# 4 0.0000 0.0000 0.0000 60.5510 0.0000 0.0000
# 5 0.0000 0.0000 0.0000 0.0000 82.7648 0.0000
# 6 0.0000 0.0000 0.0000 0.0000 0.0000 32.6250
#
#
#
# Elastic Compliance Matrix: (Units=1/GPa)
#
#
# Indices 1 2 3 4 5 6 
#
# 1 0.005449 -0.001315 -0.004521 0.000000 0.000000 0.000000
# 2 -0.001315 0.009522 -0.000111 0.000000 0.000000 0.000000
# 3 -0.004521 -0.000111 0.020780 0.000000 0.000000 0.000000
# 4 0.000000 0.000000 0.000000 0.016515 0.000000 0.000000
# 5 0.000000 0.000000 0.000000 0.000000 0.012082 0.000000
# 6 0.000000 0.000000 0.000000 0.000000 0.000000 0.030651
#
#
# Mechanical properties :
#
#
# Convention : Reuss Voigt Hill
#
# Bulk Modulus (GPa) = 41.91697 65.11950 53.51823
# Shear Modulus (GPa) = 43.53628 55.92504 49.73066
#
# Velocity S-wave (km/s) = 4.26342 4.83210 4.55664
# Velocity P-wave (km/s) = 6.46037 7.63676 7.07306
#
# Compressibility (1/GPa) = 0.02385668
#
# Stress axis : x y z
#
# Youngs Moduli (GPa) = 183.51360 105.01727 48.12369
#
# Poissons Ratio (x) = 0.13812 0.21758
# Poissons Ratio (y) = 0.24136 0.00533
# Poissons Ratio (z) = 0.82972 0.01163
#
# Static dielectric constant tensor:
#      x y z
#    x 1.876250 0.000000 0.000000 
#    y 0.000000 1.852780 0.000000 
#    z 0.000000 0.000000 1.895710 
# 
# From -- ./inp_files/20284.got.cif
#   From: 2010.05.17/outbox.cif.g08.bks.cpg/sg40_11_cif.got.tgz:20284.got - 2010.06.03 18:35:42.
