data_PCOD9365115
_publ_section_title
;
Structure prediction by ZEFSAII (Michael W. Deem and Ramdas Pophale) SiO2 
 PCOD9365115
Probable space group: A M A 2
;
_chemical_formula_sum "Si O2"
_cell_formula_units_Z 48
_cell_length_a 15.366813
_cell_length_b 14.360011
_cell_length_c 11.153909
_cell_angle_alpha 90.000000
_cell_angle_beta 90.000000
_cell_angle_gamma 90.000000
_cell_volume 2461.306371
_symmetry_space_group_name_H-M "A M A 2"
_symmetry_group_IT_number 40
_symmetry_cell_setting 'orthorhombic'
loop_
_space_group_symop_operation_xyz
x,y,z
-x,-y,z
1/2-x,y,z
1/2+x,-y,z
x,1/2+y,1/2+z
-x,1/2-y,1/2+z
1/2-x,1/2+y,1/2+z
1/2+x,1/2-y,1/2+z
loop_
_atom_site_type_symbol
_atom_site_label
_atom_site_fract_x
_atom_site_fract_y
_atom_site_fract_z
Si Si1 0.250000 0.761296 0.710830
Si Si2 0.897326 0.344389 0.574035
Si Si3 0.750000 0.481292 0.952337
Si Si4 0.600771 0.012258 0.260935
Si Si5 0.347506 0.136420 0.798884
Si Si6 0.750000 0.775813 0.479296
Si Si7 0.750000 0.530922 0.206102
Si Si8 0.407630 0.792612 0.132324
O O1 0.166694 0.731438 0.633120
O O2 0.250000 0.866650 0.757799
O O3 0.250000 0.707972 0.837183
O O4 0.885579 0.437253 0.654568
O O5 0.874319 0.364585 0.436819
O O6 0.996634 0.311173 0.581945
O O7 0.666034 0.492690 0.869188
O O8 0.750000 0.382756 0.022663
O O9 0.750000 0.550372 0.064236
O O10 0.615503 0.115597 0.209342
O O11 0.500000 0.000000 0.298551
O O12 0.250000 0.179927 0.792508
O O13 0.406801 0.202121 0.717971
O O14 0.331673 0.032106 0.748946
O O15 0.664537 0.725859 0.530556
#
# Coordination Sequence:
#
# PCOD9365115 Si02
#       8
#     4   8   4   8   8   4   4   8
#     4  12  25  42  62 100 125 172 212 261 318 372
#     4  11  24  42  65  95 132 165 215 263 313 384
#     4  12  21  42  68  90 133 162 210 274 308 376
#     4  10  24  41  64  97 125 167 215 256 318 380
#     4  10  22  44  63  88 130 168 208 263 318 380
#     4  12  23  42  66  92 129 164 216 266 310 374
#     4  10  25  42  62  92 127 170 212 255 330 374
#     4  11  24  42  67  94 125 175 212 258 324 376
#
# _framework density 19.501839
#
# number of rings (size 3 to 8) (size 9 to 14) (size 15 to 20)
#    0.500    0.667    5.000    0.500    7.000    0.000 
#    0.000    0.833    0.000    0.000    0.000    0.000 
#    0.000    0.000    0.000    0.000    0.000    0.000 
#
# Total GULP energy -133964.196510 kJ/mol
# GULP energy per Si atom -5581.841521 kJ/mol
# Density = 1.945745 g / cm^3
# Si number density = 19.501839 Si / 1000 Ang^3
#
#
#
# Elastic Constant Matrix: (Units=GPa)
#
#
# Indices 1 2 3 4 5 6 
#
# 1 83.9797 25.3510 44.4046 0.0000 0.0000 0.0000
# 2 25.3510 89.9850 2.4165 0.0000 0.0000 0.0000
# 3 44.4046 2.4165 115.8890 0.0000 0.0000 0.0000
# 4 0.0000 0.0000 0.0000 17.7078 0.0000 0.0000
# 5 0.0000 0.0000 0.0000 0.0000 22.6255 0.0000
# 6 0.0000 0.0000 0.0000 0.0000 0.0000 17.1455
#
#
#
# Elastic Compliance Matrix: (Units=1/GPa)
#
#
# Indices 1 2 3 4 5 6 
#
# 1 0.016575 -0.004502 -0.006257 0.000000 0.000000 0.000000
# 2 -0.004502 0.012342 0.001467 0.000000 0.000000 0.000000
# 3 -0.006257 0.001467 0.010996 0.000000 0.000000 0.000000
# 4 0.000000 0.000000 0.000000 0.056472 0.000000 0.000000
# 5 0.000000 0.000000 0.000000 0.000000 0.044198 0.000000
# 6 0.000000 0.000000 0.000000 0.000000 0.000000 0.058324
#
#
# Mechanical properties :
#
#
# Convention : Reuss Voigt Hill
#
# Bulk Modulus (GPa) = 46.88172 48.24422 47.56297
# Shear Modulus (GPa) = 22.26187 26.00789 24.13488
#
# Velocity S-wave (km/s) = 3.38231 3.65583 3.52173
# Velocity P-wave (km/s) = 6.27258 6.52779 6.40146
#
# Compressibility (1/GPa) = 0.02133027
#
# Stress axis : x y z
#
# Youngs Moduli (GPa) = 60.33194 81.02579 90.94350
#
# Poissons Ratio (x) = 0.36474 0.56904
# Poissons Ratio (y) = 0.27159 -0.13346
# Poissons Ratio (z) = 0.37750 -0.11890
#
# Static dielectric constant tensor:
#      x y z
#    x 1.666540 0.000000 0.000000 
#    y 0.000000 1.669420 0.000000 
#    z 0.000000 0.000000 1.649800 
# 
# From -- ./inp_files/12197.got.cif
#   From: 2010.05.17/outbox.cif.g08.bks.cpg/sg40_7_cif.got.tgz:12197.got - 2010.06.03 18:35:42.
