data_PCOD9365609
_publ_section_title
;
Structure prediction by ZEFSAII (Michael W. Deem and Ramdas Pophale) SiO2 
 PCOD9365609
Probable space group: A M A 2
;
_chemical_formula_sum "Si O2"
_cell_formula_units_Z 24
_cell_length_a 12.202679
_cell_length_b 12.172724
_cell_length_c 6.250193
_cell_angle_alpha 90.000000
_cell_angle_beta 90.000000
_cell_angle_gamma 90.000000
_cell_volume 928.402690
_symmetry_space_group_name_H-M "A M A 2"
_symmetry_group_IT_number 40
_symmetry_cell_setting 'orthorhombic'
loop_
_space_group_symop_operation_xyz
x,y,z
-x,-y,z
1/2-x,y,z
1/2+x,-y,z
x,1/2+y,1/2+z
-x,1/2-y,1/2+z
1/2-x,1/2+y,1/2+z
1/2+x,1/2-y,1/2+z
loop_
_atom_site_type_symbol
_atom_site_label
_atom_site_fract_x
_atom_site_fract_y
_atom_site_fract_z
Si Si1 0.372565 0.501741 0.099800
Si Si2 0.635134 0.770614 0.343073
Si Si3 0.562036 0.613936 0.678016
O O1 0.500000 0.500000 0.186417
O O2 0.250000 0.490601 0.201866
O O3 0.366763 0.623659 0.997813
O O4 0.377831 0.414364 0.900970
O O5 0.750000 0.775929 0.220247
O O6 0.629810 0.660423 0.481296
O O7 0.528848 0.790848 0.203488
O O8 0.500000 0.500000 0.633687
#
# Coordination Sequence:
#
# PCOD9365609 Si02
#       3
#     8   8   8
#     4   8  15  28  49  73  96 129 168 205 252 302
#     4   9  17  32  53  75 102 135 171 214 260 307
#     4   9  18  32  52  74 101 134 171 211 258 307
#
# _framework density 25.850852
#
# number of rings (size 3 to 8) (size 9 to 14) (size 15 to 20)
#    0.000    4.000    0.000    1.000    0.000    1.333 
#    0.000   15.000    0.000   16.000    0.000    0.000 
#    0.000    0.000    0.000    0.000    0.000    0.000 
#
# Total GULP energy -66853.381616 kJ/mol
# GULP energy per Si atom -5571.115135 kJ/mol
# Density = 2.579201 g / cm^3
# Si number density = 25.850852 Si / 1000 Ang^3
#
#
#
# Elastic Constant Matrix: (Units=GPa)
#
#
# Indices 1 2 3 4 5 6 
#
# 1 240.4326 30.7381 41.3083 0.0000 0.0000 0.0000
# 2 30.7381 121.5335 16.6208 0.0000 0.0000 0.0000
# 3 41.3083 16.6208 33.7334 0.0000 0.0000 0.0000
# 4 0.0000 0.0000 0.0000 32.5839 0.0000 0.0000
# 5 0.0000 0.0000 0.0000 0.0000 13.5438 0.0000
# 6 0.0000 0.0000 0.0000 0.0000 0.0000 12.7203
#
#
#
# Elastic Compliance Matrix: (Units=1/GPa)
#
#
# Indices 1 2 3 4 5 6 
#
# 1 0.005294 -0.000485 -0.006244 0.000000 0.000000 0.000000
# 2 -0.000485 0.008867 -0.003775 0.000000 0.000000 0.000000
# 3 -0.006244 -0.003775 0.039150 0.000000 0.000000 0.000000
# 4 0.000000 0.000000 0.000000 0.030690 0.000000 0.000000
# 5 0.000000 0.000000 0.000000 0.000000 0.073835 0.000000
# 6 0.000000 0.000000 0.000000 0.000000 0.000000 0.078614
#
#
# Mechanical properties :
#
#
# Convention : Reuss Voigt Hill
#
# Bulk Modulus (GPa) = 30.95632 63.67044 47.31338
# Shear Modulus (GPa) = 18.64106 32.23842 25.43974
#
# Velocity S-wave (km/s) = 2.68824 3.53525 3.14043
# Velocity P-wave (km/s) = 4.65151 6.43019 5.61177
#
# Compressibility (1/GPa) = 0.03230358
#
# Stress axis : x y z
#
# Youngs Moduli (GPa) = 188.89677 112.77618 25.54282
#
# Poissons Ratio (x) = 0.05470 0.15948
# Poissons Ratio (y) = 0.09162 0.09642
# Poissons Ratio (z) = 1.17941 0.42573
#
# Static dielectric constant tensor:
#      x y z
#    x 2.119190 0.000000 0.000000 
#    y 0.000000 2.006800 0.000000 
#    z 0.000000 0.000000 2.018160 
# 
# From -- ./inp_files/4799.got.cif
#   From: 2010.05.17/outbox.cif.g08.bks.cpg/sg40_3_cif.got.tgz:4799.got - 2010.06.03 18:35:42.
