data_PCOD9365131
_publ_section_title
;
Structure prediction by ZEFSAII (Michael W. Deem and Ramdas Pophale) SiO2 
 PCOD9365131
Probable space group: A M A 2
;
_chemical_formula_sum "Si O2"
_cell_formula_units_Z 48
_cell_length_a 15.280575
_cell_length_b 8.170356
_cell_length_c 18.612474
_cell_angle_alpha 90.000000
_cell_angle_beta 90.000000
_cell_angle_gamma 90.000000
_cell_volume 2323.725271
_symmetry_space_group_name_H-M "A M A 2"
_symmetry_group_IT_number 40
_symmetry_cell_setting 'orthorhombic'
loop_
_space_group_symop_operation_xyz
x,y,z
-x,-y,z
1/2-x,y,z
1/2+x,-y,z
x,1/2+y,1/2+z
-x,1/2-y,1/2+z
1/2-x,1/2+y,1/2+z
1/2+x,1/2-y,1/2+z
loop_
_atom_site_type_symbol
_atom_site_label
_atom_site_fract_x
_atom_site_fract_y
_atom_site_fract_z
Si Si1 0.844529 0.156118 0.800480
Si Si2 0.354892 0.170996 0.522746
Si Si3 0.974404 0.169922 0.286906
Si Si4 0.102464 0.004151 0.942090
Si Si5 0.854255 0.638264 0.927101
Si Si6 0.648589 0.883204 0.687428
O O1 0.750000 0.243299 0.804343
O O2 0.847553 0.030064 0.867191
O O3 0.932224 0.257565 0.809680
O O4 0.850531 0.061019 0.724985
O O5 0.250000 0.170660 0.519561
O O6 0.381831 0.350576 0.494828
O O7 0.378328 0.129183 0.604640
O O8 0.383057 0.020925 0.472061
O O9 0.912836 0.143293 0.355753
O O10 0.920126 0.282293 0.233739
O O11 0.000000 0.000000 0.250584
O O12 0.129082 0.186618 0.966434
O O13 0.000000 0.000000 0.925511
O O14 0.750000 0.626610 0.912323
O O15 0.750000 0.823416 0.693802
#
# Coordination Sequence:
#
# PCOD9365131 Si02
#       6
#     8   8   8   8   8   8
#     4  11  22  42  67  91 127 174 220 269 324 386
#     4  10  24  44  67  99 136 174 217 269 332 392
#     4  12  24  40  65  98 131 167 223 270 325 391
#     4  12  22  40  69  98 133 171 219 271 323 387
#     4  11  23  42  70 101 132 172 220 272 327 392
#     4  10  22  45  68  91 132 175 212 268 331 387
#
# _framework density 20.656486000000001
#
# number of rings (size 3 to 8) (size 9 to 14) (size 15 to 20)
#    0.000    1.000    3.333    3.500    0.000    3.333 
#    9.000    0.000    0.000    0.000    0.000    0.000 
#    0.000    0.000    0.000    0.000    0.000    0.000 
#
# Total GULP energy -134059.381954 kJ/mol
# GULP energy per Si atom -5585.807581 kJ/mol
# Density = 2.060947 g / cm^3
# Si number density = 20.656486 Si / 1000 Ang^3
#
#
#
# Elastic Constant Matrix: (Units=GPa)
#
#
# Indices 1 2 3 4 5 6 
#
# 1 132.9303 26.2327 42.0768 0.0000 0.0000 0.0000
# 2 26.2327 81.5002 19.7160 0.0000 0.0000 0.0000
# 3 42.0768 19.7160 101.0088 0.0000 0.0000 0.0000
# 4 0.0000 0.0000 0.0000 19.1179 0.0000 0.0000
# 5 0.0000 0.0000 0.0000 0.0000 17.3336 0.0000
# 6 0.0000 0.0000 0.0000 0.0000 0.0000 45.6488
#
#
#
# Elastic Compliance Matrix: (Units=1/GPa)
#
#
# Indices 1 2 3 4 5 6 
#
# 1 0.008991 -0.002086 -0.003338 0.000000 0.000000 0.000000
# 2 -0.002086 0.013362 -0.001739 0.000000 0.000000 0.000000
# 3 -0.003338 -0.001739 0.011630 0.000000 0.000000 0.000000
# 4 0.000000 0.000000 0.000000 0.052307 0.000000 0.000000
# 5 0.000000 0.000000 0.000000 0.000000 0.057691 0.000000
# 6 0.000000 0.000000 0.000000 0.000000 0.000000 0.021906
#
#
# Mechanical properties :
#
#
# Convention : Reuss Voigt Hill
#
# Bulk Modulus (GPa) = 50.87459 54.61002 52.74230
# Shear Modulus (GPa) = 26.77128 31.58099 29.17614
#
# Velocity S-wave (km/s) = 3.60394 3.91431 3.76233
# Velocity P-wave (km/s) = 6.48075 6.85009 6.66798
#
# Compressibility (1/GPa) = 0.01965618
#
# Stress axis : x y z
#
# Youngs Moduli (GPa) = 111.22090 74.83818 85.98361
#
# Poissons Ratio (x) = 0.15615 0.28703
# Poissons Ratio (y) = 0.23206 0.14953
# Poissons Ratio (z) = 0.37127 0.13015
#
# Static dielectric constant tensor:
#      x y z
#    x 1.669690 0.000000 0.000000 
#    y 0.000000 1.814640 0.000000 
#    z 0.000000 0.000000 1.727130 
# 
# From -- ./inp_files/20559.got.cif
#   From: 2010.05.17/outbox.cif.g08.bks.cpg/sg40_11_cif.got.tgz:20559.got - 2010.06.03 18:35:42.
