data_PCOD9365749
_publ_section_title
;
Structure prediction by ZEFSAII (Michael W. Deem and Ramdas Pophale) SiO2 
 PCOD9365749
Probable space group: A B A 2
;
_chemical_formula_sum "Si O2"
_cell_formula_units_Z 56
_cell_length_a 16.940995
_cell_length_b 9.852147
_cell_length_c 15.936453
_cell_angle_alpha 90.000000
_cell_angle_beta 90.000000
_cell_angle_gamma 90.000000
_cell_volume 2659.876446
_symmetry_space_group_name_H-M "A B A 2"
_symmetry_group_IT_number 41
_symmetry_cell_setting 'orthorhombic'
loop_
_space_group_symop_operation_xyz
x,y,z
-x,-y,z
1/2-x,y,1/2+z
1/2+x,-y,1/2+z
x,1/2+y,1/2+z
-x,1/2-y,1/2+z
1/2-x,1/2+y,z
1/2+x,1/2-y,z
loop_
_atom_site_type_symbol
_atom_site_label
_atom_site_fract_x
_atom_site_fract_y
_atom_site_fract_z
Si Si1 0.080727 0.926624 0.015660
Si Si2 0.486139 0.153045 0.941696
Si Si3 0.490341 0.650288 0.704354
Si Si4 0.572607 0.397966 0.256349
Si Si5 0.901289 0.358537 0.371081
Si Si6 0.682985 0.818450 0.207580
Si Si7 0.291681 0.961380 0.659662
O O1 0.153723 0.947772 0.078026
O O2 0.058037 0.770983 0.994075
O O3 0.000000 0.000000 0.047175
O O4 0.101244 0.013542 0.931845
O O5 0.437104 0.132749 0.855008
O O6 0.571569 0.222919 0.920298
O O7 0.500000 0.000000 0.975085
O O8 0.500000 0.500000 0.668975
O O9 0.558120 0.761646 0.701716
O O10 0.406459 0.712146 0.677355
O O11 0.500000 0.500000 0.239095
O O12 0.652402 0.470680 0.230305
O O13 0.972199 0.369512 0.303542
O O14 0.827863 0.346513 0.307066
O O15 0.733229 0.686338 0.190307
O O16 0.716657 0.942693 0.155809
#
# Coordination Sequence:
#
# PCOD9365749 Si02
#       7
#     8   8   8   8   8   8   8
#     4  10  21  37  66  93 126 160 205 257 325 371
#     4   9  16  32  62  95 119 151 208 266 302 363
#     4   9  17  33  63  93 114 147 215 257 295 357
#     4  10  17  34  64  91 121 156 211 265 308 366
#     4   8  17  37  60  92 119 154 207 256 299 371
#     4  10  24  39  58  87 128 164 213 251 308 386
#     4  12  24  41  58  93 130 171 202 263 334 377
#
# _framework density 21.053609999999999
#
# number of rings (size 3 to 8) (size 9 to 14) (size 15 to 20)
#    0.857    1.429    1.429    3.429    2.000    0.000 
#    0.000    6.429    0.000    0.000    0.000    0.000 
#    0.000    0.000    0.000    0.000    0.000    0.000 
#
# Total GULP energy -155914.759716 kJ/mol
# GULP energy per Si atom -5568.384276 kJ/mol
# Density = 2.100569 g / cm^3
# Si number density = 21.053610 Si / 1000 Ang^3
#
#
#
# Elastic Constant Matrix: (Units=GPa)
#
#
# Indices 1 2 3 4 5 6 
#
# 1 24.3461 13.7978 16.8604 0.0000 0.0000 0.0000
# 2 13.7978 162.6775 37.9734 0.0000 0.0000 0.0000
# 3 16.8604 37.9734 104.4457 0.0000 0.0000 0.0000
# 4 0.0000 0.0000 0.0000 0.3837 0.0000 0.0000
# 5 0.0000 0.0000 0.0000 0.0000 4.9741 0.0000
# 6 0.0000 0.0000 0.0000 0.0000 0.0000 26.9071
#
#
#
# Elastic Compliance Matrix: (Units=1/GPa)
#
#
# Indices 1 2 3 4 5 6 
#
# 1 0.047104 -0.002426 -0.006722 0.000000 0.000000 0.000000
# 2 -0.002426 0.006842 -0.002096 0.000000 0.000000 0.000000
# 3 -0.006722 -0.002096 0.011421 0.000000 0.000000 0.000000
# 4 0.000000 0.000000 0.000000 2.606425 0.000000 0.000000
# 5 0.000000 0.000000 0.000000 0.000000 0.201041 0.000000
# 6 0.000000 0.000000 0.000000 0.000000 0.000000 0.037165
#
#
# Mechanical properties :
#
#
# Convention : Reuss Voigt Hill
#
# Bulk Modulus (GPa) = 23.32089 47.63695 35.47892
# Shear Modulus (GPa) = 1.69677 21.30882 11.50279
#
# Velocity S-wave (km/s) = 0.89871 3.18484 2.33996
# Velocity P-wave (km/s) = 3.48968 6.01663 4.91822
#
# Compressibility (1/GPa) = 0.04288002
#
# Stress axis : x y z
#
# Youngs Moduli (GPa) = 21.22945 146.15253 87.55430
#
# Poissons Ratio (x) = 0.35459 0.58853
# Poissons Ratio (y) = 0.05151 0.18351
# Poissons Ratio (z) = 0.14270 0.30633
#
# Static dielectric constant tensor:
#      x y z
#    x 1.768340 0.000000 0.000000 
#    y 0.000000 1.829700 0.000000 
#    z 0.000000 0.000000 1.812860 
# 
# From -- ./inp_files/11635.got.cif
#   From: 2010.05.17/outbox.cif.g08.bks.cpg/sg41_6_cif.got.tgz:11635.got - 2010.06.03 18:54:24.
