data_PCOD9365467
_publ_section_title
;
Structure prediction by ZEFSAII (Michael W. Deem and Ramdas Pophale) SiO2 
 PCOD9365467
Probable space group: A M A 2
;
_chemical_formula_sum "Si O2"
_cell_formula_units_Z 64
_cell_length_a 28.730832
_cell_length_b 7.001976
_cell_length_c 12.468954
_cell_angle_alpha 90.000000
_cell_angle_beta 90.000000
_cell_angle_gamma 90.000000
_cell_volume 2508.411847
_symmetry_space_group_name_H-M "A M A 2"
_symmetry_group_IT_number 40
_symmetry_cell_setting 'orthorhombic'
loop_
_space_group_symop_operation_xyz
x,y,z
-x,-y,z
1/2-x,y,z
1/2+x,-y,z
x,1/2+y,1/2+z
-x,1/2-y,1/2+z
1/2-x,1/2+y,1/2+z
1/2+x,1/2-y,1/2+z
loop_
_atom_site_type_symbol
_atom_site_label
_atom_site_fract_x
_atom_site_fract_y
_atom_site_fract_z
Si Si1 0.801524 0.384477 0.947660
Si Si2 0.150958 0.027954 0.233463
Si Si3 0.145324 0.594126 0.161520
Si Si4 0.618438 0.333450 0.511651
Si Si5 0.697229 0.963251 0.868665
Si Si6 0.564194 0.538916 0.884921
Si Si7 0.038343 0.163619 0.709498
Si Si8 0.039740 0.357022 0.487420
O O1 0.750000 0.446920 0.981935
O O2 0.809819 0.438828 0.823012
O O3 0.802746 0.154194 0.939840
O O4 0.838088 0.443621 0.039963
O O5 0.156322 0.818065 0.183444
O O6 0.139476 0.159281 0.130641
O O7 0.105658 0.031866 0.308433
O O8 0.176530 0.491956 0.251688
O O9 0.090574 0.578480 0.191190
O O10 0.660454 0.325716 0.426540
O O11 0.582713 0.164858 0.484348
O O12 0.588572 0.527498 0.488754
O O13 0.750000 0.891857 0.861329
O O14 0.539437 0.692884 0.809179
O O15 0.457584 0.655080 0.927976
O O16 0.028517 0.297413 0.608269
O O17 0.000000 0.000000 0.715175
O O18 0.000000 0.500000 0.449234
#
# Coordination Sequence:
#
# PCOD9365467 Si02
#       8
#     8   8   8   8   8   8   8   8
#     4  11  25  43  73 115 158 211 269 332 414 499
#     4  11  23  46  77 109 151 208 274 324 411 487
#     4  11  22  49  77 106 159 213 265 339 416 487
#     4  12  24  52  81 116 163 217 273 347 414 493
#     4  11  23  44  74 114 157 207 268 336 418 490
#     4  11  26  54  81 116 157 217 274 336 425 489
#     4  11  25  53  82 121 164 212 287 350 414 502
#     4  12  29  56  81 118 169 213 282 347 415 507
#
# _framework density 25.514150000000001
#
# number of rings (size 3 to 8) (size 9 to 14) (size 15 to 20)
#    0.000    0.750    6.250    1.875    1.750    4.000 
#    6.750    0.000    0.000    0.000    0.000    0.000 
#    0.000    0.000    0.000    0.000    0.000    0.000 
#
# Total GULP energy -179359.850564 kJ/mol
# GULP energy per Si atom -5604.995330 kJ/mol
# Density = 2.545608 g / cm^3
# Si number density = 25.514150 Si / 1000 Ang^3
#
#
#
# Elastic Constant Matrix: (Units=GPa)
#
#
# Indices 1 2 3 4 5 6 
#
# 1 157.2166 78.3195 64.1965 0.0000 0.0000 0.0000
# 2 78.3195 125.2850 66.6851 0.0000 0.0000 0.0000
# 3 64.1965 66.6851 178.5851 0.0000 0.0000 0.0000
# 4 0.0000 0.0000 0.0000 49.5151 0.0000 0.0000
# 5 0.0000 0.0000 0.0000 0.0000 25.9149 0.0000
# 6 0.0000 0.0000 0.0000 0.0000 0.0000 29.5082
#
#
#
# Elastic Compliance Matrix: (Units=1/GPa)
#
#
# Indices 1 2 3 4 5 6 
#
# 1 0.009550 -0.005170 -0.001502 0.000000 0.000000 0.000000
# 2 -0.005170 0.012761 -0.002906 0.000000 0.000000 0.000000
# 3 -0.001502 -0.002906 0.007225 0.000000 0.000000 0.000000
# 4 0.000000 0.000000 0.000000 0.020196 0.000000 0.000000
# 5 0.000000 0.000000 0.000000 0.000000 0.038588 0.000000
# 6 0.000000 0.000000 0.000000 0.000000 0.000000 0.033889
#
#
# Mechanical properties :
#
#
# Convention : Reuss Voigt Hill
#
# Bulk Modulus (GPa) = 96.36142 97.72099 97.04121
# Shear Modulus (GPa) = 34.52440 37.78000 36.15220
#
# Velocity S-wave (km/s) = 3.68251 3.85222 3.76832
# Velocity P-wave (km/s) = 7.47870 7.62693 7.55318
#
# Compressibility (1/GPa) = 0.01037760
#
# Stress axis : x y z
#
# Youngs Moduli (GPa) = 104.71570 78.36462 138.41036
#
# Poissons Ratio (x) = 0.40516 0.20793
# Poissons Ratio (y) = 0.54140 0.40229
# Poissons Ratio (z) = 0.15731 0.22776
#
# Static dielectric constant tensor:
#      x y z
#    x 2.044600 0.000000 0.000000 
#    y 0.000000 2.223770 0.000000 
#    z 0.000000 0.000000 1.974850 
# 
# From -- ./inp_files/14430.got.cif
#   From: 2010.05.17/outbox.cif.g08.bks.cpg/sg40_8_cif.got.tgz:14430.got - 2010.06.03 18:35:42.
