data_PCOD9365364
_publ_section_title
;
Structure prediction by ZEFSAII (Michael W. Deem and Ramdas Pophale) SiO2 
 PCOD9365364
Probable space group: A M A 2
;
_chemical_formula_sum "Si O2"
_cell_formula_units_Z 56
_cell_length_a 8.725174
_cell_length_b 18.960063
_cell_length_c 21.540127
_cell_angle_alpha 90.000000
_cell_angle_beta 90.000000
_cell_angle_gamma 90.000000
_cell_volume 3563.379951
_symmetry_space_group_name_H-M "A M A 2"
_symmetry_group_IT_number 40
_symmetry_cell_setting 'orthorhombic'
loop_
_space_group_symop_operation_xyz
x,y,z
-x,-y,z
1/2-x,y,z
1/2+x,-y,z
x,1/2+y,1/2+z
-x,1/2-y,1/2+z
1/2-x,1/2+y,1/2+z
1/2+x,1/2-y,1/2+z
loop_
_atom_site_type_symbol
_atom_site_label
_atom_site_fract_x
_atom_site_fract_y
_atom_site_fract_z
Si Si1 0.936290 0.147599 0.010720
Si Si2 0.426707 0.794538 0.824436
Si Si3 0.933786 0.578570 0.641744
Si Si4 0.073449 0.211845 0.456496
Si Si5 0.564507 0.844753 0.261444
Si Si6 0.068542 0.576080 0.387398
Si Si7 0.436049 0.077738 0.389547
O O1 0.750000 0.148135 0.005658
O O2 0.978791 0.114137 0.076338
O O3 0.992569 0.228599 0.002015
O O4 0.999647 0.102287 0.953294
O O5 0.250000 0.813322 0.810875
O O6 0.424816 0.751719 0.889811
O O7 0.482542 0.736112 0.775561
O O8 0.522045 0.864528 0.837244
O O9 0.750000 0.575439 0.644182
O O10 0.000000 0.500000 0.645137
O O11 0.995167 0.623378 0.699509
O O12 0.250000 0.200374 0.475639
O O13 0.007286 0.135167 0.440404
O O14 0.750000 0.845271 0.258450
O O15 0.520926 0.892324 0.321316
O O16 0.250000 0.571602 0.392906
O O17 0.000000 0.500000 0.372152
O O18 0.250000 0.077041 0.391632
O O19 0.500000 0.000000 0.398747
#
# Coordination Sequence:
#
# PCOD9365364 Si02
#       7
#     8   8   8   8   8   8   8
#     4   9  18  33  48  62  85 120 157 191 226 267
#     4   8  15  30  48  64  85 115 148 182 223 271
#     4  11  22  32  45  65  90 120 155 190 223 263
#     4   7  12  26  45  60  79 109 144 177 216 264
#     4   9  18  32  48  64  88 122 153 181 219 265
#     4  11  20  29  45  69  94 119 147 184 227 271
#     4   9  16  26  42  64  87 113 141 173 215 261
#
# _framework density 15.715417
#
# number of rings (size 3 to 8) (size 9 to 14) (size 15 to 20)
#    0.000    2.857    0.000    5.143    0.000    4.571 
#    0.000    5.714    0.000    0.000    0.000    1.000 
#    0.000    4.571    0.000    0.000    0.000    0.000 
#
# Total GULP energy -155919.931547 kJ/mol
# GULP energy per Si atom -5568.568984 kJ/mol
# Density = 1.567965 g / cm^3
# Si number density = 15.715417 Si / 1000 Ang^3
#
#
#
# Elastic Constant Matrix: (Units=GPa)
#
#
# Indices 1 2 3 4 5 6 
#
# 1 29.8518 38.8224 22.6442 0.0000 0.0000 0.0000
# 2 38.8224 156.9464 65.1395 0.0000 0.0000 0.0000
# 3 22.6442 65.1395 75.5744 0.0000 0.0000 0.0000
# 4 0.0000 0.0000 0.0000 26.1845 0.0000 0.0000
# 5 0.0000 0.0000 0.0000 0.0000 -176.1420 0.0000
# 6 0.0000 0.0000 0.0000 0.0000 0.0000 24.2716
#
#
#
# Elastic Compliance Matrix: (Units=1/GPa)
#
#
# Indices 1 2 3 4 5 6 
#
# 1 0.051627 -0.009887 -0.006947 0.000000 0.000000 0.000000
# 2 -0.009887 0.011814 -0.007220 0.000000 0.000000 0.000000
# 3 -0.006947 -0.007220 0.021537 0.000000 0.000000 0.000000
# 4 0.000000 0.000000 0.000000 0.038191 0.000000 0.000000
# 5 0.000000 0.000000 0.000000 0.000000 -0.005677 0.000000
# 6 0.000000 0.000000 0.000000 0.000000 0.000000 0.041200
#
#
# Mechanical properties :
#
#
# Convention : Reuss Voigt Hill
#
# Bulk Modulus (GPa) = 27.12306 57.28720 42.20513
# Shear Modulus (GPa) = 22.82170 -16.08608 3.36781
#
# Velocity S-wave (km/s) = 3.81489 -3.20282 1.46549
# Velocity P-wave (km/s) = 6.05812 4.78064 5.45690
#
# Compressibility (1/GPa) = 0.03686899
#
# Stress axis : x y z
#
# Youngs Moduli (GPa) = 19.36981 84.64476 46.43209
#
# Poissons Ratio (x) = 0.83690 0.32255
# Poissons Ratio (y) = 0.19151 0.33526
# Poissons Ratio (z) = 0.13456 0.61117
#
# Static dielectric constant tensor:
#      x y z
#    x 1.534610 0.000000 0.000000 
#    y 0.000000 1.546560 0.000000 
#    z 0.000000 0.000000 1.510730 
# 
# From -- ./inp_files/22310.got.cif
#   From: 2010.05.17/outbox.cif.g08.bks.cpg/sg40_12_cif.got.tgz:22310.got - 2010.06.03 18:35:42.
