data_PCOD9365272
_publ_section_title
;
Structure prediction by ZEFSAII (Michael W. Deem and Ramdas Pophale) SiO2 
 PCOD9365272
Probable space group: A M A 2
;
_chemical_formula_sum "Si O2"
_cell_formula_units_Z 32
_cell_length_a 27.559984
_cell_length_b 9.528727
_cell_length_c 5.140482
_cell_angle_alpha 90.000000
_cell_angle_beta 90.000000
_cell_angle_gamma 90.000000
_cell_volume 1349.950016
_symmetry_space_group_name_H-M "A M A 2"
_symmetry_group_IT_number 40
_symmetry_cell_setting 'orthorhombic'
loop_
_space_group_symop_operation_xyz
x,y,z
-x,-y,z
1/2-x,y,z
1/2+x,-y,z
x,1/2+y,1/2+z
-x,1/2-y,1/2+z
1/2-x,1/2+y,1/2+z
1/2+x,1/2-y,1/2+z
loop_
_atom_site_type_symbol
_atom_site_label
_atom_site_fract_x
_atom_site_fract_y
_atom_site_fract_z
Si Si1 0.362795 0.271971 0.421460
Si Si2 0.388921 0.053129 0.067542
Si Si3 0.017694 0.163197 0.826709
Si Si4 0.306780 0.221470 0.930110
O O1 0.398687 0.391517 0.521371
O O2 0.321763 0.256337 0.638378
O O3 0.388781 0.124198 0.350880
O O4 0.337254 0.309462 0.144529
O O5 0.425336 0.146221 0.898675
O O6 0.332640 0.072309 0.984061
O O7 0.003835 0.242653 0.562330
O O8 0.000000 0.000000 0.822980
O O9 0.250000 0.226035 0.973735
#
# Coordination Sequence:
#
# PCOD9365272 Si02
#       4
#     8   8   8   8
#     4  10  24  41  67  95 134 177 223 278 346 407
#     4  10  26  44  71  94 142 174 233 282 354 413
#     4  12  28  47  76 108 144 187 243 297 363 429
#     4  10  24  42  66  98 135 177 229 281 344 413
#
# _framework density 23.704581000000001
#
# number of rings (size 3 to 8) (size 9 to 14) (size 15 to 20)
#    1.500    0.000    0.000    3.000   10.500    2.000 
#    0.000    0.000    0.000    0.000    0.000    0.000 
#    0.000    0.000    0.000    0.000    0.000    0.000 
#
# Total GULP energy -89198.011115 kJ/mol
# GULP energy per Si atom -5574.875695 kJ/mol
# Density = 2.365063 g / cm^3
# Si number density = 23.704581 Si / 1000 Ang^3
#
#
#
# Elastic Constant Matrix: (Units=GPa)
#
#
# Indices 1 2 3 4 5 6 
#
# 1 83.2008 30.6455 21.9945 0.0000 0.0000 0.0000
# 2 30.6455 157.9407 64.7096 0.0000 0.0000 0.0000
# 3 21.9945 64.7096 127.6599 0.0000 0.0000 0.0000
# 4 0.0000 0.0000 0.0000 37.1658 0.0000 0.0000
# 5 0.0000 0.0000 0.0000 0.0000 27.1599 0.0000
# 6 0.0000 0.0000 0.0000 0.0000 0.0000 20.1249
#
#
#
# Elastic Compliance Matrix: (Units=1/GPa)
#
#
# Indices 1 2 3 4 5 6 
#
# 1 0.013094 -0.002040 -0.001222 0.000000 0.000000 0.000000
# 2 -0.002040 0.008309 -0.003860 0.000000 0.000000 0.000000
# 3 -0.001222 -0.003860 0.010001 0.000000 0.000000 0.000000
# 4 0.000000 0.000000 0.000000 0.026906 0.000000 0.000000
# 5 0.000000 0.000000 0.000000 0.000000 0.036819 0.000000
# 6 0.000000 0.000000 0.000000 0.000000 0.000000 0.049690
#
#
# Mechanical properties :
#
#
# Convention : Reuss Voigt Hill
#
# Bulk Modulus (GPa) = 58.27891 67.05561 62.66726
# Shear Modulus (GPa) = 30.34316 33.65357 31.99836
#
# Velocity S-wave (km/s) = 3.58167 3.77199 3.67806
# Velocity P-wave (km/s) = 6.46091 6.87895 6.67320
#
# Compressibility (1/GPa) = 0.01715887
#
# Stress axis : x y z
#
# Youngs Moduli (GPa) = 76.37377 120.35327 99.99467
#
# Poissons Ratio (x) = 0.24552 0.12218
# Poissons Ratio (y) = 0.15580 0.38600
# Poissons Ratio (z) = 0.09332 0.46459
#
# Static dielectric constant tensor:
#      x y z
#    x 1.879370 0.000000 0.000000 
#    y 0.000000 1.970720 0.000000 
#    z 0.000000 0.000000 1.906250 
# 
# From -- ./inp_files/3258.got.cif
#   From: 2010.05.17/outbox.cif.g08.bks.cpg/sg40_2_cif.got.tgz:3258.got - 2010.06.03 18:35:42.
