data_PCOD9365136
_publ_section_title
;
Structure prediction by ZEFSAII (Michael W. Deem and Ramdas Pophale) SiO2 
 PCOD9365136
Probable space group: A M A 2
;
_chemical_formula_sum "Si O2"
_cell_formula_units_Z 40
_cell_length_a 12.842962
_cell_length_b 24.780643
_cell_length_c 4.897680
_cell_angle_alpha 90.000000
_cell_angle_beta 90.000000
_cell_angle_gamma 90.000000
_cell_volume 1558.720240
_symmetry_space_group_name_H-M "A M A 2"
_symmetry_group_IT_number 40
_symmetry_cell_setting 'orthorhombic'
loop_
_space_group_symop_operation_xyz
x,y,z
-x,-y,z
1/2-x,y,z
1/2+x,-y,z
x,1/2+y,1/2+z
-x,1/2-y,1/2+z
1/2-x,1/2+y,1/2+z
1/2+x,1/2-y,1/2+z
loop_
_atom_site_type_symbol
_atom_site_label
_atom_site_fract_x
_atom_site_fract_y
_atom_site_fract_z
Si Si1 0.430338 0.244881 0.277510
Si Si2 0.250000 0.577701 0.158728
Si Si3 0.361617 0.353632 0.058608
Si Si4 0.447200 0.948203 0.928582
Si Si5 0.750000 0.995429 0.174120
Si Si6 0.923781 0.370353 0.788163
O O1 0.466773 0.245371 0.590913
O O2 0.363072 0.297899 0.224306
O O3 0.379756 0.187524 0.190736
O O4 0.250000 0.522593 0.986220
O O5 0.148607 0.608971 0.036752
O O6 0.250000 0.558264 0.472760
O O7 0.250000 0.360906 0.923775
O O8 0.390630 0.404711 0.242716
O O9 0.460328 0.351216 0.865936
O O10 0.500000 0.000000 0.783113
O O11 0.355092 0.971737 0.115523
O O12 0.541102 0.918436 0.088804
#
# Coordination Sequence:
#
# PCOD9365136 Si02
#       6
#     8   4   8   8   4   8
#     4  10  22  45  71 103 144 186 242 298 360 432
#     4  12  28  50  73 105 152 194 254 296 373 425
#     4  11  25  44  72 108 150 191 247 302 372 436
#     4  12  24  43  71 103 150 191 244 299 369 430
#     4  12  28  46  69 107 146 200 242 304 357 449
#     4  11  26  45  74 106 149 196 246 305 364 442
#
# _framework density 25.662077
#
# number of rings (size 3 to 8) (size 9 to 14) (size 15 to 20)
#    0.000    0.800    5.000    1.200    5.600    0.800 
#    0.000    0.000    8.800    0.000    0.000    0.000 
#    0.000    0.000    0.000    0.000    0.000    0.000 
#
# Total GULP energy -111812.580955 kJ/mol
# GULP energy per Si atom -5590.629048 kJ/mol
# Density = 2.560367 g / cm^3
# Si number density = 25.662077 Si / 1000 Ang^3
#
#
#
# Elastic Constant Matrix: (Units=GPa)
#
#
# Indices 1 2 3 4 5 6 
#
# 1 165.0844 32.3080 12.9402 0.0000 0.0000 0.0000
# 2 32.3080 181.3286 3.1922 0.0000 0.0000 0.0000
# 3 12.9402 3.1922 31.7300 0.0000 0.0000 0.0000
# 4 0.0000 0.0000 0.0000 38.8918 0.0000 0.0000
# 5 0.0000 0.0000 0.0000 0.0000 21.4566 0.0000
# 6 0.0000 0.0000 0.0000 0.0000 0.0000 -120.9395
#
#
#
# Elastic Compliance Matrix: (Units=1/GPa)
#
#
# Indices 1 2 3 4 5 6 
#
# 1 0.006473 -0.001109 -0.002528 0.000000 0.000000 0.000000
# 2 -0.001109 0.005715 -0.000123 0.000000 0.000000 0.000000
# 3 -0.002528 -0.000123 0.032559 0.000000 0.000000 0.000000
# 4 0.000000 0.000000 0.000000 0.025712 0.000000 0.000000
# 5 0.000000 0.000000 0.000000 0.000000 0.046606 0.000000
# 6 0.000000 0.000000 0.000000 0.000000 0.000000 -0.008269
#
#
# Mechanical properties :
#
#
# Convention : Reuss Voigt Hill
#
# Bulk Modulus (GPa) = 26.86203 52.78041 39.82122
# Shear Modulus (GPa) = 38.84266 9.86197 24.35231
#
# Velocity S-wave (km/s) = 3.89475 1.96249 3.08386
# Velocity P-wave (km/s) = 5.54218 5.07418 5.31333
#
# Compressibility (1/GPa) = 0.03722726
#
# Stress axis : x y z
#
# Youngs Moduli (GPa) = 154.49582 174.99161 30.71318
#
# Poissons Ratio (x) = 0.19402 0.07765
# Poissons Ratio (y) = 0.17130 0.00377
# Poissons Ratio (z) = 0.39059 0.02148
#
# Static dielectric constant tensor:
#      x y z
#    x 2.067380 0.000000 0.000000 
#    y 0.000000 2.165820 0.000000 
#    z 0.000000 0.000000 2.014380 
# 
# From -- ./inp_files/813.got.cif
#   From: 2010.05.17/outbox.cif.g08.bks.cpg/sg40_1_cif.got.tgz:813.got - 2010.06.03 18:35:42.
