data_PCOD9365731
_publ_section_title
;
Structure prediction by ZEFSAII (Michael W. Deem and Ramdas Pophale) SiO2 
 PCOD9365731
Probable space group: A B A 2
;
_chemical_formula_sum "Si O2"
_cell_formula_units_Z 60
_cell_length_a 26.061462
_cell_length_b 11.046038
_cell_length_c 8.981214
_cell_angle_alpha 90.000000
_cell_angle_beta 90.000000
_cell_angle_gamma 90.000000
_cell_volume 2585.475060
_symmetry_space_group_name_H-M "A B A 2"
_symmetry_group_IT_number 41
_symmetry_cell_setting 'orthorhombic'
loop_
_space_group_symop_operation_xyz
x,y,z
-x,-y,z
1/2-x,y,1/2+z
1/2+x,-y,1/2+z
x,1/2+y,1/2+z
-x,1/2-y,1/2+z
1/2-x,1/2+y,z
1/2+x,1/2-y,z
loop_
_atom_site_type_symbol
_atom_site_label
_atom_site_fract_x
_atom_site_fract_y
_atom_site_fract_z
Si Si1 0.629282 0.505442 0.247170
Si Si2 0.458839 0.254669 0.952363
Si Si3 0.954529 0.356270 0.631765
Si Si4 0.712064 0.053335 0.494716
Si Si5 0.155076 0.215648 0.465044
Si Si6 0.313127 0.013445 0.176029
Si Si7 0.892735 0.147543 0.528100
Si Si8 0.500000 0.500000 0.548037
O O1 0.570822 0.478485 0.194200
O O2 0.647345 0.385982 0.338092
O O3 0.628944 0.613627 0.366423
O O4 0.668120 0.527092 0.114975
O O5 0.469688 0.219236 0.780357
O O6 0.399154 0.286500 0.967506
O O7 0.498787 0.351409 0.016858
O O8 0.467619 0.128911 0.038911
O O9 0.907285 0.285876 0.554188
O O10 0.702200 0.192938 0.447915
O O11 0.704561 0.978091 0.344815
O O12 0.765561 0.024199 0.571800
O O13 0.163656 0.137453 0.613485
O O14 0.354984 0.907725 0.151092
O O15 0.946412 0.077008 0.542078
#
# Coordination Sequence:
#
# PCOD9365731 Si02
#       8
#     8   8   8   8   8   8   8   4
#     4  10  22  45  63  96 132 173 220 273 330 388
#     4  10  20  38  62  96 132 177 218 270 332 385
#     4  10  21  37  64  95 130 173 219 267 323 396
#     4  12  27  43  71 100 130 177 225 274 336 397
#     4  10  23  46  66  93 138 171 221 277 325 399
#     4  11  23  43  67  98 131 172 222 275 329 391
#     4  10  20  39  68  91 130 177 215 266 336 382
#     4  10  16  36  68  88 128 178 204 264 332 380
#
# _framework density 23.206568000000001
#
# number of rings (size 3 to 8) (size 9 to 14) (size 15 to 20)
#    0.000    1.600    4.000    3.200    0.000    7.467 
#    0.000    0.000    0.000    0.000    0.000    0.000 
#    0.000    0.000    0.000    0.000    0.000    0.000 
#
# Total GULP energy -167312.502842 kJ/mol
# GULP energy per Si atom -5577.083428 kJ/mol
# Density = 2.315375 g / cm^3
# Si number density = 23.206568 Si / 1000 Ang^3
#
#
#
# Elastic Constant Matrix: (Units=GPa)
#
#
# Indices 1 2 3 4 5 6 
#
# 1 91.6313 -15.7564 48.3609 0.0000 0.0000 0.0000
# 2 -15.7564 38.6263 11.3060 0.0000 0.0000 0.0000
# 3 48.3609 11.3060 115.9827 0.0000 0.0000 0.0000
# 4 0.0000 0.0000 0.0000 18.9688 0.0000 0.0000
# 5 0.0000 0.0000 0.0000 0.0000 38.1835 0.0000
# 6 0.0000 0.0000 0.0000 0.0000 0.0000 30.9302
#
#
#
# Elastic Compliance Matrix: (Units=1/GPa)
#
#
# Indices 1 2 3 4 5 6 
#
# 1 0.016584 0.009047 -0.007797 0.000000 0.000000 0.000000
# 2 0.009047 0.031585 -0.006851 0.000000 0.000000 0.000000
# 3 -0.007797 -0.006851 0.012541 0.000000 0.000000 0.000000
# 4 0.000000 0.000000 0.000000 0.052718 0.000000 0.000000
# 5 0.000000 0.000000 0.000000 0.000000 0.026189 0.000000
# 6 0.000000 0.000000 0.000000 0.000000 0.000000 0.032331
#
#
# Mechanical properties :
#
#
# Convention : Reuss Voigt Hill
#
# Bulk Modulus (GPa) = 20.19881 37.11791 28.65836
# Shear Modulus (GPa) = 25.04347 31.10516 28.07431
#
# Velocity S-wave (km/s) = 3.28861 3.66506 3.48193
# Velocity P-wave (km/s) = 4.81069 5.82577 5.34239
#
# Compressibility (1/GPa) = 0.04950786
#
# Stress axis : x y z
#
# Youngs Moduli (GPa) = 60.29893 31.66060 79.73915
#
# Poissons Ratio (x) = -0.28644 0.62172
# Poissons Ratio (y) = -0.54553 0.54631
# Poissons Ratio (z) = 0.47015 0.21692
#
# Static dielectric constant tensor:
#      x y z
#    x 1.863670 0.000000 0.000000 
#    y 0.000000 1.899610 0.000000 
#    z 0.000000 0.000000 1.893360 
# 
# From -- ./inp_files/3834.got.cif
#   From: 2010.05.17/outbox.cif.g08.bks.cpg/sg41_2_cif.got.tgz:3834.got - 2010.06.03 18:54:24.
