data_PCOD9365930
_publ_section_title
;
Structure prediction by ZEFSAII (Michael W. Deem and Ramdas Pophale) SiO2 
 PCOD9365930
Probable space group: A B A 2
;
_chemical_formula_sum "Si O2"
_cell_formula_units_Z 64
_cell_length_a 8.343262
_cell_length_b 13.817569
_cell_length_c 23.317094
_cell_angle_alpha 90.000000
_cell_angle_beta 90.000000
_cell_angle_gamma 90.000000
_cell_volume 2688.078500
_symmetry_space_group_name_H-M "A B A 2"
_symmetry_group_IT_number 41
_symmetry_cell_setting 'orthorhombic'
loop_
_space_group_symop_operation_xyz
x,y,z
-x,-y,z
1/2-x,y,1/2+z
1/2+x,-y,1/2+z
x,1/2+y,1/2+z
-x,1/2-y,1/2+z
1/2-x,1/2+y,z
1/2+x,1/2-y,z
loop_
_atom_site_type_symbol
_atom_site_label
_atom_site_fract_x
_atom_site_fract_y
_atom_site_fract_z
Si Si1 0.173812 0.098219 0.133300
Si Si2 0.657144 0.071249 0.336648
Si Si3 0.277813 0.603914 0.382962
Si Si4 0.248573 0.034812 0.507444
Si Si5 0.011376 0.733060 0.396669
Si Si6 0.164031 0.436816 0.207403
Si Si7 0.997714 0.722504 0.133486
Si Si8 0.921330 0.161179 0.509582
O O1 0.165544 0.060293 0.067285
O O2 0.023669 0.165593 0.149965
O O3 0.329671 0.170313 0.135987
O O4 0.212120 0.009672 0.176217
O O5 0.628562 0.155068 0.383158
O O6 0.690226 0.101265 0.271739
O O7 0.500000 0.000000 0.338021
O O8 0.795062 0.996241 0.351795
O O9 0.198728 0.570478 0.444366
O O10 0.441202 0.662443 0.382304
O O11 0.151429 0.683402 0.360133
O O12 0.080520 0.094205 0.509662
O O13 0.217777 0.919210 0.505784
O O14 0.072890 0.758147 0.460423
O O15 0.120077 0.345283 0.169425
O O16 0.000000 0.500000 0.209907
O O17 0.929725 0.715928 0.069133
#
# Coordination Sequence:
#
# PCOD9365930 Si02
#       8
#     8   8   8   8   8   8   8   8
#     4  10  19  34  57  85 112 151 193 241 293 355
#     4   9  20  38  56  82 117 154 200 249 301 349
#     4  10  21  36  56  82 115 153 192 242 293 356
#     4   9  17  32  55  82 113 150 189 234 294 353
#     4  10  21  36  57  83 114 150 196 243 292 350
#     4   9  18  36  60  79 110 160 199 236 290 365
#     4  10  19  34  58  84 114 148 193 237 296 353
#     4   9  17  32  55  83 114 148 190 236 289 359
#
# _framework density 23.808827999999998
#
# number of rings (size 3 to 8) (size 9 to 14) (size 15 to 20)
#    0.000    2.500    1.250    0.750    1.750    1.000 
#    0.000    0.625    0.000    1.500    0.000    0.000 
#    0.000    0.000    0.000    0.000    0.000    0.000 
#
# Total GULP energy -178437.697489 kJ/mol
# GULP energy per Si atom -5576.178047 kJ/mol
# Density = 2.375464 g / cm^3
# Si number density = 23.808828 Si / 1000 Ang^3
#
#
#
# Elastic Constant Matrix: (Units=GPa)
#
#
# Indices 1 2 3 4 5 6 
#
# 1 44.7206 32.5947 12.3193 0.0000 0.0000 0.0000
# 2 32.5947 119.0879 55.0316 0.0000 0.0000 0.0000
# 3 12.3193 55.0316 85.8590 0.0000 0.0000 0.0000
# 4 0.0000 0.0000 0.0000 13.8016 0.0000 0.0000
# 5 0.0000 0.0000 0.0000 0.0000 106.8399 0.0000
# 6 0.0000 0.0000 0.0000 0.0000 0.0000 49.5253
#
#
#
# Elastic Compliance Matrix: (Units=1/GPa)
#
#
# Indices 1 2 3 4 5 6 
#
# 1 0.028031 -0.008260 0.001272 0.000000 0.000000 0.000000
# 2 -0.008260 0.014365 -0.008022 0.000000 0.000000 0.000000
# 3 0.001272 -0.008022 0.016606 0.000000 0.000000 0.000000
# 4 0.000000 0.000000 0.000000 0.072455 0.000000 0.000000
# 5 0.000000 0.000000 0.000000 0.000000 0.009360 0.000000
# 6 0.000000 0.000000 0.000000 0.000000 0.000000 0.020192
#
#
# Mechanical properties :
#
#
# Convention : Reuss Voigt Hill
#
# Bulk Modulus (GPa) = 34.50359 49.95096 42.22728
# Shear Modulus (GPa) = 24.91407 44.01483 34.46445
#
# Velocity S-wave (km/s) = 3.23835 4.30429 3.80879
# Velocity P-wave (km/s) = 5.33910 6.76226 6.09238
#
# Compressibility (1/GPa) = 0.02898249
#
# Stress axis : x y z
#
# Youngs Moduli (GPa) = 35.67487 69.61318 60.21821
#
# Poissons Ratio (x) = 0.57501 -0.07662
# Poissons Ratio (y) = 0.29468 0.48308
# Poissons Ratio (z) = -0.04539 0.55845
#
# Static dielectric constant tensor:
#      x y z
#    x 1.431350 0.000000 0.000000 
#    y 0.000000 1.906750 0.000000 
#    z 0.000000 0.000000 1.915010 
# 
# From -- ./inp_files/12169.got.cif
#   From: 2010.05.17/outbox.cif.g08.bks.cpg/sg41_7_cif.got.tgz:12169.got - 2010.06.03 18:54:24.
