data_PCOD9365692
_publ_section_title
;
Structure prediction by ZEFSAII (Michael W. Deem and Ramdas Pophale) SiO2 
 PCOD9365692
Probable space group: A M A 2
;
_chemical_formula_sum "Si O2"
_cell_formula_units_Z 32
_cell_length_a 9.000000
_cell_length_b 24.000000
_cell_length_c 15.000000
_cell_angle_alpha 90.000000
_cell_angle_beta 90.000000
_cell_angle_gamma 90.000000
_cell_volume 3240.000000
_symmetry_space_group_name_H-M "A M A 2"
_symmetry_group_IT_number 40
_symmetry_cell_setting 'orthorhombic'
loop_
_space_group_symop_operation_xyz
x,y,z
-x,-y,z
1/2-x,y,z
1/2+x,-y,z
x,1/2+y,1/2+z
-x,1/2-y,1/2+z
1/2-x,1/2+y,1/2+z
1/2+x,1/2-y,1/2+z
loop_
_atom_site_type_symbol
_atom_site_label
_atom_site_fract_x
_atom_site_fract_y
_atom_site_fract_z
Si Si1 0.426705 0.440448 0.574830
Si Si2 0.427455 0.743868 0.152856
Si Si3 0.074031 0.940664 0.542193
Si Si4 0.421522 0.144643 0.408681
Si Si5 0.425431 0.616202 0.411417
Si Si6 0.577298 0.353780 0.708270
Si Si7 0.924662 0.883749 0.705506
Si Si8 0.572749 0.755594 0.959444
O O1 0.500000 0.500000 0.593768
O O2 0.250000 0.443332 0.582774
O O3 0.475850 0.420224 0.476930
O O4 0.493807 0.394313 0.641015
O O5 0.250000 0.751081 0.143491
O O6 0.496205 0.794268 0.208476
O O7 0.453480 0.682207 0.191201
O O8 0.509805 0.749543 0.058792
O O9 0.250000 0.944946 0.536308
O O10 0.013000 0.894384 0.474239
O O11 0.023391 0.919591 0.639279
O O12 0.000000 0.000000 0.522990
O O13 0.250000 0.147418 0.438904
O O14 0.425804 0.122613 0.308067
O O15 0.489690 0.206348 0.408507
O O16 0.250000 0.608054 0.432777
O O17 0.449033 0.602284 0.308407
O O18 0.457319 0.681936 0.425759
O O19 0.750000 0.346802 0.681121
O O20 0.750000 0.892876 0.684237
O O21 0.750000 0.747010 0.956202
#
# Coordination Sequence:
#
# PCOD9365692 Si02
#       8
#     8   8   8   8   8   8   8   8
#     4  12  26  44  67  91 122 164 210 263 315 373
#     4  11  21  36  63  96 131 169 207 252 310 370
#     4  12  26  44  67  91 122 164 210 263 315 373
#     4  11  24  42  65  94 129 167 209 258 311 372
#     4  10  22  41  65  93 128 167 208 256 309 368
#     4  11  24  42  65  94 129 167 209 258 311 372
#     4  10  22  41  65  93 128 167 208 256 309 368
#     4  11  21  36  63  96 131 169 207 252 310 370
#
# _framework density 9.8765429999999999
#
# number of rings (size 3 to 8) (size 9 to 14) (size 15 to 20)
#    0.000    1.000    2.500    4.500    0.000    5.500 
#    0.000    0.000    0.000    0.000    0.000    0.000 
#    0.000    0.000    0.000    0.000    0.000    0.000 
#
# Total GULP energy -178965.852244 kJ/mol
# GULP energy per Si atom -5592.682883 kJ/mol
# Density = 0.985406 g / cm^3
# Si number density = 9.876543 Si / 1000 Ang^3
#
#
#
# Elastic Constant Matrix: (Units=GPa)
#
#
# Indices 1 2 3 4 5 6 
#
# 1 76.4891 6.0717 4.8036 0.0000 0.0000 0.0000
# 2 6.0717 33.8931 -16.5115 0.0000 0.0000 0.0000
# 3 4.8036 -16.5115 56.7721 0.0000 0.0000 0.0000
# 4 0.0000 0.0000 0.0000 -25.1657 0.0000 0.0000
# 5 0.0000 0.0000 0.0000 0.0000 3.8705 0.0000
# 6 0.0000 0.0000 0.0000 0.0000 0.0000 36.1553
#
#
#
# Elastic Compliance Matrix: (Units=1/GPa)
#
#
# Indices 1 2 3 4 5 6 
#
# 1 0.013483 -0.003462 -0.002148 0.000000 0.000000 0.000000
# 2 -0.003462 0.035264 0.010549 0.000000 0.000000 0.000000
# 3 -0.002148 0.010549 0.020864 0.000000 0.000000 0.000000
# 4 0.000000 0.000000 0.000000 -0.039737 0.000000 0.000000
# 5 0.000000 0.000000 0.000000 0.000000 0.258367 0.000000
# 6 0.000000 0.000000 0.000000 0.000000 0.000000 0.027658
#
#
# Mechanical properties :
#
#
# Convention : Reuss Voigt Hill
#
# Bulk Modulus (GPa) = 12.58015 17.32020 14.95017
# Shear Modulus (GPa) = 15.03678 14.49137 14.76408
#
# Velocity S-wave (km/s) = 2.76205 2.71149 2.73689
# Velocity P-wave (km/s) = 4.06871 4.31165 4.19194
#
# Compressibility (1/GPa) = 0.07949034
#
# Stress axis : x y z
#
# Youngs Moduli (GPa) = 74.16510 28.35776 47.92934
#
# Poissons Ratio (x) = 0.09817 0.10294
# Poissons Ratio (y) = 0.25674 -0.50560
# Poissons Ratio (z) = 0.15928 -0.29914
#
# Static dielectric constant tensor:
#      x y z
#    x 1.659210 0.000000 0.000000 
#    y 0.000000 1.679590 0.000000 
#    z 0.000000 0.000000 1.731560 
# 
# From -- ./inp_files/15637.got.cif
#   From: 2010.05.17/outbox.ucp.g08.bks.cvg/sg40_8_cif.got.tgz:15637.got - 2010.06.11 16:26:39.
