data_PCOD9365629
_publ_section_title
;
Structure prediction by ZEFSAII (Michael W. Deem and Ramdas Pophale) SiO2 
 PCOD9365629
Probable space group: A M A 2
;
_chemical_formula_sum "Si O2"
_cell_formula_units_Z 24
_cell_length_a 9.000000
_cell_length_b 15.000000
_cell_length_c 18.000000
_cell_angle_alpha 90.000000
_cell_angle_beta 90.000000
_cell_angle_gamma 90.000000
_cell_volume 2430.000000
_symmetry_space_group_name_H-M "A M A 2"
_symmetry_group_IT_number 40
_symmetry_cell_setting 'orthorhombic'
loop_
_space_group_symop_operation_xyz
x,y,z
-x,-y,z
1/2-x,y,z
1/2+x,-y,z
x,1/2+y,1/2+z
-x,1/2-y,1/2+z
1/2-x,1/2+y,1/2+z
1/2+x,1/2-y,1/2+z
loop_
_atom_site_type_symbol
_atom_site_label
_atom_site_fract_x
_atom_site_fract_y
_atom_site_fract_z
Si Si1 0.569715 0.099459 0.053510
Si Si2 0.431493 0.708738 0.689277
Si Si3 0.082774 0.587608 0.343415
Si Si4 0.920355 0.406749 0.167582
Si Si5 0.932272 0.602550 0.833417
Si Si6 0.573573 0.242621 0.919430
O O1 0.750000 0.090656 0.062691
O O2 0.487959 0.141811 0.124813
O O3 0.500000 0.000000 0.039687
O O4 0.546540 0.177509 0.990843
O O5 0.250000 0.712359 0.695088
O O6 0.494173 0.809476 0.667441
O O7 0.501966 0.660723 0.763368
O O8 0.250000 0.597195 0.374610
O O9 0.095995 0.576490 0.255486
O O10 0.000000 0.500000 0.373137
O O11 0.984137 0.674292 0.356744
O O12 0.750000 0.397493 0.137102
O O13 0.000000 0.500000 0.139185
O O14 0.750000 0.599213 0.830299
O O15 0.000000 0.500000 0.833937
O O16 0.987041 0.664049 0.904059
O O17 0.750000 0.259401 0.914832
#
# Coordination Sequence:
#
# PCOD9365629 Si02
#       6
#     8   8   8   8   8   8
#     4  11  25  44  66  95 132 171 215 264 321 385
#     4  12  24  41  66  95 131 172 217 267 322 384
#     4  10  19  31  53  84 121 160 198 249 304 363
#     4  10  20  35  57  89 126 164 206 257 313 370
#     4  12  25  43  67  95 128 167 214 268 323 383
#     4  11  23  40  63  92 126 164 208 261 317 379
#
# _framework density 9.8765429999999999
#
# number of rings (size 3 to 8) (size 9 to 14) (size 15 to 20)
#    0.000    1.000    1.667    6.000    0.000    5.333 
#    0.000    0.833    0.000    4.000    0.000    0.000 
#    0.000    0.000    0.000    0.000    0.000    0.000 
#
# Total GULP energy -133780.492945 kJ/mol
# GULP energy per Si atom -5574.187206 kJ/mol
# Density = 0.985406 g / cm^3
# Si number density = 9.876543 Si / 1000 Ang^3
#
#
#
# Elastic Constant Matrix: (Units=GPa)
#
#
# Indices 1 2 3 4 5 6 
#
# 1 182.5762 78.7569 32.7744 0.0000 0.0000 0.0000
# 2 78.7569 201.8055 33.7090 0.0000 0.0000 0.0000
# 3 32.7744 33.7090 57.1203 0.0000 0.0000 0.0000
# 4 0.0000 0.0000 0.0000 28.0401 0.0000 0.0000
# 5 0.0000 0.0000 0.0000 0.0000 22.3345 0.0000
# 6 0.0000 0.0000 0.0000 0.0000 0.0000 49.1024
#
#
#
# Elastic Compliance Matrix: (Units=1/GPa)
#
#
# Indices 1 2 3 4 5 6 
#
# 1 0.006927 -0.002262 -0.002639 0.000000 0.000000 0.000000
# 2 -0.002262 0.006236 -0.002382 0.000000 0.000000 0.000000
# 3 -0.002639 -0.002382 0.020427 0.000000 0.000000 0.000000
# 4 0.000000 0.000000 0.000000 0.035663 0.000000 0.000000
# 5 0.000000 0.000000 0.000000 0.000000 0.044774 0.000000
# 6 0.000000 0.000000 0.000000 0.000000 0.000000 0.020366
#
#
# Mechanical properties :
#
#
# Convention : Reuss Voigt Hill
#
# Bulk Modulus (GPa) = 52.56962 81.33141 66.95051
# Shear Modulus (GPa) = 32.19555 39.64619 35.92087
#
# Velocity S-wave (km/s) = 4.04158 4.48491 4.26901
# Velocity P-wave (km/s) = 6.96063 8.25122 7.63325
#
# Compressibility (1/GPa) = 0.01902239
#
# Stress axis : x y z
#
# Youngs Moduli (GPa) = 144.36486 160.35680 48.95470
#
# Poissons Ratio (x) = 0.36280 0.12921
# Poissons Ratio (y) = 0.32662 0.11661
# Poissons Ratio (z) = 0.38103 0.38198
#
# Static dielectric constant tensor:
#      x y z
#    x 1.703260 0.000000 0.000000 
#    y 0.000000 1.695270 0.000000 
#    z 0.000000 0.000000 1.785200 
# 
# From -- ./inp_files/19200.got.cif
#   From: 2010.05.17/outbox.ucp.g08.bks.cvg/sg40_10_cif.got.tgz:19200.got - 2010.06.11 16:26:39.
