data_PCOD9365287
_publ_section_title
;
Structure prediction by ZEFSAII (Michael W. Deem and Ramdas Pophale) SiO2 
 PCOD9365287
Probable space group: A M A 2
;
_chemical_formula_sum "Si O2"
_cell_formula_units_Z 64
_cell_length_a 15.773907
_cell_length_b 12.032968
_cell_length_c 14.918785
_cell_angle_alpha 90.000000
_cell_angle_beta 90.000000
_cell_angle_gamma 90.000000
_cell_volume 2831.688604
_symmetry_space_group_name_H-M "A M A 2"
_symmetry_group_IT_number 40
_symmetry_cell_setting 'orthorhombic'
loop_
_space_group_symop_operation_xyz
x,y,z
-x,-y,z
1/2-x,y,z
1/2+x,-y,z
x,1/2+y,1/2+z
-x,1/2-y,1/2+z
1/2-x,1/2+y,1/2+z
1/2+x,1/2-y,1/2+z
loop_
_atom_site_type_symbol
_atom_site_label
_atom_site_fract_x
_atom_site_fract_y
_atom_site_fract_z
Si Si1 0.099017 0.775575 0.197730
Si Si2 0.849339 0.699418 0.494732
Si Si3 0.072953 0.191531 0.316395
Si Si4 0.403916 0.017195 0.916696
Si Si5 0.097587 0.019724 0.709413
Si Si6 0.352857 0.262196 0.962375
Si Si7 0.152939 0.453585 0.830091
Si Si8 0.657149 0.700437 0.151200
O O1 0.125448 0.646764 0.206425
O O2 0.153362 0.873098 0.243330
O O3 0.014046 0.784793 0.260329
O O4 0.103772 0.790898 0.090579
O O5 0.750000 0.739248 0.497606
O O6 0.904931 0.758029 0.414818
O O7 0.847593 0.568670 0.470926
O O8 0.135172 0.250300 0.246258
O O9 0.094597 0.061053 0.318991
O O10 0.400102 0.984070 0.812836
O O11 0.379721 0.145437 0.921580
O O12 0.500000 0.000000 0.948155
O O13 0.152502 0.932331 0.655161
O O14 0.000000 0.000000 0.679697
O O15 0.250000 0.266711 0.956334
O O16 0.379756 0.372425 0.909164
O O17 0.391605 0.263619 0.062281
O O18 0.250000 0.489501 0.848550
O O19 0.750000 0.742078 0.132182
#
# Coordination Sequence:
#
# PCOD9365287 Si02
#       8
#     8   8   8   8   8   8   8   8
#     4  12  27  47  72 109 147 195 247 310 378 450
#     4  12  28  48  76 113 152 198 255 315 381 449
#     4  12  26  49  73 105 150 196 250 312 373 450
#     4  11  23  42  74 102 144 193 249 313 372 449
#     4  11  22  45  68 100 142 182 243 307 367 436
#     4  10  24  43  67 103 145 191 245 304 376 449
#     4  11  25  46  71 103 149 199 249 305 377 455
#     4  11  24  41  70 103 140 191 246 305 372 439
#
# _framework density 22.601357
#
# number of rings (size 3 to 8) (size 9 to 14) (size 15 to 20)
#    0.000    0.750    3.750    3.000    5.250    1.500 
#    0.000    0.000    0.000    0.000    0.000    0.000 
#    0.000    0.000    0.000    0.000    0.000    0.000 
#
# Total GULP energy -178544.371365 kJ/mol
# GULP energy per Si atom -5579.511605 kJ/mol
# Density = 2.254992 g / cm^3
# Si number density = 22.601357 Si / 1000 Ang^3
#
#
#
# Elastic Constant Matrix: (Units=GPa)
#
#
# Indices 1 2 3 4 5 6 
#
# 1 56.0771 4.1810 33.2470 0.0000 0.0000 0.0000
# 2 4.1810 116.3782 19.6511 0.0000 0.0000 0.0000
# 3 33.2470 19.6511 134.0817 0.0000 0.0000 0.0000
# 4 0.0000 0.0000 0.0000 12.7179 0.0000 0.0000
# 5 0.0000 0.0000 0.0000 0.0000 14.7326 0.0000
# 6 0.0000 0.0000 0.0000 0.0000 0.0000 38.7448
#
#
#
# Elastic Compliance Matrix: (Units=1/GPa)
#
#
# Indices 1 2 3 4 5 6 
#
# 1 0.020908 0.000127 -0.005203 0.000000 0.000000 0.000000
# 2 0.000127 0.008811 -0.001323 0.000000 0.000000 0.000000
# 3 -0.005203 -0.001323 0.008942 0.000000 0.000000 0.000000
# 4 0.000000 0.000000 0.000000 0.078630 0.000000 0.000000
# 5 0.000000 0.000000 0.000000 0.000000 0.067877 0.000000
# 6 0.000000 0.000000 0.000000 0.000000 0.000000 0.025810
#
#
# Mechanical properties :
#
#
# Convention : Reuss Voigt Hill
#
# Bulk Modulus (GPa) = 38.66327 46.74390 42.70358
# Shear Modulus (GPa) = 21.51498 29.86957 25.69228
#
# Velocity S-wave (km/s) = 3.08869 3.63930 3.37524
# Velocity P-wave (km/s) = 5.46477 6.19566 5.84166
#
# Compressibility (1/GPa) = 0.02586434
#
# Stress axis : x y z
#
# Youngs Moduli (GPa) = 47.82892 113.48810 111.82960
#
# Poissons Ratio (x) = -0.01446 0.58185
# Poissons Ratio (y) = -0.00609 0.14795
# Poissons Ratio (z) = 0.24885 0.15015
#
# Static dielectric constant tensor:
#      x y z
#    x 1.938830 0.000000 0.000000 
#    y 0.000000 1.799670 0.000000 
#    z 0.000000 0.000000 1.866950 
# 
# From -- ./inp_files/17873.got.cif
#   From: 2010.05.17/outbox.cif.g08.bks.cpg/sg40_9_cif.got.tgz:17873.got - 2010.06.03 18:35:42.
