data_PCOD9365704
_publ_section_title
;
Structure prediction by ZEFSAII (Michael W. Deem and Ramdas Pophale) SiO2 
 PCOD9365704
Probable space group: A B A 2
;
_chemical_formula_sum "Si O2"
_cell_formula_units_Z 48
_cell_length_a 5.464388
_cell_length_b 26.445755
_cell_length_c 14.063789
_cell_angle_alpha 90.000000
_cell_angle_beta 90.000000
_cell_angle_gamma 90.000000
_cell_volume 2032.356268
_symmetry_space_group_name_H-M "A B A 2"
_symmetry_group_IT_number 41
_symmetry_cell_setting 'orthorhombic'
loop_
_space_group_symop_operation_xyz
x,y,z
-x,-y,z
1/2-x,y,1/2+z
1/2+x,-y,1/2+z
x,1/2+y,1/2+z
-x,1/2-y,1/2+z
1/2-x,1/2+y,z
1/2+x,1/2-y,z
loop_
_atom_site_type_symbol
_atom_site_label
_atom_site_fract_x
_atom_site_fract_y
_atom_site_fract_z
Si Si1 0.251953 0.971299 0.243310
Si Si2 0.292743 0.622895 0.376599
Si Si3 0.716824 0.178015 0.392972
Si Si4 0.250379 0.009944 0.952151
Si Si5 0.684347 0.225319 0.576482
Si Si6 0.891698 0.640152 0.707940
O O1 0.244846 0.913473 0.209653
O O2 0.500000 0.000000 0.217022
O O3 0.251922 0.972953 0.359746
O O4 0.000000 0.000000 0.218047
O O5 0.540035 0.646059 0.423093
O O6 0.259803 0.565891 0.409999
O O7 0.355127 0.627410 0.263448
O O8 0.043963 0.651031 0.399911
O O9 0.702086 0.225469 0.461753
O O10 0.769691 0.181003 0.280528
O O11 0.500000 0.000000 0.006297
O O12 0.000000 0.000000 0.005766
O O13 0.454204 0.258543 0.609533
O O14 0.613091 0.168519 0.608884
#
# Coordination Sequence:
#
# PCOD9365704 Si02
#       6
#     8   8   8   8   8   8
#     4  10  17  30  57  96 131 165 208 251 311 385
#     4  10  19  37  63  97 123 173 219 252 319 397
#     4  10  22  42  65  90 125 167 216 275 333 382
#     4  10  15  26  51  93 127 159 206 248 298 376
#     4  12  29  47  66  97 131 170 226 288 336 384
#     4  10  24  40  72  95 133 174 223 262 331 396
#
# _framework density 23.617906000000001
#
# number of rings (size 3 to 8) (size 9 to 14) (size 15 to 20)
#    1.000    0.667    3.333    4.000    2.333    1.333 
#    0.000    0.000    0.000   12.000    0.000    0.000 
#    0.000    0.000    0.000    0.000    0.000    0.000 
#
# Total GULP energy -133840.271788 kJ/mol
# GULP energy per Si atom -5576.677991 kJ/mol
# Density = 2.356415 g / cm^3
# Si number density = 23.617906 Si / 1000 Ang^3
#
#
#
# Elastic Constant Matrix: (Units=GPa)
#
#
# Indices 1 2 3 4 5 6 
#
# 1 212.7470 17.3029 12.9158 0.0000 0.0000 0.0000
# 2 17.3029 28.5398 0.2707 0.0000 0.0000 0.0000
# 3 12.9158 0.2707 65.2314 0.0000 0.0000 0.0000
# 4 0.0000 0.0000 0.0000 6.0517 0.0000 0.0000
# 5 0.0000 0.0000 0.0000 0.0000 -6.9841 0.0000
# 6 0.0000 0.0000 0.0000 0.0000 0.0000 43.4553
#
#
#
# Elastic Compliance Matrix: (Units=1/GPa)
#
#
# Indices 1 2 3 4 5 6 
#
# 1 0.005006 -0.003026 -0.000979 0.000000 0.000000 0.000000
# 2 -0.003026 0.036869 0.000446 0.000000 0.000000 0.000000
# 3 -0.000979 0.000446 0.015522 0.000000 0.000000 0.000000
# 4 0.000000 0.000000 0.000000 0.165243 0.000000 0.000000
# 5 0.000000 0.000000 0.000000 0.000000 -0.143182 0.000000
# 6 0.000000 0.000000 0.000000 0.000000 0.000000 0.023012
#
#
# Mechanical properties :
#
#
# Convention : Reuss Voigt Hill
#
# Bulk Modulus (GPa) = 19.88846 40.83301 30.36073
# Shear Modulus (GPa) = 39.57366 26.90649 33.24008
#
# Velocity S-wave (km/s) = 4.09782 3.37893 3.75562
# Velocity P-wave (km/s) = 5.55236 5.70521 5.62931
#
# Compressibility (1/GPa) = 0.05028042
#
# Stress axis : x y z
#
# Youngs Moduli (GPa) = 199.76380 27.12307 64.42488
#
# Poissons Ratio (x) = 0.08207 0.06305
# Poissons Ratio (y) = 0.60442 -0.02874
# Poissons Ratio (z) = 0.19549 -0.01210
#
# Static dielectric constant tensor:
#      x y z
#    x 1.950780 0.000000 0.000000 
#    y 0.000000 1.877410 0.000000 
#    z 0.000000 0.000000 1.890690 
# 
# From -- ./inp_files/6884.got.cif
#   From: 2010.05.17/outbox.cif.g08.bks.cpg/sg41_4_cif.got.tgz:6884.got - 2010.06.03 18:54:24.
