data_PCOD9365687
_publ_section_title
;
Structure prediction by ZEFSAII (Michael W. Deem and Ramdas Pophale) SiO2 
 PCOD9365687
Probable space group: A M A 2
;
_chemical_formula_sum "Si O2"
_cell_formula_units_Z 32
_cell_length_a 18.000000
_cell_length_b 15.000000
_cell_length_c 12.000000
_cell_angle_alpha 90.000000
_cell_angle_beta 90.000000
_cell_angle_gamma 90.000000
_cell_volume 3240.000000
_symmetry_space_group_name_H-M "A M A 2"
_symmetry_group_IT_number 40
_symmetry_cell_setting 'orthorhombic'
loop_
_space_group_symop_operation_xyz
x,y,z
-x,-y,z
1/2-x,y,z
1/2+x,-y,z
x,1/2+y,1/2+z
-x,1/2-y,1/2+z
1/2-x,1/2+y,1/2+z
1/2+x,1/2-y,1/2+z
loop_
_atom_site_type_symbol
_atom_site_label
_atom_site_fract_x
_atom_site_fract_y
_atom_site_fract_z
Si Si1 0.835509 0.813527 0.171910
Si Si2 0.568305 0.872904 0.970534
Si Si3 0.667237 0.847549 0.437680
Si Si4 0.442593 0.764333 0.291309
Si Si5 0.925921 0.648761 0.182941
Si Si6 0.668225 0.676960 0.600148
Si Si7 0.491648 0.594055 0.962932
Si Si8 0.408845 0.423801 0.425513
O O1 0.750000 0.833094 0.144564
O O2 0.844761 0.830557 0.304950
O O3 0.857193 0.710915 0.149944
O O4 0.892338 0.862925 0.089277
O O5 0.596854 0.805395 0.875761
O O6 0.478511 0.864652 0.972169
O O7 0.577372 0.972257 0.928581
O O8 0.750000 0.887732 0.449616
O O9 0.666664 0.757782 0.510689
O O10 0.595917 0.897512 0.484741
O O11 0.506560 0.712374 0.223758
O O12 0.389395 0.808569 0.200076
O O13 0.480709 0.831972 0.377277
O O14 0.901160 0.599357 0.295619
O O15 0.959963 0.598312 0.076464
O O16 0.750000 0.671674 0.650050
O O17 0.653346 0.595279 0.517118
O O18 0.500000 0.500000 0.904694
#
# Coordination Sequence:
#
# PCOD9365687 Si02
#       8
#     8   8   8   8   8   8   8   8
#     4  11  21  37  63  89 121 168 212 254 311 375
#     4  10  22  39  62  93 121 159 203 268 313 366
#     4  10  21  40  64  93 127 169 213 256 319 386
#     4  11  22  40  62  90 125 164 211 254 310 380
#     4  11  21  40  64  90 122 157 212 262 310 382
#     4  11  22  39  64  92 127 168 207 259 322 378
#     4  12  25  40  66  97 126 167 214 265 318 373
#     4  10  22  38  63  94 121 156 207 265 319 371
#
# _framework density 9.8765429999999999
#
# number of rings (size 3 to 8) (size 9 to 14) (size 15 to 20)
#    0.000    1.250    5.000    1.500    3.500    2.000 
#    0.000    2.500    0.000    0.000    0.000    0.000 
#    0.000    0.000    0.000    0.000    0.000    0.000 
#
# Total GULP energy -178315.581568 kJ/mol
# GULP energy per Si atom -5572.361924 kJ/mol
# Density = 0.985406 g / cm^3
# Si number density = 9.876543 Si / 1000 Ang^3
#
#
#
# Elastic Constant Matrix: (Units=GPa)
#
#
# Indices 1 2 3 4 5 6 
#
# 1 16.5400 18.6211 13.6118 0.0000 0.0000 0.0000
# 2 18.6211 68.1016 17.5360 0.0000 0.0000 0.0000
# 3 13.6118 17.5360 86.3253 0.0000 0.0000 0.0000
# 4 0.0000 0.0000 0.0000 13.8094 0.0000 0.0000
# 5 0.0000 0.0000 0.0000 0.0000 23.2221 0.0000
# 6 0.0000 0.0000 0.0000 0.0000 0.0000 -8.2871
#
#
#
# Elastic Compliance Matrix: (Units=1/GPa)
#
#
# Indices 1 2 3 4 5 6 
#
# 1 0.095254 -0.023402 -0.010266 0.000000 0.000000 0.000000
# 2 -0.023402 0.021244 -0.000625 0.000000 0.000000 0.000000
# 3 -0.010266 -0.000625 0.013330 0.000000 0.000000 0.000000
# 4 0.000000 0.000000 0.000000 0.072415 0.000000 0.000000
# 5 0.000000 0.000000 0.000000 0.000000 0.043062 0.000000
# 6 0.000000 0.000000 0.000000 0.000000 0.000000 -0.120670
#
#
# Mechanical properties :
#
#
# Convention : Reuss Voigt Hill
#
# Bulk Modulus (GPa) = 16.32885 30.05607 23.19246
# Shear Modulus (GPa) = 23.40435 13.82875 18.61655
#
# Velocity S-wave (km/s) = 3.44589 2.64877 3.07329
# Velocity P-wave (km/s) = 4.91087 4.96020 4.93560
#
# Compressibility (1/GPa) = 0.06124132
#
# Stress axis : x y z
#
# Youngs Moduli (GPa) = 10.49823 47.07255 75.01954
#
# Poissons Ratio (x) = 1.10159 0.77014
# Poissons Ratio (y) = 0.24568 0.04692
# Poissons Ratio (z) = 0.10777 0.02944
#
# Static dielectric constant tensor:
#      x y z
#    x 1.767760 0.000000 0.000000 
#    y 0.000000 1.425920 0.000000 
#    z 0.000000 0.000000 1.690840 
# 
# From -- ./inp_files/13105.got.cif
#   From: 2010.05.17/outbox.ucp.g08.bks.cvg/sg40_7_cif.got.tgz:13105.got - 2010.06.11 16:26:39.
