data_PCOD9365832
_publ_section_title
;
Structure prediction by ZEFSAII (Michael W. Deem and Ramdas Pophale) SiO2 
 PCOD9365832
Probable space group: A B A 2
;
_chemical_formula_sum "Si O2"
_cell_formula_units_Z 60
_cell_length_a 23.443574
_cell_length_b 12.142003
_cell_length_c 8.176005
_cell_angle_alpha 90.000000
_cell_angle_beta 90.000000
_cell_angle_gamma 90.000000
_cell_volume 2327.315732
_symmetry_space_group_name_H-M "A B A 2"
_symmetry_group_IT_number 41
_symmetry_cell_setting 'orthorhombic'
loop_
_space_group_symop_operation_xyz
x,y,z
-x,-y,z
1/2-x,y,1/2+z
1/2+x,-y,1/2+z
x,1/2+y,1/2+z
-x,1/2-y,1/2+z
1/2-x,1/2+y,z
1/2+x,1/2-y,z
loop_
_atom_site_type_symbol
_atom_site_label
_atom_site_fract_x
_atom_site_fract_y
_atom_site_fract_z
Si Si1 0.293270 0.127665 0.232320
Si Si2 0.489814 0.271919 0.918723
Si Si3 0.092548 0.253524 0.101823
Si Si4 0.121723 0.508005 0.682281
Si Si5 0.122178 0.261288 0.574362
Si Si6 0.199168 0.793564 0.781856
Si Si7 0.725504 0.015028 0.934298
Si Si8 0.500000 0.500000 0.114370
O O1 0.350552 0.196638 0.223790
O O2 0.243595 0.214592 0.193030
O O3 0.274395 0.075553 0.400399
O O4 0.292788 0.021840 0.113829
O O5 0.552852 0.221407 0.944109
O O6 0.441462 0.223145 0.039607
O O7 0.497915 0.395372 0.992146
O O8 0.455218 0.265879 0.748213
O O9 0.118155 0.128959 0.100410
O O10 0.148017 0.324404 0.154234
O O11 0.127520 0.393993 0.580264
O O12 0.171751 0.498338 0.813838
O O13 0.055053 0.500190 0.730121
O O14 0.162326 0.230838 0.420847
O O15 0.240854 0.874966 0.883829
#
# Coordination Sequence:
#
# PCOD9365832 Si02
#       8
#     8   8   8   8   8   8   8   4
#     4  12  23  41  61  95 127 172 212 266 332 392
#     4   9  19  38  63  88 119 165 217 270 327 388
#     4  10  20  40  63  94 128 167 219 275 332 400
#     4  10  18  37  64  91 123 169 221 267 327 402
#     4  10  20  41  65  91 126 171 219 273 327 408
#     4  11  23  40  63  94 133 168 219 273 332 404
#     4  12  24  38  63  93 134 173 212 273 336 401
#     4   8  18  34  64  90 112 170 226 260 320 406
#
# _framework density 25.780774999999998
#
# number of rings (size 3 to 8) (size 9 to 14) (size 15 to 20)
#    0.000    1.600    4.000    1.600    0.000    0.000 
#    2.400    2.667    0.000    4.800    0.000    0.000 
#    0.000    0.000    0.000    0.000    0.000    0.000 
#
# Total GULP energy -167348.546158 kJ/mol
# GULP energy per Si atom -5578.284872 kJ/mol
# Density = 2.572210 g / cm^3
# Si number density = 25.780775 Si / 1000 Ang^3
#
#
#
# Elastic Constant Matrix: (Units=GPa)
#
#
# Indices 1 2 3 4 5 6 
#
# 1 174.0337 56.3975 33.3567 0.0000 0.0000 0.0000
# 2 56.3975 109.7172 32.7652 0.0000 0.0000 0.0000
# 3 33.3567 32.7652 36.5736 0.0000 0.0000 0.0000
# 4 0.0000 0.0000 0.0000 31.4629 0.0000 0.0000
# 5 0.0000 0.0000 0.0000 0.0000 46.1215 0.0000
# 6 0.0000 0.0000 0.0000 0.0000 0.0000 35.8218
#
#
#
# Elastic Compliance Matrix: (Units=1/GPa)
#
#
# Indices 1 2 3 4 5 6 
#
# 1 0.007415 -0.002446 -0.004571 0.000000 0.000000 0.000000
# 2 -0.002446 0.013251 -0.009640 0.000000 0.000000 0.000000
# 3 -0.004571 -0.009640 0.040147 0.000000 0.000000 0.000000
# 4 0.000000 0.000000 0.000000 0.031783 0.000000 0.000000
# 5 0.000000 0.000000 0.000000 0.000000 0.021682 0.000000
# 6 0.000000 0.000000 0.000000 0.000000 0.000000 0.027916
#
#
# Mechanical properties :
#
#
# Convention : Reuss Voigt Hill
#
# Bulk Modulus (GPa) = 36.36579 62.81813 49.59196
# Shear Modulus (GPa) = 27.07476 35.86825 31.47150
#
# Velocity S-wave (km/s) = 3.24418 3.73403 3.49769
# Velocity P-wave (km/s) = 5.30748 6.55819 5.96570
#
# Compressibility (1/GPa) = 0.02749837
#
# Stress axis : x y z
#
# Youngs Moduli (GPa) = 134.86320 75.46857 24.90849
#
# Poissons Ratio (x) = 0.18463 0.11386
# Poissons Ratio (y) = 0.32993 0.24011
# Poissons Ratio (z) = 0.61647 0.72748
#
# Static dielectric constant tensor:
#      x y z
#    x 2.043030 0.000000 0.000000 
#    y 0.000000 2.101410 0.000000 
#    z 0.000000 0.000000 2.112250 
# 
# From -- ./inp_files/3664.got.cif
#   From: 2010.05.17/outbox.cif.g08.bks.cpg/sg41_2_cif.got.tgz:3664.got - 2010.06.03 18:54:24.
