data_PCOD9365916
_publ_section_title
;
Structure prediction by ZEFSAII (Michael W. Deem and Ramdas Pophale) SiO2 
 PCOD9365916
Probable space group: A B A 2
;
_chemical_formula_sum "Si O2"
_cell_formula_units_Z 64
_cell_length_a 8.943787
_cell_length_b 22.432427
_cell_length_c 16.316462
_cell_angle_alpha 90.000000
_cell_angle_beta 90.000000
_cell_angle_gamma 90.000000
_cell_volume 3273.585623
_symmetry_space_group_name_H-M "A B A 2"
_symmetry_group_IT_number 41
_symmetry_cell_setting 'orthorhombic'
loop_
_space_group_symop_operation_xyz
x,y,z
-x,-y,z
1/2-x,y,1/2+z
1/2+x,-y,1/2+z
x,1/2+y,1/2+z
-x,1/2-y,1/2+z
1/2-x,1/2+y,z
1/2+x,1/2-y,z
loop_
_atom_site_type_symbol
_atom_site_label
_atom_site_fract_x
_atom_site_fract_y
_atom_site_fract_z
Si Si1 0.068824 0.557678 0.160950
Si Si2 0.175648 0.429640 0.303155
Si Si3 0.356460 0.189810 0.127260
Si Si4 0.036567 0.698199 0.577429
Si Si5 0.038518 0.859537 0.244608
Si Si6 0.848351 0.464504 0.764913
Si Si7 0.577350 0.180312 0.399303
Si Si8 0.323189 0.240252 0.306077
O O1 0.078291 0.623386 0.123928
O O2 0.236895 0.542616 0.188840
O O3 0.000000 0.500000 0.115226
O O4 0.963984 0.563439 0.241999
O O5 0.305578 0.394669 0.253891
O O6 0.250713 0.493296 0.324871
O O7 0.131366 0.385727 0.375707
O O8 0.485447 0.236786 0.107894
O O9 0.214910 0.196183 0.067592
O O10 0.292910 0.208901 0.217897
O O11 0.997967 0.651780 0.649716
O O12 0.944535 0.686596 0.495525
O O13 0.909699 0.899210 0.287221
O O14 0.067587 0.795887 0.285071
O O15 0.000000 0.500000 0.744922
O O16 0.416929 0.193532 0.358584
O O17 0.690879 0.227885 0.356932
#
# Coordination Sequence:
#
# PCOD9365916 Si02
#       8
#     8   8   8   8   8   8   8   8
#     4  10  19  33  58  91 112 146 204 257 288 340
#     4   9  19  33  57  83 112 148 197 248 285 352
#     4  11  21  37  57  88 119 161 208 252 302 371
#     4  11  23  34  55  86 127 156 192 252 315 368
#     4   9  18  33  55  85 109 151 199 243 291 351
#     4   9  17  33  56  87 109 141 196 247 284 338
#     4  11  21  36  51  87 119 158 189 244 312 359
#     4  10  20  33  56  79 118 154 201 244 294 364
#
# _framework density 19.550428
#
# number of rings (size 3 to 8) (size 9 to 14) (size 15 to 20)
#    0.000    2.000    2.500    2.250    3.500    0.000 
#    0.000    0.000    0.000    6.750    9.750    0.000 
#    0.000    0.000    0.000    0.000    0.000    0.000 
#
# Total GULP energy -178302.259732 kJ/mol
# GULP energy per Si atom -5571.945617 kJ/mol
# Density = 1.950593 g / cm^3
# Si number density = 19.550428 Si / 1000 Ang^3
#
#
#
# Elastic Constant Matrix: (Units=GPa)
#
#
# Indices 1 2 3 4 5 6 
#
# 1 88.4544 41.8300 18.5262 0.0000 0.0000 0.0000
# 2 41.8300 130.2910 33.8047 0.0000 0.0000 0.0000
# 3 18.5262 33.8047 54.5180 0.0000 0.0000 0.0000
# 4 0.0000 0.0000 0.0000 13.5048 0.0000 0.0000
# 5 0.0000 0.0000 0.0000 0.0000 17.5202 0.0000
# 6 0.0000 0.0000 0.0000 0.0000 0.0000 28.4219
#
#
#
# Elastic Compliance Matrix: (Units=1/GPa)
#
#
# Indices 1 2 3 4 5 6 
#
# 1 0.013562 -0.003764 -0.002275 0.000000 0.000000 0.000000
# 2 -0.003764 0.010191 -0.005040 0.000000 0.000000 0.000000
# 3 -0.002275 -0.005040 0.022241 0.000000 0.000000 0.000000
# 4 0.000000 0.000000 0.000000 0.074048 0.000000 0.000000
# 5 0.000000 0.000000 0.000000 0.000000 0.057077 0.000000
# 6 0.000000 0.000000 0.000000 0.000000 0.000000 0.035184
#
#
# Mechanical properties :
#
#
# Convention : Reuss Voigt Hill
#
# Bulk Modulus (GPa) = 41.95294 51.28726 46.62010
# Shear Modulus (GPa) = 20.62663 23.82955 22.22809
#
# Velocity S-wave (km/s) = 3.25167 3.49503 3.37554
# Velocity P-wave (km/s) = 5.96685 6.52512 6.25222
#
# Compressibility (1/GPa) = 0.02383623
#
# Stress axis : x y z
#
# Youngs Moduli (GPa) = 73.73784 98.12395 44.96241
#
# Poissons Ratio (x) = 0.36932 0.10228
# Poissons Ratio (y) = 0.27753 0.22662
# Poissons Ratio (z) = 0.16773 0.49456
#
# Static dielectric constant tensor:
#      x y z
#    x 1.713350 0.000000 0.000000 
#    y 0.000000 1.756030 0.000000 
#    z 0.000000 0.000000 1.663800 
# 
# From -- ./inp_files/7594.got.cif
#   From: 2010.05.17/outbox.cif.g08.bks.cpg/sg41_4_cif.got.tgz:7594.got - 2010.06.03 18:54:24.
