data_PCOD9365561
_publ_section_title
;
Structure prediction by ZEFSAII (Michael W. Deem and Ramdas Pophale) SiO2 
 PCOD9365561
Probable space group: A M A 2
;
_chemical_formula_sum "Si O2"
_cell_formula_units_Z 20
_cell_length_a 8.055518
_cell_length_b 11.921739
_cell_length_c 7.934178
_cell_angle_alpha 90.000000
_cell_angle_beta 90.000000
_cell_angle_gamma 90.000000
_cell_volume 761.964998
_symmetry_space_group_name_H-M "A M A 2"
_symmetry_group_IT_number 40
_symmetry_cell_setting 'orthorhombic'
loop_
_space_group_symop_operation_xyz
x,y,z
-x,-y,z
1/2-x,y,z
1/2+x,-y,z
x,1/2+y,1/2+z
-x,1/2-y,1/2+z
1/2-x,1/2+y,1/2+z
1/2+x,1/2-y,1/2+z
loop_
_atom_site_type_symbol
_atom_site_label
_atom_site_fract_x
_atom_site_fract_y
_atom_site_fract_z
Si Si1 0.750000 0.947674 0.426350
Si Si2 0.571281 0.731222 0.362697
Si Si3 0.250000 0.595939 0.293137
Si Si4 0.750000 0.081823 0.093398
O O1 0.592195 0.862968 0.398625
O O2 0.750000 0.976719 0.622460
O O3 0.750000 0.039128 0.281728
O O4 0.750000 0.708741 0.270849
O O5 0.409744 0.675480 0.290604
O O6 0.596717 0.659881 0.536521
O O7 0.250000 0.521256 0.461149
#
# Coordination Sequence:
#
# PCOD9365561 Si02
#       4
#     4   8   4   4
#     4   9  23  41  68 102 132 191 226 282 370 409
#     4   8  23  41  65 101 133 179 232 287 342 418
#     4  12  20  42  72  94 138 178 237 287 346 431
#     4   9  21  45  66  92 148 173 223 301 344 402
#
# _framework density 26.247923
#
# number of rings (size 3 to 8) (size 9 to 14) (size 15 to 20)
#    2.400    0.000    0.000    1.200    5.600    0.000 
#    0.000   16.000    0.000    0.000    0.000    0.000 
#    0.000    0.000    0.000    0.000    0.000    0.000 
#
# Total GULP energy -55812.270783 kJ/mol
# GULP energy per Si atom -5581.227078 kJ/mol
# Density = 2.618818 g / cm^3
# Si number density = 26.247923 Si / 1000 Ang^3
#
#
#
# Elastic Constant Matrix: (Units=GPa)
#
#
# Indices 1 2 3 4 5 6 
#
# 1 127.7896 32.4899 54.1403 0.0000 0.0000 0.0000
# 2 32.4899 85.2159 29.1177 0.0000 0.0000 0.0000
# 3 54.1403 29.1177 138.0471 0.0000 0.0000 0.0000
# 4 0.0000 0.0000 0.0000 73.1504 0.0000 0.0000
# 5 0.0000 0.0000 0.0000 0.0000 -23.4954 0.0000
# 6 0.0000 0.0000 0.0000 0.0000 0.0000 8.7089
#
#
#
# Elastic Compliance Matrix: (Units=1/GPa)
#
#
# Indices 1 2 3 4 5 6 
#
# 1 0.009907 -0.002640 -0.003328 0.000000 0.000000 0.000000
# 2 -0.002640 0.013350 -0.001781 0.000000 0.000000 0.000000
# 3 -0.003328 -0.001781 0.008925 0.000000 0.000000 0.000000
# 4 0.000000 0.000000 0.000000 0.013670 0.000000 0.000000
# 5 0.000000 0.000000 0.000000 0.000000 -0.042562 0.000000
# 6 0.000000 0.000000 0.000000 0.000000 0.000000 0.114825
#
#
# Mechanical properties :
#
#
# Convention : Reuss Voigt Hill
#
# Bulk Modulus (GPa) = 59.93857 64.72759 62.33308
# Shear Modulus (GPa) = 35.92615 27.35975 31.64295
#
# Velocity S-wave (km/s) = 3.70364 3.23206 3.47586
# Velocity P-wave (km/s) = 6.41673 6.21626 6.31729
#
# Compressibility (1/GPa) = 0.01668375
#
# Stress axis : x y z
#
# Youngs Moduli (GPa) = 100.94202 74.90778 112.04670
#
# Poissons Ratio (x) = 0.19774 0.37294
# Poissons Ratio (y) = 0.26646 0.19950
# Poissons Ratio (z) = 0.33598 0.13338
#
# Static dielectric constant tensor:
#      x y z
#    x 2.115780 0.000000 0.000000 
#    y 0.000000 2.071870 0.000000 
#    z 0.000000 0.000000 2.182960 
# 
# From -- ./inp_files/3779.got.cif
#   From: 2010.05.17/outbox.cif.g08.bks.cpg/sg40_2_cif.got.tgz:3779.got - 2010.06.03 18:35:42.
