data_PCOD9365851
_publ_section_title
;
Structure prediction by ZEFSAII (Michael W. Deem and Ramdas Pophale) SiO2 
 PCOD9365851
Probable space group: A B A 2
;
_chemical_formula_sum "Si O2"
_cell_formula_units_Z 44
_cell_length_a 14.814531
_cell_length_b 12.348713
_cell_length_c 9.175542
_cell_angle_alpha 90.000000
_cell_angle_beta 90.000000
_cell_angle_gamma 90.000000
_cell_volume 1678.577246
_symmetry_space_group_name_H-M "A B A 2"
_symmetry_group_IT_number 41
_symmetry_cell_setting 'orthorhombic'
loop_
_space_group_symop_operation_xyz
x,y,z
-x,-y,z
1/2-x,y,1/2+z
1/2+x,-y,1/2+z
x,1/2+y,1/2+z
-x,1/2-y,1/2+z
1/2-x,1/2+y,z
1/2+x,1/2-y,z
loop_
_atom_site_type_symbol
_atom_site_label
_atom_site_fract_x
_atom_site_fract_y
_atom_site_fract_z
Si Si1 0.316545 0.519087 0.143780
Si Si2 0.852550 0.511185 0.332464
Si Si3 0.224733 0.739823 0.030450
Si Si4 0.500000 0.500000 0.622876
Si Si5 0.068494 0.145151 0.364614
Si Si6 0.875566 0.250968 0.326396
O O1 0.243601 0.473757 0.256724
O O2 0.261660 0.620519 0.075391
O O3 0.399629 0.564799 0.237230
O O4 0.348056 0.454889 0.000487
O O5 0.928955 0.559072 0.228327
O O6 0.876606 0.381969 0.334997
O O7 0.174337 0.776480 0.175870
O O8 0.153128 0.722540 0.899789
O O9 0.314802 0.792025 0.961591
O O10 0.447908 0.579944 0.514459
O O11 0.975312 0.203567 0.329272
#
# Coordination Sequence:
#
# PCOD9365851 Si02
#       6
#     8   8   8   4   8   8
#     4  10  18  39  63  91 122 184 216 263 337 415
#     4  10  20  38  65  90 129 177 221 268 338 404
#     4  10  19  39  63  95 131 173 224 272 337 391
#     4  12  24  42  60 100 136 176 220 286 344 404
#     4  12  23  39  70 100 137 175 230 281 346 410
#     4  10  22  38  67  96 127 179 226 279 324 413
#
# _framework density 26.212675999999998
#
# number of rings (size 3 to 8) (size 9 to 14) (size 15 to 20)
#    0.000    1.455    9.091    0.000    5.091    0.727 
#    0.000    3.636    0.000    0.000    0.000    0.000 
#    0.000    0.000    0.000    0.000    0.000    0.000 
#
# Total GULP energy -123309.825755 kJ/mol
# GULP energy per Si atom -5604.992080 kJ/mol
# Density = 2.615302 g / cm^3
# Si number density = 26.212676 Si / 1000 Ang^3
#
#
#
# Elastic Constant Matrix: (Units=GPa)
#
#
# Indices 1 2 3 4 5 6 
#
# 1 161.5134 31.7941 51.0537 0.0000 0.0000 0.0000
# 2 31.7941 57.8416 28.2091 0.0000 0.0000 0.0000
# 3 51.0537 28.2091 162.4782 0.0000 0.0000 0.0000
# 4 0.0000 0.0000 0.0000 32.8253 0.0000 0.0000
# 5 0.0000 0.0000 0.0000 0.0000 60.5153 0.0000
# 6 0.0000 0.0000 0.0000 0.0000 0.0000 33.2926
#
#
#
# Elastic Compliance Matrix: (Units=1/GPa)
#
#
# Indices 1 2 3 4 5 6 
#
# 1 0.007378 -0.003195 -0.001763 0.000000 0.000000 0.000000
# 2 -0.003195 0.020272 -0.002515 0.000000 0.000000 0.000000
# 3 -0.001763 -0.002515 0.007146 0.000000 0.000000 0.000000
# 4 0.000000 0.000000 0.000000 0.030464 0.000000 0.000000
# 5 0.000000 0.000000 0.000000 0.000000 0.016525 0.000000
# 6 0.000000 0.000000 0.000000 0.000000 0.000000 0.030037
#
#
# Mechanical properties :
#
#
# Convention : Reuss Voigt Hill
#
# Bulk Modulus (GPa) = 50.38678 67.10521 58.74599
# Shear Modulus (GPa) = 37.48540 43.37838 40.43189
#
# Velocity S-wave (km/s) = 3.78570 4.07241 3.93167
# Velocity P-wave (km/s) = 6.19457 6.91148 6.56282
#
# Compressibility (1/GPa) = 0.01984648
#
# Stress axis : x y z
#
# Youngs Moduli (GPa) = 135.54014 49.32956 139.94766
#
# Poissons Ratio (x) = 0.15763 0.24680
# Poissons Ratio (y) = 0.43310 0.35204
# Poissons Ratio (z) = 0.23902 0.12409
#
# Static dielectric constant tensor:
#      x y z
#    x 1.997190 0.000000 0.000000 
#    y 0.000000 2.282790 0.000000 
#    z 0.000000 0.000000 2.015190 
# 
# From -- ./inp_files/2490.got.cif
#   From: 2010.05.17/outbox.cif.g08.bks.cpg/sg41_2_cif.got.tgz:2490.got - 2010.06.03 18:54:24.
