data_PCOD9365598
_publ_section_title
;
Structure prediction by ZEFSAII (Michael W. Deem and Ramdas Pophale) SiO2 
 PCOD9365598
Probable space group: A M A 2
;
_chemical_formula_sum "Si O2"
_cell_formula_units_Z 24
_cell_length_a 8.077855
_cell_length_b 22.712009
_cell_length_c 4.860712
_cell_angle_alpha 90.000000
_cell_angle_beta 90.000000
_cell_angle_gamma 90.000000
_cell_volume 891.767200
_symmetry_space_group_name_H-M "A M A 2"
_symmetry_group_IT_number 40
_symmetry_cell_setting 'orthorhombic'
loop_
_space_group_symop_operation_xyz
x,y,z
-x,-y,z
1/2-x,y,z
1/2+x,-y,z
x,1/2+y,1/2+z
-x,1/2-y,1/2+z
1/2-x,1/2+y,1/2+z
1/2+x,1/2-y,1/2+z
loop_
_atom_site_type_symbol
_atom_site_label
_atom_site_fract_x
_atom_site_fract_y
_atom_site_fract_z
Si Si1 0.500000 0.500000 0.772171
Si Si2 0.070204 0.386019 0.454665
Si Si3 0.750000 0.419166 0.122193
Si Si4 0.946814 0.787742 0.351655
O O1 0.419846 0.452241 0.571010
O O2 0.611715 0.459845 0.963177
O O3 0.250000 0.373074 0.324714
O O4 0.899839 0.384530 0.285386
O O5 0.040284 0.341950 0.710377
O O6 0.750000 0.801165 0.373150
O O7 0.977070 0.734500 0.136358
#
# Coordination Sequence:
#
# PCOD9365598 Si02
#       4
#     4   8   4   8
#     4  12  28  48  76 114 160 206 262 330 398 478
#     4  12  28  52  76 116 158 205 268 330 398 477
#     4  12  28  48  78 110 162 204 266 322 402 484
#     4  12  28  53  83 120 161 211 272 333 403 479
#
# _framework density 26.912856000000001
#
# number of rings (size 3 to 8) (size 9 to 14) (size 15 to 20)
#    0.000    0.000    3.333    5.000   11.667    0.000 
#    0.000    0.000    0.000    0.000    0.000    0.000 
#    0.000    0.000    0.000    0.000    0.000    0.000 
#
# Total GULP energy -66834.799445 kJ/mol
# GULP energy per Si atom -5569.566620 kJ/mol
# Density = 2.685160 g / cm^3
# Si number density = 26.912856 Si / 1000 Ang^3
#
#
#
# Elastic Constant Matrix: (Units=GPa)
#
#
# Indices 1 2 3 4 5 6 
#
# 1 278.4934 33.2574 64.6295 0.0000 0.0000 0.0000
# 2 33.2574 130.6633 16.1462 0.0000 0.0000 0.0000
# 3 64.6295 16.1462 93.6662 0.0000 0.0000 0.0000
# 4 0.0000 0.0000 0.0000 67.6238 0.0000 0.0000
# 5 0.0000 0.0000 0.0000 0.0000 -78.1253 0.0000
# 6 0.0000 0.0000 0.0000 0.0000 0.0000 184.7207
#
#
#
# Elastic Compliance Matrix: (Units=1/GPa)
#
#
# Indices 1 2 3 4 5 6 
#
# 1 0.004346 -0.000752 -0.002869 0.000000 0.000000 0.000000
# 2 -0.000752 0.007950 -0.000852 0.000000 0.000000 0.000000
# 3 -0.002869 -0.000852 0.012803 0.000000 0.000000 0.000000
# 4 0.000000 0.000000 0.000000 0.014788 0.000000 0.000000
# 5 0.000000 0.000000 0.000000 0.000000 -0.012800 0.000000
# 6 0.000000 0.000000 0.000000 0.000000 0.000000 0.005414
#
#
# Mechanical properties :
#
#
# Convention : Reuss Voigt Hill
#
# Bulk Modulus (GPa) = 61.90624 81.20989 71.55806
# Shear Modulus (GPa) = 106.76747 60.76315 83.76531
#
# Velocity S-wave (km/s) = 6.30537 4.75676 5.58500
# Velocity P-wave (km/s) = 8.72139 7.77236 8.26052
#
# Compressibility (1/GPa) = 0.01615346
#
# Stress axis : x y z
#
# Youngs Moduli (GPa) = 230.07419 125.78880 78.10708
#
# Poissons Ratio (x) = 0.09456 0.22412
# Poissons Ratio (y) = 0.17295 0.06653
# Poissons Ratio (z) = 0.66018 0.10714
#
# Static dielectric constant tensor:
#      x y z
#    x 2.996200 0.000000 0.000000 
#    y 0.000000 2.227280 0.000000 
#    z 0.000000 0.000000 2.119590 
# 
# From -- ./inp_files/231.got.cif
#   From: 2010.05.17/outbox.cif.g08.bks.cpg/sg40_1_cif.got.tgz:231.got - 2010.06.03 18:35:42.
