data_PCOD9365403
_publ_section_title
;
Structure prediction by ZEFSAII (Michael W. Deem and Ramdas Pophale) SiO2 
 PCOD9365403
Probable space group: A M A 2
;
_chemical_formula_sum "Si O2"
_cell_formula_units_Z 64
_cell_length_a 21.495225
_cell_length_b 9.324817
_cell_length_c 16.944659
_cell_angle_alpha 90.000000
_cell_angle_beta 90.000000
_cell_angle_gamma 90.000000
_cell_volume 3396.371175
_symmetry_space_group_name_H-M "A M A 2"
_symmetry_group_IT_number 40
_symmetry_cell_setting 'orthorhombic'
loop_
_space_group_symop_operation_xyz
x,y,z
-x,-y,z
1/2-x,y,z
1/2+x,-y,z
x,1/2+y,1/2+z
-x,1/2-y,1/2+z
1/2-x,1/2+y,1/2+z
1/2+x,1/2-y,1/2+z
loop_
_atom_site_type_symbol
_atom_site_label
_atom_site_fract_x
_atom_site_fract_y
_atom_site_fract_z
Si Si1 0.619146 0.682121 0.235590
Si Si2 0.124363 0.768142 0.260649
Si Si3 0.007423 0.169517 0.324809
Si Si4 0.178513 0.035626 0.860483
Si Si5 0.977464 0.240529 0.002909
Si Si6 0.099129 0.554383 0.519239
Si Si7 0.065337 0.553006 0.140117
Si Si8 0.178206 0.544610 0.678761
O O1 0.556386 0.763424 0.263421
O O2 0.641121 0.577319 0.305735
O O3 0.607048 0.587794 0.156583
O O4 0.670057 0.802959 0.220925
O O5 0.174940 0.682031 0.310257
O O6 0.102508 0.677016 0.185140
O O7 0.061592 0.770965 0.311892
O O8 0.147582 0.921752 0.232645
O O9 0.028154 0.208735 0.412880
O O10 0.000000 0.000000 0.313418
O O11 0.250000 0.991963 0.872426
O O12 0.142753 0.058803 0.942393
O O13 0.955710 0.371540 0.058824
O O14 0.047525 0.181459 0.018415
O O15 0.936105 0.098941 0.016918
O O16 0.139736 0.557180 0.598028
O O17 0.000000 0.500000 0.178146
O O18 0.250000 0.510228 0.663963
#
# Coordination Sequence:
#
# PCOD9365403 Si02
#       8
#     8   8   8   8   8   8   8   8
#     4  11  24  39  67  95 125 168 215 266 326 381
#     4  11  23  39  65  96 120 164 213 263 323 378
#     4  12  22  38  65  97 130 157 208 270 331 386
#     4  11  23  43  65  90 126 174 222 259 307 389
#     4  11  23  39  62  99 132 160 204 271 331 384
#     4  11  23  39  67  94 125 171 219 260 321 384
#     4  11  21  37  62  91 129 159 199 256 330 378
#     4  12  25  44  63  92 132 173 218 266 316 388
#
# _framework density 18.843641999999999
#
# number of rings (size 3 to 8) (size 9 to 14) (size 15 to 20)
#    0.000    0.750    6.250    2.250    0.000    0.000 
#    0.000    0.000    0.000    0.000    0.000    0.000 
#    0.000    0.000    0.000    0.000    0.000    0.000 
#
# Total GULP energy -178618.181259 kJ/mol
# GULP energy per Si atom -5581.818164 kJ/mol
# Density = 1.880075 g / cm^3
# Si number density = 18.843642 Si / 1000 Ang^3
#
#
#
# Elastic Constant Matrix: (Units=GPa)
#
#
# Indices 1 2 3 4 5 6 
#
# 1 80.3447 8.0738 20.4196 0.0000 0.0000 0.0000
# 2 8.0738 93.4392 39.4563 0.0000 0.0000 0.0000
# 3 20.4196 39.4563 95.1353 0.0000 0.0000 0.0000
# 4 0.0000 0.0000 0.0000 24.2159 0.0000 0.0000
# 5 0.0000 0.0000 0.0000 0.0000 17.5447 0.0000
# 6 0.0000 0.0000 0.0000 0.0000 0.0000 22.6301
#
#
#
# Elastic Compliance Matrix: (Units=1/GPa)
#
#
# Indices 1 2 3 4 5 6 
#
# 1 0.013165 0.000067 -0.002854 0.000000 0.000000 0.000000
# 2 0.000067 0.012975 -0.005396 0.000000 0.000000 0.000000
# 3 -0.002854 -0.005396 0.013362 0.000000 0.000000 0.000000
# 4 0.000000 0.000000 0.000000 0.041295 0.000000 0.000000
# 5 0.000000 0.000000 0.000000 0.000000 0.056997 0.000000
# 6 0.000000 0.000000 0.000000 0.000000 0.000000 0.044189
#
#
# Mechanical properties :
#
#
# Convention : Reuss Voigt Hill
#
# Bulk Modulus (GPa) = 43.21970 44.97985 44.09977
# Shear Modulus (GPa) = 24.26494 26.27611 25.27052
#
# Velocity S-wave (km/s) = 3.59235 3.73826 3.66603
# Velocity P-wave (km/s) = 6.33974 6.52339 6.43222
#
# Compressibility (1/GPa) = 0.02313760
#
# Stress axis : x y z
#
# Youngs Moduli (GPa) = 75.95982 77.07313 74.84132
#
# Poissons Ratio (x) = -0.00520 0.21357
# Poissons Ratio (y) = -0.00512 0.40381
# Poissons Ratio (z) = 0.21676 0.41585
#
# Static dielectric constant tensor:
#      x y z
#    x 1.648500 0.000000 0.000000 
#    y 0.000000 1.657920 0.000000 
#    z 0.000000 0.000000 1.638750 
# 
# From -- ./inp_files/21400.got.cif
#   From: 2010.05.17/outbox.cif.g08.bks.cpg/sg40_11_cif.got.tgz:21400.got - 2010.06.03 18:35:42.
