data_PCOD9365000
_publ_section_title
;
Structure prediction by ZEFSAII (Michael W. Deem and Ramdas Pophale) SiO2 
 PCOD9365000
Probable space group: A M A 2
;
_chemical_formula_sum "Si O2"
_cell_formula_units_Z 48
_cell_length_a 28.565675
_cell_length_b 13.120154
_cell_length_c 4.876143
_cell_angle_alpha 90.000000
_cell_angle_beta 90.000000
_cell_angle_gamma 90.000000
_cell_volume 1827.510399
_symmetry_space_group_name_H-M "A M A 2"
_symmetry_group_IT_number 40
_symmetry_cell_setting 'orthorhombic'
loop_
_space_group_symop_operation_xyz
x,y,z
-x,-y,z
1/2-x,y,z
1/2+x,-y,z
x,1/2+y,1/2+z
-x,1/2-y,1/2+z
1/2-x,1/2+y,1/2+z
1/2+x,1/2-y,1/2+z
loop_
_atom_site_type_symbol
_atom_site_label
_atom_site_fract_x
_atom_site_fract_y
_atom_site_fract_z
Si Si1 0.163395 0.489999 0.281500
Si Si2 0.024314 0.214322 0.927509
Si Si3 0.391698 0.721126 0.814284
Si Si4 0.750000 0.134881 0.045970
Si Si5 0.098313 0.485995 0.806319
Si Si6 0.500000 0.000000 0.125203
Si Si7 0.167725 0.228972 0.799535
O O1 0.208520 0.429352 0.381769
O O2 0.123109 0.487908 0.512066
O O3 0.176978 0.608794 0.228312
O O4 0.136449 0.443948 0.019125
O O5 0.067891 0.254953 0.105253
O O6 0.981276 0.254953 0.114228
O O7 0.021449 0.092064 0.949997
O O8 0.404918 0.605262 0.885370
O O9 0.345813 0.724190 0.618791
O O10 0.375552 0.764801 0.104475
O O11 0.790086 0.199958 0.216194
O O12 0.044017 0.454361 0.793304
#
# Coordination Sequence:
#
# PCOD9365000 Si02
#       7
#     8   8   8   4   8   4   8
#     4  10  23  42  61  92 129 164 215 272 325 389
#     4  11  24  40  65  99 133 173 221 273 326 391
#     4   9  20  41  62  87 126 168 209 258 325 388
#     4  12  26  40  66  94 120 166 218 266 334 394
#     4   9  21  41  66  92 129 172 212 269 331 393
#     4  10  24  44  70 100 136 180 226 272 340 410
#     4  10  22  41  62  84 121 165 206 262 322 388
#
# _framework density 26.265242000000001
#
# number of rings (size 3 to 8) (size 9 to 14) (size 15 to 20)
#    0.000    2.000    0.000    1.500    0.000   14.667 
#    0.000    5.000    0.000    0.000    0.000    0.000 
#    0.000    0.000    0.000    0.000    0.000    0.000 
#
# Total GULP energy -133817.105370 kJ/mol
# GULP energy per Si atom -5575.712724 kJ/mol
# Density = 2.620546 g / cm^3
# Si number density = 26.265242 Si / 1000 Ang^3
#
#
#
# Elastic Constant Matrix: (Units=GPa)
#
#
# Indices 1 2 3 4 5 6 
#
# 1 193.3596 21.0923 52.5729 0.0000 0.0000 0.0000
# 2 21.0923 111.9409 8.2940 0.0000 0.0000 0.0000
# 3 52.5729 8.2940 150.4794 0.0000 0.0000 0.0000
# 4 0.0000 0.0000 0.0000 23.5810 0.0000 0.0000
# 5 0.0000 0.0000 0.0000 0.0000 25.1948 0.0000
# 6 0.0000 0.0000 0.0000 0.0000 0.0000 49.7892
#
#
#
# Elastic Compliance Matrix: (Units=1/GPa)
#
#
# Indices 1 2 3 4 5 6 
#
# 1 0.005813 -0.000949 -0.001979 0.000000 0.000000 0.000000
# 2 -0.000949 0.009125 -0.000171 0.000000 0.000000 0.000000
# 3 -0.001979 -0.000171 0.007346 0.000000 0.000000 0.000000
# 4 0.000000 0.000000 0.000000 0.042407 0.000000 0.000000
# 5 0.000000 0.000000 0.000000 0.000000 0.039691 0.000000
# 6 0.000000 0.000000 0.000000 0.000000 0.000000 0.020085
#
#
# Mechanical properties :
#
#
# Convention : Reuss Voigt Hill
#
# Bulk Modulus (GPa) = 62.16444 68.85537 65.50990
# Shear Modulus (GPa) = 36.75758 44.63438 40.69598
#
# Velocity S-wave (km/s) = 3.74502 4.12681 3.94054
# Velocity P-wave (km/s) = 6.51303 6.99855 6.76015
#
# Compressibility (1/GPa) = 0.01608637
#
# Stress axis : x y z
#
# Youngs Moduli (GPa) = 172.02285 109.59198 136.12552
#
# Poissons Ratio (x) = 0.10397 0.26935
# Poissons Ratio (y) = 0.16320 0.02334
# Poissons Ratio (z) = 0.34037 0.01879
#
# Static dielectric constant tensor:
#      x y z
#    x 2.084950 0.000000 0.000000 
#    y 0.000000 2.130810 0.000000 
#    z 0.000000 0.000000 2.016750 
# 
# From -- ./inp_files/3124.got.cif
#   From: 2010.05.17/outbox.cif.g08.bks.cpg/sg40_2_cif.got.tgz:3124.got - 2010.06.03 18:35:42.
