data_PCOD9365475
_publ_section_title
;
Structure prediction by ZEFSAII (Michael W. Deem and Ramdas Pophale) SiO2 
 PCOD9365475
Probable space group: A M A 2
;
_chemical_formula_sum "Si O2"
_cell_formula_units_Z 40
_cell_length_a 23.300820
_cell_length_b 7.274667
_cell_length_c 11.910806
_cell_angle_alpha 90.000000
_cell_angle_beta 90.000000
_cell_angle_gamma 90.000000
_cell_volume 2018.949584
_symmetry_space_group_name_H-M "A M A 2"
_symmetry_group_IT_number 40
_symmetry_cell_setting 'orthorhombic'
loop_
_space_group_symop_operation_xyz
x,y,z
-x,-y,z
1/2-x,y,z
1/2+x,-y,z
x,1/2+y,1/2+z
-x,1/2-y,1/2+z
1/2-x,1/2+y,1/2+z
1/2+x,1/2-y,1/2+z
loop_
_atom_site_type_symbol
_atom_site_label
_atom_site_fract_x
_atom_site_fract_y
_atom_site_fract_z
Si Si1 0.403904 0.877063 0.054260
Si Si2 0.682995 0.073223 0.253467
Si Si3 0.003842 0.217824 0.712912
Si Si4 0.395032 0.166334 0.875177
Si Si5 0.116875 0.265957 0.312418
O O1 0.352605 0.865302 0.143524
O O2 0.462142 0.821061 0.115733
O O3 0.393934 0.747271 0.946075
O O4 0.403841 0.079529 0.997508
O O5 0.750000 0.108206 0.245163
O O6 0.652749 0.181344 0.356181
O O7 0.668358 0.859192 0.271920
O O8 0.044863 0.230683 0.822763
O O9 0.941035 0.287047 0.746303
O O10 0.000000 0.000000 0.686608
O O11 0.375970 0.985986 0.802375
#
# Coordination Sequence:
#
# PCOD9365475 Si02
#       5
#     8   8   8   8   8
#     4   9  21  41  60  90 123 156 196 242 300 361
#     4  11  23  40  61  85 118 161 210 252 291 342
#     4   9  17  37  62  92 122 155 191 237 303 373
#     4   8  20  40  59  84 122 155 195 246 298 357
#     4   9  21  39  61  89 123 154 194 250 300 356
#
# _framework density 19.812282
#
# number of rings (size 3 to 8) (size 9 to 14) (size 15 to 20)
#    1.200    1.600    0.000    0.000    0.000    8.800 
#   18.000    0.000    0.000    0.000    0.000    0.000 
#    0.000    0.000    0.000    0.000    0.000    0.000 
#
# Total GULP energy -111466.865512 kJ/mol
# GULP energy per Si atom -5573.343276 kJ/mol
# Density = 1.976719 g / cm^3
# Si number density = 19.812282 Si / 1000 Ang^3
#
#
#
# Elastic Constant Matrix: (Units=GPa)
#
#
# Indices 1 2 3 4 5 6 
#
# 1 78.5815 23.9513 16.5301 0.0000 0.0000 0.0000
# 2 23.9513 44.3688 4.9892 0.0000 0.0000 0.0000
# 3 16.5301 4.9892 85.3281 0.0000 0.0000 0.0000
# 4 0.0000 0.0000 0.0000 25.9476 0.0000 0.0000
# 5 0.0000 0.0000 0.0000 0.0000 7.8379 0.0000
# 6 0.0000 0.0000 0.0000 0.0000 0.0000 23.7528
#
#
#
# Elastic Compliance Matrix: (Units=1/GPa)
#
#
# Indices 1 2 3 4 5 6 
#
# 1 0.015775 -0.008226 -0.002575 0.000000 0.000000 0.000000
# 2 -0.008226 0.026977 0.000016 0.000000 0.000000 0.000000
# 3 -0.002575 0.000016 0.012217 0.000000 0.000000 0.000000
# 4 0.000000 0.000000 0.000000 0.038539 0.000000 0.000000
# 5 0.000000 0.000000 0.000000 0.000000 0.127584 0.000000
# 6 0.000000 0.000000 0.000000 0.000000 0.000000 0.042100
#
#
# Mechanical properties :
#
#
# Convention : Reuss Voigt Hill
#
# Bulk Modulus (GPa) = 29.94043 33.24662 31.59352
# Shear Modulus (GPa) = 16.89786 22.36151 19.62969
#
# Velocity S-wave (km/s) = 2.92361 3.36321 3.15109
# Velocity P-wave (km/s) = 5.15185 5.64791 5.40557
#
# Compressibility (1/GPa) = 0.03339966
#
# Stress axis : x y z
#
# Youngs Moduli (GPa) = 63.39336 37.06846 81.85081
#
# Poissons Ratio (x) = 0.30492 0.21076
# Poissons Ratio (y) = 0.52147 -0.00132
# Poissons Ratio (z) = 0.16323 -0.00060
#
# Static dielectric constant tensor:
#      x y z
#    x 1.647170 0.000000 0.000000 
#    y 0.000000 1.744250 0.000000 
#    z 0.000000 0.000000 1.703670 
# 
# From -- ./inp_files/13434.got.cif
#   From: 2010.05.17/outbox.cif.g08.bks.cpg/sg40_7_cif.got.tgz:13434.got - 2010.06.03 18:35:42.
