data_PCOD9365232
_publ_section_title
;
Structure prediction by ZEFSAII (Michael W. Deem and Ramdas Pophale) SiO2 
 PCOD9365232
Probable space group: A M A 2
;
_chemical_formula_sum "Si O2"
_cell_formula_units_Z 64
_cell_length_a 17.016953
_cell_length_b 15.430191
_cell_length_c 12.154768
_cell_angle_alpha 90.000000
_cell_angle_beta 90.000000
_cell_angle_gamma 90.000000
_cell_volume 3191.536202
_symmetry_space_group_name_H-M "A M A 2"
_symmetry_group_IT_number 40
_symmetry_cell_setting 'orthorhombic'
loop_
_space_group_symop_operation_xyz
x,y,z
-x,-y,z
1/2-x,y,z
1/2+x,-y,z
x,1/2+y,1/2+z
-x,1/2-y,1/2+z
1/2-x,1/2+y,1/2+z
1/2+x,1/2-y,1/2+z
loop_
_atom_site_type_symbol
_atom_site_label
_atom_site_fract_x
_atom_site_fract_y
_atom_site_fract_z
Si Si1 0.594218 0.186126 0.957920
Si Si2 0.342081 0.171478 0.853927
Si Si3 0.654053 0.823967 0.279184
Si Si4 0.656534 0.182168 0.199404
Si Si5 0.921315 0.556553 0.073259
Si Si6 0.592763 0.014974 0.812866
Si Si7 0.655950 0.520634 0.841551
Si Si8 0.926719 0.259261 0.555932
O O1 0.623516 0.263485 0.878905
O O2 0.605413 0.097648 0.889895
O O3 0.642153 0.181672 0.070664
O O4 0.504794 0.199511 0.000998
O O5 0.250000 0.163414 0.837390
O O6 0.376982 0.230476 0.755457
O O7 0.373896 0.074566 0.858243
O O8 0.360453 0.224106 0.964252
O O9 0.750000 0.814921 0.267208
O O10 0.606624 0.797748 0.169372
O O11 0.634380 0.923992 0.304649
O O12 0.750000 0.182977 0.218381
O O13 0.624690 0.096768 0.261444
O O14 0.879047 0.533156 0.188253
O O15 0.941703 0.657977 0.074930
O O16 0.000000 0.500000 0.064637
O O17 0.871272 0.537897 0.965152
O O18 0.500000 0.000000 0.804307
O O19 0.750000 0.523991 0.837680
#
# Coordination Sequence:
#
# PCOD9365232 Si02
#       8
#     8   8   8   8   8   8   8   8
#     4  12  26  43  71  98 138 177 226 286 344 411
#     4  11  25  45  70  99 136 182 230 280 345 420
#     4  11  26  46  68 102 141 181 229 287 351 416
#     4  10  24  43  67  98 133 177 224 280 342 407
#     4  11  24  43  68  97 134 173 226 282 340 407
#     4  11  25  45  64  98 137 176 225 282 342 408
#     4  10  23  44  68  96 131 171 223 278 336 405
#     4  12  25  44  72  99 136 183 228 288 346 416
#
# _framework density 20.053038999999998
#
# number of rings (size 3 to 8) (size 9 to 14) (size 15 to 20)
#    0.000    1.000    3.750    1.500    8.750    3.000 
#    0.000    0.000    0.000    0.000    0.000    0.000 
#    0.000    0.000    0.000    0.000    0.000    0.000 
#
# Total GULP energy -178789.439873 kJ/mol
# GULP energy per Si atom -5587.169996 kJ/mol
# Density = 2.000740 g / cm^3
# Si number density = 20.053039 Si / 1000 Ang^3
#
#
#
# Elastic Constant Matrix: (Units=GPa)
#
#
# Indices 1 2 3 4 5 6 
#
# 1 35.6331 35.7853 11.9590 0.0000 0.0000 0.0000
# 2 35.7853 119.9194 29.5237 0.0000 0.0000 0.0000
# 3 11.9590 29.5237 104.5074 0.0000 0.0000 0.0000
# 4 0.0000 0.0000 0.0000 39.7994 0.0000 0.0000
# 5 0.0000 0.0000 0.0000 0.0000 39.4249 0.0000
# 6 0.0000 0.0000 0.0000 0.0000 0.0000 -16.2037
#
#
#
# Elastic Compliance Matrix: (Units=1/GPa)
#
#
# Indices 1 2 3 4 5 6 
#
# 1 0.040238 -0.011687 -0.001303 0.000000 0.000000 0.000000
# 2 -0.011687 0.012357 -0.002153 0.000000 0.000000 0.000000
# 3 -0.001303 -0.002153 0.010326 0.000000 0.000000 0.000000
# 4 0.000000 0.000000 0.000000 0.025126 0.000000 0.000000
# 5 0.000000 0.000000 0.000000 0.000000 0.025365 0.000000
# 6 0.000000 0.000000 0.000000 0.000000 0.000000 -0.061714
#
#
# Mechanical properties :
#
#
# Convention : Reuss Voigt Hill
#
# Bulk Modulus (GPa) = 30.64265 46.06623 38.35444
# Shear Modulus (GPa) = 53.84418 24.79025 39.31721
#
# Velocity S-wave (km/s) = 5.18741 3.51983 4.43274
# Velocity P-wave (km/s) = 7.15492 6.28816 6.73550
#
# Compressibility (1/GPa) = 0.03263426
#
# Stress axis : x y z
#
# Youngs Moduli (GPa) = 24.85242 80.92901 96.84142
#
# Poissons Ratio (x) = 0.94578 0.12618
# Poissons Ratio (y) = 0.29044 0.20854
# Poissons Ratio (z) = 0.03238 0.17428
#
# Static dielectric constant tensor:
#      x y z
#    x 1.713350 0.000000 0.000000 
#    y 0.000000 1.695940 0.000000 
#    z 0.000000 0.000000 1.696890 
# 
# From -- ./inp_files/13111.got.cif
#   From: 2010.05.17/outbox.cif.g08.bks.cpg/sg40_7_cif.got.tgz:13111.got - 2010.06.03 18:35:42.
