data_PCOD9365426
_publ_section_title
;
Structure prediction by ZEFSAII (Michael W. Deem and Ramdas Pophale) SiO2 
 PCOD9365426
Probable space group: A M A 2
;
_chemical_formula_sum "Si O2"
_cell_formula_units_Z 32
_cell_length_a 13.699213
_cell_length_b 7.748617
_cell_length_c 12.049624
_cell_angle_alpha 90.000000
_cell_angle_beta 90.000000
_cell_angle_gamma 90.000000
_cell_volume 1279.067042
_symmetry_space_group_name_H-M "A M A 2"
_symmetry_group_IT_number 40
_symmetry_cell_setting 'orthorhombic'
loop_
_space_group_symop_operation_xyz
x,y,z
-x,-y,z
1/2-x,y,z
1/2+x,-y,z
x,1/2+y,1/2+z
-x,1/2-y,1/2+z
1/2-x,1/2+y,1/2+z
1/2+x,1/2-y,1/2+z
loop_
_atom_site_type_symbol
_atom_site_label
_atom_site_fract_x
_atom_site_fract_y
_atom_site_fract_z
Si Si1 0.361674 0.743078 0.399400
Si Si2 0.360801 0.542389 0.735216
Si Si3 0.638618 0.122805 0.991023
Si Si4 0.965414 0.182505 0.604225
O O1 0.250000 0.726765 0.363899
O O2 0.390262 0.540286 0.413213
O O3 0.372551 0.819495 0.523185
O O4 0.397080 0.896702 0.320021
O O5 0.250000 0.596537 0.764964
O O6 0.354717 0.454148 0.614913
O O7 0.432512 0.699785 0.707031
O O8 0.750000 0.182155 0.964369
O O9 0.549554 0.253828 0.015354
O O10 0.000000 0.000000 0.646000
#
# Coordination Sequence:
#
# PCOD9365426 Si02
#       4
#     8   8   8   8
#     4   9  18  36  63  90 119 163 220 277 329 382
#     4   9  18  36  62  90 123 165 218 275 327 386
#     4   9  19  37  61  89 124 170 218 267 326 382
#     4  11  22  35  58  93 134 176 210 259 328 396
#
# _framework density 25.018232999999999
#
# number of rings (size 3 to 8) (size 9 to 14) (size 15 to 20)
#    0.000    2.500    0.000    5.250    0.000    4.000 
#    0.000    5.000    0.000    7.500    0.000    0.000 
#    0.000    0.000    0.000    1.000    0.000    0.000 
#
# Total GULP energy -89110.905466 kJ/mol
# GULP energy per Si atom -5569.431592 kJ/mol
# Density = 2.496129 g / cm^3
# Si number density = 25.018233 Si / 1000 Ang^3
#
#
#
# Elastic Constant Matrix: (Units=GPa)
#
#
# Indices 1 2 3 4 5 6 
#
# 1 104.9009 54.7470 20.0215 0.0000 0.0000 0.0000
# 2 54.7470 124.2515 82.4441 0.0000 0.0000 0.0000
# 3 20.0215 82.4441 103.5390 0.0000 0.0000 0.0000
# 4 0.0000 0.0000 0.0000 47.0498 0.0000 0.0000
# 5 0.0000 0.0000 0.0000 0.0000 5.0504 0.0000
# 6 0.0000 0.0000 0.0000 0.0000 0.0000 -3.1010
#
#
#
# Elastic Compliance Matrix: (Units=1/GPa)
#
#
# Indices 1 2 3 4 5 6 
#
# 1 0.013274 -0.008789 0.004432 0.000000 0.000000 0.000000
# 2 -0.008789 0.022883 -0.016522 0.000000 0.000000 0.000000
# 3 0.004432 -0.016522 0.021957 0.000000 0.000000 0.000000
# 4 0.000000 0.000000 0.000000 0.021254 0.000000 0.000000
# 5 0.000000 0.000000 0.000000 0.000000 0.198004 0.000000
# 6 0.000000 0.000000 0.000000 0.000000 0.000000 -0.322480
#
#
# Mechanical properties :
#
#
# Convention : Reuss Voigt Hill
#
# Bulk Modulus (GPa) = 61.14000 71.90185 66.52093
# Shear Modulus (GPa) = 2377.59367 21.49843 1199.54605
#
# Velocity S-wave (km/s) = 30.86110 2.93458 21.92053
# Velocity P-wave (km/s) = 35.97732 6.34701 25.83266
#
# Compressibility (1/GPa) = 0.01635590
#
# Stress axis : x y z
#
# Youngs Moduli (GPa) = 75.33509 43.69991 45.54427
#
# Poissons Ratio (x) = 0.38409 -0.20184
# Poissons Ratio (y) = 0.66214 0.75246
# Poissons Ratio (z) = -0.33387 0.72199
#
# Static dielectric constant tensor:
#      x y z
#    x 2.135690 0.000000 0.000000 
#    y 0.000000 2.032780 0.000000 
#    z 0.000000 0.000000 1.948790 
# 
# From -- ./inp_files/11730.got.cif
#   From: 2010.05.17/outbox.cif.g08.bks.cpg/sg40_6_cif.got.tgz:11730.got - 2010.06.03 18:35:42.
