data_PCOD9365778
_publ_section_title
;
Structure prediction by ZEFSAII (Michael W. Deem and Ramdas Pophale) SiO2 
 PCOD9365778
Probable space group: A B A 2
;
_chemical_formula_sum "Si O2"
_cell_formula_units_Z 64
_cell_length_a 6.752713
_cell_length_b 22.147375
_cell_length_c 17.336255
_cell_angle_alpha 90.000000
_cell_angle_beta 90.000000
_cell_angle_gamma 90.000000
_cell_volume 2592.721312
_symmetry_space_group_name_H-M "A B A 2"
_symmetry_group_IT_number 41
_symmetry_cell_setting 'orthorhombic'
loop_
_space_group_symop_operation_xyz
x,y,z
-x,-y,z
1/2-x,y,1/2+z
1/2+x,-y,1/2+z
x,1/2+y,1/2+z
-x,1/2-y,1/2+z
1/2-x,1/2+y,z
1/2+x,1/2-y,z
loop_
_atom_site_type_symbol
_atom_site_label
_atom_site_fract_x
_atom_site_fract_y
_atom_site_fract_z
Si Si1 0.120597 0.239602 0.647360
Si Si2 0.871647 0.641596 0.926791
Si Si3 0.371647 0.358404 0.245065
Si Si4 0.793560 0.891305 0.677092
Si Si5 0.735379 0.014539 0.927737
Si Si6 0.264621 0.485462 0.244119
Si Si7 0.620597 0.260398 0.024496
Si Si8 0.706440 0.391305 0.994764
O O1 0.156617 0.294062 0.706842
O O2 0.121868 0.237867 0.548104
O O3 0.087338 0.171797 0.679884
O O4 0.878133 0.262133 0.623752
O O5 0.837782 0.644846 0.835928
O O6 0.749147 0.583502 0.958106
O O7 0.843384 0.705938 0.965014
O O8 0.098432 0.624524 0.945292
O O9 0.598432 0.375476 0.226564
O O10 0.249148 0.416498 0.213750
O O11 0.587339 0.828203 0.491972
O O12 0.750000 0.899050 0.585928
O O13 0.848715 0.957530 0.708052
O O14 0.771466 0.015086 0.835928
O O15 0.500000 0.000000 0.938831
O O16 0.848715 0.957530 0.963805
O O17 0.500000 0.500000 0.233026
#
# Coordination Sequence:
#
# PCOD9365778 Si02
#       8
#     8   8   8   8   8   8   8   8
#     4  11  21  38  57  84 123 157 196 251 298 360
#     4  10  20  36  58  87 118 157 202 246 299 359
#     4  10  20  36  58  87 118 157 202 246 299 359
#     4  10  18  32  57  82 118 148 196 236 296 346
#     4   8  16  31  52  79 110 145 192 241 283 342
#     4   8  16  31  52  79 110 145 192 241 283 342
#     4  11  21  38  57  84 123 157 196 251 298 360
#     4  10  18  32  57  82 118 148 196 236 296 346
#
# _framework density 24.68449
#
# number of rings (size 3 to 8) (size 9 to 14) (size 15 to 20)
#    0.000    2.250    5.000    2.250    0.000    3.000 
#    0.000    0.000    0.000    0.000    0.000    3.500 
#    0.000    0.000    0.000    0.000    0.000    0.000 
#
# Total GULP energy -178477.437361 kJ/mol
# GULP energy per Si atom -5577.419918 kJ/mol
# Density = 2.462831 g / cm^3
# Si number density = 24.684490 Si / 1000 Ang^3
#
#
#
# Elastic Constant Matrix: (Units=GPa)
#
#
# Indices 1 2 3 4 5 6 
#
# 1 101.0073 44.0766 9.3304 0.0000 0.0000 0.0000
# 2 44.0766 334.1893 101.1500 0.0000 0.0000 0.0000
# 3 9.3304 101.1500 63.3246 0.0000 0.0000 0.0000
# 4 0.0000 0.0000 0.0000 55.8836 0.0000 0.0000
# 5 0.0000 0.0000 0.0000 0.0000 20.2395 0.0000
# 6 0.0000 0.0000 0.0000 0.0000 0.0000 46.7091
#
#
#
# Elastic Compliance Matrix: (Units=1/GPa)
#
#
# Indices 1 2 3 4 5 6 
#
# 1 0.010559 -0.001785 0.001295 0.000000 0.000000 0.000000
# 2 -0.001785 0.006095 -0.009472 0.000000 0.000000 0.000000
# 3 0.001295 -0.009472 0.030731 0.000000 0.000000 0.000000
# 4 0.000000 0.000000 0.000000 0.017894 0.000000 0.000000
# 5 0.000000 0.000000 0.000000 0.000000 0.049408 0.000000
# 6 0.000000 0.000000 0.000000 0.000000 0.000000 0.021409
#
#
# Mechanical properties :
#
#
# Convention : Reuss Voigt Hill
#
# Bulk Modulus (GPa) = 36.41534 89.73725 63.07629
# Shear Modulus (GPa) = 30.27092 47.49738 38.88415
#
# Velocity S-wave (km/s) = 3.50567 4.39131 3.97324
# Velocity P-wave (km/s) = 5.58307 7.88315 6.83062
#
# Compressibility (1/GPa) = 0.02746096
#
# Stress axis : x y z
#
# Youngs Moduli (GPa) = 94.70226 164.07785 32.54027
#
# Poissons Ratio (x) = 0.29280 -0.04213
# Poissons Ratio (y) = 0.16900 0.30823
# Poissons Ratio (z) = -0.12261 1.55418
#
# Static dielectric constant tensor:
#      x y z
#    x 2.193470 0.000000 0.000000 
#    y 0.000000 1.899650 0.000000 
#    z 0.000000 0.000000 1.843230 
# 
# From -- ./inp_files/10202.got.cif
#   From: 2010.05.17/outbox.cif.g08.bks.cpg/sg41_6_cif.got.tgz:10202.got - 2010.06.03 18:54:24.
