data_PCOD9365944
_publ_section_title
;
Structure prediction by ZEFSAII (Michael W. Deem and Ramdas Pophale) SiO2 
 PCOD9365944
Probable space group: A B A 2
;
_chemical_formula_sum "Si O2"
_cell_formula_units_Z 56
_cell_length_a 12.153641
_cell_length_b 13.750833
_cell_length_c 16.606657
_cell_angle_alpha 90.000000
_cell_angle_beta 90.000000
_cell_angle_gamma 90.000000
_cell_volume 2775.349152
_symmetry_space_group_name_H-M "A B A 2"
_symmetry_group_IT_number 41
_symmetry_cell_setting 'orthorhombic'
loop_
_space_group_symop_operation_xyz
x,y,z
-x,-y,z
1/2-x,y,1/2+z
1/2+x,-y,1/2+z
x,1/2+y,1/2+z
-x,1/2-y,1/2+z
1/2-x,1/2+y,z
1/2+x,1/2-y,z
loop_
_atom_site_type_symbol
_atom_site_label
_atom_site_fract_x
_atom_site_fract_y
_atom_site_fract_z
Si Si1 0.913640 0.756109 0.732260
Si Si2 0.956897 0.400105 0.374738
Si Si3 0.114348 0.309206 0.502717
Si Si4 0.740939 0.117702 0.654311
Si Si5 0.761996 0.375126 0.495976
Si Si6 0.118735 0.051416 0.626410
Si Si7 0.918581 0.273797 0.610832
O O1 0.937191 0.811392 0.814082
O O2 0.818303 0.676256 0.725777
O O3 0.885416 0.843735 0.669539
O O4 0.020422 0.704251 0.694070
O O5 0.843228 0.410940 0.425797
O O6 0.000000 0.500000 0.334535
O O7 0.057424 0.371219 0.433600
O O8 0.161822 0.375498 0.575664
O O9 0.204707 0.229495 0.476706
O O10 0.010709 0.254426 0.543416
O O11 0.844756 0.181172 0.626935
O O12 0.790964 0.013810 0.672827
O O13 0.665796 0.440094 0.535017
O O14 0.842212 0.355499 0.572304
O O15 0.000000 0.000000 0.628562
#
# Coordination Sequence:
#
# PCOD9365944 Si02
#       7
#     8   8   8   8   8   8   8
#     4  11  22  38  56  89 123 156 202 244 303 369
#     4  11  24  38  56  88 127 164 200 249 312 376
#     4   9  18  37  58  86 117 149 201 248 305 356
#     4  10  19  34  62  89 111 155 201 249 297 351
#     4  10  20  38  62  91 116 158 203 253 305 365
#     4  12  20  35  66  91 114 152 207 258 295 355
#     4   9  16  35  60  81 116 145 199 244 289 349
#
# _framework density 20.177643
#
# number of rings (size 3 to 8) (size 9 to 14) (size 15 to 20)
#    0.000    1.714    5.714    1.286    0.000    1.143 
#    0.000    0.000    0.000    0.000    0.000    0.000 
#    0.000    0.000    0.000    0.000    0.000    0.000 
#
# Total GULP energy -156012.152763 kJ/mol
# GULP energy per Si atom -5571.862599 kJ/mol
# Density = 2.013172 g / cm^3
# Si number density = 20.177643 Si / 1000 Ang^3
#
#
#
# Elastic Constant Matrix: (Units=GPa)
#
#
# Indices 1 2 3 4 5 6 
#
# 1 95.2969 18.6618 18.1306 0.0000 0.0000 0.0000
# 2 18.6618 40.0218 1.6571 0.0000 0.0000 0.0000
# 3 18.1306 1.6571 43.2391 0.0000 0.0000 0.0000
# 4 0.0000 0.0000 0.0000 19.9015 0.0000 0.0000
# 5 0.0000 0.0000 0.0000 0.0000 8.9868 0.0000
# 6 0.0000 0.0000 0.0000 0.0000 0.0000 25.2531
#
#
#
# Elastic Compliance Matrix: (Units=1/GPa)
#
#
# Indices 1 2 3 4 5 6 
#
# 1 0.012560 -0.005648 -0.005050 0.000000 0.000000 0.000000
# 2 -0.005648 0.027566 0.001312 0.000000 0.000000 0.000000
# 3 -0.005050 0.001312 0.025195 0.000000 0.000000 0.000000
# 4 0.000000 0.000000 0.000000 0.050248 0.000000 0.000000
# 5 0.000000 0.000000 0.000000 0.000000 0.111274 0.000000
# 6 0.000000 0.000000 0.000000 0.000000 0.000000 0.039599
#
#
# Mechanical properties :
#
#
# Convention : Reuss Voigt Hill
#
# Bulk Modulus (GPa) = 21.48318 28.38409 24.93363
# Shear Modulus (GPa) = 16.62624 20.16883 18.39753
#
# Velocity S-wave (km/s) = 2.87364 3.16502 3.02284
# Velocity P-wave (km/s) = 4.65624 5.23966 4.95654
#
# Compressibility (1/GPa) = 0.04654804
#
# Stress axis : x y z
#
# Youngs Moduli (GPa) = 79.61590 36.27721 39.69108
#
# Poissons Ratio (x) = 0.20488 0.20045
# Poissons Ratio (y) = 0.44964 -0.05206
# Poissons Ratio (z) = 0.40208 -0.04758
#
# Static dielectric constant tensor:
#      x y z
#    x 1.770080 0.000000 0.000000 
#    y 0.000000 1.777880 0.000000 
#    z 0.000000 0.000000 1.732670 
# 
# From -- ./inp_files/7971.got.cif
#   From: 2010.05.17/outbox.cif.g08.bks.cpg/sg41_4_cif.got.tgz:7971.got - 2010.06.03 18:54:24.
