data_PCOD9365761
_publ_section_title
;
Structure prediction by ZEFSAII (Michael W. Deem and Ramdas Pophale) SiO2 
 PCOD9365761
Probable space group: A B A 2
;
_chemical_formula_sum "Si O2"
_cell_formula_units_Z 60
_cell_length_a 18.618621
_cell_length_b 27.074007
_cell_length_c 5.711123
_cell_angle_alpha 90.000000
_cell_angle_beta 90.000000
_cell_angle_gamma 90.000000
_cell_volume 2878.866738
_symmetry_space_group_name_H-M "A B A 2"
_symmetry_group_IT_number 41
_symmetry_cell_setting 'orthorhombic'
loop_
_space_group_symop_operation_xyz
x,y,z
-x,-y,z
1/2-x,y,1/2+z
1/2+x,-y,1/2+z
x,1/2+y,1/2+z
-x,1/2-y,1/2+z
1/2-x,1/2+y,z
1/2+x,1/2-y,z
loop_
_atom_site_type_symbol
_atom_site_label
_atom_site_fract_x
_atom_site_fract_y
_atom_site_fract_z
Si Si1 0.945074 0.226195 0.678610
Si Si2 0.500000 0.000000 0.337634
Si Si3 0.978680 0.595251 0.637934
Si Si4 0.577187 0.344980 0.806225
Si Si5 0.071770 0.800321 0.173101
Si Si6 0.232445 0.695395 0.315776
Si Si7 0.920858 0.436300 0.998208
Si Si8 0.783737 0.917827 0.267034
O O1 0.010461 0.185874 0.700043
O O2 0.988985 0.277812 0.672768
O O3 0.905349 0.215246 0.434823
O O4 0.902516 0.221534 0.923095
O O5 0.469945 0.953917 0.486379
O O6 0.564550 0.979467 0.178126
O O7 0.046187 0.624082 0.521926
O O8 0.923497 0.640467 0.652528
O O9 0.001907 0.576645 0.890652
O O10 0.603367 0.386941 0.628580
O O11 0.647937 0.314306 0.852390
O O12 0.241503 0.719332 0.058937
O O13 0.274482 0.642369 0.280167
O O14 0.862024 0.442197 0.799271
O O15 0.755796 0.933014 0.010218
#
# Coordination Sequence:
#
# PCOD9365761 Si02
#       8
#     8   4   8   8   8   8   8   8
#     4   9  17  28  43  70  88 120 155 190 226 279
#     4  10  24  32  44  72  92 138 178 208 246 304
#     4  10  19  32  46  64  93 134 167 206 244 292
#     4  10  18  27  46  65  95 125 159 190 244 291
#     4   9  17  29  46  63  92 118 158 194 230 272
#     4  10  18  27  40  66  91 122 153 187 234 292
#     4  11  19  32  48  65  98 133 168 201 252 303
#     4  10  19  30  47  69  91 123 160 200 246 301
#
# _framework density 20.841535
#
# number of rings (size 3 to 8) (size 9 to 14) (size 15 to 20)
#    0.000    2.133    4.000    2.000    1.867    0.000 
#    0.000    0.000    0.000    0.000    0.000    0.000 
#    0.000    2.133    0.000    0.000    0.000    0.000 
#
# Total GULP energy -167036.845677 kJ/mol
# GULP energy per Si atom -5567.894856 kJ/mol
# Density = 2.079410 g / cm^3
# Si number density = 20.841535 Si / 1000 Ang^3
#
#
#
# Elastic Constant Matrix: (Units=GPa)
#
#
# Indices 1 2 3 4 5 6 
#
# 1 33.4626 14.5586 7.5834 0.0000 0.0000 0.0000
# 2 14.5586 111.9618 33.0145 0.0000 0.0000 0.0000
# 3 7.5834 33.0145 152.3588 0.0000 0.0000 0.0000
# 4 0.0000 0.0000 0.0000 20.0612 0.0000 0.0000
# 5 0.0000 0.0000 0.0000 0.0000 11.0245 0.0000
# 6 0.0000 0.0000 0.0000 0.0000 0.0000 10.4827
#
#
#
# Elastic Compliance Matrix: (Units=1/GPa)
#
#
# Indices 1 2 3 4 5 6 
#
# 1 0.031752 -0.003913 -0.000733 0.000000 0.000000 0.000000
# 2 -0.003913 0.010023 -0.001977 0.000000 0.000000 0.000000
# 3 -0.000733 -0.001977 0.007028 0.000000 0.000000 0.000000
# 4 0.000000 0.000000 0.000000 0.049847 0.000000 0.000000
# 5 0.000000 0.000000 0.000000 0.000000 0.090707 0.000000
# 6 0.000000 0.000000 0.000000 0.000000 0.000000 0.095395
#
#
# Mechanical properties :
#
#
# Convention : Reuss Voigt Hill
#
# Bulk Modulus (GPa) = 28.12220 45.34402 36.73311
# Shear Modulus (GPa) = 16.13671 24.48879 20.31275
#
# Velocity S-wave (km/s) = 2.78557 3.43155 3.12529
# Velocity P-wave (km/s) = 4.88554 6.12409 5.53954
#
# Compressibility (1/GPa) = 0.03555910
#
# Stress axis : x y z
#
# Youngs Moduli (GPa) = 31.49360 99.76623 142.28070
#
# Poissons Ratio (x) = 0.39037 0.10423
# Poissons Ratio (y) = 0.12323 0.28132
# Poissons Ratio (z) = 0.02307 0.19726
#
# Static dielectric constant tensor:
#      x y z
#    x 1.771750 0.000000 0.000000 
#    y 0.000000 1.791860 0.000000 
#    z 0.000000 0.000000 1.884820 
# 
# From -- ./inp_files/837.got.cif
#   From: 2010.05.17/outbox.cif.g08.bks.cpg/sg41_1_cif.got.tgz:837.got - 2010.06.03 18:54:24.
