data_PCOD9365485
_publ_section_title
;
Structure prediction by ZEFSAII (Michael W. Deem and Ramdas Pophale) SiO2 
 PCOD9365485
Probable space group: A M A 2
;
_chemical_formula_sum "Si O2"
_cell_formula_units_Z 60
_cell_length_a 32.294410
_cell_length_b 13.967375
_cell_length_c 5.429855
_cell_angle_alpha 90.000000
_cell_angle_beta 90.000000
_cell_angle_gamma 90.000000
_cell_volume 2449.234567
_symmetry_space_group_name_H-M "A M A 2"
_symmetry_group_IT_number 40
_symmetry_cell_setting 'orthorhombic'
loop_
_space_group_symop_operation_xyz
x,y,z
-x,-y,z
1/2-x,y,z
1/2+x,-y,z
x,1/2+y,1/2+z
-x,1/2-y,1/2+z
1/2-x,1/2+y,1/2+z
1/2+x,1/2-y,1/2+z
loop_
_atom_site_type_symbol
_atom_site_label
_atom_site_fract_x
_atom_site_fract_y
_atom_site_fract_z
Si Si1 0.975961 0.823679 0.070040
Si Si2 0.656856 0.725753 0.693847
Si Si3 0.435364 0.298838 0.718318
Si Si4 0.500000 0.500000 0.229134
Si Si5 0.067356 0.012128 0.346674
Si Si6 0.296630 0.003712 0.727724
Si Si7 0.839707 0.994219 0.230512
Si Si8 0.297655 0.770895 0.697040
O O1 0.958171 0.893080 0.279949
O O2 0.020088 0.773304 0.106792
O O3 0.942413 0.745291 0.991150
O O4 0.985520 0.907491 0.875896
O O5 0.608375 0.744929 0.642736
O O6 0.659370 0.610035 0.715461
O O7 0.683146 0.758352 0.459150
O O8 0.675252 0.757146 0.958057
O O9 0.434268 0.413880 0.686858
O O10 0.458119 0.475465 0.080975
O O11 0.115370 0.037493 0.328741
O O12 0.250000 0.033837 0.787714
O O13 0.308794 0.032823 0.450968
O O14 0.297525 0.887377 0.714312
O O15 0.326490 0.033734 0.953433
O O16 0.250000 0.740272 0.668302
#
# Coordination Sequence:
#
# PCOD9365485 Si02
#       8
#     8   8   8   4   8   8   8   8
#     4  12  25  43  65  94 130 183 227 282 347 402
#     4   9  19  32  52  85 122 160 210 272 321 398
#     4  11  23  42  63  93 130 171 228 276 339 401
#     4  12  22  42  66  86 134 170 224 286 326 412
#     4  11  23  43  60  94 127 173 223 276 337 404
#     4   9  16  29  49  83 119 157 205 261 326 402
#     4   9  19  30  54  80 120 164 204 266 332 389
#     4   9  16  30  52  82 121 161 203 260 334 399
#
# _framework density 24.497451999999999
#
# number of rings (size 3 to 8) (size 9 to 14) (size 15 to 20)
#    0.000    1.867    2.667    1.600    1.867    7.467 
#    0.000    0.000    0.000    0.000    0.000    5.600 
#    0.000    0.000    0.000    0.000    0.000    0.000 
#
# Total GULP energy -167393.473664 kJ/mol
# GULP energy per Si atom -5579.782455 kJ/mol
# Density = 2.444169 g / cm^3
# Si number density = 24.497452 Si / 1000 Ang^3
#
#
#
# Elastic Constant Matrix: (Units=GPa)
#
#
# Indices 1 2 3 4 5 6 
#
# 1 114.3389 9.8606 21.7439 0.0000 0.0000 0.0000
# 2 9.8606 116.9630 -1.8556 0.0000 0.0000 0.0000
# 3 21.7439 -1.8556 90.5782 0.0000 0.0000 0.0000
# 4 0.0000 0.0000 0.0000 -85.3452 0.0000 0.0000
# 5 0.0000 0.0000 0.0000 0.0000 -14.7440 0.0000
# 6 0.0000 0.0000 0.0000 0.0000 0.0000 2.0671
#
#
#
# Elastic Compliance Matrix: (Units=1/GPa)
#
#
# Indices 1 2 3 4 5 6 
#
# 1 0.009241 -0.000815 -0.002235 0.000000 0.000000 0.000000
# 2 -0.000815 0.008624 0.000372 0.000000 0.000000 0.000000
# 3 -0.002235 0.000372 0.011584 0.000000 0.000000 0.000000
# 4 0.000000 0.000000 0.000000 -0.011717 0.000000 0.000000
# 5 0.000000 0.000000 0.000000 0.000000 -0.067824 0.000000
# 6 0.000000 0.000000 0.000000 0.000000 0.000000 0.483765
#
#
# Mechanical properties :
#
#
# Convention : Reuss Voigt Hill
#
# Bulk Modulus (GPa) = 41.50235 42.37530 41.93883
# Shear Modulus (GPa) = 11.18419 -0.12901 5.52759
#
# Velocity S-wave (km/s) = 2.13901 -0.22973 1.50376
# Velocity P-wave (km/s) = 4.80404 4.15512 4.49131
#
# Compressibility (1/GPa) = 0.02409502
#
# Stress axis : x y z
#
# Youngs Moduli (GPa) = 108.21073 115.95158 86.32327
#
# Poissons Ratio (x) = 0.09445 0.19294
# Poissons Ratio (y) = 0.08814 -0.03213
# Poissons Ratio (z) = 0.24186 -0.04316
#
# Static dielectric constant tensor:
#      x y z
#    x 2.049450 0.000000 0.000000 
#    y 0.000000 2.018640 0.000000 
#    z 0.000000 0.000000 2.058010 
# 
# From -- ./inp_files/3466.got.cif
#   From: 2010.05.17/outbox.cif.g08.bks.cpg/sg40_2_cif.got.tgz:3466.got - 2010.06.03 18:35:42.
