data_PCOD9365763
_publ_section_title
;
Structure prediction by ZEFSAII (Michael W. Deem and Ramdas Pophale) SiO2 
 PCOD9365763
Probable space group: A B A 2
;
_chemical_formula_sum "Si O2"
_cell_formula_units_Z 64
_cell_length_a 29.507918
_cell_length_b 17.068482
_cell_length_c 5.434817
_cell_angle_alpha 90.000000
_cell_angle_beta 90.000000
_cell_angle_gamma 90.000000
_cell_volume 2737.274752
_symmetry_space_group_name_H-M "A B A 2"
_symmetry_group_IT_number 41
_symmetry_cell_setting 'orthorhombic'
loop_
_space_group_symop_operation_xyz
x,y,z
-x,-y,z
1/2-x,y,1/2+z
1/2+x,-y,1/2+z
x,1/2+y,1/2+z
-x,1/2-y,1/2+z
1/2-x,1/2+y,z
1/2+x,1/2-y,z
loop_
_atom_site_type_symbol
_atom_site_label
_atom_site_fract_x
_atom_site_fract_y
_atom_site_fract_z
Si Si1 0.565809 0.558821 0.125000
Si Si2 0.365285 0.187267 0.034653
Si Si3 0.761961 0.108998 0.374989
Si Si4 0.773378 0.788058 0.318163
Si Si5 0.078569 0.594760 0.350867
Si Si6 0.485504 0.892792 0.123109
Si Si7 0.639303 0.664784 0.353884
Si Si8 0.932166 0.249603 0.664810
O O1 0.534615 0.574743 0.365833
O O2 0.609972 0.610977 0.173433
O O3 0.580028 0.470440 0.061654
O O4 0.540361 0.583847 0.875300
O O5 0.325924 0.186785 0.832435
O O6 0.412813 0.218394 0.921127
O O7 0.377137 0.109109 0.184457
O O8 0.348371 0.254076 0.221075
O O9 0.741558 0.068093 0.612142
O O10 0.735323 0.192941 0.335084
O O11 0.814449 0.124864 0.426453
O O12 0.749156 0.816656 0.567064
O O13 0.068566 0.676614 0.485423
O O14 0.036479 0.579797 0.168889
O O15 0.478186 0.798609 0.130057
O O16 0.606112 0.687887 0.574713
#
# Coordination Sequence:
#
# PCOD9365763 Si02
#       8
#     8   8   8   8   8   8   8   8
#     4  11  26  47  67  93 131 181 228 275 335 410
#     4  11  21  38  64  96 133 170 218 280 343 398
#     4  10  18  29  57  93 126 159 215 271 322 378
#     4  10  19  32  57  92 128 162 213 267 324 392
#     4  11  28  41  66  98 135 177 222 284 351 409
#     4  11  26  46  69  92 128 179 233 277 331 408
#     4  10  20  38  62  96 129 172 221 276 329 401
#     4  10  23  39  66  97 133 167 223 288 342 396
#
# _framework density 23.38092
#
# number of rings (size 3 to 8) (size 9 to 14) (size 15 to 20)
#    0.000    1.500    3.750    1.875    7.000    1.000 
#    0.000    0.000    0.000    1.500    0.000    0.000 
#    0.000    0.000    0.000    0.000    0.000    0.000 
#
# Total GULP energy -178834.109678 kJ/mol
# GULP energy per Si atom -5588.565927 kJ/mol
# Density = 2.332770 g / cm^3
# Si number density = 23.380920 Si / 1000 Ang^3
#
#
#
# Elastic Constant Matrix: (Units=GPa)
#
#
# Indices 1 2 3 4 5 6 
#
# 1 84.0756 21.2387 20.7683 0.0000 0.0000 0.0000
# 2 21.2387 57.2465 33.4092 0.0000 0.0000 0.0000
# 3 20.7683 33.4092 141.1471 0.0000 0.0000 0.0000
# 4 0.0000 0.0000 0.0000 32.1229 0.0000 0.0000
# 5 0.0000 0.0000 0.0000 0.0000 29.9694 0.0000
# 6 0.0000 0.0000 0.0000 0.0000 0.0000 4.0644
#
#
#
# Elastic Compliance Matrix: (Units=1/GPa)
#
#
# Indices 1 2 3 4 5 6 
#
# 1 0.013224 -0.004375 -0.000910 0.000000 0.000000 0.000000
# 2 -0.004375 0.021715 -0.004496 0.000000 0.000000 0.000000
# 3 -0.000910 -0.004496 0.008283 0.000000 0.000000 0.000000
# 4 0.000000 0.000000 0.000000 0.031130 0.000000 0.000000
# 5 0.000000 0.000000 0.000000 0.000000 0.033367 0.000000
# 6 0.000000 0.000000 0.000000 0.000000 0.000000 0.246037
#
#
# Mechanical properties :
#
#
# Convention : Reuss Voigt Hill
#
# Bulk Modulus (GPa) = 42.26616 48.14464 45.20540
# Shear Modulus (GPa) = 13.11625 27.03489 20.07557
#
# Velocity S-wave (km/s) = 2.37107 3.40410 2.93342
# Velocity P-wave (km/s) = 5.06087 6.00722 5.55424
#
# Compressibility (1/GPa) = 0.02365959
#
# Stress axis : x y z
#
# Youngs Moduli (GPa) = 75.61961 46.05007 120.72924
#
# Poissons Ratio (x) = 0.20147 0.10989
# Poissons Ratio (y) = 0.33083 0.54283
# Poissons Ratio (z) = 0.06883 0.20705
#
# Static dielectric constant tensor:
#      x y z
#    x 1.899050 0.000000 0.000000 
#    y 0.000000 1.912700 0.000000 
#    z 0.000000 0.000000 1.926300 
# 
# From -- ./inp_files/1407.got.cif
#   From: 2010.05.17/outbox.cif.g08.bks.cpg/sg41_1_cif.got.tgz:1407.got - 2010.06.03 18:54:24.
