data_PCOD9365433
_publ_section_title
;
Structure prediction by ZEFSAII (Michael W. Deem and Ramdas Pophale) SiO2 
 PCOD9365433
Probable space group: A M A 2
;
_chemical_formula_sum "Si O2"
_cell_formula_units_Z 64
_cell_length_a 16.055936
_cell_length_b 9.112109
_cell_length_c 21.006224
_cell_angle_alpha 90.000000
_cell_angle_beta 90.000000
_cell_angle_gamma 90.000000
_cell_volume 3073.282810
_symmetry_space_group_name_H-M "A M A 2"
_symmetry_group_IT_number 40
_symmetry_cell_setting 'orthorhombic'
loop_
_space_group_symop_operation_xyz
x,y,z
-x,-y,z
1/2-x,y,z
1/2+x,-y,z
x,1/2+y,1/2+z
-x,1/2-y,1/2+z
1/2-x,1/2+y,1/2+z
1/2+x,1/2-y,1/2+z
loop_
_atom_site_type_symbol
_atom_site_label
_atom_site_fract_x
_atom_site_fract_y
_atom_site_fract_z
Si Si1 0.088858 0.422530 0.414420
Si Si2 0.351389 0.894621 0.153783
Si Si3 0.351389 0.894621 0.295701
Si Si4 0.345943 0.234492 0.527487
Si Si5 0.588858 0.077470 0.535064
Si Si6 0.850231 0.264609 0.798424
Si Si7 0.345943 0.234492 0.921997
Si Si8 0.850231 0.264609 0.651060
O O1 0.102244 0.307610 0.471113
O O2 0.106080 0.339674 0.348645
O O3 0.150567 0.559596 0.423624
O O4 0.000000 0.500000 0.415834
O O5 0.250000 0.889206 0.155826
O O6 0.378044 0.792382 0.095814
O O7 0.381262 0.853258 0.224742
O O8 0.373798 0.064416 0.141354
O O9 0.250000 0.889206 0.293658
O O10 0.373798 0.064416 0.308129
O O11 0.378044 0.792382 0.353670
O O12 0.250000 0.282749 0.520162
O O13 0.349433 0.059596 0.525859
O O14 0.500000 0.000000 0.533650
O O15 0.602244 0.192390 0.478371
O O16 0.606080 0.160326 0.600839
O O17 0.750000 0.254636 0.807682
O O18 0.867478 0.227704 0.724742
O O19 0.250000 0.282749 0.929322
O O20 0.750000 0.254636 0.641802
#
# Coordination Sequence:
#
# PCOD9365433 Si02
#       8
#     8   8   8   8   8   8   8   8
#     4  12  25  39  56  83 120 154 189 241 302 351
#     4   8  16  33  59  88 112 138 182 239 287 329
#     4   8  16  33  59  88 112 138 182 239 287 329
#     4  11  22  38  61  84 110 150 198 241 285 347
#     4  12  25  39  56  83 120 154 189 241 302 351
#     4   9  18  36  61  85 112 150 195 240 287 343
#     4  11  22  38  61  84 110 150 198 241 285 347
#     4   9  18  36  61  85 112 150 195 240 287 343
#
# _framework density 20.824636999999999
#
# number of rings (size 3 to 8) (size 9 to 14) (size 15 to 20)
#    0.000    2.000    0.000    6.000    0.000    3.500 
#    0.000    2.500    0.000    3.750    0.000    0.000 
#    0.000    0.000    0.000    0.000    0.000    0.000 
#
# Total GULP energy -178849.155930 kJ/mol
# GULP energy per Si atom -5589.036123 kJ/mol
# Density = 2.077724 g / cm^3
# Si number density = 20.824637 Si / 1000 Ang^3
#
#
#
# Elastic Constant Matrix: (Units=GPa)
#
#
# Indices 1 2 3 4 5 6 
#
# 1 35.9541 -4.1543 11.4859 0.0000 0.0000 0.0000
# 2 -4.1543 72.9494 51.3545 0.0000 0.0000 0.0000
# 3 11.4859 51.3545 92.0395 0.0000 0.0000 0.0000
# 4 0.0000 0.0000 0.0000 28.9180 0.0000 0.0000
# 5 0.0000 0.0000 0.0000 0.0000 -7.2404 0.0000
# 6 0.0000 0.0000 0.0000 0.0000 0.0000 -5.1929
#
#
#
# Elastic Compliance Matrix: (Units=1/GPa)
#
#
# Indices 1 2 3 4 5 6 
#
# 1 0.031248 0.007452 -0.008057 0.000000 0.000000 0.000000
# 2 0.007452 0.024353 -0.014518 0.000000 0.000000 0.000000
# 3 -0.008057 -0.014518 0.019971 0.000000 0.000000 0.000000
# 4 0.000000 0.000000 0.000000 0.034581 0.000000 0.000000
# 5 0.000000 0.000000 0.000000 0.000000 -0.138114 0.000000
# 6 0.000000 0.000000 0.000000 0.000000 0.000000 -0.192571
#
#
# Mechanical properties :
#
#
# Convention : Reuss Voigt Hill
#
# Bulk Modulus (GPa) = 22.06295 35.36835 28.71565
# Shear Modulus (GPa) = -28.54242 12.78073 -7.88084
#
# Velocity S-wave (km/s) = -3.70619 2.48005 -1.94746
# Velocity P-wave (km/s) = 2.77431 5.02211 2.96014
#
# Compressibility (1/GPa) = 0.04532485
#
# Stress axis : x y z
#
# Youngs Moduli (GPa) = 32.00177 41.06341 50.07329
#
# Poissons Ratio (x) = -0.30599 0.40346
# Poissons Ratio (y) = -0.23847 0.72695
# Poissons Ratio (z) = 0.25785 0.59615
#
# Static dielectric constant tensor:
#      x y z
#    x 1.802560 0.000000 0.000000 
#    y 0.000000 1.705570 0.000000 
#    z 0.000000 0.000000 1.723390 
# 
# From -- ./inp_files/23384.got.cif
#   From: 2010.05.17/outbox.cif.g08.bks.cpg/sg40_12_cif.got.tgz:23384.got - 2010.06.03 18:35:42.
