data_PCOD9365495
_publ_section_title
;
Structure prediction by ZEFSAII (Michael W. Deem and Ramdas Pophale) SiO2 
 PCOD9365495
Probable space group: A M A 2
;
_chemical_formula_sum "Si O2"
_cell_formula_units_Z 40
_cell_length_a 20.758425
_cell_length_b 8.240628
_cell_length_c 10.076414
_cell_angle_alpha 90.000000
_cell_angle_beta 90.000000
_cell_angle_gamma 90.000000
_cell_volume 1723.696150
_symmetry_space_group_name_H-M "A M A 2"
_symmetry_group_IT_number 40
_symmetry_cell_setting 'orthorhombic'
loop_
_space_group_symop_operation_xyz
x,y,z
-x,-y,z
1/2-x,y,z
1/2+x,-y,z
x,1/2+y,1/2+z
-x,1/2-y,1/2+z
1/2-x,1/2+y,1/2+z
1/2+x,1/2-y,1/2+z
loop_
_atom_site_type_symbol
_atom_site_label
_atom_site_fract_x
_atom_site_fract_y
_atom_site_fract_z
Si Si1 0.250000 0.020958 0.668100
Si Si2 0.750000 0.114528 0.097666
Si Si3 0.500000 0.000000 0.512039
Si Si4 0.642776 0.503925 0.393813
Si Si5 0.610310 0.853013 0.339837
Si Si6 0.750000 0.991665 0.391904
Si Si7 0.548257 0.347242 0.560986
O O1 0.250000 0.191512 0.591949
O O2 0.250000 0.911343 0.533636
O O3 0.312163 0.009621 0.763166
O O4 0.750000 0.094279 0.255808
O O5 0.689949 0.040495 0.017691
O O6 0.562519 0.962923 0.424029
O O7 0.485251 0.827663 0.581073
O O8 0.600452 0.665015 0.375397
O O9 0.594748 0.358550 0.431632
O O10 0.683682 0.894084 0.372435
O O11 0.593415 0.874075 0.187455
O O12 0.500000 0.500000 0.556778
#
# Coordination Sequence:
#
# PCOD9365495 Si02
#       7
#     4   4   4   8   8   4   8
#     4  11  26  43  73 116 156 202 259 321 408 470
#     4  11  23  45  74 107 161 201 252 323 397 468
#     4  12  30  48  76 116 150 220 258 322 396 476
#     4  11  25  47  74 111 156 208 254 327 396 471
#     4  12  26  50  77 111 157 203 269 326 391 472
#     4  12  25  46  77 113 157 197 263 336 385 476
#     4  12  27  50  77 109 157 207 268 323 391 473
#
# _framework density 23.205947999999999
#
# number of rings (size 3 to 8) (size 9 to 14) (size 15 to 20)
#    0.000    0.400    7.000    0.600    5.600    1.600 
#    0.000    0.000    0.000    0.000    0.000    0.000 
#    0.000    0.000    0.000    0.000    0.000    0.000 
#
# Total GULP energy -111746.088945 kJ/mol
# GULP energy per Si atom -5587.304447 kJ/mol
# Density = 2.315313 g / cm^3
# Si number density = 23.205948 Si / 1000 Ang^3
#
#
#
# Elastic Constant Matrix: (Units=GPa)
#
#
# Indices 1 2 3 4 5 6 
#
# 1 109.6115 59.6036 62.2910 0.0000 0.0000 0.0000
# 2 59.6036 99.1846 20.2926 0.0000 0.0000 0.0000
# 3 62.2910 20.2926 150.5664 0.0000 0.0000 0.0000
# 4 0.0000 0.0000 0.0000 21.7010 0.0000 0.0000
# 5 0.0000 0.0000 0.0000 0.0000 32.4178 0.0000
# 6 0.0000 0.0000 0.0000 0.0000 0.0000 30.1007
#
#
#
# Elastic Compliance Matrix: (Units=1/GPa)
#
#
# Indices 1 2 3 4 5 6 
#
# 1 0.017651 -0.009372 -0.006040 0.000000 0.000000 0.000000
# 2 -0.009372 0.015344 0.001809 0.000000 0.000000 0.000000
# 3 -0.006040 0.001809 0.008896 0.000000 0.000000 0.000000
# 4 0.000000 0.000000 0.000000 0.046081 0.000000 0.000000
# 5 0.000000 0.000000 0.000000 0.000000 0.030847 0.000000
# 6 0.000000 0.000000 0.000000 0.000000 0.000000 0.033222
#
#
# Mechanical properties :
#
#
# Convention : Reuss Voigt Hill
#
# Bulk Modulus (GPa) = 68.08463 71.52632 69.80548
# Shear Modulus (GPa) = 27.15303 31.32223 29.23763
#
# Velocity S-wave (km/s) = 3.42437 3.67788 3.55339
# Velocity P-wave (km/s) = 6.71104 6.99465 6.85431
#
# Compressibility (1/GPa) = 0.01468760
#
# Stress axis : x y z
#
# Youngs Moduli (GPa) = 56.65273 65.17267 112.40545
#
# Poissons Ratio (x) = 0.61078 0.67887
# Poissons Ratio (y) = 0.53093 -0.20337
# Poissons Ratio (z) = 0.34215 -0.11791
#
# Static dielectric constant tensor:
#      x y z
#    x 1.837160 0.000000 0.000000 
#    y 0.000000 1.944710 0.000000 
#    z 0.000000 0.000000 1.915090 
# 
# From -- ./inp_files/8636.got.cif
#   From: 2010.05.17/outbox.cif.g08.bks.cpg/sg40_5_cif.got.tgz:8636.got - 2010.06.03 18:35:42.
