data_PCOD9365968
_publ_section_title
;
Structure prediction by ZEFSAII (Michael W. Deem and Ramdas Pophale) SiO2 
 PCOD9365968
Probable space group: A B A 2
;
_chemical_formula_sum "Si O2"
_cell_formula_units_Z 56
_cell_length_a 9.307534
_cell_length_b 14.649227
_cell_length_c 19.932988
_cell_angle_alpha 90.000000
_cell_angle_beta 90.000000
_cell_angle_gamma 90.000000
_cell_volume 2717.826603
_symmetry_space_group_name_H-M "A B A 2"
_symmetry_group_IT_number 41
_symmetry_cell_setting 'orthorhombic'
loop_
_space_group_symop_operation_xyz
x,y,z
-x,-y,z
1/2-x,y,1/2+z
1/2+x,-y,1/2+z
x,1/2+y,1/2+z
-x,1/2-y,1/2+z
1/2-x,1/2+y,z
1/2+x,1/2-y,z
loop_
_atom_site_type_symbol
_atom_site_label
_atom_site_fract_x
_atom_site_fract_y
_atom_site_fract_z
Si Si1 0.164793 0.227940 0.500000
Si Si2 0.330161 0.482504 0.598799
Si Si3 0.421730 0.252711 0.409010
Si Si4 0.327536 0.367932 0.844526
Si Si5 0.199646 0.166059 0.653566
Si Si6 0.646633 0.552013 0.976820
Si Si7 0.624186 0.669922 0.697188
O O1 0.308769 0.202706 0.458860
O O2 0.175476 0.199383 0.576656
O O3 0.145161 0.338722 0.493793
O O4 0.311852 0.229096 0.691869
O O5 0.500000 0.500000 0.598514
O O6 0.258833 0.560805 0.644231
O O7 0.268580 0.486768 0.524595
O O8 0.311293 0.385678 0.634450
O O9 0.316718 0.311755 0.362617
O O10 0.530382 0.190948 0.365783
O O11 0.525762 0.308658 0.459797
O O12 0.327723 0.451451 0.896888
O O13 0.336037 0.381107 0.765711
O O14 0.046545 0.172315 0.689640
O O15 0.500000 0.500000 0.992881
#
# Coordination Sequence:
#
# PCOD9365968 Si02
#       7
#     8   8   8   8   8   8   8
#     4  10  19  35  61  91 122 144 213 255 306 362
#     4  10  24  40  61  92 125 157 210 266 309 371
#     4   8  18  33  57  89 112 158 195 249 295 364
#     4  10  21  38  62  84 131 162 202 251 307 381
#     4  11  23  36  69  87 125 165 203 264 315 367
#     4  10  22  38  59  90 120 159 205 261 307 360
#     4  11  23  42  60  95 124 168 208 249 317 384
#
# _framework density 20.604699
#
# number of rings (size 3 to 8) (size 9 to 14) (size 15 to 20)
#    0.000    2.286    1.429    1.714   12.000    1.714 
#    0.000    0.000    0.000    0.857    0.000    0.000 
#    0.000    0.000    0.000    0.000    0.000    0.000 
#
# Total GULP energy -156209.830781 kJ/mol
# GULP energy per Si atom -5578.922528 kJ/mol
# Density = 2.055780 g / cm^3
# Si number density = 20.604699 Si / 1000 Ang^3
#
#
#
# Elastic Constant Matrix: (Units=GPa)
#
#
# Indices 1 2 3 4 5 6 
#
# 1 79.4699 7.1161 22.4203 0.0000 0.0000 0.0000
# 2 7.1161 51.6823 -21.4944 0.0000 0.0000 0.0000
# 3 22.4203 -21.4944 80.4471 0.0000 0.0000 0.0000
# 4 0.0000 0.0000 0.0000 20.9055 0.0000 0.0000
# 5 0.0000 0.0000 0.0000 0.0000 18.3785 0.0000
# 6 0.0000 0.0000 0.0000 0.0000 0.0000 17.7286
#
#
#
# Elastic Compliance Matrix: (Units=1/GPa)
#
#
# Indices 1 2 3 4 5 6 
#
# 1 0.014392 -0.004106 -0.005108 0.000000 0.000000 0.000000
# 2 -0.004106 0.022939 0.007273 0.000000 0.000000 0.000000
# 3 -0.005108 0.007273 0.015798 0.000000 0.000000 0.000000
# 4 0.000000 0.000000 0.000000 0.047834 0.000000 0.000000
# 5 0.000000 0.000000 0.000000 0.000000 0.054411 0.000000
# 6 0.000000 0.000000 0.000000 0.000000 0.000000 0.056406
#
#
# Mechanical properties :
#
#
# Convention : Reuss Voigt Hill
#
# Bulk Modulus (GPa) = 20.30562 25.29815 22.80189
# Shear Modulus (GPa) = 21.54447 24.97302 23.25874
#
# Velocity S-wave (km/s) = 3.23710 3.48516 3.36342
# Velocity P-wave (km/s) = 4.88344 5.33851 5.11604
#
# Compressibility (1/GPa) = 0.04924744
#
# Stress axis : x y z
#
# Youngs Moduli (GPa) = 69.48207 43.59320 63.30108
#
# Poissons Ratio (x) = 0.17900 0.32335
# Poissons Ratio (y) = 0.28530 -0.46042
# Poissons Ratio (z) = 0.35493 -0.31707
#
# Static dielectric constant tensor:
#      x y z
#    x 1.723570 0.000000 0.000000 
#    y 0.000000 1.793750 0.000000 
#    z 0.000000 0.000000 1.745730 
# 
# From -- ./inp_files/10158.got.cif
#   From: 2010.05.17/outbox.cif.g08.bks.cpg/sg41_6_cif.got.tgz:10158.got - 2010.06.03 18:54:24.
