data_PCOD9365075
_publ_section_title
;
Structure prediction by ZEFSAII (Michael W. Deem and Ramdas Pophale) SiO2 
 PCOD9365075
Probable space group: A M A 2
;
_chemical_formula_sum "Si O2"
_cell_formula_units_Z 32
_cell_length_a 13.105838
_cell_length_b 18.690433
_cell_length_c 5.041565
_cell_angle_alpha 90.000000
_cell_angle_beta 90.000000
_cell_angle_gamma 90.000000
_cell_volume 1234.950439
_symmetry_space_group_name_H-M "A M A 2"
_symmetry_group_IT_number 40
_symmetry_cell_setting 'orthorhombic'
loop_
_space_group_symop_operation_xyz
x,y,z
-x,-y,z
1/2-x,y,z
1/2+x,-y,z
x,1/2+y,1/2+z
-x,1/2-y,1/2+z
1/2-x,1/2+y,1/2+z
1/2+x,1/2-y,1/2+z
loop_
_atom_site_type_symbol
_atom_site_label
_atom_site_fract_x
_atom_site_fract_y
_atom_site_fract_z
Si Si1 0.588648 0.195769 0.635880
Si Si2 0.087264 0.897652 0.155672
Si Si3 0.360457 0.059218 0.093121
Si Si4 0.140493 0.686788 0.246279
O O1 0.626925 0.137551 0.422900
O O2 0.633970 0.269956 0.527554
O O3 0.465486 0.204657 0.606156
O O4 0.604102 0.159311 0.920335
O O5 0.967209 0.913874 0.210986
O O6 0.131817 0.973998 0.073858
O O7 0.250000 0.076445 0.217358
O O8 0.361101 0.102780 0.816572
O O9 0.250000 0.705733 0.124918
#
# Coordination Sequence:
#
# PCOD9365075 Si02
#       4
#     8   8   8   8
#     4  11  23  43  64  92 130 166 213 267 320 385
#     4  10  23  41  63  89 125 168 207 262 324 377
#     4   9  20  39  62  90 123 163 212 261 317 385
#     4  10  22  42  69  98 132 176 222 272 331 393
#
# _framework density 25.911968999999999
#
# number of rings (size 3 to 8) (size 9 to 14) (size 15 to 20)
#    0.000    2.000    0.000    3.000    0.000   11.000 
#    0.000   16.250    0.000    0.000    0.000    0.000 
#    0.000    0.000    0.000    0.000    0.000    0.000 
#
# Total GULP energy -89408.956775 kJ/mol
# GULP energy per Si atom -5588.059798 kJ/mol
# Density = 2.585299 g / cm^3
# Si number density = 25.911969 Si / 1000 Ang^3
#
#
#
# Elastic Constant Matrix: (Units=GPa)
#
#
# Indices 1 2 3 4 5 6 
#
# 1 169.6790 12.7829 12.3190 0.0000 0.0000 0.0000
# 2 12.7829 167.1881 56.4028 0.0000 0.0000 0.0000
# 3 12.3190 56.4028 103.5237 0.0000 0.0000 0.0000
# 4 0.0000 0.0000 0.0000 32.0917 0.0000 0.0000
# 5 0.0000 0.0000 0.0000 0.0000 19.0927 0.0000
# 6 0.0000 0.0000 0.0000 0.0000 0.0000 0.0001
#
#
#
# Elastic Compliance Matrix: (Units=1/GPa)
#
#
# Indices 1 2 3 4 5 6 
#
# 1 0.005954 -0.000265 -0.000564 0.000000 0.000000 0.000000
# 2 -0.000265 0.007340 -0.003968 0.000000 0.000000 0.000000
# 3 -0.000564 -0.003968 0.011888 0.000000 0.000000 0.000000
# 4 0.000000 0.000000 0.000000 0.031161 0.000000 0.000000
# 5 0.000000 0.000000 0.000000 0.000000 0.052376 0.000000
# 6 0.000000 0.000000 0.000000 0.000000 0.000000**********
#
#
# Mechanical properties :
#
#
# Convention : Reuss Voigt Hill
#
# Bulk Modulus (GPa) = 64.14584 67.04447 65.59516
# Shear Modulus (GPa) = 0.00052 34.16266 17.08159
#
# Velocity S-wave (km/s) = 0.01417 3.63493 2.57031
# Velocity P-wave (km/s) = 4.98089 6.59902 5.84621
#
# Compressibility (1/GPa) = 0.01558947
#
# Stress axis : x y z
#
# Youngs Moduli (GPa) = 167.94296 136.23906 84.11558
#
# Poissons Ratio (x) = 0.03609 0.04746
# Poissons Ratio (y) = 0.04449 0.33373
# Poissons Ratio (z) = 0.09476 0.54054
#
# Static dielectric constant tensor:
#      x y z
#    x 2.101660 0.000000 0.000000 
#    y 0.000000 2.002640 0.000000 
#    z 0.000000 0.000000 1.998820 
# 
# From -- ./inp_files/1079.got.cif
#   From: 2010.05.17/outbox.cif.g08.bks.cpg/sg40_1_cif.got.tgz:1079.got - 2010.06.03 18:35:42.
