data_PCOD9365875
_publ_section_title
;
Structure prediction by ZEFSAII (Michael W. Deem and Ramdas Pophale) SiO2 
 PCOD9365875
Probable space group: A B A 2
;
_chemical_formula_sum "Si O2"
_cell_formula_units_Z 60
_cell_length_a 28.973154
_cell_length_b 21.501718
_cell_length_c 5.231003
_cell_angle_alpha 90.000000
_cell_angle_beta 90.000000
_cell_angle_gamma 90.000000
_cell_volume 3258.771471
_symmetry_space_group_name_H-M "A B A 2"
_symmetry_group_IT_number 41
_symmetry_cell_setting 'orthorhombic'
loop_
_space_group_symop_operation_xyz
x,y,z
-x,-y,z
1/2-x,y,1/2+z
1/2+x,-y,1/2+z
x,1/2+y,1/2+z
-x,1/2-y,1/2+z
1/2-x,1/2+y,z
1/2+x,1/2-y,z
loop_
_atom_site_type_symbol
_atom_site_label
_atom_site_fract_x
_atom_site_fract_y
_atom_site_fract_z
Si Si1 0.500345 0.709041 0.202550
Si Si2 0.877219 0.431316 0.091602
Si Si3 0.771901 0.441506 0.935189
Si Si4 0.070755 0.398527 0.829894
Si Si5 0.930140 0.398184 0.569417
Si Si6 0.233169 0.917048 0.886045
Si Si7 0.000000 0.500000 0.694173
Si Si8 0.875871 0.069213 0.810341
O O1 0.490275 0.748170 0.457261
O O2 0.543093 0.663570 0.262381
O O3 0.457911 0.664052 0.131668
O O4 0.898272 0.390345 0.320475
O O5 0.884587 0.500083 0.205196
O O6 0.822790 0.428427 0.035168
O O7 0.902277 0.418876 0.822875
O O8 0.762947 0.417130 0.651358
O O9 0.760103 0.515901 0.914283
O O10 0.032674 0.453843 0.856558
O O11 0.101521 0.418448 0.585647
O O12 0.100679 0.390536 0.085995
O O13 0.968063 0.453239 0.530745
O O14 0.257291 0.883963 0.651122
O O15 0.179158 0.924619 0.838080
#
# Coordination Sequence:
#
# PCOD9365875 Si02
#       8
#     8   8   8   8   8   8   4   8
#     4  11  24  47  64  77 108 147 202 254 286 333
#     4  12  20  33  51  81 125 153 181 224 265 346
#     4  10  19  29  46  71 112 172 186 201 256 326
#     4  11  24  35  56  85 109 153 184 232 293 335
#     4  11  24  35  56  85 109 153 184 232 293 335
#     4  10  19  29  46  71 112 172 186 201 256 326
#     4  10  20  34  48  78 116 136 172 208 284 368
#     4  12  20  33  51  81 125 153 181 224 265 346
#
# _framework density 18.411847000000002
#
# number of rings (size 3 to 8) (size 9 to 14) (size 15 to 20)
#    0.000    1.067    5.333    3.200    3.733    4.267 
#    0.000    0.000    0.000    0.000    0.000    0.000 
#    0.000   74.667    0.000    0.000    0.000    0.000 
#
# Total GULP energy -167367.885854 kJ/mol
# GULP energy per Si atom -5578.929528 kJ/mol
# Density = 1.836994 g / cm^3
# Si number density = 18.411847 Si / 1000 Ang^3
#
#
#
# Elastic Constant Matrix: (Units=GPa)
#
#
# Indices 1 2 3 4 5 6 
#
# 1 96.9123 25.6296 28.8784 0.0000 0.0000 0.0000
# 2 25.6296 53.7114 10.0790 0.0000 0.0000 0.0000
# 3 28.8784 10.0790 119.9833 0.0000 0.0000 0.0000
# 4 0.0000 0.0000 0.0000 18.7412 0.0000 0.0000
# 5 0.0000 0.0000 0.0000 0.0000 28.5937 0.0000
# 6 0.0000 0.0000 0.0000 0.0000 0.0000 4.7703
#
#
#
# Elastic Compliance Matrix: (Units=1/GPa)
#
#
# Indices 1 2 3 4 5 6 
#
# 1 0.012535 -0.005502 -0.002555 0.000000 0.000000 0.000000
# 2 -0.005502 0.021331 -0.000468 0.000000 0.000000 0.000000
# 3 -0.002555 -0.000468 0.008989 0.000000 0.000000 0.000000
# 4 0.000000 0.000000 0.000000 0.053358 0.000000 0.000000
# 5 0.000000 0.000000 0.000000 0.000000 0.034973 0.000000
# 6 0.000000 0.000000 0.000000 0.000000 0.000000 0.209630
#
#
# Mechanical properties :
#
#
# Convention : Reuss Voigt Hill
#
# Bulk Modulus (GPa) = 38.75068 44.42013 41.58541
# Shear Modulus (GPa) = 13.64379 24.15571 18.89975
#
# Velocity S-wave (km/s) = 2.72515 3.62604 3.20738
# Velocity P-wave (km/s) = 5.56724 6.45826 6.02923
#
# Compressibility (1/GPa) = 0.02580600
#
# Stress axis : x y z
#
# Youngs Moduli (GPa) = 79.77694 46.87985 111.25094
#
# Poissons Ratio (x) = 0.25793 0.28423
# Poissons Ratio (y) = 0.43893 0.05203
# Poissons Ratio (z) = 0.20382 0.02192
#
# Static dielectric constant tensor:
#      x y z
#    x 1.661000 0.000000 0.000000 
#    y 0.000000 1.651490 0.000000 
#    z 0.000000 0.000000 1.716240 
# 
# From -- ./inp_files/1195.got.cif
#   From: 2010.05.17/outbox.cif.g08.bks.cpg/sg41_1_cif.got.tgz:1195.got - 2010.06.03 18:54:24.
