data_PCOD9365756
_publ_section_title
;
Structure prediction by ZEFSAII (Michael W. Deem and Ramdas Pophale) SiO2 
 PCOD9365756
Probable space group: A B A 2
;
_chemical_formula_sum "Si O2"
_cell_formula_units_Z 52
_cell_length_a 19.614847
_cell_length_b 5.196807
_cell_length_c 27.184587
_cell_angle_alpha 90.000000
_cell_angle_beta 90.000000
_cell_angle_gamma 90.000000
_cell_volume 2771.049300
_symmetry_space_group_name_H-M "A B A 2"
_symmetry_group_IT_number 41
_symmetry_cell_setting 'orthorhombic'
loop_
_space_group_symop_operation_xyz
x,y,z
-x,-y,z
1/2-x,y,1/2+z
1/2+x,-y,1/2+z
x,1/2+y,1/2+z
-x,1/2-y,1/2+z
1/2-x,1/2+y,z
1/2+x,1/2-y,z
loop_
_atom_site_type_symbol
_atom_site_label
_atom_site_fract_x
_atom_site_fract_y
_atom_site_fract_z
Si Si1 0.789139 0.377557 0.110550
Si Si2 0.000000 0.000000 0.335743
Si Si3 0.000000 0.000000 0.070911
Si Si4 0.439445 0.695184 0.480474
Si Si5 0.211854 0.095101 0.492074
Si Si6 0.925633 0.632978 0.143653
Si Si7 0.500000 0.000000 0.399954
Si Si8 0.043109 0.736624 0.743753
O O1 0.737778 0.602384 0.128070
O O2 0.865835 0.451947 0.124514
O O3 0.784851 0.386826 0.051360
O O4 0.057121 0.110583 0.297205
O O5 0.981323 0.250213 0.367482
O O6 0.056028 0.143386 0.104672
O O7 0.959045 0.186185 0.033515
O O8 0.500000 0.500000 0.469001
O O9 0.367095 0.560470 0.480366
O O10 0.441484 0.910632 0.438063
O O11 0.241713 0.363754 0.473860
O O12 0.905452 0.707333 0.199618
O O13 0.000000 0.500000 0.148107
O O14 0.000000 0.500000 0.720430
O O15 0.000000 0.000000 0.752826
#
# Coordination Sequence:
#
# PCOD9365756 Si02
#       8
#     8   4   4   8   8   8   4   8
#     4  10  23  37  53  78 116 163 200 232 277 333
#     4  10  17  38  53  90 113 142 171 256 292 362
#     4  11  21  32  54  82 122 152 189 243 286 322
#     4  11  24  37  55  88 117 153 194 241 290 347
#     4  10  23  38  56  76 113 162 203 234 273 334
#     4  11  22  35  56  86 117 156 194 242 279 342
#     4  11  22  34  63  80 123 136 190 231 324 332
#     4   9  18  32  55  83 115 136 188 226 298 335
#
# _framework density 18.765454999999999
#
# number of rings (size 3 to 8) (size 9 to 14) (size 15 to 20)
#    0.462    1.231    2.308    2.308   12.923    0.000 
#    0.000    0.000    0.000    0.000    0.000    6.462 
#    0.000    0.000    0.000    0.000    0.000    0.000 
#
# Total GULP energy -144757.459726 kJ/mol
# GULP energy per Si atom -5567.594605 kJ/mol
# Density = 1.872274 g / cm^3
# Si number density = 18.765455 Si / 1000 Ang^3
#
#
#
# Elastic Constant Matrix: (Units=GPa)
#
#
# Indices 1 2 3 4 5 6 
#
# 1 50.7540 -6.7954 -1.6306 0.0000 0.0000 0.0000
# 2 -6.7954 75.7608 31.4942 0.0000 0.0000 0.0000
# 3 -1.6306 31.4942 93.7799 0.0000 0.0000 0.0000
# 4 0.0000 0.0000 0.0000 21.6900 0.0000 0.0000
# 5 0.0000 0.0000 0.0000 0.0000 -6.2381 0.0000
# 6 0.0000 0.0000 0.0000 0.0000 0.0000 25.2064
#
#
#
# Elastic Compliance Matrix: (Units=1/GPa)
#
#
# Indices 1 2 3 4 5 6 
#
# 1 0.019949 0.001912 -0.000295 0.000000 0.000000 0.000000
# 2 0.001912 0.015524 -0.005180 0.000000 0.000000 0.000000
# 3 -0.000295 -0.005180 0.012398 0.000000 0.000000 0.000000
# 4 0.000000 0.000000 0.000000 0.046104 0.000000 0.000000
# 5 0.000000 0.000000 0.000000 0.000000 -0.160306 0.000000
# 6 0.000000 0.000000 0.000000 0.000000 0.000000 0.039672
#
#
# Mechanical properties :
#
#
# Convention : Reuss Voigt Hill
#
# Bulk Modulus (GPa) = 24.54309 29.60348 27.07328
# Shear Modulus (GPa) = -840.39830 21.28012 -409.55909
#
# Velocity S-wave (km/s) = -21.18527 3.37115 -14.78937
# Velocity P-wave (km/s) = 24.19325 5.56441 16.64859
#
# Compressibility (1/GPa) = 0.04074467
#
# Stress axis : x y z
#
# Youngs Moduli (GPa) = 50.12681 64.41456 80.65910
#
# Poissons Ratio (x) = -0.12317 0.02382
# Poissons Ratio (y) = -0.09585 0.41784
# Poissons Ratio (z) = 0.01480 0.33369
#
# Static dielectric constant tensor:
#      x y z
#    x 1.630660 0.000000 0.000000 
#    y 0.000000 1.589620 0.000000 
#    z 0.000000 0.000000 1.705450 
# 
# From -- ./inp_files/12593.got.cif
#   From: 2010.05.17/outbox.cif.g08.bks.cpg/sg41_7_cif.got.tgz:12593.got - 2010.06.03 18:54:24.
