data_PCOD9366613
_publ_section_title
;
Structure prediction by ZEFSAII (Michael W. Deem and Ramdas Pophale) SiO2 
 PCOD9366613
Probable space group: A B A 2
;
_chemical_formula_sum "Si O2"
_cell_formula_units_Z 44
_cell_length_a 23.153880
_cell_length_b 14.234140
_cell_length_c 4.944660
_cell_angle_alpha 90.000000
_cell_angle_beta 90.000000
_cell_angle_gamma 90.000000
_cell_volume 1629.639135
_symmetry_space_group_name_H-M "A B A 2"
_symmetry_group_IT_number 41
_symmetry_cell_setting 'orthorhombic'
loop_
_space_group_symop_operation_xyz
x,y,z
-x,-y,z
1/2-x,y,1/2+z
1/2+x,-y,1/2+z
x,1/2+y,1/2+z
-x,1/2-y,1/2+z
1/2-x,1/2+y,z
1/2+x,1/2-y,z
loop_
_atom_site_type_symbol
_atom_site_label
_atom_site_fract_x
_atom_site_fract_y
_atom_site_fract_z
Si Si1 0.832708 0.514002 0.830120
Si Si2 0.403734 0.744039 0.430377
Si Si3 0.219017 0.812444 0.105905
Si Si4 0.059873 0.341570 0.905532
Si Si5 0.378025 0.070189 0.324199
Si Si6 0.500000 0.000000 0.199410
O O1 0.784940 0.577165 0.683471
O O2 0.852299 0.431132 0.625048
O O3 0.885433 0.588707 0.870624
O O4 0.829064 0.477443 0.134286
O O5 0.340656 0.791195 0.458584
O O6 0.423121 0.760650 0.122539
O O7 0.394178 0.655613 0.627426
O O8 0.450372 0.802174 0.608003
O O9 0.231794 0.774401 0.404975
O O10 0.009951 0.408197 0.014983
O O11 0.439299 0.014416 0.352225
#
# Coordination Sequence:
#
# PCOD9366613 Si02
#       6
#     8   8   8   8   8   4
#     4  10  21  40  60  86 117 156 194 249 305 353
#     4  11  23  40  59  89 125 159 191 259 321 349
#     4  11  21  38  63  85 111 154 204 243 299 380
#     4  10  21  38  61  86 123 158 203 245 297 358
#     4  11  23  39  62  88 128 159 199 251 306 361
#     4  10  22  38  62  90 116 168 214 242 284 372
#
# _framework density 26.999842000000001
#
# number of rings (size 3 to 8) (size 9 to 14) (size 15 to 20)
#    0.000    1.455    0.000    8.727    0.000    8.000 
#    0.000    5.455    0.000    0.000    0.000    0.000 
#    0.000    0.000    0.000    0.000    0.000    0.000 
#
# Total GULP energy -122742.837971 kJ/mol
# GULP energy per Si atom -5579.219908 kJ/mol
# Density = 2.693839 g / cm^3
# Si number density = 26.999842 Si / 1000 Ang^3
#
#
#
# Elastic Constant Matrix: (Units=GPa)
#
#
# Indices 1 2 3 4 5 6 
#
# 1 79.4169 -14.2551 26.1884 0.0000 0.0000 0.0000
# 2 -14.2551 39.7813 10.8465 0.0000 0.0000 0.0000
# 3 26.1884 10.8465 203.8032 0.0000 0.0000 0.0000
# 4 0.0000 0.0000 0.0000 33.8980 0.0000 0.0000
# 5 0.0000 0.0000 0.0000 0.0000 29.3956 0.0000
# 6 0.0000 0.0000 0.0000 0.0000 0.0000 27.5784
#
#
#
# Elastic Compliance Matrix: (Units=1/GPa)
#
#
# Indices 1 2 3 4 5 6 
#
# 1 0.014326 0.005718 -0.002145 0.000000 0.000000 0.000000
# 2 0.005718 0.027790 -0.002214 0.000000 0.000000 0.000000
# 3 -0.002145 -0.002214 0.005300 0.000000 0.000000 0.000000
# 4 0.000000 0.000000 0.000000 0.029500 0.000000 0.000000
# 5 0.000000 0.000000 0.000000 0.000000 0.034019 0.000000
# 6 0.000000 0.000000 0.000000 0.000000 0.000000 0.036260
#
#
# Mechanical properties :
#
#
# Convention : Reuss Voigt Hill
#
# Bulk Modulus (GPa) = 19.94636 40.95121 30.44879
# Shear Modulus (GPa) = 31.01971 38.18918 34.60445
#
# Velocity S-wave (km/s) = 3.39320 3.76496 3.58390
# Velocity P-wave (km/s) = 4.77026 5.83952 5.33176
#
# Compressibility (1/GPa) = 0.05013447
#
# Stress axis : x y z
#
# Youngs Moduli (GPa) = 69.80532 35.98404 188.67356
#
# Poissons Ratio (x) = -0.20577 0.40473
# Poissons Ratio (y) = -0.39916 0.41768
# Poissons Ratio (z) = 0.14974 0.07966
#
# Static dielectric constant tensor:
#      x y z
#    x 2.172930 0.000000 0.000000 
#    y 0.000000 2.267290 0.000000 
#    z 0.000000 0.000000 2.016180 
# 
# From -- ./inp_files/1107.got.cif
#   From: 2010.05.17/outbox.cif.g08.bks.cpg/sg41_1_cif.got.tgz:1107.got - 2010.06.03 18:54:24.
