data_PCOD9366435
_publ_section_title
;
Structure prediction by ZEFSAII (Michael W. Deem and Ramdas Pophale) SiO2 
 PCOD9366435
Probable space group: A B A 2
;
_chemical_formula_sum "Si O2"
_cell_formula_units_Z 60
_cell_length_a 12.703228
_cell_length_b 13.984601
_cell_length_c 14.273090
_cell_angle_alpha 90.000000
_cell_angle_beta 90.000000
_cell_angle_gamma 90.000000
_cell_volume 2535.608372
_symmetry_space_group_name_H-M "A B A 2"
_symmetry_group_IT_number 41
_symmetry_cell_setting 'orthorhombic'
loop_
_space_group_symop_operation_xyz
x,y,z
-x,-y,z
1/2-x,y,1/2+z
1/2+x,-y,1/2+z
x,1/2+y,1/2+z
-x,1/2-y,1/2+z
1/2-x,1/2+y,z
1/2+x,1/2-y,z
loop_
_atom_site_type_symbol
_atom_site_label
_atom_site_fract_x
_atom_site_fract_y
_atom_site_fract_z
Si Si1 0.713267 0.959366 0.701560
Si Si2 0.401038 0.360942 0.275191
Si Si3 0.403602 0.605086 0.581770
Si Si4 0.634090 0.175450 0.106878
Si Si5 0.500000 0.000000 0.921942
Si Si6 0.282312 0.236913 0.799374
Si Si7 0.840011 0.188646 0.002072
Si Si8 0.962807 0.867971 0.088162
O O1 0.826703 0.943683 0.655957
O O2 0.700837 0.874536 0.777669
O O3 0.624846 0.942988 0.620637
O O4 0.686351 0.059827 0.747165
O O5 0.461519 0.411838 0.359243
O O6 0.341324 0.264030 0.298457
O O7 0.476387 0.348515 0.186493
O O8 0.526492 0.615703 0.609883
O O9 0.408812 0.543103 0.487267
O O10 0.361300 0.712105 0.559614
O O11 0.667232 0.209577 0.209980
O O12 0.600104 0.274334 0.056188
O O13 0.736122 0.142085 0.048774
O O14 0.325561 0.278123 0.895947
O O15 0.942107 0.121788 0.015600
#
# Coordination Sequence:
#
# PCOD9366435 Si02
#       8
#     8   8   8   8   4   8   8   8
#     4  11  23  46  68  97 139 184 227 291 352 416
#     4  12  23  42  70  98 136 181 235 283 343 421
#     4  11  24  42  63  99 142 173 231 292 348 412
#     4  10  21  42  65  98 134 177 222 280 354 399
#     4  12  26  38  64 108 134 188 242 286 348 428
#     4  11  23  41  70 101 134 177 228 278 351 415
#     4  11  21  41  69 100 133 179 231 285 343 430
#     4  10  20  41  65  92 129 176 225 278 342 403
#
# _framework density 23.662960000000002
#
# number of rings (size 3 to 8) (size 9 to 14) (size 15 to 20)
#    0.000    1.067    5.333    2.400    3.733    1.067 
#    4.800    0.000    0.000    0.000    0.000    0.000 
#    0.000    0.000    0.000    0.000    0.000    0.000 
#
# Total GULP energy -167838.702373 kJ/mol
# GULP energy per Si atom -5594.623412 kJ/mol
# Density = 2.360910 g / cm^3
# Si number density = 23.662960 Si / 1000 Ang^3
#
#
#
# Elastic Constant Matrix: (Units=GPa)
#
#
# Indices 1 2 3 4 5 6 
#
# 1 124.8923 25.6229 30.9170 0.0000 0.0000 0.0000
# 2 25.6229 71.0857 1.4004 0.0000 0.0000 0.0000
# 3 30.9170 1.4004 93.8060 0.0000 0.0000 0.0000
# 4 0.0000 0.0000 0.0000 30.9842 0.0000 0.0000
# 5 0.0000 0.0000 0.0000 0.0000 30.4167 0.0000
# 6 0.0000 0.0000 0.0000 0.0000 0.0000 41.2944
#
#
#
# Elastic Compliance Matrix: (Units=1/GPa)
#
#
# Indices 1 2 3 4 5 6 
#
# 1 0.009452 -0.003347 -0.003065 0.000000 0.000000 0.000000
# 2 -0.003347 0.015257 0.000875 0.000000 0.000000 0.000000
# 3 -0.003065 0.000875 0.011658 0.000000 0.000000 0.000000
# 4 0.000000 0.000000 0.000000 0.032275 0.000000 0.000000
# 5 0.000000 0.000000 0.000000 0.000000 0.032877 0.000000
# 6 0.000000 0.000000 0.000000 0.000000 0.000000 0.024216
#
#
# Mechanical properties :
#
#
# Convention : Reuss Voigt Hill
#
# Bulk Modulus (GPa) = 39.53689 45.07383 42.30536
# Shear Modulus (GPa) = 34.42609 35.99531 35.21070
#
# Velocity S-wave (km/s) = 3.81839 3.90445 3.86166
# Velocity P-wave (km/s) = 6.01538 6.27821 6.14820
#
# Compressibility (1/GPa) = 0.02529283
#
# Stress axis : x y z
#
# Youngs Moduli (GPa) = 105.79384 65.54532 85.78146
#
# Poissons Ratio (x) = 0.21936 0.26295
# Poissons Ratio (y) = 0.35406 -0.07508
# Poissons Ratio (z) = 0.32430 -0.05737
#
# Static dielectric constant tensor:
#      x y z
#    x 1.948060 0.000000 0.000000 
#    y 0.000000 1.990530 0.000000 
#    z 0.000000 0.000000 1.875370 
# 
# From -- ./inp_files/8075.got.cif
#   From: 2010.05.17/outbox.cif.g08.bks.cpg/sg41_5_cif.got.tgz:8075.got - 2010.06.03 18:54:24.
