data_PCOD9366190
_publ_section_title
;
Structure prediction by ZEFSAII (Michael W. Deem and Ramdas Pophale) SiO2 
 PCOD9366190
Probable space group: A B A 2
;
_chemical_formula_sum "Si O2"
_cell_formula_units_Z 60
_cell_length_a 13.206189
_cell_length_b 8.656660
_cell_length_c 25.595771
_cell_angle_alpha 90.000000
_cell_angle_beta 90.000000
_cell_angle_gamma 90.000000
_cell_volume 2926.146629
_symmetry_space_group_name_H-M "A B A 2"
_symmetry_group_IT_number 41
_symmetry_cell_setting 'orthorhombic'
loop_
_space_group_symop_operation_xyz
x,y,z
-x,-y,z
1/2-x,y,1/2+z
1/2+x,-y,1/2+z
x,1/2+y,1/2+z
-x,1/2-y,1/2+z
1/2-x,1/2+y,z
1/2+x,1/2-y,z
loop_
_atom_site_type_symbol
_atom_site_label
_atom_site_fract_x
_atom_site_fract_y
_atom_site_fract_z
Si Si1 0.309047 0.480884 0.800080
Si Si2 0.663709 0.316265 0.363225
Si Si3 0.500000 0.000000 0.803122
Si Si4 0.035692 0.830750 0.556047
Si Si5 0.366983 0.223827 0.984986
Si Si6 0.250045 0.456515 0.047337
Si Si7 0.911258 0.109164 0.132369
Si Si8 0.134751 0.776055 0.242562
O O1 0.266817 0.607584 0.841701
O O2 0.358857 0.346956 0.834945
O O3 0.362245 0.597270 0.759622
O O4 0.226377 0.380923 0.766762
O O5 0.585973 0.439742 0.340987
O O6 0.657495 0.302828 0.424999
O O7 0.537406 0.140648 0.767461
O O8 0.156589 0.837074 0.557102
O O9 0.985397 0.799687 0.499178
O O10 0.976694 0.712386 0.592554
O O11 0.000000 0.000000 0.573226
O O12 0.325329 0.388509 0.003618
O O13 0.307245 0.102845 0.022496
O O14 0.320428 0.469303 0.098876
O O15 0.865632 0.203755 0.180415
O O16 0.000000 0.000000 0.154369
#
# Coordination Sequence:
#
# PCOD9366190 Si02
#       8
#     8   8   4   8   8   8   8   8
#     4   9  21  39  60  88 122 157 222 262 323 391
#     4  10  20  38  61  87 121 165 205 266 321 388
#     4  10  22  38  60  88 120 156 208 264 316 378
#     4   9  21  38  54  91 123 155 211 257 310 399
#     4  10  20  36  61  86 123 166 203 257 322 380
#     4  10  21  37  59  90 124 160 208 260 311 394
#     4  11  22  39  64  88 124 167 209 264 332 386
#     4  10  21  41  60  88 120 164 206 274 319 383
#
# _framework density 20.504784000000001
#
# number of rings (size 3 to 8) (size 9 to 14) (size 15 to 20)
#    0.000    2.133    0.667    1.600    2.800    4.800 
#    4.800    0.000    8.800    0.000    0.000    0.000 
#    0.000    0.000    0.000    0.000    0.000    0.000 
#
# Total GULP energy -167128.725010 kJ/mol
# GULP energy per Si atom -5570.957500 kJ/mol
# Density = 2.045811 g / cm^3
# Si number density = 20.504784 Si / 1000 Ang^3
#
#
#
# Elastic Constant Matrix: (Units=GPa)
#
#
# Indices 1 2 3 4 5 6 
#
# 1 67.7577 4.9717 20.9053 0.0000 0.0000 0.0000
# 2 4.9717 68.7939 8.5107 0.0000 0.0000 0.0000
# 3 20.9053 8.5107 120.6083 0.0000 0.0000 0.0000
# 4 0.0000 0.0000 0.0000 19.7092 0.0000 0.0000
# 5 0.0000 0.0000 0.0000 0.0000 11.9009 0.0000
# 6 0.0000 0.0000 0.0000 0.0000 0.0000 20.4997
#
#
#
# Elastic Compliance Matrix: (Units=1/GPa)
#
#
# Indices 1 2 3 4 5 6 
#
# 1 0.015636 -0.000802 -0.002654 0.000000 0.000000 0.000000
# 2 -0.000802 0.014705 -0.000899 0.000000 0.000000 0.000000
# 3 -0.002654 -0.000899 0.008815 0.000000 0.000000 0.000000
# 4 0.000000 0.000000 0.000000 0.050738 0.000000 0.000000
# 5 0.000000 0.000000 0.000000 0.000000 0.084027 0.000000
# 6 0.000000 0.000000 0.000000 0.000000 0.000000 0.048781
#
#
# Mechanical properties :
#
#
# Convention : Reuss Voigt Hill
#
# Bulk Modulus (GPa) = 32.84306 36.21505 34.52906
# Shear Modulus (GPa) = 20.69882 25.27343 22.98613
#
# Velocity S-wave (km/s) = 3.18065 3.51460 3.35179
# Velocity P-wave (km/s) = 5.43514 5.84551 5.64406
#
# Compressibility (1/GPa) = 0.03044783
#
# Stress axis : x y z
#
# Youngs Moduli (GPa) = 63.95485 68.00266 113.44706
#
# Poissons Ratio (x) = 0.05452 0.30105
# Poissons Ratio (y) = 0.05127 0.10196
# Poissons Ratio (z) = 0.16971 0.06112
#
# Static dielectric constant tensor:
#      x y z
#    x 1.803710 0.000000 0.000000 
#    y 0.000000 1.796650 0.000000 
#    z 0.000000 0.000000 1.702890 
# 
# From -- ./inp_files/12211.got.cif
#   From: 2010.05.17/outbox.cif.g08.bks.cpg/sg41_7_cif.got.tgz:12211.got - 2010.06.03 18:54:24.
