data_PCOD9366715
_publ_section_title
;
Structure prediction by ZEFSAII (Michael W. Deem and Ramdas Pophale) SiO2 
 PCOD9366715
Probable space group: A B A 2
;
_chemical_formula_sum "Si O2"
_cell_formula_units_Z 40
_cell_length_a 13.348390
_cell_length_b 8.842263
_cell_length_c 13.937053
_cell_angle_alpha 90.000000
_cell_angle_beta 90.000000
_cell_angle_gamma 90.000000
_cell_volume 1644.990017
_symmetry_space_group_name_H-M "A B A 2"
_symmetry_group_IT_number 41
_symmetry_cell_setting 'orthorhombic'
loop_
_space_group_symop_operation_xyz
x,y,z
-x,-y,z
1/2-x,y,1/2+z
1/2+x,-y,1/2+z
x,1/2+y,1/2+z
-x,1/2-y,1/2+z
1/2-x,1/2+y,z
1/2+x,1/2-y,z
loop_
_atom_site_type_symbol
_atom_site_label
_atom_site_fract_x
_atom_site_fract_y
_atom_site_fract_z
Si Si1 0.354386 0.091817 0.024640
Si Si2 0.292928 0.940844 0.748217
Si Si3 0.166486 0.779125 0.575860
Si Si4 0.476553 0.742849 0.688380
Si Si5 0.636924 0.244899 0.333989
O O1 0.241416 0.154090 0.036998
O O2 0.412347 0.129496 0.123284
O O3 0.363836 0.914571 0.005196
O O4 0.393797 0.189701 0.936020
O O5 0.227845 0.880209 0.656339
O O6 0.400306 0.864885 0.730395
O O7 0.224536 0.877865 0.834504
O O8 0.313808 0.114900 0.773267
O O9 0.065531 0.705635 0.616881
O O10 0.541033 0.682406 0.777383
#
# Coordination Sequence:
#
# PCOD9366715 Si02
#       5
#     8   8   8   8   8
#     4  11  23  39  63  92 124 164 207 255 309 367
#     4  10  21  40  61  88 125 163 205 254 309 366
#     4  10  21  40  61  88 125 163 205 254 309 366
#     4  10  22  38  62  90 122 160 204 252 306 362
#     4  11  23  39  63  92 124 164 207 255 309 367
#
# _framework density 24.316258000000001
#
# number of rings (size 3 to 8) (size 9 to 14) (size 15 to 20)
#    0.000    1.600    0.000    6.000    0.000    8.000 
#    0.000    0.000    0.000   14.400    0.000    0.000 
#    0.000    0.000    0.000    0.000    0.000    0.000 
#
# Total GULP energy -111735.260540 kJ/mol
# GULP energy per Si atom -5586.763027 kJ/mol
# Density = 2.426091 g / cm^3
# Si number density = 24.316258 Si / 1000 Ang^3
#
#
#
# Elastic Constant Matrix: (Units=GPa)
#
#
# Indices 1 2 3 4 5 6 
#
# 1 141.7181 32.8282 22.2652 0.0000 0.0000 0.0000
# 2 32.8282 94.7997 11.2403 0.0000 0.0000 0.0000
# 3 22.2652 11.2403 68.2102 0.0000 0.0000 0.0000
# 4 0.0000 0.0000 0.0000 28.2903 0.0000 0.0000
# 5 0.0000 0.0000 0.0000 0.0000 37.4132 0.0000
# 6 0.0000 0.0000 0.0000 0.0000 0.0000 28.2002
#
#
#
# Elastic Compliance Matrix: (Units=1/GPa)
#
#
# Indices 1 2 3 4 5 6 
#
# 1 0.007981 -0.002504 -0.002192 0.000000 0.000000 0.000000
# 2 -0.002504 0.011544 -0.001085 0.000000 0.000000 0.000000
# 3 -0.002192 -0.001085 0.015555 0.000000 0.000000 0.000000
# 4 0.000000 0.000000 0.000000 0.035348 0.000000 0.000000
# 5 0.000000 0.000000 0.000000 0.000000 0.026729 0.000000
# 6 0.000000 0.000000 0.000000 0.000000 0.000000 0.035461
#
#
# Mechanical properties :
#
#
# Convention : Reuss Voigt Hill
#
# Bulk Modulus (GPa) = 42.52167 48.59949 45.56058
# Shear Modulus (GPa) = 32.89068 34.67368 33.78218
#
# Velocity S-wave (km/s) = 3.68179 3.78027 3.73135
# Velocity P-wave (km/s) = 5.96649 6.25170 6.11076
#
# Compressibility (1/GPa) = 0.02351742
#
# Stress axis : x y z
#
# Youngs Moduli (GPa) = 125.30258 86.62345 64.28778
#
# Poissons Ratio (x) = 0.21688 0.14095
# Poissons Ratio (y) = 0.31372 0.06976
# Poissons Ratio (z) = 0.27472 0.09400
#
# Static dielectric constant tensor:
#      x y z
#    x 1.917570 0.000000 0.000000 
#    y 0.000000 1.970670 0.000000 
#    z 0.000000 0.000000 2.076320 
# 
# From -- ./inp_files/7739.got.cif
#   From: 2010.05.17/outbox.cif.g08.bks.cpg/sg41_4_cif.got.tgz:7739.got - 2010.06.03 18:54:24.
