data_PCOD9366901
_publ_section_title
;
Structure prediction by ZEFSAII (Michael W. Deem and Ramdas Pophale) SiO2 
 PCOD9366901
Probable space group: A B A 2
;
_chemical_formula_sum "Si O2"
_cell_formula_units_Z 64
_cell_length_a 14.870005
_cell_length_b 8.805497
_cell_length_c 19.670493
_cell_angle_alpha 90.000000
_cell_angle_beta 90.000000
_cell_angle_gamma 90.000000
_cell_volume 2575.610772
_symmetry_space_group_name_H-M "A B A 2"
_symmetry_group_IT_number 41
_symmetry_cell_setting 'orthorhombic'
loop_
_space_group_symop_operation_xyz
x,y,z
-x,-y,z
1/2-x,y,1/2+z
1/2+x,-y,1/2+z
x,1/2+y,1/2+z
-x,1/2-y,1/2+z
1/2-x,1/2+y,z
1/2+x,1/2-y,z
loop_
_atom_site_type_symbol
_atom_site_label
_atom_site_fract_x
_atom_site_fract_y
_atom_site_fract_z
Si Si1 0.768920 0.035463 0.536080
Si Si2 0.271850 0.218634 0.126992
Si Si3 0.025205 0.174998 0.244073
Si Si4 0.938399 0.877081 0.464171
Si Si5 0.482892 0.176264 0.112686
Si Si6 0.408043 0.457619 0.948473
Si Si7 0.793943 0.681639 0.273804
Si Si8 0.135122 0.142400 0.815663
O O1 0.778404 0.206204 0.562324
O O2 0.679723 0.025703 0.492840
O O3 0.850324 0.960638 0.494629
O O4 0.756546 0.956586 0.609642
O O5 0.379939 0.232575 0.120717
O O6 0.243291 0.275547 0.199717
O O7 0.038129 0.221339 0.164652
O O8 0.945521 0.281305 0.273594
O O9 0.117093 0.217320 0.281330
O O10 0.000000 0.000000 0.249799
O O11 0.995705 0.828387 0.531632
O O12 0.913717 0.720206 0.428807
O O13 0.000000 0.000000 0.425707
O O14 0.500000 0.000000 0.134044
O O15 0.500000 0.500000 0.986122
O O16 0.401234 0.571782 0.885328
O O17 0.714373 0.733804 0.324266
O O18 0.821422 0.505840 0.279461
#
# Coordination Sequence:
#
# PCOD9366901 Si02
#       8
#     8   8   8   8   8   8   8   8
#     4  11  24  46  71 111 155 191 253 311 375 452
#     4  11  24  42  74 114 148 195 244 306 383 460
#     4  12  27  46  73 112 149 196 253 314 382 459
#     4  10  25  46  74 112 151 208 251 311 389 450
#     4  10  21  43  71 107 158 195 240 309 383 456
#     4  12  28  49  76 105 150 202 261 317 369 455
#     4  12  26  45  80 103 152 198 245 315 382 452
#     4  12  28  53  74 110 146 199 258 312 377 446
#
# _framework density 24.848474
#
# number of rings (size 3 to 8) (size 9 to 14) (size 15 to 20)
#    0.000    0.750    3.750    3.375   12.250    0.500 
#    0.000    2.500    0.000    0.000    0.000    0.000 
#    0.000    0.000    0.000    0.000    0.000    0.000 
#
# Total GULP energy -179136.709393 kJ/mol
# GULP energy per Si atom -5598.022169 kJ/mol
# Density = 2.479192 g / cm^3
# Si number density = 24.848474 Si / 1000 Ang^3
#
#
#
# Elastic Constant Matrix: (Units=GPa)
#
#
# Indices 1 2 3 4 5 6 
#
# 1 106.2166 20.8561 1.5707 0.0000 0.0000 0.0000
# 2 20.8561 103.0746 2.2589 0.0000 0.0000 0.0000
# 3 1.5707 2.2589 47.9150 0.0000 0.0000 0.0000
# 4 0.0000 0.0000 0.0000 32.3781 0.0000 0.0000
# 5 0.0000 0.0000 0.0000 0.0000 22.6361 0.0000
# 6 0.0000 0.0000 0.0000 0.0000 0.0000 50.9237
#
#
#
# Elastic Compliance Matrix: (Units=1/GPa)
#
#
# Indices 1 2 3 4 5 6 
#
# 1 0.009807 -0.001979 -0.000228 0.000000 0.000000 0.000000
# 2 -0.001979 0.010111 -0.000412 0.000000 0.000000 0.000000
# 3 -0.000228 -0.000412 0.020897 0.000000 0.000000 0.000000
# 4 0.000000 0.000000 0.000000 0.030885 0.000000 0.000000
# 5 0.000000 0.000000 0.000000 0.000000 0.044177 0.000000
# 6 0.000000 0.000000 0.000000 0.000000 0.000000 0.019637
#
#
# Mechanical properties :
#
#
# Convention : Reuss Voigt Hill
#
# Bulk Modulus (GPa) = 28.10831 34.06417 31.08624
# Shear Modulus (GPa) = 32.76282 36.68895 34.72589
#
# Velocity S-wave (km/s) = 3.63506 3.84670 3.74238
# Velocity P-wave (km/s) = 5.38095 5.78516 5.58671
#
# Compressibility (1/GPa) = 0.03557666
#
# Stress axis : x y z
#
# Youngs Moduli (GPa) = 101.97069 98.90000 47.85330
#
# Poissons Ratio (x) = 0.19575 0.01092
# Poissons Ratio (y) = 0.20183 0.01971
# Poissons Ratio (z) = 0.02327 0.04073
#
# Static dielectric constant tensor:
#      x y z
#    x 1.974800 0.000000 0.000000 
#    y 0.000000 1.966270 0.000000 
#    z 0.000000 0.000000 1.997100 
# 
# From -- ./inp_files/12257.got.cif
#   From: 2010.05.17/outbox.cif.g08.bks.cpg/sg41_7_cif.got.tgz:12257.got - 2010.06.03 18:54:24.
