data_PCOD9366595
_publ_section_title
;
Structure prediction by ZEFSAII (Michael W. Deem and Ramdas Pophale) SiO2 
 PCOD9366595
Probable space group: A B A 2
;
_chemical_formula_sum "Si O2"
_cell_formula_units_Z 64
_cell_length_a 34.246261
_cell_length_b 5.216024
_cell_length_c 15.987688
_cell_angle_alpha 90.000000
_cell_angle_beta 90.000000
_cell_angle_gamma 90.000000
_cell_volume 2855.869824
_symmetry_space_group_name_H-M "A B A 2"
_symmetry_group_IT_number 41
_symmetry_cell_setting 'orthorhombic'
loop_
_space_group_symop_operation_xyz
x,y,z
-x,-y,z
1/2-x,y,1/2+z
1/2+x,-y,1/2+z
x,1/2+y,1/2+z
-x,1/2-y,1/2+z
1/2-x,1/2+y,z
1/2+x,1/2-y,z
loop_
_atom_site_type_symbol
_atom_site_label
_atom_site_fract_x
_atom_site_fract_y
_atom_site_fract_z
Si Si1 0.149531 0.716278 0.244880
Si Si2 0.475362 0.240971 0.552318
Si Si3 0.271453 0.158527 0.150508
Si Si4 0.654273 0.662289 0.491605
Si Si5 0.596238 0.453569 0.610929
Si Si6 0.640478 0.777573 0.850953
Si Si7 0.415417 0.449951 0.959212
Si Si8 0.238930 0.653347 0.464272
O O1 0.185799 0.727391 0.181350
O O2 0.108613 0.661191 0.198533
O O3 0.145577 0.989548 0.288011
O O4 0.156864 0.481134 0.309306
O O5 0.500000 0.500000 0.535222
O O6 0.439190 0.345527 0.607922
O O7 0.545466 0.886983 0.471178
O O8 0.500000 0.000000 0.588292
O O9 0.257854 0.880335 0.179780
O O10 0.265606 0.152120 0.048975
O O11 0.636159 0.591170 0.580523
O O12 0.658210 0.404419 0.435943
O O13 0.619806 0.844570 0.457833
O O14 0.694448 0.813721 0.491359
O O15 0.587392 0.236015 0.540705
O O16 0.595540 0.720344 0.879159
O O17 0.252103 0.900309 0.414585
#
# Coordination Sequence:
#
# PCOD9366595 Si02
#       8
#     8   8   8   8   8   8   8   8
#     4  12  25  41  67  98 135 181 228 281 336 401
#     4  11  22  40  68 110 141 166 209 279 337 394
#     4  10  21  38  58  87 126 169 221 281 333 390
#     4  10  22  42  67  93 130 167 233 279 329 386
#     4  10  23  38  71 105 126 172 225 271 323 395
#     4  11  25  43  65  94 137 175 222 283 334 396
#     4  10  22  43  69 104 127 176 225 278 322 399
#     4  10  22  35  59  89 120 165 212 285 333 376
#
# _framework density 22.409983
#
# number of rings (size 3 to 8) (size 9 to 14) (size 15 to 20)
#    0.000    1.500    2.500    2.250   10.500    0.000 
#    0.000    3.750    0.000    0.750   16.250    0.000 
#    0.000    0.000    0.000    0.000    0.000    0.000 
#
# Total GULP energy -178569.344342 kJ/mol
# GULP energy per Si atom -5580.292011 kJ/mol
# Density = 2.235898 g / cm^3
# Si number density = 22.409983 Si / 1000 Ang^3
#
#
#
# Elastic Constant Matrix: (Units=GPa)
#
#
# Indices 1 2 3 4 5 6 
#
# 1 97.1878 18.1728 15.8604 0.0000 0.0000 0.0000
# 2 18.1728 123.2224 0.3641 0.0000 0.0000 0.0000
# 3 15.8604 0.3641 35.7564 0.0000 0.0000 0.0000
# 4 0.0000 0.0000 0.0000 25.1761 0.0000 0.0000
# 5 0.0000 0.0000 0.0000 0.0000 8.9871 0.0000
# 6 0.0000 0.0000 0.0000 0.0000 0.0000 40.3325
#
#
#
# Elastic Compliance Matrix: (Units=1/GPa)
#
#
# Indices 1 2 3 4 5 6 
#
# 1 0.011426 -0.001670 -0.005051 0.000000 0.000000 0.000000
# 2 -0.001670 0.008360 0.000656 0.000000 0.000000 0.000000
# 3 -0.005051 0.000656 0.030201 0.000000 0.000000 0.000000
# 4 0.000000 0.000000 0.000000 0.039720 0.000000 0.000000
# 5 0.000000 0.000000 0.000000 0.000000 0.111270 0.000000
# 6 0.000000 0.000000 0.000000 0.000000 0.000000 0.024794
#
#
# Mechanical properties :
#
#
# Convention : Reuss Voigt Hill
#
# Bulk Modulus (GPa) = 26.41634 36.10680 31.26157
# Shear Modulus (GPa) = 19.95841 29.68377 24.82109
#
# Velocity S-wave (km/s) = 2.98754 3.64342 3.33166
# Velocity P-wave (km/s) = 4.86969 5.81776 5.36471
#
# Compressibility (1/GPa) = 0.03785535
#
# Stress axis : x y z
#
# Youngs Moduli (GPa) = 87.51979 119.62032 33.11159
#
# Poissons Ratio (x) = 0.19979 0.16725
# Poissons Ratio (y) = 0.14617 -0.02171
# Poissons Ratio (z) = 0.44208 -0.07844
#
# Static dielectric constant tensor:
#      x y z
#    x 1.846420 0.000000 0.000000 
#    y 0.000000 1.950720 0.000000 
#    z 0.000000 0.000000 1.877250 
# 
# From -- ./inp_files/10846.got.cif
#   From: 2010.05.17/outbox.cif.g08.bks.cpg/sg41_6_cif.got.tgz:10846.got - 2010.06.03 18:54:24.
