data_PCOD9366021
_publ_section_title
;
Structure prediction by ZEFSAII (Michael W. Deem and Ramdas Pophale) SiO2 
 PCOD9366021
Probable space group: A B A 2
;
_chemical_formula_sum "Si O2"
_cell_formula_units_Z 60
_cell_length_a 7.497091
_cell_length_b 16.430561
_cell_length_c 21.412413
_cell_angle_alpha 90.000000
_cell_angle_beta 90.000000
_cell_angle_gamma 90.000000
_cell_volume 2637.611246
_symmetry_space_group_name_H-M "A B A 2"
_symmetry_group_IT_number 41
_symmetry_cell_setting 'orthorhombic'
loop_
_space_group_symop_operation_xyz
x,y,z
-x,-y,z
1/2-x,y,1/2+z
1/2+x,-y,1/2+z
x,1/2+y,1/2+z
-x,1/2-y,1/2+z
1/2-x,1/2+y,z
1/2+x,1/2-y,z
loop_
_atom_site_type_symbol
_atom_site_label
_atom_site_fract_x
_atom_site_fract_y
_atom_site_fract_z
Si Si1 0.216223 0.508449 0.300750
Si Si2 0.000000 0.500000 0.900848
Si Si3 0.212396 0.510485 0.158045
Si Si4 0.084545 0.301677 0.403200
Si Si5 0.416279 0.349219 0.474072
Si Si6 0.875705 0.308491 0.170102
Si Si7 0.270625 0.348216 0.611666
Si Si8 0.710862 0.814545 0.311184
O O1 0.335764 0.473363 0.356085
O O2 0.245366 0.482556 0.229415
O O3 0.300623 0.599729 0.298669
O O4 0.000000 0.500000 0.308641
O O5 0.032256 0.576665 0.946706
O O6 0.237224 0.608883 0.153397
O O7 0.307665 0.439577 0.118077
O O8 0.000000 0.500000 0.143716
O O9 0.220162 0.353339 0.443232
O O10 0.184288 0.253852 0.347517
O O11 0.000964 0.234181 0.448934
O O12 0.931939 0.343471 0.363398
O O13 0.379755 0.346731 0.547139
O O14 0.848799 0.231378 0.124405
O O15 0.848184 0.285845 0.242825
O O16 0.079885 0.335446 0.164742
#
# Coordination Sequence:
#
# PCOD9366021 Si02
#       8
#     8   4   8   8   8   8   8   8
#     4  10  20  39  61  93 130 160 209 271 335 386
#     4  12  24  38  64 100 118 174 214 266 324 392
#     4   8  19  38  63  88 120 164 204 260 329 388
#     4  10  21  39  61  89 124 164 203 267 322 386
#     4  11  24  39  61  89 126 168 219 251 317 403
#     4  10  21  37  64  91 116 162 208 260 331 384
#     4  11  22  41  60  89 124 171 209 261 318 396
#     4  10  19  37  61  91 122 153 207 270 329 383
#
# _framework density 22.747855999999999
#
# number of rings (size 3 to 8) (size 9 to 14) (size 15 to 20)
#    0.000    1.867    1.333    3.200    2.800    2.133 
#    4.800    0.000    0.000    0.000    0.000    0.000 
#    0.000    0.000    0.000    0.000    0.000    0.000 
#
# Total GULP energy -167065.181050 kJ/mol
# GULP energy per Si atom -5568.839368 kJ/mol
# Density = 2.269608 g / cm^3
# Si number density = 22.747856 Si / 1000 Ang^3
#
#
#
# Elastic Constant Matrix: (Units=GPa)
#
#
# Indices 1 2 3 4 5 6 
#
# 1 28.5915 -4.6509 3.5147 0.0000 0.0000 0.0000
# 2 -4.6509 86.6052 22.2251 0.0000 0.0000 0.0000
# 3 3.5147 22.2251 101.9646 0.0000 0.0000 0.0000
# 4 0.0000 0.0000 0.0000 16.1722 0.0000 0.0000
# 5 0.0000 0.0000 0.0000 0.0000 6.7755 0.0000
# 6 0.0000 0.0000 0.0000 0.0000 0.0000 12.4649
#
#
#
# Elastic Compliance Matrix: (Units=1/GPa)
#
#
# Indices 1 2 3 4 5 6 
#
# 1 0.035573 0.002357 -0.001740 0.000000 0.000000 0.000000
# 2 0.002357 0.012387 -0.002781 0.000000 0.000000 0.000000
# 3 -0.001740 -0.002781 0.010474 0.000000 0.000000 0.000000
# 4 0.000000 0.000000 0.000000 0.061835 0.000000 0.000000
# 5 0.000000 0.000000 0.000000 0.000000 0.147591 0.000000
# 6 0.000000 0.000000 0.000000 0.000000 0.000000 0.080225
#
#
# Mechanical properties :
#
#
# Convention : Reuss Voigt Hill
#
# Bulk Modulus (GPa) = 18.48270 28.81545 23.64908
# Shear Modulus (GPa) = 13.49721 20.15402 16.82561
#
# Velocity S-wave (km/s) = 2.43850 2.97976 2.72261
# Velocity P-wave (km/s) = 4.00887 4.95313 4.50580
#
# Compressibility (1/GPa) = 0.05410463
#
# Stress axis : x y z
#
# Youngs Moduli (GPa) = 28.11144 80.73013 95.47894
#
# Poissons Ratio (x) = -0.19027 0.16613
# Poissons Ratio (y) = -0.06625 0.26555
# Poissons Ratio (z) = 0.04891 0.22453
#
# Static dielectric constant tensor:
#      x y z
#    x 2.011130 0.000000 0.000000 
#    y 0.000000 1.836030 0.000000 
#    z 0.000000 0.000000 1.865710 
# 
# From -- ./inp_files/9782.got.cif
#   From: 2010.05.17/outbox.cif.g08.bks.cpg/sg41_5_cif.got.tgz:9782.got - 2010.06.03 18:54:24.
