data_PCOD9366672
_publ_section_title
;
Structure prediction by ZEFSAII (Michael W. Deem and Ramdas Pophale) SiO2 
 PCOD9366672
Probable space group: A B A 2
;
_chemical_formula_sum "Si O2"
_cell_formula_units_Z 56
_cell_length_a 5.249406
_cell_length_b 29.403309
_cell_length_c 15.877375
_cell_angle_alpha 90.000000
_cell_angle_beta 90.000000
_cell_angle_gamma 90.000000
_cell_volume 2450.671350
_symmetry_space_group_name_H-M "A B A 2"
_symmetry_group_IT_number 41
_symmetry_cell_setting 'orthorhombic'
loop_
_space_group_symop_operation_xyz
x,y,z
-x,-y,z
1/2-x,y,1/2+z
1/2+x,-y,1/2+z
x,1/2+y,1/2+z
-x,1/2-y,1/2+z
1/2-x,1/2+y,z
1/2+x,1/2-y,z
loop_
_atom_site_type_symbol
_atom_site_label
_atom_site_fract_x
_atom_site_fract_y
_atom_site_fract_z
Si Si1 0.166394 0.409298 0.561630
Si Si2 0.749251 0.779819 0.254781
Si Si3 0.166663 0.454003 0.394198
Si Si4 0.970464 0.549882 0.726019
Si Si5 0.212940 0.117772 0.821885
Si Si6 0.674539 0.275940 0.054582
Si Si7 0.359325 0.131347 0.998530
O O1 0.247242 0.446295 0.490879
O O2 0.195333 0.424030 0.657477
O O3 0.372739 0.370136 0.546044
O O4 0.869423 0.397651 0.542382
O O5 0.512948 0.746363 0.276917
O O6 0.699706 0.830189 0.291870
O O7 0.778233 0.786791 0.153511
O O8 0.356543 0.459887 0.317338
O O9 0.000000 0.500000 0.393193
O O10 0.023878 0.407489 0.365500
O O11 0.000000 0.500000 0.686712
O O12 0.201219 0.583881 0.747643
O O13 0.403688 0.117360 0.901917
O O14 0.385061 0.262478 0.038028
O O15 0.748981 0.318458 0.998950
#
# Coordination Sequence:
#
# PCOD9366672 Si02
#       7
#     8   8   8   8   8   8   8
#     4  11  26  43  70 100 140 185 234 286 345 418
#     4  10  24  41  65  98 133 177 231 288 346 411
#     4  11  24  46  68 102 146 185 231 295 346 420
#     4  12  25  44  71 105 137 192 236 284 356 425
#     4  11  25  43  69  99 142 184 231 295 353 419
#     4  10  21  39  62  92 132 174 225 290 346 408
#     4  11  24  44  66 100 135 185 233 287 354 414
#
# _framework density 22.850881000000001
#
# number of rings (size 3 to 8) (size 9 to 14) (size 15 to 20)
#    0.000    1.143    2.857    2.143    6.000    2.286 
#    0.000    2.143    0.000    0.000    0.000    0.000 
#    0.000    0.000    0.000    0.000    0.000    0.000 
#
# Total GULP energy -156204.701544 kJ/mol
# GULP energy per Si atom -5578.739341 kJ/mol
# Density = 2.279887 g / cm^3
# Si number density = 22.850881 Si / 1000 Ang^3
#
#
#
# Elastic Constant Matrix: (Units=GPa)
#
#
# Indices 1 2 3 4 5 6 
#
# 1 70.5628 15.8756 13.5752 0.0000 0.0000 0.0000
# 2 15.8756 86.5957 5.7461 0.0000 0.0000 0.0000
# 3 13.5752 5.7461 70.5229 0.0000 0.0000 0.0000
# 4 0.0000 0.0000 0.0000 21.6719 0.0000 0.0000
# 5 0.0000 0.0000 0.0000 0.0000 19.9194 0.0000
# 6 0.0000 0.0000 0.0000 0.0000 0.0000 27.0803
#
#
#
# Elastic Compliance Matrix: (Units=1/GPa)
#
#
# Indices 1 2 3 4 5 6 
#
# 1 0.015287 -0.002621 -0.002729 0.000000 0.000000 0.000000
# 2 -0.002621 0.012060 -0.000478 0.000000 0.000000 0.000000
# 3 -0.002729 -0.000478 0.014744 0.000000 0.000000 0.000000
# 4 0.000000 0.000000 0.000000 0.046143 0.000000 0.000000
# 5 0.000000 0.000000 0.000000 0.000000 0.050202 0.000000
# 6 0.000000 0.000000 0.000000 0.000000 0.000000 0.036927
#
#
# Mechanical properties :
#
#
# Convention : Reuss Voigt Hill
#
# Bulk Modulus (GPa) = 32.85800 33.11946 32.98873
# Shear Modulus (GPa) = 25.35954 26.56663 25.96308
#
# Velocity S-wave (km/s) = 3.33496 3.41340 3.37441
# Velocity P-wave (km/s) = 5.40738 5.48273 5.44518
#
# Compressibility (1/GPa) = 0.03043399
#
# Stress axis : x y z
#
# Youngs Moduli (GPa) = 65.41694 82.91726 67.82393
#
# Poissons Ratio (x) = 0.21736 0.18509
# Poissons Ratio (y) = 0.17148 0.03242
# Poissons Ratio (z) = 0.17852 0.03964
#
# Static dielectric constant tensor:
#      x y z
#    x 1.933260 0.000000 0.000000 
#    y 0.000000 1.912570 0.000000 
#    z 0.000000 0.000000 1.851030 
# 
# From -- ./inp_files/6967.got.cif
#   From: 2010.05.17/outbox.cif.g08.bks.cpg/sg41_4_cif.got.tgz:6967.got - 2010.06.03 18:54:24.
