data_PCOD9366793
_publ_section_title
;
Structure prediction by ZEFSAII (Michael W. Deem and Ramdas Pophale) SiO2 
 PCOD9366793
Probable space group: A B A 2
;
_chemical_formula_sum "Si O2"
_cell_formula_units_Z 52
_cell_length_a 8.849833
_cell_length_b 18.032061
_cell_length_c 13.882663
_cell_angle_alpha 90.000000
_cell_angle_beta 90.000000
_cell_angle_gamma 90.000000
_cell_volume 2215.405475
_symmetry_space_group_name_H-M "A B A 2"
_symmetry_group_IT_number 41
_symmetry_cell_setting 'orthorhombic'
loop_
_space_group_symop_operation_xyz
x,y,z
-x,-y,z
1/2-x,y,1/2+z
1/2+x,-y,1/2+z
x,1/2+y,1/2+z
-x,1/2-y,1/2+z
1/2-x,1/2+y,z
1/2+x,1/2-y,z
loop_
_atom_site_type_symbol
_atom_site_label
_atom_site_fract_x
_atom_site_fract_y
_atom_site_fract_z
Si Si1 0.735185 0.756786 0.687080
Si Si2 0.500000 0.500000 0.572038
Si Si3 0.485041 0.750000 0.822038
Si Si4 0.000000 0.000000 0.873575
Si Si5 0.500000 0.500000 0.270501
Si Si6 0.291863 0.582803 0.424873
Si Si7 0.764815 0.243214 0.956996
Si Si8 0.791863 0.082803 0.719203
O O1 0.588769 0.790073 0.741004
O O2 0.874996 0.792117 0.746044
O O3 0.750000 0.750000 0.572038
O O4 0.723995 0.670690 0.717715
O O5 0.390220 0.553355 0.513009
O O6 0.609780 0.553355 0.631067
O O7 0.374996 0.792117 0.898032
O O8 0.588769 0.709927 0.903071
O O9 0.124140 0.048371 0.928835
O O10 0.891172 0.051831 0.808122
O O11 0.391172 0.551831 0.335953
O O12 0.624140 0.548371 0.215241
O O13 0.276005 0.670690 0.426360
#
# Coordination Sequence:
#
# PCOD9366793 Si02
#       8
#     8   4   8   4   4   8   8   8
#     4  11  23  42  67  96 133 177 221 275 335 399
#     4  10  24  38  60  90 128 160 200 276 320 394
#     4  10  24  42  60 100 126 176 222 268 338 380
#     4   9  20  42  68  95 120 178 212 283 334 384
#     4   9  20  42  68  95 120 178 212 283 334 384
#     4  10  21  41  64  93 127 162 221 268 333 392
#     4  11  23  42  67  96 133 177 221 275 335 399
#     4  10  21  41  64  93 127 162 221 268 333 392
#
# _framework density 23.472000000000001
#
# number of rings (size 3 to 8) (size 9 to 14) (size 15 to 20)
#    0.000    1.846    0.000    2.769    4.308    0.615 
#   22.154    0.000    0.000    0.000    0.000    0.000 
#    0.000    0.000    0.000    0.000    0.000    0.000 
#
# Total GULP energy -144906.391708 kJ/mol
# GULP energy per Si atom -5573.322758 kJ/mol
# Density = 2.341858 g / cm^3
# Si number density = 23.472000 Si / 1000 Ang^3
#
#
#
# Elastic Constant Matrix: (Units=GPa)
#
#
# Indices 1 2 3 4 5 6 
#
# 1 182.3336 9.0955 56.0640 0.0000 0.0000 0.0000
# 2 9.0955 110.0298 5.4470 0.0000 0.0000 0.0000
# 3 56.0640 5.4470 175.0949 0.0000 0.0000 0.0000
# 4 0.0000 0.0000 0.0000 -9.2267 0.0000 0.0000
# 5 0.0000 0.0000 0.0000 0.0000 -34.8917 0.0000
# 6 0.0000 0.0000 0.0000 0.0000 0.0000 20.3726
#
#
#
# Elastic Compliance Matrix: (Units=1/GPa)
#
#
# Indices 1 2 3 4 5 6 
#
# 1 0.006102 -0.000408 -0.001941 0.000000 0.000000 0.000000
# 2 -0.000408 0.009130 -0.000153 0.000000 0.000000 0.000000
# 3 -0.001941 -0.000153 0.006337 0.000000 0.000000 0.000000
# 4 0.000000 0.000000 0.000000 -0.108381 0.000000 0.000000
# 5 0.000000 0.000000 0.000000 0.000000 -0.028660 0.000000
# 6 0.000000 0.000000 0.000000 0.000000 0.000000 0.049085
#
#
# Mechanical properties :
#
#
# Convention : Reuss Voigt Hill
#
# Bulk Modulus (GPa) = 60.37291 67.63015 64.00153
# Shear Modulus (GPa) = -89.50860 21.70764 -33.90048
#
# Velocity S-wave (km/s) = -6.18199 3.04440 -3.80451
# Velocity P-wave (km/s) = 5.01786 6.42133 2.83325
#
# Compressibility (1/GPa) = 0.01656372
#
# Stress axis : x y z
#
# Youngs Moduli (GPa) = 163.89039 109.53161 157.79224
#
# Poissons Ratio (x) = 0.04472 0.30627
# Poissons Ratio (y) = 0.06692 0.02419
# Poissons Ratio (z) = 0.31811 0.01679
#
# Static dielectric constant tensor:
#      x y z
#    x 2.057150 0.000000 0.000000 
#    y 0.000000 1.981270 0.000000 
#    z 0.000000 0.000000 1.907460 
# 
# From -- ./inp_files/7455.got.cif
#   From: 2010.05.17/outbox.cif.g08.bks.cpg/sg41_4_cif.got.tgz:7455.got - 2010.06.03 18:54:24.
