data_PCOD9366986
_publ_section_title
;
Structure prediction by ZEFSAII (Michael W. Deem and Ramdas Pophale) SiO2 
 PCOD9366986
Probable space group: A B A 2
;
_chemical_formula_sum "Si O2"
_cell_formula_units_Z 52
_cell_length_a 9.739237
_cell_length_b 13.271347
_cell_length_c 18.810779
_cell_angle_alpha 90.000000
_cell_angle_beta 90.000000
_cell_angle_gamma 90.000000
_cell_volume 2431.345738
_symmetry_space_group_name_H-M "A B A 2"
_symmetry_group_IT_number 41
_symmetry_cell_setting 'orthorhombic'
loop_
_space_group_symop_operation_xyz
x,y,z
-x,-y,z
1/2-x,y,1/2+z
1/2+x,-y,1/2+z
x,1/2+y,1/2+z
-x,1/2-y,1/2+z
1/2-x,1/2+y,z
1/2+x,1/2-y,z
loop_
_atom_site_type_symbol
_atom_site_label
_atom_site_fract_x
_atom_site_fract_y
_atom_site_fract_z
Si Si1 0.781449 0.624712 0.283100
Si Si2 0.000000 0.500000 0.913211
Si Si3 0.650736 0.003539 0.539308
Si Si4 0.574223 0.294948 0.767253
Si Si5 0.347846 0.540398 0.666650
Si Si6 0.271023 0.120948 0.400081
Si Si7 0.237141 0.353949 0.941414
O O1 0.639486 0.685469 0.276365
O O2 0.790137 0.532405 0.229121
O O3 0.795029 0.600975 0.366741
O O4 0.910303 0.697622 0.266000
O O5 0.123611 0.569174 0.879912
O O6 0.090896 0.412192 0.950997
O O7 0.666564 0.938595 0.467142
O O8 0.500000 0.000000 0.569875
O O9 0.757679 0.967604 0.597141
O O10 0.679295 0.115520 0.510598
O O11 0.635292 0.348184 0.697765
O O12 0.628745 0.363502 0.833059
O O13 0.500000 0.500000 0.651381
O O14 0.256881 0.235711 0.428067
#
# Coordination Sequence:
#
# PCOD9366986 Si02
#       7
#     8   4   8   8   8   8   8
#     4  10  22  41  65  95 126 168 216 271 330 387
#     4  10  22  38  62 104 126 180 208 266 344 374
#     4  11  24  40  61  93 124 171 214 264 335 391
#     4  10  22  41  65  95 126 168 216 271 330 387
#     4  10  23  43  61  84 131 173 213 266 321 393
#     4  10  23  40  67  96 130 164 220 274 328 395
#     4  10  23  40  67  96 130 164 220 274 328 395
#
# _framework density 21.387331
#
# number of rings (size 3 to 8) (size 9 to 14) (size 15 to 20)
#    0.000    1.846    0.000    2.769   15.077    3.692 
#    2.769    3.077    0.000    0.000    0.000    0.000 
#    0.000    0.000    0.000    0.000    0.000    0.000 
#
# Total GULP energy -145007.634812 kJ/mol
# GULP energy per Si atom -5577.216724 kJ/mol
# Density = 2.133865 g / cm^3
# Si number density = 21.387331 Si / 1000 Ang^3
#
#
#
# Elastic Constant Matrix: (Units=GPa)
#
#
# Indices 1 2 3 4 5 6 
#
# 1 46.4911 14.3743 1.6641 0.0000 0.0000 0.0000
# 2 14.3743 57.6559 4.6008 0.0000 0.0000 0.0000
# 3 1.6641 4.6008 72.2622 0.0000 0.0000 0.0000
# 4 0.0000 0.0000 0.0000 -0.3567 0.0000 0.0000
# 5 0.0000 0.0000 0.0000 0.0000 25.3439 0.0000
# 6 0.0000 0.0000 0.0000 0.0000 0.0000 26.7333
#
#
#
# Elastic Compliance Matrix: (Units=1/GPa)
#
#
# Indices 1 2 3 4 5 6 
#
# 1 0.023308 -0.005798 -0.000168 0.000000 0.000000 0.000000
# 2 -0.005798 0.018875 -0.001068 0.000000 0.000000 0.000000
# 3 -0.000168 -0.001068 0.013910 0.000000 0.000000 0.000000
# 4 0.000000 0.000000 0.000000 -2.803386 0.000000 0.000000
# 5 0.000000 0.000000 0.000000 0.000000 0.039457 0.000000
# 6 0.000000 0.000000 0.000000 0.000000 0.000000 0.037407
#
#
# Mechanical properties :
#
#
# Convention : Reuss Voigt Hill
#
# Bulk Modulus (GPa) = 23.79454 24.18750 23.99102
# Shear Modulus (GPa) = -1.89225 20.72875 9.41825
#
# Velocity S-wave (km/s) = -0.94163 3.11659 2.10077
# Velocity P-wave (km/s) = 3.15713 4.92794 4.13836
#
# Compressibility (1/GPa) = 0.04202644
#
# Stress axis : x y z
#
# Youngs Moduli (GPa) = 42.90371 52.98030 71.88882
#
# Poissons Ratio (x) = 0.30716 0.01205
# Poissons Ratio (y) = 0.24874 0.07679
# Poissons Ratio (z) = 0.00719 0.05659
#
# Static dielectric constant tensor:
#      x y z
#    x 1.808790 0.000000 0.000000 
#    y 0.000000 1.823440 0.000000 
#    z 0.000000 0.000000 1.751080 
# 
# From -- ./inp_files/11160.got.cif
#   From: 2010.05.17/outbox.cif.g08.bks.cpg/sg41_6_cif.got.tgz:11160.got - 2010.06.03 18:54:24.
