data_PCOD9366587
_publ_section_title
;
Structure prediction by ZEFSAII (Michael W. Deem and Ramdas Pophale) SiO2 
 PCOD9366587
Probable space group: A B A 2
;
_chemical_formula_sum "Si O2"
_cell_formula_units_Z 60
_cell_length_a 14.839653
_cell_length_b 17.504815
_cell_length_c 8.621629
_cell_angle_alpha 90.000000
_cell_angle_beta 90.000000
_cell_angle_gamma 90.000000
_cell_volume 2239.600737
_symmetry_space_group_name_H-M "A B A 2"
_symmetry_group_IT_number 41
_symmetry_cell_setting 'orthorhombic'
loop_
_space_group_symop_operation_xyz
x,y,z
-x,-y,z
1/2-x,y,1/2+z
1/2+x,-y,1/2+z
x,1/2+y,1/2+z
-x,1/2-y,1/2+z
1/2-x,1/2+y,z
1/2+x,1/2-y,z
loop_
_atom_site_type_symbol
_atom_site_label
_atom_site_fract_x
_atom_site_fract_y
_atom_site_fract_z
Si Si1 0.000000 0.500000 0.903610
Si Si2 0.598999 0.393133 0.162063
Si Si3 0.145795 0.487944 0.425121
Si Si4 0.464015 0.846863 0.426299
Si Si5 0.241218 0.404118 0.702313
Si Si6 0.152850 0.304769 0.967443
Si Si7 0.679489 0.788104 0.911886
Si Si8 0.022819 0.651154 0.087973
O O1 0.928831 0.461158 0.782586
O O2 0.985214 0.570295 0.022315
O O3 0.659210 0.332368 0.252596
O O4 0.636744 0.431267 0.005559
O O5 0.509614 0.352422 0.095399
O O6 0.059926 0.436074 0.390656
O O7 0.188184 0.436053 0.559286
O O8 0.210114 0.476751 0.279714
O O9 0.376837 0.791511 0.426621
O O10 0.516947 0.829313 0.267583
O O11 0.178256 0.361336 0.825910
O O12 0.311864 0.344879 0.626241
O O13 0.217231 0.232717 0.938165
O O14 0.046532 0.294212 0.991672
O O15 0.625879 0.839621 0.036002
#
# Coordination Sequence:
#
# PCOD9366587 Si02
#       8
#     4   8   8   8   8   8   8   8
#     4  10  22  40  66 114 144 186 254 328 392 466
#     4  11  24  43  72 105 152 193 252 334 392 463
#     4  11  21  42  69 108 135 195 257 319 388 464
#     4  12  22  42  72 103 145 199 258 309 395 479
#     4  10  21  37  71  98 138 193 261 304 375 478
#     4  11  21  42  67 103 145 201 256 312 377 485
#     4  11  25  45  68 108 152 199 261 313 393 474
#     4  11  25  40  73 112 148 199 256 324 399 467
#
# _framework density 26.790489999999998
#
# number of rings (size 3 to 8) (size 9 to 14) (size 15 to 20)
#    0.000    1.067    5.333    1.600    3.733    1.067 
#    0.000    5.333    0.000    0.000    0.000    0.000 
#    0.000    0.000    0.000    0.000    0.000    0.000 
#
# Total GULP energy -167876.949929 kJ/mol
# GULP energy per Si atom -5595.898331 kJ/mol
# Density = 2.672951 g / cm^3
# Si number density = 26.790490 Si / 1000 Ang^3
#
#
#
# Elastic Constant Matrix: (Units=GPa)
#
#
# Indices 1 2 3 4 5 6 
#
# 1 62.0827 21.2310 14.8243 0.0000 0.0000 0.0000
# 2 21.2310 137.3282 25.7725 0.0000 0.0000 0.0000
# 3 14.8243 25.7725 124.8297 0.0000 0.0000 0.0000
# 4 0.0000 0.0000 0.0000 53.8291 0.0000 0.0000
# 5 0.0000 0.0000 0.0000 0.0000 37.7073 0.0000
# 6 0.0000 0.0000 0.0000 0.0000 0.0000 29.1900
#
#
#
# Elastic Compliance Matrix: (Units=1/GPa)
#
#
# Indices 1 2 3 4 5 6 
#
# 1 0.017295 -0.002381 -0.001562 0.000000 0.000000 0.000000
# 2 -0.002381 0.007903 -0.001349 0.000000 0.000000 0.000000
# 3 -0.001562 -0.001349 0.008475 0.000000 0.000000 0.000000
# 4 0.000000 0.000000 0.000000 0.018577 0.000000 0.000000
# 5 0.000000 0.000000 0.000000 0.000000 0.026520 0.000000
# 6 0.000000 0.000000 0.000000 0.000000 0.000000 0.034258
#
#
# Mechanical properties :
#
#
# Convention : Reuss Voigt Hill
#
# Bulk Modulus (GPa) = 43.31080 49.76626 46.53853
# Shear Modulus (GPa) = 38.07828 41.63946 39.85887
#
# Velocity S-wave (km/s) = 3.77415 3.94669 3.86138
# Velocity P-wave (km/s) = 5.93244 6.27574 6.10650
#
# Compressibility (1/GPa) = 0.02308893
#
# Stress axis : x y z
#
# Youngs Moduli (GPa) = 57.82113 126.53390 117.99463
#
# Poissons Ratio (x) = 0.30122 0.18435
# Poissons Ratio (y) = 0.13765 0.15917
# Poissons Ratio (z) = 0.09034 0.17069
#
# Static dielectric constant tensor:
#      x y z
#    x 2.199780 0.000000 0.000000 
#    y 0.000000 2.264440 0.000000 
#    z 0.000000 0.000000 2.013040 
# 
# From -- ./inp_files/3155.got.cif
#   From: 2010.05.17/outbox.cif.g08.bks.cpg/sg41_2_cif.got.tgz:3155.got - 2010.06.03 18:54:24.
