data_PCOD9366419
_publ_section_title
;
Structure prediction by ZEFSAII (Michael W. Deem and Ramdas Pophale) SiO2 
 PCOD9366419
Probable space group: A B A 2
;
_chemical_formula_sum "Si O2"
_cell_formula_units_Z 36
_cell_length_a 9.794069
_cell_length_b 13.932660
_cell_length_c 11.207286
_cell_angle_alpha 90.000000
_cell_angle_beta 90.000000
_cell_angle_gamma 90.000000
_cell_volume 1529.317483
_symmetry_space_group_name_H-M "A B A 2"
_symmetry_group_IT_number 41
_symmetry_cell_setting 'orthorhombic'
loop_
_space_group_symop_operation_xyz
x,y,z
-x,-y,z
1/2-x,y,1/2+z
1/2+x,-y,1/2+z
x,1/2+y,1/2+z
-x,1/2-y,1/2+z
1/2-x,1/2+y,z
1/2+x,1/2-y,z
loop_
_atom_site_type_symbol
_atom_site_label
_atom_site_fract_x
_atom_site_fract_y
_atom_site_fract_z
Si Si1 0.500000 0.500000 0.950320
Si Si2 0.184107 0.684280 0.975564
Si Si3 0.395671 0.644100 0.148620
Si Si4 0.791898 0.501106 0.851094
Si Si5 0.581164 0.211357 0.847159
O O1 0.630881 0.516782 0.867400
O O2 0.467590 0.587716 0.039894
O O3 0.169396 0.569664 0.960032
O O4 0.291997 0.720049 0.874276
O O5 0.037176 0.726028 0.946203
O O6 0.266590 0.702018 0.096063
O O7 0.340480 0.559551 0.236375
O O8 0.498174 0.710916 0.223301
O O9 0.863454 0.603004 0.856199
#
# Coordination Sequence:
#
# PCOD9366419 Si02
#       5
#     4   8   8   8   8
#     4  10  20  40  72 100 132 184 234 280 352 410
#     4  10  24  39  67 101 134 181 235 277 354 416
#     4  10  20  44  67  97 141 184 225 296 346 405
#     4  10  22  43  67  95 138 179 234 284 343 418
#     4  11  23  45  68  97 144 182 229 297 340 422
#
# _framework density 23.539912999999999
#
# number of rings (size 3 to 8) (size 9 to 14) (size 15 to 20)
#    0.000    1.778    2.222    2.000    6.222    3.556 
#    8.000    0.000    0.000    0.000    0.000    0.000 
#    0.000    0.000    0.000    0.000    0.000    0.000 
#
# Total GULP energy -100607.204892 kJ/mol
# GULP energy per Si atom -5589.289161 kJ/mol
# Density = 2.348634 g / cm^3
# Si number density = 23.539913 Si / 1000 Ang^3
#
#
#
# Elastic Constant Matrix: (Units=GPa)
#
#
# Indices 1 2 3 4 5 6 
#
# 1 157.6923 25.1733 34.9979 0.0000 0.0000 0.0000
# 2 25.1733 68.8656 29.9847 0.0000 0.0000 0.0000
# 3 34.9979 29.9847 75.8150 0.0000 0.0000 0.0000
# 4 0.0000 0.0000 0.0000 26.5112 0.0000 0.0000
# 5 0.0000 0.0000 0.0000 0.0000 38.4287 0.0000
# 6 0.0000 0.0000 0.0000 0.0000 0.0000 36.3126
#
#
#
# Elastic Compliance Matrix: (Units=1/GPa)
#
#
# Indices 1 2 3 4 5 6 
#
# 1 0.007180 -0.001427 -0.002750 0.000000 0.000000 0.000000
# 2 -0.001427 0.017825 -0.006391 0.000000 0.000000 0.000000
# 3 -0.002750 -0.006391 0.016987 0.000000 0.000000 0.000000
# 4 0.000000 0.000000 0.000000 0.037720 0.000000 0.000000
# 5 0.000000 0.000000 0.000000 0.000000 0.026022 0.000000
# 6 0.000000 0.000000 0.000000 0.000000 0.000000 0.027539
#
#
# Mechanical properties :
#
#
# Convention : Reuss Voigt Hill
#
# Bulk Modulus (GPa) = 47.94806 53.63162 50.78984
# Shear Modulus (GPa) = 30.98641 34.39831 32.69236
#
# Velocity S-wave (km/s) = 3.63207 3.82681 3.73071
# Velocity P-wave (km/s) = 6.16460 6.50836 6.33881
#
# Compressibility (1/GPa) = 0.02085590
#
# Stress axis : x y z
#
# Youngs Moduli (GPa) = 139.28400 56.09948 58.86827
#
# Poissons Ratio (x) = 0.08006 0.16188
# Poissons Ratio (y) = 0.19878 0.37624
# Poissons Ratio (z) = 0.38301 0.35854
#
# Static dielectric constant tensor:
#      x y z
#    x 1.931590 0.000000 0.000000 
#    y 0.000000 1.853240 0.000000 
#    z 0.000000 0.000000 1.962380 
# 
# From -- ./inp_files/4823.got.cif
#   From: 2010.05.17/outbox.cif.g08.bks.cpg/sg41_3_cif.got.tgz:4823.got - 2010.06.03 18:54:24.
