data_PCOD9366283
_publ_section_title
;
Structure prediction by ZEFSAII (Michael W. Deem and Ramdas Pophale) SiO2 
 PCOD9366283
Probable space group: A B A 2
;
_chemical_formula_sum "Si O2"
_cell_formula_units_Z 64
_cell_length_a 33.068571
_cell_length_b 15.482733
_cell_length_c 5.238579
_cell_angle_alpha 90.000000
_cell_angle_beta 90.000000
_cell_angle_gamma 90.000000
_cell_volume 2682.109782
_symmetry_space_group_name_H-M "A B A 2"
_symmetry_group_IT_number 41
_symmetry_cell_setting 'orthorhombic'
loop_
_space_group_symop_operation_xyz
x,y,z
-x,-y,z
1/2-x,y,1/2+z
1/2+x,-y,1/2+z
x,1/2+y,1/2+z
-x,1/2-y,1/2+z
1/2-x,1/2+y,z
1/2+x,1/2-y,z
loop_
_atom_site_type_symbol
_atom_site_label
_atom_site_fract_x
_atom_site_fract_y
_atom_site_fract_z
Si Si1 0.080927 0.144654 0.358940
Si Si2 0.344677 0.446236 0.654783
Si Si3 0.495110 0.304545 0.330745
Si Si4 0.765909 0.834600 0.523443
Si Si5 0.350780 0.552772 0.153199
Si Si6 0.767494 0.642021 0.007841
Si Si7 0.852421 0.306876 0.255580
Si Si8 0.407073 0.818070 0.015924
O O1 0.101200 0.069193 0.194456
O O2 0.109435 0.148656 0.609851
O O3 0.086793 0.237475 0.212697
O O4 0.033278 0.134759 0.393788
O O5 0.336768 0.514045 0.423862
O O6 0.311352 0.372755 0.619759
O O7 0.388464 0.403101 0.637352
O O8 0.340266 0.488715 0.927722
O O9 0.501201 0.227385 0.538925
O O10 0.449734 0.335209 0.382332
O O11 0.754913 0.881855 0.261489
O O12 0.742737 0.743210 0.484075
O O13 0.812588 0.811787 0.580867
O O14 0.340102 0.644872 0.019068
O O15 0.738258 0.605274 0.226260
O O16 0.872375 0.215189 0.320037
#
# Coordination Sequence:
#
# PCOD9366283 Si02
#       8
#     8   8   8   8   8   8   8   8
#     4  10  22  42  72  96 133 178 224 273 334 398
#     4  12  25  43  68  97 135 175 228 268 337 402
#     4  10  20  38  63 105 137 163 219 289 337 382
#     4  10  23  37  62  97 126 154 214 279 323 377
#     4  11  26  44  67  93 137 187 215 265 328 420
#     4  10  21  39  61  91 127 161 204 278 334 376
#     4  11  22  44  72  96 130 180 223 264 340 399
#     4  10  23  37  72 104 128 171 228 284 326 389
#
# _framework density 23.861812
#
# number of rings (size 3 to 8) (size 9 to 14) (size 15 to 20)
#    0.000    1.500    2.500    2.250    8.750    0.000 
#    0.000    4.375    2.750    0.000    0.000    0.000 
#    0.000    0.000    0.000    0.000    0.000    0.000 
#
# Total GULP energy -178663.000995 kJ/mol
# GULP energy per Si atom -5583.218781 kJ/mol
# Density = 2.380750 g / cm^3
# Si number density = 23.861812 Si / 1000 Ang^3
#
#
#
# Elastic Constant Matrix: (Units=GPa)
#
#
# Indices 1 2 3 4 5 6 
#
# 1 119.3383 21.2602 4.6677 0.0000 0.0000 0.0000
# 2 21.2602 40.8194 8.5489 0.0000 0.0000 0.0000
# 3 4.6677 8.5489 126.7127 0.0000 0.0000 0.0000
# 4 0.0000 0.0000 0.0000 22.1847 0.0000 0.0000
# 5 0.0000 0.0000 0.0000 0.0000 37.4801 0.0000
# 6 0.0000 0.0000 0.0000 0.0000 0.0000 19.4164
#
#
#
# Elastic Compliance Matrix: (Units=1/GPa)
#
#
# Indices 1 2 3 4 5 6 
#
# 1 0.009237 -0.004807 -0.000016 0.000000 0.000000 0.000000
# 2 -0.004807 0.027351 -0.001668 0.000000 0.000000 0.000000
# 3 -0.000016 -0.001668 0.008005 0.000000 0.000000 0.000000
# 4 0.000000 0.000000 0.000000 0.045076 0.000000 0.000000
# 5 0.000000 0.000000 0.000000 0.000000 0.026681 0.000000
# 6 0.000000 0.000000 0.000000 0.000000 0.000000 0.051503
#
#
# Mechanical properties :
#
#
# Convention : Reuss Voigt Hill
#
# Bulk Modulus (GPa) = 31.63565 39.53601 35.58583
# Shear Modulus (GPa) = 26.12705 32.64248 29.38476
#
# Velocity S-wave (km/s) = 3.31256 3.70263 3.51302
# Velocity P-wave (km/s) = 5.28369 5.90627 5.60364
#
# Compressibility (1/GPa) = 0.03160991
#
# Stress axis : x y z
#
# Youngs Moduli (GPa) = 108.26491 36.56120 124.92182
#
# Poissons Ratio (x) = 0.17576 0.00199
# Poissons Ratio (y) = 0.52047 0.20840
# Poissons Ratio (z) = 0.00172 0.06099
#
# Static dielectric constant tensor:
#      x y z
#    x 1.917480 0.000000 0.000000 
#    y 0.000000 1.949910 0.000000 
#    z 0.000000 0.000000 2.039150 
# 
# From -- ./inp_files/1416.got.cif
#   From: 2010.05.17/outbox.cif.g08.bks.cpg/sg41_1_cif.got.tgz:1416.got - 2010.06.03 18:54:24.
