data_PCOD9366324
_publ_section_title
;
Structure prediction by ZEFSAII (Michael W. Deem and Ramdas Pophale) SiO2 
 PCOD9366324
Probable space group: A B A 2
;
_chemical_formula_sum "Si O2"
_cell_formula_units_Z 64
_cell_length_a 19.442544
_cell_length_b 9.034079
_cell_length_c 19.777637
_cell_angle_alpha 90.000000
_cell_angle_beta 90.000000
_cell_angle_gamma 90.000000
_cell_volume 3473.852514
_symmetry_space_group_name_H-M "A B A 2"
_symmetry_group_IT_number 41
_symmetry_cell_setting 'orthorhombic'
loop_
_space_group_symop_operation_xyz
x,y,z
-x,-y,z
1/2-x,y,1/2+z
1/2+x,-y,1/2+z
x,1/2+y,1/2+z
-x,1/2-y,1/2+z
1/2-x,1/2+y,z
1/2+x,1/2-y,z
loop_
_atom_site_type_symbol
_atom_site_label
_atom_site_fract_x
_atom_site_fract_y
_atom_site_fract_z
Si Si1 0.662738 0.107018 0.345970
Si Si2 0.175817 0.955043 0.998336
Si Si3 0.324271 0.307329 0.494587
Si Si4 0.052943 0.369014 0.593414
Si Si5 0.413533 0.372911 0.240024
Si Si6 0.191212 0.242355 0.841874
Si Si7 0.564330 0.777639 0.743634
Si Si8 0.050087 0.360640 0.093061
O O1 0.647513 0.101620 0.425952
O O2 0.729645 0.210136 0.338040
O O3 0.605304 0.174729 0.296415
O O4 0.681774 0.934293 0.334439
O O5 0.251084 0.884786 0.008066
O O6 0.183234 0.131393 0.004495
O O7 0.117378 0.913320 0.050439
O O8 0.336884 0.310283 0.413247
O O9 0.383389 0.371132 0.544368
O O10 0.083961 0.313416 0.663698
O O11 0.000000 0.500000 0.611920
O O12 0.002097 0.255022 0.558010
O O13 0.350648 0.315101 0.282036
O O14 0.485600 0.306166 0.267403
O O15 0.409795 0.551939 0.239119
O O16 0.567665 0.704939 0.668085
O O17 0.000000 0.500000 0.102651
#
# Coordination Sequence:
#
# PCOD9366324 Si02
#       8
#     8   8   8   8   8   8   8   8
#     4  10  22  39  60  88 118 158 196 247 291 350
#     4  10  22  40  64  86 121 158 200 244 298 352
#     4  10  22  42  60  90 120 157 200 246 294 355
#     4  11  20  42  63  85 122 160 192 243 302 352
#     4  10  20  39  61  85 118 157 189 242 294 350
#     4  10  22  39  62  85 121 155 199 243 294 350
#     4  10  21  39  60  85 121 152 193 241 296 348
#     4  11  24  40  61  91 123 154 199 249 294 356
#
# _framework density 18.423349999999999
#
# number of rings (size 3 to 8) (size 9 to 14) (size 15 to 20)
#    0.000    1.750    3.750    0.750    5.250    3.000 
#    2.250    2.500    0.000    0.000    0.000    0.000 
#    0.000    0.000    0.000    0.000    0.000    0.000 
#
# Total GULP energy -178221.331596 kJ/mol
# GULP energy per Si atom -5569.416612 kJ/mol
# Density = 1.838142 g / cm^3
# Si number density = 18.423350 Si / 1000 Ang^3
#
#
#
# Elastic Constant Matrix: (Units=GPa)
#
#
# Indices 1 2 3 4 5 6 
#
# 1 70.8235 34.2420 70.3589 0.0000 0.0000 0.0000
# 2 34.2420 55.3395 39.3760 0.0000 0.0000 0.0000
# 3 70.3589 39.3760 89.3928 0.0000 0.0000 0.0000
# 4 0.0000 0.0000 0.0000 10.3960 0.0000 0.0000
# 5 0.0000 0.0000 0.0000 0.0000 35.2941 0.0000
# 6 0.0000 0.0000 0.0000 0.0000 0.0000 -3.2738
#
#
#
# Elastic Compliance Matrix: (Units=1/GPa)
#
#
# Indices 1 2 3 4 5 6 
#
# 1 0.065930 -0.005640 -0.049407 0.000000 0.000000 0.000000
# 2 -0.005640 0.026802 -0.007367 0.000000 0.000000 0.000000
# 3 -0.049407 -0.007367 0.053319 0.000000 0.000000 0.000000
# 4 0.000000 0.000000 0.000000 0.096191 0.000000 0.000000
# 5 0.000000 0.000000 0.000000 0.000000 0.028333 0.000000
# 6 0.000000 0.000000 0.000000 0.000000 0.000000 -0.305455
#
#
# Mechanical properties :
#
#
# Convention : Reuss Voigt Hill
#
# Bulk Modulus (GPa) = 47.12015 55.94551 51.53283
# Shear Modulus (GPa) = 51.53540 13.25519 32.39529
#
# Velocity S-wave (km/s) = 5.29468 2.68522 4.19786
# Velocity P-wave (km/s) = 7.93788 6.32822 7.17831
#
# Compressibility (1/GPa) = 0.02122234
#
# Stress axis : x y z
#
# Youngs Moduli (GPa) = 15.16771 37.31120 18.75510
#
# Poissons Ratio (x) = 0.21043 0.92664
# Poissons Ratio (y) = 0.08554 0.13816
# Poissons Ratio (z) = 0.74940 0.27486
#
# Static dielectric constant tensor:
#      x y z
#    x 1.609790 0.000000 0.000000 
#    y 0.000000 1.704550 0.000000 
#    z 0.000000 0.000000 1.639500 
# 
# From -- ./inp_files/11663.got.cif
#   From: 2010.05.17/outbox.cif.g08.bks.cpg/sg41_6_cif.got.tgz:11663.got - 2010.06.03 18:54:24.
