data_PCOD9366380
_publ_section_title
;
Structure prediction by ZEFSAII (Michael W. Deem and Ramdas Pophale) SiO2 
 PCOD9366380
Probable space group: A B A 2
;
_chemical_formula_sum "Si O2"
_cell_formula_units_Z 48
_cell_length_a 9.883230
_cell_length_b 22.518145
_cell_length_c 9.298652
_cell_angle_alpha 90.000000
_cell_angle_beta 90.000000
_cell_angle_gamma 90.000000
_cell_volume 2069.433658
_symmetry_space_group_name_H-M "A B A 2"
_symmetry_group_IT_number 41
_symmetry_cell_setting 'orthorhombic'
loop_
_space_group_symop_operation_xyz
x,y,z
-x,-y,z
1/2-x,y,1/2+z
1/2+x,-y,1/2+z
x,1/2+y,1/2+z
-x,1/2-y,1/2+z
1/2-x,1/2+y,z
1/2+x,1/2-y,z
loop_
_atom_site_type_symbol
_atom_site_label
_atom_site_fract_x
_atom_site_fract_y
_atom_site_fract_z
Si Si1 0.071014 0.642793 0.982850
Si Si2 0.612984 0.050187 0.843268
Si Si3 0.856267 0.508775 0.539100
Si Si4 0.017517 0.177332 0.791774
Si Si5 0.688045 0.273791 0.285089
Si Si6 0.641472 0.377356 0.050205
O O1 0.952419 0.610885 0.899391
O O2 0.850001 0.778596 0.803382
O O3 0.101303 0.709231 0.928489
O O4 0.048346 0.637846 0.151995
O O5 0.500000 0.000000 0.870070
O O6 0.641783 0.052844 0.674018
O O7 0.742604 0.029081 0.931225
O O8 0.851321 0.443207 0.614005
O O9 0.000000 0.500000 0.460687
O O10 0.878773 0.210782 0.752580
O O11 0.023178 0.139760 0.938616
O O12 0.652517 0.324016 0.164980
O O13 0.721967 0.381419 0.453034
#
# Coordination Sequence:
#
# PCOD9366380 Si02
#       6
#     8   8   8   8   8   8
#     4  10  21  40  66  90 126 175 215 266 335 394
#     4  11  23  43  67  90 130 175 221 278 331 411
#     4  11  25  41  63  98 130 169 223 279 335 397
#     4  10  22  38  65  91 127 170 218 270 330 403
#     4  10  20  40  61  93 129 167 214 270 334 396
#     4  10  21  39  66  92 126 172 221 263 329 405
#
# _framework density 23.194752000000001
#
# number of rings (size 3 to 8) (size 9 to 14) (size 15 to 20)
#    0.000    1.667    1.667    3.000    4.667    2.000 
#    9.000    0.000    0.000    0.000    0.000    0.000 
#    0.000    0.000    0.000    0.000    0.000    0.000 
#
# Total GULP energy -133812.366192 kJ/mol
# GULP energy per Si atom -5575.515258 kJ/mol
# Density = 2.314196 g / cm^3
# Si number density = 23.194752 Si / 1000 Ang^3
#
#
#
# Elastic Constant Matrix: (Units=GPa)
#
#
# Indices 1 2 3 4 5 6 
#
# 1 121.7424 11.1264 28.3551 0.0000 0.0000 0.0000
# 2 11.1264 32.9895 -7.1029 0.0000 0.0000 0.0000
# 3 28.3551 -7.1029 91.8491 0.0000 0.0000 0.0000
# 4 0.0000 0.0000 0.0000 17.3222 0.0000 0.0000
# 5 0.0000 0.0000 0.0000 0.0000 37.8567 0.0000
# 6 0.0000 0.0000 0.0000 0.0000 0.0000 31.4872
#
#
#
# Elastic Compliance Matrix: (Units=1/GPa)
#
#
# Indices 1 2 3 4 5 6 
#
# 1 0.009301 -0.003819 -0.003167 0.000000 0.000000 0.000000
# 2 -0.003819 0.032394 0.003684 0.000000 0.000000 0.000000
# 3 -0.003167 0.003684 0.012150 0.000000 0.000000 0.000000
# 4 0.000000 0.000000 0.000000 0.057729 0.000000 0.000000
# 5 0.000000 0.000000 0.000000 0.000000 0.026415 0.000000
# 6 0.000000 0.000000 0.000000 0.000000 0.000000 0.031759
#
#
# Mechanical properties :
#
#
# Convention : Reuss Voigt Hill
#
# Bulk Modulus (GPa) = 21.16770 34.59315 27.88042
# Shear Modulus (GPa) = 26.02847 31.61339 28.82093
#
# Velocity S-wave (km/s) = 3.35352 3.69583 3.52882
# Velocity P-wave (km/s) = 4.91331 5.75836 5.35254
#
# Compressibility (1/GPa) = 0.04724179
#
# Stress axis : x y z
#
# Youngs Moduli (GPa) = 107.52021 30.87019 82.30547
#
# Poissons Ratio (x) = 0.11788 0.26062
# Poissons Ratio (y) = 0.41058 -0.30321
# Poissons Ratio (z) = 0.34047 -0.11372
#
# Static dielectric constant tensor:
#      x y z
#    x 1.932850 0.000000 0.000000 
#    y 0.000000 2.018800 0.000000 
#    z 0.000000 0.000000 1.923560 
# 
# From -- ./inp_files/2077.got.cif
#   From: 2010.05.17/outbox.cif.g08.bks.cpg/sg41_2_cif.got.tgz:2077.got - 2010.06.03 18:54:24.
