data_PCOD9366579
_publ_section_title
;
Structure prediction by ZEFSAII (Michael W. Deem and Ramdas Pophale) SiO2 
 PCOD9366579
Probable space group: A B A 2
;
_chemical_formula_sum "Si O2"
_cell_formula_units_Z 36
_cell_length_a 7.081321
_cell_length_b 25.175599
_cell_length_c 7.273924
_cell_angle_alpha 90.000000
_cell_angle_beta 90.000000
_cell_angle_gamma 90.000000
_cell_volume 1296.769697
_symmetry_space_group_name_H-M "A B A 2"
_symmetry_group_IT_number 41
_symmetry_cell_setting 'orthorhombic'
loop_
_space_group_symop_operation_xyz
x,y,z
-x,-y,z
1/2-x,y,1/2+z
1/2+x,-y,1/2+z
x,1/2+y,1/2+z
-x,1/2-y,1/2+z
1/2-x,1/2+y,z
1/2+x,1/2-y,z
loop_
_atom_site_type_symbol
_atom_site_label
_atom_site_fract_x
_atom_site_fract_y
_atom_site_fract_z
Si Si1 0.171349 0.199337 0.245210
Si Si2 0.500000 0.500000 0.651403
Si Si3 0.442203 0.310626 0.870288
Si Si4 0.402204 0.584922 0.341792
Si Si5 0.460818 0.924860 0.430929
O O1 0.391535 0.186406 0.220687
O O2 0.080083 0.149008 0.349544
O O3 0.174393 0.258534 0.327412
O O4 0.056247 0.199617 0.057613
O O5 0.469447 0.548573 0.509148
O O6 0.367828 0.470772 0.807680
O O7 0.356583 0.368978 0.895320
O O8 0.173394 0.579367 0.347043
O O9 0.493828 0.567812 0.146266
#
# Coordination Sequence:
#
# PCOD9366579 Si02
#       5
#     8   4   8   8   8
#     4  10  21  37  64  91 124 159 202 253 308 374
#     4  12  22  36  68  80 124 156 210 254 288 384
#     4  10  21  37  64  91 124 159 202 253 308 374
#     4  10  21  39  62  90 117 163 209 250 310 368
#     4  10  21  39  62  90 117 163 209 250 310 368
#
# _framework density 27.761289999999999
#
# number of rings (size 3 to 8) (size 9 to 14) (size 15 to 20)
#    0.000    1.778    2.222    2.000    6.222    0.000 
#    0.000    2.222    9.778    0.000    0.000    0.000 
#    0.000    0.000    0.000    0.000    0.000    0.000 
#
# Total GULP energy -100556.696317 kJ/mol
# GULP energy per Si atom -5586.483129 kJ/mol
# Density = 2.769810 g / cm^3
# Si number density = 27.761290 Si / 1000 Ang^3
#
#
#
# Elastic Constant Matrix: (Units=GPa)
#
#
# Indices 1 2 3 4 5 6 
#
# 1 59.6751 -2.1872 21.6455 0.0000 0.0000 0.0000
# 2 -2.1872 214.5920 93.4528 0.0000 0.0000 0.0000
# 3 21.6455 93.4528 217.9684 0.0000 0.0000 0.0000
# 4 0.0000 0.0000 0.0000 47.3198 0.0000 0.0000
# 5 0.0000 0.0000 0.0000 0.0000 -3.7139 0.0000
# 6 0.0000 0.0000 0.0000 0.0000 0.0000 23.9175
#
#
#
# Elastic Compliance Matrix: (Units=1/GPa)
#
#
# Indices 1 2 3 4 5 6 
#
# 1 0.017614 0.001157 -0.002245 0.000000 0.000000 0.000000
# 2 0.001157 0.005806 -0.002604 0.000000 0.000000 0.000000
# 3 -0.002245 -0.002604 0.005927 0.000000 0.000000 0.000000
# 4 0.000000 0.000000 0.000000 0.021133 0.000000 0.000000
# 5 0.000000 0.000000 0.000000 0.000000 -0.269259 0.000000
# 6 0.000000 0.000000 0.000000 0.000000 0.000000 0.041810
#
#
# Mechanical properties :
#
#
# Convention : Reuss Voigt Hill
#
# Bulk Modulus (GPa) = 45.53095 79.78419 62.65757
# Shear Modulus (GPa) = -30.81418 38.79298 3.98940
#
# Velocity S-wave (km/s) = -3.33523 3.74221 1.20007
# Velocity P-wave (km/s) = 1.26679 6.89013 4.95372
#
# Compressibility (1/GPa) = 0.02196308
#
# Stress axis : x y z
#
# Youngs Moduli (GPa) = 56.77212 172.23860 168.70998
#
# Poissons Ratio (x) = -0.19935 0.37882
# Poissons Ratio (y) = -0.06571 0.43935
# Poissons Ratio (z) = 0.12748 0.44854
#
# Static dielectric constant tensor:
#      x y z
#    x 2.222870 0.000000 0.000000 
#    y 0.000000 2.257190 0.000000 
#    z 0.000000 0.000000 2.156880 
# 
# From -- ./inp_files/2040.got.cif
#   From: 2010.05.17/outbox.cif.g08.bks.cpg/sg41_2_cif.got.tgz:2040.got - 2010.06.03 18:54:24.
