data_PCOD9366961
_publ_section_title
;
Structure prediction by ZEFSAII (Michael W. Deem and Ramdas Pophale) SiO2 
 PCOD9366961
Probable space group: A B A 2
;
_chemical_formula_sum "Si O2"
_cell_formula_units_Z 36
_cell_length_a 16.466758
_cell_length_b 19.408065
_cell_length_c 5.449031
_cell_angle_alpha 90.000000
_cell_angle_beta 90.000000
_cell_angle_gamma 90.000000
_cell_volume 1741.444427
_symmetry_space_group_name_H-M "A B A 2"
_symmetry_group_IT_number 41
_symmetry_cell_setting 'orthorhombic'
loop_
_space_group_symop_operation_xyz
x,y,z
-x,-y,z
1/2-x,y,1/2+z
1/2+x,-y,1/2+z
x,1/2+y,1/2+z
-x,1/2-y,1/2+z
1/2-x,1/2+y,z
1/2+x,1/2-y,z
loop_
_atom_site_type_symbol
_atom_site_label
_atom_site_fract_x
_atom_site_fract_y
_atom_site_fract_z
Si Si1 0.931013 0.099491 0.192410
Si Si2 0.500000 0.000000 0.332382
Si Si3 0.406689 0.104226 0.980555
Si Si4 0.201680 0.979000 0.438696
Si Si5 0.446617 0.251882 0.094431
O O1 0.876951 0.070351 0.412342
O O2 0.902574 0.174376 0.107474
O O3 0.025997 0.106855 0.264845
O O4 0.933040 0.039260 0.994091
O O5 0.545681 0.941109 0.181916
O O6 0.394118 0.182588 0.063510
O O7 0.329157 0.058126 0.921963
O O8 0.245512 0.965897 0.695401
O O9 0.495498 0.244829 0.352635
#
# Coordination Sequence:
#
# PCOD9366961 Si02
#       5
#     8   4   8   8   8
#     4  11  22  39  64  94 121 163 211 264 310 369
#     4  12  16  36  68  92 120 152 214 254 318 342
#     4  11  22  39  64  94 121 163 211 264 310 369
#     4  12  26  40  61  93 130 168 210 254 310 374
#     4  10  22  36  62  96 124 152 206 268 316 360
#
# _framework density 20.672495999999999
#
# number of rings (size 3 to 8) (size 9 to 14) (size 15 to 20)
#    0.000    0.889    6.667    1.333    0.000    0.000 
#    0.000    2.222    0.000    0.000    0.000    0.000 
#    0.000    0.000    0.000    0.000    0.000    0.000 
#
# Total GULP energy -100462.870114 kJ/mol
# GULP energy per Si atom -5581.270562 kJ/mol
# Density = 2.062544 g / cm^3
# Si number density = 20.672496 Si / 1000 Ang^3
#
#
#
# Elastic Constant Matrix: (Units=GPa)
#
#
# Indices 1 2 3 4 5 6 
#
# 1 31.4704 0.1581 18.8559 0.0000 0.0000 0.0000
# 2 0.1581 158.7157 15.2615 0.0000 0.0000 0.0000
# 3 18.8559 15.2615 101.1231 0.0000 0.0000 0.0000
# 4 0.0000 0.0000 0.0000 32.2285 0.0000 0.0000
# 5 0.0000 0.0000 0.0000 0.0000 35.9298 0.0000
# 6 0.0000 0.0000 0.0000 0.0000 0.0000 16.2024
#
#
#
# Elastic Compliance Matrix: (Units=1/GPa)
#
#
# Indices 1 2 3 4 5 6 
#
# 1 0.035832 0.000616 -0.006774 0.000000 0.000000 0.000000
# 2 0.000616 0.006404 -0.001081 0.000000 0.000000 0.000000
# 3 -0.006774 -0.001081 0.011315 0.000000 0.000000 0.000000
# 4 0.000000 0.000000 0.000000 0.031028 0.000000 0.000000
# 5 0.000000 0.000000 0.000000 0.000000 0.027832 0.000000
# 6 0.000000 0.000000 0.000000 0.000000 0.000000 0.061719
#
#
# Mechanical properties :
#
#
# Convention : Reuss Voigt Hill
#
# Bulk Modulus (GPa) = 25.59432 39.98448 32.78940
# Shear Modulus (GPa) = 24.79738 34.00772 29.40255
#
# Velocity S-wave (km/s) = 3.46719 4.06035 3.77543
# Velocity P-wave (km/s) = 5.33257 6.43162 5.90771
#
# Compressibility (1/GPa) = 0.03907117
#
# Stress axis : x y z
#
# Youngs Moduli (GPa) = 27.90827 156.15404 88.37606
#
# Poissons Ratio (x) = -0.09614 0.59868
# Poissons Ratio (y) = -0.01718 0.09556
# Poissons Ratio (z) = 0.18906 0.16885
#
# Static dielectric constant tensor:
#      x y z
#    x 1.784230 0.000000 0.000000 
#    y 0.000000 1.756120 0.000000 
#    z 0.000000 0.000000 1.791960 
# 
# From -- ./inp_files/210.got.cif
#   From: 2010.05.17/outbox.cif.g08.bks.cpg/sg41_1_cif.got.tgz:210.got - 2010.06.03 18:54:24.
