data_PCOD9366925
_publ_section_title
;
Structure prediction by ZEFSAII (Michael W. Deem and Ramdas Pophale) SiO2 
 PCOD9366925
Probable space group: A B A 2
;
_chemical_formula_sum "Si O2"
_cell_formula_units_Z 60
_cell_length_a 8.797151
_cell_length_b 12.989603
_cell_length_c 23.768568
_cell_angle_alpha 90.000000
_cell_angle_beta 90.000000
_cell_angle_gamma 90.000000
_cell_volume 2716.069895
_symmetry_space_group_name_H-M "A B A 2"
_symmetry_group_IT_number 41
_symmetry_cell_setting 'orthorhombic'
loop_
_space_group_symop_operation_xyz
x,y,z
-x,-y,z
1/2-x,y,1/2+z
1/2+x,-y,1/2+z
x,1/2+y,1/2+z
-x,1/2-y,1/2+z
1/2-x,1/2+y,z
1/2+x,1/2-y,z
loop_
_atom_site_type_symbol
_atom_site_label
_atom_site_fract_x
_atom_site_fract_y
_atom_site_fract_z
Si Si1 0.886661 0.409603 0.730860
Si Si2 0.990591 0.693184 0.619448
Si Si3 0.639119 0.324099 0.445731
Si Si4 0.450396 0.602377 0.688385
Si Si5 0.000000 0.000000 0.508434
Si Si6 0.113771 0.743750 0.365315
Si Si7 0.634356 0.691019 0.788261
Si Si8 0.218342 0.314798 0.044539
O O1 0.951212 0.376355 0.669960
O O2 0.706456 0.423470 0.720275
O O3 0.888443 0.310410 0.770993
O O4 0.000000 0.500000 0.750622
O O5 0.122330 0.725997 0.576357
O O6 0.932908 0.798827 0.649208
O O7 0.850008 0.646618 0.586066
O O8 0.622928 0.434363 0.473697
O O9 0.758457 0.321770 0.395691
O O10 0.479540 0.299361 0.414897
O O11 0.695471 0.238717 0.491390
O O12 0.500000 0.500000 0.656098
O O13 0.585476 0.630479 0.732487
O O14 0.900723 0.092983 0.534856
O O15 0.203695 0.814202 0.319401
O O16 0.995096 0.671075 0.333828
#
# Coordination Sequence:
#
# PCOD9366925 Si02
#       8
#     8   8   8   8   4   8   8   8
#     4  11  25  41  64 103 139 180 236 289 344 424
#     4  11  25  43  71  95 142 185 227 287 358 418
#     4  11  23  46  70 103 136 178 236 299 351 423
#     4  11  25  41  65 101 140 181 232 287 345 422
#     4  12  26  44  78  98 140 188 238 300 366 412
#     4  10  21  44  72  90 138 181 224 294 356 412
#     4  10  22  44  65  94 136 184 224 281 357 407
#     4  12  24  46  71 103 139 185 240 298 354 430
#
# _framework density 22.090741999999999
#
# number of rings (size 3 to 8) (size 9 to 14) (size 15 to 20)
#    0.000    1.067    5.333    0.000    4.667    1.067 
#    7.200    2.000    0.000    0.000    0.000    0.000 
#    0.000    0.000    0.000    0.000    0.000    0.000 
#
# Total GULP energy -167438.546614 kJ/mol
# GULP energy per Si atom -5581.284887 kJ/mol
# Density = 2.204046 g / cm^3
# Si number density = 22.090742 Si / 1000 Ang^3
#
#
#
# Elastic Constant Matrix: (Units=GPa)
#
#
# Indices 1 2 3 4 5 6 
#
# 1 111.7160 17.8850 26.8914 0.0000 0.0000 0.0000
# 2 17.8850 88.6857 22.8598 0.0000 0.0000 0.0000
# 3 26.8914 22.8598 78.3001 0.0000 0.0000 0.0000
# 4 0.0000 0.0000 0.0000 5.2359 0.0000 0.0000
# 5 0.0000 0.0000 0.0000 0.0000 46.2426 0.0000
# 6 0.0000 0.0000 0.0000 0.0000 0.0000 20.9047
#
#
#
# Elastic Compliance Matrix: (Units=1/GPa)
#
#
# Indices 1 2 3 4 5 6 
#
# 1 0.009876 -0.001208 -0.003039 0.000000 0.000000 0.000000
# 2 -0.001208 0.012341 -0.003188 0.000000 0.000000 0.000000
# 3 -0.003039 -0.003188 0.014746 0.000000 0.000000 0.000000
# 4 0.000000 0.000000 0.000000 0.190990 0.000000 0.000000
# 5 0.000000 0.000000 0.000000 0.000000 0.021625 0.000000
# 6 0.000000 0.000000 0.000000 0.000000 0.000000 0.047836
#
#
# Mechanical properties :
#
#
# Convention : Reuss Voigt Hill
#
# Bulk Modulus (GPa) = 45.26455 45.99713 45.63084
# Shear Modulus (GPa) = 15.64211 28.54767 22.09489
#
# Velocity S-wave (km/s) = 2.66387 3.59875 3.16601
# Velocity P-wave (km/s) = 5.47690 6.17536 5.83659
#
# Compressibility (1/GPa) = 0.02209234
#
# Stress axis : x y z
#
# Youngs Moduli (GPa) = 101.25274 81.02931 67.81550
#
# Poissons Ratio (x) = 0.09791 0.20610
# Poissons Ratio (y) = 0.12235 0.21620
# Poissons Ratio (z) = 0.30772 0.25832
#
# Static dielectric constant tensor:
#      x y z
#    x 1.849810 0.000000 0.000000 
#    y 0.000000 1.787960 0.000000 
#    z 0.000000 0.000000 1.852430 
# 
# From -- ./inp_files/12448.got.cif
#   From: 2010.05.17/outbox.cif.g08.bks.cpg/sg41_7_cif.got.tgz:12448.got - 2010.06.03 18:54:24.
