data_PCOD9366561
_publ_section_title
;
Structure prediction by ZEFSAII (Michael W. Deem and Ramdas Pophale) SiO2 
 PCOD9366561
Probable space group: A B A 2
;
_chemical_formula_sum "Si O2"
_cell_formula_units_Z 40
_cell_length_a 4.777293
_cell_length_b 27.240464
_cell_length_c 13.167418
_cell_angle_alpha 90.000000
_cell_angle_beta 90.000000
_cell_angle_gamma 90.000000
_cell_volume 1713.550869
_symmetry_space_group_name_H-M "A B A 2"
_symmetry_group_IT_number 41
_symmetry_cell_setting 'orthorhombic'
loop_
_space_group_symop_operation_xyz
x,y,z
-x,-y,z
1/2-x,y,1/2+z
1/2+x,-y,1/2+z
x,1/2+y,1/2+z
-x,1/2-y,1/2+z
1/2-x,1/2+y,z
1/2+x,1/2-y,z
loop_
_atom_site_type_symbol
_atom_site_label
_atom_site_fract_x
_atom_site_fract_y
_atom_site_fract_z
Si Si1 0.730859 0.568439 0.279150
Si Si2 0.435749 0.781099 0.173301
Si Si3 0.499747 0.782735 0.933272
Si Si4 0.753740 0.864017 0.795848
Si Si5 0.000000 0.500000 0.957167
Si Si6 0.500000 0.500000 0.104007
O O1 0.528760 0.613601 0.251613
O O2 0.619878 0.541426 0.380740
O O3 0.681383 0.533432 0.182282
O O4 0.036702 0.589494 0.305055
O O5 0.116176 0.768130 0.196353
O O6 0.571780 0.826343 0.228821
O O7 0.482635 0.788624 0.053947
O O8 0.190185 0.764560 0.905042
O O9 0.637824 0.831634 0.889363
O O10 0.744295 0.480665 0.027988
#
# Coordination Sequence:
#
# PCOD9366561 Si02
#       6
#     8   8   8   8   4   4
#     4  11  26  41  64 101 122 155 216 257 308 393
#     4  10  21  37  57  84 122 168 209 245 298 360
#     4  10  21  37  57  84 122 168 209 245 298 360
#     4  12  22  38  62  91 128 157 204 268 306 350
#     4  11  24  47  70  88 126 167 196 253 328 384
#     4  11  24  47  70  88 126 167 196 253 328 384
#
# _framework density 23.343337999999999
#
# number of rings (size 3 to 8) (size 9 to 14) (size 15 to 20)
#    0.000    1.200    0.000    6.000    0.000    8.000 
#    0.000    0.000    0.000    0.000    0.000    0.000 
#    0.000    0.000    0.000    0.000    0.000    0.000 
#
# Total GULP energy -111741.191841 kJ/mol
# GULP energy per Si atom -5587.059592 kJ/mol
# Density = 2.329021 g / cm^3
# Si number density = 23.343338 Si / 1000 Ang^3
#
#
#
# Elastic Constant Matrix: (Units=GPa)
#
#
# Indices 1 2 3 4 5 6 
#
# 1 131.1021 12.7098 11.5784 0.0000 0.0000 0.0000
# 2 12.7098 55.7989 17.3204 0.0000 0.0000 0.0000
# 3 11.5784 17.3204 95.2097 0.0000 0.0000 0.0000
# 4 0.0000 0.0000 0.0000 7.9499 0.0000 0.0000
# 5 0.0000 0.0000 0.0000 0.0000 22.5540 0.0000
# 6 0.0000 0.0000 0.0000 0.0000 0.0000 39.2782
#
#
#
# Elastic Compliance Matrix: (Units=1/GPa)
#
#
# Indices 1 2 3 4 5 6 
#
# 1 0.007840 -0.001579 -0.000666 0.000000 0.000000 0.000000
# 2 -0.001579 0.019312 -0.003321 0.000000 0.000000 0.000000
# 3 -0.000666 -0.003321 0.011188 0.000000 0.000000 0.000000
# 4 0.000000 0.000000 0.000000 0.125788 0.000000 0.000000
# 5 0.000000 0.000000 0.000000 0.000000 0.044338 0.000000
# 6 0.000000 0.000000 0.000000 0.000000 0.000000 0.025459
#
#
# Mechanical properties :
#
#
# Convention : Reuss Voigt Hill
#
# Bulk Modulus (GPa) = 36.75465 40.59198 38.67331
# Shear Modulus (GPa) = 19.67518 29.98989 24.83253
#
# Velocity S-wave (km/s) = 2.90636 3.58820 3.26513
# Velocity P-wave (km/s) = 5.20019 5.88165 5.55138
#
# Compressibility (1/GPa) = 0.02720744
#
# Stress axis : x y z
#
# Youngs Moduli (GPa) = 127.55846 51.78112 89.37888
#
# Poissons Ratio (x) = 0.08176 0.05954
# Poissons Ratio (y) = 0.20140 0.29685
# Poissons Ratio (z) = 0.08497 0.17198
#
# Static dielectric constant tensor:
#      x y z
#    x 1.866660 0.000000 0.000000 
#    y 0.000000 1.949250 0.000000 
#    z 0.000000 0.000000 1.893200 
# 
# From -- ./inp_files/6829.got.cif
#   From: 2010.05.17/outbox.cif.g08.bks.cpg/sg41_4_cif.got.tgz:6829.got - 2010.06.03 18:54:24.
