data_PCOD9366564
_publ_section_title
;
Structure prediction by ZEFSAII (Michael W. Deem and Ramdas Pophale) SiO2 
 PCOD9366564
Probable space group: A B A 2
;
_chemical_formula_sum "Si O2"
_cell_formula_units_Z 48
_cell_length_a 9.886610
_cell_length_b 23.621881
_cell_length_c 8.114892
_cell_angle_alpha 90.000000
_cell_angle_beta 90.000000
_cell_angle_gamma 90.000000
_cell_volume 1895.154514
_symmetry_space_group_name_H-M "A B A 2"
_symmetry_group_IT_number 41
_symmetry_cell_setting 'orthorhombic'
loop_
_space_group_symop_operation_xyz
x,y,z
-x,-y,z
1/2-x,y,1/2+z
1/2+x,-y,1/2+z
x,1/2+y,1/2+z
-x,1/2-y,1/2+z
1/2-x,1/2+y,z
1/2+x,1/2-y,z
loop_
_atom_site_type_symbol
_atom_site_label
_atom_site_fract_x
_atom_site_fract_y
_atom_site_fract_z
Si Si1 0.411200 0.588215 0.844160
Si Si2 0.327643 0.134060 0.997377
Si Si3 0.337725 0.297642 0.591198
Si Si4 0.824985 0.036946 0.752418
Si Si5 0.414179 0.416084 0.418899
Si Si6 0.918334 0.240316 0.944930
O O1 0.378536 0.626015 0.683663
O O2 0.569901 0.576057 0.855632
O O3 0.345282 0.526575 0.812814
O O4 0.327968 0.617064 0.988219
O O5 0.426222 0.091471 0.896179
O O6 0.358554 0.196110 0.929707
O O7 0.366316 0.355723 0.494407
O O8 0.427296 0.249899 0.497107
O O9 0.177843 0.286656 0.584100
O O10 0.391299 0.293355 0.777364
O O11 0.877729 0.041124 0.566426
O O12 0.676512 0.062754 0.769560
#
# Coordination Sequence:
#
# PCOD9366564 Si02
#       6
#     8   8   8   8   8   8
#     4  10  21  38  59  86 117 153 194 241 294 354
#     4  10  22  39  59  86 117 152 195 243 296 354
#     4  11  23  39  61  89 121 160 205 254 308 369
#     4  10  21  37  59  85 118 155 194 240 293 351
#     4  10  22  39  58  85 118 154 196 242 293 352
#     4  11  23  40  62  89 121 160 204 254 310 370
#
# _framework density 25.327752
#
# number of rings (size 3 to 8) (size 9 to 14) (size 15 to 20)
#    0.000    1.667    0.000    4.000    0.000    8.667 
#    0.000    0.000    0.000    0.000    0.000    0.000 
#    0.000    0.000    0.000    0.000    0.000    0.000 
#
# Total GULP energy -134336.845366 kJ/mol
# GULP energy per Si atom -5597.368557 kJ/mol
# Density = 2.527010 g / cm^3
# Si number density = 25.327752 Si / 1000 Ang^3
#
#
#
# Elastic Constant Matrix: (Units=GPa)
#
#
# Indices 1 2 3 4 5 6 
#
# 1 60.0154 6.4360 15.4923 0.0000 0.0000 0.0000
# 2 6.4360 100.2677 13.1897 0.0000 0.0000 0.0000
# 3 15.4923 13.1897 55.5641 0.0000 0.0000 0.0000
# 4 0.0000 0.0000 0.0000 23.0894 0.0000 0.0000
# 5 0.0000 0.0000 0.0000 0.0000 31.7790 0.0000
# 6 0.0000 0.0000 0.0000 0.0000 0.0000 41.2995
#
#
#
# Elastic Compliance Matrix: (Units=1/GPa)
#
#
# Indices 1 2 3 4 5 6 
#
# 1 0.017980 -0.000511 -0.004892 0.000000 0.000000 0.000000
# 2 -0.000511 0.010309 -0.002305 0.000000 0.000000 0.000000
# 3 -0.004892 -0.002305 0.019908 0.000000 0.000000 0.000000
# 4 0.000000 0.000000 0.000000 0.043310 0.000000 0.000000
# 5 0.000000 0.000000 0.000000 0.000000 0.031467 0.000000
# 6 0.000000 0.000000 0.000000 0.000000 0.000000 0.024213
#
#
# Mechanical properties :
#
#
# Convention : Reuss Voigt Hill
#
# Bulk Modulus (GPa) = 30.50380 31.78703 31.14542
# Shear Modulus (GPa) = 28.81339 31.28220 30.04779
#
# Velocity S-wave (km/s) = 3.37652 3.51821 3.44809
# Velocity P-wave (km/s) = 5.22216 5.39270 5.30812
#
# Compressibility (1/GPa) = 0.03278280
#
# Stress axis : x y z
#
# Youngs Moduli (GPa) = 55.61755 97.00017 50.23024
#
# Poissons Ratio (x) = 0.04953 0.24572
# Poissons Ratio (y) = 0.02840 0.11577
# Poissons Ratio (z) = 0.27208 0.22357
#
# Static dielectric constant tensor:
#      x y z
#    x 2.025020 0.000000 0.000000 
#    y 0.000000 2.000140 0.000000 
#    z 0.000000 0.000000 1.985560 
# 
# From -- ./inp_files/1780.got.cif
#   From: 2010.05.17/outbox.cif.g08.bks.cpg/sg41_1_cif.got.tgz:1780.got - 2010.06.03 18:54:24.
