data_PCOD9366727
_publ_section_title
;
Structure prediction by ZEFSAII (Michael W. Deem and Ramdas Pophale) SiO2 
 PCOD9366727
Probable space group: A B A 2
;
_chemical_formula_sum "Si O2"
_cell_formula_units_Z 64
_cell_length_a 8.048026
_cell_length_b 14.823829
_cell_length_c 22.400803
_cell_angle_alpha 90.000000
_cell_angle_beta 90.000000
_cell_angle_gamma 90.000000
_cell_volume 2672.473171
_symmetry_space_group_name_H-M "A B A 2"
_symmetry_group_IT_number 41
_symmetry_cell_setting 'orthorhombic'
loop_
_space_group_symop_operation_xyz
x,y,z
-x,-y,z
1/2-x,y,1/2+z
1/2+x,-y,1/2+z
x,1/2+y,1/2+z
-x,1/2-y,1/2+z
1/2-x,1/2+y,z
1/2+x,1/2-y,z
loop_
_atom_site_type_symbol
_atom_site_label
_atom_site_fract_x
_atom_site_fract_y
_atom_site_fract_z
Si Si1 0.210376 0.631617 0.633290
Si Si2 0.173676 0.555641 0.258924
Si Si3 0.507023 0.776243 0.316279
Si Si4 0.184218 0.337416 0.633355
Si Si5 0.679908 0.122859 0.005010
Si Si6 0.692435 0.622726 0.267361
Si Si7 0.821953 0.946678 0.008564
Si Si8 0.500734 0.277317 0.955167
O O1 0.269286 0.583047 0.692942
O O2 0.289067 0.730478 0.632502
O O3 0.249450 0.579502 0.572883
O O4 0.010683 0.640840 0.630822
O O5 0.137409 0.646478 0.295637
O O6 0.302864 0.481938 0.284403
O O7 0.000000 0.500000 0.257632
O O8 0.532149 0.685036 0.278022
O O9 0.331247 0.822943 0.303750
O O10 0.519931 0.756713 0.385841
O O11 0.276834 0.375642 0.575427
O O12 0.242572 0.372573 0.697586
O O13 0.697643 0.021046 0.981956
O O14 0.523648 0.185467 0.992159
O O15 0.825565 0.178408 0.971611
O O16 0.868340 0.855580 0.973976
O O17 0.000000 0.000000 0.014979
#
# Coordination Sequence:
#
# PCOD9366727 Si02
#       8
#     8   8   8   8   8   8   8   8
#     4  12  23  42  67 103 138 173 220 279 340 416
#     4  10  25  42  64  97 134 172 221 272 339 398
#     4  11  24  44  62  94 129 174 225 272 327 404
#     4  12  22  40  72  94 136 169 218 274 347 399
#     4  11  22  42  66  94 126 168 218 277 336 394
#     4  11  24  42  66  93 131 172 214 277 337 395
#     4  10  21  40  63  97 125 170 220 267 333 402
#     4  11  23  41  68  90 127 172 226 270 323 401
#
# _framework density 23.947854
#
# number of rings (size 3 to 8) (size 9 to 14) (size 15 to 20)
#    0.000    1.000    5.000    2.250    1.750    5.500 
#    2.250    0.625    0.000    3.000    0.000    0.000 
#    0.000    0.000    0.000    0.000    0.000    0.000 
#
# Total GULP energy -179205.231086 kJ/mol
# GULP energy per Si atom -5600.163471 kJ/mol
# Density = 2.389335 g / cm^3
# Si number density = 23.947854 Si / 1000 Ang^3
#
#
#
# Elastic Constant Matrix: (Units=GPa)
#
#
# Indices 1 2 3 4 5 6 
#
# 1 57.3125 6.1006 0.7958 0.0000 0.0000 0.0000
# 2 6.1006 111.8536 -4.5520 0.0000 0.0000 0.0000
# 3 0.7958 -4.5520 108.8588 0.0000 0.0000 0.0000
# 4 0.0000 0.0000 0.0000 -2.7976 0.0000 0.0000
# 5 0.0000 0.0000 0.0000 0.0000 31.2688 0.0000
# 6 0.0000 0.0000 0.0000 0.0000 0.0000 27.7861
#
#
#
# Elastic Compliance Matrix: (Units=1/GPa)
#
#
# Indices 1 2 3 4 5 6 
#
# 1 0.017553 -0.000964 -0.000169 0.000000 0.000000 0.000000
# 2 -0.000964 0.009008 0.000384 0.000000 0.000000 0.000000
# 3 -0.000169 0.000384 0.009203 0.000000 0.000000 0.000000
# 4 0.000000 0.000000 0.000000 -0.357449 0.000000 0.000000
# 5 0.000000 0.000000 0.000000 0.000000 0.031981 0.000000
# 6 0.000000 0.000000 0.000000 0.000000 0.000000 0.035989
#
#
# Mechanical properties :
#
#
# Convention : Reuss Voigt Hill
#
# Bulk Modulus (GPa) = 29.18268 31.41261 30.29765
# Shear Modulus (GPa) = -20.76468 29.63017 4.43275
#
# Velocity S-wave (km/s) = -2.94781 3.52131 1.36199
# Velocity P-wave (km/s) = 0.79135 5.44779 3.89260
#
# Compressibility (1/GPa) = 0.03426690
#
# Stress axis : x y z
#
# Youngs Moduli (GPa) = 56.96976 111.00667 108.65440
#
# Poissons Ratio (x) = 0.10704 0.01832
# Poissons Ratio (y) = 0.05493 -0.04170
# Poissons Ratio (z) = 0.00961 -0.04260
#
# Static dielectric constant tensor:
#      x y z
#    x 2.018400 0.000000 0.000000 
#    y 0.000000 1.901970 0.000000 
#    z 0.000000 0.000000 1.858660 
# 
# From -- ./inp_files/12060.got.cif
#   From: 2010.05.17/outbox.cif.g08.bks.cpg/sg41_7_cif.got.tgz:12060.got - 2010.06.03 18:54:24.
