data_PCOD9366922
_publ_section_title
;
Structure prediction by ZEFSAII (Michael W. Deem and Ramdas Pophale) SiO2 
 PCOD9366922
Probable space group: A B A 2
;
_chemical_formula_sum "Si O2"
_cell_formula_units_Z 44
_cell_length_a 14.154367
_cell_length_b 16.275395
_cell_length_c 8.306553
_cell_angle_alpha 90.000000
_cell_angle_beta 90.000000
_cell_angle_gamma 90.000000
_cell_volume 1913.563286
_symmetry_space_group_name_H-M "A B A 2"
_symmetry_group_IT_number 41
_symmetry_cell_setting 'orthorhombic'
loop_
_space_group_symop_operation_xyz
x,y,z
-x,-y,z
1/2-x,y,1/2+z
1/2+x,-y,1/2+z
x,1/2+y,1/2+z
-x,1/2-y,1/2+z
1/2-x,1/2+y,z
1/2+x,1/2-y,z
loop_
_atom_site_type_symbol
_atom_site_label
_atom_site_fract_x
_atom_site_fract_y
_atom_site_fract_z
Si Si1 0.905722 0.135180 0.046880
Si Si2 0.215644 0.225843 0.669886
Si Si3 0.850263 0.933682 0.491595
Si Si4 0.500000 0.000000 0.767449
Si Si5 0.108776 0.177001 0.997819
Si Si6 0.843333 0.993424 0.848348
O O1 0.816510 0.185939 0.108662
O O2 0.934790 0.062559 0.168683
O O3 0.876982 0.083912 0.890582
O O4 0.997736 0.192968 0.021562
O O5 0.174322 0.157887 0.546891
O O6 0.163433 0.213204 0.841365
O O7 0.327153 0.205065 0.649895
O O8 0.862081 0.978248 0.662163
O O9 0.765286 0.975992 0.392958
O O10 0.939629 0.941025 0.380761
O O11 0.109090 0.078793 0.957552
#
# Coordination Sequence:
#
# PCOD9366922 Si02
#       6
#     8   8   8   4   8   8
#     4  12  25  44  71 104 138 182 235 289 346 417
#     4  10  26  43  68  97 137 179 222 283 354 404
#     4  10  24  43  68  99 139 180 230 286 354 414
#     4  12  26  40  68 102 136 182 236 288 342 418
#     4  10  23  44  67  96 138 175 224 282 344 407
#     4  10  21  44  70  99 133 181 225 288 340 413
#
# _framework density 22.993749999999999
#
# number of rings (size 3 to 8) (size 9 to 14) (size 15 to 20)
#    0.000    1.455    1.818    1.091   15.273    2.909 
#    0.000    0.000    0.000    0.000    0.000    0.000 
#    0.000    0.000    0.000    0.000    0.000    0.000 
#
# Total GULP energy -122954.333481 kJ/mol
# GULP energy per Si atom -5588.833340 kJ/mol
# Density = 2.294142 g / cm^3
# Si number density = 22.993750 Si / 1000 Ang^3
#
#
#
# Elastic Constant Matrix: (Units=GPa)
#
#
# Indices 1 2 3 4 5 6 
#
# 1 35.3176 10.1277 -3.9104 0.0000 0.0000 0.0000
# 2 10.1277 74.6496 23.8535 0.0000 0.0000 0.0000
# 3 -3.9104 23.8535 81.1216 0.0000 0.0000 0.0000
# 4 0.0000 0.0000 0.0000 13.3563 0.0000 0.0000
# 5 0.0000 0.0000 0.0000 0.0000 33.8025 0.0000
# 6 0.0000 0.0000 0.0000 0.0000 0.0000 36.2371
#
#
#
# Elastic Compliance Matrix: (Units=1/GPa)
#
#
# Indices 1 2 3 4 5 6 
#
# 1 0.030076 -0.005015 0.002924 0.000000 0.000000 0.000000
# 2 -0.005015 0.015621 -0.004835 0.000000 0.000000 0.000000
# 3 0.002924 -0.004835 0.013890 0.000000 0.000000 0.000000
# 4 0.000000 0.000000 0.000000 0.074871 0.000000 0.000000
# 5 0.000000 0.000000 0.000000 0.000000 0.029584 0.000000
# 6 0.000000 0.000000 0.000000 0.000000 0.000000 0.027596
#
#
# Mechanical properties :
#
#
# Convention : Reuss Voigt Hill
#
# Bulk Modulus (GPa) = 21.86448 27.91450 24.88949
# Shear Modulus (GPa) = 22.65159 27.41373 25.03266
#
# Velocity S-wave (km/s) = 3.14207 3.45661 3.30308
# Velocity P-wave (km/s) = 4.76371 5.30068 5.03936
#
# Compressibility (1/GPa) = 0.04573629
#
# Stress axis : x y z
#
# Youngs Moduli (GPa) = 33.24870 64.01512 71.99484
#
# Poissons Ratio (x) = 0.32103 -0.21054
# Poissons Ratio (y) = 0.16674 0.34810
# Poissons Ratio (z) = -0.09723 0.30952
#
# Static dielectric constant tensor:
#      x y z
#    x 1.888950 0.000000 0.000000 
#    y 0.000000 1.825880 0.000000 
#    z 0.000000 0.000000 1.860900 
# 
# From -- ./inp_files/2487.got.cif
#   From: 2010.05.17/outbox.cif.g08.bks.cpg/sg41_2_cif.got.tgz:2487.got - 2010.06.03 18:54:24.
