data_PCOD9366678
_publ_section_title
;
Structure prediction by ZEFSAII (Michael W. Deem and Ramdas Pophale) SiO2 
 PCOD9366678
Probable space group: A B A 2
;
_chemical_formula_sum "Si O2"
_cell_formula_units_Z 52
_cell_length_a 24.210838
_cell_length_b 7.610136
_cell_length_c 12.576595
_cell_angle_alpha 90.000000
_cell_angle_beta 90.000000
_cell_angle_gamma 90.000000
_cell_volume 2317.209581
_symmetry_space_group_name_H-M "A B A 2"
_symmetry_group_IT_number 41
_symmetry_cell_setting 'orthorhombic'
loop_
_space_group_symop_operation_xyz
x,y,z
-x,-y,z
1/2-x,y,1/2+z
1/2+x,-y,1/2+z
x,1/2+y,1/2+z
-x,1/2-y,1/2+z
1/2-x,1/2+y,z
1/2+x,1/2-y,z
loop_
_atom_site_type_symbol
_atom_site_label
_atom_site_fract_x
_atom_site_fract_y
_atom_site_fract_z
Si Si1 0.213748 0.702931 0.681100
Si Si2 0.927127 0.305865 0.306188
Si Si3 0.033466 0.716053 0.523926
Si Si4 0.000000 0.000000 0.214322
Si Si5 0.810562 0.621575 0.812490
Si Si6 0.076206 0.591254 0.072894
Si Si7 0.806767 0.473646 0.046960
O O1 0.180236 0.546165 0.735217
O O2 0.257098 0.778129 0.767528
O O3 0.252371 0.622602 0.588369
O O4 0.182493 0.866842 0.629932
O O5 0.947126 0.382009 0.418084
O O6 0.863638 0.246343 0.312348
O O7 0.934324 0.418037 0.199453
O O8 0.964902 0.134162 0.283941
O O9 0.039157 0.606569 0.632111
O O10 0.969635 0.779571 0.524954
O O11 0.067237 0.897743 0.526512
O O12 0.800172 0.549807 0.930052
O O13 0.138877 0.647281 0.051525
#
# Coordination Sequence:
#
# PCOD9366678 Si02
#       7
#     8   8   8   4   8   8   8
#     4  10  24  40  61  90 125 160 205 249 299 359
#     4  11  22  39  63  88 122 157 201 247 304 362
#     4  10  22  41  60  87 120 159 197 250 302 358
#     4  10  24  38  60  90 118 152 210 244 292 372
#     4  11  22  39  64  89 120 164 202 245 306 359
#     4  10  21  39  63  87 122 157 197 248 309 353
#     4  11  21  41  63  88 125 158 199 255 296 362
#
# _framework density 22.440783
#
# number of rings (size 3 to 8) (size 9 to 14) (size 15 to 20)
#    0.000    1.538    3.077    1.846    2.154    2.462 
#    0.000    3.077    0.000    0.000    0.000    0.000 
#    0.000    0.000    0.000    0.000    0.000    0.000 
#
# Total GULP energy -145407.854309 kJ/mol
# GULP energy per Si atom -5592.609781 kJ/mol
# Density = 2.238971 g / cm^3
# Si number density = 22.440783 Si / 1000 Ang^3
#
#
#
# Elastic Constant Matrix: (Units=GPa)
#
#
# Indices 1 2 3 4 5 6 
#
# 1 77.7364 -1.5280 34.4346 0.0000 0.0000 0.0000
# 2 -1.5280 30.7069 -7.1925 0.0000 0.0000 0.0000
# 3 34.4346 -7.1925 117.6885 0.0000 0.0000 0.0000
# 4 0.0000 0.0000 0.0000 30.2775 0.0000 0.0000
# 5 0.0000 0.0000 0.0000 0.0000 0.3908 0.0000
# 6 0.0000 0.0000 0.0000 0.0000 0.0000 10.4784
#
#
#
# Elastic Compliance Matrix: (Units=1/GPa)
#
#
# Indices 1 2 3 4 5 6 
#
# 1 0.014782 -0.000282 -0.004342 0.000000 0.000000 0.000000
# 2 -0.000282 0.033044 0.002102 0.000000 0.000000 0.000000
# 3 -0.004342 0.002102 0.009896 0.000000 0.000000 0.000000
# 4 0.000000 0.000000 0.000000 0.033028 0.000000 0.000000
# 5 0.000000 0.000000 0.000000 0.000000 2.558905 0.000000
# 6 0.000000 0.000000 0.000000 0.000000 0.000000 0.095434
#
#
# Mechanical properties :
#
#
# Convention : Reuss Voigt Hill
#
# Bulk Modulus (GPa) = 18.98314 30.84001 24.91158
# Shear Modulus (GPa) = 1.80656 21.59052 11.69854
#
# Velocity S-wave (km/s) = 0.89821 3.10516 2.28569
# Velocity P-wave (km/s) = 3.09084 5.16030 4.25335
#
# Compressibility (1/GPa) = 0.05267833
#
# Stress axis : x y z
#
# Youngs Moduli (GPa) = 67.65018 30.26242 101.05127
#
# Poissons Ratio (x) = 0.00852 0.43879
# Poissons Ratio (y) = 0.01904 -0.21239
# Poissons Ratio (z) = 0.29376 -0.06361
#
# Static dielectric constant tensor:
#      x y z
#    x 1.834960 0.000000 0.000000 
#    y 0.000000 1.835050 0.000000 
#    z 0.000000 0.000000 1.797340 
# 
# From -- ./inp_files/6535.got.cif
#   From: 2010.05.17/outbox.cif.g08.bks.cpg/sg41_4_cif.got.tgz:6535.got - 2010.06.03 18:54:24.
