data_PCOD9366755
_publ_section_title
;
Structure prediction by ZEFSAII (Michael W. Deem and Ramdas Pophale) SiO2 
 PCOD9366755
Probable space group: A B A 2
;
_chemical_formula_sum "Si O2"
_cell_formula_units_Z 60
_cell_length_a 12.341778
_cell_length_b 22.254300
_cell_length_c 9.302622
_cell_angle_alpha 90.000000
_cell_angle_beta 90.000000
_cell_angle_gamma 90.000000
_cell_volume 2555.036113
_symmetry_space_group_name_H-M "A B A 2"
_symmetry_group_IT_number 41
_symmetry_cell_setting 'orthorhombic'
loop_
_space_group_symop_operation_xyz
x,y,z
-x,-y,z
1/2-x,y,1/2+z
1/2+x,-y,1/2+z
x,1/2+y,1/2+z
-x,1/2-y,1/2+z
1/2-x,1/2+y,z
1/2+x,1/2-y,z
loop_
_atom_site_type_symbol
_atom_site_label
_atom_site_fract_x
_atom_site_fract_y
_atom_site_fract_z
Si Si1 0.198603 0.314936 0.123560
Si Si2 0.815989 0.393792 0.604557
Si Si3 0.500000 0.000000 0.291028
Si Si4 0.728289 0.608863 0.400049
Si Si5 0.018226 0.258823 0.302025
Si Si6 0.770882 0.476547 0.332366
Si Si7 0.965785 0.619178 0.477245
Si Si8 0.647879 0.283910 0.556682
O O1 0.247618 0.351101 0.259754
O O2 0.114783 0.267736 0.189496
O O3 0.273458 0.272078 0.025887
O O4 0.144955 0.362083 0.012031
O O5 0.802575 0.445543 0.482816
O O6 0.796482 0.426289 0.753261
O O7 0.942730 0.375394 0.597985
O O8 0.725052 0.341930 0.579683
O O9 0.621622 0.989944 0.232888
O O10 0.485338 0.940255 0.384401
O O11 0.713212 0.540134 0.356823
O O12 0.837779 0.612475 0.500105
O O13 0.061682 0.213384 0.425162
O O14 0.011866 0.322474 0.383237
O O15 0.911286 0.259729 0.202669
#
# Coordination Sequence:
#
# PCOD9366755 Si02
#       8
#     8   8   4   8   8   8   8   8
#     4  11  23  42  66  99 128 180 228 277 343 412
#     4  11  24  40  68  99 138 174 226 276 343 412
#     4   8  16  34  66  84 124 166 214 262 330 394
#     4  10  21  41  69  97 135 176 226 277 340 413
#     4  11  27  43  65  99 136 183 229 288 350 410
#     4  10  21  40  66  98 128 176 219 276 337 404
#     4   9  19  39  63  97 129 176 219 275 338 404
#     4  12  27  42  68  98 135 182 228 291 347 417
#
# _framework density 23.483034
#
# number of rings (size 3 to 8) (size 9 to 14) (size 15 to 20)
#    0.000    1.600    2.667    2.400    7.467    0.000 
#    0.000    0.000    0.000    6.400    0.000    0.000 
#    0.000    0.000    0.000    0.000    0.000    0.000 
#
# Total GULP energy -167154.049029 kJ/mol
# GULP energy per Si atom -5571.801634 kJ/mol
# Density = 2.342959 g / cm^3
# Si number density = 23.483034 Si / 1000 Ang^3
#
#
#
# Elastic Constant Matrix: (Units=GPa)
#
#
# Indices 1 2 3 4 5 6 
#
# 1 42.2624 10.7318 20.1889 0.0000 0.0000 0.0000
# 2 10.7318 109.5896 9.9236 0.0000 0.0000 0.0000
# 3 20.1889 9.9236 56.2232 0.0000 0.0000 0.0000
# 4 0.0000 0.0000 0.0000 31.9128 0.0000 0.0000
# 5 0.0000 0.0000 0.0000 0.0000 37.4197 0.0000
# 6 0.0000 0.0000 0.0000 0.0000 0.0000 11.9803
#
#
#
# Elastic Compliance Matrix: (Units=1/GPa)
#
#
# Indices 1 2 3 4 5 6 
#
# 1 0.028955 -0.001925 -0.010058 0.000000 0.000000 0.000000
# 2 -0.001925 0.009401 -0.000968 0.000000 0.000000 0.000000
# 3 -0.010058 -0.000968 0.021569 0.000000 0.000000 0.000000
# 4 0.000000 0.000000 0.000000 0.031335 0.000000 0.000000
# 5 0.000000 0.000000 0.000000 0.000000 0.026724 0.000000
# 6 0.000000 0.000000 0.000000 0.000000 0.000000 0.083470
#
#
# Mechanical properties :
#
#
# Convention : Reuss Voigt Hill
#
# Bulk Modulus (GPa) = 29.39122 32.19597 30.79359
# Shear Modulus (GPa) = 20.94710 27.41130 24.17920
#
# Velocity S-wave (km/s) = 2.98989 3.42026 3.21229
# Velocity P-wave (km/s) = 4.94595 5.41642 5.18652
#
# Compressibility (1/GPa) = 0.03402377
#
# Stress axis : x y z
#
# Youngs Moduli (GPa) = 34.53636 106.37043 46.36356
#
# Poissons Ratio (x) = 0.20473 0.46631
# Poissons Ratio (y) = 0.06647 0.04489
# Poissons Ratio (z) = 0.34735 0.10299
#
# Static dielectric constant tensor:
#      x y z
#    x 2.135730 0.000000 0.000000 
#    y 0.000000 1.856360 0.000000 
#    z 0.000000 0.000000 1.901090 
# 
# From -- ./inp_files/2765.got.cif
#   From: 2010.05.17/outbox.cif.g08.bks.cpg/sg41_2_cif.got.tgz:2765.got - 2010.06.03 18:54:24.
