data_PCOD9366966
_publ_section_title
;
Structure prediction by ZEFSAII (Michael W. Deem and Ramdas Pophale) SiO2 
 PCOD9366966
Probable space group: A B A 2
;
_chemical_formula_sum "Si O2"
_cell_formula_units_Z 32
_cell_length_a 14.211365
_cell_length_b 7.846078
_cell_length_c 11.933643
_cell_angle_alpha 90.000000
_cell_angle_beta 90.000000
_cell_angle_gamma 90.000000
_cell_volume 1330.642703
_symmetry_space_group_name_H-M "A B A 2"
_symmetry_group_IT_number 41
_symmetry_cell_setting 'orthorhombic'
loop_
_space_group_symop_operation_xyz
x,y,z
-x,-y,z
1/2-x,y,1/2+z
1/2+x,-y,1/2+z
x,1/2+y,1/2+z
-x,1/2-y,1/2+z
1/2-x,1/2+y,z
1/2+x,1/2-y,z
loop_
_atom_site_type_symbol
_atom_site_label
_atom_site_fract_x
_atom_site_fract_y
_atom_site_fract_z
Si Si1 0.628510 0.796798 0.926370
Si Si2 0.061415 0.664973 0.380906
Si Si3 0.891879 0.516322 0.604894
Si Si4 0.286581 0.901880 0.811599
O O1 0.519888 0.804798 0.892772
O O2 0.685216 0.669353 0.842443
O O3 0.678896 0.977126 0.913542
O O4 0.626337 0.698073 0.044335
O O5 0.105776 0.617176 0.501897
O O6 0.144257 0.738288 0.307260
O O7 0.000000 0.500000 0.345877
O O8 0.813505 0.496639 0.699369
O O9 0.000000 0.500000 0.648968
#
# Coordination Sequence:
#
# PCOD9366966 Si02
#       4
#     8   8   8   8
#     4  10  22  37  60  92 122 161 211 260 309 375
#     4   9  20  41  61  88 126 160 208 262 310 376
#     4   9  21  42  63  90 126 164 210 262 318 378
#     4  12  22  40  65  90 128 171 211 262 323 377
#
# _framework density 24.04853
#
# number of rings (size 3 to 8) (size 9 to 14) (size 15 to 20)
#    0.000    2.500    0.000    5.250    0.000    4.000 
#    0.000   12.500    0.000    0.000    0.000    0.000 
#    0.000    0.000    0.000    0.000    0.000    0.000 
#
# Total GULP energy -89286.650053 kJ/mol
# GULP energy per Si atom -5580.415628 kJ/mol
# Density = 2.399379 g / cm^3
# Si number density = 24.048530 Si / 1000 Ang^3
#
#
#
# Elastic Constant Matrix: (Units=GPa)
#
#
# Indices 1 2 3 4 5 6 
#
# 1 133.0568 18.4923 49.5824 0.0000 0.0000 0.0000
# 2 18.4923 97.7722 26.4873 0.0000 0.0000 0.0000
# 3 49.5824 26.4873 88.5115 0.0000 0.0000 0.0000
# 4 0.0000 0.0000 0.0000 32.6974 0.0000 0.0000
# 5 0.0000 0.0000 0.0000 0.0000 27.6425 0.0000
# 6 0.0000 0.0000 0.0000 0.0000 0.0000 43.6485
#
#
#
# Elastic Compliance Matrix: (Units=1/GPa)
#
#
# Indices 1 2 3 4 5 6 
#
# 1 0.009512 -0.000387 -0.005213 0.000000 0.000000 0.000000
# 2 -0.000387 0.011146 -0.003119 0.000000 0.000000 0.000000
# 3 -0.005213 -0.003119 0.015151 0.000000 0.000000 0.000000
# 4 0.000000 0.000000 0.000000 0.030583 0.000000 0.000000
# 5 0.000000 0.000000 0.000000 0.000000 0.036176 0.000000
# 6 0.000000 0.000000 0.000000 0.000000 0.000000 0.022910
#
#
# Mechanical properties :
#
#
# Convention : Reuss Voigt Hill
#
# Bulk Modulus (GPa) = 54.42886 56.49606 55.46246
# Shear Modulus (GPa) = 33.54821 35.78292 34.66556
#
# Velocity S-wave (km/s) = 3.73905 3.86158 3.80081
# Velocity P-wave (km/s) = 6.42828 6.58983 6.50955
#
# Compressibility (1/GPa) = 0.01837261
#
# Stress axis : x y z
#
# Youngs Moduli (GPa) = 105.13309 89.71891 66.00140
#
# Poissons Ratio (x) = 0.03471 0.34403
# Poissons Ratio (y) = 0.04068 0.20584
# Poissons Ratio (z) = 0.54801 0.27981
#
# Static dielectric constant tensor:
#      x y z
#    x 1.937710 0.000000 0.000000 
#    y 0.000000 1.965310 0.000000 
#    z 0.000000 0.000000 1.919250 
# 
# From -- ./inp_files/5276.got.cif
#   From: 2010.05.17/outbox.cif.g08.bks.cpg/sg41_3_cif.got.tgz:5276.got - 2010.06.03 18:54:24.
