data_PCOD9366522
_publ_section_title
;
Structure prediction by ZEFSAII (Michael W. Deem and Ramdas Pophale) SiO2 
 PCOD9366522
Probable space group: A B A 2
;
_chemical_formula_sum "Si O2"
_cell_formula_units_Z 64
_cell_length_a 11.897792
_cell_length_b 12.236377
_cell_length_c 22.790671
_cell_angle_alpha 90.000000
_cell_angle_beta 90.000000
_cell_angle_gamma 90.000000
_cell_volume 3317.999628
_symmetry_space_group_name_H-M "A B A 2"
_symmetry_group_IT_number 41
_symmetry_cell_setting 'orthorhombic'
loop_
_space_group_symop_operation_xyz
x,y,z
-x,-y,z
1/2-x,y,1/2+z
1/2+x,-y,1/2+z
x,1/2+y,1/2+z
-x,1/2-y,1/2+z
1/2-x,1/2+y,z
1/2+x,1/2-y,z
loop_
_atom_site_type_symbol
_atom_site_label
_atom_site_fract_x
_atom_site_fract_y
_atom_site_fract_z
Si Si1 0.817874 0.512656 0.900250
Si Si2 0.923153 0.280951 0.689782
Si Si3 0.910235 0.097957 0.960168
Si Si4 0.426864 0.893583 0.592301
Si Si5 0.240622 0.394317 0.690998
Si Si6 0.486127 0.179904 0.900176
Si Si7 0.729711 0.427836 0.271780
Si Si8 0.091034 0.255955 0.777511
O O1 0.701691 0.547843 0.930320
O O2 0.878323 0.396701 0.913520
O O3 0.801828 0.496682 0.829807
O O4 0.906379 0.607054 0.918287
O O5 0.818008 0.206750 0.674519
O O6 0.872867 0.378282 0.731848
O O7 0.995048 0.316508 0.633277
O O8 0.001521 0.208262 0.731935
O O9 0.961530 0.202027 0.926624
O O10 0.891322 0.139642 0.027044
O O11 0.000000 0.000000 0.958824
O O12 0.322179 0.927306 0.632258
O O13 0.500000 0.000000 0.583511
O O14 0.294378 0.494597 0.725733
O O15 0.148655 0.350047 0.737990
O O16 0.519522 0.201772 0.832315
O O17 0.809781 0.328436 0.292575
#
# Coordination Sequence:
#
# PCOD9366522 Si02
#       8
#     8   8   8   8   8   8   8   8
#     4  11  25  42  67  99 133 179 220 273 353 405
#     4  10  21  37  61  92 126 163 209 258 334 393
#     4  11  27  44  67  96 130 183 232 282 329 403
#     4  10  21  43  65  87 122 170 221 267 321 392
#     4  10  21  36  62  95 121 164 205 267 329 391
#     4  11  24  43  66  94 135 178 219 280 338 409
#     4  11  20  35  62  95 131 165 204 272 326 407
#     4  10  21  34  58  95 129 164 204 257 338 399
#
# _framework density 19.288730999999999
#
# number of rings (size 3 to 8) (size 9 to 14) (size 15 to 20)
#    0.000    1.500    3.750    0.750    5.250    1.500 
#    2.250    0.000    0.000    0.000    0.000    0.000 
#    0.000    0.000    0.000    0.000    0.000    0.000 
#
# Total GULP energy -178144.218069 kJ/mol
# GULP energy per Si atom -5567.006815 kJ/mol
# Density = 1.924483 g / cm^3
# Si number density = 19.288731 Si / 1000 Ang^3
#
#
#
# Elastic Constant Matrix: (Units=GPa)
#
#
# Indices 1 2 3 4 5 6 
#
# 1 74.1021 37.1664 43.7390 0.0000 0.0000 0.0000
# 2 37.1664 79.0016 37.2226 0.0000 0.0000 0.0000
# 3 43.7390 37.2226 89.2109 0.0000 0.0000 0.0000
# 4 0.0000 0.0000 0.0000 17.1746 0.0000 0.0000
# 5 0.0000 0.0000 0.0000 0.0000 8.3649 0.0000
# 6 0.0000 0.0000 0.0000 0.0000 0.0000 22.6092
#
#
#
# Elastic Compliance Matrix: (Units=1/GPa)
#
#
# Indices 1 2 3 4 5 6 
#
# 1 0.021268 -0.006339 -0.007783 0.000000 0.000000 0.000000
# 2 -0.006339 0.017644 -0.004254 0.000000 0.000000 0.000000
# 3 -0.007783 -0.004254 0.016800 0.000000 0.000000 0.000000
# 4 0.000000 0.000000 0.000000 0.058226 0.000000 0.000000
# 5 0.000000 0.000000 0.000000 0.000000 0.119548 0.000000
# 6 0.000000 0.000000 0.000000 0.000000 0.000000 0.044230
#
#
# Mechanical properties :
#
#
# Convention : Reuss Voigt Hill
#
# Bulk Modulus (GPa) = 52.73858 53.17450 52.95654
# Shear Modulus (GPa) = 15.58668 17.90883 16.74776
#
# Velocity S-wave (km/s) = 2.84574 3.05037 2.94983
# Velocity P-wave (km/s) = 6.18051 6.32723 6.25430
#
# Compressibility (1/GPa) = 0.01896145
#
# Stress axis : x y z
#
# Youngs Moduli (GPa) = 47.01961 56.67512 59.52324
#
# Poissons Ratio (x) = 0.35924 0.46324
# Poissons Ratio (y) = 0.29804 0.25323
# Poissons Ratio (z) = 0.36593 0.24111
#
# Static dielectric constant tensor:
#      x y z
#    x 1.707980 0.000000 0.000000 
#    y 0.000000 1.720860 0.000000 
#    z 0.000000 0.000000 1.692840 
# 
# From -- ./inp_files/12146.got.cif
#   From: 2010.05.17/outbox.cif.g08.bks.cpg/sg41_7_cif.got.tgz:12146.got - 2010.06.03 18:54:24.
