data_PCOD9366272
_publ_section_title
;
Structure prediction by ZEFSAII (Michael W. Deem and Ramdas Pophale) SiO2 
 PCOD9366272
Probable space group: A B A 2
;
_chemical_formula_sum "Si O2"
_cell_formula_units_Z 64
_cell_length_a 8.628504
_cell_length_b 20.160770
_cell_length_c 18.700026
_cell_angle_alpha 90.000000
_cell_angle_beta 90.000000
_cell_angle_gamma 90.000000
_cell_volume 3253.005745
_symmetry_space_group_name_H-M "A B A 2"
_symmetry_group_IT_number 41
_symmetry_cell_setting 'orthorhombic'
loop_
_space_group_symop_operation_xyz
x,y,z
-x,-y,z
1/2-x,y,1/2+z
1/2+x,-y,1/2+z
x,1/2+y,1/2+z
-x,1/2-y,1/2+z
1/2-x,1/2+y,z
1/2+x,1/2-y,z
loop_
_atom_site_type_symbol
_atom_site_label
_atom_site_fract_x
_atom_site_fract_y
_atom_site_fract_z
Si Si1 0.611879 0.937469 0.567920
Si Si2 0.129146 0.054050 0.463554
Si Si3 0.429391 0.819756 0.980919
Si Si4 0.926060 0.679733 0.489711
Si Si5 0.129146 0.054050 0.833428
Si Si6 0.570609 0.180244 0.316062
Si Si7 0.073940 0.820268 0.307271
Si Si8 0.111879 0.062531 0.229062
O O1 0.763061 0.965983 0.529062
O O2 0.531405 0.878634 0.522062
O O3 0.642102 0.913600 0.648491
O O4 0.500000 0.000000 0.570672
O O5 0.250000 0.066541 0.398491
O O6 0.041261 0.118576 0.492482
O O7 0.000000 0.000000 0.442037
O O8 0.503107 0.751401 0.008595
O O9 0.254784 0.827756 0.009543
O O10 0.425003 0.819690 0.893873
O O11 0.925003 0.680310 0.403108
O O12 0.236939 0.034017 0.767920
O O13 0.041261 0.118576 0.804500
O O14 0.000000 0.000000 0.854945
O O15 0.745216 0.172244 0.287439
O O16 0.496893 0.248599 0.288387
O O17 0.968595 0.878634 0.274919
O O18 0.000000 0.000000 0.226310
#
# Coordination Sequence:
#
# PCOD9366272 Si02
#       8
#     8   8   8   8   8   8   8   8
#     4  11  24  43  64  90 132 175 213 263 326 384
#     4  12  24  38  64  96 127 168 218 277 321 383
#     4  10  21  35  64  92 127 158 210 265 318 364
#     4  10  20  38  61  94 125 167 205 260 315 379
#     4  12  24  38  64  96 127 168 218 277 321 383
#     4  10  21  35  64  92 127 158 210 265 318 364
#     4  10  20  38  61  94 125 167 205 260 315 379
#     4  11  24  43  64  90 132 175 213 263 326 384
#
# _framework density 19.674112000000001
#
# number of rings (size 3 to 8) (size 9 to 14) (size 15 to 20)
#    0.000    1.250    2.500    3.750    7.000    0.500 
#    0.000    6.250    0.000    0.000    0.000    0.000 
#    0.000    0.000    0.000    0.000    0.000    0.000 
#
# Total GULP energy -178551.869050 kJ/mol
# GULP energy per Si atom -5579.745908 kJ/mol
# Density = 1.962933 g / cm^3
# Si number density = 19.674112 Si / 1000 Ang^3
#
#
#
# Elastic Constant Matrix: (Units=GPa)
#
#
# Indices 1 2 3 4 5 6 
#
# 1 106.9691 8.1623 28.8171 0.0000 0.0000 0.0000
# 2 8.1623 69.4498 10.1696 0.0000 0.0000 0.0000
# 3 28.8171 10.1696 49.8302 0.0000 0.0000 0.0000
# 4 0.0000 0.0000 0.0000 -9.8786 0.0000 0.0000
# 5 0.0000 0.0000 0.0000 0.0000 79.0410 0.0000
# 6 0.0000 0.0000 0.0000 0.0000 0.0000 38.1699
#
#
#
# Elastic Compliance Matrix: (Units=1/GPa)
#
#
# Indices 1 2 3 4 5 6 
#
# 1 0.011083 -0.000375 -0.006333 0.000000 0.000000 0.000000
# 2 -0.000375 0.014855 -0.002815 0.000000 0.000000 0.000000
# 3 -0.006333 -0.002815 0.024305 0.000000 0.000000 0.000000
# 4 0.000000 0.000000 0.000000 -0.101229 0.000000 0.000000
# 5 0.000000 0.000000 0.000000 0.000000 0.012652 0.000000
# 6 0.000000 0.000000 0.000000 0.000000 0.000000 0.026199
#
#
# Mechanical properties :
#
#
# Convention : Reuss Voigt Hill
#
# Bulk Modulus (GPa) = 32.05377 35.61635 33.83506
# Shear Modulus (GPa) = 288.86105 33.40647 161.13376
#
# Velocity S-wave (km/s) = 12.13020 4.12514 9.05976
# Velocity P-wave (km/s) = 14.57795 6.38995 11.25496
#
# Compressibility (1/GPa) = 0.03119758
#
# Stress axis : x y z
#
# Youngs Moduli (GPa) = 90.22680 67.31667 41.14393
#
# Poissons Ratio (x) = 0.02526 0.26056
# Poissons Ratio (y) = 0.03386 0.11581
# Poissons Ratio (z) = 0.57140 0.18948
#
# Static dielectric constant tensor:
#      x y z
#    x 1.726850 0.000000 0.000000 
#    y 0.000000 1.699980 0.000000 
#    z 0.000000 0.000000 1.708500 
# 
# From -- ./inp_files/11303.got.cif
#   From: 2010.05.17/outbox.cif.g08.bks.cpg/sg41_6_cif.got.tgz:11303.got - 2010.06.03 18:54:24.
