data_PCOD9366184
_publ_section_title
;
Structure prediction by ZEFSAII (Michael W. Deem and Ramdas Pophale) SiO2 
 PCOD9366184
Probable space group: A B A 2
;
_chemical_formula_sum "Si O2"
_cell_formula_units_Z 60
_cell_length_a 26.059820
_cell_length_b 17.828479
_cell_length_c 5.488814
_cell_angle_alpha 90.000000
_cell_angle_beta 90.000000
_cell_angle_gamma 90.000000
_cell_volume 2550.141151
_symmetry_space_group_name_H-M "A B A 2"
_symmetry_group_IT_number 41
_symmetry_cell_setting 'orthorhombic'
loop_
_space_group_symop_operation_xyz
x,y,z
-x,-y,z
1/2-x,y,1/2+z
1/2+x,-y,1/2+z
x,1/2+y,1/2+z
-x,1/2-y,1/2+z
1/2-x,1/2+y,z
1/2+x,1/2-y,z
loop_
_atom_site_type_symbol
_atom_site_label
_atom_site_fract_x
_atom_site_fract_y
_atom_site_fract_z
Si Si1 0.734728 0.744338 0.723470
Si Si2 0.873652 0.447223 0.423080
Si Si3 0.274667 0.585023 0.672160
Si Si4 0.932520 0.179205 0.563821
Si Si5 0.453081 0.615926 0.582417
Si Si6 0.411203 0.400144 0.061095
Si Si7 0.000000 0.000000 0.213638
Si Si8 0.622992 0.308493 0.245060
O O1 0.742410 0.705765 0.462488
O O2 0.765130 0.824350 0.686730
O O3 0.675075 0.761915 0.767526
O O4 0.833535 0.436682 0.205467
O O5 0.929378 0.424044 0.318402
O O6 0.873179 0.530145 0.529954
O O7 0.859546 0.385933 0.623273
O O8 0.252672 0.556891 0.418053
O O9 0.909794 0.142385 0.318766
O O10 0.916983 0.265903 0.568008
O O11 0.992879 0.159924 0.585791
O O12 0.908873 0.148399 0.816810
O O13 0.462599 0.548198 0.389619
O O14 0.409763 0.672319 0.482364
O O15 0.466832 0.440413 0.067507
#
# Coordination Sequence:
#
# PCOD9366184 Si02
#       8
#     8   8   8   8   8   8   4   8
#     4  10  20  39  62  96 126 159 208 285 332 383
#     4  12  23  39  74  96 126 170 236 271 327 399
#     4  10  20  36  60 100 125 152 204 295 334 372
#     4  11  29  44  63  92 150 181 215 268 339 393
#     4  11  24  39  65 100 134 177 224 279 322 395
#     4  11  24  46  63  93 131 184 214 267 326 400
#     4  10  20  42  64  92 128 174 226 258 318 378
#     4  12  26  40  69 102 129 174 229 276 330 399
#
# _framework density 23.528112
#
# number of rings (size 3 to 8) (size 9 to 14) (size 15 to 20)
#    0.000    1.067    4.000    4.000    5.600    0.533 
#    0.000    0.000    0.000    4.800    0.000    0.000 
#    0.000    0.000    0.000    0.000    0.000    0.000 
#
# Total GULP energy -167763.624159 kJ/mol
# GULP energy per Si atom -5592.120805 kJ/mol
# Density = 2.347456 g / cm^3
# Si number density = 23.528112 Si / 1000 Ang^3
#
#
#
# Elastic Constant Matrix: (Units=GPa)
#
#
# Indices 1 2 3 4 5 6 
#
# 1 83.0097 3.8028 26.8675 0.0000 0.0000 0.0000
# 2 3.8028 17.8079 23.9657 0.0000 0.0000 0.0000
# 3 26.8675 23.9657 154.1896 0.0000 0.0000 0.0000
# 4 0.0000 0.0000 0.0000 32.2386 0.0000 0.0000
# 5 0.0000 0.0000 0.0000 0.0000 19.4983 0.0000
# 6 0.0000 0.0000 0.0000 0.0000 0.0000 10.2749
#
#
#
# Elastic Compliance Matrix: (Units=1/GPa)
#
#
# Indices 1 2 3 4 5 6 
#
# 1 0.012768 0.000338 -0.002277 0.000000 0.000000 0.000000
# 2 0.000338 0.071017 -0.011097 0.000000 0.000000 0.000000
# 3 -0.002277 -0.011097 0.008607 0.000000 0.000000 0.000000
# 4 0.000000 0.000000 0.000000 0.031019 0.000000 0.000000
# 5 0.000000 0.000000 0.000000 0.000000 0.051286 0.000000
# 6 0.000000 0.000000 0.000000 0.000000 0.000000 0.097324
#
#
# Mechanical properties :
#
#
# Convention : Reuss Voigt Hill
#
# Bulk Modulus (GPa) = 15.07840 40.47546 27.77693
# Shear Modulus (GPa) = 15.61518 25.76046 20.68782
#
# Velocity S-wave (km/s) = 2.57900 3.31249 2.96848
# Velocity P-wave (km/s) = 3.91036 5.64539 4.85599
#
# Compressibility (1/GPa) = 0.06632003
#
# Stress axis : x y z
#
# Youngs Moduli (GPa) = 78.31815 14.08116 116.18182
#
# Poissons Ratio (x) = -0.00476 0.26460
# Poissons Ratio (y) = -0.02650 1.28928
# Poissons Ratio (z) = 0.17837 0.15626
#
# Static dielectric constant tensor:
#      x y z
#    x 1.910880 0.000000 0.000000 
#    y 0.000000 1.885220 0.000000 
#    z 0.000000 0.000000 1.947540 
# 
# From -- ./inp_files/1171.got.cif
#   From: 2010.05.17/outbox.cif.g08.bks.cpg/sg41_1_cif.got.tgz:1171.got - 2010.06.03 18:54:24.
