data_PCOD9366355
_publ_section_title
;
Structure prediction by ZEFSAII (Michael W. Deem and Ramdas Pophale) SiO2 
 PCOD9366355
Probable space group: A B A 2
;
_chemical_formula_sum "Si O2"
_cell_formula_units_Z 48
_cell_length_a 9.501757
_cell_length_b 16.350635
_cell_length_c 14.882916
_cell_angle_alpha 90.000000
_cell_angle_beta 90.000000
_cell_angle_gamma 90.000000
_cell_volume 2312.206266
_symmetry_space_group_name_H-M "A B A 2"
_symmetry_group_IT_number 41
_symmetry_cell_setting 'orthorhombic'
loop_
_space_group_symop_operation_xyz
x,y,z
-x,-y,z
1/2-x,y,1/2+z
1/2+x,-y,1/2+z
x,1/2+y,1/2+z
-x,1/2-y,1/2+z
1/2-x,1/2+y,z
1/2+x,1/2-y,z
loop_
_atom_site_type_symbol
_atom_site_label
_atom_site_fract_x
_atom_site_fract_y
_atom_site_fract_z
Si Si1 0.037382 0.695653 0.650180
Si Si2 0.669187 0.908548 0.799243
Si Si3 0.553727 0.310663 0.816104
Si Si4 0.736655 0.668389 0.586177
Si Si5 0.698211 0.585419 0.774971
Si Si6 0.423559 0.347356 0.406361
O O1 0.089677 0.617717 0.707479
O O2 0.167334 0.742397 0.604429
O O3 0.981881 0.760358 0.725261
O O4 0.905597 0.675625 0.586574
O O5 0.786689 0.840030 0.816315
O O6 0.554960 0.903756 0.878961
O O7 0.746972 0.994288 0.789704
O O8 0.452230 0.389095 0.814783
O O9 0.526078 0.246469 0.895826
O O10 0.701782 0.610509 0.670872
O O11 0.657473 0.636453 0.498075
O O12 0.809414 0.641743 0.827488
#
# Coordination Sequence:
#
# PCOD9366355 Si02
#       6
#     8   8   8   8   8   8
#     4  10  20  39  65  95 128 171 227 277 327 397
#     4  11  21  41  67  94 134 180 217 281 344 401
#     4  10  20  40  63  94 128 177 226 273 328 404
#     4  11  23  39  65  98 128 176 230 273 335 406
#     4  11  23  42  66  96 140 175 221 280 348 406
#     4  11  23  39  67  98 134 175 230 278 335 405
#
# _framework density 20.759391999999998
#
# number of rings (size 3 to 8) (size 9 to 14) (size 15 to 20)
#    0.000    1.333    5.000    3.000    4.667    0.000 
#    0.000    8.333    3.667    0.000    0.000    0.000 
#    0.000    0.000    0.000    0.000    0.000    0.000 
#
# Total GULP energy -134031.456703 kJ/mol
# GULP energy per Si atom -5584.644029 kJ/mol
# Density = 2.071214 g / cm^3
# Si number density = 20.759392 Si / 1000 Ang^3
#
#
#
# Elastic Constant Matrix: (Units=GPa)
#
#
# Indices 1 2 3 4 5 6 
#
# 1 116.5916 32.9005 30.7283 0.0000 0.0000 0.0000
# 2 32.9005 95.5584 40.3126 0.0000 0.0000 0.0000
# 3 30.7283 40.3126 91.6340 0.0000 0.0000 0.0000
# 4 0.0000 0.0000 0.0000 8.4459 0.0000 0.0000
# 5 0.0000 0.0000 0.0000 0.0000 24.0237 0.0000
# 6 0.0000 0.0000 0.0000 0.0000 0.0000 37.3439
#
#
#
# Elastic Compliance Matrix: (Units=1/GPa)
#
#
# Indices 1 2 3 4 5 6 
#
# 1 0.009856 -0.002455 -0.002225 0.000000 0.000000 0.000000
# 2 -0.002455 0.013461 -0.005099 0.000000 0.000000 0.000000
# 3 -0.002225 -0.005099 0.013902 0.000000 0.000000 0.000000
# 4 0.000000 0.000000 0.000000 0.118401 0.000000 0.000000
# 5 0.000000 0.000000 0.000000 0.000000 0.041626 0.000000
# 6 0.000000 0.000000 0.000000 0.000000 0.000000 0.026778
#
#
# Mechanical properties :
#
#
# Convention : Reuss Voigt Hill
#
# Bulk Modulus (GPa) = 56.61870 56.85187 56.73529
# Shear Modulus (GPa) = 20.04259 27.28552 23.66406
#
# Velocity S-wave (km/s) = 3.11057 3.62936 3.37993
# Velocity P-wave (km/s) = 6.34302 6.70884 6.52849
#
# Compressibility (1/GPa) = 0.01766201
#
# Stress axis : x y z
#
# Youngs Moduli (GPa) = 101.46002 74.28922 71.93078
#
# Poissons Ratio (x) = 0.18236 0.16006
# Poissons Ratio (y) = 0.24905 0.36675
# Poissons Ratio (z) = 0.22577 0.37878
#
# Static dielectric constant tensor:
#      x y z
#    x 1.775670 0.000000 0.000000 
#    y 0.000000 1.765760 0.000000 
#    z 0.000000 0.000000 1.748860 
# 
# From -- ./inp_files/7331.got.cif
#   From: 2010.05.17/outbox.cif.g08.bks.cpg/sg41_4_cif.got.tgz:7331.got - 2010.06.03 18:54:24.
