data_PCOD9366692
_publ_section_title
;
Structure prediction by ZEFSAII (Michael W. Deem and Ramdas Pophale) SiO2 
 PCOD9366692
Probable space group: A B A 2
;
_chemical_formula_sum "Si O2"
_cell_formula_units_Z 48
_cell_length_a 20.125930
_cell_length_b 4.916721
_cell_length_c 19.979567
_cell_angle_alpha 90.000000
_cell_angle_beta 90.000000
_cell_angle_gamma 90.000000
_cell_volume 1977.049735
_symmetry_space_group_name_H-M "A B A 2"
_symmetry_group_IT_number 41
_symmetry_cell_setting 'orthorhombic'
loop_
_space_group_symop_operation_xyz
x,y,z
-x,-y,z
1/2-x,y,1/2+z
1/2+x,-y,1/2+z
x,1/2+y,1/2+z
-x,1/2-y,1/2+z
1/2-x,1/2+y,z
1/2+x,1/2-y,z
loop_
_atom_site_type_symbol
_atom_site_label
_atom_site_fract_x
_atom_site_fract_y
_atom_site_fract_z
Si Si1 0.703508 0.240407 0.212790
Si Si2 0.547387 0.757189 0.113765
Si Si3 0.889339 0.156155 0.976227
Si Si4 0.289487 0.236866 0.553781
Si Si5 0.579976 0.056036 0.747339
Si Si6 0.427970 0.355755 0.395824
O O1 0.760852 0.459712 0.229860
O O2 0.693412 0.271649 0.132345
O O3 0.632477 0.308403 0.245401
O O4 0.500000 0.500000 0.104342
O O5 0.594626 0.710766 0.177408
O O6 0.500000 0.000000 0.132865
O O7 0.578636 0.798727 0.041487
O O8 0.878664 0.412718 0.926640
O O9 0.929314 0.929907 0.933685
O O10 0.839132 0.936807 0.009539
O O11 0.276697 0.553959 0.541572
O O12 0.500000 0.000000 0.743904
O O13 0.589294 0.197251 0.818396
O O14 0.500000 0.500000 0.399947
#
# Coordination Sequence:
#
# PCOD9366692 Si02
#       6
#     8   8   8   8   8   8
#     4  10  22  42  69  97 133 174 222 278 342 402
#     4  11  23  38  63  94 124 162 219 274 316 383
#     4  12  22  42  64  93 127 173 222 270 335 399
#     4  10  21  39  64  93 126 169 219 280 338 391
#     4  10  24  46  67 102 137 180 226 281 339 403
#     4  11  25  41  65  93 139 176 212 271 351 402
#
# _framework density 24.278601999999999
#
# number of rings (size 3 to 8) (size 9 to 14) (size 15 to 20)
#    0.000    1.333    1.667    4.000    0.000    8.000 
#    0.000    5.000    0.000    0.000    0.000    0.000 
#    0.000    0.000    0.000    0.000    0.000    0.000 
#
# Total GULP energy -134016.952326 kJ/mol
# GULP energy per Si atom -5584.039680 kJ/mol
# Density = 2.422334 g / cm^3
# Si number density = 24.278602 Si / 1000 Ang^3
#
#
#
# Elastic Constant Matrix: (Units=GPa)
#
#
# Indices 1 2 3 4 5 6 
#
# 1 43.1043 -19.8979 -10.9336 0.0000 0.0000 0.0000
# 2 -19.8979 92.1042 -9.9899 0.0000 0.0000 0.0000
# 3 -10.9336 -9.9899 109.9196 0.0000 0.0000 0.0000
# 4 0.0000 0.0000 0.0000 -109.4067 0.0000 0.0000
# 5 0.0000 0.0000 0.0000 0.0000 7.5507 0.0000
# 6 0.0000 0.0000 0.0000 0.0000 0.0000 25.8001
#
#
#
# Elastic Compliance Matrix: (Units=1/GPa)
#
#
# Indices 1 2 3 4 5 6 
#
# 1 0.026860 0.006153 0.003231 0.000000 0.000000 0.000000
# 2 0.006153 0.012375 0.001737 0.000000 0.000000 0.000000
# 3 0.003231 0.001737 0.009577 0.000000 0.000000 0.000000
# 4 0.000000 0.000000 0.000000 -0.009140 0.000000 0.000000
# 5 0.000000 0.000000 0.000000 0.000000 0.132438 0.000000
# 6 0.000000 0.000000 0.000000 0.000000 0.000000 0.038760
#
#
# Mechanical properties :
#
#
# Convention : Reuss Voigt Hill
#
# Bulk Modulus (GPa) = 14.07407 18.16501 16.11954
# Shear Modulus (GPa) = 23.55028 3.85213 13.70120
#
# Velocity S-wave (km/s) = 3.11786 1.26098 2.37815
# Velocity P-wave (km/s) = 4.33254 3.10133 3.76757
#
# Compressibility (1/GPa) = 0.07105268
#
# Stress axis : x y z
#
# Youngs Moduli (GPa) = 37.23077 80.80853 104.41924
#
# Poissons Ratio (x) = -0.49722 -0.33737
# Poissons Ratio (y) = -0.22908 -0.18135
# Poissons Ratio (z) = -0.12029 -0.14034
#
# Static dielectric constant tensor:
#      x y z
#    x 2.116940 0.000000 0.000000 
#    y 0.000000 1.894630 0.000000 
#    z 0.000000 0.000000 1.918750 
# 
# From -- ./inp_files/11683.got.cif
#   From: 2010.05.17/outbox.cif.g08.bks.cpg/sg41_6_cif.got.tgz:11683.got - 2010.06.03 18:54:24.
