data_PCOD9366817
_publ_section_title
;
Structure prediction by ZEFSAII (Michael W. Deem and Ramdas Pophale) SiO2 
 PCOD9366817
Probable space group: A B A 2
;
_chemical_formula_sum "Si O2"
_cell_formula_units_Z 60
_cell_length_a 8.640720
_cell_length_b 13.194568
_cell_length_c 25.032119
_cell_angle_alpha 90.000000
_cell_angle_beta 90.000000
_cell_angle_gamma 90.000000
_cell_volume 2853.926096
_symmetry_space_group_name_H-M "A B A 2"
_symmetry_group_IT_number 41
_symmetry_cell_setting 'orthorhombic'
loop_
_space_group_symop_operation_xyz
x,y,z
-x,-y,z
1/2-x,y,1/2+z
1/2+x,-y,1/2+z
x,1/2+y,1/2+z
-x,1/2-y,1/2+z
1/2-x,1/2+y,z
1/2+x,1/2-y,z
loop_
_atom_site_type_symbol
_atom_site_label
_atom_site_fract_x
_atom_site_fract_y
_atom_site_fract_z
Si Si1 0.698018 0.841929 0.890230
Si Si2 0.500000 0.500000 0.330414
Si Si3 0.497973 0.259495 0.078574
Si Si4 0.757314 0.125816 0.140263
Si Si5 0.893996 0.909070 0.988546
Si Si6 0.994495 0.801023 0.826838
Si Si7 0.157323 0.548225 0.071765
Si Si8 0.287196 0.368419 0.266408
O O1 0.567530 0.918011 0.870707
O O2 0.849521 0.855320 0.853294
O O3 0.609173 0.737887 0.874912
O O4 0.768118 0.861935 0.948056
O O5 0.362296 0.468800 0.290833
O O6 0.635773 0.202095 0.110772
O O7 0.422171 0.346964 0.114468
O O8 0.532141 0.314392 0.021772
O O9 0.375734 0.167148 0.073946
O O10 0.774307 0.138978 0.203144
O O11 0.697354 0.013122 0.125474
O O12 0.798776 0.970633 0.033026
O O13 0.000000 0.000000 0.964024
O O14 0.907009 0.714889 0.791254
O O15 0.114928 0.856567 0.789106
O O16 0.000000 0.500000 0.049684
#
# Coordination Sequence:
#
# PCOD9366817 Si02
#       8
#     8   4   8   8   8   8   8   8
#     4  10  24  42  67  96 128 175 215 283 336 398
#     4  10  24  44  60  94 134 162 224 288 326 390
#     4  11  23  42  63  96 138 168 222 275 318 407
#     4  11  22  42  67  95 133 177 217 268 339 393
#     4  12  25  41  68  97 128 181 218 273 343 397
#     4   9  21  45  64  95 132 165 235 273 331 411
#     4  10  24  44  60  95 135 167 216 269 317 408
#     4  10  21  41  67  94 126 178 215 279 337 397
#
# _framework density 21.023668000000001
#
# number of rings (size 3 to 8) (size 9 to 14) (size 15 to 20)
#    0.000    1.600    2.667    0.800    4.667    1.067 
#   14.400    0.000    0.000    0.000    0.000    0.000 
#    0.000    0.000    0.000    0.000    0.000    0.000 
#
# Total GULP energy -167083.938307 kJ/mol
# GULP energy per Si atom -5569.464610 kJ/mol
# Density = 2.097582 g / cm^3
# Si number density = 21.023668 Si / 1000 Ang^3
#
#
#
# Elastic Constant Matrix: (Units=GPa)
#
#
# Indices 1 2 3 4 5 6 
#
# 1 60.1099 7.0701 15.0716 0.0000 0.0000 0.0000
# 2 7.0701 58.1212 27.2821 0.0000 0.0000 0.0000
# 3 15.0716 27.2821 98.3922 0.0000 0.0000 0.0000
# 4 0.0000 0.0000 0.0000 19.3253 0.0000 0.0000
# 5 0.0000 0.0000 0.0000 0.0000 173.7902 0.0000
# 6 0.0000 0.0000 0.0000 0.0000 0.0000 18.9102
#
#
#
# Elastic Compliance Matrix: (Units=1/GPa)
#
#
# Indices 1 2 3 4 5 6 
#
# 1 0.017350 -0.000992 -0.002383 0.000000 0.000000 0.000000
# 2 -0.000992 0.019837 -0.005348 0.000000 0.000000 0.000000
# 3 -0.002383 -0.005348 0.012011 0.000000 0.000000 0.000000
# 4 0.000000 0.000000 0.000000 0.051746 0.000000 0.000000
# 5 0.000000 0.000000 0.000000 0.000000 0.005754 0.000000
# 6 0.000000 0.000000 0.000000 0.000000 0.000000 0.052881
#
#
# Mechanical properties :
#
#
# Convention : Reuss Voigt Hill
#
# Bulk Modulus (GPa) = 31.49397 35.05233 33.27315
# Shear Modulus (GPa) = 26.65111 53.55179 40.10145
#
# Velocity S-wave (km/s) = 3.56430 5.05247 4.37217
# Velocity P-wave (km/s) = 5.65259 7.12359 6.43029
#
# Compressibility (1/GPa) = 0.03175211
#
# Stress axis : x y z
#
# Youngs Moduli (GPa) = 57.63591 50.41190 83.25466
#
# Poissons Ratio (x) = 0.05002 0.19836
# Poissons Ratio (y) = 0.05718 0.44527
# Poissons Ratio (z) = 0.13732 0.26962
#
# Static dielectric constant tensor:
#      x y z
#    x 1.772760 0.000000 0.000000 
#    y 0.000000 1.853920 0.000000 
#    z 0.000000 0.000000 1.720940 
# 
# From -- ./inp_files/12003.got.cif
#   From: 2010.05.17/outbox.cif.g08.bks.cpg/sg41_7_cif.got.tgz:12003.got - 2010.06.03 18:54:24.
