data_PCOD9366094
_publ_section_title
;
Structure prediction by ZEFSAII (Michael W. Deem and Ramdas Pophale) SiO2 
 PCOD9366094
Probable space group: A B A 2
;
_chemical_formula_sum "Si O2"
_cell_formula_units_Z 40
_cell_length_a 13.410634
_cell_length_b 8.812744
_cell_length_c 12.357152
_cell_angle_alpha 90.000000
_cell_angle_beta 90.000000
_cell_angle_gamma 90.000000
_cell_volume 1460.423637
_symmetry_space_group_name_H-M "A B A 2"
_symmetry_group_IT_number 41
_symmetry_cell_setting 'orthorhombic'
loop_
_space_group_symop_operation_xyz
x,y,z
-x,-y,z
1/2-x,y,1/2+z
1/2+x,-y,1/2+z
x,1/2+y,1/2+z
-x,1/2-y,1/2+z
1/2-x,1/2+y,z
1/2+x,1/2-y,z
loop_
_atom_site_type_symbol
_atom_site_label
_atom_site_fract_x
_atom_site_fract_y
_atom_site_fract_z
Si Si1 0.877244 0.728385 0.184380
Si Si2 0.665688 0.809467 0.354030
Si Si3 0.305981 0.463309 0.211906
Si Si4 0.368442 0.241534 0.941879
Si Si5 0.500000 0.500000 0.546286
Si Si6 0.000000 0.500000 0.476520
O O1 0.772980 0.646416 0.155046
O O2 0.889706 0.724028 0.314622
O O3 0.957877 0.631006 0.122926
O O4 0.873331 0.906997 0.157885
O O5 0.727951 0.928699 0.280156
O O6 0.573691 0.891921 0.406812
O O7 0.637338 0.657830 0.287908
O O8 0.749056 0.763315 0.441655
O O9 0.415171 0.081091 0.975535
O O10 0.420552 0.370458 0.014278
#
# Coordination Sequence:
#
# PCOD9366094 Si02
#       6
#     8   8   8   8   4   4
#     4  10  21  46  72 107 156 210 258 342 398 487
#     4  10  19  40  70 111 150 210 270 330 402 495
#     4   8  18  39  70 106 151 206 260 333 418 459
#     4  10  25  44  72 113 160 215 261 343 408 482
#     4  12  27  48  77 122 164 208 281 326 411 500
#     4  12  21  40  77 108 154 222 275 326 423 488
#
# _framework density 27.389313000000001
#
# number of rings (size 3 to 8) (size 9 to 14) (size 15 to 20)
#    0.000    2.400    4.000    0.600    5.600    0.000 
#    7.200    3.000    0.000    0.000    0.000    0.000 
#    0.000    0.000    0.000    0.000    0.000    0.000 
#
# Total GULP energy -111933.188543 kJ/mol
# GULP energy per Si atom -5596.659427 kJ/mol
# Density = 2.732697 g / cm^3
# Si number density = 27.389313 Si / 1000 Ang^3
#
#
#
# Elastic Constant Matrix: (Units=GPa)
#
#
# Indices 1 2 3 4 5 6 
#
# 1 115.2506 56.1258 19.0132 0.0000 0.0000 0.0000
# 2 56.1258 245.1764 67.6173 0.0000 0.0000 0.0000
# 3 19.0132 67.6173 108.3244 0.0000 0.0000 0.0000
# 4 0.0000 0.0000 0.0000 41.2706 0.0000 0.0000
# 5 0.0000 0.0000 0.0000 0.0000 -17.6119 0.0000
# 6 0.0000 0.0000 0.0000 0.0000 0.0000 31.4767
#
#
#
# Elastic Compliance Matrix: (Units=1/GPa)
#
#
# Indices 1 2 3 4 5 6 
#
# 1 0.009779 -0.002132 -0.000385 0.000000 0.000000 0.000000
# 2 -0.002132 0.005392 -0.002991 0.000000 0.000000 0.000000
# 3 -0.000385 -0.002991 0.011166 0.000000 0.000000 0.000000
# 4 0.000000 0.000000 0.000000 0.024230 0.000000 0.000000
# 5 0.000000 0.000000 0.000000 0.000000 -0.056780 0.000000
# 6 0.000000 0.000000 0.000000 0.000000 0.000000 0.031770
#
#
# Mechanical properties :
#
#
# Convention : Reuss Voigt Hill
#
# Bulk Modulus (GPa) = 65.27883 83.80710 74.54296
# Shear Modulus (GPa) = 119.95734 32.76008 76.35871
#
# Velocity S-wave (km/s) = 6.62512 3.46221 5.28579
# Velocity P-wave (km/s) = 9.07791 6.82989 8.03292
#
# Compressibility (1/GPa) = 0.01531890
#
# Stress axis : x y z
#
# Youngs Moduli (GPa) = 102.26303 185.46674 89.55424
#
# Poissons Ratio (x) = 0.39546 0.03451
# Poissons Ratio (y) = 0.21805 0.26789
# Poissons Ratio (z) = 0.03941 0.55480
#
# Static dielectric constant tensor:
#      x y z
#    x 2.203990 0.000000 0.000000 
#    y 0.000000 2.124610 0.000000 
#    z 0.000000 0.000000 2.192760 
# 
# From -- ./inp_files/2925.got.cif
#   From: 2010.05.17/outbox.cif.g08.bks.cpg/sg41_2_cif.got.tgz:2925.got - 2010.06.03 18:54:24.
