data_PCOD9366000
_publ_section_title
;
Structure prediction by ZEFSAII (Michael W. Deem and Ramdas Pophale) SiO2 
 PCOD9366000
Probable space group: A B A 2
;
_chemical_formula_sum "Si O2"
_cell_formula_units_Z 48
_cell_length_a 12.066605
_cell_length_b 17.748680
_cell_length_c 9.169259
_cell_angle_alpha 90.000000
_cell_angle_beta 90.000000
_cell_angle_gamma 90.000000
_cell_volume 1963.746373
_symmetry_space_group_name_H-M "A B A 2"
_symmetry_group_IT_number 41
_symmetry_cell_setting 'orthorhombic'
loop_
_space_group_symop_operation_xyz
x,y,z
-x,-y,z
1/2-x,y,1/2+z
1/2+x,-y,1/2+z
x,1/2+y,1/2+z
-x,1/2-y,1/2+z
1/2-x,1/2+y,z
1/2+x,1/2-y,z
loop_
_atom_site_type_symbol
_atom_site_label
_atom_site_fract_x
_atom_site_fract_y
_atom_site_fract_z
Si Si1 0.432504 0.423018 0.718890
Si Si2 0.232640 0.598957 0.560500
Si Si3 0.141877 0.667835 0.299921
Si Si4 0.377463 0.956819 0.523352
Si Si5 0.503985 0.334516 0.176737
Si Si6 0.065945 0.302970 0.983105
O O1 0.500000 0.500000 0.676633
O O2 0.520590 0.368858 0.806092
O O3 0.393183 0.372631 0.582179
O O4 0.352347 0.441365 0.853479
O O5 0.225334 0.614749 0.389660
O O6 0.323071 0.650522 0.635620
O O7 0.220347 0.510041 0.583267
O O8 0.116968 0.630027 0.620832
O O9 0.145261 0.748046 0.382691
O O10 0.401205 0.883526 0.619324
O O11 0.500000 0.000000 0.523629
O O12 0.507833 0.332651 0.350616
O O13 0.507058 0.253624 0.097280
#
# Coordination Sequence:
#
# PCOD9366000 Si02
#       6
#     8   8   8   8   8   8
#     4  11  20  39  68  90 127 174 234 279 325 410
#     4  10  22  37  64  92 132 170 213 278 348 396
#     4  11  22  40  64  94 130 174 219 278 348 398
#     4   9  16  38  62  90 122 171 223 269 323 401
#     4  10  19  36  63  92 120 170 225 271 318 404
#     4  11  21  36  64  96 123 171 233 273 327 402
#
# _framework density 24.443073999999999
#
# number of rings (size 3 to 8) (size 9 to 14) (size 15 to 20)
#    0.000    1.667    8.333    0.000    2.333    2.000 
#    0.000    0.000   18.333    0.000    0.000    0.000 
#    0.000    0.000    0.000    0.000    0.000    0.000 
#
# Total GULP energy -133796.984164 kJ/mol
# GULP energy per Si atom -5574.874340 kJ/mol
# Density = 2.438744 g / cm^3
# Si number density = 24.443074 Si / 1000 Ang^3
#
#
#
# Elastic Constant Matrix: (Units=GPa)
#
#
# Indices 1 2 3 4 5 6 
#
# 1 31.3223 21.0391 12.3153 0.0000 0.0000 0.0000
# 2 21.0391 158.1164 50.0370 0.0000 0.0000 0.0000
# 3 12.3153 50.0370 140.0097 0.0000 0.0000 0.0000
# 4 0.0000 0.0000 0.0000 49.8827 0.0000 0.0000
# 5 0.0000 0.0000 0.0000 0.0000 28.5044 0.0000
# 6 0.0000 0.0000 0.0000 0.0000 0.0000 26.8462
#
#
#
# Elastic Compliance Matrix: (Units=1/GPa)
#
#
# Indices 1 2 3 4 5 6 
#
# 1 0.035379 -0.004198 -0.001612 0.000000 0.000000 0.000000
# 2 -0.004198 0.007629 -0.002357 0.000000 0.000000 0.000000
# 3 -0.001612 -0.002357 0.008127 0.000000 0.000000 0.000000
# 4 0.000000 0.000000 0.000000 0.020047 0.000000 0.000000
# 5 0.000000 0.000000 0.000000 0.000000 0.035082 0.000000
# 6 0.000000 0.000000 0.000000 0.000000 0.000000 0.037249
#
#
# Mechanical properties :
#
#
# Convention : Reuss Voigt Hill
#
# Bulk Modulus (GPa) = 28.73427 55.13680 41.93553
# Shear Modulus (GPa) = 29.16350 37.45046 33.30698
#
# Velocity S-wave (km/s) = 3.45790 3.91852 3.69539
# Velocity P-wave (km/s) = 5.26535 6.56348 5.94992
#
# Compressibility (1/GPa) = 0.03480165
#
# Stress axis : x y z
#
# Youngs Moduli (GPa) = 28.26506 131.07978 123.05300
#
# Poissons Ratio (x) = 0.55021 0.19835
# Poissons Ratio (y) = 0.11864 0.29006
# Poissons Ratio (z) = 0.04556 0.30899
#
# Static dielectric constant tensor:
#      x y z
#    x 2.040500 0.000000 0.000000 
#    y 0.000000 2.066660 0.000000 
#    z 0.000000 0.000000 2.005650 
# 
# From -- ./inp_files/2529.got.cif
#   From: 2010.05.17/outbox.cif.g08.bks.cpg/sg41_2_cif.got.tgz:2529.got - 2010.06.03 18:54:24.
