data_PCOD9366983
_publ_section_title
;
Structure prediction by ZEFSAII (Michael W. Deem and Ramdas Pophale) SiO2 
 PCOD9366983
Probable space group: A B A 2
;
_chemical_formula_sum "Si O2"
_cell_formula_units_Z 48
_cell_length_a 14.018611
_cell_length_b 12.685198
_cell_length_c 9.741798
_cell_angle_alpha 90.000000
_cell_angle_beta 90.000000
_cell_angle_gamma 90.000000
_cell_volume 1732.372796
_symmetry_space_group_name_H-M "A B A 2"
_symmetry_group_IT_number 41
_symmetry_cell_setting 'orthorhombic'
loop_
_space_group_symop_operation_xyz
x,y,z
-x,-y,z
1/2-x,y,1/2+z
1/2+x,-y,1/2+z
x,1/2+y,1/2+z
-x,1/2-y,1/2+z
1/2-x,1/2+y,z
1/2+x,1/2-y,z
loop_
_atom_site_type_symbol
_atom_site_label
_atom_site_fract_x
_atom_site_fract_y
_atom_site_fract_z
Si Si1 0.487872 0.191990 0.465930
Si Si2 0.582412 0.564963 0.721544
Si Si3 0.823998 0.285993 0.627143
Si Si4 0.155647 0.344377 0.648065
Si Si5 0.423604 0.090411 0.868436
Si Si6 0.753840 0.533423 0.895979
O O1 0.523748 0.115008 0.348828
O O2 0.375495 0.181109 0.487955
O O3 0.545513 0.166468 0.607159
O O4 0.522869 0.308533 0.427720
O O5 0.500000 0.500000 0.643279
O O6 0.628377 0.669740 0.654246
O O7 0.670205 0.502383 0.789595
O O8 0.712758 0.264689 0.630826
O O9 0.861436 0.366994 0.739513
O O10 0.184395 0.387566 0.797083
O O11 0.200129 0.414423 0.524444
O O12 0.500000 0.000000 0.834422
O O13 0.335681 0.041647 0.954662
#
# Coordination Sequence:
#
# PCOD9366983 Si02
#       6
#     8   8   8   8   8   8
#     4  10  22  38  59  87 120 159 202 250 303 361
#     4   9  21  39  58  84 117 153 199 248 298 354
#     4  10  22  38  59  87 120 159 202 250 303 361
#     4  10  22  42  62  88 124 162 208 258 306 364
#     4  11  23  39  60  90 125 165 207 252 308 370
#     4  10  22  40  62  90 123 162 205 256 308 366
#
# _framework density 27.707661999999999
#
# number of rings (size 3 to 8) (size 9 to 14) (size 15 to 20)
#    0.000    2.000    0.000    3.000    0.000   12.000 
#    0.000    3.333    0.000    0.000    0.000    0.000 
#    0.000    0.000    0.000    0.000    0.000    0.000 
#
# Total GULP energy -134434.476134 kJ/mol
# GULP energy per Si atom -5601.436506 kJ/mol
# Density = 2.764460 g / cm^3
# Si number density = 27.707662 Si / 1000 Ang^3
#
#
#
# Elastic Constant Matrix: (Units=GPa)
#
#
# Indices 1 2 3 4 5 6 
#
# 1 107.7228 18.0628 2.1600 0.0000 0.0000 0.0000
# 2 18.0628 111.6049 15.5516 0.0000 0.0000 0.0000
# 3 2.1600 15.5516 71.4062 0.0000 0.0000 0.0000
# 4 0.0000 0.0000 0.0000 39.1522 0.0000 0.0000
# 5 0.0000 0.0000 0.0000 0.0000 47.1365 0.0000
# 6 0.0000 0.0000 0.0000 0.0000 0.0000 39.0609
#
#
#
# Elastic Compliance Matrix: (Units=1/GPa)
#
#
# Indices 1 2 3 4 5 6 
#
# 1 0.009542 -0.001551 0.000049 0.000000 0.000000 0.000000
# 2 -0.001551 0.009493 -0.002021 0.000000 0.000000 0.000000
# 3 0.000049 -0.002021 0.014443 0.000000 0.000000 0.000000
# 4 0.000000 0.000000 0.000000 0.025541 0.000000 0.000000
# 5 0.000000 0.000000 0.000000 0.000000 0.021215 0.000000
# 6 0.000000 0.000000 0.000000 0.000000 0.000000 0.025601
#
#
# Mechanical properties :
#
#
# Convention : Reuss Voigt Hill
#
# Bulk Modulus (GPa) = 37.83171 40.25364 39.04267
# Shear Modulus (GPa) = 41.08755 42.06722 41.57738
#
# Velocity S-wave (km/s) = 3.85501 3.90070 3.87793
# Velocity P-wave (km/s) = 5.78778 5.90312 5.84573
#
# Compressibility (1/GPa) = 0.02643285
#
# Stress axis : x y z
#
# Youngs Moduli (GPa) = 104.79759 105.34314 69.23796
#
# Poissons Ratio (x) = 0.16341 -0.00341
# Poissons Ratio (y) = 0.16256 0.13990
# Poissons Ratio (z) = -0.00516 0.21285
#
# Static dielectric constant tensor:
#      x y z
#    x 2.153990 0.000000 0.000000 
#    y 0.000000 2.212900 0.000000 
#    z 0.000000 0.000000 2.177190 
# 
# From -- ./inp_files/5529.got.cif
#   From: 2010.05.17/outbox.cif.g08.bks.cpg/sg41_3_cif.got.tgz:5529.got - 2010.06.03 18:54:24.
