data_PCOD9366135
_publ_section_title
;
Structure prediction by ZEFSAII (Michael W. Deem and Ramdas Pophale) SiO2 
 PCOD9366135
Probable space group: A B A 2
;
_chemical_formula_sum "Si O2"
_cell_formula_units_Z 56
_cell_length_a 12.977735
_cell_length_b 8.334200
_cell_length_c 21.714521
_cell_angle_alpha 90.000000
_cell_angle_beta 90.000000
_cell_angle_gamma 90.000000
_cell_volume 2348.621725
_symmetry_space_group_name_H-M "A B A 2"
_symmetry_group_IT_number 41
_symmetry_cell_setting 'orthorhombic'
loop_
_space_group_symop_operation_xyz
x,y,z
-x,-y,z
1/2-x,y,1/2+z
1/2+x,-y,1/2+z
x,1/2+y,1/2+z
-x,1/2-y,1/2+z
1/2-x,1/2+y,z
1/2+x,1/2-y,z
loop_
_atom_site_type_symbol
_atom_site_label
_atom_site_fract_x
_atom_site_fract_y
_atom_site_fract_z
Si Si1 0.723001 0.989055 0.252180
Si Si2 0.223001 0.489055 0.110061
Si Si3 0.127499 0.195741 0.046003
Si Si4 0.766327 0.250000 0.931121
Si Si5 0.127499 0.804259 0.316238
Si Si6 0.425923 0.651011 0.525279
Si Si7 0.925923 0.651011 0.336962
O O1 0.822105 0.027272 0.295430
O O2 0.643508 0.126054 0.276309
O O3 0.749895 0.000000 0.181121
O O4 0.661843 0.823558 0.263967
O O5 0.161843 0.323558 0.098275
O O6 0.322105 0.527272 0.066811
O O7 0.143508 0.626055 0.085932
O O8 0.006641 0.203535 0.031363
O O9 0.187843 0.269750 0.987412
O O10 0.687843 0.269751 0.874830
O O11 0.849956 0.140523 0.895489
O O12 0.849956 0.359478 0.966752
O O13 0.006641 0.796465 0.330878
O O14 0.500000 0.500000 0.521070
O O15 0.000000 0.500000 0.341172
#
# Coordination Sequence:
#
# PCOD9366135 Si02
#       7
#     8   8   8   8   8   8   8
#     4  10  21  39  59  83 113 149 192 234 282 340
#     4  10  21  39  59  83 113 149 192 234 282 340
#     4  10  21  36  59  85 112 151 190 234 286 338
#     4  10  20  34  54  84 116 146 190 238 282 336
#     4  10  21  36  59  85 112 151 190 234 286 338
#     4   9  20  34  54  82 112 151 189 231 287 343
#     4   9  20  34  54  82 112 151 189 231 287 343
#
# _framework density 23.843772000000001
#
# number of rings (size 3 to 8) (size 9 to 14) (size 15 to 20)
#    0.000    2.286    0.000    1.714    0.000   17.714 
#    0.000    4.286    0.000    6.857    0.000    0.000 
#    0.000    0.000    0.000    0.000    0.000    0.000 
#
# Total GULP energy -155962.688011 kJ/mol
# GULP energy per Si atom -5570.096000 kJ/mol
# Density = 2.378950 g / cm^3
# Si number density = 23.843772 Si / 1000 Ang^3
#
#
#
# Elastic Constant Matrix: (Units=GPa)
#
#
# Indices 1 2 3 4 5 6 
#
# 1 157.7589 17.9899 32.0991 0.0000 0.0000 0.0000
# 2 17.9899 40.1910 2.1031 0.0000 0.0000 0.0000
# 3 32.0991 2.1031 126.4402 0.0000 0.0000 0.0000
# 4 0.0000 0.0000 0.0000 18.8057 0.0000 0.0000
# 5 0.0000 0.0000 0.0000 0.0000 4.9033 0.0000
# 6 0.0000 0.0000 0.0000 0.0000 0.0000 45.3998
#
#
#
# Elastic Compliance Matrix: (Units=1/GPa)
#
#
# Indices 1 2 3 4 5 6 
#
# 1 0.007041 -0.003061 -0.001737 0.000000 0.000000 0.000000
# 2 -0.003061 0.026233 0.000341 0.000000 0.000000 0.000000
# 3 -0.001737 0.000341 0.008344 0.000000 0.000000 0.000000
# 4 0.000000 0.000000 0.000000 0.053175 0.000000 0.000000
# 5 0.000000 0.000000 0.000000 0.000000 0.203944 0.000000
# 6 0.000000 0.000000 0.000000 0.000000 0.000000 0.022027
#
#
# Mechanical properties :
#
#
# Convention : Reuss Voigt Hill
#
# Bulk Modulus (GPa) = 30.57620 47.64160 39.10890
# Shear Modulus (GPa) = 14.68085 31.96829 23.32457
#
# Velocity S-wave (km/s) = 2.48404 3.66558 3.13105
# Velocity P-wave (km/s) = 4.59115 6.15950 5.43222
#
# Compressibility (1/GPa) = 0.03270518
#
# Stress axis : x y z
#
# Youngs Moduli (GPa) = 142.02170 38.11932 119.84545
#
# Poissons Ratio (x) = 0.11668 0.20813
# Poissons Ratio (y) = 0.43471 -0.04083
# Poissons Ratio (z) = 0.24664 -0.01299
#
# Static dielectric constant tensor:
#      x y z
#    x 1.937740 0.000000 0.000000 
#    y 0.000000 2.081390 0.000000 
#    z 0.000000 0.000000 1.854380 
# 
# From -- ./inp_files/5073.got.cif
#   From: 2010.05.17/outbox.cif.g08.bks.cpg/sg41_3_cif.got.tgz:5073.got - 2010.06.03 18:54:24.
