data_PCOD9366812
_publ_section_title
;
Structure prediction by ZEFSAII (Michael W. Deem and Ramdas Pophale) SiO2 
 PCOD9366812
Probable space group: A B A 2
;
_chemical_formula_sum "Si O2"
_cell_formula_units_Z 40
_cell_length_a 18.635444
_cell_length_b 10.801800
_cell_length_c 9.093712
_cell_angle_alpha 90.000000
_cell_angle_beta 90.000000
_cell_angle_gamma 90.000000
_cell_volume 1830.530934
_symmetry_space_group_name_H-M "A B A 2"
_symmetry_group_IT_number 41
_symmetry_cell_setting 'orthorhombic'
loop_
_space_group_symop_operation_xyz
x,y,z
-x,-y,z
1/2-x,y,1/2+z
1/2+x,-y,1/2+z
x,1/2+y,1/2+z
-x,1/2-y,1/2+z
1/2-x,1/2+y,z
1/2+x,1/2-y,z
loop_
_atom_site_type_symbol
_atom_site_label
_atom_site_fract_x
_atom_site_fract_y
_atom_site_fract_z
Si Si1 0.915219 0.025505 0.313790
Si Si2 0.295195 0.101120 0.942273
Si Si3 0.084674 0.007654 0.989324
Si Si4 0.165859 0.265929 0.998879
Si Si5 0.807993 0.544360 0.240770
O O1 0.872895 0.902267 0.367988
O O2 0.883996 0.135517 0.413723
O O3 0.897495 0.057754 0.144260
O O4 0.000000 0.000000 0.326204
O O5 0.254882 0.990483 0.853513
O O6 0.240363 0.214489 0.929963
O O7 0.303826 0.060527 0.112296
O O8 0.122414 0.959295 0.843327
O O9 0.116535 0.144785 0.013684
O O10 0.000000 0.000000 0.971713
O O11 0.190524 0.330193 0.149307
#
# Coordination Sequence:
#
# PCOD9366812 Si02
#       5
#     8   8   8   8   8
#     4  10  23  45  69 100 137 174 224 274 331 409
#     4  10  21  41  66  98 130 168 225 271 322 400
#     4  10  23  43  65  99 137 174 227 274 328 407
#     4  10  23  44  68  95 134 179 215 278 342 379
#     4  10  22  39  65  96 129 171 223 271 326 397
#
# _framework density 21.851583000000002
#
# number of rings (size 3 to 8) (size 9 to 14) (size 15 to 20)
#    0.000    2.000    0.000    2.400    0.000   16.000 
#    0.000   30.000    0.000    0.000    0.000    0.000 
#    0.000    0.000    0.000    0.000    0.000    0.000 
#
# Total GULP energy -111642.823742 kJ/mol
# GULP energy per Si atom -5582.141187 kJ/mol
# Density = 2.180185 g / cm^3
# Si number density = 21.851583 Si / 1000 Ang^3
#
#
#
# Elastic Constant Matrix: (Units=GPa)
#
#
# Indices 1 2 3 4 5 6 
#
# 1 126.8752 40.6789 77.3215 0.0000 0.0000 0.0000
# 2 40.6789 96.2002 35.2874 0.0000 0.0000 0.0000
# 3 77.3215 35.2874 152.4271 0.0000 0.0000 0.0000
# 4 0.0000 0.0000 0.0000 47.5110 0.0000 0.0000
# 5 0.0000 0.0000 0.0000 0.0000 42.0763 0.0000
# 6 0.0000 0.0000 0.0000 0.0000 0.0000 27.4104
#
#
#
# Elastic Compliance Matrix: (Units=1/GPa)
#
#
# Indices 1 2 3 4 5 6 
#
# 1 0.012231 -0.003165 -0.005472 0.000000 0.000000 0.000000
# 2 -0.003165 0.012179 -0.001214 0.000000 0.000000 0.000000
# 3 -0.005472 -0.001214 0.009617 0.000000 0.000000 0.000000
# 4 0.000000 0.000000 0.000000 0.021048 0.000000 0.000000
# 5 0.000000 0.000000 0.000000 0.000000 0.023766 0.000000
# 6 0.000000 0.000000 0.000000 0.000000 0.000000 0.036482
#
#
# Mechanical properties :
#
#
# Convention : Reuss Voigt Hill
#
# Bulk Modulus (GPa) = 69.80468 75.78647 72.79557
# Shear Modulus (GPa) = 35.76536 38.21386 36.98961
#
# Velocity S-wave (km/s) = 4.05005 4.18639 4.11879
# Velocity P-wave (km/s) = 7.34063 7.62401 7.48366
#
# Compressibility (1/GPa) = 0.01432569
#
# Stress axis : x y z
#
# Youngs Moduli (GPa) = 81.75827 82.11138 103.98013
#
# Poissons Ratio (x) = 0.25988 0.56896
# Poissons Ratio (y) = 0.25876 0.12622
# Poissons Ratio (z) = 0.44737 0.09968
#
# Static dielectric constant tensor:
#      x y z
#    x 1.808600 0.000000 0.000000 
#    y 0.000000 1.852490 0.000000 
#    z 0.000000 0.000000 1.806820 
# 
# From -- ./inp_files/2912.got.cif
#   From: 2010.05.17/outbox.cif.g08.bks.cpg/sg41_2_cif.got.tgz:2912.got - 2010.06.03 18:54:24.
