data_PCOD9366825
_publ_section_title
;
Structure prediction by ZEFSAII (Michael W. Deem and Ramdas Pophale) SiO2 
 PCOD9366825
Probable space group: A B A 2
;
_chemical_formula_sum "Si O2"
_cell_formula_units_Z 64
_cell_length_a 11.878378
_cell_length_b 28.655159
_cell_length_c 8.101753
_cell_angle_alpha 90.000000
_cell_angle_beta 90.000000
_cell_angle_gamma 90.000000
_cell_volume 2757.648844
_symmetry_space_group_name_H-M "A B A 2"
_symmetry_group_IT_number 41
_symmetry_cell_setting 'orthorhombic'
loop_
_space_group_symop_operation_xyz
x,y,z
-x,-y,z
1/2-x,y,1/2+z
1/2+x,-y,1/2+z
x,1/2+y,1/2+z
-x,1/2-y,1/2+z
1/2-x,1/2+y,z
1/2+x,1/2-y,z
loop_
_atom_site_type_symbol
_atom_site_label
_atom_site_fract_x
_atom_site_fract_y
_atom_site_fract_z
Si Si1 0.387215 0.058905 0.346790
Si Si2 0.135050 0.288655 0.987100
Si Si3 0.385302 0.457107 0.947386
Si Si4 0.295842 0.132040 0.827879
Si Si5 0.993914 0.622523 0.068321
Si Si6 0.633727 0.677113 0.115326
Si Si7 0.272585 0.415635 0.653337
Si Si8 0.609894 0.818951 0.510758
O O1 0.486609 0.057467 0.486159
O O2 0.266534 0.082840 0.361167
O O3 0.444941 0.090510 0.205666
O O4 0.377960 0.003218 0.333269
O O5 0.267377 0.296924 0.017544
O O6 0.112946 0.236087 0.041929
O O7 0.062170 0.326145 0.092700
O O8 0.109265 0.298152 0.792604
O O9 0.328554 0.418595 0.831637
O O10 0.303383 0.459605 0.102122
O O11 0.338771 0.146726 0.648936
O O12 0.407554 0.132235 0.938165
O O13 0.195556 0.169359 0.863446
O O14 0.879741 0.593037 0.032766
O O15 0.687544 0.627295 0.155033
O O16 0.522287 0.670929 0.006709
#
# Coordination Sequence:
#
# PCOD9366825 Si02
#       8
#     8   8   8   8   8   8   8   8
#     4  10  23  43  66  93 136 178 220 275 352 404
#     4  11  25  43  68  98 135 179 237 288 341 419
#     4  10  22  40  69  99 128 172 228 276 332 422
#     4  12  24  44  63  97 137 181 220 288 343 411
#     4  10  22  42  66  89 136 177 221 273 349 406
#     4  11  24  44  68  98 136 179 228 290 351 412
#     4  10  21  41  68  98 128 173 221 277 336 407
#     4  12  27  41  69  97 136 178 235 281 341 412
#
# _framework density 23.208176999999999
#
# number of rings (size 3 to 8) (size 9 to 14) (size 15 to 20)
#    0.000    1.250    2.500    3.000    3.500    4.000 
#    0.000    0.000    0.000    0.000    0.000    0.000 
#    0.000    0.000    0.000    0.000    0.000    0.000 
#
# Total GULP energy -178383.577452 kJ/mol
# GULP energy per Si atom -5574.486795 kJ/mol
# Density = 2.315535 g / cm^3
# Si number density = 23.208177 Si / 1000 Ang^3
#
#
#
# Elastic Constant Matrix: (Units=GPa)
#
#
# Indices 1 2 3 4 5 6 
#
# 1 163.1043 27.6487 13.5118 0.0000 0.0000 0.0000
# 2 27.6487 92.6413 -1.8885 0.0000 0.0000 0.0000
# 3 13.5118 -1.8885 36.4538 0.0000 0.0000 0.0000
# 4 0.0000 0.0000 0.0000 21.2281 0.0000 0.0000
# 5 0.0000 0.0000 0.0000 0.0000 37.2148 0.0000
# 6 0.0000 0.0000 0.0000 0.0000 0.0000 29.4480
#
#
#
# Elastic Compliance Matrix: (Units=1/GPa)
#
#
# Indices 1 2 3 4 5 6 
#
# 1 0.006693 -0.002050 -0.002587 0.000000 0.000000 0.000000
# 2 -0.002050 0.011434 0.001352 0.000000 0.000000 0.000000
# 3 -0.002587 0.001352 0.028461 0.000000 0.000000 0.000000
# 4 0.000000 0.000000 0.000000 0.047107 0.000000 0.000000
# 5 0.000000 0.000000 0.000000 0.000000 0.026871 0.000000
# 6 0.000000 0.000000 0.000000 0.000000 0.000000 0.033958
#
#
# Mechanical properties :
#
#
# Convention : Reuss Voigt Hill
#
# Bulk Modulus (GPa) = 24.98893 41.19370 33.09132
# Shear Modulus (GPa) = 28.66425 34.44001 31.55213
#
# Velocity S-wave (km/s) = 3.51820 3.85640 3.69118
# Velocity P-wave (km/s) = 5.22440 6.13329 5.69700
#
# Compressibility (1/GPa) = 0.04001771
#
# Stress axis : x y z
#
# Youngs Moduli (GPa) = 149.41211 87.46015 35.13590
#
# Poissons Ratio (x) = 0.17931 0.09090
# Poissons Ratio (y) = 0.30633 -0.04751
# Poissons Ratio (z) = 0.38652 -0.11827
#
# Static dielectric constant tensor:
#      x y z
#    x 1.890330 0.000000 0.000000 
#    y 0.000000 1.908200 0.000000 
#    z 0.000000 0.000000 1.961430 
# 
# From -- ./inp_files/2224.got.cif
#   From: 2010.05.17/outbox.cif.g08.bks.cpg/sg41_2_cif.got.tgz:2224.got - 2010.06.03 18:54:24.
