data_PCOD9366474
_publ_section_title
;
Structure prediction by ZEFSAII (Michael W. Deem and Ramdas Pophale) SiO2 
 PCOD9366474
Probable space group: A B A 2
;
_chemical_formula_sum "Si O2"
_cell_formula_units_Z 52
_cell_length_a 13.682588
_cell_length_b 17.622918
_cell_length_c 9.589752
_cell_angle_alpha 90.000000
_cell_angle_beta 90.000000
_cell_angle_gamma 90.000000
_cell_volume 2312.349342
_symmetry_space_group_name_H-M "A B A 2"
_symmetry_group_IT_number 41
_symmetry_cell_setting 'orthorhombic'
loop_
_space_group_symop_operation_xyz
x,y,z
-x,-y,z
1/2-x,y,1/2+z
1/2+x,-y,1/2+z
x,1/2+y,1/2+z
-x,1/2-y,1/2+z
1/2-x,1/2+y,z
1/2+x,1/2-y,z
loop_
_atom_site_type_symbol
_atom_site_label
_atom_site_fract_x
_atom_site_fract_y
_atom_site_fract_z
Si Si1 0.454941 0.835872 0.698330
Si Si2 0.649333 0.694530 0.792486
Si Si3 0.000000 0.000000 0.122100
Si Si4 0.735926 0.357307 0.343230
Si Si5 0.051251 0.208774 0.915878
Si Si6 0.715186 0.962974 0.576634
Si Si7 0.747330 0.135289 0.550734
O O1 0.528113 0.801466 0.580125
O O2 0.452853 0.791286 0.842845
O O3 0.349887 0.830657 0.623489
O O4 0.476738 0.925001 0.710531
O O5 0.670718 0.782099 0.831678
O O6 0.542312 0.669500 0.841178
O O7 0.668195 0.679698 0.630309
O O8 0.727624 0.648194 0.887691
O O9 0.099876 0.021121 0.039471
O O10 0.846693 0.327450 0.368045
O O11 0.718400 0.411473 0.212882
O O12 0.721615 0.413540 0.471139
O O13 0.757120 0.047233 0.586847
#
# Coordination Sequence:
#
# PCOD9366474 Si02
#       7
#     8   8   4   8   8   8   8
#     4  10  21  40  64  93 126 171 219 267 328 405
#     4  11  23  40  66  93 129 168 218 271 329 395
#     4  10  20  42  68  94 128 186 216 264 352 408
#     4  12  24  44  67 102 129 175 225 279 325 404
#     4  11  24  40  67  97 130 174 221 273 335 394
#     4  11  24  42  69  92 135 173 223 275 336 395
#     4  10  22  40  60  93 124 169 211 265 332 391
#
# _framework density 22.487950000000001
#
# number of rings (size 3 to 8) (size 9 to 14) (size 15 to 20)
#    0.000    1.231    3.077    2.769    4.308    0.000 
#    0.000    0.000    0.000    0.923    0.000    0.000 
#    0.000    0.000    0.000    0.000    0.000    0.000 
#
# Total GULP energy -145232.695470 kJ/mol
# GULP energy per Si atom -5585.872903 kJ/mol
# Density = 2.243677 g / cm^3
# Si number density = 22.487950 Si / 1000 Ang^3
#
#
#
# Elastic Constant Matrix: (Units=GPa)
#
#
# Indices 1 2 3 4 5 6 
#
# 1 92.7295 10.0968 5.8302 0.0000 0.0000 0.0000
# 2 10.0968 122.4767 18.0936 0.0000 0.0000 0.0000
# 3 5.8302 18.0936 81.5480 0.0000 0.0000 0.0000
# 4 0.0000 0.0000 0.0000 33.5693 0.0000 0.0000
# 5 0.0000 0.0000 0.0000 0.0000 23.4143 0.0000
# 6 0.0000 0.0000 0.0000 0.0000 0.0000 4.3123
#
#
#
# Elastic Compliance Matrix: (Units=1/GPa)
#
#
# Indices 1 2 3 4 5 6 
#
# 1 0.010910 -0.000811 -0.000600 0.000000 0.000000 0.000000
# 2 -0.000811 0.008502 -0.001828 0.000000 0.000000 0.000000
# 3 -0.000600 -0.001828 0.012711 0.000000 0.000000 0.000000
# 4 0.000000 0.000000 0.000000 0.029789 0.000000 0.000000
# 5 0.000000 0.000000 0.000000 0.000000 0.042709 0.000000
# 6 0.000000 0.000000 0.000000 0.000000 0.000000 0.231893
#
#
# Mechanical properties :
#
#
# Convention : Reuss Voigt Hill
#
# Bulk Modulus (GPa) = 38.99451 40.53281 39.76366
# Shear Modulus (GPa) = 14.22310 29.77476 21.99893
#
# Velocity S-wave (km/s) = 2.51764 3.64267 3.13110
# Velocity P-wave (km/s) = 5.08224 5.97959 5.54908
#
# Compressibility (1/GPa) = 0.02564463
#
# Stress axis : x y z
#
# Youngs Moduli (GPa) = 91.65844 117.62273 78.67015
#
# Poissons Ratio (x) = 0.09536 0.04721
# Poissons Ratio (y) = 0.07431 0.14384
# Poissons Ratio (z) = 0.05501 0.21506
#
# Static dielectric constant tensor:
#      x y z
#    x 1.902820 0.000000 0.000000 
#    y 0.000000 1.835620 0.000000 
#    z 0.000000 0.000000 1.814470 
# 
# From -- ./inp_files/3138.got.cif
#   From: 2010.05.17/outbox.cif.g08.bks.cpg/sg41_2_cif.got.tgz:3138.got - 2010.06.03 18:54:24.
