data_PCOD9366728
_publ_section_title
;
Structure prediction by ZEFSAII (Michael W. Deem and Ramdas Pophale) SiO2 
 PCOD9366728
Probable space group: A B A 2
;
_chemical_formula_sum "Si O2"
_cell_formula_units_Z 56
_cell_length_a 22.610521
_cell_length_b 11.348424
_cell_length_c 9.582527
_cell_angle_alpha 90.000000
_cell_angle_beta 90.000000
_cell_angle_gamma 90.000000
_cell_volume 2458.816817
_symmetry_space_group_name_H-M "A B A 2"
_symmetry_group_IT_number 41
_symmetry_cell_setting 'orthorhombic'
loop_
_space_group_symop_operation_xyz
x,y,z
-x,-y,z
1/2-x,y,1/2+z
1/2+x,-y,1/2+z
x,1/2+y,1/2+z
-x,1/2-y,1/2+z
1/2-x,1/2+y,z
1/2+x,1/2-y,z
loop_
_atom_site_type_symbol
_atom_site_label
_atom_site_fract_x
_atom_site_fract_y
_atom_site_fract_z
Si Si1 0.908687 0.564682 0.714930
Si Si2 0.268173 0.451817 0.256840
Si Si3 0.314707 0.285470 0.617919
Si Si4 0.265169 0.103537 0.006789
Si Si5 0.065728 0.192604 0.218955
Si Si6 0.962440 0.287070 0.050723
Si Si7 0.611930 0.491291 0.511809
O O1 0.837311 0.560293 0.722370
O O2 0.938249 0.442594 0.665707
O O3 0.929451 0.677302 0.627948
O O4 0.921410 0.550713 0.880684
O O5 0.236633 0.332411 0.216281
O O6 0.249097 0.492849 0.409607
O O7 0.244844 0.559613 0.163406
O O8 0.280904 0.211286 0.498034
O O9 0.364888 0.215747 0.699446
O O10 0.350203 0.402174 0.572347
O O11 0.335794 0.107091 0.978866
O O12 0.045072 0.212929 0.380478
O O13 0.027784 0.272259 0.113734
O O14 0.934083 0.412173 0.095682
#
# Coordination Sequence:
#
# PCOD9366728 Si02
#       7
#     8   8   8   8   8   8   8
#     4  10  21  46  71  96 135 184 224 278 360 411
#     4  10  22  38  66 100 135 174 215 277 347 419
#     4  11  23  40  67 102 139 170 227 286 344 421
#     4  10  21  40  63  98 138 169 216 272 343 418
#     4  11  26  45  70 101 132 184 237 292 350 413
#     4  11  25  47  69  94 139 181 241 290 344 416
#     4   9  23  42  67 103 132 184 219 283 353 411
#
# _framework density 22.775182000000001
#
# number of rings (size 3 to 8) (size 9 to 14) (size 15 to 20)
#    0.000    1.714    1.429    1.286    4.000    6.286 
#    5.143    0.000    0.000    0.000    0.000    0.000 
#    0.000    0.000    0.000    0.000    0.000    0.000 
#
# Total GULP energy -155991.087032 kJ/mol
# GULP energy per Si atom -5571.110251 kJ/mol
# Density = 2.272334 g / cm^3
# Si number density = 22.775182 Si / 1000 Ang^3
#
#
#
# Elastic Constant Matrix: (Units=GPa)
#
#
# Indices 1 2 3 4 5 6 
#
# 1 120.5863 57.2983 33.6289 0.0000 0.0000 0.0000
# 2 57.2983 118.3023 37.7732 0.0000 0.0000 0.0000
# 3 33.6289 37.7732 73.3224 0.0000 0.0000 0.0000
# 4 0.0000 0.0000 0.0000 41.4638 0.0000 0.0000
# 5 0.0000 0.0000 0.0000 0.0000 24.1083 0.0000
# 6 0.0000 0.0000 0.0000 0.0000 0.0000 57.2180
#
#
#
# Elastic Compliance Matrix: (Units=1/GPa)
#
#
# Indices 1 2 3 4 5 6 
#
# 1 0.011236 -0.004544 -0.002813 0.000000 0.000000 0.000000
# 2 -0.004544 0.011955 -0.004075 0.000000 0.000000 0.000000
# 3 -0.002813 -0.004075 0.017027 0.000000 0.000000 0.000000
# 4 0.000000 0.000000 0.000000 0.024117 0.000000 0.000000
# 5 0.000000 0.000000 0.000000 0.000000 0.041479 0.000000
# 6 0.000000 0.000000 0.000000 0.000000 0.000000 0.017477
#
#
# Mechanical properties :
#
#
# Convention : Reuss Voigt Hill
#
# Bulk Modulus (GPa) = 57.61650 63.29022 60.45336
# Shear Modulus (GPa) = 32.90764 36.79206 34.84985
#
# Velocity S-wave (km/s) = 3.80529 4.02362 3.91598
# Velocity P-wave (km/s) = 6.68280 7.03104 6.85913
#
# Compressibility (1/GPa) = 0.01735614
#
# Stress axis : x y z
#
# Youngs Moduli (GPa) = 88.99639 83.64818 58.72881
#
# Poissons Ratio (x) = 0.38011 0.16517
# Poissons Ratio (y) = 0.40442 0.23929
# Poissons Ratio (z) = 0.25030 0.34083
#
# Static dielectric constant tensor:
#      x y z
#    x 1.926680 0.000000 0.000000 
#    y 0.000000 1.908010 0.000000 
#    z 0.000000 0.000000 1.868870 
# 
# From -- ./inp_files/6236.got.cif
#   From: 2010.05.17/outbox.cif.g08.bks.cpg/sg41_4_cif.got.tgz:6236.got - 2010.06.03 18:54:24.
