data_PCOD9366845
_publ_section_title
;
Structure prediction by ZEFSAII (Michael W. Deem and Ramdas Pophale) SiO2 
 PCOD9366845
Probable space group: A B A 2
;
_chemical_formula_sum "Si O2"
_cell_formula_units_Z 36
_cell_length_a 8.852686
_cell_length_b 9.887920
_cell_length_c 20.886053
_cell_angle_alpha 90.000000
_cell_angle_beta 90.000000
_cell_angle_gamma 90.000000
_cell_volume 1828.253359
_symmetry_space_group_name_H-M "A B A 2"
_symmetry_group_IT_number 41
_symmetry_cell_setting 'orthorhombic'
loop_
_space_group_symop_operation_xyz
x,y,z
-x,-y,z
1/2-x,y,1/2+z
1/2+x,-y,1/2+z
x,1/2+y,1/2+z
-x,1/2-y,1/2+z
1/2-x,1/2+y,z
1/2+x,1/2-y,z
loop_
_atom_site_type_symbol
_atom_site_label
_atom_site_fract_x
_atom_site_fract_y
_atom_site_fract_z
Si Si1 0.196665 0.579301 0.746550
Si Si2 0.500000 0.000000 0.629599
Si Si3 0.918231 0.140419 0.440547
Si Si4 0.608016 0.200915 0.798653
Si Si5 0.900620 0.125376 0.005125
O O1 0.343462 0.668017 0.758867
O O2 0.204759 0.428220 0.774532
O O3 0.127797 0.563188 0.675472
O O4 0.063955 0.657834 0.784866
O O5 0.575355 0.107727 0.581331
O O6 0.872024 0.213890 0.374506
O O7 0.770241 0.112930 0.482544
O O8 0.030477 0.236393 0.479434
O O9 0.000000 0.000000 0.423896
O O10 0.000000 0.000000 0.978110
#
# Coordination Sequence:
#
# PCOD9366845 Si02
#       5
#     8   4   8   8   8
#     4  10  21  42  64  85 127 158 209 267 311 375
#     4   8  22  44  60  88 126 162 222 258 308 394
#     4  12  22  41  63  98 131 166 218 267 329 390
#     4  10  22  38  63  93 119 163 200 268 320 379
#     4  10  24  39  64  91 131 174 211 268 320 385
#
# _framework density 19.690925
#
# number of rings (size 3 to 8) (size 9 to 14) (size 15 to 20)
#    0.667    1.333    2.222    2.667    3.111    4.444 
#    0.000    0.000    0.000    0.000    0.000    0.000 
#    0.000    0.000    0.000    0.000    0.000    0.000 
#
# Total GULP energy -100419.539734 kJ/mol
# GULP energy per Si atom -5578.863319 kJ/mol
# Density = 1.964611 g / cm^3
# Si number density = 19.690925 Si / 1000 Ang^3
#
#
#
# Elastic Constant Matrix: (Units=GPa)
#
#
# Indices 1 2 3 4 5 6 
#
# 1 49.3098 13.2962 15.7388 0.0000 0.0000 0.0000
# 2 13.2962 46.8290 8.4158 0.0000 0.0000 0.0000
# 3 15.7388 8.4158 138.2242 0.0000 0.0000 0.0000
# 4 0.0000 0.0000 0.0000 -43.1095 0.0000 0.0000
# 5 0.0000 0.0000 0.0000 0.0000 -5.1571 0.0000
# 6 0.0000 0.0000 0.0000 0.0000 0.0000 38.7370
#
#
#
# Elastic Compliance Matrix: (Units=1/GPa)
#
#
# Indices 1 2 3 4 5 6 
#
# 1 0.022609 -0.006023 -0.002208 0.000000 0.000000 0.000000
# 2 -0.006023 0.023195 -0.000726 0.000000 0.000000 0.000000
# 3 -0.002208 -0.000726 0.007530 0.000000 0.000000 0.000000
# 4 0.000000 0.000000 0.000000 -0.023197 0.000000 0.000000
# 5 0.000000 0.000000 0.000000 0.000000 -0.193907 0.000000
# 6 0.000000 0.000000 0.000000 0.000000 0.000000 0.025815
#
#
# Mechanical properties :
#
#
# Convention : Reuss Voigt Hill
#
# Bulk Modulus (GPa) = 28.23236 34.36272 31.29754
# Shear Modulus (GPa) = -46.19566 11.22157 -17.48705
#
# Velocity S-wave (km/s) = -4.84885 2.38982 -2.98329
# Velocity P-wave (km/s) = 4.12062 5.01038 2.01549
#
# Compressibility (1/GPa) = 0.03542035
#
# Stress axis : x y z
#
# Youngs Moduli (GPa) = 44.23113 43.11307 132.79817
#
# Poissons Ratio (x) = 0.25965 0.29317
# Poissons Ratio (y) = 0.26638 0.09647
# Poissons Ratio (z) = 0.09765 0.03132
#
# Static dielectric constant tensor:
#      x y z
#    x 1.695210 0.000000 0.000000 
#    y 0.000000 1.704310 0.000000 
#    z 0.000000 0.000000 1.681500 
# 
# From -- ./inp_files/11080.got.cif
#   From: 2010.05.17/outbox.cif.g08.bks.cpg/sg41_6_cif.got.tgz:11080.got - 2010.06.03 18:54:24.
