data_PCOD9366526
_publ_section_title
;
Structure prediction by ZEFSAII (Michael W. Deem and Ramdas Pophale) SiO2 
 PCOD9366526
Probable space group: A B A 2
;
_chemical_formula_sum "Si O2"
_cell_formula_units_Z 56
_cell_length_a 31.231588
_cell_length_b 14.399236
_cell_length_c 4.873465
_cell_angle_alpha 90.000000
_cell_angle_beta 90.000000
_cell_angle_gamma 90.000000
_cell_volume 2191.650849
_symmetry_space_group_name_H-M "A B A 2"
_symmetry_group_IT_number 41
_symmetry_cell_setting 'orthorhombic'
loop_
_space_group_symop_operation_xyz
x,y,z
-x,-y,z
1/2-x,y,1/2+z
1/2+x,-y,1/2+z
x,1/2+y,1/2+z
-x,1/2-y,1/2+z
1/2-x,1/2+y,z
1/2+x,1/2-y,z
loop_
_atom_site_type_symbol
_atom_site_label
_atom_site_fract_x
_atom_site_fract_y
_atom_site_fract_z
Si Si1 0.810228 0.861505 0.933800
Si Si2 0.338393 0.932055 0.365802
Si Si3 0.103913 0.468027 0.870178
Si Si4 0.773362 0.184416 0.213174
Si Si5 0.363739 0.169594 0.951352
Si Si6 0.526737 0.145827 0.748767
Si Si7 0.445444 0.750676 0.244299
O O1 0.775003 0.794391 0.793075
O O2 0.850488 0.820892 0.764217
O O3 0.809559 0.971855 0.869553
O O4 0.822721 0.844454 0.250025
O O5 0.377666 0.955519 0.566742
O O6 0.312656 0.851928 0.530973
O O7 0.361816 0.917358 0.074523
O O8 0.110588 0.573903 0.943408
O O9 0.054523 0.438998 0.859444
O O10 0.766074 0.148898 0.522354
O O11 0.396950 0.242132 0.836020
O O12 0.549680 0.227869 0.924433
O O13 0.476772 0.163221 0.802303
O O14 0.535122 0.166266 0.429508
#
# Coordination Sequence:
#
# PCOD9366526 Si02
#       7
#     8   8   8   8   8   8   8
#     4  10  23  41  62  91 122 155 202 252 301 362
#     4  10  23  41  62  91 122 155 202 252 301 362
#     4  10  21  38  60  87 118 160 206 247 299 356
#     4  12  26  42  64  94 120 156 202 238 314 388
#     4  10  21  38  60  87 118 160 206 247 299 356
#     4  10  21  35  54  86 122 159 202 249 301 349
#     4  10  21  35  54  86 122 159 202 249 301 349
#
# _framework density 25.551518000000002
#
# number of rings (size 3 to 8) (size 9 to 14) (size 15 to 20)
#    0.000    1.714    0.000    3.429    6.000    1.714 
#    0.000    0.000    0.000   10.286    0.000    0.000 
#    0.000    0.000    0.000    0.000    0.000    0.000 
#
# Total GULP energy -156158.669379 kJ/mol
# GULP energy per Si atom -5577.095335 kJ/mol
# Density = 2.549336 g / cm^3
# Si number density = 25.551518 Si / 1000 Ang^3
#
#
#
# Elastic Constant Matrix: (Units=GPa)
#
#
# Indices 1 2 3 4 5 6 
#
# 1 41.3715 0.9921 -1.9509 0.0000 0.0000 0.0000
# 2 0.9921 82.0525 1.5566 0.0000 0.0000 0.0000
# 3 -1.9509 1.5566 118.2917 0.0000 0.0000 0.0000
# 4 0.0000 0.0000 0.0000 23.2346 0.0000 0.0000
# 5 0.0000 0.0000 0.0000 0.0000 23.6351 0.0000
# 6 0.0000 0.0000 0.0000 0.0000 0.0000 27.5537
#
#
#
# Elastic Compliance Matrix: (Units=1/GPa)
#
#
# Indices 1 2 3 4 5 6 
#
# 1 0.024197 -0.000300 0.000403 0.000000 0.000000 0.000000
# 2 -0.000300 0.012194 -0.000165 0.000000 0.000000 0.000000
# 3 0.000403 -0.000165 0.008463 0.000000 0.000000 0.000000
# 4 0.000000 0.000000 0.000000 0.043039 0.000000 0.000000
# 5 0.000000 0.000000 0.000000 0.000000 0.042310 0.000000
# 6 0.000000 0.000000 0.000000 0.000000 0.000000 0.036293
#
#
# Mechanical properties :
#
#
# Convention : Reuss Voigt Hill
#
# Bulk Modulus (GPa) = 22.35698 26.99016 24.67357
# Shear Modulus (GPa) = 27.54354 30.95920 29.25137
#
# Velocity S-wave (km/s) = 3.28679 3.48464 3.38716
# Velocity P-wave (km/s) = 4.81381 5.17457 4.99745
#
# Compressibility (1/GPa) = 0.04472875
#
# Stress axis : x y z
#
# Youngs Moduli (GPa) = 41.32673 82.00692 118.16834
#
# Poissons Ratio (x) = 0.02462 -0.04762
# Poissons Ratio (y) = 0.01241 0.01955
# Poissons Ratio (z) = -0.01666 0.01357
#
# Static dielectric constant tensor:
#      x y z
#    x 2.103200 0.000000 0.000000 
#    y 0.000000 2.114400 0.000000 
#    z 0.000000 0.000000 1.931340 
# 
# From -- ./inp_files/1342.got.cif
#   From: 2010.05.17/outbox.cif.g08.bks.cpg/sg41_1_cif.got.tgz:1342.got - 2010.06.03 18:54:24.
