data_PCOD9366949
_publ_section_title
;
Structure prediction by ZEFSAII (Michael W. Deem and Ramdas Pophale) SiO2 
 PCOD9366949
Probable space group: A B A 2
;
_chemical_formula_sum "Si O2"
_cell_formula_units_Z 32
_cell_length_a 12.153328
_cell_length_b 8.455673
_cell_length_c 12.076981
_cell_angle_alpha 90.000000
_cell_angle_beta 90.000000
_cell_angle_gamma 90.000000
_cell_volume 1241.085728
_symmetry_space_group_name_H-M "A B A 2"
_symmetry_group_IT_number 41
_symmetry_cell_setting 'orthorhombic'
loop_
_space_group_symop_operation_xyz
x,y,z
-x,-y,z
1/2-x,y,1/2+z
1/2+x,-y,1/2+z
x,1/2+y,1/2+z
-x,1/2-y,1/2+z
1/2-x,1/2+y,z
1/2+x,1/2-y,z
loop_
_atom_site_type_symbol
_atom_site_label
_atom_site_fract_x
_atom_site_fract_y
_atom_site_fract_z
Si Si1 0.550890 0.831178 0.783390
Si Si2 0.500000 0.000000 0.289130
Si Si3 0.500000 0.000000 0.999398
Si Si4 0.691187 0.706519 0.598249
Si Si5 0.373891 0.487660 0.994075
O O1 0.475447 0.679401 0.751303
O O2 0.548901 0.865080 0.916542
O O3 0.660978 0.794716 0.712605
O O4 0.500000 0.000000 0.749276
O O5 0.391733 0.954699 0.363885
O O6 0.402633 0.926427 0.072861
O O7 0.805659 0.625642 0.572547
O O8 0.677121 0.839827 0.505585
O O9 0.500000 0.500000 0.028250
#
# Coordination Sequence:
#
# PCOD9366949 Si02
#       5
#     8   4   4   8   8
#     4  10  23  45  77 114 155 204 267 332 405 495
#     4  10  21  51  74 106 162 200 275 333 402 492
#     4  10  23  47  78 112 156 208 271 337 410 484
#     4  12  24  47  77 110 162 210 268 345 413 480
#     4  10  25  46  73 110 156 209 269 332 408 488
#
# _framework density 25.783874999999998
#
# number of rings (size 3 to 8) (size 9 to 14) (size 15 to 20)
#    1.500    0.000    2.500    1.500    7.000    0.000 
#    9.000    0.000    0.000    0.000    0.000    0.000 
#    0.000    0.000    0.000    0.000    0.000    0.000 
#
# Total GULP energy -89088.873869 kJ/mol
# GULP energy per Si atom -5568.054617 kJ/mol
# Density = 2.572519 g / cm^3
# Si number density = 25.783875 Si / 1000 Ang^3
#
#
#
# Elastic Constant Matrix: (Units=GPa)
#
#
# Indices 1 2 3 4 5 6 
#
# 1 145.7524 59.1800 24.9680 0.0000 0.0000 0.0000
# 2 59.1800 192.3296 14.2960 0.0000 0.0000 0.0000
# 3 24.9680 14.2960 50.0810 0.0000 0.0000 0.0000
# 4 0.0000 0.0000 0.0000 46.3496 0.0000 0.0000
# 5 0.0000 0.0000 0.0000 0.0000 1103.2446 0.0000
# 6 0.0000 0.0000 0.0000 0.0000 0.0000 44.2079
#
#
#
# Elastic Compliance Matrix: (Units=1/GPa)
#
#
# Indices 1 2 3 4 5 6 
#
# 1 0.008410 -0.002325 -0.003529 0.000000 0.000000 0.000000
# 2 -0.002325 0.005955 -0.000541 0.000000 0.000000 0.000000
# 3 -0.003529 -0.000541 0.021881 0.000000 0.000000 0.000000
# 4 0.000000 0.000000 0.000000 0.021575 0.000000 0.000000
# 5 0.000000 0.000000 0.000000 0.000000 0.000906 0.000000
# 6 0.000000 0.000000 0.000000 0.000000 0.000000 0.022620
#
#
# Mechanical properties :
#
#
# Convention : Reuss Voigt Hill
#
# Bulk Modulus (GPa) = 42.63231 65.00567 53.81899
# Shear Modulus (GPa) = 49.04057 258.07503 153.55780
#
# Velocity S-wave (km/s) = 4.36591 10.01543 7.72561
# Velocity P-wave (km/s) = 6.47960 12.60999 10.02489
#
# Compressibility (1/GPa) = 0.02345639
#
# Stress axis : x y z
#
# Youngs Moduli (GPa) = 118.91148 167.92310 45.70113
#
# Poissons Ratio (x) = 0.39048 0.16127
# Poissons Ratio (y) = 0.27651 0.02471
# Poissons Ratio (z) = 0.41962 0.09078
#
# Static dielectric constant tensor:
#      x y z
#    x -0.165970 0.000000 0.000000 
#    y 0.000000 2.252610 0.000000 
#    z 0.000000 0.000000 2.293760 
# 
# From -- ./inp_files/7686.got.cif
#   From: 2010.05.17/outbox.cif.g08.bks.cpg/sg41_4_cif.got.tgz:7686.got - 2010.06.03 18:54:24.
