data_PCOD9366836
_publ_section_title
;
Structure prediction by ZEFSAII (Michael W. Deem and Ramdas Pophale) SiO2 
 PCOD9366836
Probable space group: A B A 2
;
_chemical_formula_sum "Si O2"
_cell_formula_units_Z 64
_cell_length_a 15.195424
_cell_length_b 16.305509
_cell_length_c 11.370684
_cell_angle_alpha 90.000000
_cell_angle_beta 90.000000
_cell_angle_gamma 90.000000
_cell_volume 2817.304400
_symmetry_space_group_name_H-M "A B A 2"
_symmetry_group_IT_number 41
_symmetry_cell_setting 'orthorhombic'
loop_
_space_group_symop_operation_xyz
x,y,z
-x,-y,z
1/2-x,y,1/2+z
1/2+x,-y,1/2+z
x,1/2+y,1/2+z
-x,1/2-y,1/2+z
1/2-x,1/2+y,z
1/2+x,1/2-y,z
loop_
_atom_site_type_symbol
_atom_site_label
_atom_site_fract_x
_atom_site_fract_y
_atom_site_fract_z
Si Si1 0.051945 0.672756 0.869110
Si Si2 0.398525 0.151654 0.616538
Si Si3 0.087291 0.314335 0.526472
Si Si4 0.410453 0.534867 0.547689
Si Si5 0.713379 0.040105 0.219731
Si Si6 0.636717 0.102623 0.861541
Si Si7 0.778686 0.696083 0.070228
Si Si8 0.900402 0.503264 0.444383
O O1 0.104950 0.639308 0.756874
O O2 0.074961 0.765613 0.903676
O O3 0.949224 0.657522 0.840460
O O4 0.073546 0.622204 0.988117
O O5 0.494539 0.191290 0.591450
O O6 0.329846 0.219987 0.579648
O O7 0.389340 0.071254 0.535730
O O8 0.176050 0.285176 0.588611
O O9 0.104351 0.410161 0.508627
O O10 0.500000 0.500000 0.608720
O O11 0.322957 0.525401 0.625732
O O12 0.397289 0.471998 0.440660
O O13 0.813618 0.060710 0.253086
O O14 0.685349 0.127808 0.162203
O O15 0.668939 0.009763 0.339860
O O16 0.704135 0.155398 0.941752
O O17 0.000000 0.500000 0.396117
#
# Coordination Sequence:
#
# PCOD9366836 Si02
#       8
#     8   8   8   8   8   8   8   8
#     4  11  23  46  70 104 151 195 246 304 376 454
#     4  11  25  44  71 106 146 191 248 310 376 450
#     4  11  23  45  70 103 148 189 249 302 375 456
#     4   9  22  41  67 104 141 188 239 298 371 447
#     4  11  21  42  73 100 139 182 242 303 367 442
#     4  10  21  41  72 101 143 190 240 294 380 443
#     4  11  23  43  69 103 140 190 238 302 376 433
#     4  10  23  42  69 103 139 187 241 304 378 442
#
# _framework density 22.716750999999999
#
# number of rings (size 3 to 8) (size 9 to 14) (size 15 to 20)
#    0.000    1.500    2.500    1.875    0.000    6.500 
#    6.750    0.000    0.000    0.000    0.000    0.000 
#    0.000    0.000    0.000    0.000    0.000    0.000 
#
# Total GULP energy -178748.094739 kJ/mol
# GULP energy per Si atom -5585.877961 kJ/mol
# Density = 2.266505 g / cm^3
# Si number density = 22.716751 Si / 1000 Ang^3
#
#
#
# Elastic Constant Matrix: (Units=GPa)
#
#
# Indices 1 2 3 4 5 6 
#
# 1 121.2578 62.6048 42.2610 0.0000 0.0000 0.0000
# 2 62.6048 101.3655 39.4137 0.0000 0.0000 0.0000
# 3 42.2610 39.4137 98.2920 0.0000 0.0000 0.0000
# 4 0.0000 0.0000 0.0000 19.7256 0.0000 0.0000
# 5 0.0000 0.0000 0.0000 0.0000 34.0972 0.0000
# 6 0.0000 0.0000 0.0000 0.0000 0.0000 36.5271
#
#
#
# Elastic Compliance Matrix: (Units=1/GPa)
#
#
# Indices 1 2 3 4 5 6 
#
# 1 0.012703 -0.006779 -0.002743 0.000000 0.000000 0.000000
# 2 -0.006779 0.015305 -0.003223 0.000000 0.000000 0.000000
# 3 -0.002743 -0.003223 0.012646 0.000000 0.000000 0.000000
# 4 0.000000 0.000000 0.000000 0.050696 0.000000 0.000000
# 5 0.000000 0.000000 0.000000 0.000000 0.029328 0.000000
# 6 0.000000 0.000000 0.000000 0.000000 0.000000 0.027377
#
#
# Mechanical properties :
#
#
# Convention : Reuss Voigt Hill
#
# Bulk Modulus (GPa) = 65.94622 67.71938 66.83280
# Shear Modulus (GPa) = 27.99586 29.84570 28.92078
#
# Velocity S-wave (km/s) = 3.51435 3.62860 3.57193
# Velocity P-wave (km/s) = 6.74984 6.88699 6.81876
#
# Compressibility (1/GPa) = 0.01516387
#
# Stress axis : x y z
#
# Youngs Moduli (GPa) = 78.72226 65.33835 79.07940
#
# Poissons Ratio (x) = 0.44291 0.21695
# Poissons Ratio (y) = 0.53364 0.25484
# Poissons Ratio (z) = 0.21597 0.21055
#
# Static dielectric constant tensor:
#      x y z
#    x 1.914600 0.000000 0.000000 
#    y 0.000000 1.828040 0.000000 
#    z 0.000000 0.000000 1.869090 
# 
# From -- ./inp_files/5713.got.cif
#   From: 2010.05.17/outbox.cif.g08.bks.cpg/sg41_3_cif.got.tgz:5713.got - 2010.06.03 18:54:24.
