data_PCOD9366150
_publ_section_title
;
Structure prediction by ZEFSAII (Michael W. Deem and Ramdas Pophale) SiO2 
 PCOD9366150
Probable space group: A B A 2
;
_chemical_formula_sum "Si O2"
_cell_formula_units_Z 64
_cell_length_a 19.823718
_cell_length_b 8.805190
_cell_length_c 19.646649
_cell_angle_alpha 90.000000
_cell_angle_beta 90.000000
_cell_angle_gamma 90.000000
_cell_volume 3429.354086
_symmetry_space_group_name_H-M "A B A 2"
_symmetry_group_IT_number 41
_symmetry_cell_setting 'orthorhombic'
loop_
_space_group_symop_operation_xyz
x,y,z
-x,-y,z
1/2-x,y,1/2+z
1/2+x,-y,1/2+z
x,1/2+y,1/2+z
-x,1/2-y,1/2+z
1/2-x,1/2+y,z
1/2+x,1/2-y,z
loop_
_atom_site_type_symbol
_atom_site_label
_atom_site_fract_x
_atom_site_fract_y
_atom_site_fract_z
Si Si1 0.929026 0.414334 0.096280
Si Si2 0.647759 0.938302 0.953888
Si Si3 0.851029 0.528001 0.812222
Si Si4 0.189859 0.022901 0.081376
Si Si5 0.071245 0.915728 0.171208
Si Si6 0.256365 0.781893 0.992932
Si Si7 0.691283 0.009080 0.182429
Si Si8 0.745734 0.271420 0.771668
O O1 0.933126 0.252245 0.136405
O O2 0.876456 0.516537 0.139747
O O3 0.000000 0.500000 0.094076
O O4 0.898887 0.403644 0.019316
O O5 0.701809 0.800965 0.945038
O O6 0.612835 0.983498 0.882739
O O7 0.695449 0.082328 0.970524
O O8 0.895864 0.575790 0.747117
O O9 0.805502 0.381382 0.794494
O O10 0.795368 0.661738 0.821975
O O11 0.121536 0.010320 0.122524
O O12 0.251075 0.052470 0.132526
O O13 0.208623 0.860443 0.049460
O O14 0.196056 0.152100 0.024815
O O15 0.000000 0.000000 0.173240
O O16 0.720683 0.160121 0.215963
O O17 0.688976 0.882249 0.240542
#
# Coordination Sequence:
#
# PCOD9366150 Si02
#       8
#     8   8   8   8   8   8   8   8
#     4  12  26  40  62  89 122 159 210 258 305 365
#     4  11  23  39  60  92 127 163 199 247 311 374
#     4  11  23  39  60  92 127 163 199 247 311 374
#     4  11  18  35  63  90 117 148 202 255 312 346
#     4  12  26  40  62  89 122 159 210 258 305 365
#     4  10  20  34  64  93 120 154 198 254 302 368
#     4  11  18  35  63  90 117 148 202 255 312 346
#     4  10  20  34  64  93 120 154 198 254 302 368
#
# _framework density 18.662407000000002
#
# number of rings (size 3 to 8) (size 9 to 14) (size 15 to 20)
#    0.000    1.000    7.500    1.500    3.500    0.500 
#    0.000    0.000    0.000    0.000    0.000    0.000 
#    0.000    0.000    0.000    0.000    0.000    0.000 
#
# Total GULP energy -178347.540626 kJ/mol
# GULP energy per Si atom -5573.360645 kJ/mol
# Density = 1.861993 g / cm^3
# Si number density = 18.662407 Si / 1000 Ang^3
#
#
#
# Elastic Constant Matrix: (Units=GPa)
#
#
# Indices 1 2 3 4 5 6 
#
# 1 105.5738 21.9763 37.8228 0.0000 0.0000 0.0000
# 2 21.9763 88.1672 33.7708 0.0000 0.0000 0.0000
# 3 37.8228 33.7708 107.3698 0.0000 0.0000 0.0000
# 4 0.0000 0.0000 0.0000 9.0844 0.0000 0.0000
# 5 0.0000 0.0000 0.0000 0.0000 16.4246 0.0000
# 6 0.0000 0.0000 0.0000 0.0000 0.0000 24.5092
#
#
#
# Elastic Compliance Matrix: (Units=1/GPa)
#
#
# Indices 1 2 3 4 5 6 
#
# 1 0.010996 -0.001429 -0.003424 0.000000 0.000000 0.000000
# 2 -0.001429 0.013081 -0.003611 0.000000 0.000000 0.000000
# 3 -0.003424 -0.003611 0.011656 0.000000 0.000000 0.000000
# 4 0.000000 0.000000 0.000000 0.110079 0.000000 0.000000
# 5 0.000000 0.000000 0.000000 0.000000 0.060884 0.000000
# 6 0.000000 0.000000 0.000000 0.000000 0.000000 0.040801
#
#
# Mechanical properties :
#
#
# Convention : Reuss Voigt Hill
#
# Bulk Modulus (GPa) = 53.17875 54.25008 53.71442
# Shear Modulus (GPa) = 18.47100 23.83969 21.15535
#
# Velocity S-wave (km/s) = 3.14943 3.57798 3.37052
# Velocity P-wave (km/s) = 6.46392 6.79717 6.63264
#
# Compressibility (1/GPa) = 0.01880450
#
# Stress axis : x y z
#
# Youngs Moduli (GPa) = 90.93979 76.44396 85.79619
#
# Poissons Ratio (x) = 0.10927 0.29377
# Poissons Ratio (y) = 0.12999 0.30981
# Poissons Ratio (z) = 0.31138 0.27604
#
# Static dielectric constant tensor:
#      x y z
#    x 1.611170 0.000000 0.000000 
#    y 0.000000 1.666320 0.000000 
#    z 0.000000 0.000000 1.758850 
# 
# From -- ./inp_files/10688.got.cif
#   From: 2010.05.17/outbox.cif.g08.bks.cpg/sg41_6_cif.got.tgz:10688.got - 2010.06.03 18:54:24.
