data_PCOD9366995
_publ_section_title
;
Structure prediction by ZEFSAII (Michael W. Deem and Ramdas Pophale) SiO2 
 PCOD9366995
Probable space group: A B A 2
;
_chemical_formula_sum "Si O2"
_cell_formula_units_Z 40
_cell_length_a 18.337874
_cell_length_b 4.673545
_cell_length_c 17.153092
_cell_angle_alpha 90.000000
_cell_angle_beta 90.000000
_cell_angle_gamma 90.000000
_cell_volume 1470.069374
_symmetry_space_group_name_H-M "A B A 2"
_symmetry_group_IT_number 41
_symmetry_cell_setting 'orthorhombic'
loop_
_space_group_symop_operation_xyz
x,y,z
-x,-y,z
1/2-x,y,1/2+z
1/2+x,-y,1/2+z
x,1/2+y,1/2+z
-x,1/2-y,1/2+z
1/2-x,1/2+y,z
1/2+x,1/2-y,z
loop_
_atom_site_type_symbol
_atom_site_label
_atom_site_fract_x
_atom_site_fract_y
_atom_site_fract_z
Si Si1 0.000000 0.000000 0.250000
Si Si2 0.000000 0.500000 0.005923
Si Si3 0.614754 0.253341 0.628357
Si Si4 0.395564 0.998118 0.878126
Si Si5 0.800983 0.430788 0.273484
Si Si6 0.698956 0.574437 0.983460
O O1 0.058870 0.878439 0.190193
O O2 0.946462 0.845503 0.312299
O O3 0.940219 0.386731 0.065945
O O4 0.947238 0.657659 0.943395
O O5 0.667410 0.425174 0.686149
O O6 0.667288 0.079397 0.570807
O O7 0.354123 0.746750 0.830673
O O8 0.354238 0.248658 0.926111
O O9 0.774842 0.754735 0.283935
O O10 0.725251 0.250656 0.973014
#
# Coordination Sequence:
#
# PCOD9366995 Si02
#       6
#     4   4   8   8   8   8
#     4   9  20  40  62  95 132 178 224 275 330 390
#     4   9  20  40  62  95 132 178 224 275 330 390
#     4  10  22  38  64  96 134 172 220 272 328 392
#     4   9  20  40  66  94 134 175 224 274 330 395
#     4  11  23  41  67  98 132 172 217 272 331 392
#     4  11  23  41  67  98 132 172 217 272 331 392
#
# _framework density 27.209596999999999
#
# number of rings (size 3 to 8) (size 9 to 14) (size 15 to 20)
#    0.000    2.000    0.000    2.400    0.000    6.400 
#    0.000    4.000    0.000   16.800    0.000    0.000 
#    0.000    0.000    0.000    0.000    0.000    0.000 
#
# Total GULP energy -111556.770532 kJ/mol
# GULP energy per Si atom -5577.838527 kJ/mol
# Density = 2.714767 g / cm^3
# Si number density = 27.209597 Si / 1000 Ang^3
#
#
#
# Elastic Constant Matrix: (Units=GPa)
#
#
# Indices 1 2 3 4 5 6 
#
# 1 94.5649 20.0270 75.9196 0.0000 0.0000 0.0000
# 2 20.0270 105.1745 27.7361 0.0000 0.0000 0.0000
# 3 75.9196 27.7361 226.2970 0.0000 0.0000 0.0000
# 4 0.0000 0.0000 0.0000 24.4570 0.0000 0.0000
# 5 0.0000 0.0000 0.0000 0.0000 96.9592 0.0000
# 6 0.0000 0.0000 0.0000 0.0000 0.0000 15.3013
#
#
#
# Elastic Compliance Matrix: (Units=1/GPa)
#
#
# Indices 1 2 3 4 5 6 
#
# 1 0.014713 -0.001550 -0.004746 0.000000 0.000000 0.000000
# 2 -0.001550 0.009989 -0.000704 0.000000 0.000000 0.000000
# 3 -0.004746 -0.000704 0.006098 0.000000 0.000000 0.000000
# 4 0.000000 0.000000 0.000000 0.040888 0.000000 0.000000
# 5 0.000000 0.000000 0.000000 0.000000 0.010314 0.000000
# 6 0.000000 0.000000 0.000000 0.000000 0.000000 0.065354
#
#
# Mechanical properties :
#
#
# Convention : Reuss Voigt Hill
#
# Bulk Modulus (GPa) = 59.52778 74.82243 67.17511
# Shear Modulus (GPa) = 29.94805 47.50043 38.72424
#
# Velocity S-wave (km/s) = 3.32119 4.18272 3.77660
# Velocity P-wave (km/s) = 6.05244 7.13338 6.61503
#
# Compressibility (1/GPa) = 0.01679888
#
# Stress axis : x y z
#
# Youngs Moduli (GPa) = 67.96538 100.11124 163.99995
#
# Poissons Ratio (x) = 0.15518 0.77837
# Poissons Ratio (y) = 0.10535 0.11550
# Poissons Ratio (z) = 0.32257 0.07051
#
# Static dielectric constant tensor:
#      x y z
#    x 2.217900 0.000000 0.000000 
#    y 0.000000 2.219020 0.000000 
#    z 0.000000 0.000000 4.117770 
# 
# From -- ./inp_files/10503.got.cif
#   From: 2010.05.17/outbox.cif.g08.bks.cpg/sg41_6_cif.got.tgz:10503.got - 2010.06.03 18:54:24.
