data_PCOD9366675
_publ_section_title
;
Structure prediction by ZEFSAII (Michael W. Deem and Ramdas Pophale) SiO2 
 PCOD9366675
Probable space group: A B A 2
;
_chemical_formula_sum "Si O2"
_cell_formula_units_Z 60
_cell_length_a 13.137386
_cell_length_b 25.264311
_cell_length_c 7.939482
_cell_angle_alpha 90.000000
_cell_angle_beta 90.000000
_cell_angle_gamma 90.000000
_cell_volume 2635.169697
_symmetry_space_group_name_H-M "A B A 2"
_symmetry_group_IT_number 41
_symmetry_cell_setting 'orthorhombic'
loop_
_space_group_symop_operation_xyz
x,y,z
-x,-y,z
1/2-x,y,1/2+z
1/2+x,-y,1/2+z
x,1/2+y,1/2+z
-x,1/2-y,1/2+z
1/2-x,1/2+y,z
1/2+x,1/2-y,z
loop_
_atom_site_type_symbol
_atom_site_label
_atom_site_fract_x
_atom_site_fract_y
_atom_site_fract_z
Si Si1 0.627568 0.104514 0.609220
Si Si2 0.599047 0.167031 0.144369
Si Si3 0.826492 0.564931 0.982209
Si Si4 0.715109 0.817232 0.411956
Si Si5 0.000000 0.500000 0.151791
Si Si6 0.380129 0.725747 0.249700
Si Si7 0.054125 0.104609 0.852666
Si Si8 0.114969 0.285643 0.768183
O O1 0.703411 0.068679 0.493075
O O2 0.634990 0.080041 0.796158
O O3 0.516665 0.104560 0.520506
O O4 0.652629 0.167211 0.644715
O O5 0.646462 0.212076 0.262512
O O6 0.495225 0.149016 0.230746
O O7 0.653815 0.111523 0.118344
O O8 0.601808 0.191233 0.957683
O O9 0.901037 0.518450 0.043988
O O10 0.669012 0.802335 0.590170
O O11 0.836095 0.808376 0.402824
O O12 0.669119 0.874629 0.374046
O O13 0.674217 0.769298 0.291977
O O14 0.039180 0.548544 0.264798
O O15 0.499504 0.726146 0.216844
#
# Coordination Sequence:
#
# PCOD9366675 Si02
#       8
#     8   8   8   8   4   8   8   8
#     4  11  22  41  72  99 137 172 234 274 346 408
#     4   9  20  36  60  89 131 176 214 271 322 394
#     4  10  21  41  67 102 127 174 226 287 334 404
#     4  11  24  37  61  93 139 177 224 271 334 406
#     4  10  24  44  70  98 132 168 224 288 350 390
#     4  11  22  37  57  95 134 184 217 264 339 404
#     4  11  22  42  66  93 132 177 221 287 330 398
#     4  10  21  39  62  96 137 180 223 275 331 410
#
# _framework density 22.768933000000001
#
# number of rings (size 3 to 8) (size 9 to 14) (size 15 to 20)
#    0.000    1.600    2.667    2.400    1.867    3.733 
#    0.000    2.667    0.000    0.000    0.000    0.000 
#    0.000    0.000    0.000    0.000    0.000    0.000 
#
# Total GULP energy -167279.007113 kJ/mol
# GULP energy per Si atom -5575.966904 kJ/mol
# Density = 2.271711 g / cm^3
# Si number density = 22.768933 Si / 1000 Ang^3
#
#
#
# Elastic Constant Matrix: (Units=GPa)
#
#
# Indices 1 2 3 4 5 6 
#
# 1 65.1908 25.8082 14.0946 0.0000 0.0000 0.0000
# 2 25.8082 110.1093 37.3668 0.0000 0.0000 0.0000
# 3 14.0946 37.3668 92.5235 0.0000 0.0000 0.0000
# 4 0.0000 0.0000 0.0000 21.6176 0.0000 0.0000
# 5 0.0000 0.0000 0.0000 0.0000 23.8676 0.0000
# 6 0.0000 0.0000 0.0000 0.0000 0.0000 32.4785
#
#
#
# Elastic Compliance Matrix: (Units=1/GPa)
#
#
# Indices 1 2 3 4 5 6 
#
# 1 0.017011 -0.003601 -0.001137 0.000000 0.000000 0.000000
# 2 -0.003601 0.011287 -0.004010 0.000000 0.000000 0.000000
# 3 -0.001137 -0.004010 0.012601 0.000000 0.000000 0.000000
# 4 0.000000 0.000000 0.000000 0.046259 0.000000 0.000000
# 5 0.000000 0.000000 0.000000 0.000000 0.041898 0.000000
# 6 0.000000 0.000000 0.000000 0.000000 0.000000 0.030790
#
#
# Mechanical properties :
#
#
# Convention : Reuss Voigt Hill
#
# Bulk Modulus (GPa) = 42.73044 46.92921 44.82982
# Shear Modulus (GPa) = 27.00640 28.29633 27.65137
#
# Velocity S-wave (km/s) = 3.44773 3.52911 3.48865
# Velocity P-wave (km/s) = 5.88701 6.10425 5.99661
#
# Compressibility (1/GPa) = 0.02340252
#
# Stress axis : x y z
#
# Youngs Moduli (GPa) = 58.78499 88.59965 79.36117
#
# Poissons Ratio (x) = 0.31908 0.09023
# Poissons Ratio (y) = 0.21171 0.31821
# Poissons Ratio (z) = 0.06684 0.35526
#
# Static dielectric constant tensor:
#      x y z
#    x 2.021240 0.000000 0.000000 
#    y 0.000000 1.831330 0.000000 
#    z 0.000000 0.000000 1.862790 
# 
# From -- ./inp_files/2760.got.cif
#   From: 2010.05.17/outbox.cif.g08.bks.cpg/sg41_2_cif.got.tgz:2760.got - 2010.06.03 18:54:24.
