data_PCOD9366362
_publ_section_title
;
Structure prediction by ZEFSAII (Michael W. Deem and Ramdas Pophale) SiO2 
 PCOD9366362
Probable space group: A B A 2
;
_chemical_formula_sum "Si O2"
_cell_formula_units_Z 44
_cell_length_a 22.772139
_cell_length_b 14.628621
_cell_length_c 5.320878
_cell_angle_alpha 90.000000
_cell_angle_beta 90.000000
_cell_angle_gamma 90.000000
_cell_volume 1772.517435
_symmetry_space_group_name_H-M "A B A 2"
_symmetry_group_IT_number 41
_symmetry_cell_setting 'orthorhombic'
loop_
_space_group_symop_operation_xyz
x,y,z
-x,-y,z
1/2-x,y,1/2+z
1/2+x,-y,1/2+z
x,1/2+y,1/2+z
-x,1/2-y,1/2+z
1/2-x,1/2+y,z
1/2+x,1/2-y,z
loop_
_atom_site_type_symbol
_atom_site_label
_atom_site_fract_x
_atom_site_fract_y
_atom_site_fract_z
Si Si1 0.464380 0.769051 0.691940
Si Si2 0.779730 0.930892 0.667907
Si Si3 0.000000 0.000000 0.741606
Si Si4 0.730273 0.632848 0.092527
Si Si5 0.902308 0.892774 0.504315
Si Si6 0.399619 0.944697 0.623513
O O1 0.512728 0.774484 0.460186
O O2 0.412764 0.714675 0.539307
O O3 0.434898 0.865287 0.770549
O O4 0.755623 0.894615 0.404491
O O5 0.848584 0.915041 0.687910
O O6 0.768031 0.039552 0.637467
O O7 0.967108 0.925297 0.579390
O O8 0.054241 0.962368 0.902075
O O9 0.742462 0.682767 0.354187
O O10 0.663623 0.598668 0.066150
O O11 0.889997 0.958464 0.266125
#
# Coordination Sequence:
#
# PCOD9366362 Si02
#       6
#     8   8   4   8   8   8
#     4  12  28  50  66 108 158 186 248 316 362 448
#     4  10  20  39  66  98 137 178 236 304 350 429
#     4  12  22  40  68  98 126 188 246 286 370 444
#     4  10  20  39  66  98 137 178 236 304 350 429
#     4  12  25  43  74 101 142 198 241 302 378 438
#     4  12  25  43  74 101 142 198 241 302 378 438
#
# _framework density 24.823453000000001
#
# number of rings (size 3 to 8) (size 9 to 14) (size 15 to 20)
#    0.000    0.727    5.455    4.909    0.000    0.000 
#    0.000    1.818    0.000    0.000    0.000    0.000 
#    0.000    0.000    0.000    0.000    0.000    0.000 
#
# Total GULP energy -122683.310078 kJ/mol
# GULP energy per Si atom -5576.514094 kJ/mol
# Density = 2.476695 g / cm^3
# Si number density = 24.823453 Si / 1000 Ang^3
#
#
#
# Elastic Constant Matrix: (Units=GPa)
#
#
# Indices 1 2 3 4 5 6 
#
# 1 162.9438 11.4465 49.5016 0.0000 0.0000 0.0000
# 2 11.4465 68.0509 -6.1511 0.0000 0.0000 0.0000
# 3 49.5016 -6.1511 137.4120 0.0000 0.0000 0.0000
# 4 0.0000 0.0000 0.0000 8.5607 0.0000 0.0000
# 5 0.0000 0.0000 0.0000 0.0000 54.6452 0.0000
# 6 0.0000 0.0000 0.0000 0.0000 0.0000 5.1088
#
#
#
# Elastic Compliance Matrix: (Units=1/GPa)
#
#
# Indices 1 2 3 4 5 6 
#
# 1 0.007025 -0.001416 -0.002594 0.000000 0.000000 0.000000
# 2 -0.001416 0.015040 0.001183 0.000000 0.000000 0.000000
# 3 -0.002594 0.001183 0.008265 0.000000 0.000000 0.000000
# 4 0.000000 0.000000 0.000000 0.116813 0.000000 0.000000
# 5 0.000000 0.000000 0.000000 0.000000 0.018300 0.000000
# 6 0.000000 0.000000 0.000000 0.000000 0.000000 0.195739
#
#
# Mechanical properties :
#
#
# Convention : Reuss Voigt Hill
#
# Bulk Modulus (GPa) = 40.52484 53.11117 46.81801
# Shear Modulus (GPa) = 13.33120 34.57026 23.95073
#
# Velocity S-wave (km/s) = 2.31993 3.73586 3.10956
# Velocity P-wave (km/s) = 4.85147 6.32858 5.63860
#
# Compressibility (1/GPa) = 0.02467622
#
# Stress axis : x y z
#
# Youngs Moduli (GPa) = 142.35709 66.48918 120.99501
#
# Poissons Ratio (x) = 0.09415 0.31385
# Poissons Ratio (y) = 0.20158 -0.14318
# Poissons Ratio (z) = 0.36927 -0.07868
#
# Static dielectric constant tensor:
#      x y z
#    x 1.691630 0.000000 0.000000 
#    y 0.000000 2.242240 0.000000 
#    z 0.000000 0.000000 2.125660 
# 
# From -- ./inp_files/942.got.cif
#   From: 2010.05.17/outbox.cif.g08.bks.cpg/sg41_1_cif.got.tgz:942.got - 2010.06.03 18:54:24.
