data_PCOD9366131
_publ_section_title
;
Structure prediction by ZEFSAII (Michael W. Deem and Ramdas Pophale) SiO2 
 PCOD9366131
Probable space group: A B A 2
;
_chemical_formula_sum "Si O2"
_cell_formula_units_Z 48
_cell_length_a 15.275957
_cell_length_b 9.122229
_cell_length_c 16.344539
_cell_angle_alpha 90.000000
_cell_angle_beta 90.000000
_cell_angle_gamma 90.000000
_cell_volume 2277.624225
_symmetry_space_group_name_H-M "A B A 2"
_symmetry_group_IT_number 41
_symmetry_cell_setting 'orthorhombic'
loop_
_space_group_symop_operation_xyz
x,y,z
-x,-y,z
1/2-x,y,1/2+z
1/2+x,-y,1/2+z
x,1/2+y,1/2+z
-x,1/2-y,1/2+z
1/2-x,1/2+y,z
1/2+x,1/2-y,z
loop_
_atom_site_type_symbol
_atom_site_label
_atom_site_fract_x
_atom_site_fract_y
_atom_site_fract_z
Si Si1 0.171730 0.465826 0.258280
Si Si2 0.097353 0.003245 0.168724
Si Si3 0.361295 0.288371 0.607173
Si Si4 0.932863 0.821866 0.657773
Si Si5 0.165043 0.149248 0.323585
Si Si6 0.602682 0.481242 0.490122
O O1 0.193748 0.380253 0.173129
O O2 0.091223 0.569272 0.231599
O O3 0.159526 0.325445 0.316998
O O4 0.245430 0.575464 0.290995
O O5 0.113333 0.831933 0.176171
O O6 0.154970 0.115299 0.115017
O O7 0.096826 0.079586 0.258030
O O8 0.000000 0.000000 0.131186
O O9 0.463004 0.308199 0.639370
O O10 0.358175 0.362411 0.518921
O O11 0.894810 0.885551 0.573042
O O12 0.148204 0.093151 0.414130
O O13 0.500000 0.500000 0.470034
#
# Coordination Sequence:
#
# PCOD9366131 Si02
#       6
#     8   8   8   8   8   8
#     4  10  20  34  51  76 106 142 182 217 262 319
#     4   9  17  32  58  86 106 135 180 223 266 326
#     4   8  17  35  61  83 104 137 182 224 268 321
#     4   9  17  36  62  82 103 137 181 225 267 322
#     4  11  21  34  51  77 112 144 178 223 273 322
#     4   9  18  35  56  78 107 141 176 224 275 316
#
# _framework density 21.074591000000002
#
# number of rings (size 3 to 8) (size 9 to 14) (size 15 to 20)
#    0.000    2.667    0.000    3.000    0.000    0.000 
#    0.000   18.333    0.000   14.000    0.000    0.000 
#    0.000    0.000    0.000    0.000    0.000    0.000 
#
# Total GULP energy -133687.340092 kJ/mol
# GULP energy per Si atom -5570.305837 kJ/mol
# Density = 2.102662 g / cm^3
# Si number density = 21.074591 Si / 1000 Ang^3
#
#
#
# Elastic Constant Matrix: (Units=GPa)
#
#
# Indices 1 2 3 4 5 6 
#
# 1 56.0097 26.7771 24.4370 0.0000 0.0000 0.0000
# 2 26.7771 178.8804 47.0676 0.0000 0.0000 0.0000
# 3 24.4370 47.0676 98.2074 0.0000 0.0000 0.0000
# 4 0.0000 0.0000 0.0000 33.9978 0.0000 0.0000
# 5 0.0000 0.0000 0.0000 0.0000 18.4545 0.0000
# 6 0.0000 0.0000 0.0000 0.0000 0.0000 26.0721
#
#
#
# Elastic Compliance Matrix: (Units=1/GPa)
#
#
# Indices 1 2 3 4 5 6 
#
# 1 0.020628 -0.001988 -0.004180 0.000000 0.000000 0.000000
# 2 -0.001988 0.006589 -0.002663 0.000000 0.000000 0.000000
# 3 -0.004180 -0.002663 0.012499 0.000000 0.000000 0.000000
# 4 0.000000 0.000000 0.000000 0.029414 0.000000 0.000000
# 5 0.000000 0.000000 0.000000 0.000000 0.054187 0.000000
# 6 0.000000 0.000000 0.000000 0.000000 0.000000 0.038355
#
#
# Mechanical properties :
#
#
# Convention : Reuss Voigt Hill
#
# Bulk Modulus (GPa) = 45.34430 58.85121 52.09776
# Shear Modulus (GPa) = 26.78298 31.35926 29.07112
#
# Velocity S-wave (km/s) = 3.56879 3.86166 3.71811
# Velocity P-wave (km/s) = 6.20842 6.91875 6.57319
#
# Compressibility (1/GPa) = 0.02205349
#
# Stress axis : x y z
#
# Youngs Moduli (GPa) = 48.47709 151.77674 80.00644
#
# Poissons Ratio (x) = 0.30173 0.33444
# Poissons Ratio (y) = 0.09637 0.21306
# Poissons Ratio (z) = 0.20264 0.40419
#
# Static dielectric constant tensor:
#      x y z
#    x 1.861130 0.000000 0.000000 
#    y 0.000000 1.849140 0.000000 
#    z 0.000000 0.000000 1.723280 
# 
# From -- ./inp_files/10645.got.cif
#   From: 2010.05.17/outbox.cif.g08.bks.cpg/sg41_6_cif.got.tgz:10645.got - 2010.06.03 18:54:24.
