data_PCOD9366284
_publ_section_title
;
Structure prediction by ZEFSAII (Michael W. Deem and Ramdas Pophale) SiO2 
 PCOD9366284
Probable space group: A B A 2
;
_chemical_formula_sum "Si O2"
_cell_formula_units_Z 64
_cell_length_a 15.517577
_cell_length_b 9.138274
_cell_length_c 20.927204
_cell_angle_alpha 90.000000
_cell_angle_beta 90.000000
_cell_angle_gamma 90.000000
_cell_volume 2967.558525
_symmetry_space_group_name_H-M "A B A 2"
_symmetry_group_IT_number 41
_symmetry_cell_setting 'orthorhombic'
loop_
_space_group_symop_operation_xyz
x,y,z
-x,-y,z
1/2-x,y,1/2+z
1/2+x,-y,1/2+z
x,1/2+y,1/2+z
-x,1/2-y,1/2+z
1/2-x,1/2+y,z
1/2+x,1/2-y,z
loop_
_atom_site_type_symbol
_atom_site_label
_atom_site_fract_x
_atom_site_fract_y
_atom_site_fract_z
Si Si1 0.429605 0.701375 0.163160
Si Si2 0.153458 0.276204 0.375088
Si Si3 0.888497 0.849045 0.989548
Si Si4 0.189662 0.200548 0.518939
Si Si5 0.828779 0.892085 0.848911
Si Si6 0.495565 0.177661 0.294407
Si Si7 0.897216 0.074602 0.101368
Si Si8 0.413233 0.420377 0.560931
O O1 0.460196 0.757100 0.231267
O O2 0.518813 0.658617 0.126845
O O3 0.376782 0.549796 0.154467
O O4 0.383854 0.828147 0.122542
O O5 0.154188 0.267556 0.452251
O O6 0.232439 0.170664 0.354751
O O7 0.177979 0.433025 0.344000
O O8 0.056280 0.253777 0.349700
O O9 0.790467 0.812489 0.008573
O O10 0.937742 0.701159 0.007842
O O11 0.911620 0.981451 0.036129
O O12 0.883333 0.879455 0.915241
O O13 0.169411 0.304079 0.578738
O O14 0.150735 0.040562 0.532741
O O15 0.892044 0.804176 0.800988
O O16 0.500000 0.000000 0.295350
O O17 0.500000 0.500000 0.581385
#
# Coordination Sequence:
#
# PCOD9366284 Si02
#       8
#     8   8   8   8   8   8   8   8
#     4  10  22  41  61  90 122 169 216 267 301 383
#     4  10  23  42  67  98 130 168 213 271 325 390
#     4  10  22  38  61  95 135 163 200 261 331 398
#     4  11  21  38  63  97 129 163 202 261 333 392
#     4  10  22  43  66  97 131 168 214 267 325 387
#     4  10  23  44  70  89 125 179 224 260 324 378
#     4  10  20  38  63  85 129 159 203 262 321 369
#     4  11  22  35  61  93 124 163 207 257 316 376
#
# _framework density 21.566551
#
# number of rings (size 3 to 8) (size 9 to 14) (size 15 to 20)
#    0.000    1.750    2.500    1.125    7.000    0.000 
#    4.500    3.750    5.500    0.000    0.000    0.000 
#    0.000    0.000    0.000    0.000    0.000    0.000 
#
# Total GULP energy -178370.343908 kJ/mol
# GULP energy per Si atom -5574.073247 kJ/mol
# Density = 2.151746 g / cm^3
# Si number density = 21.566551 Si / 1000 Ang^3
#
#
#
# Elastic Constant Matrix: (Units=GPa)
#
#
# Indices 1 2 3 4 5 6 
#
# 1 54.6960 15.0659 17.9493 0.0000 0.0000 0.0000
# 2 15.0659 72.3450 3.0591 0.0000 0.0000 0.0000
# 3 17.9493 3.0591 59.3109 0.0000 0.0000 0.0000
# 4 0.0000 0.0000 0.0000 21.4053 0.0000 0.0000
# 5 0.0000 0.0000 0.0000 0.0000 27.7294 0.0000
# 6 0.0000 0.0000 0.0000 0.0000 0.0000 28.9332
#
#
#
# Elastic Compliance Matrix: (Units=1/GPa)
#
#
# Indices 1 2 3 4 5 6 
#
# 1 0.021508 -0.004213 -0.006292 0.000000 0.000000 0.000000
# 2 -0.004213 0.014678 0.000518 0.000000 0.000000 0.000000
# 3 -0.006292 0.000518 0.018738 0.000000 0.000000 0.000000
# 4 0.000000 0.000000 0.000000 0.046717 0.000000 0.000000
# 5 0.000000 0.000000 0.000000 0.000000 0.036063 0.000000
# 6 0.000000 0.000000 0.000000 0.000000 0.000000 0.034562
#
#
# Mechanical properties :
#
#
# Convention : Reuss Voigt Hill
#
# Bulk Modulus (GPa) = 28.61209 28.72226 28.66718
# Shear Modulus (GPa) = 24.52302 25.63209 25.07755
#
# Velocity S-wave (km/s) = 3.37573 3.45122 3.41368
# Velocity P-wave (km/s) = 5.33758 5.40630 5.37205
#
# Compressibility (1/GPa) = 0.03495026
#
# Stress axis : x y z
#
# Youngs Moduli (GPa) = 46.49420 68.12867 53.36846
#
# Poissons Ratio (x) = 0.28703 0.33578
# Poissons Ratio (y) = 0.19588 -0.02764
# Poissons Ratio (z) = 0.29253 -0.03529
#
# Static dielectric constant tensor:
#      x y z
#    x 1.818170 0.000000 0.000000 
#    y 0.000000 1.885150 0.000000 
#    z 0.000000 0.000000 1.809620 
# 
# From -- ./inp_files/11660.got.cif
#   From: 2010.05.17/outbox.cif.g08.bks.cpg/sg41_6_cif.got.tgz:11660.got - 2010.06.03 18:54:24.
