data_PCOD9366013
_publ_section_title
;
Structure prediction by ZEFSAII (Michael W. Deem and Ramdas Pophale) SiO2 
 PCOD9366013
Probable space group: A B A 2
;
_chemical_formula_sum "Si O2"
_cell_formula_units_Z 56
_cell_length_a 9.260957
_cell_length_b 15.928237
_cell_length_c 18.834020
_cell_angle_alpha 90.000000
_cell_angle_beta 90.000000
_cell_angle_gamma 90.000000
_cell_volume 2778.219812
_symmetry_space_group_name_H-M "A B A 2"
_symmetry_group_IT_number 41
_symmetry_cell_setting 'orthorhombic'
loop_
_space_group_symop_operation_xyz
x,y,z
-x,-y,z
1/2-x,y,1/2+z
1/2+x,-y,1/2+z
x,1/2+y,1/2+z
-x,1/2-y,1/2+z
1/2-x,1/2+y,z
1/2+x,1/2-y,z
loop_
_atom_site_type_symbol
_atom_site_label
_atom_site_fract_x
_atom_site_fract_y
_atom_site_fract_z
Si Si1 0.500000 0.000000 0.990060
Si Si2 0.261596 0.693506 0.189426
Si Si3 0.799173 0.091356 0.377702
Si Si4 0.359518 0.053055 0.287544
Si Si5 0.000000 0.000000 0.148080
Si Si6 0.434876 0.837497 0.741804
Si Si7 0.776419 0.403331 0.552452
Si Si8 0.987236 0.898022 0.923700
O O1 0.404570 0.940981 0.938744
O O2 0.621955 0.944403 0.031272
O O3 0.199176 0.607820 0.223906
O O4 0.173806 0.776346 0.203197
O O5 0.410658 0.704440 0.231022
O O6 0.267195 0.674304 0.106240
O O7 0.883934 0.148741 0.322041
O O8 0.653871 0.129041 0.414051
O O9 0.746601 0.012150 0.327947
O O10 0.410433 0.117430 0.348610
O O11 0.500000 0.000000 0.265323
O O12 0.870675 0.971116 0.096758
O O13 0.050345 0.924644 0.198820
O O14 0.877849 0.375869 0.486349
O O15 0.000000 0.000000 0.929246
#
# Coordination Sequence:
#
# PCOD9366013 Si02
#       8
#     4   8   8   8   4   8   8   8
#     4  12  19  32  66 101 130 162 232 274 328 401
#     4  11  26  41  63  95 137 170 215 278 337 397
#     4  10  19  36  67  95 125 168 226 276 316 400
#     4   9  19  37  67  96 122 167 216 275 323 388
#     4  10  21  44  68  87 124 180 224 262 334 407
#     4  11  25  42  67  95 129 175 222 280 330 386
#     4  11  21  37  64  95 131 172 212 278 332 406
#     4   9  17  36  64  89 126 165 214 267 326 388
#
# _framework density 20.156793
#
# number of rings (size 3 to 8) (size 9 to 14) (size 15 to 20)
#    0.000    2.000    3.571    3.000    5.000    1.143 
#    0.000    0.000   15.714    0.000    0.000    0.000 
#    0.000    0.000    0.000    0.000    0.000    0.000 
#
# Total GULP energy -156143.577071 kJ/mol
# GULP energy per Si atom -5576.556324 kJ/mol
# Density = 2.011092 g / cm^3
# Si number density = 20.156793 Si / 1000 Ang^3
#
#
#
# Elastic Constant Matrix: (Units=GPa)
#
#
# Indices 1 2 3 4 5 6 
#
# 1 150.7750 35.1604 58.1227 0.0000 0.0000 0.0000
# 2 35.1604 46.3268 7.1246 0.0000 0.0000 0.0000
# 3 58.1227 7.1246 88.9268 0.0000 0.0000 0.0000
# 4 0.0000 0.0000 0.0000 2.5716 0.0000 0.0000
# 5 0.0000 0.0000 0.0000 0.0000 11.0058 0.0000
# 6 0.0000 0.0000 0.0000 0.0000 0.0000 23.0971
#
#
#
# Elastic Compliance Matrix: (Units=1/GPa)
#
#
# Indices 1 2 3 4 5 6 
#
# 1 0.010817 -0.007211 -0.006492 0.000000 0.000000 0.000000
# 2 -0.007211 0.026662 0.002577 0.000000 0.000000 0.000000
# 3 -0.006492 0.002577 0.015282 0.000000 0.000000 0.000000
# 4 0.000000 0.000000 0.000000 0.388869 0.000000 0.000000
# 5 0.000000 0.000000 0.000000 0.000000 0.090861 0.000000
# 6 0.000000 0.000000 0.000000 0.000000 0.000000 0.043295
#
#
# Mechanical properties :
#
#
# Convention : Reuss Voigt Hill
#
# Bulk Modulus (GPa) = 32.77740 54.09378 43.43559
# Shear Modulus (GPa) = 8.22087 19.70962 13.96524
#
# Velocity S-wave (km/s) = 2.02171 3.13040 2.63502
# Velocity P-wave (km/s) = 4.66329 6.32144 5.55459
#
# Compressibility (1/GPa) = 0.03050883
#
# Stress axis : x y z
#
# Youngs Moduli (GPa) = 92.45037 37.50606 65.43672
#
# Poissons Ratio (x) = 0.27046 0.42482
# Poissons Ratio (y) = 0.66666 -0.16863
# Poissons Ratio (z) = 0.60019 -0.09665
#
# Static dielectric constant tensor:
#      x y z
#    x 1.768970 0.000000 0.000000 
#    y 0.000000 1.700970 0.000000 
#    z 0.000000 0.000000 1.746570 
# 
# From -- ./inp_files/11258.got.cif
#   From: 2010.05.17/outbox.cif.g08.bks.cpg/sg41_6_cif.got.tgz:11258.got - 2010.06.03 18:54:24.
