data_PCOD9366609
_publ_section_title
;
Structure prediction by ZEFSAII (Michael W. Deem and Ramdas Pophale) SiO2 
 PCOD9366609
Probable space group: A B A 2
;
_chemical_formula_sum "Si O2"
_cell_formula_units_Z 48
_cell_length_a 10.067963
_cell_length_b 13.259548
_cell_length_c 16.872744
_cell_angle_alpha 90.000000
_cell_angle_beta 90.000000
_cell_angle_gamma 90.000000
_cell_volume 2252.454609
_symmetry_space_group_name_H-M "A B A 2"
_symmetry_group_IT_number 41
_symmetry_cell_setting 'orthorhombic'
loop_
_space_group_symop_operation_xyz
x,y,z
-x,-y,z
1/2-x,y,1/2+z
1/2+x,-y,1/2+z
x,1/2+y,1/2+z
-x,1/2-y,1/2+z
1/2-x,1/2+y,z
1/2+x,1/2-y,z
loop_
_atom_site_type_symbol
_atom_site_label
_atom_site_fract_x
_atom_site_fract_y
_atom_site_fract_z
Si Si1 0.215851 0.531359 0.507060
Si Si2 0.440955 0.287318 0.649842
Si Si3 0.000000 0.000000 0.570992
Si Si4 0.980574 0.228167 0.830008
Si Si5 0.000000 0.500000 0.374779
Si Si6 0.267978 0.745461 0.936548
Si Si7 0.335978 0.848439 0.585731
O O1 0.371283 0.508078 0.515973
O O2 0.128715 0.503920 0.430630
O O3 0.211396 0.651842 0.496115
O O4 0.156103 0.470449 0.583071
O O5 0.492097 0.399041 0.624473
O O6 0.476060 0.248650 0.737488
O O7 0.526258 0.209869 0.596005
O O8 0.281215 0.301736 0.640303
O O9 0.102326 0.265259 0.884276
O O10 0.849917 0.268451 0.873843
O O11 0.989825 0.105713 0.830235
O O12 0.220073 0.829966 0.997185
#
# Coordination Sequence:
#
# PCOD9366609 Si02
#       7
#     8   8   4   8   4   8   8
#     4  10  22  36  62  90 116 158 210 256 296 364
#     4  11  23  39  61  90 125 162 202 260 321 371
#     4  10  21  38  60  88 121 158 210 256 313 370
#     4  11  23  39  61  90 125 162 202 260 321 371
#     4  10  21  38  60  88 121 158 210 256 313 370
#     4  11  22  40  63  90 121 162 209 254 302 372
#     4  11  22  40  63  90 121 162 209 254 302 372
#
# _framework density 21.310085000000001
#
# number of rings (size 3 to 8) (size 9 to 14) (size 15 to 20)
#    0.000    1.333    3.333    2.500    4.667    0.000 
#    0.000    0.000    0.000    2.000    0.000    0.000 
#    0.000    0.000    0.000    0.000    0.000    0.000 
#
# Total GULP energy -133747.298387 kJ/mol
# GULP energy per Si atom -5572.804099 kJ/mol
# Density = 2.126158 g / cm^3
# Si number density = 21.310085 Si / 1000 Ang^3
#
#
#
# Elastic Constant Matrix: (Units=GPa)
#
#
# Indices 1 2 3 4 5 6 
#
# 1 128.1339 15.2169 32.5433 0.0000 0.0000 0.0000
# 2 15.2169 64.9699 11.6639 0.0000 0.0000 0.0000
# 3 32.5433 11.6639 63.9132 0.0000 0.0000 0.0000
# 4 0.0000 0.0000 0.0000 -3.6391 0.0000 0.0000
# 5 0.0000 0.0000 0.0000 0.0000 47.5226 0.0000
# 6 0.0000 0.0000 0.0000 0.0000 0.0000 22.0731
#
#
#
# Elastic Compliance Matrix: (Units=1/GPa)
#
#
# Indices 1 2 3 4 5 6 
#
# 1 0.009075 -0.001340 -0.004376 0.000000 0.000000 0.000000
# 2 -0.001340 0.016111 -0.002258 0.000000 0.000000 0.000000
# 3 -0.004376 -0.002258 0.018287 0.000000 0.000000 0.000000
# 4 0.000000 0.000000 0.000000 -0.274793 0.000000 0.000000
# 5 0.000000 0.000000 0.000000 0.000000 0.021043 0.000000
# 6 0.000000 0.000000 0.000000 0.000000 0.000000 0.045304
#
#
# Mechanical properties :
#
#
# Convention : Reuss Voigt Hill
#
# Bulk Modulus (GPa) = 36.33150 41.76282 39.04716
# Shear Modulus (GPa) = -35.75224 26.36418 -4.69403
#
# Velocity S-wave (km/s) = -4.10043 3.52116 -1.48577
# Velocity P-wave (km/s) = 2.30913 6.01428 3.92680
#
# Compressibility (1/GPa) = 0.02752432
#
# Stress axis : x y z
#
# Youngs Moduli (GPa) = 110.19367 62.06975 54.68491
#
# Poissons Ratio (x) = 0.08316 0.23932
# Poissons Ratio (y) = 0.14764 0.12348
# Poissons Ratio (z) = 0.48224 0.14015
#
# Static dielectric constant tensor:
#      x y z
#    x 1.746670 0.000000 0.000000 
#    y 0.000000 1.354130 0.000000 
#    z 0.000000 0.000000 1.755160 
# 
# From -- ./inp_files/9673.got.cif
#   From: 2010.05.17/outbox.cif.g08.bks.cpg/sg41_5_cif.got.tgz:9673.got - 2010.06.03 18:54:24.
