data_PCOD9366698
_publ_section_title
;
Structure prediction by ZEFSAII (Michael W. Deem and Ramdas Pophale) SiO2 
 PCOD9366698
Probable space group: A B A 2
;
_chemical_formula_sum "Si O2"
_cell_formula_units_Z 60
_cell_length_a 8.223930
_cell_length_b 26.283831
_cell_length_c 12.311317
_cell_angle_alpha 90.000000
_cell_angle_beta 90.000000
_cell_angle_gamma 90.000000
_cell_volume 2661.169793
_symmetry_space_group_name_H-M "A B A 2"
_symmetry_group_IT_number 41
_symmetry_cell_setting 'orthorhombic'
loop_
_space_group_symop_operation_xyz
x,y,z
-x,-y,z
1/2-x,y,1/2+z
1/2+x,-y,1/2+z
x,1/2+y,1/2+z
-x,1/2-y,1/2+z
1/2-x,1/2+y,z
1/2+x,1/2-y,z
loop_
_atom_site_type_symbol
_atom_site_label
_atom_site_fract_x
_atom_site_fract_y
_atom_site_fract_z
Si Si1 0.053714 0.277468 0.067660
Si Si2 0.800357 0.638203 0.913669
Si Si3 0.925251 0.393997 0.740846
Si Si4 0.365401 0.573072 0.901801
Si Si5 0.215997 0.467937 0.400627
Si Si6 0.500000 0.500000 0.231440
Si Si7 0.754384 0.294832 0.697721
Si Si8 0.044615 0.181622 0.909058
O O1 0.150678 0.257004 0.172664
O O2 0.881591 0.297199 0.106226
O O3 0.138154 0.321836 0.001265
O O4 0.031170 0.228155 0.991470
O O5 0.773466 0.581922 0.964955
O O6 0.633952 0.663379 0.869796
O O7 0.930430 0.625287 0.820270
O O8 0.769284 0.412632 0.811626
O O9 0.151864 0.482990 0.808970
O O10 0.872403 0.342350 0.685235
O O11 0.541000 0.553010 0.857209
O O12 0.468482 0.554514 0.175272
O O13 0.390348 0.627728 0.956297
O O14 0.194685 0.521715 0.461441
O O15 0.664896 0.299807 0.813405
#
# Coordination Sequence:
#
# PCOD9366698 Si02
#       8
#     8   8   8   8   8   4   8   8
#     4  12  26  42  60  94 130 175 223 268 322 401
#     4  10  21  39  65  93 129 167 215 271 332 396
#     4   9  19  36  64  95 125 168 212 270 335 393
#     4   8  15  30  59  94 123 162 213 260 327 398
#     4   8  14  29  56  97 123 158 214 259 327 402
#     4   8  14  30  60  98 120 164 212 262 332 400
#     4  11  27  41  64  93 128 176 220 271 328 398
#     4  10  23  42  64  93 130 172 220 273 328 392
#
# _framework density 22.546475999999998
#
# number of rings (size 3 to 8) (size 9 to 14) (size 15 to 20)
#    0.000    2.400    1.333    0.000    7.467    0.000 
#    0.000    0.000    0.000    3.200   55.467    0.000 
#    0.000    0.000    0.000    0.133    0.000    0.000 
#
# Total GULP energy -167077.133329 kJ/mol
# GULP energy per Si atom -5569.237778 kJ/mol
# Density = 2.249516 g / cm^3
# Si number density = 22.546476 Si / 1000 Ang^3
#
#
#
# Elastic Constant Matrix: (Units=GPa)
#
#
# Indices 1 2 3 4 5 6 
#
# 1 76.9664 35.3369 17.1246 0.0000 0.0000 0.0000
# 2 35.3369 206.1153 58.3779 0.0000 0.0000 0.0000
# 3 17.1246 58.3779 51.3575 0.0000 0.0000 0.0000
# 4 0.0000 0.0000 0.0000 18.2626 0.0000 0.0000
# 5 0.0000 0.0000 0.0000 0.0000 23.3585 0.0000
# 6 0.0000 0.0000 0.0000 0.0000 0.0000 19.4150
#
#
#
# Elastic Compliance Matrix: (Units=1/GPa)
#
#
# Indices 1 2 3 4 5 6 
#
# 1 0.014398 -0.001635 -0.002942 0.000000 0.000000 0.000000
# 2 -0.001635 0.007341 -0.007799 0.000000 0.000000 0.000000
# 3 -0.002942 -0.007799 0.029318 0.000000 0.000000 0.000000
# 4 0.000000 0.000000 0.000000 0.054757 0.000000 0.000000
# 5 0.000000 0.000000 0.000000 0.000000 0.042811 0.000000
# 6 0.000000 0.000000 0.000000 0.000000 0.000000 0.051507
#
#
# Mechanical properties :
#
#
# Convention : Reuss Voigt Hill
#
# Bulk Modulus (GPa) = 38.01760 61.79091 49.90426
# Shear Modulus (GPa) = 21.39934 27.11387 24.25660
#
# Velocity S-wave (km/s) = 3.08412 3.47158 3.28357
# Velocity P-wave (km/s) = 5.43883 6.59808 6.04630
#
# Compressibility (1/GPa) = 0.02630361
#
# Stress axis : x y z
#
# Youngs Moduli (GPa) = 69.45400 136.22206 34.10896
#
# Poissons Ratio (x) = 0.22274 0.10036
# Poissons Ratio (y) = 0.11356 0.26602
# Poissons Ratio (z) = 0.20435 1.06243
#
# Static dielectric constant tensor:
#      x y z
#    x 1.924540 0.000000 0.000000 
#    y 0.000000 1.870140 0.000000 
#    z 0.000000 0.000000 1.840930 
# 
# From -- ./inp_files/7554.got.cif
#   From: 2010.05.17/outbox.cif.g08.bks.cpg/sg41_4_cif.got.tgz:7554.got - 2010.06.03 18:54:24.
