data_PCOD9366188
_publ_section_title
;
Structure prediction by ZEFSAII (Michael W. Deem and Ramdas Pophale) SiO2 
 PCOD9366188
Probable space group: A B A 2
;
_chemical_formula_sum "Si O2"
_cell_formula_units_Z 52
_cell_length_a 23.632964
_cell_length_b 8.336339
_cell_length_c 12.518900
_cell_angle_alpha 90.000000
_cell_angle_beta 90.000000
_cell_angle_gamma 90.000000
_cell_volume 2466.378528
_symmetry_space_group_name_H-M "A B A 2"
_symmetry_group_IT_number 41
_symmetry_cell_setting 'orthorhombic'
loop_
_space_group_symop_operation_xyz
x,y,z
-x,-y,z
1/2-x,y,1/2+z
1/2+x,-y,1/2+z
x,1/2+y,1/2+z
-x,1/2-y,1/2+z
1/2-x,1/2+y,z
1/2+x,1/2-y,z
loop_
_atom_site_type_symbol
_atom_site_label
_atom_site_fract_x
_atom_site_fract_y
_atom_site_fract_z
Si Si1 0.280277 0.649885 0.125000
Si Si2 0.500000 0.500000 0.358802
Si Si3 0.184677 0.955378 0.751355
Si Si4 0.199904 0.352909 0.490472
Si Si5 0.005459 0.322724 0.653269
Si Si6 0.060594 0.913179 0.763354
Si Si7 0.416357 0.203544 0.973355
O O1 0.312256 0.776325 0.199954
O O2 0.227720 0.572897 0.190966
O O3 0.312183 0.496893 0.074696
O O4 0.255188 0.759506 0.029782
O O5 0.479849 0.362349 0.276545
O O6 0.445938 0.545687 0.427643
O O7 0.118990 0.006813 0.744632
O O8 0.203379 0.931744 0.873996
O O9 0.149905 0.222020 0.488692
O O10 0.051207 0.236674 0.582562
O O11 0.000000 0.500000 0.604087
O O12 0.948552 0.220680 0.670081
O O13 0.069368 0.832033 0.879473
O O14 0.000000 0.000000 0.762182
#
# Coordination Sequence:
#
# PCOD9366188 Si02
#       7
#     8   4   8   8   8   8   8
#     4  10  22  40  62  90 116 157 205 247 305 353
#     4   8  20  36  50  86 114 146 194 236 282 352
#     4  10  22  41  63  87 124 154 198 259 294 355
#     4  10  22  37  63  87 117 154 201 245 301 354
#     4   9  20  35  55  80 118 152 188 233 286 349
#     4  10  22  38  58  91 123 155 202 243 301 368
#     4  10  20  36  61  81 119 157 194 241 294 353
#
# _framework density 21.083544
#
# number of rings (size 3 to 8) (size 9 to 14) (size 15 to 20)
#    0.462    1.846    0.000    1.385    5.385    0.000 
#    0.000    0.000    6.769    0.000    0.000    0.000 
#    0.000    0.000    0.000    0.000    0.000    0.000 
#
# Total GULP energy -144841.700085 kJ/mol
# GULP energy per Si atom -5570.834619 kJ/mol
# Density = 2.103556 g / cm^3
# Si number density = 21.083544 Si / 1000 Ang^3
#
#
#
# Elastic Constant Matrix: (Units=GPa)
#
#
# Indices 1 2 3 4 5 6 
#
# 1 63.9518 -2.0471 21.6287 0.0000 0.0000 0.0000
# 2 -2.0471 29.0455 5.6835 0.0000 0.0000 0.0000
# 3 21.6287 5.6835 77.7648 0.0000 0.0000 0.0000
# 4 0.0000 0.0000 0.0000 36.1347 0.0000 0.0000
# 5 0.0000 0.0000 0.0000 0.0000 38.2782 0.0000
# 6 0.0000 0.0000 0.0000 0.0000 0.0000 26.5691
#
#
#
# Elastic Compliance Matrix: (Units=1/GPa)
#
#
# Indices 1 2 3 4 5 6 
#
# 1 0.017398 0.002205 -0.005000 0.000000 0.000000 0.000000
# 2 0.002205 0.035208 -0.003186 0.000000 0.000000 0.000000
# 3 -0.005000 -0.003186 0.014483 0.000000 0.000000 0.000000
# 4 0.000000 0.000000 0.000000 0.027674 0.000000 0.000000
# 5 0.000000 0.000000 0.000000 0.000000 0.026125 0.000000
# 6 0.000000 0.000000 0.000000 0.000000 0.000000 0.037638
#
#
# Mechanical properties :
#
#
# Convention : Reuss Voigt Hill
#
# Bulk Modulus (GPa) = 18.14054 24.58805 21.36430
# Shear Modulus (GPa) = 26.47404 29.89619 28.18511
#
# Velocity S-wave (km/s) = 3.54739 3.76970 3.66024
# Velocity P-wave (km/s) = 5.03999 5.53489 5.29323
#
# Compressibility (1/GPa) = 0.05512515
#
# Stress axis : x y z
#
# Youngs Moduli (GPa) = 57.47652 28.40290 69.04716
#
# Poissons Ratio (x) = -0.06262 0.34525
# Poissons Ratio (y) = -0.12671 0.22001
# Poissons Ratio (z) = 0.28739 0.09050
#
# Static dielectric constant tensor:
#      x y z
#    x 1.736430 0.000000 0.000000 
#    y 0.000000 1.814250 0.000000 
#    z 0.000000 0.000000 1.747760 
# 
# From -- ./inp_files/8970.got.cif
#   From: 2010.05.17/outbox.cif.g08.bks.cpg/sg41_5_cif.got.tgz:8970.got - 2010.06.03 18:54:24.
