data_PCOD9366985
_publ_section_title
;
Structure prediction by ZEFSAII (Michael W. Deem and Ramdas Pophale) SiO2 
 PCOD9366985
Probable space group: A B A 2
;
_chemical_formula_sum "Si O2"
_cell_formula_units_Z 40
_cell_length_a 12.091447
_cell_length_b 11.612202
_cell_length_c 11.850453
_cell_angle_alpha 90.000000
_cell_angle_beta 90.000000
_cell_angle_gamma 90.000000
_cell_volume 1663.902257
_symmetry_space_group_name_H-M "A B A 2"
_symmetry_group_IT_number 41
_symmetry_cell_setting 'orthorhombic'
loop_
_space_group_symop_operation_xyz
x,y,z
-x,-y,z
1/2-x,y,1/2+z
1/2+x,-y,1/2+z
x,1/2+y,1/2+z
-x,1/2-y,1/2+z
1/2-x,1/2+y,z
1/2+x,1/2-y,z
loop_
_atom_site_type_symbol
_atom_site_label
_atom_site_fract_x
_atom_site_fract_y
_atom_site_fract_z
Si Si1 0.342266 0.565881 0.473930
Si Si2 0.086310 0.732982 0.779749
Si Si3 0.612989 0.957106 0.589067
Si Si4 0.910749 0.407557 0.230012
Si Si5 0.776264 0.072004 0.284670
O O1 0.393713 0.660538 0.392140
O O2 0.213189 0.574304 0.508155
O O3 0.401125 0.579901 0.594583
O O4 0.344678 0.446842 0.400174
O O5 0.093755 0.650618 0.671332
O O6 0.186524 0.826836 0.777696
O O7 0.964909 0.790537 0.772573
O O8 0.500000 0.000000 0.533086
O O9 0.650944 0.061744 0.672144
O O10 0.794096 0.451815 0.274764
O O11 0.000000 0.500000 0.268042
#
# Coordination Sequence:
#
# PCOD9366985 Si02
#       5
#     8   8   8   8   8
#     4  10  22  38  60  92 124 163 213 268 326 389
#     4  10  22  40  65  92 126 172 221 272 332 397
#     4  10  23  40  60  90 128 169 215 271 332 395
#     4   9  20  39  60  87 123 163 211 269 326 386
#     4   9  21  41  59  85 126 165 214 274 327 393
#
# _framework density 24.039874000000001
#
# number of rings (size 3 to 8) (size 9 to 14) (size 15 to 20)
#    0.000    2.400    0.000    0.000    0.000   18.400 
#    0.000    0.000    0.000    0.000    0.000    0.000 
#    0.000    0.000    0.000    0.000    0.000    0.000 
#
# Total GULP energy -111707.635639 kJ/mol
# GULP energy per Si atom -5585.381782 kJ/mol
# Density = 2.398516 g / cm^3
# Si number density = 24.039874 Si / 1000 Ang^3
#
#
#
# Elastic Constant Matrix: (Units=GPa)
#
#
# Indices 1 2 3 4 5 6 
#
# 1 125.9029 35.9608 27.9879 0.0000 0.0000 0.0000
# 2 35.9608 81.2845 25.4216 0.0000 0.0000 0.0000
# 3 27.9879 25.4216 145.0080 0.0000 0.0000 0.0000
# 4 0.0000 0.0000 0.0000 12.3414 0.0000 0.0000
# 5 0.0000 0.0000 0.0000 0.0000 27.1294 0.0000
# 6 0.0000 0.0000 0.0000 0.0000 0.0000 49.2732
#
#
#
# Elastic Compliance Matrix: (Units=1/GPa)
#
#
# Indices 1 2 3 4 5 6 
#
# 1 0.009264 -0.003744 -0.001132 0.000000 0.000000 0.000000
# 2 -0.003744 0.014530 -0.001825 0.000000 0.000000 0.000000
# 3 -0.001132 -0.001825 0.007434 0.000000 0.000000 0.000000
# 4 0.000000 0.000000 0.000000 0.081028 0.000000 0.000000
# 5 0.000000 0.000000 0.000000 0.000000 0.036860 0.000000
# 6 0.000000 0.000000 0.000000 0.000000 0.000000 0.020295
#
#
# Mechanical properties :
#
#
# Convention : Reuss Voigt Hill
#
# Bulk Modulus (GPa) = 56.09530 58.99288 57.54409
# Shear Modulus (GPa) = 26.48950 35.27049 30.87999
#
# Velocity S-wave (km/s) = 3.32309 3.83452 3.58793
# Velocity P-wave (km/s) = 6.17323 6.64812 6.41507
#
# Compressibility (1/GPa) = 0.01782681
#
# Stress axis : x y z
#
# Youngs Moduli (GPa) = 107.94876 68.82489 134.50945
#
# Poissons Ratio (x) = 0.25771 0.15220
# Poissons Ratio (y) = 0.40420 0.24541
# Poissons Ratio (z) = 0.12215 0.12557
#
# Static dielectric constant tensor:
#      x y z
#    x 1.923760 0.000000 0.000000 
#    y 0.000000 1.954240 0.000000 
#    z 0.000000 0.000000 1.924340 
# 
# From -- ./inp_files/5400.got.cif
#   From: 2010.05.17/outbox.cif.g08.bks.cpg/sg41_3_cif.got.tgz:5400.got - 2010.06.03 18:54:24.
