data_PCOD9366786
_publ_section_title
;
Structure prediction by ZEFSAII (Michael W. Deem and Ramdas Pophale) SiO2 
 PCOD9366786
Probable space group: A B A 2
;
_chemical_formula_sum "Si O2"
_cell_formula_units_Z 28
_cell_length_a 5.406524
_cell_length_b 15.044980
_cell_length_c 13.700733
_cell_angle_alpha 90.000000
_cell_angle_beta 90.000000
_cell_angle_gamma 90.000000
_cell_volume 1114.431946
_symmetry_space_group_name_H-M "A B A 2"
_symmetry_group_IT_number 41
_symmetry_cell_setting 'orthorhombic'
loop_
_space_group_symop_operation_xyz
x,y,z
-x,-y,z
1/2-x,y,1/2+z
1/2+x,-y,1/2+z
x,1/2+y,1/2+z
-x,1/2-y,1/2+z
1/2-x,1/2+y,z
1/2+x,1/2-y,z
loop_
_atom_site_type_symbol
_atom_site_label
_atom_site_fract_x
_atom_site_fract_y
_atom_site_fract_z
Si Si1 0.095833 0.300137 0.258050
Si Si2 0.500000 0.000000 0.187458
Si Si3 0.253516 0.976627 0.001909
Si Si4 0.605888 0.215033 0.492755
O O1 0.357310 0.257499 0.222594
O O2 0.100188 0.287332 0.375041
O O3 0.062391 0.406262 0.238920
O O4 0.284024 0.021714 0.107638
O O5 0.500000 0.000000 0.943251
O O6 0.245073 0.873657 0.023809
O O7 0.000000 0.000000 0.951442
O O8 0.318014 0.214348 0.521273
#
# Coordination Sequence:
#
# PCOD9366786 Si02
#       4
#     8   4   8   8
#     4  10  24  42  65  95 129 169 217 263 325 389
#     4  10  26  42  66  96 132 174 212 274 330 388
#     4  10  23  39  58  95 123 163 215 255 329 384
#     4  10  21  41  63  91 123 166 214 266 316 382
#
# _framework density 25.124904000000001
#
# number of rings (size 3 to 8) (size 9 to 14) (size 15 to 20)
#    0.857    1.143    0.000    1.714    6.000    2.286 
#    0.000    0.000    0.000    0.000    0.000    0.000 
#    0.000    0.000    0.000    0.000    0.000    0.000 
#
# Total GULP energy -78023.153222 kJ/mol
# GULP energy per Si atom -5573.082373 kJ/mol
# Density = 2.506772 g / cm^3
# Si number density = 25.124904 Si / 1000 Ang^3
#
#
#
# Elastic Constant Matrix: (Units=GPa)
#
#
# Indices 1 2 3 4 5 6 
#
# 1 220.7125 79.0598 41.7480 0.0000 0.0000 0.0000
# 2 79.0598 146.9977 6.4819 0.0000 0.0000 0.0000
# 3 41.7480 6.4819 60.2751 0.0000 0.0000 0.0000
# 4 0.0000 0.0000 0.0000 33.6885 0.0000 0.0000
# 5 0.0000 0.0000 0.0000 0.0000 7.4179 0.0000
# 6 0.0000 0.0000 0.0000 0.0000 0.0000 47.3469
#
#
#
# Elastic Compliance Matrix: (Units=1/GPa)
#
#
# Indices 1 2 3 4 5 6 
#
# 1 0.006502 -0.003314 -0.004147 0.000000 0.000000 0.000000
# 2 -0.003314 0.008525 0.001379 0.000000 0.000000 0.000000
# 3 -0.004147 0.001379 0.019315 0.000000 0.000000 0.000000
# 4 0.000000 0.000000 0.000000 0.029684 0.000000 0.000000
# 5 0.000000 0.000000 0.000000 0.000000 0.134810 0.000000
# 6 0.000000 0.000000 0.000000 0.000000 0.000000 0.021121
#
#
# Mechanical properties :
#
#
# Convention : Reuss Voigt Hill
#
# Bulk Modulus (GPa) = 45.09323 75.84052 60.46688
# Shear Modulus (GPa) = 20.87563 37.73703 29.30633
#
# Velocity S-wave (km/s) = 2.88562 3.87974 3.41900
# Velocity P-wave (km/s) = 5.39342 7.09371 6.30118
#
# Compressibility (1/GPa) = 0.02217628
#
# Stress axis : x y z
#
# Youngs Moduli (GPa) = 153.78795 117.30784 51.77361
#
# Poissons Ratio (x) = 0.38880 0.21472
# Poissons Ratio (y) = 0.50971 -0.07139
# Poissons Ratio (z) = 0.63781 -0.16175
#
# Static dielectric constant tensor:
#      x y z
#    x 2.220850 0.000000 0.000000 
#    y 0.000000 2.058780 0.000000 
#    z 0.000000 0.000000 2.039880 
# 
# From -- ./inp_files/6736.got.cif
#   From: 2010.05.17/outbox.cif.g08.bks.cpg/sg41_4_cif.got.tgz:6736.got - 2010.06.03 18:54:24.
