data_PCOD9366193
_publ_section_title
;
Structure prediction by ZEFSAII (Michael W. Deem and Ramdas Pophale) SiO2 
 PCOD9366193
Probable space group: A B A 2
;
_chemical_formula_sum "Si O2"
_cell_formula_units_Z 56
_cell_length_a 19.195864
_cell_length_b 9.300307
_cell_length_c 16.215044
_cell_angle_alpha 90.000000
_cell_angle_beta 90.000000
_cell_angle_gamma 90.000000
_cell_volume 2894.830106
_symmetry_space_group_name_H-M "A B A 2"
_symmetry_group_IT_number 41
_symmetry_cell_setting 'orthorhombic'
loop_
_space_group_symop_operation_xyz
x,y,z
-x,-y,z
1/2-x,y,1/2+z
1/2+x,-y,1/2+z
x,1/2+y,1/2+z
-x,1/2-y,1/2+z
1/2-x,1/2+y,z
1/2+x,1/2-y,z
loop_
_atom_site_type_symbol
_atom_site_label
_atom_site_fract_x
_atom_site_fract_y
_atom_site_fract_z
Si Si1 0.572398 0.071881 0.532040
Si Si2 0.394886 0.678819 0.916845
Si Si3 0.216964 0.334935 0.815536
Si Si4 0.220212 0.250934 0.044877
Si Si5 0.294010 0.481726 0.138962
Si Si6 0.314117 0.629753 0.396906
Si Si7 0.968170 0.347857 0.948384
O O1 0.631196 0.049213 0.598947
O O2 0.558271 0.238992 0.518150
O O3 0.500000 0.000000 0.557020
O O4 0.594429 0.986963 0.446686
O O5 0.345027 0.723444 0.841137
O O6 0.468947 0.757129 0.906912
O O7 0.352571 0.741517 0.996095
O O8 0.210186 0.411716 0.728080
O O9 0.213772 0.469587 0.878954
O O10 0.286100 0.241649 0.828815
O O11 0.239639 0.405429 0.077707
O O12 0.218728 0.149441 0.125239
O O13 0.278185 0.192201 0.980140
O O14 0.397533 0.623550 0.397778
O O15 0.000000 0.500000 0.974541
#
# Coordination Sequence:
#
# PCOD9366193 Si02
#       7
#     8   8   8   8   8   8   8
#     4   9  20  38  60  86 113 159 194 245 296 355
#     4   9  20  37  59  86 117 149 203 238 289 353
#     4  11  23  37  57  90 121 154 192 247 297 353
#     4  10  20  36  62  84 113 155 198 241 287 350
#     4  11  21  37  58  88 121 152 191 246 302 348
#     4  11  22  38  61  86 115 155 202 243 286 352
#     4  11  20  36  62  89 112 150 207 247 281 344
#
# _framework density 19.344832
#
# number of rings (size 3 to 8) (size 9 to 14) (size 15 to 20)
#    0.000    1.714    2.857    2.571    4.000    0.000 
#    2.571    0.000    0.000    2.571    0.000    0.000 
#    0.000    0.000    0.000    0.000    0.000    0.000 
#
# Total GULP energy -156087.832222 kJ/mol
# GULP energy per Si atom -5574.565437 kJ/mol
# Density = 1.930080 g / cm^3
# Si number density = 19.344832 Si / 1000 Ang^3
#
#
#
# Elastic Constant Matrix: (Units=GPa)
#
#
# Indices 1 2 3 4 5 6 
#
# 1 93.2210 19.8784 0.8259 0.0000 0.0000 0.0000
# 2 19.8784 92.6833 13.7829 0.0000 0.0000 0.0000
# 3 0.8259 13.7829 63.1552 0.0000 0.0000 0.0000
# 4 0.0000 0.0000 0.0000 25.6442 0.0000 0.0000
# 5 0.0000 0.0000 0.0000 0.0000 12.0652 0.0000
# 6 0.0000 0.0000 0.0000 0.0000 0.0000 29.2706
#
#
#
# Elastic Compliance Matrix: (Units=1/GPa)
#
#
# Indices 1 2 3 4 5 6 
#
# 1 0.011251 -0.002471 0.000392 0.000000 0.000000 0.000000
# 2 -0.002471 0.011694 -0.002520 0.000000 0.000000 0.000000
# 3 0.000392 -0.002520 0.016379 0.000000 0.000000 0.000000
# 4 0.000000 0.000000 0.000000 0.038995 0.000000 0.000000
# 5 0.000000 0.000000 0.000000 0.000000 0.082883 0.000000
# 6 0.000000 0.000000 0.000000 0.000000 0.000000 0.034164
#
#
# Mechanical properties :
#
#
# Convention : Reuss Voigt Hill
#
# Bulk Modulus (GPa) = 33.19408 35.33709 34.26559
# Shear Modulus (GPa) = 23.29856 27.70081 25.49969
#
# Velocity S-wave (km/s) = 3.47419 3.78822 3.63459
# Velocity P-wave (km/s) = 5.76972 6.11888 5.94686
#
# Compressibility (1/GPa) = 0.03012585
#
# Stress axis : x y z
#
# Youngs Moduli (GPa) = 88.88325 85.51257 61.05455
#
# Poissons Ratio (x) = 0.21133 -0.02395
# Poissons Ratio (y) = 0.21966 0.15385
# Poissons Ratio (z) = -0.03486 0.21547
#
# Static dielectric constant tensor:
#      x y z
#    x 1.696910 0.000000 0.000000 
#    y 0.000000 1.711060 0.000000 
#    z 0.000000 0.000000 1.684730 
# 
# From -- ./inp_files/10657.got.cif
#   From: 2010.05.17/outbox.cif.g08.bks.cpg/sg41_6_cif.got.tgz:10657.got - 2010.06.03 18:54:24.
