data_PCOD9366543
_publ_section_title
;
Structure prediction by ZEFSAII (Michael W. Deem and Ramdas Pophale) SiO2 
 PCOD9366543
Probable space group: A B A 2
;
_chemical_formula_sum "Si O2"
_cell_formula_units_Z 56
_cell_length_a 5.244059
_cell_length_b 14.498065
_cell_length_c 33.597491
_cell_angle_alpha 90.000000
_cell_angle_beta 90.000000
_cell_angle_gamma 90.000000
_cell_volume 2554.373841
_symmetry_space_group_name_H-M "A B A 2"
_symmetry_group_IT_number 41
_symmetry_cell_setting 'orthorhombic'
loop_
_space_group_symop_operation_xyz
x,y,z
-x,-y,z
1/2-x,y,1/2+z
1/2+x,-y,1/2+z
x,1/2+y,1/2+z
-x,1/2-y,1/2+z
1/2-x,1/2+y,z
1/2+x,1/2-y,z
loop_
_atom_site_type_symbol
_atom_site_label
_atom_site_fract_x
_atom_site_fract_y
_atom_site_fract_z
Si Si1 0.749487 0.938671 0.224730
Si Si2 0.602858 0.303326 0.880983
Si Si3 0.375778 0.189469 0.474820
Si Si4 0.500000 0.500000 0.574290
Si Si5 0.958818 0.291392 0.093583
Si Si6 0.000000 0.000000 0.020768
Si Si7 0.251331 0.562742 0.810830
Si Si8 0.021884 0.720650 0.683066
O O1 0.748750 0.886825 0.267620
O O2 0.811149 0.870573 0.188812
O O3 0.500000 0.000000 0.219016
O O4 0.000000 0.000000 0.227437
O O5 0.304729 0.280383 0.874784
O O6 0.627529 0.330183 0.927162
O O7 0.704353 0.375761 0.849194
O O8 0.601604 0.263431 0.483149
O O9 0.437243 0.092694 0.496038
O O10 0.535792 0.401872 0.596521
O O11 0.751489 0.515078 0.547916
O O12 0.206364 0.247727 0.073109
O O13 0.967123 0.244731 0.137380
O O14 0.500000 0.500000 0.807662
O O15 0.000000 0.500000 0.814704
O O16 0.236962 0.790349 0.700815
#
# Coordination Sequence:
#
# PCOD9366543 Si02
#       8
#     8   8   8   4   8   4   8   8
#     4  10  21  38  59  90 129 169 220 273 328 389
#     4  10  21  38  59  88 124 170 215 266 325 377
#     4  10  23  43  63  96 137 168 218 273 315 387
#     4  12  26  44  70  98 132 167 220 267 328 400
#     4  10  23  45  65  96 131 166 211 263 329 391
#     4  12  26  42  70 104 122 183 216 255 344 392
#     4  10  21  36  57  89 125 170 216 271 327 377
#     4  10  21  40  60  91 122 162 211 259 325 383
#
# _framework density 21.923183000000002
#
# number of rings (size 3 to 8) (size 9 to 14) (size 15 to 20)
#    0.000    1.714    0.000    3.429    1.000    4.571 
#   16.714    0.000    0.000    0.000    0.000    0.000 
#    0.000    0.000    0.000    0.000    0.000    0.000 
#
# Total GULP energy -156161.456444 kJ/mol
# GULP energy per Si atom -5577.194873 kJ/mol
# Density = 2.187329 g / cm^3
# Si number density = 21.923183 Si / 1000 Ang^3
#
#
#
# Elastic Constant Matrix: (Units=GPa)
#
#
# Indices 1 2 3 4 5 6 
#
# 1 149.1632 -8.2424 6.6311 0.0000 0.0000 0.0000
# 2 -8.2424 69.1661 34.1432 0.0000 0.0000 0.0000
# 3 6.6311 34.1432 89.9125 0.0000 0.0000 0.0000
# 4 0.0000 0.0000 0.0000 13.4100 0.0000 0.0000
# 5 0.0000 0.0000 0.0000 0.0000 17.4644 0.0000
# 6 0.0000 0.0000 0.0000 0.0000 0.0000 29.9854
#
#
#
# Elastic Compliance Matrix: (Units=1/GPa)
#
#
# Indices 1 2 3 4 5 6 
#
# 1 0.006821 0.001306 -0.000999 0.000000 0.000000 0.000000
# 2 0.001306 0.018043 -0.006948 0.000000 0.000000 0.000000
# 3 -0.000999 -0.006948 0.013834 0.000000 0.000000 0.000000
# 4 0.000000 0.000000 0.000000 0.074571 0.000000 0.000000
# 5 0.000000 0.000000 0.000000 0.000000 0.057259 0.000000
# 6 0.000000 0.000000 0.000000 0.000000 0.000000 0.033350
#
#
# Mechanical properties :
#
#
# Convention : Reuss Voigt Hill
#
# Bulk Modulus (GPa) = 39.34546 41.47842 40.41194
# Shear Modulus (GPa) = 22.15993 30.55262 26.35628
#
# Velocity S-wave (km/s) = 3.18276 3.73717 3.47105
# Velocity P-wave (km/s) = 5.61182 6.13049 5.87688
#
# Compressibility (1/GPa) = 0.02541589
#
# Stress axis : x y z
#
# Youngs Moduli (GPa) = 146.61395 55.42182 72.28541
#
# Poissons Ratio (x) = -0.07238 0.07221
# Poissons Ratio (y) = -0.19146 0.50225
# Poissons Ratio (z) = 0.14646 0.38508
#
# Static dielectric constant tensor:
#      x y z
#    x 1.981560 0.000000 0.000000 
#    y 0.000000 1.852910 0.000000 
#    z 0.000000 0.000000 1.863870 
# 
# From -- ./inp_files/12640.got.cif
#   From: 2010.05.17/outbox.cif.g08.bks.cpg/sg41_7_cif.got.tgz:12640.got - 2010.06.03 18:54:24.
