data_PCOD9366600
_publ_section_title
;
Structure prediction by ZEFSAII (Michael W. Deem and Ramdas Pophale) SiO2 
 PCOD9366600
Probable space group: A B A 2
;
_chemical_formula_sum "Si O2"
_cell_formula_units_Z 64
_cell_length_a 28.792563
_cell_length_b 4.885396
_cell_length_c 18.473615
_cell_angle_alpha 90.000000
_cell_angle_beta 90.000000
_cell_angle_gamma 90.000000
_cell_volume 2598.555439
_symmetry_space_group_name_H-M "A B A 2"
_symmetry_group_IT_number 41
_symmetry_cell_setting 'orthorhombic'
loop_
_space_group_symop_operation_xyz
x,y,z
-x,-y,z
1/2-x,y,1/2+z
1/2+x,-y,1/2+z
x,1/2+y,1/2+z
-x,1/2-y,1/2+z
1/2-x,1/2+y,z
1/2+x,1/2-y,z
loop_
_atom_site_type_symbol
_atom_site_label
_atom_site_fract_x
_atom_site_fract_y
_atom_site_fract_z
Si Si1 0.333805 0.754295 0.654600
Si Si2 0.552426 0.906479 0.568412
Si Si3 0.724159 0.945642 0.283206
Si Si4 0.642258 0.194591 0.503734
Si Si5 0.597487 0.804655 0.863467
Si Si6 0.614240 0.738096 0.696666
Si Si7 0.215441 0.188341 0.938698
Si Si8 0.543787 0.292491 0.912055
O O1 0.293357 0.656308 0.706466
O O2 0.331204 0.669294 0.571197
O O3 0.376124 0.582703 0.689138
O O4 0.344880 0.074202 0.662476
O O5 0.571160 0.795875 0.644107
O O6 0.548947 0.717533 0.496952
O O7 0.500000 0.000000 0.579572
O O8 0.591913 0.118489 0.538977
O O9 0.771548 0.769703 0.289561
O O10 0.698406 0.845420 0.355160
O O11 0.633463 0.360938 0.429547
O O12 0.673308 0.927900 0.485904
O O13 0.611948 0.815929 0.780472
O O14 0.583653 0.493214 0.882210
O O15 0.553419 0.007836 0.872351
O O16 0.259183 0.977136 0.948277
O O17 0.500000 0.500000 0.906319
#
# Coordination Sequence:
#
# PCOD9366600 Si02
#       8
#     8   8   8   8   8   8   8   8
#     4  11  23  40  62  90 126 166 210 258 319 388
#     4   9  21  42  65  92 129 172 217 270 332 394
#     4  10  21  39  62  92 128 168 211 264 324 386
#     4  10  23  41  66  97 133 173 220 275 334 398
#     4  11  22  38  62  90 121 164 211 264 322 381
#     4  11  23  40  61  90 122 165 213 262 318 387
#     4  10  23  40  63  95 132 172 219 273 333 397
#     4  10  21  38  59  86 120 158 204 258 318 381
#
# _framework density 24.629069000000001
#
# number of rings (size 3 to 8) (size 9 to 14) (size 15 to 20)
#    0.000    1.750    0.000    3.375    0.000    9.000 
#    0.000    6.250    0.000    0.000    0.000    0.000 
#    0.000    0.000    0.000    0.000    0.000    0.000 
#
# Total GULP energy -178603.118126 kJ/mol
# GULP energy per Si atom -5581.347441 kJ/mol
# Density = 2.457301 g / cm^3
# Si number density = 24.629069 Si / 1000 Ang^3
#
#
#
# Elastic Constant Matrix: (Units=GPa)
#
#
# Indices 1 2 3 4 5 6 
#
# 1 70.4070 14.8587 28.6929 0.0000 0.0000 0.0000
# 2 14.8587 91.2829 19.2875 0.0000 0.0000 0.0000
# 3 28.6929 19.2875 172.9001 0.0000 0.0000 0.0000
# 4 0.0000 0.0000 0.0000 32.3957 0.0000 0.0000
# 5 0.0000 0.0000 0.0000 0.0000 27.3304 0.0000
# 6 0.0000 0.0000 0.0000 0.0000 0.0000 28.1966
#
#
#
# Elastic Compliance Matrix: (Units=1/GPa)
#
#
# Indices 1 2 3 4 5 6 
#
# 1 0.015596 -0.002040 -0.002361 0.000000 0.000000 0.000000
# 2 -0.002040 0.011486 -0.000943 0.000000 0.000000 0.000000
# 3 -0.002361 -0.000943 0.006281 0.000000 0.000000 0.000000
# 4 0.000000 0.000000 0.000000 0.030868 0.000000 0.000000
# 5 0.000000 0.000000 0.000000 0.000000 0.036589 0.000000
# 6 0.000000 0.000000 0.000000 0.000000 0.000000 0.035465
#
#
# Mechanical properties :
#
#
# Convention : Reuss Voigt Hill
#
# Bulk Modulus (GPa) = 44.09945 51.14092 47.62018
# Shear Modulus (GPa) = 32.35611 35.70127 34.02869
#
# Velocity S-wave (km/s) = 3.62848 3.81144 3.72108
# Velocity P-wave (km/s) = 5.95809 6.33869 6.15133
#
# Compressibility (1/GPa) = 0.02267602
#
# Stress axis : x y z
#
# Youngs Moduli (GPa) = 64.12063 87.06104 159.22051
#
# Poissons Ratio (x) = 0.17759 0.37585
# Poissons Ratio (y) = 0.13079 0.15011
# Poissons Ratio (z) = 0.15136 0.08208
#
# Static dielectric constant tensor:
#      x y z
#    x 2.089630 0.000000 0.000000 
#    y 0.000000 1.955350 0.000000 
#    z 0.000000 0.000000 1.958380 
# 
# From -- ./inp_files/10848.got.cif
#   From: 2010.05.17/outbox.cif.g08.bks.cpg/sg41_6_cif.got.tgz:10848.got - 2010.06.03 18:54:24.
