data_PCOD9366643
_publ_section_title
;
Structure prediction by ZEFSAII (Michael W. Deem and Ramdas Pophale) SiO2 
 PCOD9366643
Probable space group: A B A 2
;
_chemical_formula_sum "Si O2"
_cell_formula_units_Z 40
_cell_length_a 8.857125
_cell_length_b 12.432650
_cell_length_c 17.931130
_cell_angle_alpha 90.000000
_cell_angle_beta 90.000000
_cell_angle_gamma 90.000000
_cell_volume 1974.531838
_symmetry_space_group_name_H-M "A B A 2"
_symmetry_group_IT_number 41
_symmetry_cell_setting 'orthorhombic'
loop_
_space_group_symop_operation_xyz
x,y,z
-x,-y,z
1/2-x,y,1/2+z
1/2+x,-y,1/2+z
x,1/2+y,1/2+z
-x,1/2-y,1/2+z
1/2-x,1/2+y,z
1/2+x,1/2-y,z
loop_
_atom_site_type_symbol
_atom_site_label
_atom_site_fract_x
_atom_site_fract_y
_atom_site_fract_z
Si Si1 0.512799 0.808076 0.672930
Si Si2 0.618946 0.672537 0.325535
Si Si3 0.252179 0.237953 0.069689
Si Si4 0.960464 0.624843 0.281690
Si Si5 0.997018 0.621767 0.986385
O O1 0.468164 0.864735 0.750084
O O2 0.662451 0.838475 0.628107
O O3 0.372069 0.805838 0.617612
O O4 0.540918 0.684451 0.701237
O O5 0.795356 0.645986 0.317134
O O6 0.585237 0.801647 0.324267
O O7 0.545769 0.626962 0.399694
O O8 0.129005 0.311493 0.030424
O O9 0.344067 0.174989 0.006973
O O10 0.000000 0.500000 0.279595
O O11 0.000000 0.500000 0.012235
#
# Coordination Sequence:
#
# PCOD9366643 Si02
#       5
#     8   8   8   8   8
#     4   9  18  40  63  93 128 171 211 275 321 377
#     4  10  21  41  64  98 129 174 224 281 317 387
#     4  10  21  41  65  92 137 169 211 273 332 386
#     4  10  21  38  67  96 132 170 219 273 338 378
#     4  11  25  44  67  94 135 178 219 266 336 401
#
# _framework density 20.257968000000002
#
# number of rings (size 3 to 8) (size 9 to 14) (size 15 to 20)
#    1.200    0.800    2.000    1.200    0.000    6.400 
#    0.000    4.000    0.000    0.000    0.000    0.000 
#    0.000    0.000    0.000    0.000    0.000    0.000 
#
# Total GULP energy -111472.883551 kJ/mol
# GULP energy per Si atom -5573.644178 kJ/mol
# Density = 2.021186 g / cm^3
# Si number density = 20.257968 Si / 1000 Ang^3
#
#
#
# Elastic Constant Matrix: (Units=GPa)
#
#
# Indices 1 2 3 4 5 6 
#
# 1 134.2663 45.3988 48.5875 0.0000 0.0000 0.0000
# 2 45.3988 99.2223 6.5004 0.0000 0.0000 0.0000
# 3 48.5875 6.5004 91.2742 0.0000 0.0000 0.0000
# 4 0.0000 0.0000 0.0000 -2.3906 0.0000 0.0000
# 5 0.0000 0.0000 0.0000 0.0000 34.6276 0.0000
# 6 0.0000 0.0000 0.0000 0.0000 0.0000 10.4753
#
#
#
# Elastic Compliance Matrix: (Units=1/GPa)
#
#
# Indices 1 2 3 4 5 6 
#
# 1 0.011038 -0.004687 -0.005542 0.000000 0.000000 0.000000
# 2 -0.004687 0.012116 0.001632 0.000000 0.000000 0.000000
# 3 -0.005542 0.001632 0.013790 0.000000 0.000000 0.000000
# 4 0.000000 0.000000 0.000000 -0.418299 0.000000 0.000000
# 5 0.000000 0.000000 0.000000 0.000000 0.028879 0.000000
# 6 0.000000 0.000000 0.000000 0.000000 0.000000 0.095463
#
#
# Mechanical properties :
#
#
# Convention : Reuss Voigt Hill
#
# Bulk Modulus (GPa) = 50.63300 58.41512 54.52406
# Shear Modulus (GPa) = -21.43758 23.49420 1.02831
#
# Velocity S-wave (km/s) = -3.25657 3.40921 0.71324
# Velocity P-wave (km/s) = 3.30273 6.66297 5.25848
#
# Compressibility (1/GPa) = 0.01974997
#
# Stress axis : x y z
#
# Youngs Moduli (GPa) = 90.59277 82.53427 72.51648
#
# Poissons Ratio (x) = 0.38688 0.40190
# Poissons Ratio (y) = 0.42465 -0.11837
# Poissons Ratio (z) = 0.50208 -0.13473
#
# Static dielectric constant tensor:
#      x y z
#    x 1.715820 0.000000 0.000000 
#    y 0.000000 1.702960 0.000000 
#    z 0.000000 0.000000 1.760380 
# 
# From -- ./inp_files/9550.got.cif
#   From: 2010.05.17/outbox.cif.g08.bks.cpg/sg41_5_cif.got.tgz:9550.got - 2010.06.03 18:54:24.
