data_PCOD9366951
_publ_section_title
;
Structure prediction by ZEFSAII (Michael W. Deem and Ramdas Pophale) SiO2 
 PCOD9366951
Probable space group: A B A 2
;
_chemical_formula_sum "Si O2"
_cell_formula_units_Z 44
_cell_length_a 18.606544
_cell_length_b 4.921323
_cell_length_c 22.677137
_cell_angle_alpha 90.000000
_cell_angle_beta 90.000000
_cell_angle_gamma 90.000000
_cell_volume 2076.518516
_symmetry_space_group_name_H-M "A B A 2"
_symmetry_group_IT_number 41
_symmetry_cell_setting 'orthorhombic'
loop_
_space_group_symop_operation_xyz
x,y,z
-x,-y,z
1/2-x,y,1/2+z
1/2+x,-y,1/2+z
x,1/2+y,1/2+z
-x,1/2-y,1/2+z
1/2-x,1/2+y,z
1/2+x,1/2-y,z
loop_
_atom_site_type_symbol
_atom_site_label
_atom_site_fract_x
_atom_site_fract_y
_atom_site_fract_z
Si Si1 0.000000 0.000000 0.560020
Si Si2 0.295946 0.912078 0.280442
Si Si3 0.067326 0.714442 0.455483
Si Si4 0.795485 0.602213 0.421251
Si Si5 0.500000 0.000000 0.852425
Si Si6 0.500000 0.000000 0.647200
Si Si7 0.560791 0.805045 0.240854
O O1 0.012490 0.254368 0.602022
O O2 0.939795 0.108776 0.514467
O O3 0.227983 0.106657 0.267091
O O4 0.309256 0.923301 0.350899
O O5 0.365853 0.035151 0.250139
O O6 0.136714 0.527011 0.452876
O O7 0.000000 0.500000 0.450104
O O8 0.061797 0.929438 0.401050
O O9 0.772678 0.907966 0.434432
O O10 0.526365 0.218760 0.803638
O O11 0.435995 0.948253 0.695607
O O12 0.500000 0.000000 0.214207
#
# Coordination Sequence:
#
# PCOD9366951 Si02
#       7
#     4   8   8   8   4   4   8
#     4  11  24  43  64  95 118 161 220 274 320 361
#     4  10  23  37  57  90 135 171 200 245 317 394
#     4  11  23  38  67  93 131 167 212 272 312 386
#     4  10  23  37  57  90 135 171 200 245 317 394
#     4  10  22  32  60 102 128 152 214 254 328 370
#     4  11  24  43  64  95 118 161 220 274 320 361
#     4  11  23  38  67  93 131 167 212 272 312 386
#
# _framework density 21.189312000000001
#
# number of rings (size 3 to 8) (size 9 to 14) (size 15 to 20)
#    0.000    1.455    3.636    0.545   10.182    0.000 
#    0.000    0.000    0.000    6.545    0.000    0.000 
#    0.000    0.000    0.000    0.000    0.000    0.000 
#
# Total GULP energy -122476.956717 kJ/mol
# GULP energy per Si atom -5567.134396 kJ/mol
# Density = 2.114108 g / cm^3
# Si number density = 21.189312 Si / 1000 Ang^3
#
#
#
# Elastic Constant Matrix: (Units=GPa)
#
#
# Indices 1 2 3 4 5 6 
#
# 1 70.7289 4.5703 10.2053 0.0000 0.0000 0.0000
# 2 4.5703 80.4716 26.6966 0.0000 0.0000 0.0000
# 3 10.2053 26.6966 114.8334 0.0000 0.0000 0.0000
# 4 0.0000 0.0000 0.0000 6.9741 0.0000 0.0000
# 5 0.0000 0.0000 0.0000 0.0000 11.3947 0.0000
# 6 0.0000 0.0000 0.0000 0.0000 0.0000 28.3591
#
#
#
# Elastic Compliance Matrix: (Units=1/GPa)
#
#
# Indices 1 2 3 4 5 6 
#
# 1 0.014336 -0.000424 -0.001175 0.000000 0.000000 0.000000
# 2 -0.000424 0.013478 -0.003096 0.000000 0.000000 0.000000
# 3 -0.001175 -0.003096 0.009532 0.000000 0.000000 0.000000
# 4 0.000000 0.000000 0.000000 0.143388 0.000000 0.000000
# 5 0.000000 0.000000 0.000000 0.000000 0.087760 0.000000
# 6 0.000000 0.000000 0.000000 0.000000 0.000000 0.035262
#
#
# Mechanical properties :
#
#
# Convention : Reuss Voigt Hill
#
# Bulk Modulus (GPa) = 35.77150 38.77538 37.27344
# Shear Modulus (GPa) = 15.50557 24.31635 19.91096
#
# Velocity S-wave (km/s) = 2.70805 3.39126 3.06873
# Velocity P-wave (km/s) = 5.16687 5.80288 5.49409
#
# Compressibility (1/GPa) = 0.02795521
#
# Stress axis : x y z
#
# Youngs Moduli (GPa) = 69.75687 74.19593 104.90536
#
# Poissons Ratio (x) = 0.03148 0.12330
# Poissons Ratio (y) = 0.02959 0.32475
# Poissons Ratio (z) = 0.08199 0.22968
#
# Static dielectric constant tensor:
#      x y z
#    x 1.789600 0.000000 0.000000 
#    y 0.000000 1.913100 0.000000 
#    z 0.000000 0.000000 1.747630 
# 
# From -- ./inp_files/12262.got.cif
#   From: 2010.05.17/outbox.cif.g08.bks.cpg/sg41_7_cif.got.tgz:12262.got - 2010.06.03 18:54:24.
