data_PCOD9366102
_publ_section_title
;
Structure prediction by ZEFSAII (Michael W. Deem and Ramdas Pophale) SiO2 
 PCOD9366102
Probable space group: A B A 2
;
_chemical_formula_sum "Si O2"
_cell_formula_units_Z 48
_cell_length_a 11.391997
_cell_length_b 13.906108
_cell_length_c 12.096133
_cell_angle_alpha 90.000000
_cell_angle_beta 90.000000
_cell_angle_gamma 90.000000
_cell_volume 1916.249318
_symmetry_space_group_name_H-M "A B A 2"
_symmetry_group_IT_number 41
_symmetry_cell_setting 'orthorhombic'
loop_
_space_group_symop_operation_xyz
x,y,z
-x,-y,z
1/2-x,y,1/2+z
1/2+x,-y,1/2+z
x,1/2+y,1/2+z
-x,1/2-y,1/2+z
1/2-x,1/2+y,z
1/2+x,1/2-y,z
loop_
_atom_site_type_symbol
_atom_site_label
_atom_site_fract_x
_atom_site_fract_y
_atom_site_fract_z
Si Si1 0.405292 0.324996 0.195460
Si Si2 0.136315 0.982462 0.378896
Si Si3 0.923378 0.131679 0.936801
Si Si4 0.338961 0.258014 0.747600
Si Si5 0.655520 0.925779 0.332853
Si Si6 0.128364 0.958553 0.621179
O O1 0.356668 0.408978 0.276167
O O2 0.300115 0.244461 0.213658
O O3 0.542118 0.302986 0.223558
O O4 0.413590 0.357800 0.067768
O O5 0.176065 0.943916 0.498549
O O6 0.209280 0.081511 0.366866
O O7 0.000000 0.000000 0.382669
O O8 0.846287 0.211003 0.875259
O O9 0.056511 0.142567 0.884772
O O10 0.883519 0.027946 0.890283
O O11 0.370203 0.356005 0.679510
O O12 0.670778 0.959250 0.205670
O O13 0.000000 0.000000 0.604821
#
# Coordination Sequence:
#
# PCOD9366102 Si02
#       6
#     8   8   8   8   8   8
#     4  12  27  43  66 101 139 183 226 286 338 413
#     4  11  25  38  65 102 136 166 222 291 343 400
#     4  10  22  42  72  92 126 180 229 277 338 411
#     4  11  25  44  66  94 136 182 228 275 346 403
#     4  10  19  41  71  94 120 175 226 270 345 405
#     4  10  19  43  67  90 124 177 221 276 341 409
#
# _framework density 25.048933000000002
#
# number of rings (size 3 to 8) (size 9 to 14) (size 15 to 20)
#    0.000    1.333    6.667    1.000    4.667    1.333 
#    6.000    0.000    0.000    0.000    0.000    0.000 
#    0.000    0.000    0.000    0.000    0.000    0.000 
#
# Total GULP energy -133640.054737 kJ/mol
# GULP energy per Si atom -5568.335614 kJ/mol
# Density = 2.499192 g / cm^3
# Si number density = 25.048933 Si / 1000 Ang^3
#
#
#
# Elastic Constant Matrix: (Units=GPa)
#
#
# Indices 1 2 3 4 5 6 
#
# 1 175.4373 19.7363 19.4376 0.0000 0.0000 0.0000
# 2 19.7363 58.4173 25.2349 0.0000 0.0000 0.0000
# 3 19.4376 25.2349 191.8352 0.0000 0.0000 0.0000
# 4 0.0000 0.0000 0.0000 1.5691 0.0000 0.0000
# 5 0.0000 0.0000 0.0000 0.0000 32.3687 0.0000
# 6 0.0000 0.0000 0.0000 0.0000 0.0000 51.1737
#
#
#
# Elastic Compliance Matrix: (Units=1/GPa)
#
#
# Indices 1 2 3 4 5 6 
#
# 1 0.005948 -0.001855 -0.000359 0.000000 0.000000 0.000000
# 2 -0.001855 0.018728 -0.002276 0.000000 0.000000 0.000000
# 3 -0.000359 -0.002276 0.005549 0.000000 0.000000 0.000000
# 4 0.000000 0.000000 0.000000 0.637318 0.000000 0.000000
# 5 0.000000 0.000000 0.000000 0.000000 0.030894 0.000000
# 6 0.000000 0.000000 0.000000 0.000000 0.000000 0.019541
#
#
# Mechanical properties :
#
#
# Convention : Reuss Voigt Hill
#
# Bulk Modulus (GPa) = 47.06628 61.61194 54.33911
# Shear Modulus (GPa) = 6.81163 41.10768 23.95965
#
# Velocity S-wave (km/s) = 1.65083 4.05544 3.09611
# Velocity P-wave (km/s) = 4.73964 6.82487 5.87550
#
# Compressibility (1/GPa) = 0.02124663
#
# Stress axis : x y z
#
# Youngs Moduli (GPa) = 168.11127 53.39637 180.22871
#
# Poissons Ratio (x) = 0.09904 0.06466
# Poissons Ratio (y) = 0.31180 0.41013
# Poissons Ratio (z) = 0.06031 0.12151
#
# Static dielectric constant tensor:
#      x y z
#    x 1.836950 0.000000 0.000000 
#    y 0.000000 2.042690 0.000000 
#    z 0.000000 0.000000 2.148990 
# 
# From -- ./inp_files/4950.got.cif
#   From: 2010.05.17/outbox.cif.g08.bks.cpg/sg41_3_cif.got.tgz:4950.got - 2010.06.03 18:54:24.
