data_PCOD9366297
_publ_section_title
;
Structure prediction by ZEFSAII (Michael W. Deem and Ramdas Pophale) SiO2 
 PCOD9366297
Probable space group: A B A 2
;
_chemical_formula_sum "Si O2"
_cell_formula_units_Z 60
_cell_length_a 13.745012
_cell_length_b 21.224778
_cell_length_c 8.525905
_cell_angle_alpha 90.000000
_cell_angle_beta 90.000000
_cell_angle_gamma 90.000000
_cell_volume 2487.303431
_symmetry_space_group_name_H-M "A B A 2"
_symmetry_group_IT_number 41
_symmetry_cell_setting 'orthorhombic'
loop_
_space_group_symop_operation_xyz
x,y,z
-x,-y,z
1/2-x,y,1/2+z
1/2+x,-y,1/2+z
x,1/2+y,1/2+z
-x,1/2-y,1/2+z
1/2-x,1/2+y,z
1/2+x,1/2-y,z
loop_
_atom_site_type_symbol
_atom_site_label
_atom_site_fract_x
_atom_site_fract_y
_atom_site_fract_z
Si Si1 0.947550 0.075456 0.594420
Si Si2 0.371045 0.284030 0.599107
Si Si3 0.951224 0.248858 0.928822
Si Si4 0.205199 0.445460 0.833616
Si Si5 0.642441 0.370782 0.583975
Si Si6 0.676951 0.145608 0.549217
Si Si7 0.500000 0.500000 0.892533
Si Si8 0.682359 0.929145 0.403013
O O1 0.912324 0.145986 0.617328
O O2 0.877071 0.047314 0.465280
O O3 0.057499 0.080547 0.534134
O O4 0.947533 0.044366 0.764209
O O5 0.432626 0.258032 0.450696
O O6 0.408333 0.247785 0.753111
O O7 0.256504 0.298827 0.587150
O O8 0.896237 0.303919 0.025119
O O9 0.919805 0.182081 0.002121
O O10 0.166565 0.408510 0.681078
O O11 0.257802 0.512964 0.820557
O O12 0.277170 0.392960 0.906147
O O13 0.647831 0.380716 0.769916
O O14 0.745343 0.392110 0.515600
O O15 0.585680 0.461634 0.976965
#
# Coordination Sequence:
#
# PCOD9366297 Si02
#       8
#     8   8   8   8   8   8   4   8
#     4   9  20  41  66  93 123 172 214 268 329 392
#     4  10  23  42  63  95 128 171 225 266 336 393
#     4  11  25  42  66  94 130 176 217 275 336 395
#     4  11  21  39  68  92 124 163 217 271 322 385
#     4  10  24  42  63  91 131 170 216 261 335 393
#     4  11  23  39  63  96 127 163 219 277 323 389
#     4  10  20  38  64  90 130 172 208 262 332 388
#     4  11  22  42  63  93 125 173 213 264 322 401
#
# _framework density 24.122510999999999
#
# number of rings (size 3 to 8) (size 9 to 14) (size 15 to 20)
#    0.000    1.600    1.333    4.000    7.467    0.000 
#    4.800    2.667    0.000    0.000    0.000    0.000 
#    0.000    0.000    0.000    0.000    0.000    0.000 
#
# Total GULP energy -167632.165333 kJ/mol
# GULP energy per Si atom -5587.738844 kJ/mol
# Density = 2.406761 g / cm^3
# Si number density = 24.122511 Si / 1000 Ang^3
#
#
#
# Elastic Constant Matrix: (Units=GPa)
#
#
# Indices 1 2 3 4 5 6 
#
# 1 85.5053 -1.0745 10.4864 0.0000 0.0000 0.0000
# 2 -1.0745 59.9349 12.3071 0.0000 0.0000 0.0000
# 3 10.4864 12.3071 21.5971 0.0000 0.0000 0.0000
# 4 0.0000 0.0000 0.0000 16.1131 0.0000 0.0000
# 5 0.0000 0.0000 0.0000 0.0000 37.3408 0.0000
# 6 0.0000 0.0000 0.0000 0.0000 0.0000 67.4898
#
#
#
# Elastic Compliance Matrix: (Units=1/GPa)
#
#
# Indices 1 2 3 4 5 6 
#
# 1 0.012583 0.001676 -0.007065 0.000000 0.000000 0.000000
# 2 0.001676 0.019119 -0.011709 0.000000 0.000000 0.000000
# 3 -0.007065 -0.011709 0.056405 0.000000 0.000000 0.000000
# 4 0.000000 0.000000 0.000000 0.062061 0.000000 0.000000
# 5 0.000000 0.000000 0.000000 0.000000 0.026780 0.000000
# 6 0.000000 0.000000 0.000000 0.000000 0.000000 0.014817
#
#
# Mechanical properties :
#
#
# Convention : Reuss Voigt Hill
#
# Bulk Modulus (GPa) = 18.54869 23.38613 20.96741
# Shear Modulus (GPa) = 20.49759 33.87661 27.18710
#
# Velocity S-wave (km/s) = 2.91817 3.75154 3.36079
# Velocity P-wave (km/s) = 4.36582 5.33678 4.87553
#
# Compressibility (1/GPa) = 0.05391216
#
# Stress axis : x y z
#
# Youngs Moduli (GPa) = 79.47449 52.30354 17.72891
#
# Poissons Ratio (x) = -0.08767 0.12525
# Poissons Ratio (y) = -0.13322 0.20759
# Poissons Ratio (z) = 0.56146 0.61242
#
# Static dielectric constant tensor:
#      x y z
#    x 2.067160 0.000000 0.000000 
#    y 0.000000 1.932490 0.000000 
#    z 0.000000 0.000000 1.941210 
# 
# From -- ./inp_files/2749.got.cif
#   From: 2010.05.17/outbox.cif.g08.bks.cpg/sg41_2_cif.got.tgz:2749.got - 2010.06.03 18:54:24.
