data_PCOD9366860
_publ_section_title
;
Structure prediction by ZEFSAII (Michael W. Deem and Ramdas Pophale) SiO2 
 PCOD9366860
Probable space group: A B A 2
;
_chemical_formula_sum "Si O2"
_cell_formula_units_Z 60
_cell_length_a 12.104198
_cell_length_b 19.581306
_cell_length_c 11.108627
_cell_angle_alpha 90.000000
_cell_angle_beta 90.000000
_cell_angle_gamma 90.000000
_cell_volume 2632.922392
_symmetry_space_group_name_H-M "A B A 2"
_symmetry_group_IT_number 41
_symmetry_cell_setting 'orthorhombic'
loop_
_space_group_symop_operation_xyz
x,y,z
-x,-y,z
1/2-x,y,1/2+z
1/2+x,-y,1/2+z
x,1/2+y,1/2+z
-x,1/2-y,1/2+z
1/2-x,1/2+y,z
1/2+x,1/2-y,z
loop_
_atom_site_type_symbol
_atom_site_label
_atom_site_fract_x
_atom_site_fract_y
_atom_site_fract_z
Si Si1 0.680845 0.411805 0.399670
Si Si2 0.037067 0.797740 0.078434
Si Si3 0.517375 0.145726 0.337186
Si Si4 0.816467 0.035691 0.857530
Si Si5 0.353043 0.167189 0.120257
Si Si6 0.189297 0.918769 0.120442
Si Si7 0.000000 0.500000 0.753794
Si Si8 0.150223 0.223787 0.258578
O O1 0.786110 0.456266 0.359618
O O2 0.673956 0.399653 0.542685
O O3 0.576783 0.451769 0.338951
O O4 0.683957 0.334519 0.352515
O O5 0.067639 0.720107 0.050324
O O6 0.145959 0.842321 0.101162
O O7 0.963288 0.799488 0.196300
O O8 0.973601 0.828662 0.965220
O O9 0.564277 0.070213 0.357393
O O10 0.427771 0.149648 0.234589
O O11 0.618503 0.200317 0.306249
O O12 0.766834 0.067346 0.734477
O O13 0.767188 0.058716 0.988737
O O14 0.246554 0.211123 0.160436
O O15 0.080411 0.959297 0.164360
#
# Coordination Sequence:
#
# PCOD9366860 Si02
#       8
#     8   8   8   8   8   8   4   8
#     4  11  24  43  65  99 136 182 231 283 350 419
#     4  10  21  42  70  97 135 176 227 282 353 418
#     4  10  23  45  67 103 135 181 231 287 351 421
#     4  10  24  42  66  95 137 179 231 278 352 421
#     4  11  25  41  68 103 136 178 231 295 344 412
#     4  10  21  42  66  96 129 179 228 282 343 420
#     4  10  22  42  64  94 132 188 224 278 346 416
#     4  11  23  43  69  97 135 174 230 290 351 405
#
# _framework density 22.788366
#
# number of rings (size 3 to 8) (size 9 to 14) (size 15 to 20)
#    0.000    1.600    2.667    0.800    5.600    2.133 
#    2.400    2.667    0.000    0.000    0.000    0.000 
#    0.000    0.000    0.000    0.000    0.000    0.000 
#
# Total GULP energy -167315.480201 kJ/mol
# GULP energy per Si atom -5577.182673 kJ/mol
# Density = 2.273650 g / cm^3
# Si number density = 22.788366 Si / 1000 Ang^3
#
#
#
# Elastic Constant Matrix: (Units=GPa)
#
#
# Indices 1 2 3 4 5 6 
#
# 1 29.0982 24.9299 2.4338 0.0000 0.0000 0.0000
# 2 24.9299 111.6458 38.5345 0.0000 0.0000 0.0000
# 3 2.4338 38.5345 107.8707 0.0000 0.0000 0.0000
# 4 0.0000 0.0000 0.0000 27.6599 0.0000 0.0000
# 5 0.0000 0.0000 0.0000 0.0000 30.4617 0.0000
# 6 0.0000 0.0000 0.0000 0.0000 0.0000 33.6832
#
#
#
# Elastic Compliance Matrix: (Units=1/GPa)
#
#
# Indices 1 2 3 4 5 6 
#
# 1 0.043236 -0.010628 0.002821 0.000000 0.000000 0.000000
# 2 -0.010628 0.012829 -0.004343 0.000000 0.000000 0.000000
# 3 0.002821 -0.004343 0.010758 0.000000 0.000000 0.000000
# 4 0.000000 0.000000 0.000000 0.036153 0.000000 0.000000
# 5 0.000000 0.000000 0.000000 0.000000 0.032828 0.000000
# 6 0.000000 0.000000 0.000000 0.000000 0.000000 0.029688
#
#
# Mechanical properties :
#
#
# Convention : Reuss Voigt Hill
#
# Bulk Modulus (GPa) = 23.51653 42.26790 32.89221
# Shear Modulus (GPa) = 24.51365 30.54206 27.52786
#
# Velocity S-wave (km/s) = 3.28336 3.66491 3.47937
# Velocity P-wave (km/s) = 4.97150 6.04128 5.53231
#
# Compressibility (1/GPa) = 0.04252328
#
# Stress axis : x y z
#
# Youngs Moduli (GPa) = 23.12880 77.94750 92.95228
#
# Poissons Ratio (x) = 0.82844 -0.26224
# Poissons Ratio (y) = 0.24582 0.40371
# Poissons Ratio (z) = -0.06525 0.33854
#
# Static dielectric constant tensor:
#      x y z
#    x 1.844270 0.000000 0.000000 
#    y 0.000000 1.876820 0.000000 
#    z 0.000000 0.000000 1.914050 
# 
# From -- ./inp_files/5126.got.cif
#   From: 2010.05.17/outbox.cif.g08.bks.cpg/sg41_3_cif.got.tgz:5126.got - 2010.06.03 18:54:24.
