data_PCOD9366073
_publ_section_title
;
Structure prediction by ZEFSAII (Michael W. Deem and Ramdas Pophale) SiO2 
 PCOD9366073
Probable space group: A B A 2
;
_chemical_formula_sum "Si O2"
_cell_formula_units_Z 60
_cell_length_a 13.650614
_cell_length_b 12.821416
_cell_length_c 16.440677
_cell_angle_alpha 90.000000
_cell_angle_beta 90.000000
_cell_angle_gamma 90.000000
_cell_volume 2877.450589
_symmetry_space_group_name_H-M "A B A 2"
_symmetry_group_IT_number 41
_symmetry_cell_setting 'orthorhombic'
loop_
_space_group_symop_operation_xyz
x,y,z
-x,-y,z
1/2-x,y,1/2+z
1/2+x,-y,1/2+z
x,1/2+y,1/2+z
-x,1/2-y,1/2+z
1/2-x,1/2+y,z
1/2+x,1/2-y,z
loop_
_atom_site_type_symbol
_atom_site_label
_atom_site_fract_x
_atom_site_fract_y
_atom_site_fract_z
Si Si1 0.232531 0.087791 0.701680
Si Si2 0.000000 0.000000 0.027152
Si Si3 0.532216 0.384877 0.489523
Si Si4 0.571370 0.400409 0.297082
Si Si5 0.321185 0.902518 0.625998
Si Si6 0.081993 0.745563 0.255464
Si Si7 0.730243 0.795039 0.047833
Si Si8 0.906498 0.801532 0.945017
O O1 0.316703 0.083397 0.770405
O O2 0.127632 0.135144 0.726277
O O3 0.274519 0.164217 0.631885
O O4 0.235977 0.975364 0.660232
O O5 0.089997 0.968212 0.086353
O O6 0.971788 0.901493 0.969937
O O7 0.500000 0.500000 0.513238
O O8 0.563514 0.388181 0.394263
O O9 0.624547 0.346154 0.539658
O O10 0.448814 0.297015 0.494942
O O11 0.500000 0.500000 0.277147
O O12 0.526513 0.296580 0.254235
O O13 0.358851 0.829010 0.699938
O O14 0.283551 0.827746 0.554955
O O15 0.098559 0.735745 0.352195
O O16 0.798224 0.826982 0.974552
#
# Coordination Sequence:
#
# PCOD9366073 Si02
#       8
#     8   4   8   8   8   8   8   8
#     4  11  22  38  65  96 128 171 221 272 329 403
#     4  12  22  44  72  96 134 178 238 276 342 400
#     4  10  23  41  64  97 132 169 221 281 337 391
#     4  10  19  39  67  89 121 175 220 266 329 404
#     4  11  22  41  64  92 130 178 220 272 328 426
#     4  10  23  41  65  96 131 163 232 272 335 395
#     4  11  24  39  63  97 130 171 223 267 340 398
#     4  11  24  43  69  99 133 177 221 290 333 408
#
# _framework density 20.851792
#
# number of rings (size 3 to 8) (size 9 to 14) (size 15 to 20)
#    0.000    1.333    4.000    1.600    1.867    0.000 
#    2.400    2.667    5.867    0.000    0.000    0.000 
#    0.000    0.000    0.000    0.000    0.000    0.000 
#
# Total GULP energy -167204.621311 kJ/mol
# GULP energy per Si atom -5573.487377 kJ/mol
# Density = 2.080433 g / cm^3
# Si number density = 20.851792 Si / 1000 Ang^3
#
#
#
# Elastic Constant Matrix: (Units=GPa)
#
#
# Indices 1 2 3 4 5 6 
#
# 1 47.1405 12.6540 6.6196 0.0000 0.0000 0.0000
# 2 12.6540 64.3568 -14.9462 0.0000 0.0000 0.0000
# 3 6.6196 -14.9462 46.7685 0.0000 0.0000 0.0000
# 4 0.0000 0.0000 0.0000 32.5965 0.0000 0.0000
# 5 0.0000 0.0000 0.0000 0.0000 13.5706 0.0000
# 6 0.0000 0.0000 0.0000 0.0000 0.0000 23.5992
#
#
#
# Elastic Compliance Matrix: (Units=1/GPa)
#
#
# Indices 1 2 3 4 5 6 
#
# 1 0.023506 -0.005827 -0.005189 0.000000 0.000000 0.000000
# 2 -0.005827 0.018229 0.006650 0.000000 0.000000 0.000000
# 3 -0.005189 0.006650 0.024242 0.000000 0.000000 0.000000
# 4 0.000000 0.000000 0.000000 0.030678 0.000000 0.000000
# 5 0.000000 0.000000 0.000000 0.000000 0.073689 0.000000
# 6 0.000000 0.000000 0.000000 0.000000 0.000000 0.042374
#
#
# Mechanical properties :
#
#
# Convention : Reuss Voigt Hill
#
# Bulk Modulus (GPa) = 17.46902 18.54675 18.00789
# Shear Modulus (GPa) = 20.78738 24.21583 22.50161
#
# Velocity S-wave (km/s) = 3.16082 3.41153 3.28856
# Velocity P-wave (km/s) = 4.66014 4.94286 4.80358
#
# Compressibility (1/GPa) = 0.05724418
#
# Stress axis : x y z
#
# Youngs Moduli (GPa) = 42.54233 54.85914 41.25138
#
# Poissons Ratio (x) = 0.31966 0.21406
# Poissons Ratio (y) = 0.24789 -0.27433
# Poissons Ratio (z) = 0.22076 -0.36482
#
# Static dielectric constant tensor:
#      x y z
#    x 1.739240 0.000000 0.000000 
#    y 0.000000 1.792720 0.000000 
#    z 0.000000 0.000000 1.757960 
# 
# From -- ./inp_files/10369.got.cif
#   From: 2010.05.17/outbox.cif.g08.bks.cpg/sg41_6_cif.got.tgz:10369.got - 2010.06.03 18:54:24.
