data_PCOD9366444
_publ_section_title
;
Structure prediction by ZEFSAII (Michael W. Deem and Ramdas Pophale) SiO2 
 PCOD9366444
Probable space group: A B A 2
;
_chemical_formula_sum "Si O2"
_cell_formula_units_Z 56
_cell_length_a 11.217199
_cell_length_b 18.521123
_cell_length_c 12.697175
_cell_angle_alpha 90.000000
_cell_angle_beta 90.000000
_cell_angle_gamma 90.000000
_cell_volume 2637.903146
_symmetry_space_group_name_H-M "A B A 2"
_symmetry_group_IT_number 41
_symmetry_cell_setting 'orthorhombic'
loop_
_space_group_symop_operation_xyz
x,y,z
-x,-y,z
1/2-x,y,1/2+z
1/2+x,-y,1/2+z
x,1/2+y,1/2+z
-x,1/2-y,1/2+z
1/2-x,1/2+y,z
1/2+x,1/2-y,z
loop_
_atom_site_type_symbol
_atom_site_label
_atom_site_fract_x
_atom_site_fract_y
_atom_site_fract_z
Si Si1 0.244238 0.977204 0.359540
Si Si2 0.500000 0.500000 0.590212
Si Si3 0.333656 0.612505 0.465489
Si Si4 0.920644 0.865255 0.043892
Si Si5 0.500000 0.000000 0.406492
Si Si6 0.393885 0.861470 0.725529
Si Si7 0.686206 0.611412 0.569627
Si Si8 0.464534 0.781460 0.928306
O O1 0.385189 0.977573 0.339806
O O2 0.150065 0.933934 0.287461
O O3 0.237108 0.936983 0.473504
O O4 0.210353 0.061359 0.370520
O O5 0.424682 0.558183 0.522770
O O6 0.601423 0.555065 0.631525
O O7 0.223009 0.632874 0.539991
O O8 0.404719 0.682651 0.428768
O O9 0.985491 0.864620 0.156820
O O10 0.960632 0.936399 0.983221
O O11 0.963131 0.799294 0.969993
O O12 0.287864 0.853780 0.641156
O O13 0.407745 0.799900 0.814504
O O14 0.610903 0.674021 0.514626
#
# Coordination Sequence:
#
# PCOD9366444 Si02
#       8
#     8   4   8   8   4   8   8   8
#     4   9  19  38  65  99 139 176 232 290 343 408
#     4   8  16  37  65  96 134 178 212 283 353 396
#     4   9  20  42  67  94 139 180 220 294 347 402
#     4  11  24  42  70 101 136 182 239 291 349 421
#     4  10  20  41  67  98 140 172 224 315 341 394
#     4  11  23  41  73 102 133 193 230 278 356 427
#     4   9  18  39  66  97 138 182 228 281 347 409
#     4  10  24  44  65  96 147 182 227 291 346 418
#
# _framework density 21.228982999999999
#
# number of rings (size 3 to 8) (size 9 to 14) (size 15 to 20)
#    0.000    2.286    1.429    0.857    2.000    1.714 
#    5.143    0.000    0.000    0.000    0.000    0.000 
#    0.000    0.000    0.000    0.000    0.000    0.000 
#
# Total GULP energy -156053.298571 kJ/mol
# GULP energy per Si atom -5573.332092 kJ/mol
# Density = 2.118067 g / cm^3
# Si number density = 21.228983 Si / 1000 Ang^3
#
#
#
# Elastic Constant Matrix: (Units=GPa)
#
#
# Indices 1 2 3 4 5 6 
#
# 1 117.7672 22.5548 41.2894 0.0000 0.0000 0.0000
# 2 22.5548 89.9063 29.9316 0.0000 0.0000 0.0000
# 3 41.2894 29.9316 116.6982 0.0000 0.0000 0.0000
# 4 0.0000 0.0000 0.0000 19.4770 0.0000 0.0000
# 5 0.0000 0.0000 0.0000 0.0000 40.5390 0.0000
# 6 0.0000 0.0000 0.0000 0.0000 0.0000 12.5957
#
#
#
# Elastic Compliance Matrix: (Units=1/GPa)
#
#
# Indices 1 2 3 4 5 6 
#
# 1 0.009860 -0.001435 -0.003121 0.000000 0.000000 0.000000
# 2 -0.001435 0.012370 -0.002665 0.000000 0.000000 0.000000
# 3 -0.003121 -0.002665 0.010357 0.000000 0.000000 0.000000
# 4 0.000000 0.000000 0.000000 0.051343 0.000000 0.000000
# 5 0.000000 0.000000 0.000000 0.000000 0.024668 0.000000
# 6 0.000000 0.000000 0.000000 0.000000 0.000000 0.079392
#
#
# Mechanical properties :
#
#
# Convention : Reuss Voigt Hill
#
# Bulk Modulus (GPa) = 55.10877 56.88037 55.99457
# Shear Modulus (GPa) = 23.98324 29.89541 26.93932
#
# Velocity S-wave (km/s) = 3.36481 3.75672 3.56615
# Velocity P-wave (km/s) = 6.41182 6.75789 6.58713
#
# Compressibility (1/GPa) = 0.01814593
#
# Stress axis : x y z
#
# Youngs Moduli (GPa) = 101.41761 80.84154 96.55471
#
# Poissons Ratio (x) = 0.11598 0.30132
# Poissons Ratio (y) = 0.14550 0.25733
# Poissons Ratio (z) = 0.31649 0.21545
#
# Static dielectric constant tensor:
#      x y z
#    x 1.827070 0.000000 0.000000 
#    y 0.000000 1.589620 0.000000 
#    z 0.000000 0.000000 1.799280 
# 
# From -- ./inp_files/5092.got.cif
#   From: 2010.05.17/outbox.cif.g08.bks.cpg/sg41_3_cif.got.tgz:5092.got - 2010.06.03 18:54:24.
