data_PCOD9366088
_publ_section_title
;
Structure prediction by ZEFSAII (Michael W. Deem and Ramdas Pophale) SiO2 
 PCOD9366088
Probable space group: A B A 2
;
_chemical_formula_sum "Si O2"
_cell_formula_units_Z 64
_cell_length_a 14.994798
_cell_length_b 14.990607
_cell_length_c 11.382397
_cell_angle_alpha 90.000000
_cell_angle_beta 90.000000
_cell_angle_gamma 90.000000
_cell_volume 2558.547990
_symmetry_space_group_name_H-M "A B A 2"
_symmetry_group_IT_number 41
_symmetry_cell_setting 'orthorhombic'
loop_
_space_group_symop_operation_xyz
x,y,z
-x,-y,z
1/2-x,y,1/2+z
1/2+x,-y,1/2+z
x,1/2+y,1/2+z
-x,1/2-y,1/2+z
1/2-x,1/2+y,z
1/2+x,1/2-y,z
loop_
_atom_site_type_symbol
_atom_site_label
_atom_site_fract_x
_atom_site_fract_y
_atom_site_fract_z
Si Si1 0.124326 0.367705 0.756520
Si Si2 0.086269 0.830063 0.660273
Si Si3 0.766516 0.465792 0.707277
Si Si4 0.719744 0.211282 0.568454
Si Si5 0.550066 0.878560 0.622830
Si Si6 0.203750 0.593497 0.958975
Si Si7 0.432977 0.850258 0.422913
Si Si8 0.486933 0.642968 0.449301
O O1 0.204934 0.435372 0.745006
O O2 0.160392 0.280555 0.688183
O O3 0.080880 0.357222 0.882033
O O4 0.038532 0.408187 0.690171
O O5 0.183723 0.822661 0.603711
O O6 0.056554 0.725800 0.658640
O O7 0.083663 0.870510 0.788914
O O8 0.013725 0.878121 0.581040
O O9 0.857443 0.419166 0.660334
O O10 0.742462 0.424860 0.836763
O O11 0.711277 0.459168 0.584455
O O12 0.725035 0.304742 0.500034
O O13 0.660109 0.141557 0.493730
O O14 0.518572 0.891420 0.488387
O O15 0.099777 0.585760 0.917620
O O16 0.453359 0.744326 0.433700
#
# Coordination Sequence:
#
# PCOD9366088 Si02
#       8
#     8   8   8   8   8   8   8   8
#     4  11  23  43  71  99 137 179 236 285 355 430
#     4  11  20  37  66 101 136 174 233 290 346 405
#     4  12  25  45  72 102 139 186 237 291 361 439
#     4  10  23  39  66  99 137 177 230 291 345 415
#     4  10  19  40  66  96 131 184 223 275 354 428
#     4  11  25  44  68 102 140 185 237 290 358 428
#     4   9  20  36  58 100 138 164 230 290 341 414
#     4  10  22  38  65  96 134 181 223 284 350 421
#
# _framework density 25.014185999999999
#
# number of rings (size 3 to 8) (size 9 to 14) (size 15 to 20)
#    0.000    1.500    3.750    1.875    1.750    2.000 
#    2.250    0.000    0.000    0.000    0.000    0.000 
#    0.000    0.000    0.000    0.000    0.000    0.000 
#
# Total GULP energy -178545.142097 kJ/mol
# GULP energy per Si atom -5579.535691 kJ/mol
# Density = 2.495725 g / cm^3
# Si number density = 25.014186 Si / 1000 Ang^3
#
#
#
# Elastic Constant Matrix: (Units=GPa)
#
#
# Indices 1 2 3 4 5 6 
#
# 1 73.7018 4.4097 53.1319 0.0000 0.0000 0.0000
# 2 4.4097 33.6372 0.9601 0.0000 0.0000 0.0000
# 3 53.1319 0.9601 172.6331 0.0000 0.0000 0.0000
# 4 0.0000 0.0000 0.0000 -3.5713 0.0000 0.0000
# 5 0.0000 0.0000 0.0000 0.0000 43.8457 0.0000
# 6 0.0000 0.0000 0.0000 0.0000 0.0000 17.3127
#
#
#
# Elastic Compliance Matrix: (Units=1/GPa)
#
#
# Indices 1 2 3 4 5 6 
#
# 1 0.017591 -0.002152 -0.005402 0.000000 0.000000 0.000000
# 2 -0.002152 0.029997 0.000496 0.000000 0.000000 0.000000
# 3 -0.005402 0.000496 0.007453 0.000000 0.000000 0.000000
# 4 0.000000 0.000000 0.000000 -0.280011 0.000000 0.000000
# 5 0.000000 0.000000 0.000000 0.000000 0.022807 0.000000
# 6 0.000000 0.000000 0.000000 0.000000 0.000000 0.057761
#
#
# Mechanical properties :
#
#
# Convention : Reuss Voigt Hill
#
# Bulk Modulus (GPa) = 24.43580 44.10838 34.27209
# Shear Modulus (GPa) = -42.86589 26.28213 -8.29188
#
# Velocity S-wave (km/s) = -4.14413 3.24495 -1.82265
# Velocity P-wave (km/s) = 3.62056 5.63127 3.04982
#
# Compressibility (1/GPa) = 0.04092356
#
# Stress axis : x y z
#
# Youngs Moduli (GPa) = 56.84596 33.33667 134.18266
#
# Poissons Ratio (x) = 0.07174 0.72488
# Poissons Ratio (y) = 0.12233 -0.06649
# Poissons Ratio (z) = 0.30709 -0.01652
#
# Static dielectric constant tensor:
#      x y z
#    x 1.955990 0.000000 0.000000 
#    y 0.000000 2.142440 0.000000 
#    z 0.000000 0.000000 2.125250 
# 
# From -- ./inp_files/5706.got.cif
#   From: 2010.05.17/outbox.cif.g08.bks.cpg/sg41_3_cif.got.tgz:5706.got - 2010.06.03 18:54:24.
