data_PCOD9366385
_publ_section_title
;
Structure prediction by ZEFSAII (Michael W. Deem and Ramdas Pophale) SiO2 
 PCOD9366385
Probable space group: A B A 2
;
_chemical_formula_sum "Si O2"
_cell_formula_units_Z 56
_cell_length_a 7.965499
_cell_length_b 24.416820
_cell_length_c 13.575692
_cell_angle_alpha 90.000000
_cell_angle_beta 90.000000
_cell_angle_gamma 90.000000
_cell_volume 2640.365597
_symmetry_space_group_name_H-M "A B A 2"
_symmetry_group_IT_number 41
_symmetry_cell_setting 'orthorhombic'
loop_
_space_group_symop_operation_xyz
x,y,z
-x,-y,z
1/2-x,y,1/2+z
1/2+x,-y,1/2+z
x,1/2+y,1/2+z
-x,1/2-y,1/2+z
1/2-x,1/2+y,z
1/2+x,1/2-y,z
loop_
_atom_site_type_symbol
_atom_site_label
_atom_site_fract_x
_atom_site_fract_y
_atom_site_fract_z
Si Si1 0.480085 0.698699 0.810760
Si Si2 0.500000 0.000000 0.690176
Si Si3 0.244693 0.584235 0.579878
Si Si4 0.925748 0.302188 0.087997
Si Si5 0.259102 0.471356 0.346826
Si Si6 0.595302 0.916142 0.362385
Si Si7 0.220864 0.281865 0.950570
Si Si8 0.500000 0.500000 0.521408
O O1 0.496252 0.714962 0.695992
O O2 0.382818 0.641275 0.810555
O O3 0.647183 0.689086 0.877193
O O4 0.378144 0.742439 0.874934
O O5 0.388592 0.043235 0.630245
O O6 0.387850 0.960574 0.759842
O O7 0.301784 0.646108 0.603394
O O8 0.166558 0.589993 0.471318
O O9 0.415337 0.548438 0.581338
O O10 0.823715 0.254382 0.030844
O O11 0.082226 0.315114 0.013904
O O12 0.195966 0.532532 0.320632
O O13 0.358675 0.475264 0.449086
O O14 0.097990 0.434054 0.357551
#
# Coordination Sequence:
#
# PCOD9366385 Si02
#       8
#     8   4   8   8   8   8   8   4
#     4  11  22  42  67  93 126 172 213 273 330 390
#     4  11  22  38  56  95 128 166 212 265 318 395
#     4  11  22  39  63  95 130 169 216 268 330 396
#     4  11  23  43  68  98 128 175 221 273 335 399
#     4   9  20  38  59  87 126 164 212 253 320 392
#     4  10  20  40  62  89 124 170 207 264 323 385
#     4  10  24  44  65  94 134 164 223 277 333 385
#     4   9  20  36  60  81 126 168 194 263 318 385
#
# _framework density 21.209185000000002
#
# number of rings (size 3 to 8) (size 9 to 14) (size 15 to 20)
#    0.000    1.714    1.429    3.429    2.000    2.286 
#    2.571    1.429    0.000    0.000    0.000    0.000 
#    0.000    0.000    0.000    0.000    0.000    0.000 
#
# Total GULP energy -156126.603274 kJ/mol
# GULP energy per Si atom -5575.950117 kJ/mol
# Density = 2.116091 g / cm^3
# Si number density = 21.209185 Si / 1000 Ang^3
#
#
#
# Elastic Constant Matrix: (Units=GPa)
#
#
# Indices 1 2 3 4 5 6 
#
# 1 77.6179 16.9169 30.1626 0.0000 0.0000 0.0000
# 2 16.9169 71.8432 24.3800 0.0000 0.0000 0.0000
# 3 30.1626 24.3800 117.8489 0.0000 0.0000 0.0000
# 4 0.0000 0.0000 0.0000 -18.5398 0.0000 0.0000
# 5 0.0000 0.0000 0.0000 0.0000 8.6225 0.0000
# 6 0.0000 0.0000 0.0000 0.0000 0.0000 28.0368
#
#
#
# Elastic Compliance Matrix: (Units=1/GPa)
#
#
# Indices 1 2 3 4 5 6 
#
# 1 0.014665 -0.002344 -0.003268 0.000000 0.000000 0.000000
# 2 -0.002344 0.015345 -0.002575 0.000000 0.000000 0.000000
# 3 -0.003268 -0.002575 0.009855 0.000000 0.000000 0.000000
# 4 0.000000 0.000000 0.000000 -0.053938 0.000000 0.000000
# 5 0.000000 0.000000 0.000000 0.000000 0.115976 0.000000
# 6 0.000000 0.000000 0.000000 0.000000 0.000000 0.035667
#
#
# Mechanical properties :
#
#
# Convention : Reuss Voigt Hill
#
# Bulk Modulus (GPa) = 42.57093 45.58102 44.07598
# Shear Modulus (GPa) = 30.90750 16.68060 23.79405
#
# Velocity S-wave (km/s) = 3.82156 2.80747 3.35307
# Velocity P-wave (km/s) = 6.29190 5.66101 5.98477
#
# Compressibility (1/GPa) = 0.02349021
#
# Stress axis : x y z
#
# Youngs Moduli (GPa) = 68.19137 65.16866 101.47563
#
# Poissons Ratio (x) = 0.15275 0.33166
# Poissons Ratio (y) = 0.15984 0.26125
# Poissons Ratio (z) = 0.22288 0.16778
#
# Static dielectric constant tensor:
#      x y z
#    x 1.776330 0.000000 0.000000 
#    y 0.000000 1.795860 0.000000 
#    z 0.000000 0.000000 1.791330 
# 
# From -- ./inp_files/7518.got.cif
#   From: 2010.05.17/outbox.cif.g08.bks.cpg/sg41_4_cif.got.tgz:7518.got - 2010.06.03 18:54:24.
