data_PCOD9366319
_publ_section_title
;
Structure prediction by ZEFSAII (Michael W. Deem and Ramdas Pophale) SiO2 
 PCOD9366319
Probable space group: A B A 2
;
_chemical_formula_sum "Si O2"
_cell_formula_units_Z 60
_cell_length_a 17.691826
_cell_length_b 27.467874
_cell_length_c 5.287354
_cell_angle_alpha 90.000000
_cell_angle_beta 90.000000
_cell_angle_gamma 90.000000
_cell_volume 2569.425881
_symmetry_space_group_name_H-M "A B A 2"
_symmetry_group_IT_number 41
_symmetry_cell_setting 'orthorhombic'
loop_
_space_group_symop_operation_xyz
x,y,z
-x,-y,z
1/2-x,y,1/2+z
1/2+x,-y,1/2+z
x,1/2+y,1/2+z
-x,1/2-y,1/2+z
1/2-x,1/2+y,z
1/2+x,1/2-y,z
loop_
_atom_site_type_symbol
_atom_site_label
_atom_site_fract_x
_atom_site_fract_y
_atom_site_fract_z
Si Si1 0.950988 0.754244 0.850470
Si Si2 0.730803 0.895893 0.686846
Si Si3 0.073023 0.849047 0.249896
Si Si4 0.660639 0.492154 0.649866
Si Si5 0.023752 0.143335 0.743801
Si Si6 0.000000 0.000000 0.366221
Si Si7 0.211482 0.404328 0.992191
Si Si8 0.584292 0.940748 0.536012
O O1 0.925303 0.809443 0.803390
O O2 0.018235 0.749390 0.638055
O O3 0.900682 0.707355 0.787166
O O4 0.757556 0.868090 0.928889
O O5 0.644280 0.911756 0.700971
O O6 0.784330 0.944422 0.644326
O O7 0.006326 0.853729 0.459643
O O8 0.136326 0.884866 0.357454
O O9 0.041560 0.854894 0.964260
O O10 0.578712 0.497506 0.512157
O O11 0.705686 0.537437 0.535671
O O12 0.629252 0.488264 0.937629
O O13 0.064964 0.092829 0.798397
O O14 0.008930 0.045735 0.180331
O O15 0.274027 0.388636 0.783344
#
# Coordination Sequence:
#
# PCOD9366319 Si02
#       8
#     8   8   8   8   8   4   8   8
#     4   8  16  34  59  87 118 154 183 237 313 364
#     4  10  20  39  55  71 106 154 189 222 279 347
#     4  10  21  39  62  89 125 151 201 261 307 364
#     4  11  25  40  56  82 118 160 201 246 299 358
#     4  10  21  36  61  94 123 155 198 253 309 366
#     4  12  24  38  60  86 114 156 202 268 294 334
#     4  12  26  41  62  85 118 167 209 245 303 374
#     4  11  24  36  58  86 118 157 202 249 293 351
#
# _framework density 23.351517999999999
#
# number of rings (size 3 to 8) (size 9 to 14) (size 15 to 20)
#    0.000    1.600    1.333    3.600    7.467    0.000 
#    0.000    0.000    0.000    3.200    0.000    0.000 
#    0.000    0.000    0.000    0.000    0.000    0.000 
#
# Total GULP energy -167179.165601 kJ/mol
# GULP energy per Si atom -5572.638853 kJ/mol
# Density = 2.329837 g / cm^3
# Si number density = 23.351518 Si / 1000 Ang^3
#
#
#
# Elastic Constant Matrix: (Units=GPa)
#
#
# Indices 1 2 3 4 5 6 
#
# 1 66.2377 9.3630 12.8422 0.0000 0.0000 0.0000
# 2 9.3630 59.1979 10.8830 0.0000 0.0000 0.0000
# 3 12.8422 10.8830 117.7972 0.0000 0.0000 0.0000
# 4 0.0000 0.0000 0.0000 26.9690 0.0000 0.0000
# 5 0.0000 0.0000 0.0000 0.0000 34.5978 0.0000
# 6 0.0000 0.0000 0.0000 0.0000 0.0000 13.8316
#
#
#
# Elastic Compliance Matrix: (Units=1/GPa)
#
#
# Indices 1 2 3 4 5 6 
#
# 1 0.015701 -0.002206 -0.001508 0.000000 0.000000 0.000000
# 2 -0.002206 0.017494 -0.001376 0.000000 0.000000 0.000000
# 3 -0.001508 -0.001376 0.008781 0.000000 0.000000 0.000000
# 4 0.000000 0.000000 0.000000 0.037080 0.000000 0.000000
# 5 0.000000 0.000000 0.000000 0.000000 0.028904 0.000000
# 6 0.000000 0.000000 0.000000 0.000000 0.000000 0.072298
#
#
# Mechanical properties :
#
#
# Convention : Reuss Voigt Hill
#
# Bulk Modulus (GPa) = 31.44985 34.37880 32.91432
# Shear Modulus (GPa) = 24.87110 29.08931 26.98020
#
# Velocity S-wave (km/s) = 3.26709 3.53330 3.40280
# Velocity P-wave (km/s) = 5.26584 5.60356 5.43732
#
# Compressibility (1/GPa) = 0.03179666
#
# Stress axis : x y z
#
# Youngs Moduli (GPa) = 63.68872 57.16129 113.88662
#
# Poissons Ratio (x) = 0.12611 0.17173
# Poissons Ratio (y) = 0.14051 0.15668
# Poissons Ratio (z) = 0.09604 0.07864
#
# Static dielectric constant tensor:
#      x y z
#    x 1.882440 0.000000 0.000000 
#    y 0.000000 1.976000 0.000000 
#    z 0.000000 0.000000 2.020260 
# 
# From -- ./inp_files/557.got.cif
#   From: 2010.05.17/outbox.cif.g08.bks.cpg/sg41_1_cif.got.tgz:557.got - 2010.06.03 18:54:24.
