data_PCOD9366264
_publ_section_title
;
Structure prediction by ZEFSAII (Michael W. Deem and Ramdas Pophale) SiO2 
 PCOD9366264
Probable space group: A B A 2
;
_chemical_formula_sum "Si O2"
_cell_formula_units_Z 48
_cell_length_a 28.723983
_cell_length_b 8.994591
_cell_length_c 7.277324
_cell_angle_alpha 90.000000
_cell_angle_beta 90.000000
_cell_angle_gamma 90.000000
_cell_volume 1880.172914
_symmetry_space_group_name_H-M "A B A 2"
_symmetry_group_IT_number 41
_symmetry_cell_setting 'orthorhombic'
loop_
_space_group_symop_operation_xyz
x,y,z
-x,-y,z
1/2-x,y,1/2+z
1/2+x,-y,1/2+z
x,1/2+y,1/2+z
-x,1/2-y,1/2+z
1/2-x,1/2+y,z
1/2+x,1/2-y,z
loop_
_atom_site_type_symbol
_atom_site_label
_atom_site_fract_x
_atom_site_fract_y
_atom_site_fract_z
Si Si1 0.199154 0.857899 0.882390
Si Si2 0.389377 0.679194 0.356545
Si Si3 0.203349 0.213850 0.984975
Si Si4 0.951916 0.569032 0.419556
Si Si5 0.390227 0.177397 0.431668
Si Si6 0.951396 0.065976 0.364768
O O1 0.152362 0.770138 0.946547
O O2 0.196826 0.826184 0.661803
O O3 0.245544 0.764570 0.926695
O O4 0.203307 0.027974 0.962205
O O5 0.438498 0.767393 0.359585
O O6 0.377408 0.651598 0.144327
O O7 0.406315 0.524083 0.435410
O O8 0.157584 0.246057 0.859398
O O9 0.907298 0.476462 0.349799
O O10 0.952112 0.564578 0.642037
O O11 0.000000 0.500000 0.354199
O O12 0.437679 0.270104 0.423477
O O13 0.000000 0.000000 0.430279
#
# Coordination Sequence:
#
# PCOD9366264 Si02
#       6
#     8   8   8   8   8   8
#     4  11  24  43  66  95 131 168 220 276 340 411
#     4  10  22  39  59  88 125 160 207 267 324 384
#     4  11  24  43  66  95 129 170 218 276 342 409
#     4  10  20  38  60  86 123 163 204 263 319 382
#     4  10  22  39  59  87 126 156 212 264 320 395
#     4  10  22  38  60  91 122 165 215 260 319 393
#
# _framework density 25.529568999999999
#
# number of rings (size 3 to 8) (size 9 to 14) (size 15 to 20)
#    0.000    1.667    1.667    2.000    2.333    3.333 
#    0.000    0.000    0.000    0.000    0.000    0.000 
#    0.000    0.000    0.000    0.000    0.000    0.000 
#
# Total GULP energy -133617.757224 kJ/mol
# GULP energy per Si atom -5567.406551 kJ/mol
# Density = 2.547146 g / cm^3
# Si number density = 25.529569 Si / 1000 Ang^3
#
#
#
# Elastic Constant Matrix: (Units=GPa)
#
#
# Indices 1 2 3 4 5 6 
#
# 1 145.8190 43.2392 1.8993 0.0000 0.0000 0.0000
# 2 43.2392 114.0327 11.8472 0.0000 0.0000 0.0000
# 3 1.8993 11.8472 120.1870 0.0000 0.0000 0.0000
# 4 0.0000 0.0000 0.0000 8.6398 0.0000 0.0000
# 5 0.0000 0.0000 0.0000 0.0000 11.5334 0.0000
# 6 0.0000 0.0000 0.0000 0.0000 0.0000 58.2618
#
#
#
# Elastic Compliance Matrix: (Units=1/GPa)
#
#
# Indices 1 2 3 4 5 6 
#
# 1 0.007730 -0.002949 0.000168 0.000000 0.000000 0.000000
# 2 -0.002949 0.009985 -0.000938 0.000000 0.000000 0.000000
# 3 0.000168 -0.000938 0.008410 0.000000 0.000000 0.000000
# 4 0.000000 0.000000 0.000000 0.115744 0.000000 0.000000
# 5 0.000000 0.000000 0.000000 0.000000 0.086705 0.000000
# 6 0.000000 0.000000 0.000000 0.000000 0.000000 0.017164
#
#
# Mechanical properties :
#
#
# Convention : Reuss Voigt Hill
#
# Bulk Modulus (GPa) = 53.50591 54.89000 54.19795
# Shear Modulus (GPa) = 19.27505 37.22386 28.24945
#
# Velocity S-wave (km/s) = 2.75072 3.82261 3.33008
# Velocity P-wave (km/s) = 5.57607 6.40549 6.00512
#
# Compressibility (1/GPa) = 0.01868953
#
# Stress axis : x y z
#
# Youngs Moduli (GPa) = 129.36689 100.15145 118.90419
#
# Poissons Ratio (x) = 0.29530 -0.02003
# Poissons Ratio (y) = 0.38145 0.11149
# Poissons Ratio (z) = -0.02180 0.09391
#
# Static dielectric constant tensor:
#      x y z
#    x 2.061030 0.000000 0.000000 
#    y 0.000000 1.982480 0.000000 
#    z 0.000000 0.000000 2.074110 
# 
# From -- ./inp_files/3901.got.cif
#   From: 2010.05.17/outbox.cif.g08.bks.cpg/sg41_2_cif.got.tgz:3901.got - 2010.06.03 18:54:24.
