data_PCOD9366066
_publ_section_title
;
Structure prediction by ZEFSAII (Michael W. Deem and Ramdas Pophale) SiO2 
 PCOD9366066
Probable space group: A B A 2
;
_chemical_formula_sum "Si O2"
_cell_formula_units_Z 64
_cell_length_a 10.910357
_cell_length_b 14.471054
_cell_length_c 18.292791
_cell_angle_alpha 90.000000
_cell_angle_beta 90.000000
_cell_angle_gamma 90.000000
_cell_volume 2888.145697
_symmetry_space_group_name_H-M "A B A 2"
_symmetry_group_IT_number 41
_symmetry_cell_setting 'orthorhombic'
loop_
_space_group_symop_operation_xyz
x,y,z
-x,-y,z
1/2-x,y,1/2+z
1/2+x,-y,1/2+z
x,1/2+y,1/2+z
-x,1/2-y,1/2+z
1/2-x,1/2+y,z
1/2+x,1/2-y,z
loop_
_atom_site_type_symbol
_atom_site_label
_atom_site_fract_x
_atom_site_fract_y
_atom_site_fract_z
Si Si1 0.788791 0.384936 0.609230
Si Si2 0.563255 0.137916 0.936828
Si Si3 0.332962 0.429954 0.192041
Si Si4 0.460487 0.642202 0.696130
Si Si5 0.656586 0.682725 0.592240
Si Si6 0.717859 0.442619 0.801815
Si Si7 0.968768 0.324453 0.779203
Si Si8 0.193511 0.058804 0.454277
O O1 0.840636 0.472728 0.651287
O O2 0.664720 0.349763 0.649240
O O3 0.865928 0.291230 0.606568
O O4 0.758189 0.427661 0.530728
O O5 0.546357 0.179567 0.855581
O O6 0.419904 0.130276 0.958278
O O7 0.623819 0.036378 0.934122
O O8 0.641010 0.178548 0.004560
O O9 0.276396 0.356912 0.133856
O O10 0.253773 0.459755 0.264162
O O11 0.454417 0.391019 0.227027
O O12 0.556759 0.617133 0.632747
O O13 0.407324 0.581863 0.761695
O O14 0.524265 0.726523 0.739099
O O15 0.710322 0.435123 0.888577
O O16 0.833321 0.369686 0.788853
#
# Coordination Sequence:
#
# PCOD9366066 Si02
#       8
#     8   8   8   8   8   8   8   8
#     4  11  23  38  63  97 126 167 213 269 318 387
#     4  10  21  38  67  88 124 176 211 267 319 395
#     4  11  22  39  64  94 127 168 208 267 324 380
#     4  11  23  40  62  96 127 169 212 264 323 383
#     4  12  24  41  63  98 131 170 216 263 332 390
#     4  10  23  38  64  93 123 170 212 273 317 389
#     4  11  22  42  63  96 128 164 222 264 323 386
#     4  10  19  39  61  95 125 163 223 260 327 385
#
# _framework density 22.159547
#
# number of rings (size 3 to 8) (size 9 to 14) (size 15 to 20)
#    0.000    1.250    5.000    1.875    1.750    2.000 
#    0.000    0.000    0.000    0.000    9.750    0.000 
#    0.000    0.000    0.000    0.000    0.000    0.000 
#
# Total GULP energy -178161.584682 kJ/mol
# GULP energy per Si atom -5567.549521 kJ/mol
# Density = 2.210911 g / cm^3
# Si number density = 22.159547 Si / 1000 Ang^3
#
#
#
# Elastic Constant Matrix: (Units=GPa)
#
#
# Indices 1 2 3 4 5 6 
#
# 1 37.8711 -3.2699 25.8026 0.0000 0.0000 0.0000
# 2 -3.2699 48.9498 9.6605 0.0000 0.0000 0.0000
# 3 25.8026 9.6605 173.2284 0.0000 0.0000 0.0000
# 4 0.0000 0.0000 0.0000 17.1767 0.0000 0.0000
# 5 0.0000 0.0000 0.0000 0.0000 31.5224 0.0000
# 6 0.0000 0.0000 0.0000 0.0000 0.0000 19.8296
#
#
#
# Elastic Compliance Matrix: (Units=1/GPa)
#
#
# Indices 1 2 3 4 5 6 
#
# 1 0.029789 0.002897 -0.004599 0.000000 0.000000 0.000000
# 2 0.002897 0.020938 -0.001599 0.000000 0.000000 0.000000
# 3 -0.004599 -0.001599 0.006547 0.000000 0.000000 0.000000
# 4 0.000000 0.000000 0.000000 0.058218 0.000000 0.000000
# 5 0.000000 0.000000 0.000000 0.000000 0.031723 0.000000
# 6 0.000000 0.000000 0.000000 0.000000 0.000000 0.050430
#
#
# Mechanical properties :
#
#
# Convention : Reuss Voigt Hill
#
# Bulk Modulus (GPa) = 19.73437 36.04840 27.89139
# Shear Modulus (GPa) = 22.61041 28.89616 25.75328
#
# Velocity S-wave (km/s) = 3.19775 3.61502 3.41277
# Velocity P-wave (km/s) = 4.74964 5.80753 5.30502
#
# Compressibility (1/GPa) = 0.05067301
#
# Stress axis : x y z
#
# Youngs Moduli (GPa) = 33.56979 47.75941 152.74434
#
# Poissons Ratio (x) = -0.13838 0.70242
# Poissons Ratio (y) = -0.09727 0.24428
# Poissons Ratio (z) = 0.15438 0.07638
#
# Static dielectric constant tensor:
#      x y z
#    x 1.854600 0.000000 0.000000 
#    y 0.000000 1.878500 0.000000 
#    z 0.000000 0.000000 1.869840 
# 
# From -- ./inp_files/10136.got.cif
#   From: 2010.05.17/outbox.cif.g08.bks.cpg/sg41_6_cif.got.tgz:10136.got - 2010.06.03 18:54:24.
