data_PCOD9366408
_publ_section_title
;
Structure prediction by ZEFSAII (Michael W. Deem and Ramdas Pophale) SiO2 
 PCOD9366408
Probable space group: A B A 2
;
_chemical_formula_sum "Si O2"
_cell_formula_units_Z 60
_cell_length_a 20.059840
_cell_length_b 5.167801
_cell_length_c 28.471813
_cell_angle_alpha 90.000000
_cell_angle_beta 90.000000
_cell_angle_gamma 90.000000
_cell_volume 2951.537932
_symmetry_space_group_name_H-M "A B A 2"
_symmetry_group_IT_number 41
_symmetry_cell_setting 'orthorhombic'
loop_
_space_group_symop_operation_xyz
x,y,z
-x,-y,z
1/2-x,y,1/2+z
1/2+x,-y,1/2+z
x,1/2+y,1/2+z
-x,1/2-y,1/2+z
1/2-x,1/2+y,z
1/2+x,1/2-y,z
loop_
_atom_site_type_symbol
_atom_site_label
_atom_site_fract_x
_atom_site_fract_y
_atom_site_fract_z
Si Si1 0.207747 0.116647 0.667650
Si Si2 0.904587 0.637059 0.895151
Si Si3 0.703153 0.415584 0.558037
Si Si4 0.139522 0.099863 0.762806
Si Si5 0.576127 0.883834 0.991405
Si Si6 0.500000 0.500000 0.938226
Si Si7 0.711178 0.977900 0.355804
Si Si8 0.073892 0.103838 0.297758
O O1 0.232977 0.409224 0.674028
O O2 0.186211 0.084974 0.613728
O O3 0.156490 0.054965 0.708895
O O4 0.854170 0.863646 0.880306
O O5 0.907014 0.439634 0.852111
O O6 0.975241 0.774558 0.904580
O O7 0.891206 0.516901 0.945680
O O8 0.747936 0.671025 0.548225
O O9 0.632697 0.399640 0.530781
O O10 0.084574 0.894311 0.780528
O O11 0.198941 0.039718 0.799657
O O12 0.119955 0.397438 0.770545
O O13 0.500000 0.000000 0.001076
O O14 0.558301 0.597599 0.972505
O O15 0.767063 0.765296 0.368480
O O16 0.000000 0.000000 0.291263
#
# Coordination Sequence:
#
# PCOD9366408 Si02
#       8
#     8   8   8   8   8   4   8   8
#     4  10  20  40  67  91 118 160 205 254 313 386
#     4  10  24  37  61  83 123 168 214 250 306 378
#     4  10  24  43  70  99 128 162 214 270 332 388
#     4  11  22  37  61  85 122 163 204 253 311 369
#     4  10  23  42  64  95 126 173 216 269 323 394
#     4  10  22  40  64  84 120 174 226 252 310 392
#     4  11  23  36  54  87 123 156 199 253 309 359
#     4  11  23  37  58  87 121 164 209 258 300 363
#
# _framework density 20.328382999999999
#
# number of rings (size 3 to 8) (size 9 to 14) (size 15 to 20)
#    0.000    1.600    0.000    4.800   13.067    1.067 
#    0.000    1.333    1.467    0.000    0.000    0.000 
#    0.000    0.000    0.000    0.000    0.000    0.000 
#
# Total GULP energy -167466.951587 kJ/mol
# GULP energy per Si atom -5582.231720 kJ/mol
# Density = 2.028212 g / cm^3
# Si number density = 20.328383 Si / 1000 Ang^3
#
#
#
# Elastic Constant Matrix: (Units=GPa)
#
#
# Indices 1 2 3 4 5 6 
#
# 1 88.7663 19.9677 67.8902 0.0000 0.0000 0.0000
# 2 19.9677 81.7781 32.2748 0.0000 0.0000 0.0000
# 3 67.8902 32.2748 118.1842 0.0000 0.0000 0.0000
# 4 0.0000 0.0000 0.0000 19.6564 0.0000 0.0000
# 5 0.0000 0.0000 0.0000 0.0000 25.5873 0.0000
# 6 0.0000 0.0000 0.0000 0.0000 0.0000 37.7696
#
#
#
# Elastic Compliance Matrix: (Units=1/GPa)
#
#
# Indices 1 2 3 4 5 6 
#
# 1 0.020105 -0.000393 -0.011442 0.000000 0.000000 0.000000
# 2 -0.000393 0.013713 -0.003519 0.000000 0.000000 0.000000
# 3 -0.011442 -0.003519 0.015995 0.000000 0.000000 0.000000
# 4 0.000000 0.000000 0.000000 0.050874 0.000000 0.000000
# 5 0.000000 0.000000 0.000000 0.000000 0.039082 0.000000
# 6 0.000000 0.000000 0.000000 0.000000 0.000000 0.026476
#
#
# Mechanical properties :
#
#
# Convention : Reuss Voigt Hill
#
# Bulk Modulus (GPa) = 52.34256 58.77710 55.55983
# Shear Modulus (GPa) = 24.59162 27.84240 26.21701
#
# Velocity S-wave (km/s) = 3.48187 3.70487 3.59510
# Velocity P-wave (km/s) = 6.47835 6.87590 6.68008
#
# Compressibility (1/GPa) = 0.01910491
#
# Stress axis : x y z
#
# Youngs Moduli (GPa) = 49.73919 72.92324 62.51969
#
# Poissons Ratio (x) = 0.02869 0.71533
# Poissons Ratio (y) = 0.01957 0.22000
# Poissons Ratio (z) = 0.56910 0.25661
#
# Static dielectric constant tensor:
#      x y z
#    x 1.792520 0.000000 0.000000 
#    y 0.000000 1.767870 0.000000 
#    z 0.000000 0.000000 1.695640 
# 
# From -- ./inp_files/12321.got.cif
#   From: 2010.05.17/outbox.cif.g08.bks.cpg/sg41_7_cif.got.tgz:12321.got - 2010.06.03 18:54:24.
