data_PCOD9366336
_publ_section_title
;
Structure prediction by ZEFSAII (Michael W. Deem and Ramdas Pophale) SiO2 
 PCOD9366336
Probable space group: A B A 2
;
_chemical_formula_sum "Si O2"
_cell_formula_units_Z 40
_cell_length_a 5.320953
_cell_length_b 25.784783
_cell_length_c 13.373650
_cell_angle_alpha 90.000000
_cell_angle_beta 90.000000
_cell_angle_gamma 90.000000
_cell_volume 1834.859677
_symmetry_space_group_name_H-M "A B A 2"
_symmetry_group_IT_number 41
_symmetry_cell_setting 'orthorhombic'
loop_
_space_group_symop_operation_xyz
x,y,z
-x,-y,z
1/2-x,y,1/2+z
1/2+x,-y,1/2+z
x,1/2+y,1/2+z
-x,1/2-y,1/2+z
1/2-x,1/2+y,z
1/2+x,1/2-y,z
loop_
_atom_site_type_symbol
_atom_site_label
_atom_site_fract_x
_atom_site_fract_y
_atom_site_fract_z
Si Si1 0.688431 0.918769 0.251660
Si Si2 0.806473 0.216183 0.277880
Si Si3 0.749512 0.012895 0.903205
Si Si4 0.690853 0.117908 0.643685
Si Si5 0.367414 0.373087 0.908578
O O1 0.728333 0.973811 0.308581
O O2 0.939936 0.904869 0.193763
O O3 0.625225 0.878938 0.344331
O O4 0.446944 0.912093 0.177458
O O5 0.574694 0.256028 0.276624
O O6 0.770347 0.178287 0.372959
O O7 0.778957 0.176118 0.186323
O O8 0.500000 0.000000 0.961490
O O9 0.739386 0.072709 0.874987
O O10 0.000000 0.000000 0.963777
O O11 0.635249 0.121579 0.526545
#
# Coordination Sequence:
#
# PCOD9366336 Si02
#       5
#     8   8   8   8   8
#     4  10  22  43  64  96 137 169 209 268 324 390
#     4  11  24  43  65  92 127 166 213 273 328 375
#     4  10  20  39  63  90 131 170 205 258 317 382
#     4  11  24  43  70  97 130 174 222 267 325 395
#     4  10  24  44  68  97 131 173 221 270 324 390
#
# _framework density 21.800032999999999
#
# number of rings (size 3 to 8) (size 9 to 14) (size 15 to 20)
#    0.000    1.600    0.000    6.000    0.000   11.200 
#    0.000   34.000    0.000    0.000    0.000    0.000 
#    0.000    0.000    0.000    0.000    0.000    0.000 
#
# Total GULP energy -111580.951689 kJ/mol
# GULP energy per Si atom -5579.047584 kJ/mol
# Density = 2.175042 g / cm^3
# Si number density = 21.800033 Si / 1000 Ang^3
#
#
#
# Elastic Constant Matrix: (Units=GPa)
#
#
# Indices 1 2 3 4 5 6 
#
# 1 169.9017 31.9831 41.7703 0.0000 0.0000 0.0000
# 2 31.9831 100.5462 28.5560 0.0000 0.0000 0.0000
# 3 41.7703 28.5560 174.3131 0.0000 0.0000 0.0000
# 4 0.0000 0.0000 0.0000 9.2601 0.0000 0.0000
# 5 0.0000 0.0000 0.0000 0.0000 11.6570 0.0000
# 6 0.0000 0.0000 0.0000 0.0000 0.0000 29.5183
#
#
#
# Elastic Compliance Matrix: (Units=1/GPa)
#
#
# Indices 1 2 3 4 5 6 
#
# 1 0.006523 -0.001711 -0.001283 0.000000 0.000000 0.000000
# 2 -0.001711 0.010880 -0.001372 0.000000 0.000000 0.000000
# 3 -0.001283 -0.001372 0.006269 0.000000 0.000000 0.000000
# 4 0.000000 0.000000 0.000000 0.107990 0.000000 0.000000
# 5 0.000000 0.000000 0.000000 0.000000 0.085785 0.000000
# 6 0.000000 0.000000 0.000000 0.000000 0.000000 0.033877
#
#
# Mechanical properties :
#
#
# Convention : Reuss Voigt Hill
#
# Bulk Modulus (GPa) = 66.93444 72.15330 69.54387
# Shear Modulus (GPa) = 18.86537 32.91720 25.89128
#
# Velocity S-wave (km/s) = 2.94493 3.89004 3.45000
# Velocity P-wave (km/s) = 6.50646 7.30385 6.91665
#
# Compressibility (1/GPa) = 0.01493999
#
# Stress axis : x y z
#
# Youngs Moduli (GPa) = 153.29962 91.91533 159.51387
#
# Poissons Ratio (x) = 0.15723 0.20464
# Poissons Ratio (y) = 0.26224 0.21891
# Poissons Ratio (z) = 0.19667 0.12614
#
# Static dielectric constant tensor:
#      x y z
#    x 1.936450 0.000000 0.000000 
#    y 0.000000 1.808170 0.000000 
#    z 0.000000 0.000000 1.803510 
# 
# From -- ./inp_files/4147.got.cif
#   From: 2010.05.17/outbox.cif.g08.bks.cpg/sg41_3_cif.got.tgz:4147.got - 2010.06.03 18:54:24.
