data_PCOD9366848
_publ_section_title
;
Structure prediction by ZEFSAII (Michael W. Deem and Ramdas Pophale) SiO2 
 PCOD9366848
Probable space group: A B A 2
;
_chemical_formula_sum "Si O2"
_cell_formula_units_Z 44
_cell_length_a 9.286181
_cell_length_b 16.341134
_cell_length_c 13.837746
_cell_angle_alpha 90.000000
_cell_angle_beta 90.000000
_cell_angle_gamma 90.000000
_cell_volume 2099.832679
_symmetry_space_group_name_H-M "A B A 2"
_symmetry_group_IT_number 41
_symmetry_cell_setting 'orthorhombic'
loop_
_space_group_symop_operation_xyz
x,y,z
-x,-y,z
1/2-x,y,1/2+z
1/2+x,-y,1/2+z
x,1/2+y,1/2+z
-x,1/2-y,1/2+z
1/2-x,1/2+y,z
1/2+x,1/2-y,z
loop_
_atom_site_type_symbol
_atom_site_label
_atom_site_fract_x
_atom_site_fract_y
_atom_site_fract_z
Si Si1 0.000000 0.000000 0.890161
Si Si2 0.193127 0.384038 0.523642
Si Si3 0.803917 0.884822 0.760434
Si Si4 0.289740 0.702818 0.448489
Si Si5 0.467389 0.834945 0.099155
Si Si6 0.092245 0.154066 0.114840
O O1 0.109001 0.947613 0.956957
O O2 0.891783 0.950272 0.821405
O O3 0.222987 0.300282 0.463764
O O4 0.345919 0.401829 0.573991
O O5 0.075330 0.362392 0.604604
O O6 0.738310 0.822034 0.838976
O O7 0.668853 0.904312 0.691102
O O8 0.919253 0.853026 0.682543
O O9 0.440902 0.681329 0.500925
O O10 0.171678 0.651916 0.510974
O O11 0.390333 0.751217 0.134809
#
# Coordination Sequence:
#
# PCOD9366848 Si02
#       6
#     4   8   8   8   8   8
#     4  12  26  40  64  98 138 184 206 270 338 386
#     4  10  21  42  64  92 136 172 212 268 336 379
#     4  11  23  40  65  95 133 170 222 264 327 391
#     4   9  19  41  67  90 123 171 217 272 313 387
#     4   9  21  40  68  98 123 169 223 270 323 380
#     4   9  19  39  66  92 125 167 218 277 314 378
#
# _framework density 20.954049999999999
#
# number of rings (size 3 to 8) (size 9 to 14) (size 15 to 20)
#    0.000    2.182    1.818    1.091    2.545    1.455 
#    3.273    0.000    0.000    0.000    0.000    0.000 
#    0.000    0.000    0.000    0.000    0.000    0.000 
#
# Total GULP energy -122569.547584 kJ/mol
# GULP energy per Si atom -5571.343072 kJ/mol
# Density = 2.090636 g / cm^3
# Si number density = 20.954050 Si / 1000 Ang^3
#
#
#
# Elastic Constant Matrix: (Units=GPa)
#
#
# Indices 1 2 3 4 5 6 
#
# 1 127.7922 27.0642 51.8013 0.0000 0.0000 0.0000
# 2 27.0642 45.8764 35.1096 0.0000 0.0000 0.0000
# 3 51.8013 35.1096 115.9659 0.0000 0.0000 0.0000
# 4 0.0000 0.0000 0.0000 7.2059 0.0000 0.0000
# 5 0.0000 0.0000 0.0000 0.0000 31.1305 0.0000
# 6 0.0000 0.0000 0.0000 0.0000 0.0000 29.8245
#
#
#
# Elastic Compliance Matrix: (Units=1/GPa)
#
#
# Indices 1 2 3 4 5 6 
#
# 1 0.009903 -0.003198 -0.003456 0.000000 0.000000 0.000000
# 2 -0.003198 0.029404 -0.007474 0.000000 0.000000 0.000000
# 3 -0.003456 -0.007474 0.012430 0.000000 0.000000 0.000000
# 4 0.000000 0.000000 0.000000 0.138774 0.000000 0.000000
# 5 0.000000 0.000000 0.000000 0.000000 0.032123 0.000000
# 6 0.000000 0.000000 0.000000 0.000000 0.000000 0.033529
#
#
# Mechanical properties :
#
#
# Convention : Reuss Voigt Hill
#
# Bulk Modulus (GPa) = 42.58504 57.50943 50.04724
# Shear Modulus (GPa) = 17.10894 25.34282 21.22588
#
# Velocity S-wave (km/s) = 2.86054 3.48148 3.18618
# Velocity P-wave (km/s) = 5.59262 6.60803 6.12142
#
# Compressibility (1/GPa) = 0.02348242
#
# Stress axis : x y z
#
# Youngs Moduli (GPa) = 100.97800 34.00905 80.45322
#
# Poissons Ratio (x) = 0.10875 0.27801
# Poissons Ratio (y) = 0.32289 0.60130
# Poissons Ratio (z) = 0.34894 0.25418
#
# Static dielectric constant tensor:
#      x y z
#    x 1.789690 0.000000 0.000000 
#    y 0.000000 1.801530 0.000000 
#    z 0.000000 0.000000 1.771080 
# 
# From -- ./inp_files/7275.got.cif
#   From: 2010.05.17/outbox.cif.g08.bks.cpg/sg41_4_cif.got.tgz:7275.got - 2010.06.03 18:54:24.
