data_PCOD9366827
_publ_section_title
;
Structure prediction by ZEFSAII (Michael W. Deem and Ramdas Pophale) SiO2 
 PCOD9366827
Probable space group: A B A 2
;
_chemical_formula_sum "Si O2"
_cell_formula_units_Z 52
_cell_length_a 14.135237
_cell_length_b 18.660711
_cell_length_c 7.968474
_cell_angle_alpha 90.000000
_cell_angle_beta 90.000000
_cell_angle_gamma 90.000000
_cell_volume 2101.872855
_symmetry_space_group_name_H-M "A B A 2"
_symmetry_group_IT_number 41
_symmetry_cell_setting 'orthorhombic'
loop_
_space_group_symop_operation_xyz
x,y,z
-x,-y,z
1/2-x,y,1/2+z
1/2+x,-y,1/2+z
x,1/2+y,1/2+z
-x,1/2-y,1/2+z
1/2-x,1/2+y,z
1/2+x,1/2-y,z
loop_
_atom_site_type_symbol
_atom_site_label
_atom_site_fract_x
_atom_site_fract_y
_atom_site_fract_z
Si Si1 0.207694 0.670328 0.433390
Si Si2 0.803763 0.937498 0.651803
Si Si3 0.500000 0.000000 0.156078
Si Si4 0.404696 0.303960 0.381129
Si Si5 0.609848 0.619497 0.850806
Si Si6 0.209449 0.915661 0.203536
Si Si7 0.089405 0.735948 0.006324
O O1 0.170550 0.630851 0.267142
O O2 0.221305 0.600199 0.545841
O O3 0.146574 0.739313 0.481038
O O4 0.313810 0.703142 0.433685
O O5 0.901822 0.969208 0.574957
O O6 0.750216 0.005077 0.734954
O O7 0.461301 0.937295 0.276095
O O8 0.355938 0.380208 0.345291
O O9 0.503748 0.317017 0.470528
O O10 0.405437 0.269362 0.192407
O O11 0.658553 0.591226 0.024153
O O12 0.564380 0.694698 0.894056
O O13 0.695225 0.631398 0.719600
#
# Coordination Sequence:
#
# PCOD9366827 Si02
#       7
#     8   8   4   8   8   8   8
#     4  12  24  46  68 104 141 187 231 297 367 418
#     4  11  24  44  71  96 140 186 232 299 357 431
#     4  10  22  44  68 100 134 188 242 290 370 428
#     4  11  25  45  70 102 139 183 234 294 353 427
#     4  10  21  41  69  93 134 175 227 287 345 421
#     4  10  22  43  67  97 127 185 226 279 356 417
#     4  11  25  42  70 105 135 183 234 293 358 422
#
# _framework density 24.739840000000001
#
# number of rings (size 3 to 8) (size 9 to 14) (size 15 to 20)
#    0.000    1.231    3.077    2.769    2.154    1.231 
#    8.308    0.000    0.000    0.000    0.000    0.000 
#    0.000    0.000    0.000    0.000    0.000    0.000 
#
# Total GULP energy -145115.174177 kJ/mol
# GULP energy per Si atom -5581.352853 kJ/mol
# Density = 2.468353 g / cm^3
# Si number density = 24.739840 Si / 1000 Ang^3
#
#
#
# Elastic Constant Matrix: (Units=GPa)
#
#
# Indices 1 2 3 4 5 6 
#
# 1 112.2700 22.0243 -6.1481 0.0000 0.0000 0.0000
# 2 22.0243 126.9712 15.7192 0.0000 0.0000 0.0000
# 3 -6.1481 15.7192 36.3285 0.0000 0.0000 0.0000
# 4 0.0000 0.0000 0.0000 44.1960 0.0000 0.0000
# 5 0.0000 0.0000 0.0000 0.0000 26.2253 0.0000
# 6 0.0000 0.0000 0.0000 0.0000 0.0000 50.1013
#
#
#
# Elastic Compliance Matrix: (Units=1/GPa)
#
#
# Indices 1 2 3 4 5 6 
#
# 1 0.009420 -0.001935 0.002431 0.000000 0.000000 0.000000
# 2 -0.001935 0.008719 -0.004100 0.000000 0.000000 0.000000
# 3 0.002431 -0.004100 0.029712 0.000000 0.000000 0.000000
# 4 0.000000 0.000000 0.000000 0.022626 0.000000 0.000000
# 5 0.000000 0.000000 0.000000 0.000000 0.038131 0.000000
# 6 0.000000 0.000000 0.000000 0.000000 0.000000 0.019960
#
#
# Mechanical properties :
#
#
# Convention : Reuss Voigt Hill
#
# Bulk Modulus (GPa) = 24.60409 37.64007 31.12208
# Shear Modulus (GPa) = 33.48434 40.36947 36.92691
#
# Velocity S-wave (km/s) = 3.68293 4.04389 3.86762
# Velocity P-wave (km/s) = 5.29641 6.08699 5.70541
#
# Compressibility (1/GPa) = 0.04064365
#
# Stress axis : x y z
#
# Youngs Moduli (GPa) = 106.15893 114.69146 33.65623
#
# Poissons Ratio (x) = 0.22192 -0.08183
# Poissons Ratio (y) = 0.20541 0.13800
# Poissons Ratio (z) = -0.25812 0.47025
#
# Static dielectric constant tensor:
#      x y z
#    x 1.961840 0.000000 0.000000 
#    y 0.000000 1.931080 0.000000 
#    z 0.000000 0.000000 2.144850 
# 
# From -- ./inp_files/2630.got.cif
#   From: 2010.05.17/outbox.cif.g08.bks.cpg/sg41_2_cif.got.tgz:2630.got - 2010.06.03 18:54:24.
