data_PCOD9366363
_publ_section_title
;
Structure prediction by ZEFSAII (Michael W. Deem and Ramdas Pophale) SiO2 
 PCOD9366363
Probable space group: A B A 2
;
_chemical_formula_sum "Si O2"
_cell_formula_units_Z 48
_cell_length_a 8.858794
_cell_length_b 22.788307
_cell_length_c 9.189581
_cell_angle_alpha 90.000000
_cell_angle_beta 90.000000
_cell_angle_gamma 90.000000
_cell_volume 1855.164284
_symmetry_space_group_name_H-M "A B A 2"
_symmetry_group_IT_number 41
_symmetry_cell_setting 'orthorhombic'
loop_
_space_group_symop_operation_xyz
x,y,z
-x,-y,z
1/2-x,y,1/2+z
1/2+x,-y,1/2+z
x,1/2+y,1/2+z
-x,1/2-y,1/2+z
1/2-x,1/2+y,z
1/2+x,1/2-y,z
loop_
_atom_site_type_symbol
_atom_site_label
_atom_site_fract_x
_atom_site_fract_y
_atom_site_fract_z
Si Si1 0.631506 0.083382 0.410910
Si Si2 0.391660 0.058101 0.188731
Si Si3 0.336914 0.026084 0.900008
Si Si4 0.182572 0.729436 0.313176
Si Si5 0.039238 0.195437 0.506167
Si Si6 0.254487 0.849911 0.150563
O O1 0.472593 0.085558 0.328410
O O2 0.711518 0.022165 0.455865
O O3 0.735456 0.102325 0.275441
O O4 0.626698 0.129698 0.540440
O O5 0.500000 0.000000 0.172025
O O6 0.227200 0.047555 0.249898
O O7 0.361651 0.075376 0.023252
O O8 0.500000 0.000000 0.873789
O O9 0.108755 0.700849 0.169448
O O10 0.320708 0.695839 0.391996
O O11 0.242201 0.789550 0.236792
O O12 0.061372 0.750437 0.435652
O O13 0.900803 0.151211 0.545198
#
# Coordination Sequence:
#
# PCOD9366363 Si02
#       6
#     8   8   8   8   8   8
#     4  11  23  41  65  99 137 174 223 286 351 413
#     4   9  20  38  62  91 122 169 217 256 321 416
#     4  10  20  39  67  90 127 171 219 266 323 413
#     4  12  23  43  72  96 135 187 246 289 348 443
#     4  12  23  43  69  99 133 185 244 292 351 437
#     4  12  23  40  68  99 137 178 230 294 362 402
#
# _framework density 25.873719999999999
#
# number of rings (size 3 to 8) (size 9 to 14) (size 15 to 20)
#    0.000    1.000    5.000    3.000    0.000    3.333 
#    0.000    3.333    0.000    0.000    0.000    0.000 
#    0.000    0.000    0.000    0.000    0.000    0.000 
#
# Total GULP energy -133805.573842 kJ/mol
# GULP energy per Si atom -5575.232243 kJ/mol
# Density = 2.581483 g / cm^3
# Si number density = 25.873720 Si / 1000 Ang^3
#
#
#
# Elastic Constant Matrix: (Units=GPa)
#
#
# Indices 1 2 3 4 5 6 
#
# 1 88.5303 6.2946 38.1347 0.0000 0.0000 0.0000
# 2 6.2946 51.8874 27.5027 0.0000 0.0000 0.0000
# 3 38.1347 27.5027 126.8526 0.0000 0.0000 0.0000
# 4 0.0000 0.0000 0.0000 29.8698 0.0000 0.0000
# 5 0.0000 0.0000 0.0000 0.0000 51.8715 0.0000
# 6 0.0000 0.0000 0.0000 0.0000 0.0000 31.9345
#
#
#
# Elastic Compliance Matrix: (Units=1/GPa)
#
#
# Indices 1 2 3 4 5 6 
#
# 1 0.012990 0.000558 -0.004026 0.000000 0.000000 0.000000
# 2 0.000558 0.021799 -0.004894 0.000000 0.000000 0.000000
# 3 -0.004026 -0.004894 0.010155 0.000000 0.000000 0.000000
# 4 0.000000 0.000000 0.000000 0.033479 0.000000 0.000000
# 5 0.000000 0.000000 0.000000 0.000000 0.019278 0.000000
# 6 0.000000 0.000000 0.000000 0.000000 0.000000 0.031314
#
#
# Mechanical properties :
#
#
# Convention : Reuss Voigt Hill
#
# Bulk Modulus (GPa) = 35.43631 45.68160 40.55895
# Shear Modulus (GPa) = 32.22788 35.75770 33.99279
#
# Velocity S-wave (km/s) = 3.53311 3.72157 3.62856
# Velocity P-wave (km/s) = 5.51085 6.01338 5.76759
#
# Compressibility (1/GPa) = 0.02821965
#
# Stress axis : x y z
#
# Youngs Moduli (GPa) = 76.98137 45.87405 98.47788
#
# Poissons Ratio (x) = -0.02561 0.39649
# Poissons Ratio (y) = -0.04297 0.48195
# Poissons Ratio (z) = 0.30994 0.22451
#
# Static dielectric constant tensor:
#      x y z
#    x 2.120820 0.000000 0.000000 
#    y 0.000000 2.310370 0.000000 
#    z 0.000000 0.000000 1.953550 
# 
# From -- ./inp_files/1799.got.cif
#   From: 2010.05.17/outbox.cif.g08.bks.cpg/sg41_1_cif.got.tgz:1799.got - 2010.06.03 18:54:24.
