data_PCOD9366153
_publ_section_title
;
Structure prediction by ZEFSAII (Michael W. Deem and Ramdas Pophale) SiO2 
 PCOD9366153
Probable space group: A B A 2
;
_chemical_formula_sum "Si O2"
_cell_formula_units_Z 56
_cell_length_a 22.139667
_cell_length_b 19.891468
_cell_length_c 5.561653
_cell_angle_alpha 90.000000
_cell_angle_beta 90.000000
_cell_angle_gamma 90.000000
_cell_volume 2449.299021
_symmetry_space_group_name_H-M "A B A 2"
_symmetry_group_IT_number 41
_symmetry_cell_setting 'orthorhombic'
loop_
_space_group_symop_operation_xyz
x,y,z
-x,-y,z
1/2-x,y,1/2+z
1/2+x,-y,1/2+z
x,1/2+y,1/2+z
-x,1/2-y,1/2+z
1/2-x,1/2+y,z
1/2+x,1/2-y,z
loop_
_atom_site_type_symbol
_atom_site_label
_atom_site_fract_x
_atom_site_fract_y
_atom_site_fract_z
Si Si1 0.957640 0.565830 0.419070
Si Si2 0.896798 0.754154 0.026013
Si Si3 0.103939 0.124347 0.362002
Si Si4 0.278436 0.660117 0.602133
Si Si5 0.267971 0.812444 0.067354
Si Si6 0.515510 0.814149 0.193814
Si Si7 0.930175 0.524281 0.907386
O O1 0.923528 0.570908 0.672807
O O2 0.000000 0.500000 0.435999
O O3 0.002978 0.627797 0.386827
O O4 0.919351 0.556641 0.171192
O O5 0.879878 0.826487 0.141948
O O6 0.837790 0.708637 0.035877
O O7 0.951977 0.722562 0.174779
O O8 0.930942 0.765254 0.774697
O O9 0.152356 0.141677 0.567786
O O10 0.038451 0.147271 0.458831
O O11 0.104633 0.044392 0.341395
O O12 0.246665 0.635137 0.356410
O O13 0.268461 0.741012 0.593174
O O14 0.255844 0.846683 0.324243
O O15 0.000000 0.500000 0.926460
#
# Coordination Sequence:
#
# PCOD9366153 Si02
#       7
#     8   8   8   8   8   8   8
#     4  10  20  38  55  75 120 154 201 227 276 365
#     4  12  24  35  58  89 130 162 187 255 318 371
#     4  12  22  37  59  85 124 156 195 255 306 373
#     4  10  20  35  56  81 115 149 196 245 301 362
#     4  10  20  39  57  78 117 156 210 239 287 374
#     4  12  24  36  55  92 130 164 195 246 316 384
#     4  10  20  36  57  80 108 157 195 235 283 351
#
# _framework density 22.863683999999999
#
# number of rings (size 3 to 8) (size 9 to 14) (size 15 to 20)
#    0.000    1.143    7.143    3.429    0.000    0.000 
#    0.000    0.000    0.000    0.000    0.000    6.000 
#    0.000    0.000    0.000    0.000    0.000    0.000 
#
# Total GULP energy -156294.087946 kJ/mol
# GULP energy per Si atom -5581.931712 kJ/mol
# Density = 2.281164 g / cm^3
# Si number density = 22.863684 Si / 1000 Ang^3
#
#
#
# Elastic Constant Matrix: (Units=GPa)
#
#
# Indices 1 2 3 4 5 6 
#
# 1 78.8245 7.3106 27.2147 0.0000 0.0000 0.0000
# 2 7.3106 20.5187 4.4310 0.0000 0.0000 0.0000
# 3 27.2147 4.4310 170.4246 0.0000 0.0000 0.0000
# 4 0.0000 0.0000 0.0000 7.8959 0.0000 0.0000
# 5 0.0000 0.0000 0.0000 0.0000 25.2691 0.0000
# 6 0.0000 0.0000 0.0000 0.0000 0.0000 10.5047
#
#
#
# Elastic Compliance Matrix: (Units=1/GPa)
#
#
# Indices 1 2 3 4 5 6 
#
# 1 0.013823 -0.004474 -0.002091 0.000000 0.000000 0.000000
# 2 -0.004474 0.050459 -0.000598 0.000000 0.000000 0.000000
# 3 -0.002091 -0.000598 0.006217 0.000000 0.000000 0.000000
# 4 0.000000 0.000000 0.000000 0.126648 0.000000 0.000000
# 5 0.000000 0.000000 0.000000 0.000000 0.039574 0.000000
# 6 0.000000 0.000000 0.000000 0.000000 0.000000 0.095196
#
#
# Mechanical properties :
#
#
# Convention : Reuss Voigt Hill
#
# Bulk Modulus (GPa) = 17.80150 38.63115 28.21632
# Shear Modulus (GPa) = 13.69987 24.12136 18.91062
#
# Velocity S-wave (km/s) = 2.45051 3.25161 2.87906
# Velocity P-wave (km/s) = 3.97611 5.57048 4.83941
#
# Compressibility (1/GPa) = 0.05617506
#
# Stress axis : x y z
#
# Youngs Moduli (GPa) = 72.34178 19.81808 160.84522
#
# Poissons Ratio (x) = 0.08866 0.33634
# Poissons Ratio (y) = 0.32362 0.09611
# Poissons Ratio (z) = 0.15127 0.01184
#
# Static dielectric constant tensor:
#      x y z
#    x 1.875120 0.000000 0.000000 
#    y 0.000000 1.858630 0.000000 
#    z 0.000000 0.000000 2.014070 
# 
# From -- ./inp_files/986.got.cif
#   From: 2010.05.17/outbox.cif.g08.bks.cpg/sg41_1_cif.got.tgz:986.got - 2010.06.03 18:54:24.
