data_PCOD9366221
_publ_section_title
;
Structure prediction by ZEFSAII (Michael W. Deem and Ramdas Pophale) SiO2 
 PCOD9366221
Probable space group: A B A 2
;
_chemical_formula_sum "Si O2"
_cell_formula_units_Z 60
_cell_length_a 13.144215
_cell_length_b 27.692180
_cell_length_c 8.022472
_cell_angle_alpha 90.000000
_cell_angle_beta 90.000000
_cell_angle_gamma 90.000000
_cell_volume 2920.115369
_symmetry_space_group_name_H-M "A B A 2"
_symmetry_group_IT_number 41
_symmetry_cell_setting 'orthorhombic'
loop_
_space_group_symop_operation_xyz
x,y,z
-x,-y,z
1/2-x,y,1/2+z
1/2+x,-y,1/2+z
x,1/2+y,1/2+z
-x,1/2-y,1/2+z
1/2-x,1/2+y,z
1/2+x,1/2-y,z
loop_
_atom_site_type_symbol
_atom_site_label
_atom_site_fract_x
_atom_site_fract_y
_atom_site_fract_z
Si Si1 0.502337 0.153069 0.740870
Si Si2 0.684081 0.798155 0.897201
Si Si3 0.603439 0.195458 0.437878
Si Si4 0.000000 0.000000 0.373786
Si Si5 0.186921 0.905619 0.812183
Si Si6 0.394341 0.672136 0.759701
Si Si7 0.994007 0.595373 0.071821
Si Si8 0.612748 0.064913 0.642449
O O1 0.390974 0.175876 0.764426
O O2 0.572741 0.189481 0.633705
O O3 0.517110 0.102263 0.641245
O O4 0.525979 0.136172 0.930152
O O5 0.670769 0.740682 0.882900
O O6 0.796731 0.819160 0.875303
O O7 0.640956 0.807077 0.082164
O O8 0.661558 0.146984 0.384763
O O9 0.495036 0.195832 0.340476
O O10 0.913580 0.018195 0.247900
O O11 0.029870 0.046342 0.483691
O O12 0.300130 0.908525 0.747660
O O13 0.112261 0.915140 0.659301
O O14 0.156405 0.942096 0.959360
O O15 0.430269 0.617985 0.708994
#
# Coordination Sequence:
#
# PCOD9366221 Si02
#       8
#     8   8   8   4   8   8   8   8
#     4   9  19  36  55  80 118 151 189 245 294 335
#     4  11  21  35  56  82 115 158 203 242 290 354
#     4  10  21  36  58  84 112 156 202 243 288 346
#     4  10  20  38  62  88 116 152 194 238 294 362
#     4  10  21  38  61  88 119 154 191 239 295 343
#     4  10  22  38  55  81 119 155 196 248 297 342
#     4   9  20  40  62  85 117 155 192 244 301 351
#     4  10  20  37  60  88 120 151 190 243 298 350
#
# _framework density 20.547134
#
# number of rings (size 3 to 8) (size 9 to 14) (size 15 to 20)
#    0.000    2.133    0.000    3.200    0.000    3.733 
#    0.000   10.667    0.000    3.200    0.000    0.000 
#    0.000    0.000    0.000    0.000    0.000    0.000 
#
# Total GULP energy -167205.800576 kJ/mol
# GULP energy per Si atom -5573.526686 kJ/mol
# Density = 2.050037 g / cm^3
# Si number density = 20.547134 Si / 1000 Ang^3
#
#
#
# Elastic Constant Matrix: (Units=GPa)
#
#
# Indices 1 2 3 4 5 6 
#
# 1 89.4112 42.0947 33.1015 0.0000 0.0000 0.0000
# 2 42.0947 77.2680 29.7303 0.0000 0.0000 0.0000
# 3 33.1015 29.7303 96.6775 0.0000 0.0000 0.0000
# 4 0.0000 0.0000 0.0000 26.7323 0.0000 0.0000
# 5 0.0000 0.0000 0.0000 0.0000 31.9865 0.0000
# 6 0.0000 0.0000 0.0000 0.0000 0.0000 15.3610
#
#
#
# Elastic Compliance Matrix: (Units=1/GPa)
#
#
# Indices 1 2 3 4 5 6 
#
# 1 0.015841 -0.007421 -0.003142 0.000000 0.000000 0.000000
# 2 -0.007421 0.018156 -0.003042 0.000000 0.000000 0.000000
# 3 -0.003142 -0.003042 0.012355 0.000000 0.000000 0.000000
# 4 0.000000 0.000000 0.000000 0.037408 0.000000 0.000000
# 5 0.000000 0.000000 0.000000 0.000000 0.031263 0.000000
# 6 0.000000 0.000000 0.000000 0.000000 0.000000 0.065100
#
#
# Mechanical properties :
#
#
# Convention : Reuss Voigt Hill
#
# Bulk Modulus (GPa) = 52.24309 52.57885 52.41097
# Shear Modulus (GPa) = 23.39576 25.37797 24.38686
#
# Velocity S-wave (km/s) = 3.37803 3.51823 3.44884
# Velocity P-wave (km/s) = 6.37934 6.49221 6.43602
#
# Compressibility (1/GPa) = 0.01914129
#
# Stress axis : x y z
#
# Youngs Moduli (GPa) = 63.12589 55.07953 80.93952
#
# Poissons Ratio (x) = 0.40876 0.25429
# Poissons Ratio (y) = 0.46848 0.24623
# Poissons Ratio (z) = 0.19832 0.16756
#
# Static dielectric constant tensor:
#      x y z
#    x 1.751560 0.000000 0.000000 
#    y 0.000000 1.754620 0.000000 
#    z 0.000000 0.000000 1.794370 
# 
# From -- ./inp_files/2163.got.cif
#   From: 2010.05.17/outbox.cif.g08.bks.cpg/sg41_2_cif.got.tgz:2163.got - 2010.06.03 18:54:24.
