data_PCOD9366508
_publ_section_title
;
Structure prediction by ZEFSAII (Michael W. Deem and Ramdas Pophale) SiO2 
 PCOD9366508
Probable space group: A B A 2
;
_chemical_formula_sum "Si O2"
_cell_formula_units_Z 52
_cell_length_a 15.014685
_cell_length_b 17.041964
_cell_length_c 9.205359
_cell_angle_alpha 90.000000
_cell_angle_beta 90.000000
_cell_angle_gamma 90.000000
_cell_volume 2355.464695
_symmetry_space_group_name_H-M "A B A 2"
_symmetry_group_IT_number 41
_symmetry_cell_setting 'orthorhombic'
loop_
_space_group_symop_operation_xyz
x,y,z
-x,-y,z
1/2-x,y,1/2+z
1/2+x,-y,1/2+z
x,1/2+y,1/2+z
-x,1/2-y,1/2+z
1/2-x,1/2+y,z
1/2+x,1/2-y,z
loop_
_atom_site_type_symbol
_atom_site_label
_atom_site_fract_x
_atom_site_fract_y
_atom_site_fract_z
Si Si1 0.522058 0.828757 0.040270
Si Si2 0.186532 0.997039 0.416416
Si Si3 0.640597 0.279970 0.034943
Si Si4 0.500000 0.500000 0.410237
Si Si5 0.809479 0.816939 0.361297
Si Si6 0.142281 0.961570 0.753511
Si Si7 0.036712 0.119418 0.831654
O O1 0.557605 0.818886 0.203535
O O2 0.423499 0.794880 0.030255
O O3 0.517268 0.921792 0.004396
O O4 0.595884 0.794127 0.933215
O O5 0.205141 0.090643 0.401688
O O6 0.168242 0.970536 0.582953
O O7 0.267794 0.952369 0.344193
O O8 0.092909 0.985389 0.331111
O O9 0.724355 0.274181 0.928050
O O10 0.571476 0.347231 0.982092
O O11 0.904801 0.456898 0.297931
O O12 0.820727 0.801943 0.191475
O O13 0.066871 0.899941 0.803559
#
# Coordination Sequence:
#
# PCOD9366508 Si02
#       7
#     8   8   8   4   8   8   8
#     4  11  22  46  71  91 136 184 228 288 343 412
#     4  11  20  41  67  95 131 182 220 277 338 403
#     4  12  25  42  68 102 136 183 227 288 344 424
#     4  10  20  44  68  92 126 180 228 272 350 400
#     4  11  23  42  68 101 135 181 233 272 348 421
#     4  11  21  39  68  95 133 175 226 283 332 405
#     4  11  21  43  65  97 131 181 229 279 342 406
#
# _framework density 22.076322000000001
#
# number of rings (size 3 to 8) (size 9 to 14) (size 15 to 20)
#    0.000    0.923    6.154    2.769    0.000    0.000 
#   11.077    0.000    0.000    0.000    0.000    0.000 
#    0.000    0.000    0.000    0.000    0.000    0.000 
#
# Total GULP energy -145177.404701 kJ/mol
# GULP energy per Si atom -5583.746335 kJ/mol
# Density = 2.202608 g / cm^3
# Si number density = 22.076322 Si / 1000 Ang^3
#
#
#
# Elastic Constant Matrix: (Units=GPa)
#
#
# Indices 1 2 3 4 5 6 
#
# 1 189.2094 31.5596 84.2570 0.0000 0.0000 0.0000
# 2 31.5596 49.6409 34.2939 0.0000 0.0000 0.0000
# 3 84.2570 34.2939 127.0026 0.0000 0.0000 0.0000
# 4 0.0000 0.0000 0.0000 15.1429 0.0000 0.0000
# 5 0.0000 0.0000 0.0000 0.0000 9.3748 0.0000
# 6 0.0000 0.0000 0.0000 0.0000 0.0000 30.0954
#
#
#
# Elastic Compliance Matrix: (Units=1/GPa)
#
#
# Indices 1 2 3 4 5 6 
#
# 1 0.007611 -0.001660 -0.004601 0.000000 0.000000 0.000000
# 2 -0.001660 0.025126 -0.005683 0.000000 0.000000 0.000000
# 3 -0.004601 -0.005683 0.012461 0.000000 0.000000 0.000000
# 4 0.000000 0.000000 0.000000 0.066038 0.000000 0.000000
# 5 0.000000 0.000000 0.000000 0.000000 0.106669 0.000000
# 6 0.000000 0.000000 0.000000 0.000000 0.000000 0.033228
#
#
# Mechanical properties :
#
#
# Convention : Reuss Voigt Hill
#
# Bulk Modulus (GPa) = 46.92804 74.00822 60.46813
# Shear Modulus (GPa) = 17.72262 25.30544 21.51403
#
# Velocity S-wave (km/s) = 2.83643 3.38933 3.12513
# Velocity P-wave (km/s) = 5.65954 6.99381 6.36175
#
# Compressibility (1/GPa) = 0.02130922
#
# Stress axis : x y z
#
# Youngs Moduli (GPa) = 131.38968 39.79873 80.25062
#
# Poissons Ratio (x) = 0.06607 0.36924
# Poissons Ratio (y) = 0.21813 0.45609
# Poissons Ratio (z) = 0.60453 0.22619
#
# Static dielectric constant tensor:
#      x y z
#    x 1.837760 0.000000 0.000000 
#    y 0.000000 1.857150 0.000000 
#    z 0.000000 0.000000 1.814520 
# 
# From -- ./inp_files/5680.got.cif
#   From: 2010.05.17/outbox.cif.g08.bks.cpg/sg41_3_cif.got.tgz:5680.got - 2010.06.03 18:54:24.
