data_PCOD9366975
_publ_section_title
;
Structure prediction by ZEFSAII (Michael W. Deem and Ramdas Pophale) SiO2 
 PCOD9366975
Probable space group: A B A 2
;
_chemical_formula_sum "Si O2"
_cell_formula_units_Z 56
_cell_length_a 14.434352
_cell_length_b 8.621321
_cell_length_c 20.568002
_cell_angle_alpha 90.000000
_cell_angle_beta 90.000000
_cell_angle_gamma 90.000000
_cell_volume 2559.547617
_symmetry_space_group_name_H-M "A B A 2"
_symmetry_group_IT_number 41
_symmetry_cell_setting 'orthorhombic'
loop_
_space_group_symop_operation_xyz
x,y,z
-x,-y,z
1/2-x,y,1/2+z
1/2+x,-y,1/2+z
x,1/2+y,1/2+z
-x,1/2-y,1/2+z
1/2-x,1/2+y,z
1/2+x,1/2-y,z
loop_
_atom_site_type_symbol
_atom_site_label
_atom_site_fract_x
_atom_site_fract_y
_atom_site_fract_z
Si Si1 0.003445 0.816179 0.046080
Si Si2 0.824389 0.657648 0.068288
Si Si3 0.218647 0.163106 0.199552
Si Si4 0.794082 0.602935 0.783456
Si Si5 0.669785 0.138888 0.462992
Si Si6 0.917216 0.898185 0.654340
Si Si7 0.301399 0.144245 0.377206
O O1 0.037185 0.741818 0.114287
O O2 0.905404 0.740742 0.028563
O O3 0.077786 0.783489 0.990311
O O4 0.000000 0.000000 0.053263
O O5 0.804203 0.774088 0.128295
O O6 0.869347 0.506186 0.099808
O O7 0.735920 0.613034 0.025891
O O8 0.208584 0.301615 0.251165
O O9 0.331042 0.144279 0.199246
O O10 0.170240 0.004668 0.223169
O O11 0.847925 0.725992 0.829684
O O12 0.754979 0.471486 0.830617
O O13 0.728560 0.255587 0.418788
O O14 0.648705 0.979016 0.424692
O O15 0.000000 0.000000 0.684758
#
# Coordination Sequence:
#
# PCOD9366975 Si02
#       7
#     8   8   8   8   8   8   8
#     4  11  24  36  57  97 131 160 208 248 319 405
#     4  11  23  36  62  99 124 167 198 257 342 390
#     4  11  19  36  64  90 128 159 212 261 325 387
#     4   9  20  35  60  94 114 163 225 258 302 386
#     4  11  20  38  64  87 128 160 206 268 319 377
#     4  10  22  38  53  88 137 162 198 252 317 392
#     4   9  20  37  60  89 116 164 226 257 308 370
#
# _framework density 21.878865000000001
#
# number of rings (size 3 to 8) (size 9 to 14) (size 15 to 20)
#    0.000    1.714    2.857    1.714    4.000    0.000 
#    0.000    0.000    0.000   24.857    7.429    0.000 
#    0.000    0.000    0.000    0.000    0.000    0.000 
#
# Total GULP energy -156099.300919 kJ/mol
# GULP energy per Si atom -5574.975033 kJ/mol
# Density = 2.182907 g / cm^3
# Si number density = 21.878865 Si / 1000 Ang^3
#
#
#
# Elastic Constant Matrix: (Units=GPa)
#
#
# Indices 1 2 3 4 5 6 
#
# 1 47.7797 -8.4582 11.5546 0.0000 0.0000 0.0000
# 2 -8.4582 89.1362 19.7052 0.0000 0.0000 0.0000
# 3 11.5546 19.7052 75.2082 0.0000 0.0000 0.0000
# 4 0.0000 0.0000 0.0000 50.1429 0.0000 0.0000
# 5 0.0000 0.0000 0.0000 0.0000 10.6755 0.0000
# 6 0.0000 0.0000 0.0000 0.0000 0.0000 24.7474
#
#
#
# Elastic Compliance Matrix: (Units=1/GPa)
#
#
# Indices 1 2 3 4 5 6 
#
# 1 0.022506 0.003078 -0.004264 0.000000 0.000000 0.000000
# 2 0.003078 0.012330 -0.003703 0.000000 0.000000 0.000000
# 3 -0.004264 -0.003703 0.014922 0.000000 0.000000 0.000000
# 4 0.000000 0.000000 0.000000 0.019943 0.000000 0.000000
# 5 0.000000 0.000000 0.000000 0.000000 0.093673 0.000000
# 6 0.000000 0.000000 0.000000 0.000000 0.000000 0.040408
#
#
# Mechanical properties :
#
#
# Convention : Reuss Voigt Hill
#
# Bulk Modulus (GPa) = 25.01350 28.63634 26.82492
# Shear Modulus (GPa) = 22.03753 29.73464 25.88608
#
# Velocity S-wave (km/s) = 3.17717 3.69054 3.44343
# Velocity P-wave (km/s) = 4.99167 5.59259 5.30065
#
# Compressibility (1/GPa) = 0.03997841
#
# Stress axis : x y z
#
# Youngs Moduli (GPa) = 44.43350 81.10569 67.01571
#
# Poissons Ratio (x) = -0.24966 0.28577
# Poissons Ratio (y) = -0.13678 0.24819
# Poissons Ratio (z) = 0.18947 0.30037
#
# Static dielectric constant tensor:
#      x y z
#    x 1.864850 0.000000 0.000000 
#    y 0.000000 1.879990 0.000000 
#    z 0.000000 0.000000 1.902940 
# 
# From -- ./inp_files/11545.got.cif
#   From: 2010.05.17/outbox.cif.g08.bks.cpg/sg41_6_cif.got.tgz:11545.got - 2010.06.03 18:54:24.
