data_PCOD9366148
_publ_section_title
;
Structure prediction by ZEFSAII (Michael W. Deem and Ramdas Pophale) SiO2 
 PCOD9366148
Probable space group: A B A 2
;
_chemical_formula_sum "Si O2"
_cell_formula_units_Z 56
_cell_length_a 14.915080
_cell_length_b 22.066883
_cell_length_c 8.380204
_cell_angle_alpha 90.000000
_cell_angle_beta 90.000000
_cell_angle_gamma 90.000000
_cell_volume 2758.170888
_symmetry_space_group_name_H-M "A B A 2"
_symmetry_group_IT_number 41
_symmetry_cell_setting 'orthorhombic'
loop_
_space_group_symop_operation_xyz
x,y,z
-x,-y,z
1/2-x,y,1/2+z
1/2+x,-y,1/2+z
x,1/2+y,1/2+z
-x,1/2-y,1/2+z
1/2-x,1/2+y,z
1/2+x,1/2-y,z
loop_
_atom_site_type_symbol
_atom_site_label
_atom_site_fract_x
_atom_site_fract_y
_atom_site_fract_z
Si Si1 0.750000 0.884958 0.108650
Si Si2 0.387934 0.214962 0.031991
Si Si3 0.411269 0.834269 0.041870
Si Si4 0.625855 0.948940 0.358649
Si Si5 0.080510 0.410110 0.358651
Si Si6 0.112067 0.714961 0.685313
Si Si7 0.911270 0.665730 0.675434
O O1 0.683418 0.837983 0.024737
O O2 0.684881 0.926353 0.211431
O O3 0.816581 0.837984 0.192568
O O4 0.815119 0.926351 0.005865
O O5 0.483823 0.183832 0.063703
O O6 0.364991 0.268420 0.154367
O O7 0.396451 0.245356 0.858651
O O8 0.389937 0.877451 0.192582
O O9 0.364990 0.768419 0.062937
O O10 0.398162 0.856676 0.858652
O O11 0.528381 0.916824 0.358649
O O12 0.614001 0.020792 0.358651
O O13 0.110062 0.377452 0.524721
O O14 0.016178 0.683831 0.653601
#
# Coordination Sequence:
#
# PCOD9366148 Si02
#       7
#     8   8   8   8   8   8   8
#     4  12  22  40  62  98 124 170 216 278 326 390
#     4  10  20  34  61  96 132 157 207 268 337 395
#     4  10  21  37  65  97 127 169 209 265 333 409
#     4  11  26  41  68  91 134 173 233 270 331 378
#     4  11  22  47  64  96 130 183 222 278 314 407
#     4  10  20  34  61  96 132 157 207 268 337 395
#     4  10  21  37  65  97 127 169 209 265 333 409
#
# _framework density 20.303311999999998
#
# number of rings (size 3 to 8) (size 9 to 14) (size 15 to 20)
#    0.000    1.429    5.714    0.000    4.000    0.000 
#    2.571    2.857    0.000    0.000    0.000    0.000 
#    0.000    0.000    0.000    0.000    0.000    0.000 
#
# Total GULP energy -156063.527701 kJ/mol
# GULP energy per Si atom -5573.697418 kJ/mol
# Density = 2.025710 g / cm^3
# Si number density = 20.303312 Si / 1000 Ang^3
#
#
#
# Elastic Constant Matrix: (Units=GPa)
#
#
# Indices 1 2 3 4 5 6 
#
# 1 53.5650 29.6362 16.4915 0.0000 0.0000 0.0000
# 2 29.6362 104.4410 77.8261 0.0000 0.0000 0.0000
# 3 16.4915 77.8261 155.2525 0.0000 0.0000 0.0000
# 4 0.0000 0.0000 0.0000 18.9193 0.0000 0.0000
# 5 0.0000 0.0000 0.0000 0.0000 124.8293 0.0000
# 6 0.0000 0.0000 0.0000 0.0000 0.0000 30.5765
#
#
#
# Elastic Compliance Matrix: (Units=1/GPa)
#
#
# Indices 1 2 3 4 5 6 
#
# 1 0.022305 -0.007285 0.001283 0.000000 0.000000 0.000000
# 2 -0.007285 0.017663 -0.008081 0.000000 0.000000 0.000000
# 3 0.001283 -0.008081 0.010356 0.000000 0.000000 0.000000
# 4 0.000000 0.000000 0.000000 0.052856 0.000000 0.000000
# 5 0.000000 0.000000 0.000000 0.000000 0.008011 0.000000
# 6 0.000000 0.000000 0.000000 0.000000 0.000000 0.032705
#
#
# Mechanical properties :
#
#
# Convention : Reuss Voigt Hill
#
# Bulk Modulus (GPa) = 45.13110 62.35177 53.74144
# Shear Modulus (GPa) = 27.86340 47.48534 37.67437
#
# Velocity S-wave (km/s) = 3.70855 4.84136 4.31231
# Velocity P-wave (km/s) = 6.37295 7.87582 7.16390
#
# Compressibility (1/GPa) = 0.02215767
#
# Stress axis : x y z
#
# Youngs Moduli (GPa) = 44.83391 56.61450 96.56641
#
# Poissons Ratio (x) = 0.41243 -0.12385
# Poissons Ratio (y) = 0.32661 0.78031
# Poissons Ratio (z) = -0.05750 0.45748
#
# Static dielectric constant tensor:
#      x y z
#    x 1.727220 0.000000 0.000000 
#    y 0.000000 1.681600 0.000000 
#    z 0.000000 0.000000 2.029300 
# 
# From -- ./inp_files/2705.got.cif
#   From: 2010.05.17/outbox.cif.g08.bks.cpg/sg41_2_cif.got.tgz:2705.got - 2010.06.03 18:54:24.
