data_PCOD9366628
_publ_section_title
;
Structure prediction by ZEFSAII (Michael W. Deem and Ramdas Pophale) SiO2 
 PCOD9366628
Probable space group: A B A 2
;
_chemical_formula_sum "Si O2"
_cell_formula_units_Z 64
_cell_length_a 9.264211
_cell_length_b 16.009928
_cell_length_c 19.955173
_cell_angle_alpha 90.000000
_cell_angle_beta 90.000000
_cell_angle_gamma 90.000000
_cell_volume 2959.738310
_symmetry_space_group_name_H-M "A B A 2"
_symmetry_group_IT_number 41
_symmetry_cell_setting 'orthorhombic'
loop_
_space_group_symop_operation_xyz
x,y,z
-x,-y,z
1/2-x,y,1/2+z
1/2+x,-y,1/2+z
x,1/2+y,1/2+z
-x,1/2-y,1/2+z
1/2-x,1/2+y,z
1/2+x,1/2-y,z
loop_
_atom_site_type_symbol
_atom_site_label
_atom_site_fract_x
_atom_site_fract_y
_atom_site_fract_z
Si Si1 0.782829 0.092577 0.101590
Si Si2 0.656970 0.918598 0.094402
Si Si3 0.293275 0.836709 0.738434
Si Si4 0.057289 0.120160 0.021211
Si Si5 0.232766 0.819902 0.384391
Si Si6 0.574527 0.355983 0.878826
Si Si7 0.077375 0.316645 0.019666
Si Si8 0.947673 0.342746 0.232365
O O1 0.837838 0.103918 0.177135
O O2 0.696690 0.174712 0.078157
O O3 0.912758 0.080665 0.050202
O O4 0.668735 0.018316 0.094104
O O5 0.818357 0.891536 0.075343
O O6 0.557918 0.872393 0.040100
O O7 0.605629 0.890987 0.167446
O O8 0.319858 0.862910 0.815501
O O9 0.371069 0.747589 0.730820
O O10 0.119869 0.829379 0.731337
O O11 0.033812 0.220236 0.014050
O O12 0.101281 0.091292 0.946233
O O13 0.182914 0.723051 0.380273
O O14 0.405858 0.828113 0.385825
O O15 0.154711 0.848630 0.452111
O O16 0.587734 0.388900 0.802910
#
# Coordination Sequence:
#
# PCOD9366628 Si02
#       8
#     8   8   8   8   8   8   8   8
#     4  12  24  41  60  90 133 164 203 260 319 380
#     4  12  26  39  60  93 131 171 205 258 321 377
#     4  10  21  38  63  92 122 162 209 260 308 373
#     4  11  23  41  64  93 120 166 215 263 312 375
#     4   9  19  35  60  94 121 154 206 268 310 359
#     4   9  19  36  61  91 122 154 207 268 308 360
#     4  11  21  39  66  92 122 162 217 258 312 373
#     4  10  21  39  62  93 121 163 214 255 312 373
#
# _framework density 21.623532999999998
#
# number of rings (size 3 to 8) (size 9 to 14) (size 15 to 20)
#    0.000    1.500    2.500    3.000    7.000    0.000 
#    0.000    1.250    2.750    1.500    0.000    0.000 
#    0.000    0.000    0.000    0.000    0.000    0.000 
#
# Total GULP energy -178667.436672 kJ/mol
# GULP energy per Si atom -5583.357396 kJ/mol
# Density = 2.157432 g / cm^3
# Si number density = 21.623533 Si / 1000 Ang^3
#
#
#
# Elastic Constant Matrix: (Units=GPa)
#
#
# Indices 1 2 3 4 5 6 
#
# 1 63.0915 2.6777 27.8121 0.0000 0.0000 0.0000
# 2 2.6777 41.2398 19.4304 0.0000 0.0000 0.0000
# 3 27.8121 19.4304 159.3454 0.0000 0.0000 0.0000
# 4 0.0000 0.0000 0.0000 -1.4806 0.0000 0.0000
# 5 0.0000 0.0000 0.0000 0.0000 37.0624 0.0000
# 6 0.0000 0.0000 0.0000 0.0000 0.0000 27.5937
#
#
#
# Elastic Compliance Matrix: (Units=1/GPa)
#
#
# Indices 1 2 3 4 5 6 
#
# 1 0.017175 0.000315 -0.003036 0.000000 0.000000 0.000000
# 2 0.000315 0.025732 -0.003193 0.000000 0.000000 0.000000
# 3 -0.003036 -0.003193 0.007195 0.000000 0.000000 0.000000
# 4 0.000000 0.000000 0.000000 -0.675399 0.000000 0.000000
# 5 0.000000 0.000000 0.000000 0.000000 0.026981 0.000000
# 6 0.000000 0.000000 0.000000 0.000000 0.000000 0.036240
#
#
# Mechanical properties :
#
#
# Convention : Reuss Voigt Hill
#
# Bulk Modulus (GPa) = 26.12675 40.39080 33.25878
# Shear Modulus (GPa) = -9.30251 26.88555 8.79152
#
# Velocity S-wave (km/s) = -2.07638 3.52994 2.01855
# Velocity P-wave (km/s) = 2.52196 5.94421 4.56584
#
# Compressibility (1/GPa) = 0.03827494
#
# Stress axis : x y z
#
# Youngs Moduli (GPa) = 58.22405 38.86173 138.98662
#
# Poissons Ratio (x) = -0.01225 0.42199
# Poissons Ratio (y) = -0.01836 0.44376
# Poissons Ratio (z) = 0.17678 0.12408
#
# Static dielectric constant tensor:
#      x y z
#    x 1.770310 0.000000 0.000000 
#    y 0.000000 1.800790 0.000000 
#    z 0.000000 0.000000 1.848980 
# 
# From -- ./inp_files/11284.got.cif
#   From: 2010.05.17/outbox.cif.g08.bks.cpg/sg41_6_cif.got.tgz:11284.got - 2010.06.03 18:54:24.
