data_PCOD9366694
_publ_section_title
;
Structure prediction by ZEFSAII (Michael W. Deem and Ramdas Pophale) SiO2 
 PCOD9366694
Probable space group: A B A 2
;
_chemical_formula_sum "Si O2"
_cell_formula_units_Z 60
_cell_length_a 5.158605
_cell_length_b 28.423683
_cell_length_c 20.366637
_cell_angle_alpha 90.000000
_cell_angle_beta 90.000000
_cell_angle_gamma 90.000000
_cell_volume 2986.289784
_symmetry_space_group_name_H-M "A B A 2"
_symmetry_group_IT_number 41
_symmetry_cell_setting 'orthorhombic'
loop_
_space_group_symop_operation_xyz
x,y,z
-x,-y,z
1/2-x,y,1/2+z
1/2+x,-y,1/2+z
x,1/2+y,1/2+z
-x,1/2-y,1/2+z
1/2-x,1/2+y,z
1/2+x,1/2-y,z
loop_
_atom_site_type_symbol
_atom_site_label
_atom_site_fract_x
_atom_site_fract_y
_atom_site_fract_z
Si Si1 0.543758 0.099145 0.105860
Si Si2 0.514976 0.944737 0.401276
Si Si3 0.000000 0.500000 0.158289
Si Si4 0.013321 0.219860 0.407905
Si Si5 0.003683 0.723039 0.749872
Si Si6 0.984716 0.111264 0.452065
Si Si7 0.327036 0.040697 0.774823
Si Si8 0.034519 0.123795 0.187896
O O1 0.587567 0.043386 0.114836
O O2 0.267010 0.110623 0.138540
O O3 0.767026 0.122976 0.148699
O O4 0.557632 0.111369 0.030014
O O5 0.251623 0.916608 0.416837
O O6 0.597954 0.945287 0.324299
O O7 0.751521 0.917075 0.435919
O O8 0.500000 0.000000 0.421339
O O9 0.781592 0.482862 0.208751
O O10 0.267536 0.248787 0.429092
O O11 0.013021 0.218478 0.328591
O O12 0.003321 0.165720 0.430225
O O13 0.214570 0.762070 0.730913
O O14 0.083060 0.674430 0.717940
O O15 0.473460 0.086455 0.748073
O O16 0.500000 0.000000 0.808067
#
# Coordination Sequence:
#
# PCOD9366694 Si02
#       8
#     8   8   4   8   8   8   8   8
#     4  11  25  42  64  92 131 179 223 250 316 387
#     4  12  26  40  65  98 133 172 216 273 331 384
#     4  10  22  38  62  90 128 174 210 266 304 384
#     4  10  22  42  70  97 125 168 217 273 339 388
#     4  10  21  39  64  97 128 159 208 272 335 382
#     4  12  26  46  64  96 137 176 223 271 317 395
#     4  11  21  40  63  94 128 163 215 269 329 378
#     4  11  23  41  66  94 126 171 215 269 320 387
#
# _framework density 20.091819999999998
#
# number of rings (size 3 to 8) (size 9 to 14) (size 15 to 20)
#    0.000    1.067    2.000    4.400    1.867    4.267 
#    0.000    4.000    0.000    0.000    0.000    0.000 
#    0.000    0.000    0.000    0.000    0.000    0.000 
#
# Total GULP energy -167704.237764 kJ/mol
# GULP energy per Si atom -5590.141259 kJ/mol
# Density = 2.004609 g / cm^3
# Si number density = 20.091820 Si / 1000 Ang^3
#
#
#
# Elastic Constant Matrix: (Units=GPa)
#
#
# Indices 1 2 3 4 5 6 
#
# 1 80.9211 29.6415 17.5791 0.0000 0.0000 0.0000
# 2 29.6415 150.3025 40.0991 0.0000 0.0000 0.0000
# 3 17.5791 40.0991 48.0001 0.0000 0.0000 0.0000
# 4 0.0000 0.0000 0.0000 12.8076 0.0000 0.0000
# 5 0.0000 0.0000 0.0000 0.0000 17.5449 0.0000
# 6 0.0000 0.0000 0.0000 0.0000 0.0000 32.9954
#
#
#
# Elastic Compliance Matrix: (Units=1/GPa)
#
#
# Indices 1 2 3 4 5 6 
#
# 1 0.013780 -0.001764 -0.003573 0.000000 0.000000 0.000000
# 2 -0.001764 0.008787 -0.006695 0.000000 0.000000 0.000000
# 3 -0.003573 -0.006695 0.027734 0.000000 0.000000 0.000000
# 4 0.000000 0.000000 0.000000 0.078079 0.000000 0.000000
# 5 0.000000 0.000000 0.000000 0.000000 0.056997 0.000000
# 6 0.000000 0.000000 0.000000 0.000000 0.000000 0.030307
#
#
# Mechanical properties :
#
#
# Convention : Reuss Voigt Hill
#
# Bulk Modulus (GPa) = 38.11234 50.42925 44.27079
# Shear Modulus (GPa) = 20.12119 25.46318 22.79219
#
# Velocity S-wave (km/s) = 3.16802 3.56383 3.37174
# Velocity P-wave (km/s) = 5.69140 6.48756 6.10248
#
# Compressibility (1/GPa) = 0.02623822
#
# Stress axis : x y z
#
# Youngs Moduli (GPa) = 72.56807 113.80076 36.05627
#
# Poissons Ratio (x) = 0.20080 0.12882
# Poissons Ratio (y) = 0.12804 0.24138
# Poissons Ratio (z) = 0.25926 0.76186
#
# Static dielectric constant tensor:
#      x y z
#    x 1.804500 0.000000 0.000000 
#    y 0.000000 1.699150 0.000000 
#    z 0.000000 0.000000 1.679660 
# 
# From -- ./inp_files/9465.got.cif
#   From: 2010.05.17/outbox.cif.g08.bks.cpg/sg41_5_cif.got.tgz:9465.got - 2010.06.03 18:54:24.
