data_PCOD9366322
_publ_section_title
;
Structure prediction by ZEFSAII (Michael W. Deem and Ramdas Pophale) SiO2 
 PCOD9366322
Probable space group: A B A 2
;
_chemical_formula_sum "Si O2"
_cell_formula_units_Z 48
_cell_length_a 15.296539
_cell_length_b 17.201204
_cell_length_c 8.574007
_cell_angle_alpha 90.000000
_cell_angle_beta 90.000000
_cell_angle_gamma 90.000000
_cell_volume 2255.983186
_symmetry_space_group_name_H-M "A B A 2"
_symmetry_group_IT_number 41
_symmetry_cell_setting 'orthorhombic'
loop_
_space_group_symop_operation_xyz
x,y,z
-x,-y,z
1/2-x,y,1/2+z
1/2+x,-y,1/2+z
x,1/2+y,1/2+z
-x,1/2-y,1/2+z
1/2-x,1/2+y,z
1/2+x,1/2-y,z
loop_
_atom_site_type_symbol
_atom_site_label
_atom_site_fract_x
_atom_site_fract_y
_atom_site_fract_z
Si Si1 0.591547 0.204186 0.050340
Si Si2 0.599474 0.567576 0.764448
Si Si3 0.594598 0.962850 0.003713
Si Si4 0.560536 0.809449 0.826307
Si Si5 0.450898 0.920370 0.608220
Si Si6 0.700316 0.596010 0.336768
O O1 0.560496 0.124712 0.133966
O O2 0.614266 0.256512 0.202753
O O3 0.509903 0.231833 0.942397
O O4 0.667590 0.172012 0.934648
O O5 0.600110 0.481376 0.689231
O O6 0.698664 0.592967 0.798305
O O7 0.550383 0.581844 0.923675
O O8 0.605533 0.876669 0.932281
O O9 0.500000 0.000000 0.958431
O O10 0.668455 0.020087 0.932723
O O11 0.501941 0.855915 0.702898
O O12 0.353473 0.912853 0.676101
O O13 0.500000 0.000000 0.644557
#
# Coordination Sequence:
#
# PCOD9366322 Si02
#       6
#     8   8   8   8   8   8
#     4  10  22  37  61  86 126 165 205 261 324 387
#     4  11  22  35  62  92 121 169 208 254 333 390
#     4  11  18  40  62  89 124 159 214 277 307 369
#     4  11  20  39  60  90 125 157 213 276 311 368
#     4  11  19  33  61  90 115 154 215 262 309 369
#     4  10  20  39  59  88 126 166 205 262 327 389
#
# _framework density 21.276755000000001
#
# number of rings (size 3 to 8) (size 9 to 14) (size 15 to 20)
#    0.000    1.333    6.667    3.500    0.000    0.000 
#    0.000    1.667    0.000    0.000    0.000    0.000 
#    0.000    0.000    0.000    0.000    0.000    0.000 
#
# Total GULP energy -133626.763358 kJ/mol
# GULP energy per Si atom -5567.781807 kJ/mol
# Density = 2.122833 g / cm^3
# Si number density = 21.276755 Si / 1000 Ang^3
#
#
#
# Elastic Constant Matrix: (Units=GPa)
#
#
# Indices 1 2 3 4 5 6 
#
# 1 52.7121 15.8568 13.1506 0.0000 0.0000 0.0000
# 2 15.8568 77.8228 33.8240 0.0000 0.0000 0.0000
# 3 13.1506 33.8240 153.8469 0.0000 0.0000 0.0000
# 4 0.0000 0.0000 0.0000 58.9865 0.0000 0.0000
# 5 0.0000 0.0000 0.0000 0.0000 25.9057 0.0000
# 6 0.0000 0.0000 0.0000 0.0000 0.0000 14.0337
#
#
#
# Elastic Compliance Matrix: (Units=1/GPa)
#
#
# Indices 1 2 3 4 5 6 
#
# 1 0.020325 -0.003744 -0.000914 0.000000 0.000000 0.000000
# 2 -0.003744 0.014897 -0.002955 0.000000 0.000000 0.000000
# 3 -0.000914 -0.002955 0.007228 0.000000 0.000000 0.000000
# 4 0.000000 0.000000 0.000000 0.016953 0.000000 0.000000
# 5 0.000000 0.000000 0.000000 0.000000 0.038602 0.000000
# 6 0.000000 0.000000 0.000000 0.000000 0.000000 0.071257
#
#
# Mechanical properties :
#
#
# Convention : Reuss Voigt Hill
#
# Bulk Modulus (GPa) = 36.73323 45.56048 41.14686
# Shear Modulus (GPa) = 25.83136 34.55521 30.19328
#
# Velocity S-wave (km/s) = 3.48812 4.03436 3.77115
# Velocity P-wave (km/s) = 5.79005 6.56972 6.19217
#
# Compressibility (1/GPa) = 0.02722331
#
# Stress axis : x y z
#
# Youngs Moduli (GPa) = 49.19965 67.12777 138.35436
#
# Poissons Ratio (x) = 0.25133 0.12649
# Poissons Ratio (y) = 0.18421 0.40886
# Poissons Ratio (z) = 0.04498 0.19837
#
# Static dielectric constant tensor:
#      x y z
#    x 1.766660 0.000000 0.000000 
#    y 0.000000 1.826780 0.000000 
#    z 0.000000 0.000000 1.847900 
# 
# From -- ./inp_files/2597.got.cif
#   From: 2010.05.17/outbox.cif.g08.bks.cpg/sg41_2_cif.got.tgz:2597.got - 2010.06.03 18:54:24.
