data_PCOD9366782
_publ_section_title
;
Structure prediction by ZEFSAII (Michael W. Deem and Ramdas Pophale) SiO2 
 PCOD9366782
Probable space group: A B A 2
;
_chemical_formula_sum "Si O2"
_cell_formula_units_Z 64
_cell_length_a 11.240623
_cell_length_b 18.101912
_cell_length_c 15.455292
_cell_angle_alpha 90.000000
_cell_angle_beta 90.000000
_cell_angle_gamma 90.000000
_cell_volume 3144.792870
_symmetry_space_group_name_H-M "A B A 2"
_symmetry_group_IT_number 41
_symmetry_cell_setting 'orthorhombic'
loop_
_space_group_symop_operation_xyz
x,y,z
-x,-y,z
1/2-x,y,1/2+z
1/2+x,-y,1/2+z
x,1/2+y,1/2+z
-x,1/2-y,1/2+z
1/2-x,1/2+y,z
1/2+x,1/2-y,z
loop_
_atom_site_type_symbol
_atom_site_label
_atom_site_fract_x
_atom_site_fract_y
_atom_site_fract_z
Si Si1 0.405604 0.434149 0.321690
Si Si2 0.196320 0.453903 0.194348
Si Si3 0.049428 0.271542 0.050597
Si Si4 0.204059 0.195730 0.516328
Si Si5 0.892786 0.059528 0.511527
Si Si6 0.112598 0.674170 0.834158
Si Si7 0.952793 0.187575 0.744129
Si Si8 0.806132 0.876585 0.704810
O O1 0.500000 0.500000 0.313588
O O2 0.319169 0.436263 0.241209
O O3 0.342836 0.446267 0.414671
O O4 0.481024 0.359444 0.329815
O O5 0.197606 0.449820 0.090390
O O6 0.107425 0.391694 0.229980
O O7 0.160584 0.537804 0.213870
O O8 0.165149 0.232161 0.011091
O O9 0.055995 0.358138 0.025165
O O10 0.066075 0.268827 0.153882
O O11 0.912566 0.250537 0.028542
O O12 0.175337 0.156731 0.425227
O O13 0.202287 0.146165 0.603688
O O14 0.000000 0.000000 0.520635
O O15 0.102585 0.761863 0.818169
O O16 0.186169 0.637982 0.756612
O O17 0.092966 0.173547 0.749201
#
# Coordination Sequence:
#
# PCOD9366782 Si02
#       8
#     8   8   8   8   8   8   8   8
#     4  11  24  42  65 102 132 176 235 281 347 427
#     4  11  23  41  72  97 131 178 230 286 347 412
#     4  10  21  41  62  96 129 174 232 280 341 421
#     4  11  24  40  66  98 138 184 228 289 350 422
#     4  10  21  41  68  93 129 185 234 282 345 435
#     4  12  25  42  68  98 137 185 221 288 350 427
#     4  10  24  40  66  97 130 173 222 288 341 415
#     4  11  24  44  65  98 135 174 234 282 350 415
#
# _framework density 20.351102999999998
#
# number of rings (size 3 to 8) (size 9 to 14) (size 15 to 20)
#    0.000    1.250    3.750    2.625    7.000    1.000 
#    0.000    0.000    0.000    0.750    0.000    0.000 
#    0.000    0.000    0.000    0.000    0.000    0.000 
#
# Total GULP energy -178585.609407 kJ/mol
# GULP energy per Si atom -5580.800294 kJ/mol
# Density = 2.030478 g / cm^3
# Si number density = 20.351103 Si / 1000 Ang^3
#
#
#
# Elastic Constant Matrix: (Units=GPa)
#
#
# Indices 1 2 3 4 5 6 
#
# 1 77.1005 13.8056 54.6394 0.0000 0.0000 0.0000
# 2 13.8056 69.8032 18.1237 0.0000 0.0000 0.0000
# 3 54.6394 18.1237 134.3207 0.0000 0.0000 0.0000
# 4 0.0000 0.0000 0.0000 15.4769 0.0000 0.0000
# 5 0.0000 0.0000 0.0000 0.0000 40.3172 0.0000
# 6 0.0000 0.0000 0.0000 0.0000 0.0000 27.8986
#
#
#
# Elastic Compliance Matrix: (Units=1/GPa)
#
#
# Indices 1 2 3 4 5 6 
#
# 1 0.018430 -0.001760 -0.007259 0.000000 0.000000 0.000000
# 2 -0.001760 0.015014 -0.001310 0.000000 0.000000 0.000000
# 3 -0.007259 -0.001310 0.010575 0.000000 0.000000 0.000000
# 4 0.000000 0.000000 0.000000 0.064612 0.000000 0.000000
# 5 0.000000 0.000000 0.000000 0.000000 0.024803 0.000000
# 6 0.000000 0.000000 0.000000 0.000000 0.000000 0.035844
#
#
# Mechanical properties :
#
#
# Convention : Reuss Voigt Hill
#
# Bulk Modulus (GPa) = 42.80866 50.48461 46.64663
# Shear Modulus (GPa) = 25.28776 29.71559 27.50168
#
# Velocity S-wave (km/s) = 3.52884 3.82533 3.68007
# Velocity P-wave (km/s) = 6.13876 6.66120 6.40531
#
# Compressibility (1/GPa) = 0.02335976
#
# Stress axis : x y z
#
# Youngs Moduli (GPa) = 54.25969 66.60363 94.56597
#
# Poissons Ratio (x) = 0.11723 0.68650
# Poissons Ratio (y) = 0.09551 0.12386
# Poissons Ratio (z) = 0.39390 0.08724
#
# Static dielectric constant tensor:
#      x y z
#    x 1.744020 0.000000 0.000000 
#    y 0.000000 1.760950 0.000000 
#    z 0.000000 0.000000 1.741140 
# 
# From -- ./inp_files/8117.got.cif
#   From: 2010.05.17/outbox.cif.g08.bks.cpg/sg41_5_cif.got.tgz:8117.got - 2010.06.03 18:54:24.
