data_PCOD9366269
_publ_section_title
;
Structure prediction by ZEFSAII (Michael W. Deem and Ramdas Pophale) SiO2 
 PCOD9366269
Probable space group: A B A 2
;
_chemical_formula_sum "Si O2"
_cell_formula_units_Z 48
_cell_length_a 8.714124
_cell_length_b 27.303218
_cell_length_c 9.229779
_cell_angle_alpha 90.000000
_cell_angle_beta 90.000000
_cell_angle_gamma 90.000000
_cell_volume 2195.982498
_symmetry_space_group_name_H-M "A B A 2"
_symmetry_group_IT_number 41
_symmetry_cell_setting 'orthorhombic'
loop_
_space_group_symop_operation_xyz
x,y,z
-x,-y,z
1/2-x,y,1/2+z
1/2+x,-y,1/2+z
x,1/2+y,1/2+z
-x,1/2-y,1/2+z
1/2-x,1/2+y,z
1/2+x,1/2-y,z
loop_
_atom_site_type_symbol
_atom_site_label
_atom_site_fract_x
_atom_site_fract_y
_atom_site_fract_z
Si Si1 0.940573 0.051352 0.777660
Si Si2 0.627975 0.801384 0.912134
Si Si3 0.359012 0.371331 0.022304
Si Si4 0.942511 0.777969 0.073219
Si Si5 0.508570 0.099807 0.001967
Si Si6 0.407487 0.454385 0.228517
O O1 0.043043 0.074553 0.650661
O O2 0.773460 0.037229 0.714772
O O3 0.909144 0.095905 0.886072
O O4 0.000000 0.000000 0.838479
O O5 0.598350 0.784337 0.744868
O O6 0.795796 0.788643 0.972552
O O7 0.511433 0.773613 0.021591
O O8 0.600745 0.859251 0.934976
O O9 0.426591 0.317560 0.031499
O O10 0.174640 0.374212 0.028688
O O11 0.431456 0.402343 0.152751
O O12 0.542315 0.055907 0.891834
O O13 0.500000 0.500000 0.169159
#
# Coordination Sequence:
#
# PCOD9366269 Si02
#       6
#     8   8   8   8   8   8
#     4  10  22  36  61  96 129 172 223 274 326 386
#     4  12  27  46  71 101 134 174 220 274 336 402
#     4  10  22  41  65  93 131 174 220 268 332 393
#     4  12  27  46  71 101 134 174 220 274 336 402
#     4  10  22  41  65  93 131 174 220 268 332 393
#     4  10  20  38  61  88 129 174 217 270 326 388
#
# _framework density 21.858097999999998
#
# number of rings (size 3 to 8) (size 9 to 14) (size 15 to 20)
#    0.000    1.333    1.667    3.000    4.667    2.667 
#    0.000    0.000    0.000    0.000    0.000    0.000 
#    0.000    0.000    0.000    0.000    0.000    0.000 
#
# Total GULP energy -134008.063120 kJ/mol
# GULP energy per Si atom -5583.669297 kJ/mol
# Density = 2.180835 g / cm^3
# Si number density = 21.858098 Si / 1000 Ang^3
#
#
#
# Elastic Constant Matrix: (Units=GPa)
#
#
# Indices 1 2 3 4 5 6 
#
# 1 36.9761 11.2668 -4.9370 0.0000 0.0000 0.0000
# 2 11.2668 87.0299 5.2913 0.0000 0.0000 0.0000
# 3 -4.9370 5.2913 87.5143 0.0000 0.0000 0.0000
# 4 0.0000 0.0000 0.0000 43.5443 0.0000 0.0000
# 5 0.0000 0.0000 0.0000 0.0000 24.7384 0.0000
# 6 0.0000 0.0000 0.0000 0.0000 0.0000 33.7842
#
#
#
# Elastic Compliance Matrix: (Units=1/GPa)
#
#
# Indices 1 2 3 4 5 6 
#
# 1 0.028445 -0.003794 0.001834 0.000000 0.000000 0.000000
# 2 -0.003794 0.012039 -0.000942 0.000000 0.000000 0.000000
# 3 0.001834 -0.000942 0.011587 0.000000 0.000000 0.000000
# 4 0.000000 0.000000 0.000000 0.022965 0.000000 0.000000
# 5 0.000000 0.000000 0.000000 0.000000 0.040423 0.000000
# 6 0.000000 0.000000 0.000000 0.000000 0.000000 0.029600
#
#
# Mechanical properties :
#
#
# Convention : Reuss Voigt Hill
#
# Bulk Modulus (GPa) = 21.61339 26.08474 23.84907
# Shear Modulus (GPa) = 30.06879 33.73998 31.90439
#
# Velocity S-wave (km/s) = 3.71298 3.93312 3.82463
# Velocity P-wave (km/s) = 5.31894 5.70837 5.51709
#
# Compressibility (1/GPa) = 0.04626761
#
# Stress axis : x y z
#
# Youngs Moduli (GPa) = 35.15499 83.06517 86.30273
#
# Poissons Ratio (x) = 0.31515 -0.15829
# Poissons Ratio (y) = 0.13338 0.08129
# Poissons Ratio (z) = -0.06448 0.07824
#
# Static dielectric constant tensor:
#      x y z
#    x 1.790650 0.000000 0.000000 
#    y 0.000000 1.635200 0.000000 
#    z 0.000000 0.000000 1.860870 
# 
# From -- ./inp_files/1805.got.cif
#   From: 2010.05.17/outbox.cif.g08.bks.cpg/sg41_1_cif.got.tgz:1805.got - 2010.06.03 18:54:24.
