data_PCOD9366163
_publ_section_title
;
Structure prediction by ZEFSAII (Michael W. Deem and Ramdas Pophale) SiO2 
 PCOD9366163
Probable space group: A B A 2
;
_chemical_formula_sum "Si O2"
_cell_formula_units_Z 64
_cell_length_a 26.565020
_cell_length_b 17.927260
_cell_length_c 6.052908
_cell_angle_alpha 90.000000
_cell_angle_beta 90.000000
_cell_angle_gamma 90.000000
_cell_volume 2882.624924
_symmetry_space_group_name_H-M "A B A 2"
_symmetry_group_IT_number 41
_symmetry_cell_setting 'orthorhombic'
loop_
_space_group_symop_operation_xyz
x,y,z
-x,-y,z
1/2-x,y,1/2+z
1/2+x,-y,1/2+z
x,1/2+y,1/2+z
-x,1/2-y,1/2+z
1/2-x,1/2+y,z
1/2+x,1/2-y,z
loop_
_atom_site_type_symbol
_atom_site_label
_atom_site_fract_x
_atom_site_fract_y
_atom_site_fract_z
Si Si1 0.607136 0.831668 0.734290
Si Si2 0.624658 0.698442 0.461089
Si Si3 0.414055 0.422977 0.808050
Si Si4 0.631731 0.964783 0.029394
Si Si5 0.018471 0.130799 0.947270
Si Si6 0.242151 0.537067 0.164475
Si Si7 0.952848 0.762004 0.605431
Si Si8 0.667883 0.578152 0.182623
O O1 0.639804 0.775994 0.582325
O O2 0.569518 0.882614 0.584985
O O3 0.631253 0.883888 0.920386
O O4 0.575407 0.774174 0.879073
O O5 0.595819 0.639884 0.620735
O O6 0.584633 0.724591 0.278676
O O7 0.668117 0.652514 0.333302
O O8 0.411062 0.503493 0.688899
O O9 0.467674 0.417164 0.931489
O O10 0.366345 0.409590 0.968472
O O11 0.683068 0.978192 0.162584
O O12 0.635125 0.019275 0.821663
O O13 0.031660 0.158020 0.701197
O O14 0.998419 0.207276 0.060434
O O15 0.251010 0.571726 0.412724
O O16 0.278778 0.464171 0.154254
#
# Coordination Sequence:
#
# PCOD9366163 Si02
#       8
#     8   8   8   8   8   8   8   8
#     4  11  23  38  59  92 134 178 227 277 351 432
#     4  10  20  35  63  94 124 163 226 284 339 414
#     4  11  20  38  63  90 126 169 223 287 340 411
#     4  10  24  40  61  94 134 174 227 283 364 427
#     4  11  20  33  59  85 122 171 229 273 333 408
#     4  10  20  41  70  99 126 174 228 291 354 447
#     4  11  19  35  59  87 118 174 222 274 328 403
#     4  10  20  38  68  95 121 164 224 285 351 419
#
# _framework density 22.201983999999999
#
# number of rings (size 3 to 8) (size 9 to 14) (size 15 to 20)
#    0.000    1.500    5.000    0.750    0.000    2.000 
#    0.000    3.750    0.000    9.000    0.000    0.000 
#    0.000    0.000    0.000    0.000    0.000    0.000 
#
# Total GULP energy -178224.170227 kJ/mol
# GULP energy per Si atom -5569.505320 kJ/mol
# Density = 2.215145 g / cm^3
# Si number density = 22.201984 Si / 1000 Ang^3
#
#
#
# Elastic Constant Matrix: (Units=GPa)
#
#
# Indices 1 2 3 4 5 6 
#
# 1 47.3085 24.7414 2.9265 0.0000 0.0000 0.0000
# 2 24.7414 82.9695 26.4246 0.0000 0.0000 0.0000
# 3 2.9265 26.4246 84.6911 0.0000 0.0000 0.0000
# 4 0.0000 0.0000 0.0000 18.1031 0.0000 0.0000
# 5 0.0000 0.0000 0.0000 0.0000 27.2119 0.0000
# 6 0.0000 0.0000 0.0000 0.0000 0.0000 15.1075
#
#
#
# Elastic Compliance Matrix: (Units=1/GPa)
#
#
# Indices 1 2 3 4 5 6 
#
# 1 0.025247 -0.008051 0.001640 0.000000 0.000000 0.000000
# 2 -0.008051 0.015950 -0.004698 0.000000 0.000000 0.000000
# 3 0.001640 -0.004698 0.013217 0.000000 0.000000 0.000000
# 4 0.000000 0.000000 0.000000 0.055239 0.000000 0.000000
# 5 0.000000 0.000000 0.000000 0.000000 0.036749 0.000000
# 6 0.000000 0.000000 0.000000 0.000000 0.000000 0.066192
#
#
# Mechanical properties :
#
#
# Convention : Reuss Voigt Hill
#
# Bulk Modulus (GPa) = 31.06136 35.90603 33.48370
# Shear Modulus (GPa) = 20.36296 22.80960 21.58628
#
# Velocity S-wave (km/s) = 3.03176 3.20873 3.12150
# Velocity P-wave (km/s) = 5.12603 5.47134 5.30150
#
# Compressibility (1/GPa) = 0.03219434
#
# Stress axis : x y z
#
# Youngs Moduli (GPa) = 39.60895 62.69716 75.66084
#
# Poissons Ratio (x) = 0.50476 -0.12405
# Poissons Ratio (y) = 0.31888 0.35548
# Poissons Ratio (z) = -0.06494 0.29457
#
# Static dielectric constant tensor:
#      x y z
#    x 1.821020 0.000000 0.000000 
#    y 0.000000 1.905200 0.000000 
#    z 0.000000 0.000000 1.926070 
# 
# From -- ./inp_files/1401.got.cif
#   From: 2010.05.17/outbox.cif.g08.bks.cpg/sg41_1_cif.got.tgz:1401.got - 2010.06.03 18:54:24.
