data_PCOD9366140
_publ_section_title
;
Structure prediction by ZEFSAII (Michael W. Deem and Ramdas Pophale) SiO2 
 PCOD9366140
Probable space group: A B A 2
;
_chemical_formula_sum "Si O2"
_cell_formula_units_Z 40
_cell_length_a 20.047310
_cell_length_b 15.983952
_cell_length_c 5.039499
_cell_angle_alpha 90.000000
_cell_angle_beta 90.000000
_cell_angle_gamma 90.000000
_cell_volume 1614.833075
_symmetry_space_group_name_H-M "A B A 2"
_symmetry_group_IT_number 41
_symmetry_cell_setting 'orthorhombic'
loop_
_space_group_symop_operation_xyz
x,y,z
-x,-y,z
1/2-x,y,1/2+z
1/2+x,-y,1/2+z
x,1/2+y,1/2+z
-x,1/2-y,1/2+z
1/2-x,1/2+y,z
1/2+x,1/2-y,z
loop_
_atom_site_type_symbol
_atom_site_label
_atom_site_fract_x
_atom_site_fract_y
_atom_site_fract_z
Si Si1 0.712361 0.303402 0.134640
Si Si2 0.208472 0.995417 0.139487
Si Si3 0.997982 0.866722 0.789312
Si Si4 0.407684 0.739040 0.508006
Si Si5 0.927315 0.092635 0.276275
O O1 0.772681 0.278422 0.333834
O O2 0.708637 0.403967 0.137201
O O3 0.648551 0.270983 0.289458
O O4 0.261989 0.966005 0.359442
O O5 0.133918 0.967111 0.208442
O O6 0.029059 0.773988 0.839837
O O7 0.010532 0.910751 0.069103
O O8 0.926609 0.845943 0.663188
O O9 0.043952 0.911788 0.570791
O O10 0.397630 0.815239 0.711075
#
# Coordination Sequence:
#
# PCOD9366140 Si02
#       5
#     8   8   8   8   8
#     4  10  24  38  58  83 116 154 194 231 293 345
#     4  10  21  40  56  79 117 159 187 240 291 337
#     4  10  20  35  58  86 112 149 184 237 302 329
#     4  10  21  37  61  83 120 145 187 245 288 347
#     4  10  20  34  58  85 110 146 197 230 284 353
#
# _framework density 24.770364000000001
#
# number of rings (size 3 to 8) (size 9 to 14) (size 15 to 20)
#    1.200    0.800    2.000    1.200    2.800    1.600 
#    0.000    1.000    0.000    4.800    0.000    0.000 
#    0.000    0.000    0.000    0.000    0.000    0.000 
#
# Total GULP energy -111751.850109 kJ/mol
# GULP energy per Si atom -5587.592505 kJ/mol
# Density = 2.471399 g / cm^3
# Si number density = 24.770364 Si / 1000 Ang^3
#
#
#
# Elastic Constant Matrix: (Units=GPa)
#
#
# Indices 1 2 3 4 5 6 
#
# 1 39.8238 18.9928 -17.3029 0.0000 0.0000 0.0000
# 2 18.9928 31.1844 5.1854 0.0000 0.0000 0.0000
# 3 -17.3029 5.1854 104.5560 0.0000 0.0000 0.0000
# 4 0.0000 0.0000 0.0000 9.8584 0.0000 0.0000
# 5 0.0000 0.0000 0.0000 0.0000 38.1690 0.0000
# 6 0.0000 0.0000 0.0000 0.0000 0.0000 18.2594
#
#
#
# Elastic Compliance Matrix: (Units=1/GPa)
#
#
# Indices 1 2 3 4 5 6 
#
# 1 0.041290 -0.026503 0.008147 0.000000 0.000000 0.000000
# 2 -0.026503 0.049345 -0.006833 0.000000 0.000000 0.000000
# 3 0.008147 -0.006833 0.011251 0.000000 0.000000 0.000000
# 4 0.000000 0.000000 0.000000 0.101436 0.000000 0.000000
# 5 0.000000 0.000000 0.000000 0.000000 0.026199 0.000000
# 6 0.000000 0.000000 0.000000 0.000000 0.000000 0.054766
#
#
# Mechanical properties :
#
#
# Convention : Reuss Voigt Hill
#
# Bulk Modulus (GPa) = 19.41364 21.03498 20.22431
# Shear Modulus (GPa) = 14.21121 24.50330 19.35725
#
# Velocity S-wave (km/s) = 2.39784 3.14860 2.79851
# Velocity P-wave (km/s) = 3.93962 4.66140 4.31563
#
# Compressibility (1/GPa) = 0.05151017
#
# Stress axis : x y z
#
# Youngs Moduli (GPa) = 24.21880 20.26550 88.87745
#
# Poissons Ratio (x) = 0.53709 -0.72413
# Poissons Ratio (y) = 0.64186 0.60731
# Poissons Ratio (z) = -0.19732 0.13848
#
# Static dielectric constant tensor:
#      x y z
#    x 2.018280 0.000000 0.000000 
#    y 0.000000 1.976090 0.000000 
#    z 0.000000 0.000000 1.953820 
# 
# From -- ./inp_files/243.got.cif
#   From: 2010.05.17/outbox.cif.g08.bks.cpg/sg41_1_cif.got.tgz:243.got - 2010.06.03 18:54:24.
