data_PCOD9366191
_publ_section_title
;
Structure prediction by ZEFSAII (Michael W. Deem and Ramdas Pophale) SiO2 
 PCOD9366191
Probable space group: A B A 2
;
_chemical_formula_sum "Si O2"
_cell_formula_units_Z 56
_cell_length_a 7.727361
_cell_length_b 16.463244
_cell_length_c 18.983117
_cell_angle_alpha 90.000000
_cell_angle_beta 90.000000
_cell_angle_gamma 90.000000
_cell_volume 2414.983351
_symmetry_space_group_name_H-M "A B A 2"
_symmetry_group_IT_number 41
_symmetry_cell_setting 'orthorhombic'
loop_
_space_group_symop_operation_xyz
x,y,z
-x,-y,z
1/2-x,y,1/2+z
1/2+x,-y,1/2+z
x,1/2+y,1/2+z
-x,1/2-y,1/2+z
1/2-x,1/2+y,z
1/2+x,1/2-y,z
loop_
_atom_site_type_symbol
_atom_site_label
_atom_site_fract_x
_atom_site_fract_y
_atom_site_fract_z
Si Si1 0.166461 0.657888 0.015210
Si Si2 0.207337 0.003559 0.589266
Si Si3 0.892014 0.699740 0.307047
Si Si4 0.162324 0.050403 0.235960
Si Si5 0.772486 0.171914 0.561090
Si Si6 0.905497 0.190028 0.210639
Si Si7 0.213479 0.137487 0.865134
O O1 0.267650 0.591187 0.061507
O O2 0.227248 0.751257 0.012435
O O3 0.978026 0.665280 0.050191
O O4 0.191053 0.619552 0.937879
O O5 0.247064 0.003644 0.672255
O O6 0.285975 0.922466 0.553684
O O7 0.000000 0.000000 0.578712
O O8 0.729121 0.657504 0.270078
O O9 0.815543 0.782533 0.338538
O O10 0.020946 0.725815 0.242847
O O11 0.009485 0.658328 0.366358
O O12 0.273726 0.071978 0.303366
O O13 0.071210 0.131992 0.205370
O O14 0.000000 0.000000 0.262009
O O15 0.697852 0.196831 0.637852
#
# Coordination Sequence:
#
# PCOD9366191 Si02
#       7
#     8   8   8   8   8   8   8
#     4  11  25  41  66  98 133 184 222 274 354 419
#     4  10  25  44  66 101 137 174 231 293 343 415
#     4   9  20  37  62  91 130 163 222 278 334 410
#     4  11  23  39  64  90 131 172 226 285 343 403
#     4  11  23  40  68  95 136 174 225 283 338 414
#     4  10  20  36  61  98 123 170 222 284 343 393
#     4  10  22  40  63  92 132 175 221 275 341 427
#
# _framework density 23.188566000000002
#
# number of rings (size 3 to 8) (size 9 to 14) (size 15 to 20)
#    0.000    1.714    1.429    1.714   12.000    1.714 
#    0.000    0.000    0.000    2.571    0.000    0.000 
#    0.000    0.000    0.000    0.000    0.000    0.000 
#
# Total GULP energy -156111.832292 kJ/mol
# GULP energy per Si atom -5575.422582 kJ/mol
# Density = 2.313579 g / cm^3
# Si number density = 23.188566 Si / 1000 Ang^3
#
#
#
# Elastic Constant Matrix: (Units=GPa)
#
#
# Indices 1 2 3 4 5 6 
#
# 1 37.7613 9.6531 4.6749 0.0000 0.0000 0.0000
# 2 9.6531 81.8799 18.1692 0.0000 0.0000 0.0000
# 3 4.6749 18.1692 62.9917 0.0000 0.0000 0.0000
# 4 0.0000 0.0000 0.0000 12.0643 0.0000 0.0000
# 5 0.0000 0.0000 0.0000 0.0000 12.9405 0.0000
# 6 0.0000 0.0000 0.0000 0.0000 0.0000 10.8215
#
#
#
# Elastic Compliance Matrix: (Units=1/GPa)
#
#
# Indices 1 2 3 4 5 6 
#
# 1 0.027386 -0.002968 -0.001176 0.000000 0.000000 0.000000
# 2 -0.002968 0.013370 -0.003636 0.000000 0.000000 0.000000
# 3 -0.001176 -0.003636 0.017011 0.000000 0.000000 0.000000
# 4 0.000000 0.000000 0.000000 0.082889 0.000000 0.000000
# 5 0.000000 0.000000 0.000000 0.000000 0.077277 0.000000
# 6 0.000000 0.000000 0.000000 0.000000 0.000000 0.092408
#
#
# Mechanical properties :
#
#
# Convention : Reuss Voigt Hill
#
# Bulk Modulus (GPa) = 23.69279 27.51416 25.60347
# Shear Modulus (GPa) = 14.70714 17.17432 15.94073
#
# Velocity S-wave (km/s) = 2.52115 2.72442 2.62475
# Velocity P-wave (km/s) = 4.32603 4.66774 4.50013
#
# Compressibility (1/GPa) = 0.04220693
#
# Stress axis : x y z
#
# Youngs Moduli (GPa) = 36.51446 74.79588 58.78476
#
# Poissons Ratio (x) = 0.22197 0.06916
# Poissons Ratio (y) = 0.10836 0.21375
# Poissons Ratio (z) = 0.04296 0.27197
#
# Static dielectric constant tensor:
#      x y z
#    x 1.884350 0.000000 0.000000 
#    y 0.000000 1.971820 0.000000 
#    z 0.000000 0.000000 1.896170 
# 
# From -- ./inp_files/11243.got.cif
#   From: 2010.05.17/outbox.cif.g08.bks.cpg/sg41_6_cif.got.tgz:11243.got - 2010.06.03 18:54:24.
