data_PCOD9366888
_publ_section_title
;
Structure prediction by ZEFSAII (Michael W. Deem and Ramdas Pophale) SiO2 
 PCOD9366888
Probable space group: A B A 2
;
_chemical_formula_sum "Si O2"
_cell_formula_units_Z 64
_cell_length_a 29.616930
_cell_length_b 11.573309
_cell_length_c 8.118597
_cell_angle_alpha 90.000000
_cell_angle_beta 90.000000
_cell_angle_gamma 90.000000
_cell_volume 2782.778066
_symmetry_space_group_name_H-M "A B A 2"
_symmetry_group_IT_number 41
_symmetry_cell_setting 'orthorhombic'
loop_
_space_group_symop_operation_xyz
x,y,z
-x,-y,z
1/2-x,y,1/2+z
1/2+x,-y,1/2+z
x,1/2+y,1/2+z
-x,1/2-y,1/2+z
1/2-x,1/2+y,z
1/2+x,1/2-y,z
loop_
_atom_site_type_symbol
_atom_site_label
_atom_site_fract_x
_atom_site_fract_y
_atom_site_fract_z
Si Si1 0.885352 0.375632 0.602950
Si Si2 0.135156 0.811308 0.891569
Si Si3 0.910931 0.033775 0.649952
Si Si4 0.939248 0.271907 0.135102
Si Si5 0.840712 0.530955 0.846738
Si Si6 0.714399 0.825603 0.995644
Si Si7 0.689364 0.290766 0.860159
Si Si8 0.464910 0.259741 0.499288
O O1 0.875257 0.281799 0.746965
O O2 0.868081 0.493060 0.684167
O O3 0.854803 0.338866 0.449166
O O4 0.937410 0.353704 0.558952
O O5 0.116844 0.928658 0.812136
O O6 0.105484 0.773265 0.047102
O O7 0.187371 0.788920 0.933986
O O8 0.947721 0.132372 0.608524
O O9 0.933177 0.908920 0.660196
O O10 0.875836 0.033026 0.498200
O O11 0.950057 0.218009 0.312003
O O12 0.981886 0.247835 0.018088
O O13 0.818101 0.654857 0.833377
O O14 0.803936 0.432815 0.888986
O O15 0.700081 0.845822 0.183865
O O16 0.767444 0.810519 0.975828
#
# Coordination Sequence:
#
# PCOD9366888 Si02
#       8
#     8   8   8   8   8   8   8   8
#     4  10  21  43  65  98 132 173 221 276 333 407
#     4  10  21  43  67  97 136 173 222 278 331 400
#     4  11  23  43  70  93 136 175 224 270 344 396
#     4  12  24  44  67  99 138 180 221 285 334 396
#     4  11  24  44  72  95 134 180 215 278 347 387
#     4  11  25  44  68 100 135 174 227 277 336 407
#     4  12  25  45  68  98 136 172 228 280 330 407
#     4  11  24  42  69  99 137 176 230 276 335 402
#
# _framework density 22.998598999999999
#
# number of rings (size 3 to 8) (size 9 to 14) (size 15 to 20)
#    0.000    1.000    5.000    4.125    0.000    3.000 
#    0.000    0.000    0.000    0.000    0.000    0.000 
#    0.000    0.000    0.000    0.000    0.000    0.000 
#
# Total GULP energy -179245.050502 kJ/mol
# GULP energy per Si atom -5601.407828 kJ/mol
# Density = 2.294625 g / cm^3
# Si number density = 22.998599 Si / 1000 Ang^3
#
#
#
# Elastic Constant Matrix: (Units=GPa)
#
#
# Indices 1 2 3 4 5 6 
#
# 1 71.5212 21.1432 -14.2635 0.0000 0.0000 0.0000
# 2 21.1432 100.5698 17.0700 0.0000 0.0000 0.0000
# 3 -14.2635 17.0700 95.0905 0.0000 0.0000 0.0000
# 4 0.0000 0.0000 0.0000 33.6445 0.0000 0.0000
# 5 0.0000 0.0000 0.0000 0.0000 43.7633 0.0000
# 6 0.0000 0.0000 0.0000 0.0000 0.0000 24.5502
#
#
#
# Elastic Compliance Matrix: (Units=1/GPa)
#
#
# Indices 1 2 3 4 5 6 
#
# 1 0.015718 -0.003821 0.003044 0.000000 0.000000 0.000000
# 2 -0.003821 0.011185 -0.002581 0.000000 0.000000 0.000000
# 3 0.003044 -0.002581 0.011436 0.000000 0.000000 0.000000
# 4 0.000000 0.000000 0.000000 0.029723 0.000000 0.000000
# 5 0.000000 0.000000 0.000000 0.000000 0.022850 0.000000
# 6 0.000000 0.000000 0.000000 0.000000 0.000000 0.040733
#
#
# Mechanical properties :
#
#
# Convention : Reuss Voigt Hill
#
# Bulk Modulus (GPa) = 31.62302 35.00899 33.31601
# Shear Modulus (GPa) = 33.57896 36.60706 35.09301
#
# Velocity S-wave (km/s) = 3.82520 3.99395 3.91048
# Velocity P-wave (km/s) = 5.76969 6.04352 5.90819
#
# Compressibility (1/GPa) = 0.03162253
#
# Stress axis : x y z
#
# Youngs Moduli (GPa) = 63.61932 89.40739 87.44180
#
# Poissons Ratio (x) = 0.34164 -0.26615
# Poissons Ratio (y) = 0.24310 0.22569
# Poissons Ratio (z) = -0.19364 0.23076
#
# Static dielectric constant tensor:
#      x y z
#    x 1.812130 0.000000 0.000000 
#    y 0.000000 1.876850 0.000000 
#    z 0.000000 0.000000 1.874840 
# 
# From -- ./inp_files/3985.got.cif
#   From: 2010.05.17/outbox.cif.g08.bks.cpg/sg41_2_cif.got.tgz:3985.got - 2010.06.03 18:54:24.
