data_PCOD9366332
_publ_section_title
;
Structure prediction by ZEFSAII (Michael W. Deem and Ramdas Pophale) SiO2 
 PCOD9366332
Probable space group: A B A 2
;
_chemical_formula_sum "Si O2"
_cell_formula_units_Z 48
_cell_length_a 14.394617
_cell_length_b 12.850099
_cell_length_c 12.817468
_cell_angle_alpha 90.000000
_cell_angle_beta 90.000000
_cell_angle_gamma 90.000000
_cell_volume 2370.875940
_symmetry_space_group_name_H-M "A B A 2"
_symmetry_group_IT_number 41
_symmetry_cell_setting 'orthorhombic'
loop_
_space_group_symop_operation_xyz
x,y,z
-x,-y,z
1/2-x,y,1/2+z
1/2+x,-y,1/2+z
x,1/2+y,1/2+z
-x,1/2-y,1/2+z
1/2-x,1/2+y,z
1/2+x,1/2-y,z
loop_
_atom_site_type_symbol
_atom_site_label
_atom_site_fract_x
_atom_site_fract_y
_atom_site_fract_z
Si Si1 0.887865 0.922688 0.364670
Si Si2 0.273495 0.862605 0.864670
Si Si3 0.833281 0.027350 0.037712
Si Si4 0.500000 0.000000 0.681658
Si Si5 0.500000 0.000000 0.047682
Si Si6 0.666719 0.027350 0.191629
Si Si7 0.182310 0.640608 0.364670
O O1 0.795674 0.854239 0.364670
O O2 0.949047 0.919712 0.260321
O O3 0.949047 0.919711 0.469019
O O4 0.841652 0.038002 0.364670
O O5 0.206974 0.880628 0.764464
O O6 0.337984 0.761761 0.864670
O O7 0.206974 0.880628 0.964877
O O8 0.750000 0.998296 0.114671
O O9 0.922641 0.050310 0.107176
O O10 0.849812 0.927926 0.962902
O O11 0.422641 0.949691 0.122164
O O12 0.650187 0.927925 0.266438
#
# Coordination Sequence:
#
# PCOD9366332 Si02
#       7
#     8   8   8   4   4   8   8
#     4   9  20  38  60  85 118 161 182 246 294 335
#     4  10  21  39  59  86 121 150 192 240 292 344
#     4  10  20  39  63  83 111 161 188 235 291 339
#     4  11  18  39  64  84 116 153 202 233 288 352
#     4  11  18  39  64  84 116 153 202 233 288 352
#     4  10  20  39  63  83 111 161 188 235 291 339
#     4  10  21  39  59  86 121 150 192 240 292 344
#
# _framework density 20.245683
#
# number of rings (size 3 to 8) (size 9 to 14) (size 15 to 20)
#    0.000    2.333    6.667    0.000    0.000    4.000 
#    0.000   10.000    0.000    0.000    0.000    0.000 
#    0.000    0.000    0.000    0.000    0.000    0.000 
#
# Total GULP energy -133744.185504 kJ/mol
# GULP energy per Si atom -5572.674396 kJ/mol
# Density = 2.019960 g / cm^3
# Si number density = 20.245683 Si / 1000 Ang^3
#
#
#
# Elastic Constant Matrix: (Units=GPa)
#
#
# Indices 1 2 3 4 5 6 
#
# 1 85.9456 -24.0287 33.9067 0.0000 0.0000 0.0000
# 2 -24.0287 49.8261 2.3573 0.0000 0.0000 0.0000
# 3 33.9067 2.3573 129.4168 0.0000 0.0000 0.0000
# 4 0.0000 0.0000 0.0000 -1.6098 0.0000 0.0000
# 5 0.0000 0.0000 0.0000 0.000078497.9170 0.0000
# 6 0.0000 0.0000 0.0000 0.0000 0.0000 12.5987
#
#
#
# Elastic Compliance Matrix: (Units=1/GPa)
#
#
# Indices 1 2 3 4 5 6 
#
# 1 0.015418 0.007633 -0.004178 0.000000 0.000000 0.000000
# 2 0.007633 0.023866 -0.002435 0.000000 0.000000 0.000000
# 3 -0.004178 -0.002435 0.008866 0.000000 0.000000 0.000000
# 4 0.000000 0.000000 0.000000 -0.621190 0.000000 0.000000
# 5 0.000000 0.000000 0.000000 0.000000 0.000013 0.000000
# 6 0.000000 0.000000 0.000000 0.000000 0.000000 0.079373
#
#
# Mechanical properties :
#
#
# Convention : Reuss Voigt Hill
#
# Bulk Modulus (GPa) = 19.92443 32.18436 26.05439
# Shear Modulus (GPa) = -10.43919 15718.64472 7854.10277
#
# Velocity S-wave (km/s) = -2.27320 88.20886 62.35237
# Velocity P-wave (km/s) = 1.72417 101.93300 72.08782
#
# Compressibility (1/GPa) = 0.05018965
#
# Stress axis : x y z
#
# Youngs Moduli (GPa) = 64.86043 41.90071 112.78986
#
# Poissons Ratio (x) = -0.31982 0.47128
# Poissons Ratio (y) = -0.49507 0.27459
# Poissons Ratio (z) = 0.27101 0.10201
#
# Static dielectric constant tensor:
#      x y z
#    x 1.781090 0.000000 0.000000 
#    y 0.000000 1.684390 0.000000 
#    z 0.000000 0.000000 1.766480 
# 
# From -- ./inp_files/5965.got.cif
#   From: 2010.05.17/outbox.cif.g08.bks.cpg/sg41_3_cif.got.tgz:5965.got - 2010.06.03 18:54:24.
