data_PCOD9366599
_publ_section_title
;
Structure prediction by ZEFSAII (Michael W. Deem and Ramdas Pophale) SiO2 
 PCOD9366599
Probable space group: A B A 2
;
_chemical_formula_sum "Si O2"
_cell_formula_units_Z 64
_cell_length_a 30.238312
_cell_length_b 12.350912
_cell_length_c 8.378512
_cell_angle_alpha 90.000000
_cell_angle_beta 90.000000
_cell_angle_gamma 90.000000
_cell_volume 3129.128997
_symmetry_space_group_name_H-M "A B A 2"
_symmetry_group_IT_number 41
_symmetry_cell_setting 'orthorhombic'
loop_
_space_group_symop_operation_xyz
x,y,z
-x,-y,z
1/2-x,y,1/2+z
1/2+x,-y,1/2+z
x,1/2+y,1/2+z
-x,1/2-y,1/2+z
1/2-x,1/2+y,z
1/2+x,1/2-y,z
loop_
_atom_site_type_symbol
_atom_site_label
_atom_site_fract_x
_atom_site_fract_y
_atom_site_fract_z
Si Si1 0.235168 0.973077 0.125000
Si Si2 0.306440 0.596389 0.418961
Si Si3 0.951789 0.941268 0.774265
Si Si4 0.908625 0.366624 0.944841
Si Si5 0.202726 0.344134 0.333571
Si Si6 0.989502 0.386920 0.732889
Si Si7 0.958278 0.730829 0.995205
Si Si8 0.103531 0.352662 0.273418
O O1 0.257621 0.871739 0.214475
O O2 0.206923 0.038357 0.253718
O O3 0.206978 0.929249 0.977706
O O4 0.275533 0.044402 0.054754
O O5 0.359005 0.586946 0.447198
O O6 0.295538 0.722949 0.399501
O O7 0.934276 0.901848 0.602427
O O8 0.918508 0.036085 0.826471
O O9 0.948489 0.837064 0.889172
O O10 0.000000 0.000000 0.764008
O O11 0.939597 0.400295 0.796801
O O12 0.904417 0.238063 0.909777
O O13 0.155700 0.359680 0.249458
O O14 0.992634 0.282129 0.621839
O O15 0.000000 0.500000 0.650434
O O16 0.020571 0.360646 0.883827
O O17 0.919792 0.684529 0.107931
#
# Coordination Sequence:
#
# PCOD9366599 Si02
#       8
#     8   8   8   8   8   8   8   8
#     4  10  21  38  63  88 116 155 197 239 299 360
#     4  10  21  39  60  87 120 152 193 247 292 349
#     4  12  23  39  62  86 119 159 197 245 297 348
#     4  10  21  38  59  86 118 151 194 239 289 347
#     4  10  21  39  61  88 119 154 195 241 297 354
#     4  11  22  38  59  83 115 153 191 237 286 340
#     4  11  24  39  59  87 115 154 201 238 289 351
#     4  10  23  40  59  87 121 154 195 246 290 349
#
# _framework density 20.452974000000001
#
# number of rings (size 3 to 8) (size 9 to 14) (size 15 to 20)
#    0.000    1.500    0.000    6.000    0.000    4.000 
#    0.000   11.250    0.000    0.000    0.000    0.000 
#    0.000    0.000    0.000    0.000    0.000    0.000 
#
# Total GULP energy -178752.187791 kJ/mol
# GULP energy per Si atom -5586.005868 kJ/mol
# Density = 2.040642 g / cm^3
# Si number density = 20.452974 Si / 1000 Ang^3
#
#
#
# Elastic Constant Matrix: (Units=GPa)
#
#
# Indices 1 2 3 4 5 6 
#
# 1 77.5938 40.2883 31.1607 0.0000 0.0000 0.0000
# 2 40.2883 79.0422 12.5491 0.0000 0.0000 0.0000
# 3 31.1607 12.5491 74.9955 0.0000 0.0000 0.0000
# 4 0.0000 0.0000 0.0000 25.8494 0.0000 0.0000
# 5 0.0000 0.0000 0.0000 0.0000 16.1588 0.0000
# 6 0.0000 0.0000 0.0000 0.0000 0.0000 8.9886
#
#
#
# Elastic Compliance Matrix: (Units=1/GPa)
#
#
# Indices 1 2 3 4 5 6 
#
# 1 0.020552 -0.009368 -0.006972 0.000000 0.000000 0.000000
# 2 -0.009368 0.017267 0.001003 0.000000 0.000000 0.000000
# 3 -0.006972 0.001003 0.016063 0.000000 0.000000 0.000000
# 4 0.000000 0.000000 0.000000 0.038686 0.000000 0.000000
# 5 0.000000 0.000000 0.000000 0.000000 0.061886 0.000000
# 6 0.000000 0.000000 0.000000 0.000000 0.000000 0.111252
#
#
# Mechanical properties :
#
#
# Convention : Reuss Voigt Hill
#
# Bulk Modulus (GPa) = 43.08800 44.40310 43.74555
# Shear Modulus (GPa) = 16.44114 20.04157 18.24135
#
# Velocity S-wave (km/s) = 2.83830 3.13371 2.98966
# Velocity P-wave (km/s) = 5.64392 5.90343 5.77513
#
# Compressibility (1/GPa) = 0.02320832
#
# Stress axis : x y z
#
# Youngs Moduli (GPa) = 48.65793 57.91276 62.25501
#
# Poissons Ratio (x) = 0.54255 0.43402
# Poissons Ratio (y) = 0.45585 -0.06246
# Poissons Ratio (z) = 0.33922 -0.05810
#
# Static dielectric constant tensor:
#      x y z
#    x 1.716630 0.000000 0.000000 
#    y 0.000000 1.728050 0.000000 
#    z 0.000000 0.000000 1.749300 
# 
# From -- ./inp_files/3980.got.cif
#   From: 2010.05.17/outbox.cif.g08.bks.cpg/sg41_2_cif.got.tgz:3980.got - 2010.06.03 18:54:24.
