data_PCOD9366340
_publ_section_title
;
Structure prediction by ZEFSAII (Michael W. Deem and Ramdas Pophale) SiO2 
 PCOD9366340
Probable space group: A B A 2
;
_chemical_formula_sum "Si O2"
_cell_formula_units_Z 48
_cell_length_a 11.477177
_cell_length_b 14.485417
_cell_length_c 12.325157
_cell_angle_alpha 90.000000
_cell_angle_beta 90.000000
_cell_angle_gamma 90.000000
_cell_volume 2049.078240
_symmetry_space_group_name_H-M "A B A 2"
_symmetry_group_IT_number 41
_symmetry_cell_setting 'orthorhombic'
loop_
_space_group_symop_operation_xyz
x,y,z
-x,-y,z
1/2-x,y,1/2+z
1/2+x,-y,1/2+z
x,1/2+y,1/2+z
-x,1/2-y,1/2+z
1/2-x,1/2+y,z
1/2+x,1/2-y,z
loop_
_atom_site_type_symbol
_atom_site_label
_atom_site_fract_x
_atom_site_fract_y
_atom_site_fract_z
Si Si1 0.868984 0.837766 0.653700
Si Si2 0.295548 0.756134 0.002849
Si Si3 0.280857 0.131686 0.848918
Si Si4 0.046371 0.195834 0.202848
Si Si5 0.500000 0.500000 0.099896
Si Si6 0.805880 0.549224 0.424721
Si Si7 0.000000 0.500000 0.244285
O O1 0.819724 0.801432 0.541200
O O2 0.763399 0.877507 0.724479
O O3 0.924156 0.747113 0.705825
O O4 0.960457 0.918513 0.665375
O O5 0.326335 0.685446 0.906936
O O6 0.257325 0.854878 0.956177
O O7 0.381565 0.748682 0.105597
O O8 0.391925 0.194463 0.820065
O O9 0.288371 0.031021 0.900350
O O10 0.023364 0.090999 0.168738
O O11 0.612138 0.520611 0.025047
O O12 0.897067 0.541241 0.322546
#
# Coordination Sequence:
#
# PCOD9366340 Si02
#       7
#     8   8   8   8   4   8   4
#     4  10  22  39  60  93 124 165 210 263 313 383
#     4  11  22  39  64  90 124 164 210 260 321 383
#     4  10  23  40  60  95 126 161 216 259 314 385
#     4  11  23  39  65  94 124 168 213 263 318 384
#     4  11  20  40  65  86 124 170 213 256 327 376
#     4  10  20  39  64  86 123 170 204 263 318 378
#     4   9  20  38  63  88 124 172 205 256 327 374
#
# _framework density 23.425166999999998
#
# number of rings (size 3 to 8) (size 9 to 14) (size 15 to 20)
#    0.000    1.667    3.333    1.000    0.000    4.000 
#    3.000    0.833    0.000    0.000    0.000    0.000 
#    0.000    0.000    0.000    0.000    0.000    0.000 
#
# Total GULP energy -133761.454725 kJ/mol
# GULP energy per Si atom -5573.393947 kJ/mol
# Density = 2.337185 g / cm^3
# Si number density = 23.425167 Si / 1000 Ang^3
#
#
#
# Elastic Constant Matrix: (Units=GPa)
#
#
# Indices 1 2 3 4 5 6 
#
# 1 26.1447 14.1936 6.3581 0.0000 0.0000 0.0000
# 2 14.1936 162.6349 24.0341 0.0000 0.0000 0.0000
# 3 6.3581 24.0341 72.1373 0.0000 0.0000 0.0000
# 4 0.0000 0.0000 0.0000 -145.3479 0.0000 0.0000
# 5 0.0000 0.0000 0.0000 0.0000 17.6240 0.0000
# 6 0.0000 0.0000 0.0000 0.0000 0.0000 35.3173
#
#
#
# Elastic Compliance Matrix: (Units=1/GPa)
#
#
# Indices 1 2 3 4 5 6 
#
# 1 0.040582 -0.003169 -0.002521 0.000000 0.000000 0.000000
# 2 -0.003169 0.006715 -0.001958 0.000000 0.000000 0.000000
# 3 -0.002521 -0.001958 0.014737 0.000000 0.000000 0.000000
# 4 0.000000 0.000000 0.000000 -0.006880 0.000000 0.000000
# 5 0.000000 0.000000 0.000000 0.000000 0.056741 0.000000
# 6 0.000000 0.000000 0.000000 0.000000 0.000000 0.028315
#
#
# Mechanical properties :
#
#
# Convention : Reuss Voigt Hill
#
# Bulk Modulus (GPa) = 21.39596 38.89874 30.14735
# Shear Modulus (GPa) = 29.22533 -4.05925 12.58304
#
# Velocity S-wave (km/s) = 3.53598 -1.31781 2.32018
# Velocity P-wave (km/s) = 5.08177 3.78498 4.48054
#
# Compressibility (1/GPa) = 0.04673779
#
# Stress axis : x y z
#
# Youngs Moduli (GPa) = 24.64135 148.92814 67.85670
#
# Poissons Ratio (x) = 0.47198 0.17107
# Poissons Ratio (y) = 0.07809 0.13285
# Poissons Ratio (z) = 0.06212 0.29157
#
# Static dielectric constant tensor:
#      x y z
#    x 2.078630 0.000000 0.000000 
#    y 0.000000 2.068900 0.000000 
#    z 0.000000 0.000000 2.192240 
# 
# From -- ./inp_files/5557.got.cif
#   From: 2010.05.17/outbox.cif.g08.bks.cpg/sg41_3_cif.got.tgz:5557.got - 2010.06.03 18:54:24.
