data_PCOD9366230
_publ_section_title
;
Structure prediction by ZEFSAII (Michael W. Deem and Ramdas Pophale) SiO2 
 PCOD9366230
Probable space group: A B A 2
;
_chemical_formula_sum "Si O2"
_cell_formula_units_Z 40
_cell_length_a 10.154226
_cell_length_b 18.408169
_cell_length_c 9.130034
_cell_angle_alpha 90.000000
_cell_angle_beta 90.000000
_cell_angle_gamma 90.000000
_cell_volume 1706.592422
_symmetry_space_group_name_H-M "A B A 2"
_symmetry_group_IT_number 41
_symmetry_cell_setting 'orthorhombic'
loop_
_space_group_symop_operation_xyz
x,y,z
-x,-y,z
1/2-x,y,1/2+z
1/2+x,-y,1/2+z
x,1/2+y,1/2+z
-x,1/2-y,1/2+z
1/2-x,1/2+y,z
1/2+x,1/2-y,z
loop_
_atom_site_type_symbol
_atom_site_label
_atom_site_fract_x
_atom_site_fract_y
_atom_site_fract_z
Si Si1 0.990297 0.085414 0.643950
Si Si2 0.659952 0.294405 0.114674
Si Si3 0.506629 0.689857 0.398998
Si Si4 0.800853 0.655182 0.653495
Si Si5 0.470585 0.584900 0.974454
O O1 0.050429 0.132144 0.513045
O O2 0.839468 0.115096 0.655087
O O3 0.053450 0.098406 0.802932
O O4 0.000000 0.000000 0.613769
O O5 0.594908 0.286246 0.274888
O O6 0.783821 0.241259 0.121767
O O7 0.570948 0.254681 0.990871
O O8 0.645778 0.378429 0.069819
O O9 0.623702 0.650618 0.307678
O O10 0.895779 0.621968 0.532065
O O11 0.500000 0.500000 0.995130
#
# Coordination Sequence:
#
# PCOD9366230 Si02
#       5
#     8   8   8   8   8
#     4  10  20  37  62  91 126 164 204 254 308 366
#     4  10  20  38  62  88 117 157 202 248 300 361
#     4  10  21  35  60  89 119 158 205 255 303 360
#     4  10  21  40  63  87 120 163 207 253 307 367
#     4  10  22  42  64  91 127 162 202 254 311 368
#
# _framework density 23.438517999999998
#
# number of rings (size 3 to 8) (size 9 to 14) (size 15 to 20)
#    0.000    2.000    0.000    4.800    0.000    6.400 
#    0.000   16.000    0.000    0.000    0.000    0.000 
#    0.000    0.000    0.000    0.000    0.000    0.000 
#
# Total GULP energy -111853.832100 kJ/mol
# GULP energy per Si atom -5592.691605 kJ/mol
# Density = 2.338517 g / cm^3
# Si number density = 23.438518 Si / 1000 Ang^3
#
#
#
# Elastic Constant Matrix: (Units=GPa)
#
#
# Indices 1 2 3 4 5 6 
#
# 1 69.6798 19.5656 4.7354 0.0000 0.0000 0.0000
# 2 19.5656 134.0063 62.7156 0.0000 0.0000 0.0000
# 3 4.7354 62.7156 135.1121 0.0000 0.0000 0.0000
# 4 0.0000 0.0000 0.0000 45.9578 0.0000 0.0000
# 5 0.0000 0.0000 0.0000 0.0000 17.6320 0.0000
# 6 0.0000 0.0000 0.0000 0.0000 0.0000 30.3826
#
#
#
# Elastic Compliance Matrix: (Units=1/GPa)
#
#
# Indices 1 2 3 4 5 6 
#
# 1 0.015006 -0.002485 0.000627 0.000000 0.000000 0.000000
# 2 -0.002485 0.009945 -0.004529 0.000000 0.000000 0.000000
# 3 0.000627 -0.004529 0.009482 0.000000 0.000000 0.000000
# 4 0.000000 0.000000 0.000000 0.021759 0.000000 0.000000
# 5 0.000000 0.000000 0.000000 0.000000 0.056715 0.000000
# 6 0.000000 0.000000 0.000000 0.000000 0.000000 0.032914
#
#
# Mechanical properties :
#
#
# Convention : Reuss Voigt Hill
#
# Bulk Modulus (GPa) = 46.16786 56.98126 51.57456
# Shear Modulus (GPa) = 30.15447 35.57991 32.86719
#
# Velocity S-wave (km/s) = 3.59072 3.90039 3.74876
# Velocity P-wave (km/s) = 6.07711 6.68190 6.38667
#
# Compressibility (1/GPa) = 0.02166009
#
# Stress axis : x y z
#
# Youngs Moduli (GPa) = 66.63831 100.55612 105.46833
#
# Poissons Ratio (x) = 0.24984 -0.06617
# Poissons Ratio (y) = 0.16557 0.47767
# Poissons Ratio (z) = -0.04181 0.45542
#
# Static dielectric constant tensor:
#      x y z
#    x 1.974000 0.000000 0.000000 
#    y 0.000000 1.900500 0.000000 
#    z 0.000000 0.000000 1.870490 
# 
# From -- ./inp_files/2012.got.cif
#   From: 2010.05.17/outbox.cif.g08.bks.cpg/sg41_2_cif.got.tgz:2012.got - 2010.06.03 18:54:24.
