data_PCOD9366791
_publ_section_title
;
Structure prediction by ZEFSAII (Michael W. Deem and Ramdas Pophale) SiO2 
 PCOD9366791
Probable space group: A B A 2
;
_chemical_formula_sum "Si O2"
_cell_formula_units_Z 48
_cell_length_a 14.192878
_cell_length_b 13.663822
_cell_length_c 11.706759
_cell_angle_alpha 90.000000
_cell_angle_beta 90.000000
_cell_angle_gamma 90.000000
_cell_volume 2270.279582
_symmetry_space_group_name_H-M "A B A 2"
_symmetry_group_IT_number 41
_symmetry_cell_setting 'orthorhombic'
loop_
_space_group_symop_operation_xyz
x,y,z
-x,-y,z
1/2-x,y,1/2+z
1/2+x,-y,1/2+z
x,1/2+y,1/2+z
-x,1/2-y,1/2+z
1/2-x,1/2+y,z
1/2+x,1/2-y,z
loop_
_atom_site_type_symbol
_atom_site_label
_atom_site_fract_x
_atom_site_fract_y
_atom_site_fract_z
Si Si1 0.094562 0.936657 0.262860
Si Si2 0.049516 0.898171 0.011594
Si Si3 0.261561 0.068592 0.246783
Si Si4 0.632588 0.286322 0.098345
Si Si5 0.851236 0.128781 0.771789
Si Si6 0.170824 0.261250 0.858560
O O1 0.109947 0.912830 0.127681
O O2 0.084578 0.833173 0.327888
O O3 0.177705 0.007513 0.309584
O O4 0.000000 0.000000 0.267598
O O5 0.962448 0.829265 0.044457
O O6 0.103613 0.871753 0.896946
O O7 0.000000 0.000000 0.985692
O O8 0.200346 0.130431 0.153910
O O9 0.320520 0.149605 0.316736
O O10 0.332978 0.979257 0.220274
O O11 0.599881 0.203631 0.186482
O O12 0.687739 0.238248 0.993093
O O13 0.751300 0.182020 0.789669
#
# Coordination Sequence:
#
# PCOD9366791 Si02
#       6
#     8   8   8   8   8   8
#     4  10  21  41  68  93 130 178 221 273 343 403
#     4  11  22  40  66  88 134 175 220 274 341 398
#     4  10  21  41  63  98 130 172 226 271 334 409
#     4  11  23  41  65  95 132 173 221 281 336 398
#     4  10  25  41  64  99 127 176 228 271 336 412
#     4  10  24  38  68  93 130 174 223 277 336 399
#
# _framework density 21.142771
#
# number of rings (size 3 to 8) (size 9 to 14) (size 15 to 20)
#    0.000    1.667    3.333    1.000    9.333    1.333 
#    0.000    0.833    0.000    0.000    0.000    0.000 
#    0.000    0.000    0.000    0.000    0.000    0.000 
#
# Total GULP energy -133695.104704 kJ/mol
# GULP energy per Si atom -5570.629363 kJ/mol
# Density = 2.109465 g / cm^3
# Si number density = 21.142771 Si / 1000 Ang^3
#
#
#
# Elastic Constant Matrix: (Units=GPa)
#
#
# Indices 1 2 3 4 5 6 
#
# 1 42.6878 35.8111 17.1635 0.0000 0.0000 0.0000
# 2 35.8111 159.6982 57.0708 0.0000 0.0000 0.0000
# 3 17.1635 57.0708 55.4723 0.0000 0.0000 0.0000
# 4 0.0000 0.0000 0.0000 -17.8728 0.0000 0.0000
# 5 0.0000 0.0000 0.0000 0.0000 -303.9591 0.0000
# 6 0.0000 0.0000 0.0000 0.0000 0.0000 -1.2167
#
#
#
# Elastic Compliance Matrix: (Units=1/GPa)
#
#
# Indices 1 2 3 4 5 6 
#
# 1 0.029313 -0.005269 -0.003648 0.000000 0.000000 0.000000
# 2 -0.005269 0.010850 -0.009532 0.000000 0.000000 0.000000
# 3 -0.003648 -0.009532 0.028963 0.000000 0.000000 0.000000
# 4 0.000000 0.000000 0.000000 -0.055951 0.000000 0.000000
# 5 0.000000 0.000000 0.000000 0.000000 -0.003290 0.000000
# 6 0.000000 0.000000 0.000000 0.000000 0.000000 -0.821862
#
#
# Mechanical properties :
#
#
# Convention : Reuss Voigt Hill
#
# Bulk Modulus (GPa) = 31.03092 53.10544 42.06818
# Shear Modulus (GPa) = -6.54163 -54.75554 -30.64859
#
# Velocity S-wave (km/s) = -1.76089 -5.09453 -3.81149
# Velocity P-wave (km/s) = 3.25183 3.07141 0.75526
#
# Compressibility (1/GPa) = 0.03222592
#
# Stress axis : x y z
#
# Youngs Moduli (GPa) = 34.11402 92.16648 34.52720
#
# Poissons Ratio (x) = 0.48567 0.12597
# Poissons Ratio (y) = 0.17976 0.32912
# Poissons Ratio (z) = 0.12446 0.87855
#
# Static dielectric constant tensor:
#      x y z
#    x 5.396310 0.000000 0.000000 
#    y 0.000000 1.867420 0.000000 
#    z 0.000000 0.000000 1.778110 
# 
# From -- ./inp_files/5548.got.cif
#   From: 2010.05.17/outbox.cif.g08.bks.cpg/sg41_3_cif.got.tgz:5548.got - 2010.06.03 18:54:24.
