data_PCOD9366262
_publ_section_title
;
Structure prediction by ZEFSAII (Michael W. Deem and Ramdas Pophale) SiO2 
 PCOD9366262
Probable space group: A B A 2
;
_chemical_formula_sum "Si O2"
_cell_formula_units_Z 48
_cell_length_a 24.796734
_cell_length_b 5.321650
_cell_length_c 14.222619
_cell_angle_alpha 90.000000
_cell_angle_beta 90.000000
_cell_angle_gamma 90.000000
_cell_volume 1876.810254
_symmetry_space_group_name_H-M "A B A 2"
_symmetry_group_IT_number 41
_symmetry_cell_setting 'orthorhombic'
loop_
_space_group_symop_operation_xyz
x,y,z
-x,-y,z
1/2-x,y,1/2+z
1/2+x,-y,1/2+z
x,1/2+y,1/2+z
-x,1/2-y,1/2+z
1/2-x,1/2+y,z
1/2+x,1/2-y,z
loop_
_atom_site_type_symbol
_atom_site_label
_atom_site_fract_x
_atom_site_fract_y
_atom_site_fract_z
Si Si1 0.775325 0.101951 0.840090
Si Si2 0.112420 0.228107 0.355209
Si Si3 0.403061 0.219580 0.636764
Si Si4 0.451860 0.249426 0.378473
Si Si5 0.500000 0.500000 0.039690
Si Si6 0.782691 0.152446 0.611549
Si Si7 0.500000 0.500000 0.710860
O O1 0.729580 0.307813 0.862799
O O2 0.827388 0.223004 0.886849
O O3 0.781227 0.124444 0.726325
O O4 0.112642 0.158817 0.244020
O O5 0.083426 0.495234 0.369912
O O6 0.084785 0.985600 0.396461
O O7 0.346187 0.293599 0.588901
O O8 0.447399 0.439853 0.650819
O O9 0.442982 0.007314 0.594024
O O10 0.491487 0.222706 0.465856
O O11 0.486198 0.229239 0.282073
O O12 0.745870 0.391186 0.581612
#
# Coordination Sequence:
#
# PCOD9366262 Si02
#       7
#     8   8   8   8   4   8   4
#     4   9  16  28  53  86 111 139 192 247 286 334
#     4  10  20  38  60  83 118 159 192 239 298 356
#     4  10  21  37  64  93 121 156 208 256 296 363
#     4  10  22  38  56  82 122 158 189 234 306 366
#     4  11  24  38  58  91 122 156 200 249 300 352
#     4   9  19  35  56  85 119 154 193 246 305 353
#     4   9  20  36  60  91 120 154 196 247 306 356
#
# _framework density 25.575306999999999
#
# number of rings (size 3 to 8) (size 9 to 14) (size 15 to 20)
#    0.000    2.333    0.000    2.000    0.000   16.000 
#    0.000    0.000    0.000    6.000    0.000    7.000 
#    0.000    0.000    0.000    0.000    0.000    0.000 
#
# Total GULP energy -133957.147345 kJ/mol
# GULP energy per Si atom -5581.547806 kJ/mol
# Density = 2.551710 g / cm^3
# Si number density = 25.575307 Si / 1000 Ang^3
#
#
#
# Elastic Constant Matrix: (Units=GPa)
#
#
# Indices 1 2 3 4 5 6 
#
# 1 140.4691 22.3789 22.8362 0.0000 0.0000 0.0000
# 2 22.3789 124.8709 10.7324 0.0000 0.0000 0.0000
# 3 22.8362 10.7324 69.9123 0.0000 0.0000 0.0000
# 4 0.0000 0.0000 0.0000 -11.6941 0.0000 0.0000
# 5 0.0000 0.0000 0.0000 0.0000 18.7631 0.0000
# 6 0.0000 0.0000 0.0000 0.0000 0.0000 36.8868
#
#
#
# Elastic Compliance Matrix: (Units=1/GPa)
#
#
# Indices 1 2 3 4 5 6 
#
# 1 0.007685 -0.001177 -0.002330 0.000000 0.000000 0.000000
# 2 -0.001177 0.008296 -0.000889 0.000000 0.000000 0.000000
# 3 -0.002330 -0.000889 0.015201 0.000000 0.000000 0.000000
# 4 0.000000 0.000000 0.000000 -0.085513 0.000000 0.000000
# 5 0.000000 0.000000 0.000000 0.000000 0.053296 0.000000
# 6 0.000000 0.000000 0.000000 0.000000 0.000000 0.027110
#
#
# Mechanical properties :
#
#
# Convention : Reuss Voigt Hill
#
# Bulk Modulus (GPa) = 44.66174 49.68303 47.17239
# Shear Modulus (GPa) = 118.11962 27.41148 72.76555
#
# Velocity S-wave (km/s) = 6.80333 3.27738 5.33978
# Velocity P-wave (km/s) = 8.90025 5.81291 7.51680
#
# Compressibility (1/GPa) = 0.02239053
#
# Stress axis : x y z
#
# Youngs Moduli (GPa) = 130.11919 120.54531 65.78494
#
# Poissons Ratio (x) = 0.14189 0.15325
# Poissons Ratio (y) = 0.15316 0.05848
# Poissons Ratio (z) = 0.30313 0.10716
#
# Static dielectric constant tensor:
#      x y z
#    x 2.062370 0.000000 0.000000 
#    y 0.000000 2.095150 0.000000 
#    z 0.000000 0.000000 2.114030 
# 
# From -- ./inp_files/10740.got.cif
#   From: 2010.05.17/outbox.cif.g08.bks.cpg/sg41_6_cif.got.tgz:10740.got - 2010.06.03 18:54:24.
