data_PCOD9366060
_publ_section_title
;
Structure prediction by ZEFSAII (Michael W. Deem and Ramdas Pophale) SiO2 
 PCOD9366060
Probable space group: A B A 2
;
_chemical_formula_sum "Si O2"
_cell_formula_units_Z 48
_cell_length_a 18.531100
_cell_length_b 16.564828
_cell_length_c 8.404252
_cell_angle_alpha 90.000000
_cell_angle_beta 90.000000
_cell_angle_gamma 90.000000
_cell_volume 2579.806880
_symmetry_space_group_name_H-M "A B A 2"
_symmetry_group_IT_number 41
_symmetry_cell_setting 'orthorhombic'
loop_
_space_group_symop_operation_xyz
x,y,z
-x,-y,z
1/2-x,y,1/2+z
1/2+x,-y,1/2+z
x,1/2+y,1/2+z
-x,1/2-y,1/2+z
1/2-x,1/2+y,z
1/2+x,1/2-y,z
loop_
_atom_site_type_symbol
_atom_site_label
_atom_site_fract_x
_atom_site_fract_y
_atom_site_fract_z
Si Si1 0.662361 0.639887 0.872940
Si Si2 0.678820 0.157215 0.742361
Si Si3 0.044544 0.284977 0.145046
Si Si4 0.934222 0.555876 0.935497
Si Si5 0.406782 0.696871 0.856065
Si Si6 0.913781 0.485142 0.265268
O O1 0.739696 0.636661 0.788492
O O2 0.607715 0.694627 0.769886
O O3 0.627413 0.551310 0.867548
O O4 0.670294 0.666832 0.054099
O O5 0.623347 0.089744 0.810278
O O6 0.658092 0.241387 0.827512
O O7 0.970889 0.274417 0.239101
O O8 0.037816 0.363399 0.028591
O O9 0.064884 0.210172 0.034560
O O10 0.000000 0.500000 0.874043
O O11 0.898510 0.504434 0.079350
O O12 0.393428 0.604524 0.814630
O O13 0.000000 0.500000 0.283960
#
# Coordination Sequence:
#
# PCOD9366060 Si02
#       6
#     8   8   8   8   8   8
#     4  11  22  44  58  88 122 165 202 261 312 368
#     4  11  24  38  64  85 125 163 208 250 318 370
#     4  10  20  36  62  88 126 153 205 252 308 358
#     4   9  17  37  59  89 120 162 195 251 301 362
#     4  11  20  37  62  96 116 169 197 257 301 376
#     4  10  19  38  66  88 125 158 201 253 309 361
#
# _framework density 18.606045000000002
#
# number of rings (size 3 to 8) (size 9 to 14) (size 15 to 20)
#    0.000    1.667    5.000    4.000    0.000    0.667 
#    3.000    6.667    0.000    0.000    0.000    0.000 
#    0.000    0.000    0.000    0.000    0.000    0.000 
#
# Total GULP energy -133968.358000 kJ/mol
# GULP energy per Si atom -5582.014917 kJ/mol
# Density = 1.856370 g / cm^3
# Si number density = 18.606045 Si / 1000 Ang^3
#
#
#
# Elastic Constant Matrix: (Units=GPa)
#
#
# Indices 1 2 3 4 5 6 
#
# 1 65.5320 2.2250 -2.8609 0.0000 0.0000 0.0000
# 2 2.2250 75.1109 7.2684 0.0000 0.0000 0.0000
# 3 -2.8609 7.2684 49.4560 0.0000 0.0000 0.0000
# 4 0.0000 0.0000 0.0000 27.7239 0.0000 0.0000
# 5 0.0000 0.0000 0.0000 0.0000 26.3510 0.0000
# 6 0.0000 0.0000 0.0000 0.0000 0.0000 17.6659
#
#
#
# Elastic Compliance Matrix: (Units=1/GPa)
#
#
# Indices 1 2 3 4 5 6 
#
# 1 0.015321 -0.000547 0.000967 0.000000 0.000000 0.000000
# 2 -0.000547 0.013525 -0.002019 0.000000 0.000000 0.000000
# 3 0.000967 -0.002019 0.020573 0.000000 0.000000 0.000000
# 4 0.000000 0.000000 0.000000 0.036070 0.000000 0.000000
# 5 0.000000 0.000000 0.000000 0.000000 0.037949 0.000000
# 6 0.000000 0.000000 0.000000 0.000000 0.000000 0.056606
#
#
# Mechanical properties :
#
#
# Convention : Reuss Voigt Hill
#
# Bulk Modulus (GPa) = 21.63646 22.59598 22.11622
# Shear Modulus (GPa) = 25.16987 26.57926 25.87457
#
# Velocity S-wave (km/s) = 3.68200 3.78369 3.73319
# Velocity P-wave (km/s) = 5.45254 5.59099 5.52220
#
# Compressibility (1/GPa) = 0.04621829
#
# Stress axis : x y z
#
# Youngs Moduli (GPa) = 65.27194 73.93560 48.60810
#
# Poissons Ratio (x) = 0.04047 -0.04699
# Poissons Ratio (y) = 0.03573 0.09816
# Poissons Ratio (z) = -0.06310 0.14931
#
# Static dielectric constant tensor:
#      x y z
#    x 1.636790 0.000000 0.000000 
#    y 0.000000 1.652210 0.000000 
#    z 0.000000 0.000000 1.649080 
# 
# From -- ./inp_files/3087.got.cif
#   From: 2010.05.17/outbox.cif.g08.bks.cpg/sg41_2_cif.got.tgz:3087.got - 2010.06.03 18:54:24.
