data_PCOD9366749
_publ_section_title
;
Structure prediction by ZEFSAII (Michael W. Deem and Ramdas Pophale) SiO2 
 PCOD9366749
Probable space group: A B A 2
;
_chemical_formula_sum "Si O2"
_cell_formula_units_Z 48
_cell_length_a 27.200351
_cell_length_b 14.000357
_cell_length_c 5.081330
_cell_angle_alpha 90.000000
_cell_angle_beta 90.000000
_cell_angle_gamma 90.000000
_cell_volume 1935.044776
_symmetry_space_group_name_H-M "A B A 2"
_symmetry_group_IT_number 41
_symmetry_cell_setting 'orthorhombic'
loop_
_space_group_symop_operation_xyz
x,y,z
-x,-y,z
1/2-x,y,1/2+z
1/2+x,-y,1/2+z
x,1/2+y,1/2+z
-x,1/2-y,1/2+z
1/2-x,1/2+y,z
1/2+x,1/2-y,z
loop_
_atom_site_type_symbol
_atom_site_label
_atom_site_fract_x
_atom_site_fract_y
_atom_site_fract_z
Si Si1 0.930882 0.577637 0.262860
Si Si2 0.220294 0.255035 0.819037
Si Si3 0.481333 0.201088 0.193708
Si Si4 0.611429 0.271777 0.007376
Si Si5 0.218713 0.985575 0.337802
Si Si6 0.894243 0.468949 0.778333
O O1 0.987484 0.609733 0.288056
O O2 0.901083 0.671593 0.153188
O O3 0.908871 0.538140 0.534519
O O4 0.924174 0.500032 0.034122
O O5 0.237172 0.228617 0.526859
O O6 0.216368 0.370224 0.831455
O O7 0.167404 0.219958 0.913255
O O8 0.504430 0.280205 0.393768
O O9 0.424516 0.214133 0.258343
O O10 0.598603 0.361301 0.188490
O O11 0.251518 0.015726 0.582220
O O12 0.163199 0.019770 0.343716
#
# Coordination Sequence:
#
# PCOD9366749 Si02
#       6
#     8   8   8   8   8   8
#     4  11  25  47  69 101 146 177 234 292 346 413
#     4  10  23  39  68  99 136 184 226 284 347 406
#     4  10  23  44  73 101 135 187 225 286 351 411
#     4  11  26  47  73 104 141 182 239 281 354 415
#     4  10  21  40  65  96 138 182 229 280 347 413
#     4  12  26  43  74 104 133 191 228 290 350 412
#
# _framework density 24.805626
#
# number of rings (size 3 to 8) (size 9 to 14) (size 15 to 20)
#    0.000    1.333    1.667    3.000    4.667    8.667 
#    0.000    5.000    0.000    0.000    0.000    0.000 
#    0.000    0.000    0.000    0.000    0.000    0.000 
#
# Total GULP energy -134591.177362 kJ/mol
# GULP energy per Si atom -5607.965723 kJ/mol
# Density = 2.474917 g / cm^3
# Si number density = 24.805626 Si / 1000 Ang^3
#
#
#
# Elastic Constant Matrix: (Units=GPa)
#
#
# Indices 1 2 3 4 5 6 
#
# 1 125.8137 8.3421 39.2272 0.0000 0.0000 0.0000
# 2 8.3421 96.5308 -0.4146 0.0000 0.0000 0.0000
# 3 39.2272 -0.4146 127.5976 0.0000 0.0000 0.0000
# 4 0.0000 0.0000 0.0000 29.6164 0.0000 0.0000
# 5 0.0000 0.0000 0.0000 0.0000 37.7891 0.0000
# 6 0.0000 0.0000 0.0000 0.0000 0.0000 17.1468
#
#
#
# Elastic Compliance Matrix: (Units=1/GPa)
#
#
# Indices 1 2 3 4 5 6 
#
# 1 0.008849 -0.000776 -0.002723 0.000000 0.000000 0.000000
# 2 -0.000776 0.010428 0.000273 0.000000 0.000000 0.000000
# 3 -0.002723 0.000273 0.008675 0.000000 0.000000 0.000000
# 4 0.000000 0.000000 0.000000 0.033765 0.000000 0.000000
# 5 0.000000 0.000000 0.000000 0.000000 0.026463 0.000000
# 6 0.000000 0.000000 0.000000 0.000000 0.000000 0.058320
#
#
# Mechanical properties :
#
#
# Convention : Reuss Voigt Hill
#
# Bulk Modulus (GPa) = 46.51580 49.36130 47.93855
# Shear Modulus (GPa) = 31.22691 37.09631 34.16161
#
# Velocity S-wave (km/s) = 3.55190 3.87134 3.71505
# Velocity P-wave (km/s) = 5.96776 6.31866 6.14571
#
# Compressibility (1/GPa) = 0.02149807
#
# Stress axis : x y z
#
# Youngs Moduli (GPa) = 113.01099 95.89888 115.27228
#
# Poissons Ratio (x) = 0.07446 0.31387
# Poissons Ratio (y) = 0.08774 -0.03142
# Poissons Ratio (z) = 0.30771 -0.02614
#
# Static dielectric constant tensor:
#      x y z
#    x 1.912830 0.000000 0.000000 
#    y 0.000000 2.014680 0.000000 
#    z 0.000000 0.000000 1.914140 
# 
# From -- ./inp_files/1135.got.cif
#   From: 2010.05.17/outbox.cif.g08.bks.cpg/sg41_1_cif.got.tgz:1135.got - 2010.06.03 18:54:24.
