data_PCOD9366157
_publ_section_title
;
Structure prediction by ZEFSAII (Michael W. Deem and Ramdas Pophale) SiO2 
 PCOD9366157
Probable space group: A B A 2
;
_chemical_formula_sum "Si O2"
_cell_formula_units_Z 60
_cell_length_a 10.479667
_cell_length_b 9.916041
_cell_length_c 25.626115
_cell_angle_alpha 90.000000
_cell_angle_beta 90.000000
_cell_angle_gamma 90.000000
_cell_volume 2662.984063
_symmetry_space_group_name_H-M "A B A 2"
_symmetry_group_IT_number 41
_symmetry_cell_setting 'orthorhombic'
loop_
_space_group_symop_operation_xyz
x,y,z
-x,-y,z
1/2-x,y,1/2+z
1/2+x,-y,1/2+z
x,1/2+y,1/2+z
-x,1/2-y,1/2+z
1/2-x,1/2+y,z
1/2+x,1/2-y,z
loop_
_atom_site_type_symbol
_atom_site_label
_atom_site_fract_x
_atom_site_fract_y
_atom_site_fract_z
Si Si1 0.000000 0.500000 0.644080
Si Si2 0.147362 0.879616 0.238069
Si Si3 0.135782 0.681314 0.774922
Si Si4 0.288694 0.709717 0.391713
Si Si5 0.637406 0.295349 0.067800
Si Si6 0.451205 0.861795 0.477157
Si Si7 0.868857 0.052865 0.421226
Si Si8 0.207733 0.971504 0.537536
O O1 0.892245 0.567288 0.680660
O O2 0.939180 0.382158 0.609478
O O3 0.265761 0.776684 0.242565
O O4 0.014063 0.813466 0.259057
O O5 0.170567 0.021732 0.268507
O O6 0.156981 0.726520 0.834306
O O7 0.500000 0.500000 0.398129
O O8 0.165940 0.800490 0.401982
O O9 0.264037 0.552668 0.401054
O O10 0.654836 0.137657 0.077907
O O11 0.768176 0.379379 0.058629
O O12 0.563690 0.302664 0.012378
O O13 0.386216 0.761655 0.436512
O O14 0.343982 0.911428 0.518512
O O15 0.500000 0.000000 0.451739
O O16 0.867382 0.032522 0.483254
#
# Coordination Sequence:
#
# PCOD9366157 Si02
#       8
#     4   8   8   8   8   8   8   8
#     4  10  22  44  76  92 128 180 218 294 374 398
#     4  10  25  48  73 104 134 177 231 309 354 423
#     4  10  23  46  71 102 142 173 236 291 358 411
#     4  11  23  38  66  92 131 192 223 276 339 414
#     4  11  20  39  62  92 127 174 219 270 333 410
#     4   9  19  38  55  88 133 173 218 258 318 399
#     4  11  24  39  59  93 141 183 231 274 328 406
#     4  10  20  35  58  87 132 172 218 263 317 393
#
# _framework density 22.531116000000001
#
# number of rings (size 3 to 8) (size 9 to 14) (size 15 to 20)
#    0.000    1.867    2.000    3.200    3.733    4.800 
#    2.400    0.000    0.000    3.200    0.000    0.000 
#    0.000    0.000    0.000    0.000    0.000    0.000 
#
# Total GULP energy -167628.466926 kJ/mol
# GULP energy per Si atom -5587.615564 kJ/mol
# Density = 2.247983 g / cm^3
# Si number density = 22.531116 Si / 1000 Ang^3
#
#
#
# Elastic Constant Matrix: (Units=GPa)
#
#
# Indices 1 2 3 4 5 6 
#
# 1 93.1971 45.8841 13.9166 0.0000 0.0000 0.0000
# 2 45.8841 87.7702 12.1693 0.0000 0.0000 0.0000
# 3 13.9166 12.1693 87.2710 0.0000 0.0000 0.0000
# 4 0.0000 0.0000 0.0000 27.3410 0.0000 0.0000
# 5 0.0000 0.0000 0.0000 0.0000 15.6782 0.0000
# 6 0.0000 0.0000 0.0000 0.0000 0.0000 36.4057
#
#
#
# Elastic Compliance Matrix: (Units=1/GPa)
#
#
# Indices 1 2 3 4 5 6 
#
# 1 0.014589 -0.007448 -0.001288 0.000000 0.000000 0.000000
# 2 -0.007448 0.015421 -0.000963 0.000000 0.000000 0.000000
# 3 -0.001288 -0.000963 0.011798 0.000000 0.000000 0.000000
# 4 0.000000 0.000000 0.000000 0.036575 0.000000 0.000000
# 5 0.000000 0.000000 0.000000 0.000000 0.063783 0.000000
# 6 0.000000 0.000000 0.000000 0.000000 0.000000 0.027468
#
#
# Mechanical properties :
#
#
# Convention : Reuss Voigt Hill
#
# Bulk Modulus (GPa) = 44.62179 45.79760 45.20969
# Shear Modulus (GPa) = 25.44500 28.96952 27.20726
#
# Velocity S-wave (km/s) = 3.36419 3.58963 3.47874
# Velocity P-wave (km/s) = 5.91083 6.12790 6.02034
#
# Compressibility (1/GPa) = 0.02241058
#
# Stress axis : x y z
#
# Youngs Moduli (GPa) = 68.54315 64.84798 84.75908
#
# Poissons Ratio (x) = 0.48301 0.10916
# Poissons Ratio (y) = 0.51054 0.08159
# Poissons Ratio (z) = 0.08827 0.06242
#
# Static dielectric constant tensor:
#      x y z
#    x 1.925310 0.000000 0.000000 
#    y 0.000000 1.886800 0.000000 
#    z 0.000000 0.000000 1.839510 
# 
# From -- ./inp_files/12541.got.cif
#   From: 2010.05.17/outbox.cif.g08.bks.cpg/sg41_7_cif.got.tgz:12541.got - 2010.06.03 18:54:24.
