data_PCOD9366512
_publ_section_title
;
Structure prediction by ZEFSAII (Michael W. Deem and Ramdas Pophale) SiO2 
 PCOD9366512
Probable space group: A B A 2
;
_chemical_formula_sum "Si O2"
_cell_formula_units_Z 60
_cell_length_a 10.435706
_cell_length_b 20.824867
_cell_length_c 11.429706
_cell_angle_alpha 90.000000
_cell_angle_beta 90.000000
_cell_angle_gamma 90.000000
_cell_volume 2483.928733
_symmetry_space_group_name_H-M "A B A 2"
_symmetry_group_IT_number 41
_symmetry_cell_setting 'orthorhombic'
loop_
_space_group_symop_operation_xyz
x,y,z
-x,-y,z
1/2-x,y,1/2+z
1/2+x,-y,1/2+z
x,1/2+y,1/2+z
-x,1/2-y,1/2+z
1/2-x,1/2+y,z
1/2+x,1/2-y,z
loop_
_atom_site_type_symbol
_atom_site_label
_atom_site_fract_x
_atom_site_fract_y
_atom_site_fract_z
Si Si1 0.593402 0.581095 0.549870
Si Si2 0.114329 0.130042 0.085930
Si Si3 0.000000 0.000000 0.119147
Si Si4 0.784938 0.123243 0.875298
Si Si5 0.627843 0.866623 0.198924
Si Si6 0.985386 0.140386 0.332912
Si Si7 0.979970 0.783312 0.888581
Si Si8 0.719812 0.000004 0.233480
O O1 0.722036 0.616485 0.504068
O O2 0.509694 0.619876 0.642113
O O3 0.512924 0.583063 0.428462
O O4 0.641245 0.517413 0.614593
O O5 0.267475 0.132035 0.095478
O O6 0.071245 0.134923 0.220609
O O7 0.040570 0.064332 0.048013
O O8 0.073925 0.189844 0.009414
O O9 0.129807 0.992888 0.198080
O O10 0.663718 0.143242 0.795976
O O11 0.892989 0.175197 0.869376
O O12 0.817461 0.052433 0.829486
O O13 0.615245 0.805709 0.283691
O O14 0.674259 0.929630 0.271032
O O15 0.008854 0.208599 0.392873
#
# Coordination Sequence:
#
# PCOD9366512 Si02
#       8
#     8   8   4   8   8   8   8   8
#     4  10  23  45  67 104 142 189 235 293 357 425
#     4  11  26  46  72 101 148 188 237 306 358 430
#     4  10  20  44  70 104 134 184 238 288 366 416
#     4  10  24  42  75  99 141 190 238 293 358 429
#     4  11  27  43  70 109 149 183 242 302 369 425
#     4  10  27  46  72 103 142 194 240 291 360 434
#     4  12  27  45  73 110 141 194 242 302 355 432
#     4  11  21  45  70 107 142 184 240 299 363 434
#
# _framework density 24.155283000000001
#
# number of rings (size 3 to 8) (size 9 to 14) (size 15 to 20)
#    0.800    0.533    2.667    1.200    5.600    3.200 
#   12.000    0.000    0.000    0.000    0.000    0.000 
#    0.000    0.000    0.000    0.000    0.000    0.000 
#
# Total GULP energy -167476.150647 kJ/mol
# GULP energy per Si atom -5582.538355 kJ/mol
# Density = 2.410030 g / cm^3
# Si number density = 24.155283 Si / 1000 Ang^3
#
#
#
# Elastic Constant Matrix: (Units=GPa)
#
#
# Indices 1 2 3 4 5 6 
#
# 1 89.0404 19.6320 27.0325 0.0000 0.0000 0.0000
# 2 19.6320 92.7917 16.3020 0.0000 0.0000 0.0000
# 3 27.0325 16.3020 70.9581 0.0000 0.0000 0.0000
# 4 0.0000 0.0000 0.0000 31.1844 0.0000 0.0000
# 5 0.0000 0.0000 0.0000 0.0000 28.7871 0.0000
# 6 0.0000 0.0000 0.0000 0.0000 0.0000 17.4750
#
#
#
# Elastic Compliance Matrix: (Units=1/GPa)
#
#
# Indices 1 2 3 4 5 6 
#
# 1 0.013035 -0.001965 -0.004514 0.000000 0.000000 0.000000
# 2 -0.001965 0.011526 -0.001900 0.000000 0.000000 0.000000
# 3 -0.004514 -0.001900 0.016249 0.000000 0.000000 0.000000
# 4 0.000000 0.000000 0.000000 0.032067 0.000000 0.000000
# 5 0.000000 0.000000 0.000000 0.000000 0.034738 0.000000
# 6 0.000000 0.000000 0.000000 0.000000 0.000000 0.057224
#
#
# Mechanical properties :
#
#
# Convention : Reuss Voigt Hill
#
# Bulk Modulus (GPa) = 41.57539 42.08035 41.82787
# Shear Modulus (GPa) = 26.36935 28.14423 27.25679
#
# Velocity S-wave (km/s) = 3.30761 3.41711 3.36281
# Velocity P-wave (km/s) = 5.64235 5.74695 5.69489
#
# Compressibility (1/GPa) = 0.02405269
#
# Stress axis : x y z
#
# Youngs Moduli (GPa) = 76.71906 86.75878 61.54208
#
# Poissons Ratio (x) = 0.17045 0.27782
# Poissons Ratio (y) = 0.15073 0.11690
# Poissons Ratio (z) = 0.34634 0.16481
#
# Static dielectric constant tensor:
#      x y z
#    x 1.977280 0.000000 0.000000 
#    y 0.000000 1.959140 0.000000 
#    z 0.000000 0.000000 1.953910 
# 
# From -- ./inp_files/5117.got.cif
#   From: 2010.05.17/outbox.cif.g08.bks.cpg/sg41_3_cif.got.tgz:5117.got - 2010.06.03 18:54:24.
