data_PCOD9366025
_publ_section_title
;
Structure prediction by ZEFSAII (Michael W. Deem and Ramdas Pophale) SiO2 
 PCOD9366025
Probable space group: A B A 2
;
_chemical_formula_sum "Si O2"
_cell_formula_units_Z 52
_cell_length_a 23.072681
_cell_length_b 5.353927
_cell_length_c 18.525816
_cell_angle_alpha 90.000000
_cell_angle_beta 90.000000
_cell_angle_gamma 90.000000
_cell_volume 2288.483857
_symmetry_space_group_name_H-M "A B A 2"
_symmetry_group_IT_number 41
_symmetry_cell_setting 'orthorhombic'
loop_
_space_group_symop_operation_xyz
x,y,z
-x,-y,z
1/2-x,y,1/2+z
1/2+x,-y,1/2+z
x,1/2+y,1/2+z
-x,1/2-y,1/2+z
1/2-x,1/2+y,z
1/2+x,1/2-y,z
loop_
_atom_site_type_symbol
_atom_site_label
_atom_site_fract_x
_atom_site_fract_y
_atom_site_fract_z
Si Si1 0.564312 0.380055 0.438220
Si Si2 0.782112 0.935458 0.767455
Si Si3 0.392462 0.613192 0.166148
Si Si4 0.899208 0.172079 0.307091
Si Si5 0.936210 0.883266 0.601077
Si Si6 0.500000 0.000000 0.344855
Si Si7 0.764596 0.950867 0.106173
O O1 0.500000 0.500000 0.442830
O O2 0.601777 0.556068 0.386804
O O3 0.586831 0.359124 0.519128
O O4 0.548622 0.126124 0.396080
O O5 0.740791 0.705426 0.791837
O O6 0.846541 0.858074 0.789979
O O7 0.774506 0.942946 0.679794
O O8 0.393683 0.555460 0.250788
O O9 0.433212 0.394138 0.133618
O O10 0.329836 0.547954 0.133859
O O11 0.404343 0.898587 0.145594
O O12 0.962472 0.302921 0.299329
O O13 0.000000 0.000000 0.597697
O O14 0.751062 0.699388 0.064836
#
# Coordination Sequence:
#
# PCOD9366025 Si02
#       7
#     8   8   8   8   8   4   8
#     4   9  23  44  66  91 131 187 223 263 338 419
#     4  10  21  37  63  95 128 174 219 271 333 407
#     4  12  25  39  68 103 130 169 225 285 330 388
#     4  11  24  40  70 102 135 170 233 286 340 403
#     4  11  27  44  64  94 140 182 220 267 342 413
#     4  10  24  40  74  98 144 178 236 276 358 406
#     4  10  19  37  62  93 125 169 215 265 336 402
#
# _framework density 22.722467000000002
#
# number of rings (size 3 to 8) (size 9 to 14) (size 15 to 20)
#    0.000    1.538    3.077    1.385   14.000    2.462 
#    0.000    0.000    0.000    5.538    0.000    0.000 
#    0.000    0.000    0.000    0.000    0.000    0.000 
#
# Total GULP energy -145286.634955 kJ/mol
# GULP energy per Si atom -5587.947498 kJ/mol
# Density = 2.267075 g / cm^3
# Si number density = 22.722467 Si / 1000 Ang^3
#
#
#
# Elastic Constant Matrix: (Units=GPa)
#
#
# Indices 1 2 3 4 5 6 
#
# 1 82.6300 30.1964 16.9414 0.0000 0.0000 0.0000
# 2 30.1964 131.8593 19.6926 0.0000 0.0000 0.0000
# 3 16.9414 19.6926 68.4571 0.0000 0.0000 0.0000
# 4 0.0000 0.0000 0.0000 17.0329 0.0000 0.0000
# 5 0.0000 0.0000 0.0000 0.0000 -7.4979 0.0000
# 6 0.0000 0.0000 0.0000 0.0000 0.0000 31.0861
#
#
#
# Elastic Compliance Matrix: (Units=1/GPa)
#
#
# Indices 1 2 3 4 5 6 
#
# 1 0.013632 -0.002736 -0.002587 0.000000 0.000000 0.000000
# 2 -0.002736 0.008473 -0.001760 0.000000 0.000000 0.000000
# 3 -0.002587 -0.001760 0.015754 0.000000 0.000000 0.000000
# 4 0.000000 0.000000 0.000000 0.058710 0.000000 0.000000
# 5 0.000000 0.000000 0.000000 0.000000 -0.133371 0.000000
# 6 0.000000 0.000000 0.000000 0.000000 0.000000 0.032169
#
#
# Mechanical properties :
#
#
# Convention : Reuss Voigt Hill
#
# Bulk Modulus (GPa) = 42.20432 46.28969 44.24700
# Shear Modulus (GPa) = 286.85868 22.53196 154.69532
#
# Velocity S-wave (km/s) = 11.24805 3.15241 8.26003
# Velocity P-wave (km/s) = 13.68596 5.80226 10.51123
#
# Compressibility (1/GPa) = 0.02369426
#
# Stress axis : x y z
#
# Youngs Moduli (GPa) = 73.35592 118.01912 63.47490
#
# Poissons Ratio (x) = 0.32284 0.16419
# Poissons Ratio (y) = 0.20067 0.11174
# Poissons Ratio (z) = 0.18975 0.20777
#
# Static dielectric constant tensor:
#      x y z
#    x 1.869480 0.000000 0.000000 
#    y 0.000000 1.958010 0.000000 
#    z 0.000000 0.000000 1.824410 
# 
# From -- ./inp_files/11700.got.cif
#   From: 2010.05.17/outbox.cif.g08.bks.cpg/sg41_6_cif.got.tgz:11700.got - 2010.06.03 18:54:24.
