data_PCOD9366906
_publ_section_title
;
Structure prediction by ZEFSAII (Michael W. Deem and Ramdas Pophale) SiO2 
 PCOD9366906
Probable space group: A B A 2
;
_chemical_formula_sum "Si O2"
_cell_formula_units_Z 32
_cell_length_a 8.072243
_cell_length_b 11.516370
_cell_length_c 13.709534
_cell_angle_alpha 90.000000
_cell_angle_beta 90.000000
_cell_angle_gamma 90.000000
_cell_volume 1274.478547
_symmetry_space_group_name_H-M "A B A 2"
_symmetry_group_IT_number 41
_symmetry_cell_setting 'orthorhombic'
loop_
_space_group_symop_operation_xyz
x,y,z
-x,-y,z
1/2-x,y,1/2+z
1/2+x,-y,1/2+z
x,1/2+y,1/2+z
-x,1/2-y,1/2+z
1/2-x,1/2+y,z
1/2+x,1/2-y,z
loop_
_atom_site_type_symbol
_atom_site_label
_atom_site_fract_x
_atom_site_fract_y
_atom_site_fract_z
Si Si1 0.556159 0.152864 0.366970
Si Si2 0.392752 0.611657 0.673782
Si Si3 0.584383 0.806019 0.565410
Si Si4 0.591504 0.119840 0.907888
O O1 0.419918 0.113030 0.289545
O O2 0.845840 0.195444 0.501602
O O3 0.545193 0.293085 0.363980
O O4 0.741576 0.111639 0.344821
O O5 0.500000 0.500000 0.640825
O O6 0.467465 0.735273 0.638116
O O7 0.213504 0.616343 0.624478
O O8 0.499867 0.874969 0.476912
O O9 0.500000 0.000000 0.926472
#
# Coordination Sequence:
#
# PCOD9366906 Si02
#       4
#     8   8   8   8
#     4  10  23  44  70 117 158 198 268 330 380 486
#     4  12  25  46  77 112 153 202 264 328 399 468
#     4  10  22  47  71 109 154 195 259 331 381 477
#     4  10  21  43  75 107 156 209 250 322 404 451
#
# _framework density 25.108308000000001
#
# number of rings (size 3 to 8) (size 9 to 14) (size 15 to 20)
#    1.500    0.000    2.500    2.250    0.000    4.000 
#    4.500    1.250    0.000    0.000    0.000    0.000 
#    0.000    0.000    0.000    0.000    0.000    0.000 
#
# Total GULP energy -89225.153000 kJ/mol
# GULP energy per Si atom -5576.572062 kJ/mol
# Density = 2.505116 g / cm^3
# Si number density = 25.108308 Si / 1000 Ang^3
#
#
#
# Elastic Constant Matrix: (Units=GPa)
#
#
# Indices 1 2 3 4 5 6 
#
# 1 128.5353 37.1272 37.5642 0.0000 0.0000 0.0000
# 2 37.1272 148.9499 13.9161 0.0000 0.0000 0.0000
# 3 37.5642 13.9161 71.1140 0.0000 0.0000 0.0000
# 4 0.0000 0.0000 0.0000 9.2455 0.0000 0.0000
# 5 0.0000 0.0000 0.0000 0.0000 24.5815 0.0000
# 6 0.0000 0.0000 0.0000 0.0000 0.0000 44.6106
#
#
#
# Elastic Compliance Matrix: (Units=1/GPa)
#
#
# Indices 1 2 3 4 5 6 
#
# 1 0.009744 -0.001984 -0.004759 0.000000 0.000000 0.000000
# 2 -0.001984 0.007243 -0.000369 0.000000 0.000000 0.000000
# 3 -0.004759 -0.000369 0.016648 0.000000 0.000000 0.000000
# 4 0.000000 0.000000 0.000000 0.108161 0.000000 0.000000
# 5 0.000000 0.000000 0.000000 0.000000 0.040681 0.000000
# 6 0.000000 0.000000 0.000000 0.000000 0.000000 0.022416
#
#
# Mechanical properties :
#
#
# Convention : Reuss Voigt Hill
#
# Bulk Modulus (GPa) = 51.51904 58.42378 54.97141
# Shear Modulus (GPa) = 22.16446 33.02031 27.59239
#
# Velocity S-wave (km/s) = 2.97434 3.63039 3.31861
# Velocity P-wave (km/s) = 5.68849 6.39470 6.05190
#
# Compressibility (1/GPa) = 0.01941030
#
# Stress axis : x y z
#
# Youngs Moduli (GPa) = 102.62956 138.06949 60.06797
#
# Poissons Ratio (x) = 0.27395 0.28584
# Poissons Ratio (y) = 0.20363 0.02218
# Poissons Ratio (z) = 0.48838 0.05098
#
# Static dielectric constant tensor:
#      x y z
#    x 1.992540 0.000000 0.000000 
#    y 0.000000 1.995210 0.000000 
#    z 0.000000 0.000000 2.061290 
# 
# From -- ./inp_files/7076.got.cif
#   From: 2010.05.17/outbox.cif.g08.bks.cpg/sg41_4_cif.got.tgz:7076.got - 2010.06.03 18:54:24.
