data_PCOD9366475
_publ_section_title
;
Structure prediction by ZEFSAII (Michael W. Deem and Ramdas Pophale) SiO2 
 PCOD9366475
Probable space group: A B A 2
;
_chemical_formula_sum "Si O2"
_cell_formula_units_Z 36
_cell_length_a 9.944273
_cell_length_b 14.115114
_cell_length_c 11.454443
_cell_angle_alpha 90.000000
_cell_angle_beta 90.000000
_cell_angle_gamma 90.000000
_cell_volume 1607.797703
_symmetry_space_group_name_H-M "A B A 2"
_symmetry_group_IT_number 41
_symmetry_cell_setting 'orthorhombic'
loop_
_space_group_symop_operation_xyz
x,y,z
-x,-y,z
1/2-x,y,1/2+z
1/2+x,-y,1/2+z
x,1/2+y,1/2+z
-x,1/2-y,1/2+z
1/2-x,1/2+y,z
1/2+x,1/2-y,z
loop_
_atom_site_type_symbol
_atom_site_label
_atom_site_fract_x
_atom_site_fract_y
_atom_site_fract_z
Si Si1 0.096886 0.852239 0.329370
Si Si2 0.566768 0.625503 0.585012
Si Si3 0.838309 0.776422 0.255592
Si Si4 0.000000 0.500000 0.633670
Si Si5 0.780065 0.446946 0.134483
O O1 0.112335 0.899878 0.454393
O O2 0.225767 0.790864 0.304819
O O3 0.059554 0.920210 0.221611
O O4 0.967774 0.783697 0.336755
O O5 0.611196 0.727328 0.634412
O O6 0.644576 0.545838 0.661454
O O7 0.405648 0.613229 0.585099
O O8 0.774663 0.880273 0.238128
O O9 0.136737 0.533656 0.569043
#
# Coordination Sequence:
#
# PCOD9366475 Si02
#       5
#     8   8   8   4   8
#     4  11  24  41  68  96 132 175 222 272 331 396
#     4  11  23  43  66  95 135 177 220 273 335 396
#     4  11  23  43  64  98 134 172 221 279 328 393
#     4  10  20  42  68  94 132 174 216 268 334 384
#     4  10  22  41  68  92 132 176 213 277 329 390
#
# _framework density 22.390875000000001
#
# number of rings (size 3 to 8) (size 9 to 14) (size 15 to 20)
#    0.000    1.333    4.444    1.333    3.111    0.000 
#    0.000    0.000    0.000    0.000    0.000    0.000 
#    0.000    0.000    0.000    0.000    0.000    0.000 
#
# Total GULP energy -100257.587022 kJ/mol
# GULP energy per Si atom -5569.865946 kJ/mol
# Density = 2.233991 g / cm^3
# Si number density = 22.390875 Si / 1000 Ang^3
#
#
#
# Elastic Constant Matrix: (Units=GPa)
#
#
# Indices 1 2 3 4 5 6 
#
# 1 199.6135 34.8119 20.7372 0.0000 0.0000 0.0000
# 2 34.8119 66.1790 6.9024 0.0000 0.0000 0.0000
# 3 20.7372 6.9024 29.7629 0.0000 0.0000 0.0000
# 4 0.0000 0.0000 0.0000 6.1197 0.0000 0.0000
# 5 0.0000 0.0000 0.0000 0.0000 2.1017 0.0000
# 6 0.0000 0.0000 0.0000 0.0000 0.0000 48.2022
#
#
#
# Elastic Compliance Matrix: (Units=1/GPa)
#
#
# Indices 1 2 3 4 5 6 
#
# 1 0.005840 -0.002713 -0.003440 0.000000 0.000000 0.000000
# 2 -0.002713 0.016746 -0.001993 0.000000 0.000000 0.000000
# 3 -0.003440 -0.001993 0.036458 0.000000 0.000000 0.000000
# 4 0.000000 0.000000 0.000000 0.163407 0.000000 0.000000
# 5 0.000000 0.000000 0.000000 0.000000 0.475800 0.000000
# 6 0.000000 0.000000 0.000000 0.000000 0.000000 0.020746
#
#
# Mechanical properties :
#
#
# Convention : Reuss Voigt Hill
#
# Bulk Modulus (GPa) = 23.39112 46.71759 35.05436
# Shear Modulus (GPa) = 6.67077 26.82498 16.74787
#
# Velocity S-wave (km/s) = 1.72792 3.46501 2.73788
# Velocity P-wave (km/s) = 3.80136 6.07604 5.06797
#
# Compressibility (1/GPa) = 0.04275126
#
# Stress axis : x y z
#
# Youngs Moduli (GPa) = 171.22586 59.71684 27.42892
#
# Poissons Ratio (x) = 0.16203 0.09435
# Poissons Ratio (y) = 0.46459 0.05467
# Poissons Ratio (z) = 0.58900 0.11902
#
# Static dielectric constant tensor:
#      x y z
#    x 1.854040 0.000000 0.000000 
#    y 0.000000 1.892900 0.000000 
#    z 0.000000 0.000000 1.830900 
# 
# From -- ./inp_files/4800.got.cif
#   From: 2010.05.17/outbox.cif.g08.bks.cpg/sg41_3_cif.got.tgz:4800.got - 2010.06.03 18:54:24.
