data_PCOD9366802
_publ_section_title
;
Structure prediction by ZEFSAII (Michael W. Deem and Ramdas Pophale) SiO2 
 PCOD9366802
Probable space group: A B A 2
;
_chemical_formula_sum "Si O2"
_cell_formula_units_Z 32
_cell_length_a 8.007663
_cell_length_b 13.696142
_cell_length_c 12.802317
_cell_angle_alpha 90.000000
_cell_angle_beta 90.000000
_cell_angle_gamma 90.000000
_cell_volume 1404.082461
_symmetry_space_group_name_H-M "A B A 2"
_symmetry_group_IT_number 41
_symmetry_cell_setting 'orthorhombic'
loop_
_space_group_symop_operation_xyz
x,y,z
-x,-y,z
1/2-x,y,1/2+z
1/2+x,-y,1/2+z
x,1/2+y,1/2+z
-x,1/2-y,1/2+z
1/2-x,1/2+y,z
1/2+x,1/2-y,z
loop_
_atom_site_type_symbol
_atom_site_label
_atom_site_fract_x
_atom_site_fract_y
_atom_site_fract_z
Si Si1 0.542852 0.108890 0.250000
Si Si2 0.163219 0.933638 0.398750
Si Si3 0.021140 0.718552 0.043157
Si Si4 0.852639 0.883475 0.963229
O O1 0.725657 0.102656 0.301867
O O2 0.522713 0.186155 0.159351
O O3 0.411572 0.129902 0.343389
O O4 0.500000 0.000000 0.208426
O O5 0.097442 0.843353 0.465219
O O6 0.286977 0.005881 0.463663
O O7 0.000000 0.000000 0.370970
O O8 0.001799 0.834016 0.027735
O O9 0.199717 0.678974 0.007733
#
# Coordination Sequence:
#
# PCOD9366802 Si02
#       4
#     8   8   8   8
#     4  10  21  41  65  90 126 169 208 257 318 381
#     4   9  20  41  64  91 127 162 208 265 316 380
#     4  11  22  40  62  90 125 165 210 264 321 382
#     4  10  22  38  60  89 124 162 209 260 311 375
#
# _framework density 22.790685
#
# number of rings (size 3 to 8) (size 9 to 14) (size 15 to 20)
#    0.000    2.000    0.000    3.750    0.000    4.000 
#    0.000   21.250    0.000    0.000    0.000    0.000 
#    0.000    0.000    0.000    0.000    0.000    0.000 
#
# Total GULP energy -89348.217202 kJ/mol
# GULP energy per Si atom -5584.263575 kJ/mol
# Density = 2.273881 g / cm^3
# Si number density = 22.790685 Si / 1000 Ang^3
#
#
#
# Elastic Constant Matrix: (Units=GPa)
#
#
# Indices 1 2 3 4 5 6 
#
# 1 96.6355 46.4554 37.3757 0.0000 0.0000 0.0000
# 2 46.4554 79.0340 38.0445 0.0000 0.0000 0.0000
# 3 37.3757 38.0445 57.0122 0.0000 0.0000 0.0000
# 4 0.0000 0.0000 0.0000 18.6464 0.0000 0.0000
# 5 0.0000 0.0000 0.0000 0.0000 18.4408 0.0000
# 6 0.0000 0.0000 0.0000 0.0000 0.0000 43.8230
#
#
#
# Elastic Compliance Matrix: (Units=1/GPa)
#
#
# Indices 1 2 3 4 5 6 
#
# 1 0.015747 -0.006315 -0.006109 0.000000 0.000000 0.000000
# 2 -0.006315 0.021173 -0.009989 0.000000 0.000000 0.000000
# 3 -0.006109 -0.009989 0.028211 0.000000 0.000000 0.000000
# 4 0.000000 0.000000 0.000000 0.053630 0.000000 0.000000
# 5 0.000000 0.000000 0.000000 0.000000 0.054228 0.000000
# 6 0.000000 0.000000 0.000000 0.000000 0.000000 0.022819
#
#
# Mechanical properties :
#
#
# Convention : Reuss Voigt Hill
#
# Bulk Modulus (GPa) = 49.25032 52.93697 51.09365
# Shear Modulus (GPa) = 20.21009 23.56912 21.88960
#
# Velocity S-wave (km/s) = 2.98110 3.21932 3.10250
# Velocity P-wave (km/s) = 5.78844 6.09070 5.94149
#
# Compressibility (1/GPa) = 0.02030444
#
# Stress axis : x y z
#
# Youngs Moduli (GPa) = 63.50480 47.22991 35.44751
#
# Poissons Ratio (x) = 0.29826 0.21655
# Poissons Ratio (y) = 0.40104 0.35408
# Poissons Ratio (z) = 0.38796 0.47177
#
# Static dielectric constant tensor:
#      x y z
#    x 1.931050 0.000000 0.000000 
#    y 0.000000 1.885140 0.000000 
#    z 0.000000 0.000000 1.801640 
# 
# From -- ./inp_files/4273.got.cif
#   From: 2010.05.17/outbox.cif.g08.bks.cpg/sg41_3_cif.got.tgz:4273.got - 2010.06.03 18:54:24.
