data_PCOD9366366
_publ_section_title
;
Structure prediction by ZEFSAII (Michael W. Deem and Ramdas Pophale) SiO2 
 PCOD9366366
Probable space group: A B A 2
;
_chemical_formula_sum "Si O2"
_cell_formula_units_Z 60
_cell_length_a 27.440811
_cell_length_b 11.102865
_cell_length_c 8.485551
_cell_angle_alpha 90.000000
_cell_angle_beta 90.000000
_cell_angle_gamma 90.000000
_cell_volume 2585.306570
_symmetry_space_group_name_H-M "A B A 2"
_symmetry_group_IT_number 41
_symmetry_cell_setting 'orthorhombic'
loop_
_space_group_symop_operation_xyz
x,y,z
-x,-y,z
1/2-x,y,1/2+z
1/2+x,-y,1/2+z
x,1/2+y,1/2+z
-x,1/2-y,1/2+z
1/2-x,1/2+y,z
1/2+x,1/2-y,z
loop_
_atom_site_type_symbol
_atom_site_label
_atom_site_fract_x
_atom_site_fract_y
_atom_site_fract_z
Si Si1 0.554462 0.818968 0.373480
Si Si2 0.211761 0.837229 0.787723
Si Si3 0.147394 0.576509 0.267082
Si Si4 0.304214 0.792155 0.951815
Si Si5 0.961291 0.766810 0.244654
Si Si6 0.000000 0.000000 0.429101
Si Si7 0.599693 0.080138 0.901609
Si Si8 0.367260 0.666226 0.410285
O O1 0.594614 0.921719 0.352449
O O2 0.546278 0.791551 0.559336
O O3 0.503201 0.830947 0.284051
O O4 0.579775 0.695311 0.304869
O O5 0.264589 0.867440 0.855943
O O6 0.219207 0.773043 0.620331
O O7 0.182282 0.737150 0.884522
O O8 0.178229 0.954936 0.776221
O O9 0.180434 0.675456 0.355743
O O10 0.134691 0.621470 0.090456
O O11 0.354560 0.861126 0.986581
O O12 0.983810 0.888080 0.321773
O O13 0.911274 0.751214 0.342848
O O14 0.052182 0.962597 0.501387
O O15 0.621630 0.961052 0.819659
#
# Coordination Sequence:
#
# PCOD9366366 Si02
#       8
#     8   8   8   8   8   4   8   8
#     4  10  21  42  65 106 142 188 239 288 356 420
#     4  12  27  47  70 104 137 185 238 288 358 423
#     4  11  25  46  69 102 139 181 236 291 351 429
#     4  11  25  47  69  99 143 179 234 297 348 420
#     4  10  20  39  67  98 144 187 235 292 349 425
#     4   8  18  36  62 100 132 184 230 272 356 406
#     4   9  19  40  69  95 137 183 223 286 351 412
#     4  11  22  43  70  99 136 183 231 290 354 416
#
# _framework density 23.208078
#
# number of rings (size 3 to 8) (size 9 to 14) (size 15 to 20)
#    0.000    1.600    1.333    3.200    1.867    1.067 
#   24.000    0.000    0.000    0.000    0.000    0.000 
#    0.000    0.000    0.000    0.000    0.000    0.000 
#
# Total GULP energy -167186.681163 kJ/mol
# GULP energy per Si atom -5572.889372 kJ/mol
# Density = 2.315526 g / cm^3
# Si number density = 23.208078 Si / 1000 Ang^3
#
#
#
# Elastic Constant Matrix: (Units=GPa)
#
#
# Indices 1 2 3 4 5 6 
#
# 1 120.0148 25.1111 46.6225 0.0000 0.0000 0.0000
# 2 25.1111 73.4449 13.4027 0.0000 0.0000 0.0000
# 3 46.6225 13.4027 101.9130 0.0000 0.0000 0.0000
# 4 0.0000 0.0000 0.0000 17.3203 0.0000 0.0000
# 5 0.0000 0.0000 0.0000 0.0000 27.8785 0.0000
# 6 0.0000 0.0000 0.0000 0.0000 0.0000 30.3879
#
#
#
# Elastic Compliance Matrix: (Units=1/GPa)
#
#
# Indices 1 2 3 4 5 6 
#
# 1 0.010677 -0.002827 -0.004513 0.000000 0.000000 0.000000
# 2 -0.002827 0.014699 -0.000640 0.000000 0.000000 0.000000
# 3 -0.004513 -0.000640 0.011961 0.000000 0.000000 0.000000
# 4 0.000000 0.000000 0.000000 0.057736 0.000000 0.000000
# 5 0.000000 0.000000 0.000000 0.000000 0.035870 0.000000
# 6 0.000000 0.000000 0.000000 0.000000 0.000000 0.032908
#
#
# Mechanical properties :
#
#
# Convention : Reuss Voigt Hill
#
# Bulk Modulus (GPa) = 46.77734 51.73837 49.25785
# Shear Modulus (GPa) = 26.74732 29.13312 27.94022
#
# Velocity S-wave (km/s) = 3.39853 3.54687 3.47349
# Velocity P-wave (km/s) = 5.96652 6.25423 6.11207
#
# Compressibility (1/GPa) = 0.02137787
#
# Stress axis : x y z
#
# Youngs Moduli (GPa) = 93.66094 68.03205 83.60634
#
# Poissons Ratio (x) = 0.19232 0.37728
# Poissons Ratio (y) = 0.26478 0.05349
# Poissons Ratio (z) = 0.42265 0.04353
#
# Static dielectric constant tensor:
#      x y z
#    x 1.946650 0.000000 0.000000 
#    y 0.000000 1.922930 0.000000 
#    z 0.000000 0.000000 1.853280 
# 
# From -- ./inp_files/3802.got.cif
#   From: 2010.05.17/outbox.cif.g08.bks.cpg/sg41_2_cif.got.tgz:3802.got - 2010.06.03 18:54:24.
