data_PCOD9366468
_publ_section_title
;
Structure prediction by ZEFSAII (Michael W. Deem and Ramdas Pophale) SiO2 
 PCOD9366468
Probable space group: A B A 2
;
_chemical_formula_sum "Si O2"
_cell_formula_units_Z 44
_cell_length_a 18.776976
_cell_length_b 12.564600
_cell_length_c 7.725746
_cell_angle_alpha 90.000000
_cell_angle_beta 90.000000
_cell_angle_gamma 90.000000
_cell_volume 1822.698113
_symmetry_space_group_name_H-M "A B A 2"
_symmetry_group_IT_number 41
_symmetry_cell_setting 'orthorhombic'
loop_
_space_group_symop_operation_xyz
x,y,z
-x,-y,z
1/2-x,y,1/2+z
1/2+x,-y,1/2+z
x,1/2+y,1/2+z
-x,1/2-y,1/2+z
1/2-x,1/2+y,z
1/2+x,1/2-y,z
loop_
_atom_site_type_symbol
_atom_site_label
_atom_site_fract_x
_atom_site_fract_y
_atom_site_fract_z
Si Si1 0.109379 0.727434 0.396330
Si Si2 0.223322 0.147249 0.130346
Si Si3 0.154483 0.937922 0.199957
Si Si4 0.832606 0.226562 0.935216
Si Si5 0.500000 0.000000 0.801077
Si Si6 0.524651 0.800510 0.050489
O O1 0.170719 0.651029 0.464501
O O2 0.145857 0.839468 0.335613
O O3 0.060318 0.687172 0.237939
O O4 0.052418 0.746855 0.548865
O O5 0.197870 0.245650 0.249965
O O6 0.205099 0.038881 0.230489
O O7 0.300161 0.179767 0.059115
O O8 0.072117 0.978481 0.193430
O O9 0.184736 0.884357 0.025414
O O10 0.917030 0.230993 0.949778
O O11 0.515569 0.903426 0.931572
#
# Coordination Sequence:
#
# PCOD9366468 Si02
#       6
#     8   8   8   8   4   8
#     4  10  23  43  70 102 139 181 232 287 345 417
#     4  12  25  47  69  98 141 187 228 287 356 421
#     4  10  24  45  70 103 136 182 226 288 347 418
#     4  11  24  42  70 100 138 180 231 287 346 418
#     4  10  20  44  74 102 144 182 234 292 354 420
#     4  10  20  42  66  99 139 175 229 290 338 409
#
# _framework density 24.140035999999998
#
# number of rings (size 3 to 8) (size 9 to 14) (size 15 to 20)
#    0.000    1.455    1.818    3.273    5.091    2.909 
#   13.091    0.000    0.000    0.000    0.000    0.000 
#    0.000    0.000    0.000    0.000    0.000    0.000 
#
# Total GULP energy -122871.352497 kJ/mol
# GULP energy per Si atom -5585.061477 kJ/mol
# Density = 2.408509 g / cm^3
# Si number density = 24.140036 Si / 1000 Ang^3
#
#
#
# Elastic Constant Matrix: (Units=GPa)
#
#
# Indices 1 2 3 4 5 6 
#
# 1 115.0359 35.2518 17.4416 0.0000 0.0000 0.0000
# 2 35.2518 99.3461 12.7536 0.0000 0.0000 0.0000
# 3 17.4416 12.7536 97.0786 0.0000 0.0000 0.0000
# 4 0.0000 0.0000 0.0000 30.3706 0.0000 0.0000
# 5 0.0000 0.0000 0.0000 0.0000 43.3652 0.0000
# 6 0.0000 0.0000 0.0000 0.0000 0.0000 34.2199
#
#
#
# Elastic Compliance Matrix: (Units=1/GPa)
#
#
# Indices 1 2 3 4 5 6 
#
# 1 0.009923 -0.003349 -0.001343 0.000000 0.000000 0.000000
# 2 -0.003349 0.011369 -0.000892 0.000000 0.000000 0.000000
# 3 -0.001343 -0.000892 0.010659 0.000000 0.000000 0.000000
# 4 0.000000 0.000000 0.000000 0.032927 0.000000 0.000000
# 5 0.000000 0.000000 0.000000 0.000000 0.023060 0.000000
# 6 0.000000 0.000000 0.000000 0.000000 0.000000 0.029223
#
#
# Mechanical properties :
#
#
# Convention : Reuss Voigt Hill
#
# Bulk Modulus (GPa) = 48.11407 49.15051 48.63229
# Shear Modulus (GPa) = 36.96736 37.99204 37.47970
#
# Velocity S-wave (km/s) = 3.91752 3.97144 3.94457
# Velocity P-wave (km/s) = 6.35902 6.43697 6.39811
#
# Compressibility (1/GPa) = 0.02078394
#
# Stress axis : x y z
#
# Youngs Moduli (GPa) = 100.77923 87.96221 93.81416
#
# Poissons Ratio (x) = 0.29455 0.12598
# Poissons Ratio (y) = 0.33747 0.08367
# Poissons Ratio (z) = 0.13533 0.07845
#
# Static dielectric constant tensor:
#      x y z
#    x 1.924580 0.000000 0.000000 
#    y 0.000000 1.932870 0.000000 
#    z 0.000000 0.000000 1.983400 
# 
# From -- ./inp_files/3586.got.cif
#   From: 2010.05.17/outbox.cif.g08.bks.cpg/sg41_2_cif.got.tgz:3586.got - 2010.06.03 18:54:24.
