data_PCOD9366959
_publ_section_title
;
Structure prediction by ZEFSAII (Michael W. Deem and Ramdas Pophale) SiO2 
 PCOD9366959
Probable space group: A B A 2
;
_chemical_formula_sum "Si O2"
_cell_formula_units_Z 64
_cell_length_a 23.634688
_cell_length_b 16.226571
_cell_length_c 8.226809
_cell_angle_alpha 90.000000
_cell_angle_beta 90.000000
_cell_angle_gamma 90.000000
_cell_volume 3155.063050
_symmetry_space_group_name_H-M "A B A 2"
_symmetry_group_IT_number 41
_symmetry_cell_setting 'orthorhombic'
loop_
_space_group_symop_operation_xyz
x,y,z
-x,-y,z
1/2-x,y,1/2+z
1/2+x,-y,1/2+z
x,1/2+y,1/2+z
-x,1/2-y,1/2+z
1/2-x,1/2+y,z
1/2+x,1/2-y,z
loop_
_atom_site_type_symbol
_atom_site_label
_atom_site_fract_x
_atom_site_fract_y
_atom_site_fract_z
Si Si1 0.823136 0.324547 0.432250
Si Si2 0.253667 0.754961 0.210633
Si Si3 0.372788 0.011421 0.532590
Si Si4 0.332906 0.828148 0.480569
Si Si5 0.940529 0.210353 0.803326
Si Si6 0.063965 0.463781 0.863453
Si Si7 0.065164 0.981293 0.716432
Si Si8 0.936863 0.234923 0.429511
O O1 0.774638 0.325139 0.294544
O O2 0.796410 0.264225 0.566186
O O3 0.832703 0.410210 0.523780
O O4 0.882093 0.285234 0.369338
O O5 0.289344 0.807247 0.337627
O O6 0.199175 0.801838 0.142506
O O7 0.343847 0.924750 0.492951
O O8 0.404480 0.996545 0.703070
O O9 0.412547 0.027357 0.374832
O O10 0.390428 0.777837 0.435299
O O11 0.932896 0.114484 0.761254
O O12 0.934019 0.249912 0.625204
O O13 0.002465 0.231694 0.869786
O O14 0.064778 0.362959 0.879793
O O15 0.000000 0.500000 0.851656
O O16 0.090446 0.494558 0.036108
O O17 0.000000 0.000000 0.695961
#
# Coordination Sequence:
#
# PCOD9366959 Si02
#       8
#     8   8   8   8   8   8   8   8
#     4  11  24  43  65  99 126 171 221 276 329 389
#     4  10  23  45  68  86 132 171 223 273 324 394
#     4  11  23  39  67  95 128 167 220 279 331 390
#     4  10  22  44  66  94 125 175 216 269 332 395
#     4  10  22  35  62  94 128 165 217 262 324 395
#     4  10  23  39  61  93 136 180 216 260 329 400
#     4   9  19  39  55  89 133 172 212 257 320 396
#     4  11  23  38  63  98 132 171 216 268 330 397
#
# _framework density 20.284856000000001
#
# number of rings (size 3 to 8) (size 9 to 14) (size 15 to 20)
#    0.000    1.750    1.250    1.875    7.000    1.000 
#    4.500    0.000    0.000    0.000    0.000    0.000 
#    0.000    0.000    0.000    0.000    0.000    0.000 
#
# Total GULP energy -178292.559787 kJ/mol
# GULP energy per Si atom -5571.642493 kJ/mol
# Density = 2.023869 g / cm^3
# Si number density = 20.284856 Si / 1000 Ang^3
#
#
#
# Elastic Constant Matrix: (Units=GPa)
#
#
# Indices 1 2 3 4 5 6 
#
# 1 102.6338 20.5239 46.1382 0.0000 0.0000 0.0000
# 2 20.5239 45.3300 19.1448 0.0000 0.0000 0.0000
# 3 46.1382 19.1448 64.1431 0.0000 0.0000 0.0000
# 4 0.0000 0.0000 0.0000 10.2469 0.0000 0.0000
# 5 0.0000 0.0000 0.0000 0.0000 43.1638 0.0000
# 6 0.0000 0.0000 0.0000 0.0000 0.0000 17.6110
#
#
#
# Elastic Compliance Matrix: (Units=1/GPa)
#
#
# Indices 1 2 3 4 5 6 
#
# 1 0.014642 -0.002496 -0.009787 0.000000 0.000000 0.000000
# 2 -0.002496 0.025668 -0.005866 0.000000 0.000000 0.000000
# 3 -0.009787 -0.005866 0.024381 0.000000 0.000000 0.000000
# 4 0.000000 0.000000 0.000000 0.097591 0.000000 0.000000
# 5 0.000000 0.000000 0.000000 0.000000 0.023168 0.000000
# 6 0.000000 0.000000 0.000000 0.000000 0.000000 0.056783
#
#
# Mechanical properties :
#
#
# Convention : Reuss Voigt Hill
#
# Bulk Modulus (GPa) = 35.21976 42.63563 38.92770
# Shear Modulus (GPa) = 17.36144 22.62432 19.99288
#
# Velocity S-wave (km/s) = 2.92872 3.34328 3.14284
# Velocity P-wave (km/s) = 5.36999 5.99729 5.69229
#
# Compressibility (1/GPa) = 0.02839315
#
# Stress axis : x y z
#
# Youngs Moduli (GPa) = 68.29535 38.95915 41.01571
#
# Poissons Ratio (x) = 0.09724 0.40143
# Poissons Ratio (y) = 0.17046 0.24059
# Poissons Ratio (z) = 0.66842 0.22852
#
# Static dielectric constant tensor:
#      x y z
#    x 1.734940 0.000000 0.000000 
#    y 0.000000 1.653600 0.000000 
#    z 0.000000 0.000000 1.831970 
# 
# From -- ./inp_files/3508.got.cif
#   From: 2010.05.17/outbox.cif.g08.bks.cpg/sg41_2_cif.got.tgz:3508.got - 2010.06.03 18:54:24.
