data_PCOD9366396
_publ_section_title
;
Structure prediction by ZEFSAII (Michael W. Deem and Ramdas Pophale) SiO2 
 PCOD9366396
Probable space group: A B A 2
;
_chemical_formula_sum "Si O2"
_cell_formula_units_Z 60
_cell_length_a 17.086722
_cell_length_b 9.281552
_cell_length_c 18.116781
_cell_angle_alpha 90.000000
_cell_angle_beta 90.000000
_cell_angle_gamma 90.000000
_cell_volume 2873.163828
_symmetry_space_group_name_H-M "A B A 2"
_symmetry_group_IT_number 41
_symmetry_cell_setting 'orthorhombic'
loop_
_space_group_symop_operation_xyz
x,y,z
-x,-y,z
1/2-x,y,1/2+z
1/2+x,-y,1/2+z
x,1/2+y,1/2+z
-x,1/2-y,1/2+z
1/2-x,1/2+y,z
1/2+x,1/2-y,z
loop_
_atom_site_type_symbol
_atom_site_label
_atom_site_fract_x
_atom_site_fract_y
_atom_site_fract_z
Si Si1 0.315880 0.282344 0.252270
Si Si2 0.318993 0.250642 0.649605
Si Si3 0.079576 0.483471 0.652651
Si Si4 0.759713 0.306541 0.994340
Si Si5 0.426038 0.743086 0.539947
Si Si6 0.826992 0.077214 0.408429
Si Si7 0.590003 0.456708 0.683579
Si Si8 0.000000 0.000000 0.447271
O O1 0.233582 0.226266 0.221663
O O2 0.353302 0.394364 0.193805
O O3 0.305473 0.372042 0.326591
O O4 0.373412 0.143525 0.248140
O O5 0.264317 0.209023 0.580142
O O6 0.355475 0.408565 0.660995
O O7 0.389895 0.142087 0.640465
O O8 0.058162 0.394141 0.579211
O O9 0.000000 0.500000 0.698913
O O10 0.690713 0.220432 0.955002
O O11 0.775439 0.457330 0.952255
O O12 0.846796 0.238294 0.992698
O O13 0.410528 0.639016 0.609751
O O14 0.487604 0.647663 0.494260
O O15 0.916988 0.024619 0.407511
O O16 0.500000 0.500000 0.699631
#
# Coordination Sequence:
#
# PCOD9366396 Si02
#       8
#     8   8   8   8   8   8   8   4
#     4  11  26  43  65  97 133 185 224 279 353 419
#     4  12  22  40  73  95 133 170 231 287 334 408
#     4  11  24  37  65 100 130 165 224 286 338 399
#     4  11  23  41  67 101 127 181 225 286 335 415
#     4  10  20  40  65 101 130 167 229 277 349 403
#     4  11  27  44  69  95 145 179 233 280 357 422
#     4  11  22  40  69  98 133 175 231 281 349 410
#     4  10  22  44  72  92 138 192 224 288 358 416
#
# _framework density 20.882902999999999
#
# number of rings (size 3 to 8) (size 9 to 14) (size 15 to 20)
#    0.000    1.067    3.333    4.800    6.533    0.000 
#    0.000    0.000    2.933    0.000    0.000    0.000 
#    0.000    0.000    0.000    0.000    0.000    0.000 
#
# Total GULP energy -167194.498307 kJ/mol
# GULP energy per Si atom -5573.149944 kJ/mol
# Density = 2.083537 g / cm^3
# Si number density = 20.882903 Si / 1000 Ang^3
#
#
#
# Elastic Constant Matrix: (Units=GPa)
#
#
# Indices 1 2 3 4 5 6 
#
# 1 82.5699 18.8395 17.4310 0.0000 0.0000 0.0000
# 2 18.8395 94.5949 30.7653 0.0000 0.0000 0.0000
# 3 17.4310 30.7653 84.0834 0.0000 0.0000 0.0000
# 4 0.0000 0.0000 0.0000 -41.8190 0.0000 0.0000
# 5 0.0000 0.0000 0.0000 0.0000 7.8314 0.0000
# 6 0.0000 0.0000 0.0000 0.0000 0.0000 41.8517
#
#
#
# Elastic Compliance Matrix: (Units=1/GPa)
#
#
# Indices 1 2 3 4 5 6 
#
# 1 0.012971 -0.001940 -0.001979 0.000000 0.000000 0.000000
# 2 -0.001940 0.012289 -0.004094 0.000000 0.000000 0.000000
# 3 -0.001979 -0.004094 0.013801 0.000000 0.000000 0.000000
# 4 0.000000 0.000000 0.000000 -0.023913 0.000000 0.000000
# 5 0.000000 0.000000 0.000000 0.000000 0.127691 0.000000
# 6 0.000000 0.000000 0.000000 0.000000 0.000000 0.023894
#
#
# Mechanical properties :
#
#
# Convention : Reuss Voigt Hill
#
# Bulk Modulus (GPa) = 43.41174 43.92442 43.66808
# Shear Modulus (GPa) = 26.25505 14.52032 20.38769
#
# Velocity S-wave (km/s) = 3.54962 2.63975 3.12795
# Velocity P-wave (km/s) = 6.13458 5.51094 5.83110
#
# Compressibility (1/GPa) = 0.02303524
#
# Stress axis : x y z
#
# Youngs Moduli (GPa) = 77.09297 81.37140 72.45642
#
# Poissons Ratio (x) = 0.15783 0.14342
# Poissons Ratio (y) = 0.14953 0.29667
# Poissons Ratio (z) = 0.15259 0.33317
#
# Static dielectric constant tensor:
#      x y z
#    x 1.800520 0.000000 0.000000 
#    y 0.000000 1.916920 0.000000 
#    z 0.000000 0.000000 1.803260 
# 
# From -- ./inp_files/10601.got.cif
#   From: 2010.05.17/outbox.cif.g08.bks.cpg/sg41_6_cif.got.tgz:10601.got - 2010.06.03 18:54:24.
