data_PCOD9366368
_publ_section_title
;
Structure prediction by ZEFSAII (Michael W. Deem and Ramdas Pophale) SiO2 
 PCOD9366368
Probable space group: A B A 2
;
_chemical_formula_sum "Si O2"
_cell_formula_units_Z 48
_cell_length_a 8.403725
_cell_length_b 16.469886
_cell_length_c 16.442274
_cell_angle_alpha 90.000000
_cell_angle_beta 90.000000
_cell_angle_gamma 90.000000
_cell_volume 2275.748717
_symmetry_space_group_name_H-M "A B A 2"
_symmetry_group_IT_number 41
_symmetry_cell_setting 'orthorhombic'
loop_
_space_group_symop_operation_xyz
x,y,z
-x,-y,z
1/2-x,y,1/2+z
1/2+x,-y,1/2+z
x,1/2+y,1/2+z
-x,1/2-y,1/2+z
1/2-x,1/2+y,z
1/2+x,1/2-y,z
loop_
_atom_site_type_symbol
_atom_site_label
_atom_site_fract_x
_atom_site_fract_y
_atom_site_fract_z
Si Si1 0.128127 0.239279 0.644180
Si Si2 0.091510 0.159951 0.237893
Si Si3 0.654412 0.439305 0.382847
Si Si4 0.500000 0.000000 0.651109
Si Si5 0.988878 0.410271 0.048870
Si Si6 0.000000 0.500000 0.400446
Si Si7 0.159213 0.887139 0.025182
O O1 0.295260 0.206268 0.675074
O O2 0.127434 0.301050 0.567913
O O3 0.067326 0.289760 0.722119
O O4 0.036614 0.159051 0.614838
O O5 0.136224 0.142824 0.330285
O O6 0.079280 0.068953 0.204187
O O7 0.500000 0.500000 0.370897
O O8 0.644912 0.416366 0.478729
O O9 0.827380 0.478239 0.361462
O O10 0.626674 0.046195 0.595304
O O11 0.155539 0.391816 0.003454
O O12 0.000000 0.500000 0.086232
O O13 0.046264 0.420160 0.454086
#
# Coordination Sequence:
#
# PCOD9366368 Si02
#       7
#     8   8   8   4   8   4   8
#     4  11  24  42  67 100 133 182 231 281 345 405
#     4  11  23  46  63  96 144 178 226 282 345 413
#     4  11  24  45  69 100 138 182 227 279 345 408
#     4   9  20  36  72  92 133 178 222 280 339 400
#     4  11  21  42  71  98 132 173 233 287 340 405
#     4  11  22  44  72 104 131 180 234 278 343 414
#     4  10  20  39  68 103 129 171 228 286 334 397
#
# _framework density 21.09196
#
# number of rings (size 3 to 8) (size 9 to 14) (size 15 to 20)
#    0.000    1.333    5.833    1.000    4.667    0.000 
#   13.500    0.000    0.000    0.000    0.000    0.000 
#    0.000    0.000    0.000    0.000    0.000    0.000 
#
# Total GULP energy -133694.475537 kJ/mol
# GULP energy per Si atom -5570.603147 kJ/mol
# Density = 2.104395 g / cm^3
# Si number density = 21.091960 Si / 1000 Ang^3
#
#
#
# Elastic Constant Matrix: (Units=GPa)
#
#
# Indices 1 2 3 4 5 6 
#
# 1 86.9851 11.6492 -7.9323 0.0000 0.0000 0.0000
# 2 11.6492 128.7227 21.5341 0.0000 0.0000 0.0000
# 3 -7.9323 21.5341 32.8357 0.0000 0.0000 0.0000
# 4 0.0000 0.0000 0.0000 27.3899 0.0000 0.0000
# 5 0.0000 0.0000 0.0000 0.0000 7.0546 0.0000
# 6 0.0000 0.0000 0.0000 0.0000 0.0000 23.4566
#
#
#
# Elastic Compliance Matrix: (Units=1/GPa)
#
#
# Indices 1 2 3 4 5 6 
#
# 1 0.012108 -0.001780 0.004093 0.000000 0.000000 0.000000
# 2 -0.001780 0.008988 -0.006324 0.000000 0.000000 0.000000
# 3 0.004093 -0.006324 0.035591 0.000000 0.000000 0.000000
# 4 0.000000 0.000000 0.000000 0.036510 0.000000 0.000000
# 5 0.000000 0.000000 0.000000 0.000000 0.141752 0.000000
# 6 0.000000 0.000000 0.000000 0.000000 0.000000 0.042632
#
#
# Mechanical properties :
#
#
# Convention : Reuss Voigt Hill
#
# Bulk Modulus (GPa) = 20.54987 33.22727 26.88857
# Shear Modulus (GPa) = 16.56586 26.46638 21.51612
#
# Velocity S-wave (km/s) = 2.80556 3.54617 3.19738
# Velocity P-wave (km/s) = 4.50100 5.70568 5.13877
#
# Compressibility (1/GPa) = 0.04866211
#
# Stress axis : x y z
#
# Youngs Moduli (GPa) = 82.59102 111.26228 28.09703
#
# Poissons Ratio (x) = 0.19809 -0.11499
# Poissons Ratio (y) = 0.14704 0.17770
# Poissons Ratio (z) = -0.33801 0.70367
#
# Static dielectric constant tensor:
#      x y z
#    x 1.906070 0.000000 0.000000 
#    y 0.000000 1.766970 0.000000 
#    z 0.000000 0.000000 1.780440 
# 
# From -- ./inp_files/9676.got.cif
#   From: 2010.05.17/outbox.cif.g08.bks.cpg/sg41_5_cif.got.tgz:9676.got - 2010.06.03 18:54:24.
