data_PCOD9366713
_publ_section_title
;
Structure prediction by ZEFSAII (Michael W. Deem and Ramdas Pophale) SiO2 
 PCOD9366713
Probable space group: A B A 2
;
_chemical_formula_sum "Si O2"
_cell_formula_units_Z 56
_cell_length_a 5.600009
_cell_length_b 29.249967
_cell_length_c 13.955444
_cell_angle_alpha 90.000000
_cell_angle_beta 90.000000
_cell_angle_gamma 90.000000
_cell_volume 2285.902822
_symmetry_space_group_name_H-M "A B A 2"
_symmetry_group_IT_number 41
_symmetry_cell_setting 'orthorhombic'
loop_
_space_group_symop_operation_xyz
x,y,z
-x,-y,z
1/2-x,y,1/2+z
1/2+x,-y,1/2+z
x,1/2+y,1/2+z
-x,1/2-y,1/2+z
1/2-x,1/2+y,z
1/2+x,1/2-y,z
loop_
_atom_site_type_symbol
_atom_site_label
_atom_site_fract_x
_atom_site_fract_y
_atom_site_fract_z
Si Si1 0.610425 0.956537 0.016840
Si Si2 0.781995 0.113604 0.099863
Si Si3 0.759323 0.396989 0.357992
Si Si4 0.140465 0.336319 0.927157
Si Si5 0.133291 0.041934 0.196745
Si Si6 0.931508 0.679836 0.261427
Si Si7 0.111981 0.224459 0.577221
O O1 0.427264 0.920062 0.062642
O O2 0.737639 0.979818 0.106422
O O3 0.500000 0.000000 0.962484
O O4 0.791752 0.927145 0.952763
O O5 0.977847 0.082184 0.149270
O O6 0.703396 0.149218 0.181770
O O7 0.830021 0.144109 0.004827
O O8 0.487396 0.378255 0.371432
O O9 0.795438 0.432666 0.272522
O O10 0.905318 0.353332 0.325058
O O11 0.247714 0.303610 0.844346
O O12 0.941945 0.314520 0.997962
O O13 0.000000 0.000000 0.244799
O O14 0.087245 0.710984 0.190025
O O15 0.876871 0.256222 0.561909
#
# Coordination Sequence:
#
# PCOD9366713 Si02
#       7
#     8   8   8   8   8   8   8
#     4  11  22  40  58  90 136 178 229 295 352 397
#     4  10  21  40  60  94 129 176 233 277 341 414
#     4  11  24  40  66  99 129 181 243 284 339 434
#     4  10  24  43  71  96 137 181 225 280 345 427
#     4  12  22  37  63  91 135 184 233 300 349 398
#     4  11  23  44  73  99 134 184 228 287 351 431
#     4  11  29  50  75 112 147 177 227 293 363 439
#
# _framework density 24.497982
#
# number of rings (size 3 to 8) (size 9 to 14) (size 15 to 20)
#    0.000    1.143    4.286    1.286    4.000    1.143 
#    0.000    0.714    0.000    0.000    0.000    0.000 
#    0.000    0.000    0.000    0.000    0.000    0.000 
#
# Total GULP energy -156218.713244 kJ/mol
# GULP energy per Si atom -5579.239759 kJ/mol
# Density = 2.444222 g / cm^3
# Si number density = 24.497982 Si / 1000 Ang^3
#
#
#
# Elastic Constant Matrix: (Units=GPa)
#
#
# Indices 1 2 3 4 5 6 
#
# 1 27.9574 4.5347 15.5190 0.0000 0.0000 0.0000
# 2 4.5347 42.8428 10.1294 0.0000 0.0000 0.0000
# 3 15.5190 10.1294 147.8071 0.0000 0.0000 0.0000
# 4 0.0000 0.0000 0.0000 -17.0838 0.0000 0.0000
# 5 0.0000 0.0000 0.0000 0.0000 15.1693 0.0000
# 6 0.0000 0.0000 0.0000 0.0000 0.0000 48.4802
#
#
#
# Elastic Compliance Matrix: (Units=1/GPa)
#
#
# Indices 1 2 3 4 5 6 
#
# 1 0.038399 -0.003162 -0.003815 0.000000 0.000000 0.000000
# 2 -0.003162 0.023986 -0.001312 0.000000 0.000000 0.000000
# 3 -0.003815 -0.001312 0.007256 0.000000 0.000000 0.000000
# 4 0.000000 0.000000 0.000000 -0.058535 0.000000 0.000000
# 5 0.000000 0.000000 0.000000 0.000000 0.065923 0.000000
# 6 0.000000 0.000000 0.000000 0.000000 0.000000 0.020627
#
#
# Mechanical properties :
#
#
# Convention : Reuss Voigt Hill
#
# Bulk Modulus (GPa) = 18.84551 30.99707 24.92129
# Shear Modulus (GPa) = 37.90117 21.87475 29.88796
#
# Velocity S-wave (km/s) = 3.93760 2.99142 3.49666
# Velocity P-wave (km/s) = 5.32751 4.96103 5.14753
#
# Compressibility (1/GPa) = 0.05306303
#
# Stress axis : x y z
#
# Youngs Moduli (GPa) = 26.04210 41.69099 137.81644
#
# Poissons Ratio (x) = 0.13184 0.52577
# Poissons Ratio (y) = 0.08236 0.18078
# Poissons Ratio (z) = 0.09935 0.05469
#
# Static dielectric constant tensor:
#      x y z
#    x 2.058960 0.000000 0.000000 
#    y 0.000000 1.954600 0.000000 
#    z 0.000000 0.000000 1.926970 
# 
# From -- ./inp_files/6977.got.cif
#   From: 2010.05.17/outbox.cif.g08.bks.cpg/sg41_4_cif.got.tgz:6977.got - 2010.06.03 18:54:24.
