data_PCOD9366103
_publ_section_title
;
Structure prediction by ZEFSAII (Michael W. Deem and Ramdas Pophale) SiO2 
 PCOD9366103
Probable space group: A B A 2
;
_chemical_formula_sum "Si O2"
_cell_formula_units_Z 56
_cell_length_a 10.600063
_cell_length_b 8.687708
_cell_length_c 23.314435
_cell_angle_alpha 90.000000
_cell_angle_beta 90.000000
_cell_angle_gamma 90.000000
_cell_volume 2147.032197
_symmetry_space_group_name_H-M "A B A 2"
_symmetry_group_IT_number 41
_symmetry_cell_setting 'orthorhombic'
loop_
_space_group_symop_operation_xyz
x,y,z
-x,-y,z
1/2-x,y,1/2+z
1/2+x,-y,1/2+z
x,1/2+y,1/2+z
-x,1/2-y,1/2+z
1/2-x,1/2+y,z
1/2+x,1/2-y,z
loop_
_atom_site_type_symbol
_atom_site_label
_atom_site_fract_x
_atom_site_fract_y
_atom_site_fract_z
Si Si1 0.516568 0.180470 0.863380
Si Si2 0.084425 0.357882 0.067292
Si Si3 0.762966 0.474709 0.964405
Si Si4 0.643799 0.863429 0.240793
Si Si5 0.872832 0.182439 0.690636
Si Si6 0.554828 0.679342 0.977152
Si Si7 0.780553 0.110664 0.836026
O O1 0.749267 0.039708 0.899156
O O2 0.532479 0.275233 0.922268
O O3 0.389927 0.260725 0.839904
O O4 0.500000 0.000000 0.876147
O O5 0.000000 0.500000 0.088008
O O6 0.141651 0.279728 0.123511
O O7 0.162953 0.429922 0.013932
O O8 0.997031 0.234460 0.036901
O O9 0.619694 0.512872 0.981715
O O10 0.829361 0.308319 0.965074
O O11 0.652315 0.001460 0.193978
O O12 0.662288 0.975202 0.296957
O O13 0.508967 0.790007 0.221346
O O14 0.640187 0.679557 0.322443
O O15 0.765231 0.262067 0.727734
#
# Coordination Sequence:
#
# PCOD9366103 Si02
#       7
#     8   8   8   8   8   8   8
#     4  11  22  47  75 113 156 213 258 325 407 484
#     4  10  19  41  77 106 153 199 265 332 402 489
#     4  10  21  37  71 111 147 207 249 331 403 476
#     4  11  28  53  79 114 155 213 273 332 400 485
#     4  11  27  52  80 115 151 214 274 335 407 475
#     4  10  20  39  71 112 157 198 261 320 421 476
#     4  11  25  46  77 114 162 205 274 324 404 494
#
# _framework density 26.082514
#
# number of rings (size 3 to 8) (size 9 to 14) (size 15 to 20)
#    0.000    1.429    4.286    0.429    4.000    2.857 
#    0.000    2.143    3.143    0.000    0.000    0.000 
#    0.000    0.000    0.000    0.000    0.000    0.000 
#
# Total GULP energy -156418.058962 kJ/mol
# GULP energy per Si atom -5586.359249 kJ/mol
# Density = 2.602315 g / cm^3
# Si number density = 26.082514 Si / 1000 Ang^3
#
#
#
# Elastic Constant Matrix: (Units=GPa)
#
#
# Indices 1 2 3 4 5 6 
#
# 1 126.1416 30.1209 41.8923 0.0000 0.0000 0.0000
# 2 30.1209 102.2820 29.2857 0.0000 0.0000 0.0000
# 3 41.8923 29.2857 158.0310 0.0000 0.0000 0.0000
# 4 0.0000 0.0000 0.0000 17.0106 0.0000 0.0000
# 5 0.0000 0.0000 0.0000 0.0000 54.0943 0.0000
# 6 0.0000 0.0000 0.0000 0.0000 0.0000 42.4398
#
#
#
# Elastic Compliance Matrix: (Units=1/GPa)
#
#
# Indices 1 2 3 4 5 6 
#
# 1 0.009101 -0.002101 -0.002023 0.000000 0.000000 0.000000
# 2 -0.002101 0.010810 -0.001446 0.000000 0.000000 0.000000
# 3 -0.002023 -0.001446 0.007132 0.000000 0.000000 0.000000
# 4 0.000000 0.000000 0.000000 0.058787 0.000000 0.000000
# 5 0.000000 0.000000 0.000000 0.000000 0.018486 0.000000
# 6 0.000000 0.000000 0.000000 0.000000 0.000000 0.023563
#
#
# Mechanical properties :
#
#
# Convention : Reuss Voigt Hill
#
# Bulk Modulus (GPa) = 62.88443 65.45028 64.16735
# Shear Modulus (GPa) = 34.64509 41.71933 38.18221
#
# Velocity S-wave (km/s) = 3.64852 4.00373 3.83025
# Velocity P-wave (km/s) = 6.47388 6.82064 6.64952
#
# Compressibility (1/GPa) = 0.01590219
#
# Stress axis : x y z
#
# Youngs Moduli (GPa) = 109.87545 92.50964 140.20825
#
# Poissons Ratio (x) = 0.19435 0.28368
# Poissons Ratio (y) = 0.23084 0.20278
# Poissons Ratio (z) = 0.22231 0.13380
#
# Static dielectric constant tensor:
#      x y z
#    x 2.256180 0.000000 0.000000 
#    y 0.000000 2.160190 0.000000 
#    z 0.000000 0.000000 2.158210 
# 
# From -- ./inp_files/12139.got.cif
#   From: 2010.05.17/outbox.cif.g08.bks.cpg/sg41_7_cif.got.tgz:12139.got - 2010.06.03 18:54:24.
