data_PCOD9366545
_publ_section_title
;
Structure prediction by ZEFSAII (Michael W. Deem and Ramdas Pophale) SiO2 
 PCOD9366545
Probable space group: A B A 2
;
_chemical_formula_sum "Si O2"
_cell_formula_units_Z 48
_cell_length_a 4.918275
_cell_length_b 15.201886
_cell_length_c 28.852990
_cell_angle_alpha 90.000000
_cell_angle_beta 90.000000
_cell_angle_gamma 90.000000
_cell_volume 2157.253115
_symmetry_space_group_name_H-M "A B A 2"
_symmetry_group_IT_number 41
_symmetry_cell_setting 'orthorhombic'
loop_
_space_group_symop_operation_xyz
x,y,z
-x,-y,z
1/2-x,y,1/2+z
1/2+x,-y,1/2+z
x,1/2+y,1/2+z
-x,1/2-y,1/2+z
1/2-x,1/2+y,z
1/2+x,1/2-y,z
loop_
_atom_site_type_symbol
_atom_site_label
_atom_site_fract_x
_atom_site_fract_y
_atom_site_fract_z
Si Si1 0.495421 0.104867 0.350120
Si Si2 0.453652 0.691705 0.508947
Si Si3 0.989338 0.106828 0.409412
Si Si4 0.772231 0.193122 0.262636
Si Si5 0.241812 0.941273 0.578417
Si Si6 0.780973 0.691161 0.157952
O O1 0.196020 0.130337 0.367542
O O2 0.638819 0.138036 0.303611
O O3 0.690665 0.131222 0.392369
O O4 0.500000 0.000000 0.347082
O O5 0.149289 0.724528 0.518810
O O6 0.451192 0.658402 0.456177
O O7 0.588128 0.613374 0.538333
O O8 0.000000 0.000000 0.416592
O O9 0.588716 0.282048 0.265823
O O10 0.739486 0.156909 0.210659
O O11 0.319421 0.875134 0.619197
O O12 0.500000 0.000000 0.563375
O O13 0.000000 0.000000 0.598852
O O14 0.589809 0.776865 0.152640
#
# Coordination Sequence:
#
# PCOD9366545 Si02
#       6
#     8   8   8   8   8   8
#     4  10  21  37  57  84 119 158 197 246 302 358
#     4  12  25  41  63  91 120 158 202 252 306 365
#     4  10  22  39  58  83 119 159 200 248 303 359
#     4  10  21  36  59  86 117 155 196 244 299 355
#     4  12  25  42  65  92 122 160 203 254 309 370
#     4  10  21  41  63  88 122 160 200 250 305 361
#
# _framework density 22.250516999999999
#
# number of rings (size 3 to 8) (size 9 to 14) (size 15 to 20)
#    0.000    1.333    0.000    5.500    0.000    6.667 
#    0.000    2.500    0.000    0.000    0.000    0.000 
#    0.000    0.000    0.000    0.000    0.000    0.000 
#
# Total GULP energy -134093.982326 kJ/mol
# GULP energy per Si atom -5587.249264 kJ/mol
# Density = 2.219987 g / cm^3
# Si number density = 22.250517 Si / 1000 Ang^3
#
#
#
# Elastic Constant Matrix: (Units=GPa)
#
#
# Indices 1 2 3 4 5 6 
#
# 1 87.7934 -1.9561 -5.5407 0.0000 0.0000 0.0000
# 2 -1.9561 27.5213 26.1787 0.0000 0.0000 0.0000
# 3 -5.5407 26.1787 92.6255 0.0000 0.0000 0.0000
# 4 0.0000 0.0000 0.0000 87.2215 0.0000 0.0000
# 5 0.0000 0.0000 0.0000 0.0000 22.8809 0.0000
# 6 0.0000 0.0000 0.0000 0.0000 0.0000 15.0137
#
#
#
# Elastic Compliance Matrix: (Units=1/GPa)
#
#
# Indices 1 2 3 4 5 6 
#
# 1 0.011435 0.000222 0.000621 0.000000 0.000000 0.000000
# 2 0.000222 0.049700 -0.014033 0.000000 0.000000 0.000000
# 3 0.000621 -0.014033 0.014800 0.000000 0.000000 0.000000
# 4 0.000000 0.000000 0.000000 0.011465 0.000000 0.000000
# 5 0.000000 0.000000 0.000000 0.000000 0.043705 0.000000
# 6 0.000000 0.000000 0.000000 0.000000 0.000000 0.066606
#
#
# Mechanical properties :
#
#
# Convention : Reuss Voigt Hill
#
# Bulk Modulus (GPa) = 20.18024 27.25600 23.71812
# Shear Modulus (GPa) = 20.78064 37.64042 29.21053
#
# Velocity S-wave (km/s) = 3.05936 4.11745 3.62719
# Velocity P-wave (km/s) = 4.64422 5.90599 5.31270
#
# Compressibility (1/GPa) = 0.04955343
#
# Stress axis : x y z
#
# Youngs Moduli (GPa) = 87.45440 20.12067 67.56945
#
# Poissons Ratio (x) = -0.00446 -0.04198
# Poissons Ratio (y) = -0.01939 0.94823
# Poissons Ratio (z) = -0.05434 0.28236
#
# Static dielectric constant tensor:
#      x y z
#    x 1.784270 0.000000 0.000000 
#    y 0.000000 1.834990 0.000000 
#    z 0.000000 0.000000 1.793020 
# 
# From -- ./inp_files/12616.got.cif
#   From: 2010.05.17/outbox.cif.g08.bks.cpg/sg41_7_cif.got.tgz:12616.got - 2010.06.03 18:54:24.
