data_PCOD9366490
_publ_section_title
;
Structure prediction by ZEFSAII (Michael W. Deem and Ramdas Pophale) SiO2 
 PCOD9366490
Probable space group: A B A 2
;
_chemical_formula_sum "Si O2"
_cell_formula_units_Z 40
_cell_length_a 11.979660
_cell_length_b 13.128726
_cell_length_c 12.108375
_cell_angle_alpha 90.000000
_cell_angle_beta 90.000000
_cell_angle_gamma 90.000000
_cell_volume 1904.377052
_symmetry_space_group_name_H-M "A B A 2"
_symmetry_group_IT_number 41
_symmetry_cell_setting 'orthorhombic'
loop_
_space_group_symop_operation_xyz
x,y,z
-x,-y,z
1/2-x,y,1/2+z
1/2+x,-y,1/2+z
x,1/2+y,1/2+z
-x,1/2-y,1/2+z
1/2-x,1/2+y,z
1/2+x,1/2-y,z
loop_
_atom_site_type_symbol
_atom_site_label
_atom_site_fract_x
_atom_site_fract_y
_atom_site_fract_z
Si Si1 0.117691 0.963935 0.377610
Si Si2 0.105596 0.792592 0.191412
Si Si3 0.994219 0.110770 0.779212
Si Si4 0.264467 0.654063 0.834093
Si Si5 0.812801 0.157161 0.960462
O O1 0.093552 0.877711 0.285584
O O2 0.203304 0.913005 0.463038
O O3 0.182139 0.059701 0.323791
O O4 0.000000 0.000000 0.424677
O O5 0.007793 0.708502 0.200417
O O6 0.215328 0.726069 0.226832
O O7 0.120810 0.841961 0.073664
O O8 0.107936 0.118141 0.852656
O O9 0.000000 0.000000 0.724272
O O10 0.110939 0.878797 0.858455
O O11 0.222866 0.727843 0.930451
#
# Coordination Sequence:
#
# PCOD9366490 Si02
#       5
#     8   8   8   8   8
#     4  11  22  43  64  94 135 172 218 278 330 398
#     4   9  23  41  65  96 124 175 215 278 326 400
#     4  10  20  43  63  93 126 172 209 272 324 395
#     4   9  22  41  62  90 133 165 216 271 329 388
#     4  11  21  43  66  94 132 170 222 272 336 395
#
# _framework density 21.004244
#
# number of rings (size 3 to 8) (size 9 to 14) (size 15 to 20)
#    1.200    0.800    2.000    1.200    0.000    2.400 
#   10.800    3.000    0.000    0.000    0.000    0.000 
#    0.000    0.000    0.000    0.000    0.000    0.000 
#
# Total GULP energy -111468.953344 kJ/mol
# GULP energy per Si atom -5573.447667 kJ/mol
# Density = 2.095644 g / cm^3
# Si number density = 21.004244 Si / 1000 Ang^3
#
#
#
# Elastic Constant Matrix: (Units=GPa)
#
#
# Indices 1 2 3 4 5 6 
#
# 1 103.6817 37.0517 3.7005 0.0000 0.0000 0.0000
# 2 37.0517 118.1044 10.7854 0.0000 0.0000 0.0000
# 3 3.7005 10.7854 49.2832 0.0000 0.0000 0.0000
# 4 0.0000 0.0000 0.0000 2.1121 0.0000 0.0000
# 5 0.0000 0.0000 0.0000 0.0000 10.1530 0.0000
# 6 0.0000 0.0000 0.0000 0.0000 0.0000 47.5509
#
#
#
# Elastic Compliance Matrix: (Units=1/GPa)
#
#
# Indices 1 2 3 4 5 6 
#
# 1 0.010863 -0.003401 -0.000071 0.000000 0.000000 0.000000
# 2 -0.003401 0.009705 -0.001868 0.000000 0.000000 0.000000
# 3 -0.000071 -0.001868 0.020705 0.000000 0.000000 0.000000
# 4 0.000000 0.000000 0.000000 0.473467 0.000000 0.000000
# 5 0.000000 0.000000 0.000000 0.000000 0.098493 0.000000
# 6 0.000000 0.000000 0.000000 0.000000 0.000000 0.021030
#
#
# Mechanical properties :
#
#
# Convention : Reuss Voigt Hill
#
# Bulk Modulus (GPa) = 32.68973 41.57161 37.13067
# Shear Modulus (GPa) = 7.63194 26.59865 17.11529
#
# Velocity S-wave (km/s) = 1.90825 3.56244 2.85765
# Velocity P-wave (km/s) = 4.52243 6.06269 5.34830
#
# Compressibility (1/GPa) = 0.03059065
#
# Stress axis : x y z
#
# Youngs Moduli (GPa) = 92.05582 103.04173 48.29713
#
# Poissons Ratio (x) = 0.35049 0.00344
# Poissons Ratio (y) = 0.31312 0.09024
# Poissons Ratio (z) = 0.00656 0.19253
#
# Static dielectric constant tensor:
#      x y z
#    x 1.779770 0.000000 0.000000 
#    y 0.000000 1.798340 0.000000 
#    z 0.000000 0.000000 1.719480 
# 
# From -- ./inp_files/8265.got.cif
#   From: 2010.05.17/outbox.cif.g08.bks.cpg/sg41_5_cif.got.tgz:8265.got - 2010.06.03 18:54:24.
