data_PCOD9366778
_publ_section_title
;
Structure prediction by ZEFSAII (Michael W. Deem and Ramdas Pophale) SiO2 
 PCOD9366778
Probable space group: A B A 2
;
_chemical_formula_sum "Si O2"
_cell_formula_units_Z 60
_cell_length_a 29.336446
_cell_length_b 11.357283
_cell_length_c 8.490048
_cell_angle_alpha 90.000000
_cell_angle_beta 90.000000
_cell_angle_gamma 90.000000
_cell_volume 2828.733885
_symmetry_space_group_name_H-M "A B A 2"
_symmetry_group_IT_number 41
_symmetry_cell_setting 'orthorhombic'
loop_
_space_group_symop_operation_xyz
x,y,z
-x,-y,z
1/2-x,y,1/2+z
1/2+x,-y,1/2+z
x,1/2+y,1/2+z
-x,1/2-y,1/2+z
1/2-x,1/2+y,z
1/2+x,1/2-y,z
loop_
_atom_site_type_symbol
_atom_site_label
_atom_site_fract_x
_atom_site_fract_y
_atom_site_fract_z
Si Si1 0.687527 0.342205 0.757920
Si Si2 0.113455 0.052283 0.953035
Si Si3 0.925136 0.607262 0.189292
Si Si4 0.194881 0.881164 0.031271
Si Si5 0.848857 0.009455 0.489421
Si Si6 0.757149 0.523990 0.807707
Si Si7 0.921412 0.369652 0.785145
Si Si8 0.000000 0.500000 0.976747
O O1 0.647658 0.345654 0.888830
O O2 0.691623 0.231530 0.642774
O O3 0.670855 0.444055 0.640425
O O4 0.734047 0.395671 0.829945
O O5 0.083215 0.000380 0.810960
O O6 0.085027 0.091537 0.103986
O O7 0.147092 0.945770 0.006105
O O8 0.924378 0.728997 0.282757
O O9 0.884077 0.602752 0.061654
O O10 0.970632 0.584887 0.089712
O O11 0.229386 0.965950 0.125898
O O12 0.220448 0.878001 0.863531
O O13 0.805226 0.049033 0.391744
O O14 0.878078 0.919278 0.382297
O O15 0.965020 0.427510 0.868470
#
# Coordination Sequence:
#
# PCOD9366778 Si02
#       8
#     8   8   8   8   8   8   8   4
#     4  10  23  38  56  85 127 172 209 261 309 344
#     4  10  23  41  62  95 120 160 218 251 298 386
#     4  10  24  44  66  91 128 162 190 257 323 367
#     4  11  23  37  57  86 126 169 214 260 307 347
#     4  10  21  41  57  88 127 157 214 256 294 374
#     4  11  22  36  54  87 124 164 217 260 290 359
#     4  11  23  42  71  92 120 162 199 253 320 371
#     4  10  26  44  62 100 124 144 202 252 306 406
#
# _framework density 21.210903999999999
#
# number of rings (size 3 to 8) (size 9 to 14) (size 15 to 20)
#    0.000    1.600    2.667    0.800    3.733    3.733 
#    0.000    0.000    0.000    0.000    0.000    0.000 
#    0.000    0.000    0.000    0.000    0.000    0.000 
#
# Total GULP energy -167432.586355 kJ/mol
# GULP energy per Si atom -5581.086212 kJ/mol
# Density = 2.116263 g / cm^3
# Si number density = 21.210904 Si / 1000 Ang^3
#
#
#
# Elastic Constant Matrix: (Units=GPa)
#
#
# Indices 1 2 3 4 5 6 
#
# 1 90.6747 18.7640 25.1296 0.0000 0.0000 0.0000
# 2 18.7640 60.6501 7.5906 0.0000 0.0000 0.0000
# 3 25.1296 7.5906 83.4302 0.0000 0.0000 0.0000
# 4 0.0000 0.0000 0.0000 41.7831 0.0000 0.0000
# 5 0.0000 0.0000 0.0000 0.0000 47.2441 0.0000
# 6 0.0000 0.0000 0.0000 0.0000 0.0000 2.9156
#
#
#
# Elastic Compliance Matrix: (Units=1/GPa)
#
#
# Indices 1 2 3 4 5 6 
#
# 1 0.012726 -0.003497 -0.003515 0.000000 0.000000 0.000000
# 2 -0.003497 0.017639 -0.000551 0.000000 0.000000 0.000000
# 3 -0.003515 -0.000551 0.013095 0.000000 0.000000 0.000000
# 4 0.000000 0.000000 0.000000 0.023933 0.000000 0.000000
# 5 0.000000 0.000000 0.000000 0.000000 0.021167 0.000000
# 6 0.000000 0.000000 0.000000 0.000000 0.000000 0.342985
#
#
# Mechanical properties :
#
#
# Convention : Reuss Voigt Hill
#
# Bulk Modulus (GPa) = 35.29484 37.52482 36.40983
# Shear Modulus (GPa) = 10.96209 30.60661 20.78435
#
# Velocity S-wave (km/s) = 2.27582 3.80276 3.13372
# Velocity P-wave (km/s) = 4.85612 6.08367 5.50422
#
# Compressibility (1/GPa) = 0.02833275
#
# Stress axis : x y z
#
# Youngs Moduli (GPa) = 78.57719 56.69236 76.36509
#
# Poissons Ratio (x) = 0.19827 0.26843
# Poissons Ratio (y) = 0.27481 0.04211
# Poissons Ratio (z) = 0.27620 0.03126
#
# Static dielectric constant tensor:
#      x y z
#    x 1.780140 0.000000 0.000000 
#    y 0.000000 1.780030 0.000000 
#    z 0.000000 0.000000 1.785960 
# 
# From -- ./inp_files/3818.got.cif
#   From: 2010.05.17/outbox.cif.g08.bks.cpg/sg41_2_cif.got.tgz:3818.got - 2010.06.03 18:54:24.
