data_PCOD9366287
_publ_section_title
;
Structure prediction by ZEFSAII (Michael W. Deem and Ramdas Pophale) SiO2 
 PCOD9366287
Probable space group: A B A 2
;
_chemical_formula_sum "Si O2"
_cell_formula_units_Z 48
_cell_length_a 13.586611
_cell_length_b 15.383577
_cell_length_c 8.693579
_cell_angle_alpha 90.000000
_cell_angle_beta 90.000000
_cell_angle_gamma 90.000000
_cell_volume 1817.050828
_symmetry_space_group_name_H-M "A B A 2"
_symmetry_group_IT_number 41
_symmetry_cell_setting 'orthorhombic'
loop_
_space_group_symop_operation_xyz
x,y,z
-x,-y,z
1/2-x,y,1/2+z
1/2+x,-y,1/2+z
x,1/2+y,1/2+z
-x,1/2-y,1/2+z
1/2-x,1/2+y,z
1/2+x,1/2-y,z
loop_
_atom_site_type_symbol
_atom_site_label
_atom_site_fract_x
_atom_site_fract_y
_atom_site_fract_z
Si Si1 0.748455 0.648026 0.088790
Si Si2 0.465490 0.846156 0.992169
Si Si3 0.043968 0.164342 0.166589
Si Si4 0.760646 0.769147 0.333663
Si Si5 0.344786 0.518831 0.992353
Si Si6 0.650694 0.915729 0.168812
O O1 0.858665 0.620664 0.043933
O O2 0.749734 0.672883 0.265870
O O3 0.665536 0.579249 0.050647
O O4 0.733212 0.743523 0.010973
O O5 0.476565 0.746858 0.056546
O O6 0.552963 0.899945 0.071630
O O7 0.470294 0.849053 0.807901
O O8 0.140820 0.190393 0.266630
O O9 0.072480 0.079267 0.069695
O O10 0.674438 0.831825 0.278590
O O11 0.241049 0.561417 0.054005
O O12 0.355241 0.515985 0.808636
#
# Coordination Sequence:
#
# PCOD9366287 Si02
#       6
#     8   8   8   8   8   8
#     4  11  23  39  62  92 126 164 209 263 321 383
#     4  11  22  38  68 101 129 163 220 280 324 376
#     4  10  21  39  66  98 128 169 216 267 321 381
#     4  10  20  38  63  88 121 170 214 250 308 390
#     4  11  23  40  63  91 129 174 210 255 326 398
#     4  11  21  40  66  92 125 169 219 265 316 385
#
# _framework density 26.416432
#
# number of rings (size 3 to 8) (size 9 to 14) (size 15 to 20)
#    0.000    1.333    0.000    9.000    0.000    0.667 
#    0.000    0.000    0.000   32.000    0.000    0.000 
#    0.000    0.000    0.000    0.000    0.000    0.000 
#
# Total GULP energy -134500.495123 kJ/mol
# GULP energy per Si atom -5604.187297 kJ/mol
# Density = 2.635631 g / cm^3
# Si number density = 26.416432 Si / 1000 Ang^3
#
#
#
# Elastic Constant Matrix: (Units=GPa)
#
#
# Indices 1 2 3 4 5 6 
#
# 1 105.8235 7.1188 30.5486 0.0000 0.0000 0.0000
# 2 7.1188 102.1675 34.4381 0.0000 0.0000 0.0000
# 3 30.5486 34.4381 142.7399 0.0000 0.0000 0.0000
# 4 0.0000 0.0000 0.0000 43.4497 0.0000 0.0000
# 5 0.0000 0.0000 0.0000 0.0000 45.4818 0.0000
# 6 0.0000 0.0000 0.0000 0.0000 0.0000 34.7626
#
#
#
# Elastic Compliance Matrix: (Units=1/GPa)
#
#
# Indices 1 2 3 4 5 6 
#
# 1 0.010072 0.000027 -0.002162 0.000000 0.000000 0.000000
# 2 0.000027 0.010654 -0.002576 0.000000 0.000000 0.000000
# 3 -0.002162 -0.002576 0.008090 0.000000 0.000000 0.000000
# 4 0.000000 0.000000 0.000000 0.023015 0.000000 0.000000
# 5 0.000000 0.000000 0.000000 0.000000 0.021987 0.000000
# 6 0.000000 0.000000 0.000000 0.000000 0.000000 0.028767
#
#
# Mechanical properties :
#
#
# Convention : Reuss Voigt Hill
#
# Bulk Modulus (GPa) = 51.56329 54.99355 53.27842
# Shear Modulus (GPa) = 42.20399 43.31387 42.75893
#
# Velocity S-wave (km/s) = 4.00139 4.05366 4.02761
# Velocity P-wave (km/s) = 6.39609 6.54008 6.46848
#
# Compressibility (1/GPa) = 0.01939364
#
# Stress axis : x y z
#
# Youngs Moduli (GPa) = 99.28497 93.85821 123.60882
#
# Poissons Ratio (x) = -0.00253 0.26725
# Poissons Ratio (y) = -0.00268 0.31845
# Poissons Ratio (z) = 0.21466 0.24181
#
# Static dielectric constant tensor:
#      x y z
#    x 2.051430 0.000000 0.000000 
#    y 0.000000 2.160420 0.000000 
#    z 0.000000 0.000000 1.964940 
# 
# From -- ./inp_files/2560.got.cif
#   From: 2010.05.17/outbox.cif.g08.bks.cpg/sg41_2_cif.got.tgz:2560.got - 2010.06.03 18:54:24.
