data_PCOD9366276
_publ_section_title
;
Structure prediction by ZEFSAII (Michael W. Deem and Ramdas Pophale) SiO2 
 PCOD9366276
Probable space group: A B A 2
;
_chemical_formula_sum "Si O2"
_cell_formula_units_Z 60
_cell_length_a 25.762025
_cell_length_b 5.477413
_cell_length_c 18.093499
_cell_angle_alpha 90.000000
_cell_angle_beta 90.000000
_cell_angle_gamma 90.000000
_cell_volume 2553.160085
_symmetry_space_group_name_H-M "A B A 2"
_symmetry_group_IT_number 41
_symmetry_cell_setting 'orthorhombic'
loop_
_space_group_symop_operation_xyz
x,y,z
-x,-y,z
1/2-x,y,1/2+z
1/2+x,-y,1/2+z
x,1/2+y,1/2+z
-x,1/2-y,1/2+z
1/2-x,1/2+y,z
1/2+x,1/2-y,z
loop_
_atom_site_type_symbol
_atom_site_label
_atom_site_fract_x
_atom_site_fract_y
_atom_site_fract_z
Si Si1 0.627389 0.490483 0.762430
Si Si2 0.500000 0.500000 0.931703
Si Si3 0.281007 0.715997 0.007354
Si Si4 0.870812 0.791249 0.124266
Si Si5 0.055599 0.882095 0.213422
Si Si6 0.922458 0.341681 0.864602
Si Si7 0.218346 0.746777 0.333518
Si Si8 0.557436 0.613849 0.507664
O O1 0.649729 0.658342 0.697555
O O2 0.571291 0.396681 0.732227
O O3 0.618568 0.642085 0.837631
O O4 0.667574 0.279876 0.782920
O O5 0.523249 0.708820 0.881503
O O6 0.545503 0.389747 0.981401
O O7 0.241976 0.487953 0.019962
O O8 0.327613 0.662591 0.063297
O O9 0.295620 0.722999 0.920469
O O10 0.911034 0.614775 0.081934
O O11 0.903416 0.022399 0.152930
O O12 0.068705 0.998787 0.292841
O O13 0.000000 0.000000 0.192646
O O14 0.912528 0.484452 0.940223
O O15 0.253712 0.505541 0.319640
O O16 0.500000 0.500000 0.517216
#
# Coordination Sequence:
#
# PCOD9366276 Si02
#       8
#     8   4   8   8   8   8   8   8
#     4  11  26  44  69 104 142 194 241 300 372 442
#     4  10  20  38  62 100 126 192 232 310 340 418
#     4  10  25  50  77 108 143 186 243 315 379 436
#     4  11  28  42  68 106 142 198 230 299 367 446
#     4  11  25  43  66 101 150 194 242 290 362 437
#     4  10  21  39  67  96 133 185 245 300 344 425
#     4  10  25  48  80 109 143 186 248 317 376 448
#     4  10  23  40  65  99 141 187 248 295 358 427
#
# _framework density 23.50029
#
# number of rings (size 3 to 8) (size 9 to 14) (size 15 to 20)
#    0.000    1.600    0.000    2.800   12.133    5.333 
#    0.000    0.000    0.000    0.000    0.000    0.000 
#    0.000    0.000    0.000    0.000    0.000    0.000 
#
# Total GULP energy -167666.730236 kJ/mol
# GULP energy per Si atom -5588.891008 kJ/mol
# Density = 2.344680 g / cm^3
# Si number density = 23.500290 Si / 1000 Ang^3
#
#
#
# Elastic Constant Matrix: (Units=GPa)
#
#
# Indices 1 2 3 4 5 6 
#
# 1 77.9172 16.9043 34.6200 0.0000 0.0000 0.0000
# 2 16.9043 79.2657 20.0512 0.0000 0.0000 0.0000
# 3 34.6200 20.0512 87.7884 0.0000 0.0000 0.0000
# 4 0.0000 0.0000 0.0000 25.6466 0.0000 0.0000
# 5 0.0000 0.0000 0.0000 0.0000 43.3490 0.0000
# 6 0.0000 0.0000 0.0000 0.0000 0.0000 24.4345
#
#
#
# Elastic Compliance Matrix: (Units=1/GPa)
#
#
# Indices 1 2 3 4 5 6 
#
# 1 0.015828 -0.001907 -0.005806 0.000000 0.000000 0.000000
# 2 -0.001907 0.013619 -0.002359 0.000000 0.000000 0.000000
# 3 -0.005806 -0.002359 0.014220 0.000000 0.000000 0.000000
# 4 0.000000 0.000000 0.000000 0.038992 0.000000 0.000000
# 5 0.000000 0.000000 0.000000 0.000000 0.023069 0.000000
# 6 0.000000 0.000000 0.000000 0.000000 0.000000 0.040926
#
#
# Mechanical properties :
#
#
# Convention : Reuss Voigt Hill
#
# Bulk Modulus (GPa) = 42.51176 43.12471 42.81824
# Shear Modulus (GPa) = 28.63093 30.24574 29.43834
#
# Velocity S-wave (km/s) = 3.49423 3.59142 3.54316
# Velocity P-wave (km/s) = 5.86589 5.96559 5.91595
#
# Compressibility (1/GPa) = 0.02352290
#
# Stress axis : x y z
#
# Youngs Moduli (GPa) = 63.18073 73.42639 70.32592
#
# Poissons Ratio (x) = 0.14000 0.40833
# Poissons Ratio (y) = 0.12046 0.16588
# Poissons Ratio (z) = 0.36684 0.17319
#
# Static dielectric constant tensor:
#      x y z
#    x 1.932950 0.000000 0.000000 
#    y 0.000000 2.025600 0.000000 
#    z 0.000000 0.000000 1.832350 
# 
# From -- ./inp_files/10797.got.cif
#   From: 2010.05.17/outbox.cif.g08.bks.cpg/sg41_6_cif.got.tgz:10797.got - 2010.06.03 18:54:24.
