data_PCOD9366761
_publ_section_title
;
Structure prediction by ZEFSAII (Michael W. Deem and Ramdas Pophale) SiO2 
 PCOD9366761
Probable space group: A B A 2
;
_chemical_formula_sum "Si O2"
_cell_formula_units_Z 32
_cell_length_a 12.371428
_cell_length_b 10.654201
_cell_length_c 9.915769
_cell_angle_alpha 90.000000
_cell_angle_beta 90.000000
_cell_angle_gamma 90.000000
_cell_volume 1306.974513
_symmetry_space_group_name_H-M "A B A 2"
_symmetry_group_IT_number 41
_symmetry_cell_setting 'orthorhombic'
loop_
_space_group_symop_operation_xyz
x,y,z
-x,-y,z
1/2-x,y,1/2+z
1/2+x,-y,1/2+z
x,1/2+y,1/2+z
-x,1/2-y,1/2+z
1/2-x,1/2+y,z
1/2+x,1/2-y,z
loop_
_atom_site_type_symbol
_atom_site_label
_atom_site_fract_x
_atom_site_fract_y
_atom_site_fract_z
Si Si1 0.628988 0.757597 0.260900
Si Si2 0.017967 0.163742 0.022341
Si Si3 0.751294 0.410479 0.077275
Si Si4 0.291182 0.353568 0.920094
O O1 0.573757 0.754236 0.406200
O O2 0.542498 0.721739 0.149741
O O3 0.681907 0.889268 0.214411
O O4 0.716515 0.785586 0.989717
O O5 0.121123 0.095515 0.090894
O O6 0.917257 0.109161 0.933402
O O7 0.773086 0.537890 0.998439
O O8 0.733243 0.166886 0.776680
#
# Coordination Sequence:
#
# PCOD9366761 Si02
#       4
#     8   8   8   8
#     4  10  22  42  68 102 138 180 230 284 344 412
#     4  10  21  40  67  96 135 180 227 280 343 410
#     4  10  22  41  64  95 134 175 223 280 338 402
#     4  10  22  41  64  95 134 175 223 280 338 402
#
# _framework density 24.484027999999999
#
# number of rings (size 3 to 8) (size 9 to 14) (size 15 to 20)
#    0.000    2.000    0.000    2.250    0.000    8.000 
#    0.000   40.000    0.000    0.000    0.000    0.000 
#    0.000    0.000    0.000    0.000    0.000    0.000 
#
# Total GULP energy -89097.412410 kJ/mol
# GULP energy per Si atom -5568.588276 kJ/mol
# Density = 2.442830 g / cm^3
# Si number density = 24.484028 Si / 1000 Ang^3
#
#
#
# Elastic Constant Matrix: (Units=GPa)
#
#
# Indices 1 2 3 4 5 6 
#
# 1 109.7572 7.0486 23.0143 0.0000 0.0000 0.0000
# 2 7.0486 105.3078 14.1500 0.0000 0.0000 0.0000
# 3 23.0143 14.1500 108.4928 0.0000 0.0000 0.0000
# 4 0.0000 0.0000 0.0000 33.8106 0.0000 0.0000
# 5 0.0000 0.0000 0.0000 0.0000 60.7626 0.0000
# 6 0.0000 0.0000 0.0000 0.0000 0.0000 27.2298
#
#
#
# Elastic Compliance Matrix: (Units=1/GPa)
#
#
# Indices 1 2 3 4 5 6 
#
# 1 0.009550 -0.000374 -0.001977 0.000000 0.000000 0.000000
# 2 -0.000374 0.009680 -0.001183 0.000000 0.000000 0.000000
# 3 -0.001977 -0.001183 0.009791 0.000000 0.000000 0.000000
# 4 0.000000 0.000000 0.000000 0.029576 0.000000 0.000000
# 5 0.000000 0.000000 0.000000 0.000000 0.016457 0.000000
# 6 0.000000 0.000000 0.000000 0.000000 0.000000 0.036724
#
#
# Mechanical properties :
#
#
# Convention : Reuss Voigt Hill
#
# Bulk Modulus (GPa) = 45.55222 45.77595 45.66409
# Shear Modulus (GPa) = 39.63094 42.98361 41.30728
#
# Velocity S-wave (km/s) = 4.02760 4.19451 4.11190
# Velocity P-wave (km/s) = 6.34618 6.49580 6.42143
#
# Compressibility (1/GPa) = 0.02195283
#
# Stress axis : x y z
#
# Youngs Moduli (GPa) = 104.71698 103.30618 102.13561
#
# Poissons Ratio (x) = 0.03859 0.20192
# Poissons Ratio (y) = 0.03912 0.12085
# Poissons Ratio (z) = 0.20703 0.12224
#
# Static dielectric constant tensor:
#      x y z
#    x 1.973220 0.000000 0.000000 
#    y 0.000000 2.071050 0.000000 
#    z 0.000000 0.000000 2.076800 
# 
# From -- ./inp_files/2311.got.cif
#   From: 2010.05.17/outbox.cif.g08.bks.cpg/sg41_2_cif.got.tgz:2311.got - 2010.06.03 18:54:24.
