data_PCOD9366127
_publ_section_title
;
Structure prediction by ZEFSAII (Michael W. Deem and Ramdas Pophale) SiO2 
 PCOD9366127
Probable space group: A B A 2
;
_chemical_formula_sum "Si O2"
_cell_formula_units_Z 60
_cell_length_a 15.217754
_cell_length_b 9.181735
_cell_length_c 19.245310
_cell_angle_alpha 90.000000
_cell_angle_beta 90.000000
_cell_angle_gamma 90.000000
_cell_volume 2689.058340
_symmetry_space_group_name_H-M "A B A 2"
_symmetry_group_IT_number 41
_symmetry_cell_setting 'orthorhombic'
loop_
_space_group_symop_operation_xyz
x,y,z
-x,-y,z
1/2-x,y,1/2+z
1/2+x,-y,1/2+z
x,1/2+y,1/2+z
-x,1/2-y,1/2+z
1/2-x,1/2+y,z
1/2+x,1/2-y,z
loop_
_atom_site_type_symbol
_atom_site_label
_atom_site_fract_x
_atom_site_fract_y
_atom_site_fract_z
Si Si1 0.535838 0.351940 0.967120
Si Si2 0.132652 0.143112 0.832239
Si Si3 0.734485 0.134778 0.296275
Si Si4 0.399549 0.444613 0.512255
Si Si5 0.000000 0.000000 0.261934
Si Si6 0.534851 0.801344 0.207253
Si Si7 0.646043 0.553765 0.659047
Si Si8 0.893109 0.342670 0.883747
O O1 0.500000 0.500000 0.000767
O O2 0.604852 0.396412 0.908524
O O3 0.460516 0.259809 0.926829
O O4 0.586757 0.228362 0.008210
O O5 0.170966 0.302694 0.815907
O O6 0.044444 0.140420 0.786272
O O7 0.208419 0.030424 0.812185
O O8 0.711282 0.132368 0.213608
O O9 0.674946 0.232860 0.347647
O O10 0.500000 0.500000 0.527316
O O11 0.335157 0.459377 0.577674
O O12 0.370741 0.531796 0.442127
O O13 0.035607 0.871734 0.212369
O O14 0.935435 0.920830 0.316633
O O15 0.445865 0.858921 0.172444
O O16 0.618944 0.886480 0.177054
#
# Coordination Sequence:
#
# PCOD9366127 Si02
#       8
#     8   8   8   8   4   8   8   8
#     4  11  20  37  61  92 121 153 201 260 310 361
#     4  11  23  36  59  89 124 155 207 255 310 363
#     4  11  24  37  62  86 122 164 199 260 306 373
#     4  10  20  36  64  88 121 158 201 252 306 389
#     4  12  18  30  58  94 118 142 196 266 294 354
#     4  10  20  33  58  86 118 151 201 257 294 359
#     4  10  20  41  61  84 122 166 199 242 325 363
#     4  11  20  35  60  91 118 155 201 251 315 355
#
# _framework density 22.312643999999999
#
# number of rings (size 3 to 8) (size 9 to 14) (size 15 to 20)
#    0.000    1.333    7.333    0.000    5.600    0.000 
#    1.200    0.000    5.867    0.000    0.000    0.000 
#    0.000    0.000    0.000    0.000    0.000    0.000 
#
# Total GULP energy -167026.679310 kJ/mol
# GULP energy per Si atom -5567.555977 kJ/mol
# Density = 2.226186 g / cm^3
# Si number density = 22.312644 Si / 1000 Ang^3
#
#
#
# Elastic Constant Matrix: (Units=GPa)
#
#
# Indices 1 2 3 4 5 6 
#
# 1 19.6071 8.8334 -2.8122 0.0000 0.0000 0.0000
# 2 8.8334 153.7577 25.5435 0.0000 0.0000 0.0000
# 3 -2.8122 25.5435 88.0909 0.0000 0.0000 0.0000
# 4 0.0000 0.0000 0.0000 19.7653 0.0000 0.0000
# 5 0.0000 0.0000 0.0000 0.0000 2.4300 0.0000
# 6 0.0000 0.0000 0.0000 0.0000 0.0000 30.5271
#
#
#
# Elastic Compliance Matrix: (Units=1/GPa)
#
#
# Indices 1 2 3 4 5 6 
#
# 1 0.052963 -0.003492 0.002703 0.000000 0.000000 0.000000
# 2 -0.003492 0.007063 -0.002160 0.000000 0.000000 0.000000
# 3 0.002703 -0.002160 0.012064 0.000000 0.000000 0.000000
# 4 0.000000 0.000000 0.000000 0.050594 0.000000 0.000000
# 5 0.000000 0.000000 0.000000 0.000000 0.411528 0.000000
# 6 0.000000 0.000000 0.000000 0.000000 0.000000 0.032758
#
#
# Mechanical properties :
#
#
# Convention : Reuss Voigt Hill
#
# Bulk Modulus (GPa) = 15.10710 36.06504 25.58607
# Shear Modulus (GPa) = 8.40434 25.87052 17.13743
#
# Velocity S-wave (km/s) = 1.94289 3.40877 2.77439
# Velocity P-wave (km/s) = 3.43779 5.62953 4.66422
#
# Compressibility (1/GPa) = 0.06619404
#
# Stress axis : x y z
#
# Youngs Moduli (GPa) = 18.88121 141.58073 82.88843
#
# Poissons Ratio (x) = 0.49437 -0.22407
# Poissons Ratio (y) = 0.06593 0.17900
# Poissons Ratio (z) = -0.05104 0.30575
#
# Static dielectric constant tensor:
#      x y z
#    x 1.889140 0.000000 0.000000 
#    y 0.000000 1.943490 0.000000 
#    z 0.000000 0.000000 1.895390 
# 
# From -- ./inp_files/10603.got.cif
#   From: 2010.05.17/outbox.cif.g08.bks.cpg/sg41_6_cif.got.tgz:10603.got - 2010.06.03 18:54:24.
