data_PCOD9366186
_publ_section_title
;
Structure prediction by ZEFSAII (Michael W. Deem and Ramdas Pophale) SiO2 
 PCOD9366186
Probable space group: A B A 2
;
_chemical_formula_sum "Si O2"
_cell_formula_units_Z 44
_cell_length_a 14.055229
_cell_length_b 27.837587
_cell_length_c 4.943747
_cell_angle_alpha 90.000000
_cell_angle_beta 90.000000
_cell_angle_gamma 90.000000
_cell_volume 1934.308546
_symmetry_space_group_name_H-M "A B A 2"
_symmetry_group_IT_number 41
_symmetry_cell_setting 'orthorhombic'
loop_
_space_group_symop_operation_xyz
x,y,z
-x,-y,z
1/2-x,y,1/2+z
1/2+x,-y,1/2+z
x,1/2+y,1/2+z
-x,1/2-y,1/2+z
1/2-x,1/2+y,z
1/2+x,1/2-y,z
loop_
_atom_site_type_symbol
_atom_site_label
_atom_site_fract_x
_atom_site_fract_y
_atom_site_fract_z
Si Si1 0.686113 0.332451 0.502670
Si Si2 0.815908 0.229159 0.873602
Si Si3 0.809728 0.530924 0.408781
Si Si4 0.000000 0.000000 0.614376
Si Si5 0.980941 0.398656 0.837942
Si Si6 0.092345 0.871163 0.837824
O O1 0.778672 0.334018 0.309464
O O2 0.637962 0.280798 0.438314
O O3 0.618016 0.375335 0.421430
O O4 0.775555 0.227803 0.570766
O O5 0.877285 0.181955 0.918433
O O6 0.777160 0.518328 0.708937
O O7 0.827792 0.588336 0.386887
O O8 0.906455 0.507386 0.299552
O O9 0.987493 0.953650 0.426128
O O10 0.006074 0.389027 0.527786
O O11 0.060582 0.373270 0.026925
#
# Coordination Sequence:
#
# PCOD9366186 Si02
#       6
#     8   8   8   4   8   8
#     4  10  22  40  61  88 120 160 205 245 305 381
#     4  10  20  36  60  88 122 158 196 248 303 371
#     4  11  23  40  64  90 121 163 206 255 317 374
#     4  10  26  44  62  94 128 162 218 270 314 374
#     4  11  24  40  61  86 123 162 202 264 313 363
#     4  11  22  38  61  91 122 156 202 255 313 376
#
# _framework density 22.747149
#
# number of rings (size 3 to 8) (size 9 to 14) (size 15 to 20)
#    0.000    1.455    0.000    5.455    0.000    9.455 
#    0.000    0.000    0.000    0.000    0.000    0.000 
#    0.000    0.000    0.000    0.000    0.000    0.000 
#
# Total GULP energy -123144.854928 kJ/mol
# GULP energy per Si atom -5597.493406 kJ/mol
# Density = 2.269538 g / cm^3
# Si number density = 22.747149 Si / 1000 Ang^3
#
#
#
# Elastic Constant Matrix: (Units=GPa)
#
#
# Indices 1 2 3 4 5 6 
#
# 1 52.8337 42.0394 -0.9842 0.0000 0.0000 0.0000
# 2 42.0394 117.1647 2.5515 0.0000 0.0000 0.0000
# 3 -0.9842 2.5515 69.0892 0.0000 0.0000 0.0000
# 4 0.0000 0.0000 0.0000 20.6193 0.0000 0.0000
# 5 0.0000 0.0000 0.0000 0.0000 29.2335 0.0000
# 6 0.0000 0.0000 0.0000 0.0000 0.0000 34.4496
#
#
#
# Elastic Compliance Matrix: (Units=1/GPa)
#
#
# Indices 1 2 3 4 5 6 
#
# 1 0.026527 -0.009534 0.000730 0.000000 0.000000 0.000000
# 2 -0.009534 0.011968 -0.000578 0.000000 0.000000 0.000000
# 3 0.000730 -0.000578 0.014506 0.000000 0.000000 0.000000
# 4 0.000000 0.000000 0.000000 0.048498 0.000000 0.000000
# 5 0.000000 0.000000 0.000000 0.000000 0.034207 0.000000
# 6 0.000000 0.000000 0.000000 0.000000 0.000000 0.029028
#
#
# Mechanical properties :
#
#
# Convention : Reuss Voigt Hill
#
# Bulk Modulus (GPa) = 29.20763 36.25566 32.73165
# Shear Modulus (GPa) = 25.65276 29.89254 27.77265
#
# Velocity S-wave (km/s) = 3.36182 3.62902 3.49797
# Velocity P-wave (km/s) = 5.28556 5.79075 5.54391
#
# Compressibility (1/GPa) = 0.03423762
#
# Stress axis : x y z
#
# Youngs Moduli (GPa) = 37.69748 83.55326 68.93802
#
# Poissons Ratio (x) = 0.79659 -0.05032
# Poissons Ratio (y) = 0.35941 0.03983
# Poissons Ratio (z) = -0.02752 0.04828
#
# Static dielectric constant tensor:
#      x y z
#    x 1.831400 0.000000 0.000000 
#    y 0.000000 1.850790 0.000000 
#    z 0.000000 0.000000 1.798420 
# 
# From -- ./inp_files/273.got.cif
#   From: 2010.05.17/outbox.cif.g08.bks.cpg/sg41_1_cif.got.tgz:273.got - 2010.06.03 18:54:24.
