data_PCOD9366495
_publ_section_title
;
Structure prediction by ZEFSAII (Michael W. Deem and Ramdas Pophale) SiO2 
 PCOD9366495
Probable space group: A B A 2
;
_chemical_formula_sum "Si O2"
_cell_formula_units_Z 36
_cell_length_a 15.393650
_cell_length_b 6.883963
_cell_length_c 12.541086
_cell_angle_alpha 90.000000
_cell_angle_beta 90.000000
_cell_angle_gamma 90.000000
_cell_volume 1328.970318
_symmetry_space_group_name_H-M "A B A 2"
_symmetry_group_IT_number 41
_symmetry_cell_setting 'orthorhombic'
loop_
_space_group_symop_operation_xyz
x,y,z
-x,-y,z
1/2-x,y,1/2+z
1/2+x,-y,1/2+z
x,1/2+y,1/2+z
-x,1/2-y,1/2+z
1/2-x,1/2+y,z
1/2+x,1/2-y,z
loop_
_atom_site_type_symbol
_atom_site_label
_atom_site_fract_x
_atom_site_fract_y
_atom_site_fract_z
Si Si1 0.662118 0.586507 0.352850
Si Si2 0.500000 0.500000 0.738307
Si Si3 0.135841 0.536711 0.079598
Si Si4 0.837883 0.913494 0.123766
Si Si5 0.364160 0.963289 0.397017
O O1 0.767256 0.400855 0.111849
O O2 0.628918 0.455678 0.451854
O O3 0.642143 0.500001 0.238308
O O4 0.767257 0.599146 0.364766
O O5 0.561806 0.883460 0.156459
O O6 0.438194 0.383461 0.820155
O O7 0.131355 0.694648 0.370911
O O8 0.131354 0.305351 0.105704
O O9 0.871083 0.044322 0.024761
#
# Coordination Sequence:
#
# PCOD9366495 Si02
#       5
#     8   4   8   8   8
#     4  10  20  43  67  94 117 177 222 254 308 419
#     4  12  24  44  56  96 136 158 194 298 328 368
#     4  10  23  40  67  93 131 164 220 263 332 374
#     4  10  20  43  67  94 117 177 222 254 308 419
#     4  10  23  40  67  93 131 164 220 263 332 374
#
# _framework density 27.088643000000001
#
# number of rings (size 3 to 8) (size 9 to 14) (size 15 to 20)
#    0.000    1.778    2.222    1.333    0.000    0.000 
#   16.000    0.000    0.000    0.000    0.000    0.000 
#    0.000    0.000    0.000    0.000    0.000    0.000 
#
# Total GULP energy -100959.832912 kJ/mol
# GULP energy per Si atom -5608.879606 kJ/mol
# Density = 2.702699 g / cm^3
# Si number density = 27.088643 Si / 1000 Ang^3
#
#
#
# Elastic Constant Matrix: (Units=GPa)
#
#
# Indices 1 2 3 4 5 6 
#
# 1 121.3537 23.7692 89.9355 0.0000 0.0000 0.0000
# 2 23.7692 71.2366 42.2191 0.0000 0.0000 0.0000
# 3 89.9355 42.2191 313.7458 0.0000 0.0000 0.0000
# 4 0.0000 0.0000 0.0000 47.5872 0.0000 0.0000
# 5 0.0000 0.0000 0.0000 0.0000 1.0742 0.0000
# 6 0.0000 0.0000 0.0000 0.0000 0.0000 14.7982
#
#
#
# Elastic Compliance Matrix: (Units=1/GPa)
#
#
# Indices 1 2 3 4 5 6 
#
# 1 0.010696 -0.001904 -0.002810 0.000000 0.000000 0.000000
# 2 -0.001904 0.015593 -0.001553 0.000000 0.000000 0.000000
# 3 -0.002810 -0.001553 0.004202 0.000000 0.000000 0.000000
# 4 0.000000 0.000000 0.000000 0.021014 0.000000 0.000000
# 5 0.000000 0.000000 0.000000 0.000000 0.930889 0.000000
# 6 0.000000 0.000000 0.000000 0.000000 0.000000 0.067576
#
#
# Mechanical properties :
#
#
# Convention : Reuss Voigt Hill
#
# Bulk Modulus (GPa) = 55.68407 90.90929 73.29668
# Shear Modulus (GPa) = 4.67951 36.05275 20.36613
#
# Velocity S-wave (km/s) = 1.31576 3.65213 2.74493
# Velocity P-wave (km/s) = 4.78635 7.17056 6.09615
#
# Compressibility (1/GPa) = 0.01795846
#
# Stress axis : x y z
#
# Youngs Moduli (GPa) = 93.49718 64.13114 238.00257
#
# Poissons Ratio (x) = 0.12207 0.66872
# Poissons Ratio (y) = 0.17797 0.36953
# Poissons Ratio (z) = 0.26270 0.09957
#
# Static dielectric constant tensor:
#      x y z
#    x 2.090000 0.000000 0.000000 
#    y 0.000000 2.277450 0.000000 
#    z 0.000000 0.000000 2.111330 
# 
# From -- ./inp_files/3313.got.cif
#   From: 2010.05.17/outbox.cif.g08.bks.cpg/sg41_2_cif.got.tgz:3313.got - 2010.06.03 18:54:24.
