data_PCOD9366232
_publ_section_title
;
Structure prediction by ZEFSAII (Michael W. Deem and Ramdas Pophale) SiO2 
 PCOD9366232
Probable space group: A B A 2
;
_chemical_formula_sum "Si O2"
_cell_formula_units_Z 60
_cell_length_a 5.253878
_cell_length_b 26.041467
_cell_length_c 19.979485
_cell_angle_alpha 90.000000
_cell_angle_beta 90.000000
_cell_angle_gamma 90.000000
_cell_volume 2733.566976
_symmetry_space_group_name_H-M "A B A 2"
_symmetry_group_IT_number 41
_symmetry_cell_setting 'orthorhombic'
loop_
_space_group_symop_operation_xyz
x,y,z
-x,-y,z
1/2-x,y,1/2+z
1/2+x,-y,1/2+z
x,1/2+y,1/2+z
-x,1/2-y,1/2+z
1/2-x,1/2+y,z
1/2+x,1/2-y,z
loop_
_atom_site_type_symbol
_atom_site_label
_atom_site_fract_x
_atom_site_fract_y
_atom_site_fract_z
Si Si1 0.523731 0.105205 0.099180
Si Si2 0.495911 0.901838 0.376992
Si Si3 0.000000 0.500000 0.163710
Si Si4 0.566941 0.218468 0.341765
Si Si5 0.094095 0.741346 0.693552
Si Si6 0.002926 0.062435 0.454955
Si Si7 0.349539 0.045296 0.772968
Si Si8 0.004804 0.130085 0.179544
O O1 0.586229 0.047210 0.120511
O O2 0.246229 0.117792 0.130980
O O3 0.748655 0.135944 0.136188
O O4 0.534604 0.099253 0.019759
O O5 0.468493 0.840541 0.364072
O O6 0.227258 0.923261 0.404061
O O7 0.612343 0.928860 0.310796
O O8 0.721900 0.919508 0.427332
O O9 0.228006 0.516942 0.210223
O O10 0.828260 0.246188 0.363618
O O11 0.578728 0.223591 0.259931
O O12 0.846340 0.753393 0.652183
O O13 0.070849 0.682983 0.715738
O O14 0.000000 0.000000 0.467980
O O15 0.521023 0.089259 0.739522
O O16 0.500000 0.000000 0.810921
#
# Coordination Sequence:
#
# PCOD9366232 Si02
#       8
#     8   8   4   8   8   8   8   8
#     4  11  23  44  67  93 133 179 236 272 324 398
#     4  12  27  42  68 104 136 184 235 282 343 418
#     4  10  22  38  60  94 126 180 212 266 334 396
#     4  10  21  41  67  95 132 174 218 274 345 421
#     4  10  20  37  62  95 131 165 209 265 350 411
#     4  12  27  47  69  95 142 194 240 280 324 400
#     4  11  23  38  60  96 145 167 212 278 352 408
#     4  11  23  39  70 102 128 172 226 286 340 418
#
# _framework density 21.949342000000001
#
# number of rings (size 3 to 8) (size 9 to 14) (size 15 to 20)
#    0.000    1.067    2.000    4.800    3.733    4.267 
#    0.000    0.000    0.000   16.000    0.000    0.000 
#    0.000    0.000    0.000    0.000    0.000    0.000 
#
# Total GULP energy -167369.983923 kJ/mol
# GULP energy per Si atom -5578.999464 kJ/mol
# Density = 2.189938 g / cm^3
# Si number density = 21.949342 Si / 1000 Ang^3
#
#
#
# Elastic Constant Matrix: (Units=GPa)
#
#
# Indices 1 2 3 4 5 6 
#
# 1 132.6935 33.6104 19.2471 0.0000 0.0000 0.0000
# 2 33.6104 108.3744 15.9107 0.0000 0.0000 0.0000
# 3 19.2471 15.9107 62.9077 0.0000 0.0000 0.0000
# 4 0.0000 0.0000 0.0000 10.4113 0.0000 0.0000
# 5 0.0000 0.0000 0.0000 0.0000 21.3038 0.0000
# 6 0.0000 0.0000 0.0000 0.0000 0.0000 34.6054
#
#
#
# Elastic Compliance Matrix: (Units=1/GPa)
#
#
# Indices 1 2 3 4 5 6 
#
# 1 0.008411 -0.002317 -0.001988 0.000000 0.000000 0.000000
# 2 -0.002317 0.010221 -0.001876 0.000000 0.000000 0.000000
# 3 -0.001988 -0.001876 0.016979 0.000000 0.000000 0.000000
# 4 0.000000 0.000000 0.000000 0.096050 0.000000 0.000000
# 5 0.000000 0.000000 0.000000 0.000000 0.046940 0.000000
# 6 0.000000 0.000000 0.000000 0.000000 0.000000 0.028897
#
#
# Mechanical properties :
#
#
# Convention : Reuss Voigt Hill
#
# Bulk Modulus (GPa) = 43.01045 49.05691 46.03368
# Shear Modulus (GPa) = 21.96741 28.94460 25.45600
#
# Velocity S-wave (km/s) = 3.16701 3.63533 3.40922
# Velocity P-wave (km/s) = 5.74553 6.32609 6.04279
#
# Compressibility (1/GPa) = 0.02325017
#
# Stress axis : x y z
#
# Youngs Moduli (GPa) = 118.88786 97.83532 58.89638
#
# Poissons Ratio (x) = 0.22667 0.11706
# Poissons Ratio (y) = 0.27544 0.11051
# Poissons Ratio (z) = 0.23629 0.18357
#
# Static dielectric constant tensor:
#      x y z
#    x 1.944500 0.000000 0.000000 
#    y 0.000000 1.914120 0.000000 
#    z 0.000000 0.000000 1.809320 
# 
# From -- ./inp_files/11015.got.cif
#   From: 2010.05.17/outbox.cif.g08.bks.cpg/sg41_6_cif.got.tgz:11015.got - 2010.06.03 18:54:24.
