data_PCOD9366814
_publ_section_title
;
Structure prediction by ZEFSAII (Michael W. Deem and Ramdas Pophale) SiO2 
 PCOD9366814
Probable space group: A B A 2
;
_chemical_formula_sum "Si O2"
_cell_formula_units_Z 60
_cell_length_a 24.630753
_cell_length_b 11.650006
_cell_length_c 8.744891
_cell_angle_alpha 90.000000
_cell_angle_beta 90.000000
_cell_angle_gamma 90.000000
_cell_volume 2509.332658
_symmetry_space_group_name_H-M "A B A 2"
_symmetry_group_IT_number 41
_symmetry_cell_setting 'orthorhombic'
loop_
_space_group_symop_operation_xyz
x,y,z
-x,-y,z
1/2-x,y,1/2+z
1/2+x,-y,1/2+z
x,1/2+y,1/2+z
-x,1/2-y,1/2+z
1/2-x,1/2+y,z
1/2+x,1/2-y,z
loop_
_atom_site_type_symbol
_atom_site_label
_atom_site_fract_x
_atom_site_fract_y
_atom_site_fract_z
Si Si1 0.590144 0.616514 0.419060
Si Si2 0.428772 0.159145 0.570891
Si Si3 0.763856 0.847563 0.680242
Si Si4 0.500000 0.000000 0.133221
Si Si5 0.039875 0.237144 0.645834
Si Si6 0.106645 0.618217 0.881565
Si Si7 0.805729 0.721271 0.390967
Si Si8 0.174881 0.037869 0.963767
O O1 0.604066 0.724383 0.523750
O O2 0.545971 0.545827 0.517711
O O3 0.567626 0.676556 0.265294
O O4 0.631288 0.510060 0.395750
O O5 0.491200 0.202657 0.550851
O O6 0.435606 0.109994 0.742712
O O7 0.388686 0.068542 0.488275
O O8 0.796216 0.804104 0.534836
O O9 0.743261 0.735861 0.773486
O O10 0.713663 0.917064 0.602313
O O11 0.800699 0.912880 0.804157
O O12 0.517017 0.883195 0.220544
O O13 0.082199 0.182261 0.527393
O O14 0.145424 0.713905 0.810633
O O15 0.818647 0.597111 0.448091
#
# Coordination Sequence:
#
# PCOD9366814 Si02
#       8
#     8   8   8   4   8   8   8   8
#     4  10  22  42  64  90 134 176 217 268 329 383
#     4  11  23  42  64  98 130 171 222 275 318 389
#     4  10  24  47  69  97 131 174 214 279 344 395
#     4   8  18  40  60  88 126 168 222 272 316 376
#     4  10  21  41  67  91 132 184 219 268 332 383
#     4  11  25  43  64  97 136 175 220 273 328 396
#     4  11  24  46  70 101 132 172 222 273 337 402
#     4  11  24  44  69  99 131 167 222 275 335 403
#
# _framework density 23.910741999999999
#
# number of rings (size 3 to 8) (size 9 to 14) (size 15 to 20)
#    0.000    1.600    1.333    3.200    3.733    1.067 
#   14.400    2.667    0.000    0.000    0.000    0.000 
#    0.000    0.000    0.000    0.000    0.000    0.000 
#
# Total GULP energy -167102.646748 kJ/mol
# GULP energy per Si atom -5570.088225 kJ/mol
# Density = 2.385632 g / cm^3
# Si number density = 23.910742 Si / 1000 Ang^3
#
#
#
# Elastic Constant Matrix: (Units=GPa)
#
#
# Indices 1 2 3 4 5 6 
#
# 1 57.9841 35.7085 25.9213 0.0000 0.0000 0.0000
# 2 35.7085 140.6815 42.7050 0.0000 0.0000 0.0000
# 3 25.9213 42.7050 114.6492 0.0000 0.0000 0.0000
# 4 0.0000 0.0000 0.0000 29.6622 0.0000 0.0000
# 5 0.0000 0.0000 0.0000 0.0000 25.0661 0.0000
# 6 0.0000 0.0000 0.0000 0.0000 0.0000 31.7079
#
#
#
# Elastic Compliance Matrix: (Units=1/GPa)
#
#
# Indices 1 2 3 4 5 6 
#
# 1 0.021421 -0.004473 -0.003177 0.000000 0.000000 0.000000
# 2 -0.004473 0.008948 -0.002322 0.000000 0.000000 0.000000
# 3 -0.003177 -0.002322 0.010305 0.000000 0.000000 0.000000
# 4 0.000000 0.000000 0.000000 0.033713 0.000000 0.000000
# 5 0.000000 0.000000 0.000000 0.000000 0.039895 0.000000
# 6 0.000000 0.000000 0.000000 0.000000 0.000000 0.031538
#
#
# Mechanical properties :
#
#
# Convention : Reuss Voigt Hill
#
# Bulk Modulus (GPa) = 48.23623 57.99827 53.11725
# Shear Modulus (GPa) = 28.95635 31.21925 30.08780
#
# Velocity S-wave (km/s) = 3.48374 3.61731 3.55115
# Velocity P-wave (km/s) = 6.03318 6.46184 6.25118
#
# Compressibility (1/GPa) = 0.02073130
#
# Stress axis : x y z
#
# Youngs Moduli (GPa) = 46.68348 111.75220 97.03619
#
# Poissons Ratio (x) = 0.49984 0.30829
# Poissons Ratio (y) = 0.20880 0.22531
# Poissons Ratio (z) = 0.14832 0.25947
#
# Static dielectric constant tensor:
#      x y z
#    x 1.854890 0.000000 0.000000 
#    y 0.000000 1.996810 0.000000 
#    z 0.000000 0.000000 2.037190 
# 
# From -- ./inp_files/3833.got.cif
#   From: 2010.05.17/outbox.cif.g08.bks.cpg/sg41_2_cif.got.tgz:3833.got - 2010.06.03 18:54:24.
