data_PCOD9366864
_publ_section_title
;
Structure prediction by ZEFSAII (Michael W. Deem and Ramdas Pophale) SiO2 
 PCOD9366864
Probable space group: A B A 2
;
_chemical_formula_sum "Si O2"
_cell_formula_units_Z 36
_cell_length_a 12.305208
_cell_length_b 5.066704
_cell_length_c 24.057048
_cell_angle_alpha 90.000000
_cell_angle_beta 90.000000
_cell_angle_gamma 90.000000
_cell_volume 1499.881081
_symmetry_space_group_name_H-M "A B A 2"
_symmetry_group_IT_number 41
_symmetry_cell_setting 'orthorhombic'
loop_
_space_group_symop_operation_xyz
x,y,z
-x,-y,z
1/2-x,y,1/2+z
1/2+x,-y,1/2+z
x,1/2+y,1/2+z
-x,1/2-y,1/2+z
1/2-x,1/2+y,z
1/2+x,1/2-y,z
loop_
_atom_site_type_symbol
_atom_site_label
_atom_site_fract_x
_atom_site_fract_y
_atom_site_fract_z
Si Si1 0.826558 0.251814 0.821810
Si Si2 0.426894 0.243652 0.582230
Si Si3 0.000000 0.000000 0.402781
Si Si4 0.820179 0.367115 0.699222
Si Si5 0.184694 0.722646 0.471429
O O1 0.727387 0.463868 0.827546
O O2 0.870228 0.295837 0.758871
O O3 0.921099 0.327003 0.863930
O O4 0.500000 0.500000 0.579166
O O5 0.388116 0.198412 0.644852
O O6 0.331413 0.256314 0.537497
O O7 0.500000 0.000000 0.563907
O O8 0.923753 0.181848 0.441102
O O9 0.784456 0.671958 0.697124
O O10 0.220776 0.429647 0.456420
#
# Coordination Sequence:
#
# PCOD9366864 Si02
#       5
#     8   8   4   8   8
#     4  10  24  45  68 102 137 179 230 281 343 407
#     4  12  24  42  69 104 137 180 232 283 346 413
#     4  12  26  46  74 102 138 188 232 290 334 414
#     4  10  21  42  67  96 137 178 222 280 345 408
#     4  12  27  46  71 102 140 183 232 289 348 411
#
# _framework density 24.001902999999999
#
# number of rings (size 3 to 8) (size 9 to 14) (size 15 to 20)
#    0.000    0.889    1.111    5.333    1.556    2.667 
#    0.000    0.000    0.000    0.000    0.000    0.000 
#    0.000    0.000    0.000    0.000    0.000    0.000 
#
# Total GULP energy -100960.354270 kJ/mol
# GULP energy per Si atom -5608.908571 kJ/mol
# Density = 2.394727 g / cm^3
# Si number density = 24.001903 Si / 1000 Ang^3
#
#
#
# Elastic Constant Matrix: (Units=GPa)
#
#
# Indices 1 2 3 4 5 6 
#
# 1 67.7159 20.1514 36.0712 0.0000 0.0000 0.0000
# 2 20.1514 99.5247 15.4794 0.0000 0.0000 0.0000
# 3 36.0712 15.4794 137.2538 0.0000 0.0000 0.0000
# 4 0.0000 0.0000 0.0000 29.5321 0.0000 0.0000
# 5 0.0000 0.0000 0.0000 0.0000 51.7230 0.0000
# 6 0.0000 0.0000 0.0000 0.0000 0.0000 25.4572
#
#
#
# Elastic Compliance Matrix: (Units=1/GPa)
#
#
# Indices 1 2 3 4 5 6 
#
# 1 0.017989 -0.002959 -0.004394 0.000000 0.000000 0.000000
# 2 -0.002959 0.010714 -0.000431 0.000000 0.000000 0.000000
# 3 -0.004394 -0.000431 0.008489 0.000000 0.000000 0.000000
# 4 0.000000 0.000000 0.000000 0.033861 0.000000 0.000000
# 5 0.000000 0.000000 0.000000 0.000000 0.019334 0.000000
# 6 0.000000 0.000000 0.000000 0.000000 0.000000 0.039282
#
#
# Mechanical properties :
#
#
# Convention : Reuss Voigt Hill
#
# Bulk Modulus (GPa) = 46.24332 49.76650 48.00491
# Shear Modulus (GPa) = 32.79906 36.86195 34.83050
#
# Velocity S-wave (km/s) = 3.70066 3.92317 3.81354
# Velocity P-wave (km/s) = 6.12929 6.42659 6.27970
#
# Compressibility (1/GPa) = 0.02162474
#
# Stress axis : x y z
#
# Youngs Moduli (GPa) = 55.59062 93.33709 117.79849
#
# Poissons Ratio (x) = 0.27617 0.51759
# Poissons Ratio (y) = 0.16449 0.05073
# Poissons Ratio (z) = 0.24426 0.04020
#
# Static dielectric constant tensor:
#      x y z
#    x 1.872470 0.000000 0.000000 
#    y 0.000000 1.858390 0.000000 
#    z 0.000000 0.000000 1.927960 
# 
# From -- ./inp_files/12081.got.cif
#   From: 2010.05.17/outbox.cif.g08.bks.cpg/sg41_7_cif.got.tgz:12081.got - 2010.06.03 18:54:24.
