data_PCOD9366424
_publ_section_title
;
Structure prediction by ZEFSAII (Michael W. Deem and Ramdas Pophale) SiO2 
 PCOD9366424
Probable space group: A B A 2
;
_chemical_formula_sum "Si O2"
_cell_formula_units_Z 60
_cell_length_a 21.841517
_cell_length_b 17.442291
_cell_length_c 8.211893
_cell_angle_alpha 90.000000
_cell_angle_beta 90.000000
_cell_angle_gamma 90.000000
_cell_volume 3128.452812
_symmetry_space_group_name_H-M "A B A 2"
_symmetry_group_IT_number 41
_symmetry_cell_setting 'orthorhombic'
loop_
_space_group_symop_operation_xyz
x,y,z
-x,-y,z
1/2-x,y,1/2+z
1/2+x,-y,1/2+z
x,1/2+y,1/2+z
-x,1/2-y,1/2+z
1/2-x,1/2+y,z
1/2+x,1/2-y,z
loop_
_atom_site_type_symbol
_atom_site_label
_atom_site_fract_x
_atom_site_fract_y
_atom_site_fract_z
Si Si1 0.003031 0.300283 0.931090
Si Si2 0.500000 0.000000 0.449411
Si Si3 0.541853 0.651185 0.770364
Si Si4 0.282061 0.072929 0.236054
Si Si5 0.829070 0.506488 0.923422
Si Si6 0.362858 0.824908 0.005206
Si Si7 0.076257 0.088723 0.216522
Si Si8 0.184954 0.167022 0.039034
O O1 0.971561 0.218615 0.899025
O O2 0.974826 0.363025 0.810844
O O3 0.997303 0.329562 0.116896
O O4 0.076441 0.295903 0.909336
O O5 0.470763 0.932145 0.342361
O O6 0.548646 0.959766 0.569048
O O7 0.608431 0.658276 0.684991
O O8 0.231204 0.019030 0.322640
O O9 0.321008 0.026415 0.105300
O O10 0.243585 0.136261 0.135788
O O11 0.318816 0.116411 0.376031
O O12 0.838091 0.596923 0.931720
O O13 0.887029 0.466969 0.837549
O O14 0.314531 0.756858 0.006603
O O15 0.125347 0.148777 0.146237
#
# Coordination Sequence:
#
# PCOD9366424 Si02
#       8
#     8   4   8   8   8   8   8   8
#     4  10  21  40  57  89 128 168 197 252 295 389
#     4  12  24  36  58  94 126 166 204 252 300 374
#     4  10  23  37  58  88 128 164 204 245 297 368
#     4   9  22  41  65  84 121 153 217 260 322 356
#     4  10  22  40  63  93 116 165 201 272 309 364
#     4  10  22  35  63  87 126 152 209 237 317 364
#     4  11  22  38  62  84 130 162 208 243 311 373
#     4  10  20  41  61  88 114 167 200 261 304 379
#
# _framework density 19.178809999999999
#
# number of rings (size 3 to 8) (size 9 to 14) (size 15 to 20)
#    0.800    1.067    1.333    2.400    3.733    2.133 
#    0.000    0.000    0.000    0.000    0.000    0.000 
#    0.000    0.000    0.000    0.000    0.000    0.000 
#
# Total GULP energy -167401.828832 kJ/mol
# GULP energy per Si atom -5580.060961 kJ/mol
# Density = 1.913516 g / cm^3
# Si number density = 19.178810 Si / 1000 Ang^3
#
#
#
# Elastic Constant Matrix: (Units=GPa)
#
#
# Indices 1 2 3 4 5 6 
#
# 1 19.4858 5.5175 -8.2486 0.0000 0.0000 0.0000
# 2 5.5175 116.2638 -1.1474 0.0000 0.0000 0.0000
# 3 -8.2486 -1.1474 41.2362 0.0000 0.0000 0.0000
# 4 0.0000 0.0000 0.0000 34.0298 0.0000 0.0000
# 5 0.0000 0.0000 0.0000 0.0000 2.8459 0.0000
# 6 0.0000 0.0000 0.0000 0.0000 0.0000 7.3644
#
#
#
# Elastic Compliance Matrix: (Units=1/GPa)
#
#
# Indices 1 2 3 4 5 6 
#
# 1 0.056834 -0.002586 0.011297 0.000000 0.000000 0.000000
# 2 -0.002586 0.008721 -0.000275 0.000000 0.000000 0.000000
# 3 0.011297 -0.000275 0.026503 0.000000 0.000000 0.000000
# 4 0.000000 0.000000 0.000000 0.029386 0.000000 0.000000
# 5 0.000000 0.000000 0.000000 0.000000 0.351382 0.000000
# 6 0.000000 0.000000 0.000000 0.000000 0.000000 0.135789
#
#
# Mechanical properties :
#
#
# Convention : Reuss Voigt Hill
#
# Bulk Modulus (GPa) = 9.18019 18.80320 13.99169
# Shear Modulus (GPa) = 7.96113 20.90564 14.43339
#
# Velocity S-wave (km/s) = 2.03961 3.30515 2.74628
# Velocity P-wave (km/s) = 3.21616 4.93871 4.16741
#
# Compressibility (1/GPa) = 0.10893019
#
# Stress axis : x y z
#
# Youngs Moduli (GPa) = 17.59524 114.66406 37.73215
#
# Poissons Ratio (x) = 0.29648 -0.42625
# Poissons Ratio (y) = 0.04550 0.01036
# Poissons Ratio (z) = -0.19877 0.03148
#
# Static dielectric constant tensor:
#      x y z
#    x 1.659720 0.000000 0.000000 
#    y 0.000000 1.651470 0.000000 
#    z 0.000000 0.000000 1.678700 
# 
# From -- ./inp_files/3845.got.cif
#   From: 2010.05.17/outbox.cif.g08.bks.cpg/sg41_2_cif.got.tgz:3845.got - 2010.06.03 18:54:24.
