data_PCOD9366019
_publ_section_title
;
Structure prediction by ZEFSAII (Michael W. Deem and Ramdas Pophale) SiO2 
 PCOD9366019
Probable space group: A B A 2
;
_chemical_formula_sum "Si O2"
_cell_formula_units_Z 48
_cell_length_a 14.630964
_cell_length_b 10.983461
_cell_length_c 12.028372
_cell_angle_alpha 90.000000
_cell_angle_beta 90.000000
_cell_angle_gamma 90.000000
_cell_volume 1932.942811
_symmetry_space_group_name_H-M "A B A 2"
_symmetry_group_IT_number 41
_symmetry_cell_setting 'orthorhombic'
loop_
_space_group_symop_operation_xyz
x,y,z
-x,-y,z
1/2-x,y,1/2+z
1/2+x,-y,1/2+z
x,1/2+y,1/2+z
-x,1/2-y,1/2+z
1/2-x,1/2+y,z
1/2+x,1/2-y,z
loop_
_atom_site_type_symbol
_atom_site_label
_atom_site_fract_x
_atom_site_fract_y
_atom_site_fract_z
Si Si1 0.226281 0.154892 0.429630
Si Si2 0.102659 0.297216 0.248340
Si Si3 0.907076 0.455993 0.647524
Si Si4 0.726281 0.154892 0.624559
Si Si5 0.102659 0.202784 0.805850
Si Si6 0.592924 0.044007 0.906666
O O1 0.155065 0.232382 0.351575
O O2 0.245116 0.250000 0.527095
O O3 0.318375 0.122158 0.361675
O O4 0.174671 0.030497 0.459334
O O5 0.090567 0.187560 0.159407
O O6 0.181625 0.377842 0.192514
O O7 1.000000 0.341059 0.277095
O O8 0.825329 0.530497 0.594856
O O9 0.906321 0.500000 0.777095
O O10 0.000000 0.500000 0.592596
O O11 0.655065 0.232382 0.702615
O O12 0.090567 0.312440 0.894782
O O13 0.500000 0.000000 0.961593
#
# Coordination Sequence:
#
# PCOD9366019 Si02
#       6
#     8   8   8   8   8   8
#     4  10  21  33  57  93 119 149 205 259 291 351
#     4  10  19  37  61  83 115 164 204 241 303 369
#     4   9  15  34  59  80 109 163 202 230 296 374
#     4  10  21  33  57  93 119 149 205 259 291 351
#     4  10  19  37  61  83 115 164 204 241 303 369
#     4   9  15  34  59  80 109 163 202 230 296 374
#
# _framework density 24.832604
#
# number of rings (size 3 to 8) (size 9 to 14) (size 15 to 20)
#    0.000    2.333    6.667    0.000    0.000    2.667 
#    0.000    0.000    0.000   23.000    0.000    0.000 
#    0.000    0.000    0.000    0.000    0.000    0.000 
#
# Total GULP energy -133954.449999 kJ/mol
# GULP energy per Si atom -5581.435417 kJ/mol
# Density = 2.477608 g / cm^3
# Si number density = 24.832604 Si / 1000 Ang^3
#
#
#
# Elastic Constant Matrix: (Units=GPa)
#
#
# Indices 1 2 3 4 5 6 
#
# 1 249.0609 19.6836 50.8968 0.0000 0.0000 0.0000
# 2 19.6836 42.3024 2.0946 0.0000 0.0000 0.0000
# 3 50.8968 2.0946 59.3005 0.0000 0.0000 0.0000
# 4 0.0000 0.0000 0.0000 18.0876 0.0000 0.0000
# 5 0.0000 0.0000 0.0000 0.0000 22.5703 0.0000
# 6 0.0000 0.0000 0.0000 0.0000 0.0000 23.0290
#
#
#
# Elastic Compliance Matrix: (Units=1/GPa)
#
#
# Indices 1 2 3 4 5 6 
#
# 1 0.005056 -0.002141 -0.004263 0.000000 0.000000 0.000000
# 2 -0.002141 0.024588 0.000969 0.000000 0.000000 0.000000
# 3 -0.004263 0.000969 0.020488 0.000000 0.000000 0.000000
# 4 0.000000 0.000000 0.000000 0.055286 0.000000 0.000000
# 5 0.000000 0.000000 0.000000 0.000000 0.044306 0.000000
# 6 0.000000 0.000000 0.000000 0.000000 0.000000 0.043424
#
#
# Mechanical properties :
#
#
# Convention : Reuss Voigt Hill
#
# Bulk Modulus (GPa) = 25.47076 55.11266 40.29171
# Shear Modulus (GPa) = 23.03030 31.26997 27.15013
#
# Velocity S-wave (km/s) = 3.04866 3.55241 3.31014
# Velocity P-wave (km/s) = 4.76148 6.25044 5.55607
#
# Compressibility (1/GPa) = 0.03926071
#
# Stress axis : x y z
#
# Youngs Moduli (GPa) = 197.80134 40.67081 48.80828
#
# Poissons Ratio (x) = 0.08709 0.20809
# Poissons Ratio (y) = 0.42355 -0.04731
# Poissons Ratio (z) = 0.84333 -0.03942
#
# Static dielectric constant tensor:
#      x y z
#    x 2.045190 0.000000 0.000000 
#    y 0.000000 2.016620 0.000000 
#    z 0.000000 0.000000 2.011840 
# 
# From -- ./inp_files/8435.got.cif
#   From: 2010.05.17/outbox.cif.g08.bks.cpg/sg41_5_cif.got.tgz:8435.got - 2010.06.03 18:54:24.
