data_PCOD9366321
_publ_section_title
;
Structure prediction by ZEFSAII (Michael W. Deem and Ramdas Pophale) SiO2 
 PCOD9366321
Probable space group: A B A 2
;
_chemical_formula_sum "Si O2"
_cell_formula_units_Z 64
_cell_length_a 15.946616
_cell_length_b 18.807692
_cell_length_c 8.561638
_cell_angle_alpha 90.000000
_cell_angle_beta 90.000000
_cell_angle_gamma 90.000000
_cell_volume 2567.798268
_symmetry_space_group_name_H-M "A B A 2"
_symmetry_group_IT_number 41
_symmetry_cell_setting 'orthorhombic'
loop_
_space_group_symop_operation_xyz
x,y,z
-x,-y,z
1/2-x,y,1/2+z
1/2+x,-y,1/2+z
x,1/2+y,1/2+z
-x,1/2-y,1/2+z
1/2-x,1/2+y,z
1/2+x,1/2-y,z
loop_
_atom_site_type_symbol
_atom_site_label
_atom_site_fract_x
_atom_site_fract_y
_atom_site_fract_z
Si Si1 0.494781 0.385769 0.977170
Si Si2 0.366763 0.309675 0.122815
Si Si3 0.799115 0.406600 0.022290
Si Si4 0.003780 0.223030 0.368134
Si Si5 0.772801 0.654761 0.348112
Si Si6 0.508163 0.402219 0.614248
Si Si7 0.143693 0.133757 0.189030
Si Si8 0.832924 0.059219 0.581178
O O1 0.494672 0.300347 0.944874
O O2 0.499439 0.413107 0.801522
O O3 0.410200 0.387379 0.083643
O O4 0.574525 0.406414 0.081528
O O5 0.431835 0.272900 0.237632
O O6 0.283610 0.306108 0.224711
O O7 0.328661 0.293608 0.952881
O O8 0.891566 0.395286 0.093429
O O9 0.724352 0.354976 0.077326
O O10 0.780599 0.487085 0.074368
O O11 0.815271 0.404684 0.837668
O O12 0.983218 0.167767 0.508569
O O13 0.084422 0.193661 0.270899
O O14 0.825901 0.599054 0.246553
O O15 0.708924 0.611185 0.456214
O O16 0.432129 0.453374 0.551672
#
# Coordination Sequence:
#
# PCOD9366321 Si02
#       8
#     8   8   8   8   8   8   8   8
#     4  11  22  42  68  93 131 181 229 280 362 421
#     4  10  20  39  58  94 128 165 220 270 341 403
#     4  11  23  41  66  96 135 179 228 282 347 417
#     4  10  22  42  68  93 130 180 224 282 362 423
#     4  10  21  37  64  88 129 173 212 286 336 406
#     4  11  21  39  65  93 137 177 223 291 333 417
#     4  10  23  43  67  95 138 178 230 295 345 425
#     4  11  21  39  66  95 133 181 226 276 355 410
#
# _framework density 24.924074999999998
#
# number of rings (size 3 to 8) (size 9 to 14) (size 15 to 20)
#    0.000    1.500    2.500    3.375    0.000    0.000 
#    0.000    8.750    0.000    0.000    0.000    0.000 
#    0.000    0.000    0.000    0.000    0.000    0.000 
#
# Total GULP energy -178203.928873 kJ/mol
# GULP energy per Si atom -5568.872777 kJ/mol
# Density = 2.486735 g / cm^3
# Si number density = 24.924075 Si / 1000 Ang^3
#
#
#
# Elastic Constant Matrix: (Units=GPa)
#
#
# Indices 1 2 3 4 5 6 
#
# 1 131.2079 0.8963 34.3113 0.0000 0.0000 0.0000
# 2 0.8963 33.7706 9.6886 0.0000 0.0000 0.0000
# 3 34.3113 9.6886 143.7228 0.0000 0.0000 0.0000
# 4 0.0000 0.0000 0.0000 0.8407 0.0000 0.0000
# 5 0.0000 0.0000 0.0000 0.0000 51.0586 0.0000
# 6 0.0000 0.0000 0.0000 0.0000 0.0000 13.7431
#
#
#
# Elastic Compliance Matrix: (Units=1/GPa)
#
#
# Indices 1 2 3 4 5 6 
#
# 1 0.008133 0.000348 -0.001965 0.000000 0.000000 0.000000
# 2 0.000348 0.030210 -0.002120 0.000000 0.000000 0.000000
# 3 -0.001965 -0.002120 0.007570 0.000000 0.000000 0.000000
# 4 0.000000 0.000000 0.000000 1.189537 0.000000 0.000000
# 5 0.000000 0.000000 0.000000 0.000000 0.019585 0.000000
# 6 0.000000 0.000000 0.000000 0.000000 0.000000 0.072764
#
#
# Mechanical properties :
#
#
# Convention : Reuss Voigt Hill
#
# Bulk Modulus (GPa) = 26.01471 44.27708 35.14589
# Shear Modulus (GPa) = 3.70896 30.71546 17.21221
#
# Velocity S-wave (km/s) = 1.22120 3.51431 2.63075
# Velocity P-wave (km/s) = 3.52827 5.85410 4.83318
#
# Compressibility (1/GPa) = 0.03843979
#
# Stress axis : x y z
#
# Youngs Moduli (GPa) = 122.95605 33.10112 132.10304
#
# Poissons Ratio (x) = -0.01152 0.25959
# Poissons Ratio (y) = -0.04278 0.28001
# Poissons Ratio (z) = 0.24162 0.07016
#
# Static dielectric constant tensor:
#      x y z
#    x 2.085750 0.000000 0.000000 
#    y 0.000000 2.028640 0.000000 
#    z 0.000000 0.000000 2.043670 
# 
# From -- ./inp_files/2784.got.cif
#   From: 2010.05.17/outbox.cif.g08.bks.cpg/sg41_2_cif.got.tgz:2784.got - 2010.06.03 18:54:24.
