data_PCOD9366075
_publ_section_title
;
Structure prediction by ZEFSAII (Michael W. Deem and Ramdas Pophale) SiO2 
 PCOD9366075
Probable space group: A B A 2
;
_chemical_formula_sum "Si O2"
_cell_formula_units_Z 56
_cell_length_a 14.308143
_cell_length_b 12.467161
_cell_length_c 13.006849
_cell_angle_alpha 90.000000
_cell_angle_beta 90.000000
_cell_angle_gamma 90.000000
_cell_volume 2320.186729
_symmetry_space_group_name_H-M "A B A 2"
_symmetry_group_IT_number 41
_symmetry_cell_setting 'orthorhombic'
loop_
_space_group_symop_operation_xyz
x,y,z
-x,-y,z
1/2-x,y,1/2+z
1/2+x,-y,1/2+z
x,1/2+y,1/2+z
-x,1/2-y,1/2+z
1/2-x,1/2+y,z
1/2+x,1/2-y,z
loop_
_atom_site_type_symbol
_atom_site_label
_atom_site_fract_x
_atom_site_fract_y
_atom_site_fract_z
Si Si1 0.500000 0.500000 0.670310
Si Si2 0.771113 0.781726 0.609498
Si Si3 0.000000 0.000000 0.953802
Si Si4 0.077801 0.663961 0.841124
Si Si5 0.320351 0.864028 0.427685
Si Si6 0.426490 0.212321 0.249071
Si Si7 0.568245 0.829835 0.617640
Si Si8 0.153513 0.505710 0.004727
O O1 0.456641 0.589792 0.744623
O O2 0.416435 0.463145 0.593429
O O3 0.819832 0.693050 0.538917
O O4 0.818993 0.775912 0.721258
O O5 0.661761 0.764032 0.600181
O O6 0.787123 0.901486 0.564267
O O7 0.957176 0.907401 0.026923
O O8 0.094336 0.945332 0.909990
O O9 0.087904 0.612571 0.727896
O O10 0.975294 0.721102 0.839623
O O11 0.151791 0.761676 0.856215
O O12 0.092019 0.575737 0.926107
O O13 0.222529 0.929745 0.437676
O O14 0.482501 0.255255 0.148899
#
# Coordination Sequence:
#
# PCOD9366075 Si02
#       8
#     4   8   4   8   8   8   8   8
#     4  10  20  38  68  82 114 174 216 250 312 380
#     4  10  19  39  68  84 124 167 217 258 310 384
#     4  12  22  40  74  90 120 170 226 260 318 386
#     4   9  23  43  56  92 137 149 208 266 327 367
#     4  11  21  41  63  95 124 172 209 266 323 392
#     4   9  20  40  58  89 121 159 207 259 311 378
#     4  10  21  42  60  94 122 163 210 267 312 384
#     4  10  21  39  60  93 123 161 213 264 311 389
#
# _framework density 24.135988000000001
#
# number of rings (size 3 to 8) (size 9 to 14) (size 15 to 20)
#    0.857    1.143    2.857    0.857    0.000    1.143 
#   12.857    0.000    0.000    0.000    0.000    0.000 
#    0.000    0.000    0.000    0.000    0.000    0.000 
#
# Total GULP energy -156062.887815 kJ/mol
# GULP energy per Si atom -5573.674565 kJ/mol
# Density = 2.408105 g / cm^3
# Si number density = 24.135988 Si / 1000 Ang^3
#
#
#
# Elastic Constant Matrix: (Units=GPa)
#
#
# Indices 1 2 3 4 5 6 
#
# 1 139.1024 38.8261 21.3894 0.0000 0.0000 0.0000
# 2 38.8261 64.3741 1.4207 0.0000 0.0000 0.0000
# 3 21.3894 1.4207 19.8552 0.0000 0.0000 0.0000
# 4 0.0000 0.0000 0.0000 16.0813 0.0000 0.0000
# 5 0.0000 0.0000 0.0000 0.0000 35.2471 0.0000
# 6 0.0000 0.0000 0.0000 0.0000 0.0000 33.5320
#
#
#
# Elastic Compliance Matrix: (Units=1/GPa)
#
#
# Indices 1 2 3 4 5 6 
#
# 1 0.010591 -0.006146 -0.010970 0.000000 0.000000 0.000000
# 2 -0.006146 0.019125 0.005252 0.000000 0.000000 0.000000
# 3 -0.010970 0.005252 0.061806 0.000000 0.000000 0.000000
# 4 0.000000 0.000000 0.000000 0.062184 0.000000 0.000000
# 5 0.000000 0.000000 0.000000 0.000000 0.028371 0.000000
# 6 0.000000 0.000000 0.000000 0.000000 0.000000 0.029822
#
#
# Mechanical properties :
#
#
# Convention : Reuss Voigt Hill
#
# Bulk Modulus (GPa) = 14.75020 38.51158 26.63089
# Shear Modulus (GPa) = 19.36295 27.75178 23.55737
#
# Velocity S-wave (km/s) = 2.83546 3.39456 3.12753
# Velocity P-wave (km/s) = 4.10419 5.59954 4.90913
#
# Compressibility (1/GPa) = 0.06779568
#
# Stress axis : x y z
#
# Youngs Moduli (GPa) = 94.41850 52.28764 16.17958
#
# Poissons Ratio (x) = 0.32135 0.17749
# Poissons Ratio (y) = 0.58027 -0.08498
# Poissons Ratio (z) = 1.03575 -0.27462
#
# Static dielectric constant tensor:
#      x y z
#    x 1.962140 0.000000 0.000000 
#    y 0.000000 1.926040 0.000000 
#    z 0.000000 0.000000 1.972720 
# 
# From -- ./inp_files/8510.got.cif
#   From: 2010.05.17/outbox.cif.g08.bks.cpg/sg41_5_cif.got.tgz:8510.got - 2010.06.03 18:54:24.
