data_PCOD9366773
_publ_section_title
;
Structure prediction by ZEFSAII (Michael W. Deem and Ramdas Pophale) SiO2 
 PCOD9366773
Probable space group: A B A 2
;
_chemical_formula_sum "Si O2"
_cell_formula_units_Z 48
_cell_length_a 10.679447
_cell_length_b 8.386351
_cell_length_c 24.531561
_cell_angle_alpha 90.000000
_cell_angle_beta 90.000000
_cell_angle_gamma 90.000000
_cell_volume 2197.085634
_symmetry_space_group_name_H-M "A B A 2"
_symmetry_group_IT_number 41
_symmetry_cell_setting 'orthorhombic'
loop_
_space_group_symop_operation_xyz
x,y,z
-x,-y,z
1/2-x,y,1/2+z
1/2+x,-y,1/2+z
x,1/2+y,1/2+z
-x,1/2-y,1/2+z
1/2-x,1/2+y,z
1/2+x,1/2-y,z
loop_
_atom_site_type_symbol
_atom_site_label
_atom_site_fract_x
_atom_site_fract_y
_atom_site_fract_z
Si Si1 0.500000 0.500000 0.869220
Si Si2 0.000000 0.000000 0.151210
Si Si3 0.902705 0.193842 0.052690
Si Si4 0.195393 0.016916 0.494910
Si Si5 0.158915 0.587629 0.271213
Si Si6 0.095970 0.753009 0.736079
Si Si7 0.087689 0.717353 0.457141
O O1 0.381652 0.513840 0.829272
O O2 0.498333 0.650634 0.909379
O O3 0.921778 0.874076 0.187335
O O4 0.076645 0.881338 0.111419
O O5 0.787790 0.101992 0.025840
O O6 0.871030 0.378216 0.041382
O O7 0.025179 0.171778 0.015041
O O8 0.109926 0.903614 0.458739
O O9 0.279998 0.127364 0.456382
O O10 0.293806 0.669013 0.270900
O O11 0.146061 0.436322 0.229587
O O12 0.045679 0.713219 0.258260
#
# Coordination Sequence:
#
# PCOD9366773 Si02
#       7
#     4   4   8   8   8   8   8
#     4  10  21  40  74  94 138 182 231 288 366 440
#     4  12  23  42  72  96 140 194 241 296 374 438
#     4  11  22  42  58 103 138 177 232 288 339 439
#     4  10  22  37  66  87 147 180 219 291 337 404
#     4  10  24  47  69 103 144 182 243 318 363 436
#     4  10  23  44  68  99 140 184 241 311 360 428
#     4  11  20  42  61 100 141 175 230 284 341 435
#
# _framework density 21.847121999999999
#
# number of rings (size 3 to 8) (size 9 to 14) (size 15 to 20)
#    0.000    1.667    3.333    1.500    0.000    5.333 
#    6.000    0.000    7.333    0.000    0.000    0.000 
#    0.000    0.000    0.000    0.000    0.000    0.000 
#
# Total GULP energy -133738.604633 kJ/mol
# GULP energy per Si atom -5572.441860 kJ/mol
# Density = 2.179740 g / cm^3
# Si number density = 21.847122 Si / 1000 Ang^3
#
#
#
# Elastic Constant Matrix: (Units=GPa)
#
#
# Indices 1 2 3 4 5 6 
#
# 1 89.8380 72.4736 47.0944 0.0000 0.0000 0.0000
# 2 72.4736 153.8407 50.1584 0.0000 0.0000 0.0000
# 3 47.0944 50.1584 85.6991 0.0000 0.0000 0.0000
# 4 0.0000 0.0000 0.0000 62.4546 0.0000 0.0000
# 5 0.0000 0.0000 0.0000 0.0000 20.6139 0.0000
# 6 0.0000 0.0000 0.0000 0.0000 0.0000 60.7852
#
#
#
# Elastic Compliance Matrix: (Units=1/GPa)
#
#
# Indices 1 2 3 4 5 6 
#
# 1 0.020940 -0.007554 -0.007086 0.000000 0.000000 0.000000
# 2 -0.007554 0.010759 -0.002145 0.000000 0.000000 0.000000
# 3 -0.007086 -0.002145 0.016818 0.000000 0.000000 0.000000
# 4 0.000000 0.000000 0.000000 0.016012 0.000000 0.000000
# 5 0.000000 0.000000 0.000000 0.000000 0.048511 0.000000
# 6 0.000000 0.000000 0.000000 0.000000 0.000000 0.016451
#
#
# Mechanical properties :
#
#
# Convention : Reuss Voigt Hill
#
# Bulk Modulus (GPa) = 66.90912 74.31450 70.61181
# Shear Modulus (GPa) = 29.75425 39.41418 34.58421
#
# Velocity S-wave (km/s) = 3.69444 4.25207 3.98302
# Velocity P-wave (km/s) = 6.99221 7.62865 7.31735
#
# Compressibility (1/GPa) = 0.01494565
#
# Stress axis : x y z
#
# Youngs Moduli (GPa) = 47.75596 92.94902 59.45946
#
# Poissons Ratio (x) = 0.70218 0.42131
# Poissons Ratio (y) = 0.36077 0.12757
# Poissons Ratio (z) = 0.33838 0.19942
#
# Static dielectric constant tensor:
#      x y z
#    x 1.893130 0.000000 0.000000 
#    y 0.000000 1.864070 0.000000 
#    z 0.000000 0.000000 1.804400 
# 
# From -- ./inp_files/12131.got.cif
#   From: 2010.05.17/outbox.cif.g08.bks.cpg/sg41_7_cif.got.tgz:12131.got - 2010.06.03 18:54:24.
