data_PCOD9366146
_publ_section_title
;
Structure prediction by ZEFSAII (Michael W. Deem and Ramdas Pophale) SiO2 
 PCOD9366146
Probable space group: A B A 2
;
_chemical_formula_sum "Si O2"
_cell_formula_units_Z 60
_cell_length_a 14.193294
_cell_length_b 17.638660
_cell_length_c 9.488878
_cell_angle_alpha 90.000000
_cell_angle_beta 90.000000
_cell_angle_gamma 90.000000
_cell_volume 2375.547128
_symmetry_space_group_name_H-M "A B A 2"
_symmetry_group_IT_number 41
_symmetry_cell_setting 'orthorhombic'
loop_
_space_group_symop_operation_xyz
x,y,z
-x,-y,z
1/2-x,y,1/2+z
1/2+x,-y,1/2+z
x,1/2+y,1/2+z
-x,1/2-y,1/2+z
1/2-x,1/2+y,z
1/2+x,1/2-y,z
loop_
_atom_site_type_symbol
_atom_site_label
_atom_site_fract_x
_atom_site_fract_y
_atom_site_fract_z
Si Si1 0.000000 0.500000 0.087790
Si Si2 0.075043 0.889202 0.350272
Si Si3 0.280203 0.344569 0.929450
Si Si4 0.835795 0.234027 0.664280
Si Si5 0.543565 0.100850 0.535458
Si Si6 0.165458 0.598292 0.175146
Si Si7 0.167243 0.106625 0.996620
Si Si8 0.529462 0.783660 0.033627
O O1 0.080564 0.538987 0.177248
O O2 0.047161 0.442099 0.979081
O O3 0.185053 0.874107 0.359146
O O4 0.054814 0.921277 0.197407
O O5 0.010239 0.815055 0.383907
O O6 0.314100 0.276279 0.827808
O O7 0.242110 0.313646 0.078113
O O8 0.361090 0.408244 0.945477
O O9 0.836872 0.315929 0.589985
O O10 0.939588 0.200834 0.635165
O O11 0.439302 0.075367 0.492907
O O12 0.542927 0.193861 0.533122
O O13 0.194372 0.619011 0.333781
O O14 0.250512 0.564705 0.081892
O O15 0.118402 0.670106 0.093355
#
# Coordination Sequence:
#
# PCOD9366146 Si02
#       8
#     4   8   8   8   8   8   8   8
#     4  10  26  54  76  86 146 192 262 298 358 408
#     4  10  23  44  68 102 135 195 240 298 356 428
#     4  11  20  37  60 101 141 184 225 283 362 427
#     4  10  20  34  60 101 147 183 217 284 361 453
#     4  11  23  38  68 108 147 178 233 296 369 452
#     4  11  24  47  68 103 136 198 242 305 352 425
#     4  11  25  38  70 103 143 182 240 288 373 434
#     4   9  22  36  65  93 148 180 225 287 368 431
#
# _framework density 25.257338000000001
#
# number of rings (size 3 to 8) (size 9 to 14) (size 15 to 20)
#    0.000    1.600    1.333    2.400   13.067    0.000 
#    2.400    0.667    0.000    0.000    0.000    0.000 
#    0.000    0.000    0.000    0.000    0.000    0.000 
#
# Total GULP energy -167880.480655 kJ/mol
# GULP energy per Si atom -5596.016022 kJ/mol
# Density = 2.519985 g / cm^3
# Si number density = 25.257338 Si / 1000 Ang^3
#
#
#
# Elastic Constant Matrix: (Units=GPa)
#
#
# Indices 1 2 3 4 5 6 
#
# 1 156.1177 14.2443 52.2191 0.0000 0.0000 0.0000
# 2 14.2443 50.1073 10.1985 0.0000 0.0000 0.0000
# 3 52.2191 10.1985 165.9755 0.0000 0.0000 0.0000
# 4 0.0000 0.0000 0.0000 17.8522 0.0000 0.0000
# 5 0.0000 0.0000 0.0000 0.0000 23.7820 0.0000
# 6 0.0000 0.0000 0.0000 0.0000 0.0000 32.8955
#
#
#
# Elastic Compliance Matrix: (Units=1/GPa)
#
#
# Indices 1 2 3 4 5 6 
#
# 1 0.007287 -0.001625 -0.002193 0.000000 0.000000 0.000000
# 2 -0.001625 0.020572 -0.000753 0.000000 0.000000 0.000000
# 3 -0.002193 -0.000753 0.006761 0.000000 0.000000 0.000000
# 4 0.000000 0.000000 0.000000 0.056015 0.000000 0.000000
# 5 0.000000 0.000000 0.000000 0.000000 0.042049 0.000000
# 6 0.000000 0.000000 0.000000 0.000000 0.000000 0.030399
#
#
# Mechanical properties :
#
#
# Convention : Reuss Voigt Hill
#
# Bulk Modulus (GPa) = 39.24793 58.39158 48.81975
# Shear Modulus (GPa) = 27.66730 34.60852 31.13791
#
# Velocity S-wave (km/s) = 3.31330 3.70569 3.51497
# Velocity P-wave (km/s) = 5.49638 6.44037 5.98701
#
# Compressibility (1/GPa) = 0.02547905
#
# Stress axis : x y z
#
# Youngs Moduli (GPa) = 137.22730 48.60886 147.90396
#
# Poissons Ratio (x) = 0.07900 0.32433
# Poissons Ratio (y) = 0.22303 0.11133
# Poissons Ratio (z) = 0.30092 0.03659
#
# Static dielectric constant tensor:
#      x y z
#    x 2.055270 0.000000 0.000000 
#    y 0.000000 2.083750 0.000000 
#    z 0.000000 0.000000 1.895390 
# 
# From -- ./inp_files/2750.got.cif
#   From: 2010.05.17/outbox.cif.g08.bks.cpg/sg41_2_cif.got.tgz:2750.got - 2010.06.03 18:54:24.
