data_PCOD9366687
_publ_section_title
;
Structure prediction by ZEFSAII (Michael W. Deem and Ramdas Pophale) SiO2 
 PCOD9366687
Probable space group: A B A 2
;
_chemical_formula_sum "Si O2"
_cell_formula_units_Z 56
_cell_length_a 11.414359
_cell_length_b 14.351939
_cell_length_c 16.441029
_cell_angle_alpha 90.000000
_cell_angle_beta 90.000000
_cell_angle_gamma 90.000000
_cell_volume 2693.339515
_symmetry_space_group_name_H-M "A B A 2"
_symmetry_group_IT_number 41
_symmetry_cell_setting 'orthorhombic'
loop_
_space_group_symop_operation_xyz
x,y,z
-x,-y,z
1/2-x,y,1/2+z
1/2+x,-y,1/2+z
x,1/2+y,1/2+z
-x,1/2-y,1/2+z
1/2-x,1/2+y,z
1/2+x,1/2-y,z
loop_
_atom_site_type_symbol
_atom_site_label
_atom_site_fract_x
_atom_site_fract_y
_atom_site_fract_z
Si Si1 0.362642 0.997274 0.402790
Si Si2 0.211687 0.658110 0.980502
Si Si3 0.200228 0.849529 0.476875
Si Si4 0.867570 0.801526 0.299928
Si Si5 0.124631 0.506890 0.096584
Si Si6 0.375575 0.805011 0.796022
Si Si7 0.796210 0.500009 0.743481
O O1 0.312262 0.087013 0.450100
O O2 0.300602 0.995736 0.315298
O O3 0.500000 0.000000 0.396484
O O4 0.315951 0.906152 0.449369
O O5 0.265413 0.752044 0.016718
O O6 0.144246 0.685938 0.897668
O O7 0.135565 0.600456 0.043705
O O8 0.133754 0.825597 0.392928
O O9 0.133069 0.920802 0.534134
O O10 0.745792 0.749592 0.275513
O O11 0.863471 0.904315 0.261004
O O12 0.996436 0.759436 0.280706
O O13 0.231457 0.503058 0.158111
O O14 0.000000 0.500000 0.140036
O O15 0.368709 0.905240 0.752769
#
# Coordination Sequence:
#
# PCOD9366687 Si02
#       7
#     8   8   8   8   8   8   8
#     4   9  18  34  55  80 110 147 198 250 288 331
#     4   9  20  36  57  84 113 149 192 239 290 340
#     4   9  20  36  57  84 113 149 192 239 290 340
#     4  10  21  39  64  89 113 148 195 243 289 339
#     4  11  22  36  55  82 118 157 194 232 282 345
#     4  10  21  39  64  89 113 148 195 243 289 339
#     4  10  22  36  54  82 117 154 191 232 289 346
#
# _framework density 20.792031000000001
#
# number of rings (size 3 to 8) (size 9 to 14) (size 15 to 20)
#    0.000    2.286    0.000    2.571    0.000   13.714 
#    0.000    5.714    0.000    0.000    0.000    0.000 
#    0.000    0.000    0.000    0.000    0.000    0.000 
#
# Total GULP energy -156275.953663 kJ/mol
# GULP energy per Si atom -5581.284059 kJ/mol
# Density = 2.074471 g / cm^3
# Si number density = 20.792031 Si / 1000 Ang^3
#
#
#
# Elastic Constant Matrix: (Units=GPa)
#
#
# Indices 1 2 3 4 5 6 
#
# 1 132.1890 3.8859 -7.3836 0.0000 0.0000 0.0000
# 2 3.8859 93.2541 -5.1806 0.0000 0.0000 0.0000
# 3 -7.3836 -5.1806 22.3255 0.0000 0.0000 0.0000
# 4 0.0000 0.0000 0.0000 -0.7132 0.0000 0.0000
# 5 0.0000 0.0000 0.0000 0.0000 2.0344 0.0000
# 6 0.0000 0.0000 0.0000 0.0000 0.0000 5.2483
#
#
#
# Elastic Compliance Matrix: (Units=1/GPa)
#
#
# Indices 1 2 3 4 5 6 
#
# 1 0.007710 -0.000182 0.002508 0.000000 0.000000 0.000000
# 2 -0.000182 0.010868 0.002462 0.000000 0.000000 0.000000
# 3 0.002508 0.002462 0.046193 0.000000 0.000000 0.000000
# 4 0.000000 0.000000 0.000000 -1.402177 0.000000 0.000000
# 5 0.000000 0.000000 0.000000 0.000000 0.491553 0.000000
# 6 0.000000 0.000000 0.000000 0.000000 0.000000 0.190538
#
#
# Mechanical properties :
#
#
# Convention : Reuss Voigt Hill
#
# Bulk Modulus (GPa) = 13.45071 25.60133 19.52602
# Shear Modulus (GPa) = -7.81118 18.41035 5.29959
#
# Velocity S-wave (km/s) = -1.94035 2.97888 1.59825
# Velocity P-wave (km/s) = 1.20965 4.91645 3.58013
#
# Compressibility (1/GPa) = 0.07434551
#
# Stress axis : x y z
#
# Youngs Moduli (GPa) = 129.69571 92.01562 21.64853
#
# Poissons Ratio (x) = 0.01674 -0.05429
# Poissons Ratio (y) = 0.02360 -0.05329
# Poissons Ratio (z) = -0.32525 -0.22651
#
# Static dielectric constant tensor:
#      x y z
#    x 1.771700 0.000000 0.000000 
#    y 0.000000 1.766400 0.000000 
#    z 0.000000 0.000000 1.714920 
# 
# From -- ./inp_files/7947.got.cif
#   From: 2010.05.17/outbox.cif.g08.bks.cpg/sg41_4_cif.got.tgz:7947.got - 2010.06.03 18:54:24.
