data_PCOD9366329
_publ_section_title
;
Structure prediction by ZEFSAII (Michael W. Deem and Ramdas Pophale) SiO2 
 PCOD9366329
Probable space group: A B A 2
;
_chemical_formula_sum "Si O2"
_cell_formula_units_Z 40
_cell_length_a 14.681961
_cell_length_b 8.378488
_cell_length_c 13.545172
_cell_angle_alpha 90.000000
_cell_angle_beta 90.000000
_cell_angle_gamma 90.000000
_cell_volume 1666.227286
_symmetry_space_group_name_H-M "A B A 2"
_symmetry_group_IT_number 41
_symmetry_cell_setting 'orthorhombic'
loop_
_space_group_symop_operation_xyz
x,y,z
-x,-y,z
1/2-x,y,1/2+z
1/2+x,-y,1/2+z
x,1/2+y,1/2+z
-x,1/2-y,1/2+z
1/2-x,1/2+y,z
1/2+x,1/2-y,z
loop_
_atom_site_type_symbol
_atom_site_label
_atom_site_fract_x
_atom_site_fract_y
_atom_site_fract_z
Si Si1 0.113205 0.685159 0.261990
Si Si2 0.236608 0.905465 0.787787
Si Si3 0.830467 0.066965 0.010958
Si Si4 0.500000 0.000000 0.104813
Si Si5 0.161618 0.782355 0.604539
Si Si6 0.500000 0.500000 0.926238
O O1 0.157747 0.858005 0.273992
O O2 0.205907 0.580728 0.253896
O O3 0.049038 0.636414 0.172035
O O4 0.061153 0.613234 0.356738
O O5 0.216806 0.906540 0.904490
O O6 0.161004 0.804882 0.723706
O O7 0.934612 0.111614 0.990852
O O8 0.764192 0.158733 0.082846
O O9 0.842090 0.889393 0.054874
O O10 0.586051 0.095946 0.059701
#
# Coordination Sequence:
#
# PCOD9366329 Si02
#       6
#     8   8   8   4   8   4
#     4   9  18  37  65  87 126 179 220 279 346 401
#     4  10  20  39  62  91 127 170 222 273 335 409
#     4  11  23  39  63  92 128 176 225 278 345 406
#     4   9  20  38  62  95 132 174 234 287 340 411
#     4  11  23  40  67  96 130 180 226 283 347 408
#     4   9  20  36  56  87 126 170 220 273 326 395
#
# _framework density 24.006328
#
# number of rings (size 3 to 8) (size 9 to 14) (size 15 to 20)
#    0.000    2.000    0.000    6.000    0.000    3.200 
#    0.000    0.000    0.000   33.600    0.000    0.000 
#    0.000    0.000    0.000    0.000    0.000    0.000 
#
# Total GULP energy -111429.527341 kJ/mol
# GULP energy per Si atom -5571.476367 kJ/mol
# Density = 2.395169 g / cm^3
# Si number density = 24.006328 Si / 1000 Ang^3
#
#
#
# Elastic Constant Matrix: (Units=GPa)
#
#
# Indices 1 2 3 4 5 6 
#
# 1 120.7831 31.0453 7.7935 0.0000 0.0000 0.0000
# 2 31.0453 54.9419 28.0031 0.0000 0.0000 0.0000
# 3 7.7935 28.0031 101.2005 0.0000 0.0000 0.0000
# 4 0.0000 0.0000 0.0000 20.0004 0.0000 0.0000
# 5 0.0000 0.0000 0.0000 0.0000 22.9496 0.0000
# 6 0.0000 0.0000 0.0000 0.0000 0.0000 59.8386
#
#
#
# Elastic Compliance Matrix: (Units=1/GPa)
#
#
# Indices 1 2 3 4 5 6 
#
# 1 0.009756 -0.005972 0.000901 0.000000 0.000000 0.000000
# 2 -0.005972 0.024845 -0.006415 0.000000 0.000000 0.000000
# 3 0.000901 -0.006415 0.011587 0.000000 0.000000 0.000000
# 4 0.000000 0.000000 0.000000 0.049999 0.000000 0.000000
# 5 0.000000 0.000000 0.000000 0.000000 0.043574 0.000000
# 6 0.000000 0.000000 0.000000 0.000000 0.000000 0.016712
#
#
# Mechanical properties :
#
#
# Convention : Reuss Voigt Hill
#
# Bulk Modulus (GPa) = 43.07247 45.62327 44.34787
# Shear Modulus (GPa) = 26.71175 34.56329 30.63752
#
# Velocity S-wave (km/s) = 3.33933 3.79853 3.57631
# Velocity P-wave (km/s) = 5.73143 6.18744 5.96379
#
# Compressibility (1/GPa) = 0.02321669
#
# Stress axis : x y z
#
# Youngs Moduli (GPa) = 102.49897 40.24908 86.30324
#
# Poissons Ratio (x) = 0.24037 -0.07778
# Poissons Ratio (y) = 0.61214 0.55363
# Poissons Ratio (z) = -0.09237 0.25820
#
# Static dielectric constant tensor:
#      x y z
#    x 1.988590 0.000000 0.000000 
#    y 0.000000 2.028240 0.000000 
#    z 0.000000 0.000000 2.040910 
# 
# From -- ./inp_files/8241.got.cif
#   From: 2010.05.17/outbox.cif.g08.bks.cpg/sg41_5_cif.got.tgz:8241.got - 2010.06.03 18:54:24.
