data_PCOD9366031
_publ_section_title
;
Structure prediction by ZEFSAII (Michael W. Deem and Ramdas Pophale) SiO2 
 PCOD9366031
Probable space group: A B A 2
;
_chemical_formula_sum "Si O2"
_cell_formula_units_Z 64
_cell_length_a 15.577715
_cell_length_b 15.940907
_cell_length_c 11.909329
_cell_angle_alpha 90.000000
_cell_angle_beta 90.000000
_cell_angle_gamma 90.000000
_cell_volume 2957.359187
_symmetry_space_group_name_H-M "A B A 2"
_symmetry_group_IT_number 41
_symmetry_cell_setting 'orthorhombic'
loop_
_space_group_symop_operation_xyz
x,y,z
-x,-y,z
1/2-x,y,1/2+z
1/2+x,-y,1/2+z
x,1/2+y,1/2+z
-x,1/2-y,1/2+z
1/2-x,1/2+y,z
1/2+x,1/2-y,z
loop_
_atom_site_type_symbol
_atom_site_label
_atom_site_fract_x
_atom_site_fract_y
_atom_site_fract_z
Si Si1 0.137534 0.184730 0.771250
Si Si2 0.932480 0.072426 0.236619
Si Si3 0.610956 0.162015 0.135388
Si Si4 0.928160 0.787932 0.538770
Si Si5 0.300319 0.835674 0.902858
Si Si6 0.379989 0.899914 0.493154
Si Si7 0.095808 0.494722 0.271889
Si Si8 0.039666 0.221557 0.300967
O O1 0.141227 0.201054 0.636848
O O2 0.201195 0.248325 0.834044
O O3 0.043337 0.216468 0.817160
O O4 0.140725 0.084691 0.783884
O O5 0.863033 0.102371 0.330384
O O6 0.885576 0.058843 0.116763
O O7 0.996121 0.151743 0.224001
O O8 0.000000 0.000000 0.267192
O O9 0.512157 0.170966 0.094209
O O10 0.638657 0.073331 0.188645
O O11 0.612390 0.227854 0.236754
O O12 0.660400 0.184663 0.024110
O O13 0.926700 0.689450 0.508201
O O14 0.925466 0.822813 0.412746
O O15 0.212333 0.878690 0.939219
O O16 0.417964 0.955994 0.394878
O O17 0.000000 0.500000 0.222067
#
# Coordination Sequence:
#
# PCOD9366031 Si02
#       8
#     8   8   8   8   8   8   8   8
#     4  10  21  41  66  95 138 176 232 288 364 435
#     4  11  24  43  70 103 138 193 254 310 369 454
#     4  11  21  36  67  98 134 177 231 296 358 425
#     4  11  18  39  67  98 129 181 235 287 354 447
#     4  11  26  45  69  96 149 190 239 304 380 452
#     4  12  25  41  73  98 142 188 236 304 386 432
#     4  12  23  38  70 108 133 178 242 308 350 439
#     4  10  19  37  66 100 127 172 238 294 346 436
#
# _framework density 21.640929
#
# number of rings (size 3 to 8) (size 9 to 14) (size 15 to 20)
#    0.000    1.000   10.000    0.375    1.750    2.500 
#    0.000    2.500    0.000    0.000    0.000    0.000 
#    0.000    0.000    0.000    0.000    0.000    0.000 
#
# Total GULP energy -178259.195045 kJ/mol
# GULP energy per Si atom -5570.599845 kJ/mol
# Density = 2.159167 g / cm^3
# Si number density = 21.640929 Si / 1000 Ang^3
#
#
#
# Elastic Constant Matrix: (Units=GPa)
#
#
# Indices 1 2 3 4 5 6 
#
# 1 65.1218 32.5380 29.9057 0.0000 0.0000 0.0000
# 2 32.5380 124.1064 33.5638 0.0000 0.0000 0.0000
# 3 29.9057 33.5638 124.1623 0.0000 0.0000 0.0000
# 4 0.0000 0.0000 0.0000 21.9613 0.0000 0.0000
# 5 0.0000 0.0000 0.0000 0.0000 -4.1392 0.0000
# 6 0.0000 0.0000 0.0000 0.0000 0.0000 10.6947
#
#
#
# Elastic Compliance Matrix: (Units=1/GPa)
#
#
# Indices 1 2 3 4 5 6 
#
# 1 0.018968 -0.004032 -0.003479 0.000000 0.000000 0.000000
# 2 -0.004032 0.009550 -0.001610 0.000000 0.000000 0.000000
# 3 -0.003479 -0.001610 0.009327 0.000000 0.000000 0.000000
# 4 0.000000 0.000000 0.000000 0.045535 0.000000 0.000000
# 5 0.000000 0.000000 0.000000 0.000000 -0.241595 0.000000
# 6 0.000000 0.000000 0.000000 0.000000 0.000000 0.093505
#
#
# Mechanical properties :
#
#
# Convention : Reuss Voigt Hill
#
# Bulk Modulus (GPa) = 51.01293 56.15615 53.58454
# Shear Modulus (GPa) = -125.20885 20.19555 -52.50665
#
# Velocity S-wave (km/s) = -7.61466 3.05816 -4.93106
# Velocity P-wave (km/s) = 7.32715 6.20284 2.75789
#
# Compressibility (1/GPa) = 0.01960287
#
# Stress axis : x y z
#
# Youngs Moduli (GPa) = 52.72032 104.70872 107.21352
#
# Poissons Ratio (x) = 0.42221 0.37296
# Poissons Ratio (y) = 0.21258 0.17266
# Poissons Ratio (z) = 0.18339 0.16863
#
# Static dielectric constant tensor:
#      x y z
#    x 2.257610 0.000000 0.000000 
#    y 0.000000 1.868610 0.000000 
#    z 0.000000 0.000000 1.843440 
# 
# From -- ./inp_files/6041.got.cif
#   From: 2010.05.17/outbox.cif.g08.bks.cpg/sg41_4_cif.got.tgz:6041.got - 2010.06.03 18:54:24.
