data_PCOD9366238
_publ_section_title
;
Structure prediction by ZEFSAII (Michael W. Deem and Ramdas Pophale) SiO2 
 PCOD9366238
Probable space group: A B A 2
;
_chemical_formula_sum "Si O2"
_cell_formula_units_Z 60
_cell_length_a 28.776904
_cell_length_b 18.312350
_cell_length_c 5.074914
_cell_angle_alpha 90.000000
_cell_angle_beta 90.000000
_cell_angle_gamma 90.000000
_cell_volume 2674.341326
_symmetry_space_group_name_H-M "A B A 2"
_symmetry_group_IT_number 41
_symmetry_cell_setting 'orthorhombic'
loop_
_space_group_symop_operation_xyz
x,y,z
-x,-y,z
1/2-x,y,1/2+z
1/2+x,-y,1/2+z
x,1/2+y,1/2+z
-x,1/2-y,1/2+z
1/2-x,1/2+y,z
1/2+x,1/2-y,z
loop_
_atom_site_type_symbol
_atom_site_label
_atom_site_fract_x
_atom_site_fract_y
_atom_site_fract_z
Si Si1 0.225704 0.655886 0.818010
Si Si2 0.500000 0.000000 0.886658
Si Si3 0.220808 0.831818 0.783454
Si Si4 0.615233 0.129368 0.112008
Si Si5 0.539409 0.362069 0.645656
Si Si6 0.404288 0.962117 0.611729
Si Si7 0.371056 0.604800 0.356627
Si Si8 0.437060 0.719657 0.156300
O O1 0.233407 0.634320 0.516781
O O2 0.221275 0.743609 0.810211
O O3 0.180203 0.621341 0.942358
O O4 0.544239 0.013301 0.700628
O O5 0.493324 0.071359 0.067421
O O6 0.257961 0.856843 0.562223
O O7 0.168277 0.852480 0.699826
O O8 0.598799 0.067437 0.317452
O O9 0.579796 0.197915 0.129095
O O10 0.612339 0.100704 0.813909
O O11 0.590983 0.395600 0.590852
O O12 0.535847 0.298886 0.424712
O O13 0.536991 0.323062 0.923256
O O14 0.374062 0.032677 0.682921
O O15 0.389097 0.673782 0.187846
#
# Coordination Sequence:
#
# PCOD9366238 Si02
#       8
#     8   4   8   8   8   8   8   8
#     4  10  21  33  60  94 122 167 222 269 303 376
#     4  10  24  48  68 104 126 176 230 276 340 436
#     4  10  20  37  63  92 131 174 218 265 320 388
#     4  12  24  44  63 106 131 179 221 276 329 411
#     4   9  21  36  71  91 120 171 206 270 326 390
#     4  11  27  41  72  92 135 171 222 273 347 396
#     4   9  22  40  63  92 127 173 212 262 321 394
#     4  10  21  39  68  92 129 167 215 262 327 383
#
# _framework density 22.435428999999999
#
# number of rings (size 3 to 8) (size 9 to 14) (size 15 to 20)
#    0.800    1.067    1.333    1.600    5.600    3.200 
#    0.000    6.667    0.000    0.000    0.000    0.000 
#    0.000    0.000    0.000    0.000    0.000    0.000 
#
# Total GULP energy -167546.813291 kJ/mol
# GULP energy per Si atom -5584.893776 kJ/mol
# Density = 2.238436 g / cm^3
# Si number density = 22.435429 Si / 1000 Ang^3
#
#
#
# Elastic Constant Matrix: (Units=GPa)
#
#
# Indices 1 2 3 4 5 6 
#
# 1 68.4060 -3.5378 -1.4823 0.0000 0.0000 0.0000
# 2 -3.5378 56.2281 -17.8411 0.0000 0.0000 0.0000
# 3 -1.4823 -17.8411 62.0682 0.0000 0.0000 0.0000
# 4 0.0000 0.0000 0.0000 13.8639 0.0000 0.0000
# 5 0.0000 0.0000 0.0000 0.0000 16.8399 0.0000
# 6 0.0000 0.0000 0.0000 0.0000 0.0000 27.6924
#
#
#
# Elastic Compliance Matrix: (Units=1/GPa)
#
#
# Indices 1 2 3 4 5 6 
#
# 1 0.014692 0.001140 0.000678 0.000000 0.000000 0.000000
# 2 0.001140 0.019658 0.005678 0.000000 0.000000 0.000000
# 3 0.000678 0.005678 0.017760 0.000000 0.000000 0.000000
# 4 0.000000 0.000000 0.000000 0.072130 0.000000 0.000000
# 5 0.000000 0.000000 0.000000 0.000000 0.059383 0.000000
# 6 0.000000 0.000000 0.000000 0.000000 0.000000 0.036111
#
#
# Mechanical properties :
#
#
# Convention : Reuss Voigt Hill
#
# Bulk Modulus (GPa) = 14.90277 15.66443 15.28360
# Shear Modulus (GPa) = 22.01588 25.65014 23.83301
#
# Velocity S-wave (km/s) = 3.13597 3.38492 3.26282
# Velocity P-wave (km/s) = 4.44627 4.71954 4.58494
#
# Compressibility (1/GPa) = 0.06710163
#
# Stress axis : x y z
#
# Youngs Moduli (GPa) = 68.06309 50.87002 56.30776
#
# Poissons Ratio (x) = -0.05798 -0.03820
# Poissons Ratio (y) = -0.07757 -0.31970
# Poissons Ratio (z) = -0.04618 -0.28883
#
# Static dielectric constant tensor:
#      x y z
#    x 1.882720 0.000000 0.000000 
#    y 0.000000 1.807860 0.000000 
#    z 0.000000 0.000000 1.798690 
# 
# From -- ./inp_files/1197.got.cif
#   From: 2010.05.17/outbox.cif.g08.bks.cpg/sg41_1_cif.got.tgz:1197.got - 2010.06.03 18:54:24.
