data_PCOD9366124
_publ_section_title
;
Structure prediction by ZEFSAII (Michael W. Deem and Ramdas Pophale) SiO2 
 PCOD9366124
Probable space group: A B A 2
;
_chemical_formula_sum "Si O2"
_cell_formula_units_Z 60
_cell_length_a 8.329766
_cell_length_b 18.836014
_cell_length_c 17.075566
_cell_angle_alpha 90.000000
_cell_angle_beta 90.000000
_cell_angle_gamma 90.000000
_cell_volume 2679.149287
_symmetry_space_group_name_H-M "A B A 2"
_symmetry_group_IT_number 41
_symmetry_cell_setting 'orthorhombic'
loop_
_space_group_symop_operation_xyz
x,y,z
-x,-y,z
1/2-x,y,1/2+z
1/2+x,-y,1/2+z
x,1/2+y,1/2+z
-x,1/2-y,1/2+z
1/2-x,1/2+y,z
1/2+x,1/2-y,z
loop_
_atom_site_type_symbol
_atom_site_label
_atom_site_fract_x
_atom_site_fract_y
_atom_site_fract_z
Si Si1 0.875940 0.158695 0.815310
Si Si2 0.028053 0.298069 0.791849
Si Si3 0.345182 0.779443 0.040846
Si Si4 0.638697 0.832623 0.949915
Si Si5 0.102386 0.567207 0.404624
Si Si6 0.174385 0.492960 0.238617
Si Si7 0.452038 0.845413 0.620114
Si Si8 0.000000 0.000000 0.138488
O O1 0.705384 0.195043 0.826275
O O2 0.832615 0.087595 0.769072
O O3 0.986909 0.216389 0.772825
O O4 0.977391 0.131837 0.889859
O O5 0.019307 0.342576 0.712974
O O6 0.910214 0.323772 0.859619
O O7 0.227903 0.822575 0.097721
O O8 0.435983 0.715618 0.084858
O O9 0.476242 0.830085 0.000579
O O10 0.236436 0.736084 0.979251
O O11 0.750340 0.902087 0.953841
O O12 0.164492 0.542016 0.317433
O O13 0.000000 0.500000 0.432881
O O14 0.335410 0.504936 0.189811
O O15 0.000000 0.500000 0.196665
O O16 0.486616 0.925325 0.593333
#
# Coordination Sequence:
#
# PCOD9366124 Si02
#       8
#     8   8   8   8   8   8   8   4
#     4  10  20  33  56 103 140 164 219 292 360 410
#     4  12  21  36  71 106 128 175 240 295 342 423
#     4  10  25  46  66  99 144 189 232 297 357 438
#     4  11  22  42  69  98 134 185 234 291 360 420
#     4   9  20  38  60  94 140 177 219 296 365 418
#     4   9  21  39  59 100 146 171 221 301 364 412
#     4  11  25  44  72 101 143 183 245 294 364 432
#     4  12  22  44  72  96 138 200 236 288 370 430
#
# _framework density 22.395168999999999
#
# number of rings (size 3 to 8) (size 9 to 14) (size 15 to 20)
#    0.000    1.867    1.333    4.000    0.000    4.267 
#    3.600    0.000    5.867    0.000    0.000    0.000 
#    0.000    0.000    0.000    0.000    0.000    0.000 
#
# Total GULP energy -167615.550121 kJ/mol
# GULP energy per Si atom -5587.185004 kJ/mol
# Density = 2.234420 g / cm^3
# Si number density = 22.395169 Si / 1000 Ang^3
#
#
#
# Elastic Constant Matrix: (Units=GPa)
#
#
# Indices 1 2 3 4 5 6 
#
# 1 154.0293 53.8976 36.7526 0.0000 0.0000 0.0000
# 2 53.8976 113.8260 17.7360 0.0000 0.0000 0.0000
# 3 36.7526 17.7360 76.9978 0.0000 0.0000 0.0000
# 4 0.0000 0.0000 0.0000 20.1089 0.0000 0.0000
# 5 0.0000 0.0000 0.0000 0.0000 23.6755 0.0000
# 6 0.0000 0.0000 0.0000 0.0000 0.0000 46.8098
#
#
#
# Elastic Compliance Matrix: (Units=1/GPa)
#
#
# Indices 1 2 3 4 5 6 
#
# 1 0.008498 -0.003518 -0.003246 0.000000 0.000000 0.000000
# 2 -0.003518 0.010569 -0.000755 0.000000 0.000000 0.000000
# 3 -0.003246 -0.000755 0.014711 0.000000 0.000000 0.000000
# 4 0.000000 0.000000 0.000000 0.049729 0.000000 0.000000
# 5 0.000000 0.000000 0.000000 0.000000 0.042238 0.000000
# 6 0.000000 0.000000 0.000000 0.000000 0.000000 0.021363
#
#
# Mechanical properties :
#
#
# Convention : Reuss Voigt Hill
#
# Bulk Modulus (GPa) = 53.36434 62.40283 57.88359
# Shear Modulus (GPa) = 29.69265 33.88329 31.78797
#
# Velocity S-wave (km/s) = 3.64517 3.89392 3.77160
# Velocity P-wave (km/s) = 6.44954 6.93842 6.69844
#
# Compressibility (1/GPa) = 0.01873910
#
# Stress axis : x y z
#
# Youngs Moduli (GPa) = 117.67808 94.61789 67.97802
#
# Poissons Ratio (x) = 0.33287 0.22064
# Poissons Ratio (y) = 0.41399 0.05134
# Poissons Ratio (z) = 0.38196 0.07146
#
# Static dielectric constant tensor:
#      x y z
#    x 1.845890 0.000000 0.000000 
#    y 0.000000 1.836200 0.000000 
#    z 0.000000 0.000000 1.877710 
# 
# From -- ./inp_files/9760.got.cif
#   From: 2010.05.17/outbox.cif.g08.bks.cpg/sg41_5_cif.got.tgz:9760.got - 2010.06.03 18:54:24.
