data_PCOD9366007
_publ_section_title
;
Structure prediction by ZEFSAII (Michael W. Deem and Ramdas Pophale) SiO2 
 PCOD9366007
Probable space group: A B A 2
;
_chemical_formula_sum "Si O2"
_cell_formula_units_Z 44
_cell_length_a 5.483950
_cell_length_b 23.791378
_cell_length_c 12.925229
_cell_angle_alpha 90.000000
_cell_angle_beta 90.000000
_cell_angle_gamma 90.000000
_cell_volume 1686.364029
_symmetry_space_group_name_H-M "A B A 2"
_symmetry_group_IT_number 41
_symmetry_cell_setting 'orthorhombic'
loop_
_space_group_symop_operation_xyz
x,y,z
-x,-y,z
1/2-x,y,1/2+z
1/2+x,-y,1/2+z
x,1/2+y,1/2+z
-x,1/2-y,1/2+z
1/2-x,1/2+y,z
1/2+x,1/2-y,z
loop_
_atom_site_type_symbol
_atom_site_label
_atom_site_fract_x
_atom_site_fract_y
_atom_site_fract_z
Si Si1 0.500000 0.000000 0.268710
Si Si2 0.185790 0.880051 0.506640
Si Si3 0.653102 0.737626 0.392250
Si Si4 0.679054 0.920205 0.417999
Si Si5 0.429845 0.121083 0.200847
Si Si6 0.359433 0.218677 0.620900
O O1 0.699853 0.978482 0.352415
O O2 0.500621 0.945509 0.197372
O O3 0.178092 0.825505 0.433039
O O4 0.432779 0.915043 0.486706
O O5 0.930641 0.910067 0.476054
O O6 0.144755 0.858571 0.624278
O O7 0.398269 0.745208 0.335973
O O8 0.642913 0.777402 0.494462
O O9 0.616515 0.875944 0.324352
O O10 0.199291 0.155059 0.155752
O O11 0.614583 0.246995 0.648021
#
# Coordination Sequence:
#
# PCOD9366007 Si02
#       6
#     4   8   8   8   8   8
#     4   8  24  54  66 112 146 182 258 318 334 466
#     4  12  23  44  78  96 149 196 231 301 382 416
#     4  10  19  36  65 102 138 182 230 292 343 439
#     4  10  27  45  67 112 139 184 253 305 341 458
#     4  10  23  48  74 106 145 196 241 301 378 431
#     4  10  20  37  69 100 144 183 225 299 354 428
#
# _framework density 26.091640999999999
#
# number of rings (size 3 to 8) (size 9 to 14) (size 15 to 20)
#    1.091    0.727    3.636    1.091    2.545    5.091 
#    0.000    5.455    0.000    0.000    0.000    0.000 
#    0.000    0.000    0.000    0.000    0.000    0.000 
#
# Total GULP energy -122534.189271 kJ/mol
# GULP energy per Si atom -5569.735876 kJ/mol
# Density = 2.603225 g / cm^3
# Si number density = 26.091641 Si / 1000 Ang^3
#
#
#
# Elastic Constant Matrix: (Units=GPa)
#
#
# Indices 1 2 3 4 5 6 
#
# 1 234.3544 66.0192 58.9663 0.0000 0.0000 0.0000
# 2 66.0192 132.9536 20.5017 0.0000 0.0000 0.0000
# 3 58.9663 20.5017 105.0413 0.0000 0.0000 0.0000
# 4 0.0000 0.0000 0.0000 23.9874 0.0000 0.0000
# 5 0.0000 0.0000 0.0000 0.0000 42.4819 0.0000
# 6 0.0000 0.0000 0.0000 0.0000 0.0000 42.8146
#
#
#
# Elastic Compliance Matrix: (Units=1/GPa)
#
#
# Indices 1 2 3 4 5 6 
#
# 1 0.005611 -0.002372 -0.002687 0.000000 0.000000 0.000000
# 2 -0.002372 0.008758 -0.000378 0.000000 0.000000 0.000000
# 3 -0.002687 -0.000378 0.011102 0.000000 0.000000 0.000000
# 4 0.000000 0.000000 0.000000 0.041689 0.000000 0.000000
# 5 0.000000 0.000000 0.000000 0.000000 0.023539 0.000000
# 6 0.000000 0.000000 0.000000 0.000000 0.000000 0.023357
#
#
# Mechanical properties :
#
#
# Convention : Reuss Voigt Hill
#
# Bulk Modulus (GPa) = 68.50479 84.81375 76.65927
# Shear Modulus (GPa) = 38.52233 43.64760 41.08497
#
# Velocity S-wave (km/s) = 3.84660 4.09450 3.97248
# Velocity P-wave (km/s) = 6.78534 7.41147 7.10530
#
# Compressibility (1/GPa) = 0.01459752
#
# Stress axis : x y z
#
# Youngs Moduli (GPa) = 178.21052 114.18781 90.07236
#
# Poissons Ratio (x) = 0.27085 0.24203
# Poissons Ratio (y) = 0.42272 0.03402
# Poissons Ratio (z) = 0.47886 0.04313
#
# Static dielectric constant tensor:
#      x y z
#    x 2.035580 0.000000 0.000000 
#    y 0.000000 2.140130 0.000000 
#    z 0.000000 0.000000 2.073770 
# 
# From -- ./inp_files/6864.got.cif
#   From: 2010.05.17/outbox.cif.g08.bks.cpg/sg41_4_cif.got.tgz:6864.got - 2010.06.03 18:54:24.
