data_PCOD9366198
_publ_section_title
;
Structure prediction by ZEFSAII (Michael W. Deem and Ramdas Pophale) SiO2 
 PCOD9366198
Probable space group: A B A 2
;
_chemical_formula_sum "Si O2"
_cell_formula_units_Z 56
_cell_length_a 7.988000
_cell_length_b 18.480729
_cell_length_c 17.238612
_cell_angle_alpha 90.000000
_cell_angle_beta 90.000000
_cell_angle_gamma 90.000000
_cell_volume 2544.833948
_symmetry_space_group_name_H-M "A B A 2"
_symmetry_group_IT_number 41
_symmetry_cell_setting 'orthorhombic'
loop_
_space_group_symop_operation_xyz
x,y,z
-x,-y,z
1/2-x,y,1/2+z
1/2+x,-y,1/2+z
x,1/2+y,1/2+z
-x,1/2-y,1/2+z
1/2-x,1/2+y,z
1/2+x,1/2-y,z
loop_
_atom_site_type_symbol
_atom_site_label
_atom_site_fract_x
_atom_site_fract_y
_atom_site_fract_z
Si Si1 0.072529 0.279446 0.613890
Si Si2 0.315770 0.818178 0.301767
Si Si3 0.348973 0.588981 0.414158
Si Si4 0.415126 0.861162 0.144764
Si Si5 0.327589 0.433353 0.496144
Si Si6 0.566074 0.339899 0.264688
Si Si7 0.997505 0.653033 0.461503
O O1 0.259543 0.309239 0.621218
O O2 0.969646 0.333385 0.672267
O O3 0.067189 0.194996 0.636261
O O4 0.007519 0.286527 0.527088
O O5 0.394636 0.871371 0.236508
O O6 0.336480 0.734306 0.279991
O O7 0.120474 0.833288 0.299269
O O8 0.410850 0.826180 0.381513
O O9 0.327262 0.508762 0.449823
O O10 0.528159 0.612577 0.451010
O O11 0.355124 0.598203 0.320182
O O12 0.187180 0.630939 0.445065
O O13 0.394267 0.927005 0.085108
O O14 0.136164 0.406214 0.493725
#
# Coordination Sequence:
#
# PCOD9366198 Si02
#       7
#     8   8   8   8   8   8   8
#     4   9  21  35  61  93 126 161 199 266 324 372
#     4  10  20  36  63  94 130 161 204 270 322 378
#     4  11  23  39  65  83 122 172 212 259 310 375
#     4   9  20  38  60  90 130 162 203 263 323 378
#     4  10  23  42  60  85 126 164 216 260 302 383
#     4  10  20  39  58  94 131 163 208 258 328 377
#     4  11  22  39  64  93 120 162 216 266 318 375
#
# _framework density 22.005362999999999
#
# number of rings (size 3 to 8) (size 9 to 14) (size 15 to 20)
#    0.000    2.000    1.429    1.286    4.000    2.286 
#    0.000    1.429    6.286    0.000    0.000    0.000 
#    0.000    0.000    0.000    0.000    0.000    0.000 
#
# Total GULP energy -155934.124910 kJ/mol
# GULP energy per Si atom -5569.075890 kJ/mol
# Density = 2.195528 g / cm^3
# Si number density = 22.005363 Si / 1000 Ang^3
#
#
#
# Elastic Constant Matrix: (Units=GPa)
#
#
# Indices 1 2 3 4 5 6 
#
# 1 84.8493 -2.6628 7.5447 0.0000 0.0000 0.0000
# 2 -2.6628 42.5643 28.9022 0.0000 0.0000 0.0000
# 3 7.5447 28.9022 149.5236 0.0000 0.0000 0.0000
# 4 0.0000 0.0000 0.0000 35.1773 0.0000 0.0000
# 5 0.0000 0.0000 0.0000 0.0000 62.9070 0.0000
# 6 0.0000 0.0000 0.0000 0.0000 0.0000 28.2164
#
#
#
# Elastic Compliance Matrix: (Units=1/GPa)
#
#
# Indices 1 2 3 4 5 6 
#
# 1 0.011903 0.001327 -0.000857 0.000000 0.000000 0.000000
# 2 0.001327 0.027191 -0.005323 0.000000 0.000000 0.000000
# 3 -0.000857 -0.005323 0.007760 0.000000 0.000000 0.000000
# 4 0.000000 0.000000 0.000000 0.028427 0.000000 0.000000
# 5 0.000000 0.000000 0.000000 0.000000 0.015896 0.000000
# 6 0.000000 0.000000 0.000000 0.000000 0.000000 0.035440
#
#
# Mechanical properties :
#
#
# Convention : Reuss Voigt Hill
#
# Bulk Modulus (GPa) = 26.91929 38.27839 32.59884
# Shear Modulus (GPa) = 33.62286 41.47033 37.54659
#
# Velocity S-wave (km/s) = 3.91313 4.34586 4.13516
# Velocity P-wave (km/s) = 5.71632 6.52800 6.13560
#
# Compressibility (1/GPa) = 0.03714808
#
# Stress axis : x y z
#
# Youngs Moduli (GPa) = 84.00929 36.77659 128.86526
#
# Poissons Ratio (x) = -0.04879 0.11045
# Poissons Ratio (y) = -0.11145 0.68593
# Poissons Ratio (z) = 0.07200 0.19576
#
# Static dielectric constant tensor:
#      x y z
#    x 1.833210 0.000000 0.000000 
#    y 0.000000 1.850130 0.000000 
#    z 0.000000 0.000000 1.896990 
# 
# From -- ./inp_files/7459.got.cif
#   From: 2010.05.17/outbox.cif.g08.bks.cpg/sg41_4_cif.got.tgz:7459.got - 2010.06.03 18:54:24.
