data_PCOD9366592
_publ_section_title
;
Structure prediction by ZEFSAII (Michael W. Deem and Ramdas Pophale) SiO2 
 PCOD9366592
Probable space group: A B A 2
;
_chemical_formula_sum "Si O2"
_cell_formula_units_Z 60
_cell_length_a 5.393620
_cell_length_b 17.105552
_cell_length_c 35.303378
_cell_angle_alpha 90.000000
_cell_angle_beta 90.000000
_cell_angle_gamma 90.000000
_cell_volume 3257.119570
_symmetry_space_group_name_H-M "A B A 2"
_symmetry_group_IT_number 41
_symmetry_cell_setting 'orthorhombic'
loop_
_space_group_symop_operation_xyz
x,y,z
-x,-y,z
1/2-x,y,1/2+z
1/2+x,-y,1/2+z
x,1/2+y,1/2+z
-x,1/2-y,1/2+z
1/2-x,1/2+y,z
1/2+x,1/2-y,z
loop_
_atom_site_type_symbol
_atom_site_label
_atom_site_fract_x
_atom_site_fract_y
_atom_site_fract_z
Si Si1 0.500000 0.500000 0.049430
Si Si2 0.482372 0.799905 0.940334
Si Si3 0.456675 0.698208 0.661203
Si Si4 0.000222 0.406506 0.782039
Si Si5 0.499346 0.594061 0.736004
Si Si6 0.605859 0.912704 0.089735
Si Si7 0.941757 0.698996 0.854873
Si Si8 0.611364 0.586521 0.509453
O O1 0.619197 0.438070 0.078729
O O2 0.612083 0.562940 0.019992
O O3 0.755320 0.761914 0.943468
O O4 0.458744 0.833663 0.897748
O O5 0.439867 0.860390 0.974017
O O6 0.707148 0.749694 0.662084
O O7 0.467797 0.640724 0.697196
O O8 0.441060 0.645834 0.623371
O O9 0.738373 0.386157 0.762243
O O10 0.000000 0.500000 0.786985
O O11 0.238905 0.385939 0.756072
O O12 0.029317 0.363953 0.821972
O O13 0.500000 0.500000 0.729686
O O14 0.495328 0.883236 0.049632
O O15 0.500000 0.000000 0.097437
O O16 0.675381 0.741704 0.851194
O O17 0.500000 0.500000 0.504168
#
# Coordination Sequence:
#
# PCOD9366592 Si02
#       8
#     4   8   8   8   8   8   8   8
#     4   8  18  38  62  82 110 148 212 228 300 344
#     4  10  23  38  57  86 123 158 195 236 293 353
#     4  12  27  40  58  91 124 149 196 247 291 343
#     4  10  21  38  64  88 113 147 199 243 284 340
#     4  10  22  42  61  85 116 156 192 235 293 352
#     4   9  21  40  61  83 113 160 197 239 293 354
#     4  10  21  38  58  85 119 158 190 230 291 354
#     4   9  20  37  61  86 113 153 202 245 288 344
#
# _framework density 18.421185000000001
#
# number of rings (size 3 to 8) (size 9 to 14) (size 15 to 20)
#    0.000    2.400    0.000    2.000    7.467    4.800 
#    3.600    0.000    4.400    0.000    0.000    0.000 
#    0.000    0.000    0.000    0.000    0.000    0.000 
#
# Total GULP energy -167022.952949 kJ/mol
# GULP energy per Si atom -5567.431765 kJ/mol
# Density = 1.837926 g / cm^3
# Si number density = 18.421185 Si / 1000 Ang^3
#
#
#
# Elastic Constant Matrix: (Units=GPa)
#
#
# Indices 1 2 3 4 5 6 
#
# 1 90.9616 21.7350 43.0529 0.0000 0.0000 0.0000
# 2 21.7350 45.4819 78.3440 0.0000 0.0000 0.0000
# 3 43.0529 78.3440 181.6403 0.0000 0.0000 0.0000
# 4 0.0000 0.0000 0.0000 50.5003 0.0000 0.0000
# 5 0.0000 0.0000 0.0000 0.0000 38.4173 0.0000
# 6 0.0000 0.0000 0.0000 0.0000 0.0000 55.4687
#
#
#
# Elastic Compliance Matrix: (Units=1/GPa)
#
#
# Indices 1 2 3 4 5 6 
#
# 1 0.012516 -0.003389 -0.001505 0.000000 0.000000 0.000000
# 2 -0.003389 0.086453 -0.036485 0.000000 0.000000 0.000000
# 3 -0.001505 -0.036485 0.021599 0.000000 0.000000 0.000000
# 4 0.000000 0.000000 0.000000 0.019802 0.000000 0.000000
# 5 0.000000 0.000000 0.000000 0.000000 0.026030 0.000000
# 6 0.000000 0.000000 0.000000 0.000000 0.000000 0.018028
#
#
# Mechanical properties :
#
#
# Convention : Reuss Voigt Hill
#
# Bulk Modulus (GPa) = 26.44829 67.14973 46.79901
# Shear Modulus (GPa) = 17.87062 40.54074 29.20568
#
# Velocity S-wave (km/s) = 3.11804 4.69632 3.98608
# Velocity P-wave (km/s) = 5.22988 8.12027 6.82973
#
# Compressibility (1/GPa) = 0.03780963
#
# Stress axis : x y z
#
# Youngs Moduli (GPa) = 79.89992 11.56693 46.29915
#
# Poissons Ratio (x) = 0.03920 0.06967
# Poissons Ratio (y) = 0.27078 1.68924
# Poissons Ratio (z) = 0.12023 0.42202
#
# Static dielectric constant tensor:
#      x y z
#    x 1.637560 0.000000 0.000000 
#    y 0.000000 1.597630 0.000000 
#    z 0.000000 0.000000 1.599890 
# 
# From -- ./inp_files/12651.got.cif
#   From: 2010.05.17/outbox.cif.g08.bks.cpg/sg41_7_cif.got.tgz:12651.got - 2010.06.03 18:54:24.
