data_PCOD9366216
_publ_section_title
;
Structure prediction by ZEFSAII (Michael W. Deem and Ramdas Pophale) SiO2 
 PCOD9366216
Probable space group: A B A 2
;
_chemical_formula_sum "Si O2"
_cell_formula_units_Z 48
_cell_length_a 10.416691
_cell_length_b 12.682840
_cell_length_c 17.640190
_cell_angle_alpha 90.000000
_cell_angle_beta 90.000000
_cell_angle_gamma 90.000000
_cell_volume 2330.502395
_symmetry_space_group_name_H-M "A B A 2"
_symmetry_group_IT_number 41
_symmetry_cell_setting 'orthorhombic'
loop_
_space_group_symop_operation_xyz
x,y,z
-x,-y,z
1/2-x,y,1/2+z
1/2+x,-y,1/2+z
x,1/2+y,1/2+z
-x,1/2-y,1/2+z
1/2-x,1/2+y,z
1/2+x,1/2-y,z
loop_
_atom_site_type_symbol
_atom_site_label
_atom_site_fract_x
_atom_site_fract_y
_atom_site_fract_z
Si Si1 0.000000 0.000000 0.357870
Si Si2 0.875567 0.347957 0.741671
Si Si3 0.657395 0.691443 0.030985
Si Si4 0.434515 0.824256 0.977797
Si Si5 0.637645 0.225718 0.703357
Si Si6 0.500000 0.000000 0.101276
Si Si7 0.211486 0.986709 0.139020
O O1 0.938473 0.092823 0.408798
O O2 0.096366 0.066859 0.305774
O O3 0.740880 0.290677 0.749532
O O4 0.868852 0.411176 0.661622
O O5 0.993947 0.268018 0.733785
O O6 0.648018 0.748268 0.113330
O O7 0.671452 0.569154 0.059667
O O8 0.539366 0.730806 0.980310
O O9 0.791881 0.717968 0.991636
O O10 0.473504 0.899477 0.048181
O O11 0.678110 0.102756 0.701111
O O12 0.636462 0.989709 0.143418
#
# Coordination Sequence:
#
# PCOD9366216 Si02
#       7
#     4   8   8   8   8   4   8
#     4  11  24  40  58  76 128 167 196 250 286 361
#     4  12  22  42  58  93 123 164 198 246 309 360
#     4   9  19  35  60  92 110 150 195 248 306 347
#     4  10  20  37  58  83 118 158 200 234 298 354
#     4  10  22  35  66  89 120 154 197 253 308 360
#     4   9  18  34  56  94 118 149 182 250 304 351
#     4   9  20  34  61  90 126 143 199 250 313 349
#
# _framework density 20.596416000000001
#
# number of rings (size 3 to 8) (size 9 to 14) (size 15 to 20)
#    1.000    1.000    1.667    2.000    2.333    1.333 
#    0.000    0.000    0.000    2.000    0.000    0.000 
#    0.000    0.000    0.000    0.000    0.000    0.000 
#
# Total GULP energy -133659.501631 kJ/mol
# GULP energy per Si atom -5569.145901 kJ/mol
# Density = 2.054954 g / cm^3
# Si number density = 20.596416 Si / 1000 Ang^3
#
#
#
# Elastic Constant Matrix: (Units=GPa)
#
#
# Indices 1 2 3 4 5 6 
#
# 1 156.0564 50.2822 40.3789 0.0000 0.0000 0.0000
# 2 50.2822 55.9829 15.1170 0.0000 0.0000 0.0000
# 3 40.3789 15.1170 49.7293 0.0000 0.0000 0.0000
# 4 0.0000 0.0000 0.0000 -3.2299 0.0000 0.0000
# 5 0.0000 0.0000 0.0000 0.0000 -1.2414 0.0000
# 6 0.0000 0.0000 0.0000 0.0000 0.0000 42.3895
#
#
#
# Elastic Compliance Matrix: (Units=1/GPa)
#
#
# Indices 1 2 3 4 5 6 
#
# 1 0.010509 -0.007773 -0.006170 0.000000 0.000000 0.000000
# 2 -0.007773 0.025209 -0.001352 0.000000 0.000000 0.000000
# 3 -0.006170 -0.001352 0.025530 0.000000 0.000000 0.000000
# 4 0.000000 0.000000 0.000000 -0.309611 0.000000 0.000000
# 5 0.000000 0.000000 0.000000 0.000000 -0.805526 0.000000
# 6 0.000000 0.000000 0.000000 0.000000 0.000000 0.023591
#
#
# Mechanical properties :
#
#
# Convention : Reuss Voigt Hill
#
# Bulk Modulus (GPa) = 32.61789 52.59164 42.60476
# Shear Modulus (GPa) = -5.05311 17.98300 6.46495
#
# Velocity S-wave (km/s) = -1.56803 2.95805 1.77361
# Velocity P-wave (km/s) = 3.54863 6.10382 4.99246
#
# Compressibility (1/GPa) = 0.03065802
#
# Stress axis : x y z
#
# Youngs Moduli (GPa) = 95.15848 39.66871 39.16991
#
# Poissons Ratio (x) = 0.30833 0.24168
# Poissons Ratio (y) = 0.73963 0.05296
# Poissons Ratio (z) = 0.58714 0.05363
#
# Static dielectric constant tensor:
#      x y z
#    x 1.819000 0.000000 0.000000 
#    y 0.000000 1.793260 0.000000 
#    z 0.000000 0.000000 1.756050 
# 
# From -- ./inp_files/11145.got.cif
#   From: 2010.05.17/outbox.cif.g08.bks.cpg/sg41_6_cif.got.tgz:11145.got - 2010.06.03 18:54:24.
