data_PCOD9366422
_publ_section_title
;
Structure prediction by ZEFSAII (Michael W. Deem and Ramdas Pophale) SiO2 
 PCOD9366422
Probable space group: A B A 2
;
_chemical_formula_sum "Si O2"
_cell_formula_units_Z 60
_cell_length_a 16.516948
_cell_length_b 9.059331
_cell_length_c 16.622148
_cell_angle_alpha 90.000000
_cell_angle_beta 90.000000
_cell_angle_gamma 90.000000
_cell_volume 2487.213545
_symmetry_space_group_name_H-M "A B A 2"
_symmetry_group_IT_number 41
_symmetry_cell_setting 'orthorhombic'
loop_
_space_group_symop_operation_xyz
x,y,z
-x,-y,z
1/2-x,y,1/2+z
1/2+x,-y,1/2+z
x,1/2+y,1/2+z
-x,1/2-y,1/2+z
1/2-x,1/2+y,z
1/2+x,1/2-y,z
loop_
_atom_site_type_symbol
_atom_site_label
_atom_site_fract_x
_atom_site_fract_y
_atom_site_fract_z
Si Si1 0.979245 0.325798 0.639790
Si Si2 0.500000 0.000000 0.321931
Si Si3 0.360680 0.876945 0.221342
Si Si4 0.151109 0.814879 0.192898
Si Si5 0.802178 0.801322 0.450981
Si Si6 0.711012 0.582910 0.345647
Si Si7 0.016432 0.829185 0.971461
Si Si8 0.758790 0.945150 0.617505
O O1 0.066318 0.256863 0.661505
O O2 0.967492 0.265449 0.547500
O O3 0.000000 0.500000 0.651104
O O4 0.908771 0.271176 0.698782
O O5 0.424267 0.978997 0.266325
O O6 0.507909 0.852897 0.378374
O O7 0.286260 0.895748 0.283662
O O8 0.330740 0.942056 0.137087
O O9 0.142630 0.858015 0.286033
O O10 0.220038 0.690804 0.176978
O O11 0.180321 0.958070 0.140355
O O12 0.738239 0.680348 0.420960
O O13 0.890574 0.728983 0.469518
O O14 0.765804 0.880513 0.529191
O O15 0.807303 0.921376 0.379340
O O16 0.000000 0.000000 0.994181
#
# Coordination Sequence:
#
# PCOD9366422 Si02
#       8
#     8   4   8   8   8   8   8   8
#     4  11  25  44  77 105 150 194 256 308 382 465
#     4  10  20  40  74  98 146 196 238 308 384 450
#     4  11  24  45  72 107 145 199 249 314 383 457
#     4  11  24  45  68 111 139 196 247 309 377 453
#     4  12  23  46  70 108 141 196 247 314 381 459
#     4  11  25  43  75 103 152 189 254 316 382 449
#     4   9  21  44  68 103 144 195 243 306 380 464
#     4  11  25  43  74 100 146 187 254 304 374 456
#
# _framework density 24.123380000000001
#
# number of rings (size 3 to 8) (size 9 to 14) (size 15 to 20)
#    0.400    0.800    2.667    3.200    5.600    0.000 
#    0.000    2.667    2.933    0.000    0.000    0.000 
#    0.000    0.000    0.000    0.000    0.000    0.000 
#
# Total GULP energy -167207.172247 kJ/mol
# GULP energy per Si atom -5573.572408 kJ/mol
# Density = 2.406847 g / cm^3
# Si number density = 24.123380 Si / 1000 Ang^3
#
#
#
# Elastic Constant Matrix: (Units=GPa)
#
#
# Indices 1 2 3 4 5 6 
#
# 1 73.2792 30.8292 37.2652 0.0000 0.0000 0.0000
# 2 30.8292 110.8359 36.1312 0.0000 0.0000 0.0000
# 3 37.2652 36.1312 102.9276 0.0000 0.0000 0.0000
# 4 0.0000 0.0000 0.0000 33.1450 0.0000 0.0000
# 5 0.0000 0.0000 0.0000 0.0000 41.3926 0.0000
# 6 0.0000 0.0000 0.0000 0.0000 0.0000 40.6374
#
#
#
# Elastic Compliance Matrix: (Units=1/GPa)
#
#
# Indices 1 2 3 4 5 6 
#
# 1 0.017675 -0.003196 -0.005277 0.000000 0.000000 0.000000
# 2 -0.003196 0.010766 -0.002622 0.000000 0.000000 0.000000
# 3 -0.005277 -0.002622 0.012547 0.000000 0.000000 0.000000
# 4 0.000000 0.000000 0.000000 0.030170 0.000000 0.000000
# 5 0.000000 0.000000 0.000000 0.000000 0.024159 0.000000
# 6 0.000000 0.000000 0.000000 0.000000 0.000000 0.024608
#
#
# Mechanical properties :
#
#
# Convention : Reuss Voigt Hill
#
# Bulk Modulus (GPa) = 53.20080 55.05487 54.12783
# Shear Modulus (GPa) = 33.69701 35.22280 34.45991
#
# Velocity S-wave (km/s) = 3.74152 3.82528 3.78363
# Velocity P-wave (km/s) = 6.38488 6.51016 6.44783
#
# Compressibility (1/GPa) = 0.01879671
#
# Stress axis : x y z
#
# Youngs Moduli (GPa) = 56.57811 92.88416 79.70225
#
# Poissons Ratio (x) = 0.29685 0.42061
# Poissons Ratio (y) = 0.18082 0.20899
# Poissons Ratio (z) = 0.29858 0.24356
#
# Static dielectric constant tensor:
#      x y z
#    x 1.966560 0.000000 0.000000 
#    y 0.000000 2.012410 0.000000 
#    z 0.000000 0.000000 1.998950 
# 
# From -- ./inp_files/10594.got.cif
#   From: 2010.05.17/outbox.cif.g08.bks.cpg/sg41_6_cif.got.tgz:10594.got - 2010.06.03 18:54:24.
