data_PCOD9366870
_publ_section_title
;
Structure prediction by ZEFSAII (Michael W. Deem and Ramdas Pophale) SiO2 
 PCOD9366870
Probable space group: A B A 2
;
_chemical_formula_sum "Si O2"
_cell_formula_units_Z 52
_cell_length_a 9.138724
_cell_length_b 16.229273
_cell_length_c 17.088973
_cell_angle_alpha 90.000000
_cell_angle_beta 90.000000
_cell_angle_gamma 90.000000
_cell_volume 2534.548410
_symmetry_space_group_name_H-M "A B A 2"
_symmetry_group_IT_number 41
_symmetry_cell_setting 'orthorhombic'
loop_
_space_group_symop_operation_xyz
x,y,z
-x,-y,z
1/2-x,y,1/2+z
1/2+x,-y,1/2+z
x,1/2+y,1/2+z
-x,1/2-y,1/2+z
1/2-x,1/2+y,z
1/2+x,1/2-y,z
loop_
_atom_site_type_symbol
_atom_site_label
_atom_site_fract_x
_atom_site_fract_y
_atom_site_fract_z
Si Si1 0.594804 0.071502 0.933280
Si Si2 0.049718 0.093646 0.989587
Si Si3 0.328937 0.687985 0.455216
Si Si4 0.871153 0.198522 0.103785
Si Si5 0.440585 0.341668 0.678641
Si Si6 0.000000 0.500000 0.084092
Si Si7 0.145251 0.834697 0.856983
O O1 0.489521 0.149046 0.949039
O O2 0.728201 0.101593 0.882044
O O3 0.500000 0.000000 0.892238
O O4 0.379513 0.966917 0.020388
O O5 0.218750 0.114697 0.976413
O O6 0.979511 0.146602 0.919711
O O7 0.000000 0.000000 0.981027
O O8 0.980738 0.129522 0.069522
O O9 0.318491 0.750240 0.527794
O O10 0.300523 0.742049 0.377485
O O11 0.724193 0.166181 0.144166
O O12 0.964179 0.261609 0.156484
O O13 0.519964 0.420923 0.639427
O O14 0.415999 0.347144 0.771070
#
# Coordination Sequence:
#
# PCOD9366870 Si02
#       7
#     8   8   8   8   8   4   8
#     4  10  21  42  69  92 127 182 229 270 339 417
#     4  11  24  40  69 100 129 176 240 287 329 430
#     4  11  21  40  68  93 131 177 229 280 331 431
#     4  11  23  44  66  99 132 185 227 282 348 425
#     4  12  26  43  71 100 145 176 228 293 363 405
#     4  10  22  44  72  96 132 184 230 288 342 424
#     4  11  25  41  66  99 138 177 227 282 357 418
#
# _framework density 20.516476000000001
#
# number of rings (size 3 to 8) (size 9 to 14) (size 15 to 20)
#    0.462    0.615    3.077    4.615    7.538    0.000 
#    0.000    0.769    0.000    0.000    0.000    0.000 
#    0.000    0.000    0.000    0.000    0.000    0.000 
#
# Total GULP energy -145058.889344 kJ/mol
# GULP energy per Si atom -5579.188052 kJ/mol
# Density = 2.046978 g / cm^3
# Si number density = 20.516476 Si / 1000 Ang^3
#
#
#
# Elastic Constant Matrix: (Units=GPa)
#
#
# Indices 1 2 3 4 5 6 
#
# 1 59.8765 13.4410 21.9115 0.0000 0.0000 0.0000
# 2 13.4410 108.3497 39.6686 0.0000 0.0000 0.0000
# 3 21.9115 39.6686 106.5272 0.0000 0.0000 0.0000
# 4 0.0000 0.0000 0.0000 20.9757 0.0000 0.0000
# 5 0.0000 0.0000 0.0000 0.0000 24.3060 0.0000
# 6 0.0000 0.0000 0.0000 0.0000 0.0000 30.9752
#
#
#
# Elastic Compliance Matrix: (Units=1/GPa)
#
#
# Indices 1 2 3 4 5 6 
#
# 1 0.018158 -0.001025 -0.003353 0.000000 0.000000 0.000000
# 2 -0.001025 0.010744 -0.003790 0.000000 0.000000 0.000000
# 3 -0.003353 -0.003790 0.011488 0.000000 0.000000 0.000000
# 4 0.000000 0.000000 0.000000 0.047674 0.000000 0.000000
# 5 0.000000 0.000000 0.000000 0.000000 0.041142 0.000000
# 6 0.000000 0.000000 0.000000 0.000000 0.000000 0.032284
#
#
# Mechanical properties :
#
#
# Convention : Reuss Voigt Hill
#
# Bulk Modulus (GPa) = 41.57283 47.19953 44.38618
# Shear Modulus (GPa) = 26.90407 28.56687 27.73547
#
# Velocity S-wave (km/s) = 3.62517 3.73552 3.68076
# Velocity P-wave (km/s) = 6.15058 6.45454 6.30439
#
# Compressibility (1/GPa) = 0.02405417
#
# Stress axis : x y z
#
# Youngs Moduli (GPa) = 55.07148 93.07416 87.04458
#
# Poissons Ratio (x) = 0.09539 0.29189
# Poissons Ratio (y) = 0.05644 0.32991
# Poissons Ratio (z) = 0.18467 0.35276
#
# Static dielectric constant tensor:
#      x y z
#    x 1.796810 0.000000 0.000000 
#    y 0.000000 1.789100 0.000000 
#    z 0.000000 0.000000 1.705720 
# 
# From -- ./inp_files/9722.got.cif
#   From: 2010.05.17/outbox.cif.g08.bks.cpg/sg41_5_cif.got.tgz:9722.got - 2010.06.03 18:54:24.
