data_PCOD9366049
_publ_section_title
;
Structure prediction by ZEFSAII (Michael W. Deem and Ramdas Pophale) SiO2 
 PCOD9366049
Probable space group: A B A 2
;
_chemical_formula_sum "Si O2"
_cell_formula_units_Z 64
_cell_length_a 17.860658
_cell_length_b 10.952688
_cell_length_c 15.567721
_cell_angle_alpha 90.000000
_cell_angle_beta 90.000000
_cell_angle_gamma 90.000000
_cell_volume 3045.392057
_symmetry_space_group_name_H-M "A B A 2"
_symmetry_group_IT_number 41
_symmetry_cell_setting 'orthorhombic'
loop_
_space_group_symop_operation_xyz
x,y,z
-x,-y,z
1/2-x,y,1/2+z
1/2+x,-y,1/2+z
x,1/2+y,1/2+z
-x,1/2-y,1/2+z
1/2-x,1/2+y,z
1/2+x,1/2-y,z
loop_
_atom_site_type_symbol
_atom_site_label
_atom_site_fract_x
_atom_site_fract_y
_atom_site_fract_z
Si Si1 0.050141 0.841241 0.112630
Si Si2 0.175809 0.095248 0.376310
Si Si3 0.226292 0.359813 0.423169
Si Si4 0.885234 0.839935 0.076949
Si Si5 0.076317 0.079404 0.535285
Si Si6 0.825422 0.016029 0.198706
Si Si7 0.579996 0.006895 0.437209
Si Si8 0.798502 0.098675 0.600458
O O1 0.061060 0.701291 0.088468
O O2 0.106852 0.889666 0.184292
O O3 0.962431 0.862942 0.127789
O O4 0.065708 0.914821 0.024217
O O5 0.224863 0.218241 0.393536
O O6 0.103883 0.108397 0.438134
O O7 0.212703 0.961663 0.396096
O O8 0.161297 0.075715 0.276204
O O9 0.148306 0.422988 0.394874
O O10 0.238488 0.361831 0.526569
O O11 0.858159 0.706497 0.095482
O O12 0.823647 0.930935 0.113956
O O13 0.897511 0.875169 0.977119
O O14 0.149937 0.016170 0.576172
O O15 0.000000 0.000000 0.534708
O O16 0.746101 0.084177 0.189695
O O17 0.500000 0.000000 0.390869
#
# Coordination Sequence:
#
# PCOD9366049 Si02
#       8
#     8   8   8   8   8   8   8   8
#     4  10  19  38  63  90 123 156 216 269 317 385
#     4  11  26  39  63  91 135 173 207 273 334 408
#     4  11  21  41  60  93 128 165 217 268 322 386
#     4  10  20  36  61  92 113 157 212 264 316 378
#     4  11  22  40  62  97 126 165 213 277 331 386
#     4  11  24  38  63  92 125 172 210 267 330 394
#     4   9  17  32  62  88 114 156 209 268 313 372
#     4  11  22  35  64  90 123 163 216 267 318 379
#
# _framework density 21.015356000000001
#
# number of rings (size 3 to 8) (size 9 to 14) (size 15 to 20)
#    0.000    1.500    5.000    1.875    5.250    1.000 
#    0.000    0.000    0.000    2.250    0.000    0.000 
#    0.000    0.000    0.000    0.000    0.000    0.000 
#
# Total GULP energy -178272.759812 kJ/mol
# GULP energy per Si atom -5571.023744 kJ/mol
# Density = 2.096752 g / cm^3
# Si number density = 21.015356 Si / 1000 Ang^3
#
#
#
# Elastic Constant Matrix: (Units=GPa)
#
#
# Indices 1 2 3 4 5 6 
#
# 1 91.9719 24.1848 13.4404 0.0000 0.0000 0.0000
# 2 24.1848 107.6242 21.9105 0.0000 0.0000 0.0000
# 3 13.4404 21.9105 41.2802 0.0000 0.0000 0.0000
# 4 0.0000 0.0000 0.0000 21.9287 0.0000 0.0000
# 5 0.0000 0.0000 0.0000 0.0000 11.2207 0.0000
# 6 0.0000 0.0000 0.0000 0.0000 0.0000 36.0458
#
#
#
# Elastic Compliance Matrix: (Units=1/GPa)
#
#
# Indices 1 2 3 4 5 6 
#
# 1 0.011825 -0.002100 -0.002735 0.000000 0.000000 0.000000
# 2 -0.002100 0.010790 -0.005043 0.000000 0.000000 0.000000
# 3 -0.002735 -0.005043 0.027792 0.000000 0.000000 0.000000
# 4 0.000000 0.000000 0.000000 0.045602 0.000000 0.000000
# 5 0.000000 0.000000 0.000000 0.000000 0.089121 0.000000
# 6 0.000000 0.000000 0.000000 0.000000 0.000000 0.027742
#
#
# Mechanical properties :
#
#
# Convention : Reuss Voigt Hill
#
# Bulk Modulus (GPa) = 32.62706 39.99418 36.31062
# Shear Modulus (GPa) = 20.58904 25.92841 23.25872
#
# Velocity S-wave (km/s) = 3.13343 3.51634 3.33039
# Velocity P-wave (km/s) = 5.35259 5.96309 5.66607
#
# Compressibility (1/GPa) = 0.03064941
#
# Stress axis : x y z
#
# Youngs Moduli (GPa) = 84.56718 92.67555 35.98135
#
# Poissons Ratio (x) = 0.19465 0.09842
# Poissons Ratio (y) = 0.17762 0.18147
# Poissons Ratio (z) = 0.23131 0.46740
#
# Static dielectric constant tensor:
#      x y z
#    x 1.847040 0.000000 0.000000 
#    y 0.000000 1.817050 0.000000 
#    z 0.000000 0.000000 1.804840 
# 
# From -- ./inp_files/8834.got.cif
#   From: 2010.05.17/outbox.cif.g08.bks.cpg/sg41_5_cif.got.tgz:8834.got - 2010.06.03 18:54:24.
