data_PCOD9366417
_publ_section_title
;
Structure prediction by ZEFSAII (Michael W. Deem and Ramdas Pophale) SiO2 
 PCOD9366417
Probable space group: A B A 2
;
_chemical_formula_sum "Si O2"
_cell_formula_units_Z 60
_cell_length_a 8.430095
_cell_length_b 14.681363
_cell_length_c 22.741473
_cell_angle_alpha 90.000000
_cell_angle_beta 90.000000
_cell_angle_gamma 90.000000
_cell_volume 2814.604883
_symmetry_space_group_name_H-M "A B A 2"
_symmetry_group_IT_number 41
_symmetry_cell_setting 'orthorhombic'
loop_
_space_group_symop_operation_xyz
x,y,z
-x,-y,z
1/2-x,y,1/2+z
1/2+x,-y,1/2+z
x,1/2+y,1/2+z
-x,1/2-y,1/2+z
1/2-x,1/2+y,z
1/2+x,1/2-y,z
loop_
_atom_site_type_symbol
_atom_site_label
_atom_site_fract_x
_atom_site_fract_y
_atom_site_fract_z
Si Si1 0.771925 0.941097 0.691240
Si Si2 0.373909 0.355409 0.691292
Si Si3 0.320077 0.339799 0.945618
Si Si4 0.000000 0.500000 0.483884
Si Si5 0.886676 0.638592 0.056427
Si Si6 0.935368 0.243328 0.368791
Si Si7 0.193907 0.690303 0.781855
Si Si8 0.267749 0.572489 0.558983
O O1 0.670063 0.895968 0.741171
O O2 0.721620 0.911405 0.626294
O O3 0.945565 0.892833 0.698760
O O4 0.777884 0.049836 0.695947
O O5 0.363500 0.323730 0.622679
O O6 0.321984 0.278944 0.738387
O O7 0.476983 0.286712 0.924938
O O8 0.199579 0.320971 0.893451
O O9 0.373490 0.443813 0.947718
O O10 0.227261 0.318850 0.006587
O O11 0.106510 0.570759 0.521553
O O12 0.830870 0.532478 0.058525
O O13 0.076441 0.632307 0.042574
O O14 0.854552 0.309520 0.320699
O O15 0.062491 0.190788 0.331355
#
# Coordination Sequence:
#
# PCOD9366417 Si02
#       8
#     8   8   8   4   8   8   8   8
#     4   9  18  37  64  92 128 168 202 256 334 393
#     4   9  18  37  66  97 123 165 213 260 334 403
#     4  10  22  44  65  86 126 173 211 273 323 381
#     4  10  20  40  70  96 126 168 214 266 332 400
#     4   8  16  36  64  93 126 163 207 264 327 394
#     4  10  24  42  60  84 131 166 222 270 311 374
#     4  11  20  42  62  89 127 169 213 281 316 377
#     4   8  16  33  62  97 131 153 198 268 324 392
#
# _framework density 21.317378999999999
#
# number of rings (size 3 to 8) (size 9 to 14) (size 15 to 20)
#    0.000    2.667    1.333    1.600    0.000    2.133 
#   19.200    0.000    2.933    0.000    0.000    0.000 
#    0.000    0.000    0.000    0.000    0.000    0.000 
#
# Total GULP energy -167149.846405 kJ/mol
# GULP energy per Si atom -5571.661547 kJ/mol
# Density = 2.126886 g / cm^3
# Si number density = 21.317379 Si / 1000 Ang^3
#
#
#
# Elastic Constant Matrix: (Units=GPa)
#
#
# Indices 1 2 3 4 5 6 
#
# 1 54.5593 16.4411 34.2018 0.0000 0.0000 0.0000
# 2 16.4411 54.2388 43.6094 0.0000 0.0000 0.0000
# 3 34.2018 43.6094 110.8349 0.0000 0.0000 0.0000
# 4 0.0000 0.0000 0.0000 30.9468 0.0000 0.0000
# 5 0.0000 0.0000 0.0000 0.0000 12.7070 0.0000
# 6 0.0000 0.0000 0.0000 0.0000 0.0000 8.7602
#
#
#
# Elastic Compliance Matrix: (Units=1/GPa)
#
#
# Indices 1 2 3 4 5 6 
#
# 1 0.022849 -0.001839 -0.006327 0.000000 0.000000 0.000000
# 2 -0.001839 0.027117 -0.010102 0.000000 0.000000 0.000000
# 3 -0.006327 -0.010102 0.014950 0.000000 0.000000 0.000000
# 4 0.000000 0.000000 0.000000 0.032313 0.000000 0.000000
# 5 0.000000 0.000000 0.000000 0.000000 0.078697 0.000000
# 6 0.000000 0.000000 0.000000 0.000000 0.000000 0.114153
#
#
# Mechanical properties :
#
#
# Convention : Reuss Voigt Hill
#
# Bulk Modulus (GPa) = 35.23699 45.34861 40.29280
# Shear Modulus (GPa) = 14.87765 18.84152 16.85959
#
# Velocity S-wave (km/s) = 2.64467 2.97620 2.81532
# Velocity P-wave (km/s) = 5.08835 5.75583 5.43235
#
# Compressibility (1/GPa) = 0.02837927
#
# Stress axis : x y z
#
# Youngs Moduli (GPa) = 43.76509 36.87784 66.89104
#
# Poissons Ratio (x) = 0.06781 0.42325
# Poissons Ratio (y) = 0.08047 0.67573
# Poissons Ratio (z) = 0.27692 0.37254
#
# Static dielectric constant tensor:
#      x y z
#    x 1.867980 0.000000 0.000000 
#    y 0.000000 1.789530 0.000000 
#    z 0.000000 0.000000 1.781150 
# 
# From -- ./inp_files/12004.got.cif
#   From: 2010.05.17/outbox.cif.g08.bks.cpg/sg41_7_cif.got.tgz:12004.got - 2010.06.03 18:54:24.
