data_PCOD9366114
_publ_section_title
;
Structure prediction by ZEFSAII (Michael W. Deem and Ramdas Pophale) SiO2 
 PCOD9366114
Probable space group: A B A 2
;
_chemical_formula_sum "Si O2"
_cell_formula_units_Z 48
_cell_length_a 16.857869
_cell_length_b 9.812655
_cell_length_c 9.712973
_cell_angle_alpha 90.000000
_cell_angle_beta 90.000000
_cell_angle_gamma 90.000000
_cell_volume 1606.724389
_symmetry_space_group_name_H-M "A B A 2"
_symmetry_group_IT_number 41
_symmetry_cell_setting 'orthorhombic'
loop_
_space_group_symop_operation_xyz
x,y,z
-x,-y,z
1/2-x,y,1/2+z
1/2+x,-y,1/2+z
x,1/2+y,1/2+z
-x,1/2-y,1/2+z
1/2-x,1/2+y,z
1/2+x,1/2-y,z
loop_
_atom_site_type_symbol
_atom_site_label
_atom_site_fract_x
_atom_site_fract_y
_atom_site_fract_z
Si Si1 0.540426 0.273857 0.513910
Si Si2 0.788396 0.802346 0.478822
Si Si3 0.246419 0.947314 0.816644
Si Si4 0.418814 0.951278 0.284167
Si Si5 0.116101 0.660041 0.533348
Si Si6 0.575728 0.066162 0.755604
O O1 0.624127 0.353863 0.517935
O O2 0.556601 0.180888 0.375895
O O3 0.444183 0.287949 0.515672
O O4 0.550440 0.186572 0.653840
O O5 0.787025 0.642006 0.444941
O O6 0.708292 0.819183 0.563176
O O7 0.764571 0.896668 0.350299
O O8 0.169005 0.932526 0.719457
O O9 0.334920 0.890170 0.796895
O O10 0.500000 0.000000 0.208765
O O11 0.400567 0.070696 0.396063
O O12 0.090143 0.561997 0.655631
O O13 0.500000 0.000000 0.841377
#
# Coordination Sequence:
#
# PCOD9366114 Si02
#       6
#     8   8   8   8   8   8
#     4   8  15  30  51  71  96 136 176 204 244 308
#     4  10  20  34  54  78 104 138 176 214 256 306
#     4  10  20  32  50  82 110 132 168 218 268 302
#     4   7  12  27  49  69  92 129 172 202 236 299
#     4   8  15  30  51  71  96 136 176 204 244 308
#     4   9  18  33  53  77 106 139 172 212 264 313
#
# _framework density 29.874447
#
# number of rings (size 3 to 8) (size 9 to 14) (size 15 to 20)
#    0.000    3.333    0.000    3.000    0.000    2.667 
#    0.000    0.000    0.000    2.000    0.000    4.667 
#    0.000    0.000    0.000    0.000    0.000    0.000 
#
# Total GULP energy -133786.863199 kJ/mol
# GULP energy per Si atom -5574.452633 kJ/mol
# Density = 2.980645 g / cm^3
# Si number density = 29.874447 Si / 1000 Ang^3
#
#
#
# Elastic Constant Matrix: (Units=GPa)
#
#
# Indices 1 2 3 4 5 6 
#
# 1 347.0277 9.5375 45.4551 0.0000 0.0000 0.0000
# 2 9.5375 60.3379 27.8554 0.0000 0.0000 0.0000
# 3 45.4551 27.8554 42.6115 0.0000 0.0000 0.0000
# 4 0.0000 0.0000 0.0000 29.1687 0.0000 0.0000
# 5 0.0000 0.0000 0.0000 0.0000 41.7340 0.0000
# 6 0.0000 0.0000 0.0000 0.0000 0.0000 64.1890
#
#
#
# Elastic Compliance Matrix: (Units=1/GPa)
#
#
# Indices 1 2 3 4 5 6 
#
# 1 0.003462 0.001658 -0.004776 0.000000 0.000000 0.000000
# 2 0.001658 0.024531 -0.017805 0.000000 0.000000 0.000000
# 3 -0.004776 -0.017805 0.040202 0.000000 0.000000 0.000000
# 4 0.000000 0.000000 0.000000 0.034283 0.000000 0.000000
# 5 0.000000 0.000000 0.000000 0.000000 0.023961 0.000000
# 6 0.000000 0.000000 0.000000 0.000000 0.000000 0.015579
#
#
# Mechanical properties :
#
#
# Convention : Reuss Voigt Hill
#
# Bulk Modulus (GPa) = 37.95303 68.40811 53.18057
# Shear Modulus (GPa) = 25.95417 51.49361 38.72389
#
# Velocity S-wave (km/s) = 2.95070 4.15621 3.60421
# Velocity P-wave (km/s) = 4.93362 6.78088 5.92963
#
# Compressibility (1/GPa) = 0.02634836
#
# Stress axis : x y z
#
# Youngs Moduli (GPa) = 288.87598 40.76499 24.87436
#
# Poissons Ratio (x) = -0.06759 0.11881
# Poissons Ratio (y) = -0.47893 0.44288
# Poissons Ratio (z) = 1.37981 0.72580
#
# Static dielectric constant tensor:
#      x y z
#    x 2.557410 0.000000 0.000000 
#    y 0.000000 2.372910 0.000000 
#    z 0.000000 0.000000 2.373030 
# 
# From -- ./inp_files/8007.got.cif
#   From: 2010.05.17/outbox.cif.g08.bks.cpg/sg41_5_cif.got.tgz:8007.got - 2010.06.03 18:54:24.
