data_PCOD9366462
_publ_section_title
;
Structure prediction by ZEFSAII (Michael W. Deem and Ramdas Pophale) SiO2 
 PCOD9366462
Probable space group: A B A 2
;
_chemical_formula_sum "Si O2"
_cell_formula_units_Z 40
_cell_length_a 7.472320
_cell_length_b 18.997540
_cell_length_c 12.281728
_cell_angle_alpha 90.000000
_cell_angle_beta 90.000000
_cell_angle_gamma 90.000000
_cell_volume 1743.461272
_symmetry_space_group_name_H-M "A B A 2"
_symmetry_group_IT_number 41
_symmetry_cell_setting 'orthorhombic'
loop_
_space_group_symop_operation_xyz
x,y,z
-x,-y,z
1/2-x,y,1/2+z
1/2+x,-y,1/2+z
x,1/2+y,1/2+z
-x,1/2-y,1/2+z
1/2-x,1/2+y,z
1/2+x,1/2-y,z
loop_
_atom_site_type_symbol
_atom_site_label
_atom_site_fract_x
_atom_site_fract_y
_atom_site_fract_z
Si Si1 0.256205 0.449434 0.638510
Si Si2 0.252107 0.338579 0.815209
Si Si3 0.537311 0.754905 0.210420
Si Si4 0.007371 0.643949 0.517731
Si Si5 0.862082 0.394210 0.102097
O O1 0.238711 0.413467 0.756987
O O2 0.085739 0.424403 0.571332
O O3 0.430601 0.413945 0.578535
O O4 0.288485 0.531954 0.647873
O O5 0.068504 0.295143 0.817743
O O6 0.335274 0.285117 0.725952
O O7 0.391370 0.341294 0.911552
O O8 0.526190 0.706721 0.103087
O O9 0.632614 0.830342 0.187900
O O10 0.219910 0.629659 0.510168
#
# Coordination Sequence:
#
# PCOD9366462 Si02
#       5
#     8   8   8   8   8
#     4   9  22  43  62  92 129 155 211 267 310 379
#     4  10  22  38  62  95 123 165 211 257 312 381
#     4  10  21  39  59  93 129 158 208 265 307 372
#     4  11  22  40  67  90 124 171 209 252 326 382
#     4  10  20  42  65  84 129 167 196 267 318 361
#
# _framework density 22.942865000000001
#
# number of rings (size 3 to 8) (size 9 to 14) (size 15 to 20)
#    0.000    2.000    2.000    0.600    2.800    0.000 
#   14.400    0.000    8.800    0.000    0.000    0.000 
#    0.000    0.000    0.000    0.000    0.000    0.000 
#
# Total GULP energy -111358.521888 kJ/mol
# GULP energy per Si atom -5567.926094 kJ/mol
# Density = 2.289065 g / cm^3
# Si number density = 22.942865 Si / 1000 Ang^3
#
#
#
# Elastic Constant Matrix: (Units=GPa)
#
#
# Indices 1 2 3 4 5 6 
#
# 1 77.0499 14.1049 7.9068 0.0000 0.0000 0.0000
# 2 14.1049 139.3025 11.7114 0.0000 0.0000 0.0000
# 3 7.9068 11.7114 41.1398 0.0000 0.0000 0.0000
# 4 0.0000 0.0000 0.0000 13.8318 0.0000 0.0000
# 5 0.0000 0.0000 0.0000 0.0000 16.6870 0.0000
# 6 0.0000 0.0000 0.0000 0.0000 0.0000 36.5666
#
#
#
# Elastic Compliance Matrix: (Units=1/GPa)
#
#
# Indices 1 2 3 4 5 6 
#
# 1 0.013423 -0.001170 -0.002247 0.000000 0.000000 0.000000
# 2 -0.001170 0.007457 -0.001898 0.000000 0.000000 0.000000
# 3 -0.002247 -0.001898 0.025279 0.000000 0.000000 0.000000
# 4 0.000000 0.000000 0.000000 0.072297 0.000000 0.000000
# 5 0.000000 0.000000 0.000000 0.000000 0.059927 0.000000
# 6 0.000000 0.000000 0.000000 0.000000 0.000000 0.027347
#
#
# Mechanical properties :
#
#
# Convention : Reuss Voigt Hill
#
# Bulk Modulus (GPa) = 28.14533 36.10426 32.12480
# Shear Modulus (GPa) = 21.91024 28.33502 25.12263
#
# Velocity S-wave (km/s) = 3.09365 3.51811 3.31268
# Velocity P-wave (km/s) = 5.00550 5.68098 5.35390
#
# Compressibility (1/GPa) = 0.03552987
#
# Stress axis : x y z
#
# Youngs Moduli (GPa) = 74.49680 134.10813 39.55787
#
# Poissons Ratio (x) = 0.15694 0.08888
# Poissons Ratio (y) = 0.08718 0.07507
# Poissons Ratio (z) = 0.16737 0.25451
#
# Static dielectric constant tensor:
#      x y z
#    x 2.254710 0.000000 0.000000 
#    y 0.000000 -12.498430 0.000000 
#    z 0.000000 0.000000 1.856050 
# 
# From -- ./inp_files/4365.got.cif
#   From: 2010.05.17/outbox.cif.g08.bks.cpg/sg41_3_cif.got.tgz:4365.got - 2010.06.03 18:54:24.
