data_PCOD9366857
_publ_section_title
;
Structure prediction by ZEFSAII (Michael W. Deem and Ramdas Pophale) SiO2 
 PCOD9366857
Probable space group: A B A 2
;
_chemical_formula_sum "Si O2"
_cell_formula_units_Z 56
_cell_length_a 14.956962
_cell_length_b 10.990055
_cell_length_c 15.391935
_cell_angle_alpha 90.000000
_cell_angle_beta 90.000000
_cell_angle_gamma 90.000000
_cell_volume 2530.092952
_symmetry_space_group_name_H-M "A B A 2"
_symmetry_group_IT_number 41
_symmetry_cell_setting 'orthorhombic'
loop_
_space_group_symop_operation_xyz
x,y,z
-x,-y,z
1/2-x,y,1/2+z
1/2+x,-y,1/2+z
x,1/2+y,1/2+z
-x,1/2-y,1/2+z
1/2-x,1/2+y,z
1/2+x,1/2-y,z
loop_
_atom_site_type_symbol
_atom_site_label
_atom_site_fract_x
_atom_site_fract_y
_atom_site_fract_z
Si Si1 0.044477 0.306682 0.517750
Si Si2 0.343606 0.184442 0.559785
Si Si3 0.593764 0.018576 0.673014
Si Si4 0.218533 0.385948 0.179658
Si Si5 0.175045 0.799499 0.860126
Si Si6 0.219802 0.536119 0.928535
Si Si7 0.903027 0.448785 0.078708
O O1 0.068139 0.417563 0.581204
O O2 0.090139 0.314786 0.423913
O O3 0.087612 0.193947 0.568377
O O4 0.938054 0.286470 0.514391
O O5 0.289406 0.300381 0.594438
O O6 0.287412 0.094777 0.499372
O O7 0.370381 0.112305 0.646386
O O8 0.679050 0.091713 0.707551
O O9 0.500000 0.000000 0.722922
O O10 0.164064 0.331100 0.259650
O O11 0.169001 0.508394 0.148951
O O12 0.204780 0.656985 0.868747
O O13 0.241620 0.909185 0.892477
O O14 0.130205 0.509307 0.983307
O O15 0.000000 0.500000 0.100634
#
# Coordination Sequence:
#
# PCOD9366857 Si02
#       7
#     8   8   8   8   8   8   8
#     4  10  21  42  65  99 128 181 234 279 337 434
#     4  11  21  40  71  89 129 186 233 271 337 429
#     4  10  22  40  68  95 127 181 236 274 336 432
#     4  12  24  42  68 101 137 175 229 301 357 410
#     4  11  26  41  66 103 142 171 225 298 363 406
#     4  11  23  44  67  94 134 190 230 276 347 429
#     4  11  21  40  68  96 128 178 238 277 333 426
#
# _framework density 22.133572999999998
#
# number of rings (size 3 to 8) (size 9 to 14) (size 15 to 20)
#    0.000    1.143    4.286    2.571    2.000    0.000 
#    2.571    3.571    0.000    0.000    0.000    0.000 
#    0.000    0.000    0.000    0.000    0.000    0.000 
#
# Total GULP energy -156233.498771 kJ/mol
# GULP energy per Si atom -5579.767813 kJ/mol
# Density = 2.208320 g / cm^3
# Si number density = 22.133573 Si / 1000 Ang^3
#
#
#
# Elastic Constant Matrix: (Units=GPa)
#
#
# Indices 1 2 3 4 5 6 
#
# 1 124.2060 21.7074 26.6437 0.0000 0.0000 0.0000
# 2 21.7074 81.2431 19.7634 0.0000 0.0000 0.0000
# 3 26.6437 19.7634 74.0589 0.0000 0.0000 0.0000
# 4 0.0000 0.0000 0.0000 24.4940 0.0000 0.0000
# 5 0.0000 0.0000 0.0000 0.0000 6.7438 0.0000
# 6 0.0000 0.0000 0.0000 0.0000 0.0000 31.1118
#
#
#
# Elastic Compliance Matrix: (Units=1/GPa)
#
#
# Indices 1 2 3 4 5 6 
#
# 1 0.008943 -0.001718 -0.002759 0.000000 0.000000 0.000000
# 2 -0.001718 0.013493 -0.002983 0.000000 0.000000 0.000000
# 3 -0.002759 -0.002983 0.015291 0.000000 0.000000 0.000000
# 4 0.000000 0.000000 0.000000 0.040826 0.000000 0.000000
# 5 0.000000 0.000000 0.000000 0.000000 0.148284 0.000000
# 6 0.000000 0.000000 0.000000 0.000000 0.000000 0.032142
#
#
# Mechanical properties :
#
#
# Convention : Reuss Voigt Hill
#
# Bulk Modulus (GPa) = 43.84409 46.19299 45.01854
# Shear Modulus (GPa) = 17.76176 26.56282 22.16229
#
# Velocity S-wave (km/s) = 2.83588 3.46802 3.16776
# Velocity P-wave (km/s) = 5.52945 6.07879 5.81062
#
# Compressibility (1/GPa) = 0.02280809
#
# Stress axis : x y z
#
# Youngs Moduli (GPa) = 111.81571 74.11003 65.39687
#
# Poissons Ratio (x) = 0.12735 0.18042
# Poissons Ratio (y) = 0.19215 0.19505
# Poissons Ratio (z) = 0.30849 0.22104
#
# Static dielectric constant tensor:
#      x y z
#    x 1.865640 0.000000 0.000000 
#    y 0.000000 1.868370 0.000000 
#    z 0.000000 0.000000 1.808990 
# 
# From -- ./inp_files/8406.got.cif
#   From: 2010.05.17/outbox.cif.g08.bks.cpg/sg41_5_cif.got.tgz:8406.got - 2010.06.03 18:54:24.
