data_PCOD9366111
_publ_section_title
;
Structure prediction by ZEFSAII (Michael W. Deem and Ramdas Pophale) SiO2 
 PCOD9366111
Probable space group: A B A 2
;
_chemical_formula_sum "Si O2"
_cell_formula_units_Z 40
_cell_length_a 14.240415
_cell_length_b 8.933945
_cell_length_c 12.364099
_cell_angle_alpha 90.000000
_cell_angle_beta 90.000000
_cell_angle_gamma 90.000000
_cell_volume 1572.998810
_symmetry_space_group_name_H-M "A B A 2"
_symmetry_group_IT_number 41
_symmetry_cell_setting 'orthorhombic'
loop_
_space_group_symop_operation_xyz
x,y,z
-x,-y,z
1/2-x,y,1/2+z
1/2+x,-y,1/2+z
x,1/2+y,1/2+z
-x,1/2-y,1/2+z
1/2-x,1/2+y,z
1/2+x,1/2-y,z
loop_
_atom_site_type_symbol
_atom_site_label
_atom_site_fract_x
_atom_site_fract_y
_atom_site_fract_z
Si Si1 0.135656 0.700802 0.875000
Si Si2 0.365874 0.748359 0.624468
Si Si3 0.930220 0.215427 0.440177
Si Si4 0.234089 0.912904 0.296494
Si Si5 0.500000 0.500000 0.044479
Si Si6 0.500000 0.000000 0.126882
O O1 0.164006 0.865604 0.836490
O O2 0.196189 0.580586 0.808244
O O3 0.024058 0.679194 0.870139
O O4 0.157683 0.692961 0.003417
O O5 0.280838 0.829975 0.682975
O O6 0.438089 0.885914 0.612499
O O7 0.421895 0.609684 0.679685
O O8 0.838121 0.172167 0.376986
O O9 0.936857 0.387427 0.474417
O O10 0.943735 0.113814 0.547337
#
# Coordination Sequence:
#
# PCOD9366111 Si02
#       6
#     8   8   8   8   4   4
#     4  10  25  44  61 101 135 174 227 281 346 401
#     4  10  22  42  68 101 133 182 232 277 352 406
#     4  10  19  43  69  86 137 180 212 287 344 391
#     4  12  24  42  70  92 137 181 224 284 338 416
#     4   8  20  36  68 100 122 170 228 270 340 410
#     4   8  16  42  64  92 128 174 222 280 334 400
#
# _framework density 25.429134999999999
#
# number of rings (size 3 to 8) (size 9 to 14) (size 15 to 20)
#    0.000    2.400    4.000    0.000    8.400    2.400 
#    0.000    0.000    0.000    0.000    0.000    0.000 
#    0.000    0.000    0.000    0.000    0.000    0.000 
#
# Total GULP energy -111794.851604 kJ/mol
# GULP energy per Si atom -5589.742580 kJ/mol
# Density = 2.537126 g / cm^3
# Si number density = 25.429135 Si / 1000 Ang^3
#
#
#
# Elastic Constant Matrix: (Units=GPa)
#
#
# Indices 1 2 3 4 5 6 
#
# 1 42.1784 27.5953 -3.7304 0.0000 0.0000 0.0000
# 2 27.5953 181.7260 22.2797 0.0000 0.0000 0.0000
# 3 -3.7304 22.2797 49.9664 0.0000 0.0000 0.0000
# 4 0.0000 0.0000 0.0000 42.1924 0.0000 0.0000
# 5 0.0000 0.0000 0.0000 0.0000 5.9922 0.0000
# 6 0.0000 0.0000 0.0000 0.0000 0.0000 30.0958
#
#
#
# Elastic Compliance Matrix: (Units=1/GPa)
#
#
# Indices 1 2 3 4 5 6 
#
# 1 0.027088 -0.004613 0.004079 0.000000 0.000000 0.000000
# 2 -0.004613 0.006607 -0.003290 0.000000 0.000000 0.000000
# 3 0.004079 -0.003290 0.021785 0.000000 0.000000 0.000000
# 4 0.000000 0.000000 0.000000 0.023701 0.000000 0.000000
# 5 0.000000 0.000000 0.000000 0.000000 0.166884 0.000000
# 6 0.000000 0.000000 0.000000 0.000000 0.000000 0.033227
#
#
# Mechanical properties :
#
#
# Convention : Reuss Voigt Hill
#
# Bulk Modulus (GPa) = 20.90687 40.68447 30.79567
# Shear Modulus (GPa) = 16.50794 30.83782 23.67288
#
# Velocity S-wave (km/s) = 2.55065 3.48616 3.05443
# Velocity P-wave (km/s) = 4.11265 5.67788 4.95743
#
# Compressibility (1/GPa) = 0.04783116
#
# Stress axis : x y z
#
# Youngs Moduli (GPa) = 36.91673 151.36030 45.90279
#
# Poissons Ratio (x) = 0.69830 -0.18726
# Poissons Ratio (y) = 0.17032 0.15104
# Poissons Ratio (z) = -0.15060 0.49803
#
# Static dielectric constant tensor:
#      x y z
#    x 2.026240 0.000000 0.000000 
#    y 0.000000 2.035870 0.000000 
#    z 0.000000 0.000000 2.071000 
# 
# From -- ./inp_files/8248.got.cif
#   From: 2010.05.17/outbox.cif.g08.bks.cpg/sg41_5_cif.got.tgz:8248.got - 2010.06.03 18:54:24.
