data_PCOD9366669
_publ_section_title
;
Structure prediction by ZEFSAII (Michael W. Deem and Ramdas Pophale) SiO2 
 PCOD9366669
Probable space group: A B A 2
;
_chemical_formula_sum "Si O2"
_cell_formula_units_Z 56
_cell_length_a 4.955231
_cell_length_b 22.108063
_cell_length_c 25.608080
_cell_angle_alpha 90.000000
_cell_angle_beta 90.000000
_cell_angle_gamma 90.000000
_cell_volume 2805.379482
_symmetry_space_group_name_H-M "A B A 2"
_symmetry_group_IT_number 41
_symmetry_cell_setting 'orthorhombic'
loop_
_space_group_symop_operation_xyz
x,y,z
-x,-y,z
1/2-x,y,1/2+z
1/2+x,-y,1/2+z
x,1/2+y,1/2+z
-x,1/2-y,1/2+z
1/2-x,1/2+y,z
1/2+x,1/2-y,z
loop_
_atom_site_type_symbol
_atom_site_label
_atom_site_fract_x
_atom_site_fract_y
_atom_site_fract_z
Si Si1 0.268463 0.882203 0.823090
Si Si2 0.782369 0.445723 0.353938
Si Si3 0.891873 0.210314 0.912288
Si Si4 0.837113 0.131697 0.013172
Si Si5 0.565132 0.207773 0.614198
Si Si6 0.330681 0.562953 0.474975
Si Si7 0.336139 0.792167 0.731672
O O1 0.477645 0.937034 0.832781
O O2 0.226469 0.841493 0.874786
O O3 0.371493 0.841561 0.776056
O O4 0.963130 0.904651 0.815486
O O5 0.736337 0.425696 0.414083
O O6 0.000000 0.500000 0.360690
O O7 0.694945 0.267244 0.902637
O O8 0.891167 0.184547 0.970871
O O9 0.536635 0.110262 0.000255
O O10 0.045209 0.076244 0.002875
O O11 0.873595 0.158906 0.070276
O O12 0.266876 0.235063 0.608490
O O13 0.614816 0.184298 0.672983
O O14 0.500000 0.500000 0.477161
O O15 0.540816 0.736334 0.737648
#
# Coordination Sequence:
#
# PCOD9366669 Si02
#       7
#     8   8   8   8   8   8   8
#     4  12  22  38  59  87 120 156 198 244 301 354
#     4  12  23  40  59  85 117 157 205 249 296 360
#     4  12  22  34  52  84 124 152 182 232 300 362
#     4  12  22  38  59  87 120 156 198 244 301 354
#     4  10  21  39  62  88 119 160 203 240 288 361
#     4  12  23  40  59  85 117 157 205 249 296 360
#     4  10  21  39  62  88 119 160 203 240 288 361
#
# _framework density 19.961646999999999
#
# number of rings (size 3 to 8) (size 9 to 14) (size 15 to 20)
#    0.000    0.571    2.857    7.714    0.000    0.000 
#    0.000    0.000    0.000    5.143    0.000    0.000 
#    0.000    0.000    0.000    0.000    0.000    0.000 
#
# Total GULP energy -156193.188848 kJ/mol
# GULP energy per Si atom -5578.328173 kJ/mol
# Density = 1.991621 g / cm^3
# Si number density = 19.961647 Si / 1000 Ang^3
#
#
#
# Elastic Constant Matrix: (Units=GPa)
#
#
# Indices 1 2 3 4 5 6 
#
# 1 108.0707 12.2130 18.0023 0.0000 0.0000 0.0000
# 2 12.2130 39.1457 28.7607 0.0000 0.0000 0.0000
# 3 18.0023 28.7607 103.8487 0.0000 0.0000 0.0000
# 4 0.0000 0.0000 0.0000 11.7609 0.0000 0.0000
# 5 0.0000 0.0000 0.0000 0.0000 19.5065 0.0000
# 6 0.0000 0.0000 0.0000 0.0000 0.0000 -7.4179
#
#
#
# Elastic Compliance Matrix: (Units=1/GPa)
#
#
# Indices 1 2 3 4 5 6 
#
# 1 0.009683 -0.002244 -0.001057 0.000000 0.000000 0.000000
# 2 -0.002244 0.032592 -0.008637 0.000000 0.000000 0.000000
# 3 -0.001057 -0.008637 0.012205 0.000000 0.000000 0.000000
# 4 0.000000 0.000000 0.000000 0.085027 0.000000 0.000000
# 5 0.000000 0.000000 0.000000 0.000000 0.051265 0.000000
# 6 0.000000 0.000000 0.000000 0.000000 0.000000 -0.134809
#
#
# Mechanical properties :
#
#
# Convention : Reuss Voigt Hill
#
# Bulk Modulus (GPa) = 32.67739 41.00188 36.83964
# Shear Modulus (GPa) = 55.53105 17.57585 36.55345
#
# Velocity S-wave (km/s) = 5.28008 2.97051 4.28388
# Velocity P-wave (km/s) = 7.31970 5.68772 6.55470
#
# Compressibility (1/GPa) = 0.03060220
#
# Stress axis : x y z
#
# Youngs Moduli (GPa) = 103.27472 30.68283 81.93600
#
# Poissons Ratio (x) = 0.06886 0.08660
# Poissons Ratio (y) = 0.23179 0.70769
# Poissons Ratio (z) = 0.10916 0.26501
#
# Static dielectric constant tensor:
#      x y z
#    x 1.702230 0.000000 0.000000 
#    y 0.000000 1.793610 0.000000 
#    z 0.000000 0.000000 1.656360 
# 
# From -- ./inp_files/11868.got.cif
#   From: 2010.05.17/outbox.cif.g08.bks.cpg/sg41_6_cif.got.tgz:11868.got - 2010.06.03 18:54:24.
