data_PCOD9366076
_publ_section_title
;
Structure prediction by ZEFSAII (Michael W. Deem and Ramdas Pophale) SiO2 
 PCOD9366076
Probable space group: A B A 2
;
_chemical_formula_sum "Si O2"
_cell_formula_units_Z 64
_cell_length_a 18.432004
_cell_length_b 15.906554
_cell_length_c 10.435257
_cell_angle_alpha 90.000000
_cell_angle_beta 90.000000
_cell_angle_gamma 90.000000
_cell_volume 3059.509524
_symmetry_space_group_name_H-M "A B A 2"
_symmetry_group_IT_number 41
_symmetry_cell_setting 'orthorhombic'
loop_
_space_group_symop_operation_xyz
x,y,z
-x,-y,z
1/2-x,y,1/2+z
1/2+x,-y,1/2+z
x,1/2+y,1/2+z
-x,1/2-y,1/2+z
1/2-x,1/2+y,z
1/2+x,1/2-y,z
loop_
_atom_site_type_symbol
_atom_site_label
_atom_site_fract_x
_atom_site_fract_y
_atom_site_fract_z
Si Si1 0.215202 0.743549 0.798210
Si Si2 0.075938 0.010754 0.033270
Si Si3 0.297175 0.319243 0.522499
Si Si4 0.445754 0.272810 0.760294
Si Si5 0.427482 0.964592 0.246634
Si Si6 0.709724 0.425576 0.761408
Si Si7 0.234694 0.991516 0.028221
Si Si8 0.439408 0.707844 0.990761
O O1 0.238214 0.806168 0.910354
O O2 0.227185 0.778511 0.655982
O O3 0.128546 0.726341 0.804939
O O4 0.268698 0.664889 0.812546
O O5 0.086322 0.110203 0.002023
O O6 0.063096 0.961649 0.900678
O O7 0.152455 0.971788 0.075729
O O8 0.000000 0.000000 0.108591
O O9 0.293549 0.418817 0.547344
O O10 0.371229 0.272122 0.481383
O O11 0.418604 0.366431 0.717526
O O12 0.505476 0.280308 0.872118
O O13 0.473823 0.229170 0.630182
O O14 0.500000 0.000000 0.183876
O O15 0.369533 0.038722 0.231926
O O16 0.747184 0.432986 0.623638
O O17 0.734014 0.485650 0.878698
#
# Coordination Sequence:
#
# PCOD9366076 Si02
#       8
#     8   8   8   8   8   8   8   8
#     4  11  23  40  64  96 133 164 213 268 323 383
#     4  10  19  39  69  91 114 171 232 245 293 396
#     4  11  23  40  64  96 133 164 213 268 323 383
#     4  11  23  42  65  97 132 169 215 275 319 381
#     4  10  19  39  69  91 114 171 232 245 293 396
#     4  11  22  40  64  91 126 167 209 260 316 378
#     4  11  22  40  64  91 126 167 209 260 316 378
#     4  11  23  42  65  97 132 169 215 275 319 381
#
# _framework density 20.918385000000001
#
# number of rings (size 3 to 8) (size 9 to 14) (size 15 to 20)
#    0.000    1.250    2.500    7.500    0.000    1.000 
#    4.500    0.000    0.000    0.000    0.000    0.000 
#    0.000    0.000    0.000    0.000    0.000    0.000 
#
# Total GULP energy -178181.685446 kJ/mol
# GULP energy per Si atom -5568.177670 kJ/mol
# Density = 2.087077 g / cm^3
# Si number density = 20.918385 Si / 1000 Ang^3
#
#
#
# Elastic Constant Matrix: (Units=GPa)
#
#
# Indices 1 2 3 4 5 6 
#
# 1 62.5289 14.8849 39.5312 0.0000 0.0000 0.0000
# 2 14.8849 98.7845 6.5312 0.0000 0.0000 0.0000
# 3 39.5312 6.5312 86.6203 0.0000 0.0000 0.0000
# 4 0.0000 0.0000 0.0000 16.8165 0.0000 0.0000
# 5 0.0000 0.0000 0.0000 0.0000 25.8875 0.0000
# 6 0.0000 0.0000 0.0000 0.0000 0.0000 30.9925
#
#
#
# Elastic Compliance Matrix: (Units=1/GPa)
#
#
# Indices 1 2 3 4 5 6 
#
# 1 0.023231 -0.002813 -0.010390 0.000000 0.000000 0.000000
# 2 -0.002813 0.010515 0.000491 0.000000 0.000000 0.000000
# 3 -0.010390 0.000491 0.016249 0.000000 0.000000 0.000000
# 4 0.000000 0.000000 0.000000 0.059465 0.000000 0.000000
# 5 0.000000 0.000000 0.000000 0.000000 0.038629 0.000000
# 6 0.000000 0.000000 0.000000 0.000000 0.000000 0.032266
#
#
# Mechanical properties :
#
#
# Convention : Reuss Voigt Hill
#
# Bulk Modulus (GPa) = 40.69937 41.09203 40.89570
# Shear Modulus (GPa) = 23.36788 27.20507 25.28648
#
# Velocity S-wave (km/s) = 3.34593 3.61020 3.48057
# Velocity P-wave (km/s) = 5.86732 6.08808 5.97872
#
# Compressibility (1/GPa) = 0.02457040
#
# Stress axis : x y z
#
# Youngs Moduli (GPa) = 43.04620 95.10670 61.54138
#
# Poissons Ratio (x) = 0.26758 0.63940
# Poissons Ratio (y) = 0.12111 -0.03023
# Poissons Ratio (z) = 0.44724 -0.04672
#
# Static dielectric constant tensor:
#      x y z
#    x 1.909600 0.000000 0.000000 
#    y 0.000000 1.770810 0.000000 
#    z 0.000000 0.000000 1.732390 
# 
# From -- ./inp_files/6024.got.cif
#   From: 2010.05.17/outbox.cif.g08.bks.cpg/sg41_4_cif.got.tgz:6024.got - 2010.06.03 18:54:24.
