data_PCOD9366789
_publ_section_title
;
Structure prediction by ZEFSAII (Michael W. Deem and Ramdas Pophale) SiO2 
 PCOD9366789
Probable space group: A B A 2
;
_chemical_formula_sum "Si O2"
_cell_formula_units_Z 48
_cell_length_a 12.433447
_cell_length_b 12.801095
_cell_length_c 13.192473
_cell_angle_alpha 90.000000
_cell_angle_beta 90.000000
_cell_angle_gamma 90.000000
_cell_volume 2099.736908
_symmetry_space_group_name_H-M "A B A 2"
_symmetry_group_IT_number 41
_symmetry_cell_setting 'orthorhombic'
loop_
_space_group_symop_operation_xyz
x,y,z
-x,-y,z
1/2-x,y,1/2+z
1/2+x,-y,1/2+z
x,1/2+y,1/2+z
-x,1/2-y,1/2+z
1/2-x,1/2+y,z
1/2+x,1/2-y,z
loop_
_atom_site_type_symbol
_atom_site_label
_atom_site_fract_x
_atom_site_fract_y
_atom_site_fract_z
Si Si1 0.570529 0.250432 0.764050
Si Si2 0.914788 0.642516 0.123732
Si Si3 0.199664 0.570110 0.154290
Si Si4 0.137674 0.971992 0.298641
Si Si5 0.886562 0.863698 0.464431
Si Si6 0.783019 0.200224 0.438422
O O1 0.458015 0.290834 0.718386
O O2 0.653896 0.324546 0.704079
O O3 0.578783 0.126236 0.745823
O O4 0.617068 0.258860 0.879370
O O5 0.881895 0.528188 0.162738
O O6 0.010828 0.639918 0.039059
O O7 0.816024 0.683705 0.055371
O O8 0.304426 0.535194 0.211432
O O9 0.207272 0.588489 0.035067
O O10 0.216634 0.907521 0.374891
O O11 0.088961 0.059718 0.372649
O O12 0.831048 0.757331 0.429460
#
# Coordination Sequence:
#
# PCOD9366789 Si02
#       6
#     8   8   8   8   8   8
#     4   9  21  38  61  96 123 164 218 258 325 385
#     4  11  24  40  66  93 130 172 219 266 330 397
#     4  11  21  38  66  94 126 168 213 269 323 387
#     4  10  21  41  63  93 127 167 213 264 325 387
#     4  11  22  42  64  92 129 169 219 265 327 397
#     4  10  23  41  63  96 124 173 214 266 326 385
#
# _framework density 22.860007
#
# number of rings (size 3 to 8) (size 9 to 14) (size 15 to 20)
#    1.000    0.667    3.333    2.000    4.667    1.333 
#    3.000    0.000    0.000    0.000    0.000    0.000 
#    0.000    0.000    0.000    0.000    0.000    0.000 
#
# Total GULP energy -133701.183516 kJ/mol
# GULP energy per Si atom -5570.882646 kJ/mol
# Density = 2.280798 g / cm^3
# Si number density = 22.860007 Si / 1000 Ang^3
#
#
#
# Elastic Constant Matrix: (Units=GPa)
#
#
# Indices 1 2 3 4 5 6 
#
# 1 47.9632 26.5730 26.2460 0.0000 0.0000 0.0000
# 2 26.5730 81.1722 33.7212 0.0000 0.0000 0.0000
# 3 26.2460 33.7212 89.6598 0.0000 0.0000 0.0000
# 4 0.0000 0.0000 0.0000 40.8101 0.0000 0.0000
# 5 0.0000 0.0000 0.0000 0.0000 41.6128 0.0000
# 6 0.0000 0.0000 0.0000 0.0000 0.0000 22.3723
#
#
#
# Elastic Compliance Matrix: (Units=1/GPa)
#
#
# Indices 1 2 3 4 5 6 
#
# 1 0.027619 -0.006735 -0.005552 0.000000 0.000000 0.000000
# 2 -0.006735 0.016243 -0.004138 0.000000 0.000000 0.000000
# 3 -0.005552 -0.004138 0.014335 0.000000 0.000000 0.000000
# 4 0.000000 0.000000 0.000000 0.024504 0.000000 0.000000
# 5 0.000000 0.000000 0.000000 0.000000 0.024031 0.000000
# 6 0.000000 0.000000 0.000000 0.000000 0.000000 0.044698
#
#
# Mechanical properties :
#
#
# Convention : Reuss Voigt Hill
#
# Bulk Modulus (GPa) = 39.45121 43.54174 41.49648
# Shear Modulus (GPa) = 25.94339 29.77604 27.85971
#
# Velocity S-wave (km/s) = 3.37245 3.61298 3.49479
# Velocity P-wave (km/s) = 5.69735 6.04097 5.87168
#
# Compressibility (1/GPa) = 0.02534776
#
# Stress axis : x y z
#
# Youngs Moduli (GPa) = 36.20732 61.56435 69.76154
#
# Poissons Ratio (x) = 0.41464 0.38730
# Poissons Ratio (y) = 0.24386 0.28864
# Poissons Ratio (z) = 0.20101 0.25472
#
# Static dielectric constant tensor:
#      x y z
#    x 1.997560 0.000000 0.000000 
#    y 0.000000 1.888460 0.000000 
#    z 0.000000 0.000000 1.850510 
# 
# From -- ./inp_files/8442.got.cif
#   From: 2010.05.17/outbox.cif.g08.bks.cpg/sg41_5_cif.got.tgz:8442.got - 2010.06.03 18:54:24.
