data_PCOD9366458
_publ_section_title
;
Structure prediction by ZEFSAII (Michael W. Deem and Ramdas Pophale) SiO2 
 PCOD9366458
Probable space group: A B A 2
;
_chemical_formula_sum "Si O2"
_cell_formula_units_Z 56
_cell_length_a 18.215151
_cell_length_b 14.387792
_cell_length_c 9.247217
_cell_angle_alpha 90.000000
_cell_angle_beta 90.000000
_cell_angle_gamma 90.000000
_cell_volume 2423.471829
_symmetry_space_group_name_H-M "A B A 2"
_symmetry_group_IT_number 41
_symmetry_cell_setting 'orthorhombic'
loop_
_space_group_symop_operation_xyz
x,y,z
-x,-y,z
1/2-x,y,1/2+z
1/2+x,-y,1/2+z
x,1/2+y,1/2+z
-x,1/2-y,1/2+z
1/2-x,1/2+y,z
1/2+x,1/2-y,z
loop_
_atom_site_type_symbol
_atom_site_label
_atom_site_fract_x
_atom_site_fract_y
_atom_site_fract_z
Si Si1 0.080135 0.996556 0.889710
Si Si2 0.236677 0.536464 0.679682
Si Si3 0.710137 0.602555 0.924131
Si Si4 0.502178 0.888717 0.920492
Si Si5 0.127696 0.646597 0.157950
Si Si6 0.904301 0.869174 0.149903
Si Si7 0.853993 0.217878 0.413628
O O1 0.122224 0.897247 0.890530
O O2 0.117991 0.070597 0.785059
O O3 0.000000 0.000000 0.825369
O O4 0.073571 0.044878 0.046329
O O5 0.260847 0.469087 0.806170
O O6 0.212189 0.459210 0.566031
O O7 0.294446 0.606354 0.602043
O O8 0.168801 0.598123 0.731810
O O9 0.769649 0.684154 0.932391
O O10 0.534072 0.849511 0.768358
O O11 0.417239 0.859101 0.935038
O O12 0.500000 0.000000 0.916740
O O13 0.560017 0.855823 0.045697
O O14 0.137702 0.740367 0.251202
O O15 0.878135 0.790607 0.037911
#
# Coordination Sequence:
#
# PCOD9366458 Si02
#       7
#     8   8   8   8   8   8   8
#     4   9  19  39  65  91 123 163 210 261 319 384
#     4  10  20  42  64  86 118 160 212 256 310 378
#     4  10  22  39  64  93 123 163 208 257 317 392
#     4  12  23  40  67  92 123 170 217 260 318 388
#     4  10  22  39  62  90 124 163 205 265 319 366
#     4  10  22  39  62  90 124 163 205 265 319 366
#     4  11  24  42  59  92 130 162 208 262 321 390
#
# _framework density 23.107346
#
# number of rings (size 3 to 8) (size 9 to 14) (size 15 to 20)
#    0.000    1.714    0.000    5.143    0.000    3.429 
#    0.000    7.143    0.000    0.000    0.000    0.000 
#    0.000    0.000    0.000    0.000    0.000    0.000 
#
# Total GULP energy -155968.750132 kJ/mol
# GULP energy per Si atom -5570.312505 kJ/mol
# Density = 2.305475 g / cm^3
# Si number density = 23.107346 Si / 1000 Ang^3
#
#
#
# Elastic Constant Matrix: (Units=GPa)
#
#
# Indices 1 2 3 4 5 6 
#
# 1 85.1408 33.3551 -15.5834 0.0000 0.0000 0.0000
# 2 33.3551 76.8349 -1.2679 0.0000 0.0000 0.0000
# 3 -15.5834 -1.2679 66.5480 0.0000 0.0000 0.0000
# 4 0.0000 0.0000 0.0000 9.2200 0.0000 0.0000
# 5 0.0000 0.0000 0.0000 0.0000 60.9186 0.0000
# 6 0.0000 0.0000 0.0000 0.0000 0.0000 -10.7891
#
#
#
# Elastic Compliance Matrix: (Units=1/GPa)
#
#
# Indices 1 2 3 4 5 6 
#
# 1 0.014867 -0.006398 0.003359 0.000000 0.000000 0.000000
# 2 -0.006398 0.015773 -0.001198 0.000000 0.000000 0.000000
# 3 0.003359 -0.001198 0.015791 0.000000 0.000000 0.000000
# 4 0.000000 0.000000 0.000000 0.108460 0.000000 0.000000
# 5 0.000000 0.000000 0.000000 0.000000 0.016415 0.000000
# 6 0.000000 0.000000 0.000000 0.000000 0.000000 -0.092687
#
#
# Mechanical properties :
#
#
# Convention : Reuss Voigt Hill
#
# Bulk Modulus (GPa) = 26.34588 29.05901 27.70245
# Shear Modulus (GPa) = 50.12814 26.00458 38.06636
#
# Velocity S-wave (km/s) = 4.66269 3.35831 4.06318
# Velocity P-wave (km/s) = 6.35719 5.25743 5.83329
#
# Compressibility (1/GPa) = 0.03795659
#
# Stress axis : x y z
#
# Youngs Moduli (GPa) = 67.26395 63.40030 63.32878
#
# Poissons Ratio (x) = 0.40566 -0.21275
# Poissons Ratio (y) = 0.43038 0.07586
# Poissons Ratio (z) = -0.22597 0.07594
#
# Static dielectric constant tensor:
#      x y z
#    x 1.946720 0.000000 0.000000 
#    y 0.000000 1.877470 0.000000 
#    z 0.000000 0.000000 1.793660 
# 
# From -- ./inp_files/3415.got.cif
#   From: 2010.05.17/outbox.cif.g08.bks.cpg/sg41_2_cif.got.tgz:3415.got - 2010.06.03 18:54:24.
