data_PCOD9366328
_publ_section_title
;
Structure prediction by ZEFSAII (Michael W. Deem and Ramdas Pophale) SiO2 
 PCOD9366328
Probable space group: A B A 2
;
_chemical_formula_sum "Si O2"
_cell_formula_units_Z 60
_cell_length_a 9.380275
_cell_length_b 11.572685
_cell_length_c 24.875279
_cell_angle_alpha 90.000000
_cell_angle_beta 90.000000
_cell_angle_gamma 90.000000
_cell_volume 2700.335111
_symmetry_space_group_name_H-M "A B A 2"
_symmetry_group_IT_number 41
_symmetry_cell_setting 'orthorhombic'
loop_
_space_group_symop_operation_xyz
x,y,z
-x,-y,z
1/2-x,y,1/2+z
1/2+x,-y,1/2+z
x,1/2+y,1/2+z
-x,1/2-y,1/2+z
1/2-x,1/2+y,z
1/2+x,1/2-y,z
loop_
_atom_site_type_symbol
_atom_site_label
_atom_site_fract_x
_atom_site_fract_y
_atom_site_fract_z
Si Si1 0.864823 0.453300 0.387770
Si Si2 0.132416 0.445792 0.831442
Si Si3 0.500000 0.500000 0.159630
Si Si4 0.736559 0.889210 0.992109
Si Si5 0.209359 0.906200 0.074697
Si Si6 0.444423 0.198732 0.284423
Si Si7 0.662758 0.350949 0.242361
Si Si8 0.529010 0.719991 0.543771
O O1 0.772169 0.559152 0.366581
O O2 0.763285 0.388050 0.428551
O O3 0.922383 0.384011 0.335869
O O4 0.000000 0.500000 0.419637
O O5 0.099502 0.324095 0.806412
O O6 0.152816 0.545297 0.786327
O O7 0.000000 0.500000 0.863937
O O8 0.360922 0.475252 0.123617
O O9 0.556767 0.394488 0.196182
O O10 0.573948 0.858649 0.007151
O O11 0.850958 0.795317 0.013562
O O12 0.775983 0.009061 0.022897
O O13 0.088639 0.807434 0.067495
O O14 0.368050 0.854361 0.082918
O O15 0.601244 0.227588 0.262872
O O16 0.332961 0.163049 0.237836
#
# Coordination Sequence:
#
# PCOD9366328 Si02
#       8
#     8   8   4   8   8   8   8   8
#     4  11  23  35  62  94 133 173 218 265 334 387
#     4   9  19  38  58  86 127 167 214 265 317 389
#     4  12  22  42  72  90 130 178 210 286 354 384
#     4  11  23  43  62  96 135 176 219 281 324 401
#     4  11  23  43  67  95 133 167 220 284 333 404
#     4  10  20  39  62  89 128 171 212 273 317 399
#     4  10  21  39  63  90 127 167 218 269 330 386
#     4  10  23  42  68  89 130 174 219 270 341 394
#
# _framework density 22.219463999999999
#
# number of rings (size 3 to 8) (size 9 to 14) (size 15 to 20)
#    0.000    1.600    3.333    2.000    0.000    8.533 
#    0.000    0.000    2.933    0.000    0.000    0.000 
#    0.000    0.000    0.000    0.000    0.000    0.000 
#
# Total GULP energy -167117.349945 kJ/mol
# GULP energy per Si atom -5570.578331 kJ/mol
# Density = 2.216889 g / cm^3
# Si number density = 22.219464 Si / 1000 Ang^3
#
#
#
# Elastic Constant Matrix: (Units=GPa)
#
#
# Indices 1 2 3 4 5 6 
#
# 1 151.0871 26.7637 22.0956 0.0000 0.0000 0.0000
# 2 26.7637 51.7554 3.2008 0.0000 0.0000 0.0000
# 3 22.0956 3.2008 43.1287 0.0000 0.0000 0.0000
# 4 0.0000 0.0000 0.0000 14.8511 0.0000 0.0000
# 5 0.0000 0.0000 0.0000 0.0000 10.7693 0.0000
# 6 0.0000 0.0000 0.0000 0.0000 0.0000 44.6006
#
#
#
# Elastic Compliance Matrix: (Units=1/GPa)
#
#
# Indices 1 2 3 4 5 6 
#
# 1 0.007842 -0.003824 -0.003734 0.000000 0.000000 0.000000
# 2 -0.003824 0.021276 0.000380 0.000000 0.000000 0.000000
# 3 -0.003734 0.000380 0.025071 0.000000 0.000000 0.000000
# 4 0.000000 0.000000 0.000000 0.067335 0.000000 0.000000
# 5 0.000000 0.000000 0.000000 0.000000 0.092857 0.000000
# 6 0.000000 0.000000 0.000000 0.000000 0.000000 0.022421
#
#
# Mechanical properties :
#
#
# Convention : Reuss Voigt Hill
#
# Bulk Modulus (GPa) = 25.10467 38.89903 32.00185
# Shear Modulus (GPa) = 18.90817 26.97160 22.93988
#
# Velocity S-wave (km/s) = 2.92031 3.48785 3.21662
# Velocity P-wave (km/s) = 4.76382 5.81075 5.31314
#
# Compressibility (1/GPa) = 0.03983322
#
# Stress axis : x y z
#
# Youngs Moduli (GPa) = 127.51493 47.00174 39.88649
#
# Poissons Ratio (x) = 0.17975 0.14893
# Poissons Ratio (y) = 0.48767 -0.01517
# Poissons Ratio (z) = 0.47613 -0.01788
#
# Static dielectric constant tensor:
#      x y z
#    x 1.916780 0.000000 0.000000 
#    y 0.000000 1.851100 0.000000 
#    z 0.000000 0.000000 1.847170 
# 
# From -- ./inp_files/12458.got.cif
#   From: 2010.05.17/outbox.cif.g08.bks.cpg/sg41_7_cif.got.tgz:12458.got - 2010.06.03 18:54:24.
