data_PCOD9366390
_publ_section_title
;
Structure prediction by ZEFSAII (Michael W. Deem and Ramdas Pophale) SiO2 
 PCOD9366390
Probable space group: A B A 2
;
_chemical_formula_sum "Si O2"
_cell_formula_units_Z 64
_cell_length_a 10.308741
_cell_length_b 18.461585
_cell_length_c 17.366933
_cell_angle_alpha 90.000000
_cell_angle_beta 90.000000
_cell_angle_gamma 90.000000
_cell_volume 3305.199980
_symmetry_space_group_name_H-M "A B A 2"
_symmetry_group_IT_number 41
_symmetry_cell_setting 'orthorhombic'
loop_
_space_group_symop_operation_xyz
x,y,z
-x,-y,z
1/2-x,y,1/2+z
1/2+x,-y,1/2+z
x,1/2+y,1/2+z
-x,1/2-y,1/2+z
1/2-x,1/2+y,z
1/2+x,1/2-y,z
loop_
_atom_site_type_symbol
_atom_site_label
_atom_site_fract_x
_atom_site_fract_y
_atom_site_fract_z
Si Si1 0.522588 0.921616 0.500000
Si Si2 0.285295 0.672381 0.919317
Si Si3 0.508065 0.223815 0.670726
Si Si4 0.944280 0.921238 0.489320
Si Si5 0.873823 0.707927 0.033541
Si Si6 0.685487 0.110051 0.620793
Si Si7 0.738476 0.317317 0.738672
Si Si8 0.247621 0.551736 0.125906
O O1 0.579085 0.866179 0.439540
O O2 0.388632 0.902416 0.540262
O O3 0.630065 0.929327 0.569217
O O4 0.500000 0.000000 0.463862
O O5 0.172044 0.615262 0.940876
O O6 0.275682 0.687739 0.829821
O O7 0.289423 0.742423 0.975901
O O8 0.473625 0.241513 0.581413
O O9 0.580117 0.146386 0.676054
O O10 0.612271 0.280932 0.700649
O O11 0.373562 0.220606 0.715611
O O12 0.879097 0.933859 0.573483
O O13 0.053050 0.858815 0.493082
O O14 0.000000 0.000000 0.464586
O O15 0.791022 0.669750 0.100372
O O16 0.740211 0.032885 0.645769
O O17 0.748224 0.396639 0.699592
#
# Coordination Sequence:
#
# PCOD9366390 Si02
#       8
#     8   8   8   8   8   8   8   8
#     4   9  19  38  65  89 118 161 220 271 323 395
#     4  11  26  42  62  95 136 181 215 278 350 410
#     4  12  23  41  65  99 126 174 225 278 328 402
#     4  11  22  43  66  95 130 168 233 286 334 401
#     4  12  22  39  70  97 128 173 232 285 329 400
#     4  11  20  36  69  96 118 164 228 277 326 379
#     4  12  26  42  64  96 144 174 217 276 350 409
#     4  10  20  40  63  95 123 164 218 280 324 394
#
# _framework density 19.363427000000001
#
# number of rings (size 3 to 8) (size 9 to 14) (size 15 to 20)
#    0.000    1.000    6.250    1.500    1.750    0.000 
#    2.250    1.875    0.000    0.000    0.000    0.000 
#    0.000    0.000    0.000    0.000    0.000    0.000 
#
# Total GULP energy -178525.906811 kJ/mol
# GULP energy per Si atom -5578.934588 kJ/mol
# Density = 1.931935 g / cm^3
# Si number density = 19.363427 Si / 1000 Ang^3
#
#
#
# Elastic Constant Matrix: (Units=GPa)
#
#
# Indices 1 2 3 4 5 6 
#
# 1 72.9722 43.6433 25.9225 0.0000 0.0000 0.0000
# 2 43.6433 134.0525 45.7558 0.0000 0.0000 0.0000
# 3 25.9225 45.7558 89.4922 0.0000 0.0000 0.0000
# 4 0.0000 0.0000 0.0000 15.0304 0.0000 0.0000
# 5 0.0000 0.0000 0.0000 0.0000 15.7713 0.0000
# 6 0.0000 0.0000 0.0000 0.0000 0.0000 44.2346
#
#
#
# Elastic Compliance Matrix: (Units=1/GPa)
#
#
# Indices 1 2 3 4 5 6 
#
# 1 0.017508 -0.004808 -0.002613 0.000000 0.000000 0.000000
# 2 -0.004808 0.010357 -0.003903 0.000000 0.000000 0.000000
# 3 -0.002613 -0.003903 0.013926 0.000000 0.000000 0.000000
# 4 0.000000 0.000000 0.000000 0.066532 0.000000 0.000000
# 5 0.000000 0.000000 0.000000 0.000000 0.063406 0.000000
# 6 0.000000 0.000000 0.000000 0.000000 0.000000 0.022607
#
#
# Mechanical properties :
#
#
# Convention : Reuss Voigt Hill
#
# Bulk Modulus (GPa) = 52.23653 58.57335 55.40494
# Shear Modulus (GPa) = 22.38487 27.08696 24.73591
#
# Velocity S-wave (km/s) = 3.40375 3.74421 3.57803
# Velocity P-wave (km/s) = 6.51788 7.00052 6.76351
#
# Compressibility (1/GPa) = 0.01914369
#
# Stress axis : x y z
#
# Youngs Moduli (GPa) = 57.11772 96.55080 71.80572
#
# Poissons Ratio (x) = 0.46422 0.18763
# Poissons Ratio (y) = 0.27463 0.28024
# Poissons Ratio (z) = 0.14925 0.37682
#
# Static dielectric constant tensor:
#      x y z
#    x 1.721650 0.000000 0.000000 
#    y 0.000000 1.722050 0.000000 
#    z 0.000000 0.000000 1.633680 
# 
# From -- ./inp_files/10184.got.cif
#   From: 2010.05.17/outbox.cif.g08.bks.cpg/sg41_6_cif.got.tgz:10184.got - 2010.06.03 18:54:24.
