data_PCOD9366787
_publ_section_title
;
Structure prediction by ZEFSAII (Michael W. Deem and Ramdas Pophale) SiO2 
 PCOD9366787
Probable space group: A B A 2
;
_chemical_formula_sum "Si O2"
_cell_formula_units_Z 60
_cell_length_a 10.198783
_cell_length_b 18.610384
_cell_length_c 16.313837
_cell_angle_alpha 90.000000
_cell_angle_beta 90.000000
_cell_angle_gamma 90.000000
_cell_volume 3096.419576
_symmetry_space_group_name_H-M "A B A 2"
_symmetry_group_IT_number 41
_symmetry_cell_setting 'orthorhombic'
loop_
_space_group_symop_operation_xyz
x,y,z
-x,-y,z
1/2-x,y,1/2+z
1/2+x,-y,1/2+z
x,1/2+y,1/2+z
-x,1/2-y,1/2+z
1/2-x,1/2+y,z
1/2+x,1/2-y,z
loop_
_atom_site_type_symbol
_atom_site_label
_atom_site_fract_x
_atom_site_fract_y
_atom_site_fract_z
Si Si1 0.153447 0.451668 0.503090
Si Si2 0.015030 0.874838 0.733125
Si Si3 0.072329 0.743549 0.447499
Si Si4 0.240617 0.705913 0.181273
Si Si5 0.500000 0.500000 0.846703
Si Si6 0.335775 0.841337 0.082943
Si Si7 0.875421 0.894399 0.048816
Si Si8 0.820544 0.227736 0.840782
O O1 0.258106 0.390804 0.519821
O O2 0.197933 0.530597 0.532361
O O3 0.104114 0.465966 0.410475
O O4 0.025985 0.422062 0.552996
O O5 0.090805 0.890882 0.648981
O O6 0.124479 0.841438 0.793152
O O7 0.905570 0.817471 0.705851
O O8 0.950374 0.938474 0.785112
O O9 0.119315 0.663774 0.474872
O O10 0.179232 0.773530 0.383487
O O11 0.929749 0.742506 0.408560
O O12 0.248988 0.782237 0.132886
O O13 0.311959 0.647344 0.124460
O O14 0.314885 0.714707 0.267476
O O15 0.430521 0.791698 0.028841
#
# Coordination Sequence:
#
# PCOD9366787 Si02
#       8
#     8   8   8   8   4   8   8   8
#     4  10  21  41  63  92 115 173 209 259 311 387
#     4  11  23  40  58  99 119 173 202 265 317 384
#     4  11  21  38  62  92 121 166 204 269 307 376
#     4  10  23  37  61  89 128 162 206 262 318 370
#     4  10  22  40  66  82 136 160 216 250 332 388
#     4  10  24  36  63  90 126 156 217 258 313 376
#     4   9  21  37  63  84 123 159 210 249 319 376
#     4  11  22  37  63  90 125 160 215 253 319 367
#
# _framework density 19.377219
#
# number of rings (size 3 to 8) (size 9 to 14) (size 15 to 20)
#    0.000    1.867    1.333    3.200   11.200    0.000 
#    0.000    0.000    0.000    0.000    0.000    0.000 
#    0.000    0.000    0.000    0.000    0.000    0.000 
#
# Total GULP energy -167171.172765 kJ/mol
# GULP energy per Si atom -5572.372426 kJ/mol
# Density = 1.933312 g / cm^3
# Si number density = 19.377219 Si / 1000 Ang^3
#
#
#
# Elastic Constant Matrix: (Units=GPa)
#
#
# Indices 1 2 3 4 5 6 
#
# 1 25.3627 4.1013 11.0043 0.0000 0.0000 0.0000
# 2 4.1013 81.5929 43.1809 0.0000 0.0000 0.0000
# 3 11.0043 43.1809 94.6713 0.0000 0.0000 0.0000
# 4 0.0000 0.0000 0.0000 34.2536 0.0000 0.0000
# 5 0.0000 0.0000 0.0000 0.0000 15.3983 0.0000
# 6 0.0000 0.0000 0.0000 0.0000 0.0000 23.7322
#
#
#
# Elastic Compliance Matrix: (Units=1/GPa)
#
#
# Indices 1 2 3 4 5 6 
#
# 1 0.041545 0.000616 -0.005110 0.000000 0.000000 0.000000
# 2 0.000616 0.016165 -0.007445 0.000000 0.000000 0.000000
# 3 -0.005110 -0.007445 0.014552 0.000000 0.000000 0.000000
# 4 0.000000 0.000000 0.000000 0.029194 0.000000 0.000000
# 5 0.000000 0.000000 0.000000 0.000000 0.064942 0.000000
# 6 0.000000 0.000000 0.000000 0.000000 0.000000 0.042137
#
#
# Mechanical properties :
#
#
# Convention : Reuss Voigt Hill
#
# Bulk Modulus (GPa) = 20.66736 35.35554 28.01145
# Shear Modulus (GPa) = 20.11735 24.23284 22.17509
#
# Velocity S-wave (km/s) = 3.22560 3.54020 3.38655
# Velocity P-wave (km/s) = 4.95597 5.91576 5.45701
#
# Compressibility (1/GPa) = 0.04838548
#
# Stress axis : x y z
#
# Youngs Moduli (GPa) = 24.07001 61.86250 68.71697
#
# Poissons Ratio (x) = -0.03811 0.35115
# Poissons Ratio (y) = -0.01483 0.51157
# Poissons Ratio (z) = 0.12300 0.46054
#
# Static dielectric constant tensor:
#      x y z
#    x 1.680280 0.000000 0.000000 
#    y 0.000000 1.752410 0.000000 
#    z 0.000000 0.000000 1.693180 
# 
# From -- ./inp_files/8067.got.cif
#   From: 2010.05.17/outbox.cif.g08.bks.cpg/sg41_5_cif.got.tgz:8067.got - 2010.06.03 18:54:24.
