data_PCOD9366214
_publ_section_title
;
Structure prediction by ZEFSAII (Michael W. Deem and Ramdas Pophale) SiO2 
 PCOD9366214
Probable space group: A B A 2
;
_chemical_formula_sum "Si O2"
_cell_formula_units_Z 52
_cell_length_a 14.524332
_cell_length_b 20.826432
_cell_length_c 8.621568
_cell_angle_alpha 90.000000
_cell_angle_beta 90.000000
_cell_angle_gamma 90.000000
_cell_volume 2607.938214
_symmetry_space_group_name_H-M "A B A 2"
_symmetry_group_IT_number 41
_symmetry_cell_setting 'orthorhombic'
loop_
_space_group_symop_operation_xyz
x,y,z
-x,-y,z
1/2-x,y,1/2+z
1/2+x,-y,1/2+z
x,1/2+y,1/2+z
-x,1/2-y,1/2+z
1/2-x,1/2+y,z
1/2+x,1/2-y,z
loop_
_atom_site_type_symbol
_atom_site_label
_atom_site_fract_x
_atom_site_fract_y
_atom_site_fract_z
Si Si1 0.000000 0.000000 0.498971
Si Si2 0.333218 0.804107 0.344435
Si Si3 0.346290 0.759746 0.988946
Si Si4 0.157870 0.105945 0.962238
Si Si5 0.010917 0.390770 0.248921
Si Si6 0.353977 0.578777 0.321757
Si Si7 0.450378 0.198458 0.988137
O O1 0.026839 0.941970 0.613439
O O2 0.914944 0.978122 0.393153
O O3 0.228888 0.802968 0.401291
O O4 0.394093 0.868111 0.326194
O O5 0.385935 0.759672 0.469121
O O6 0.337471 0.772056 0.173664
O O7 0.332848 0.683853 0.961147
O O8 0.447735 0.781169 0.937472
O O9 0.066229 0.086925 0.868946
O O10 0.250258 0.078776 0.885454
O O11 0.149258 0.082263 0.137579
O O12 0.964075 0.330153 0.159585
O O13 0.404428 0.643033 0.385121
#
# Coordination Sequence:
#
# PCOD9366214 Si02
#       7
#     4   8   8   8   8   8   8
#     4  10  24  48  62  84 130 172 228 272 308 372
#     4  11  22  36  57  93 134 165 203 262 323 379
#     4  11  22  33  58  95 135 164 209 255 329 395
#     4  12  21  38  67 101 117 167 221 264 321 391
#     4  10  24  41  65  91 129 173 214 265 322 377
#     4  11  23  40  65  95 127 167 221 268 319 380
#     4  10  20  37  57  91 131 166 200 267 320 379
#
# _framework density 19.939122000000001
#
# number of rings (size 3 to 8) (size 9 to 14) (size 15 to 20)
#    0.000    1.231    4.615    1.846    2.154    1.846 
#    0.000    9.231    0.000    1.846    0.000    0.000 
#    0.000    0.000    0.000    0.000    0.000    0.000 
#
# Total GULP energy -145268.720102 kJ/mol
# GULP energy per Si atom -5587.258465 kJ/mol
# Density = 1.989374 g / cm^3
# Si number density = 19.939122 Si / 1000 Ang^3
#
#
#
# Elastic Constant Matrix: (Units=GPa)
#
#
# Indices 1 2 3 4 5 6 
#
# 1 109.8526 24.3360 35.2391 0.0000 0.0000 0.0000
# 2 24.3360 44.4615 26.6108 0.0000 0.0000 0.0000
# 3 35.2391 26.6108 95.2789 0.0000 0.0000 0.0000
# 4 0.0000 0.0000 0.0000 20.8783 0.0000 0.0000
# 5 0.0000 0.0000 0.0000 0.0000 29.2157 0.0000
# 6 0.0000 0.0000 0.0000 0.0000 0.0000 31.9662
#
#
#
# Elastic Compliance Matrix: (Units=1/GPa)
#
#
# Indices 1 2 3 4 5 6 
#
# 1 0.010971 -0.004294 -0.002858 0.000000 0.000000 0.000000
# 2 -0.004294 0.028687 -0.006424 0.000000 0.000000 0.000000
# 3 -0.002858 -0.006424 0.013347 0.000000 0.000000 0.000000
# 4 0.000000 0.000000 0.000000 0.047897 0.000000 0.000000
# 5 0.000000 0.000000 0.000000 0.000000 0.034228 0.000000
# 6 0.000000 0.000000 0.000000 0.000000 0.000000 0.031283
#
#
# Mechanical properties :
#
#
# Convention : Reuss Voigt Hill
#
# Bulk Modulus (GPa) = 38.68206 46.88498 42.78352
# Shear Modulus (GPa) = 24.73009 27.30585 26.01797
#
# Velocity S-wave (km/s) = 3.52558 3.70464 3.61622
# Velocity P-wave (km/s) = 6.00126 6.47026 6.24017
#
# Compressibility (1/GPa) = 0.02585178
#
# Stress axis : x y z
#
# Youngs Moduli (GPa) = 91.14612 34.85946 74.92441
#
# Poissons Ratio (x) = 0.14970 0.21416
# Poissons Ratio (y) = 0.39142 0.48129
# Poissons Ratio (z) = 0.26053 0.22393
#
# Static dielectric constant tensor:
#      x y z
#    x 1.695410 0.000000 0.000000 
#    y 0.000000 1.723000 0.000000 
#    z 0.000000 0.000000 1.692140 
# 
# From -- ./inp_files/2155.got.cif
#   From: 2010.05.17/outbox.cif.g08.bks.cpg/sg41_2_cif.got.tgz:2155.got - 2010.06.03 18:54:24.
