data_PCOD9366794
_publ_section_title
;
Structure prediction by ZEFSAII (Michael W. Deem and Ramdas Pophale) SiO2 
 PCOD9366794
Probable space group: A B A 2
;
_chemical_formula_sum "Si O2"
_cell_formula_units_Z 20
_cell_length_a 9.363702
_cell_length_b 8.110208
_cell_length_c 11.526698
_cell_angle_alpha 90.000000
_cell_angle_beta 90.000000
_cell_angle_gamma 90.000000
_cell_volume 875.355553
_symmetry_space_group_name_H-M "A B A 2"
_symmetry_group_IT_number 41
_symmetry_cell_setting 'orthorhombic'
loop_
_space_group_symop_operation_xyz
x,y,z
-x,-y,z
1/2-x,y,1/2+z
1/2+x,-y,1/2+z
x,1/2+y,1/2+z
-x,1/2-y,1/2+z
1/2-x,1/2+y,z
1/2+x,1/2-y,z
loop_
_atom_site_type_symbol
_atom_site_label
_atom_site_fract_x
_atom_site_fract_y
_atom_site_fract_z
Si Si1 0.695531 0.953976 0.384520
Si Si2 0.000000 0.000000 0.091320
Si Si3 0.052641 0.738918 0.796294
O O1 0.591749 0.799159 0.357038
O O2 0.855083 0.893329 0.368719
O O3 0.638327 0.016627 0.508268
O O4 0.649682 0.095905 0.293799
O O5 0.020856 0.157140 0.173451
#
# Coordination Sequence:
#
# PCOD9366794 Si02
#       3
#     8   4   8
#     4  10  24  41  65 102 131 171 227 270 326 410
#     4  10  22  42  66  92 134 180 210 276 340 374
#     4  10  21  41  64  94 132 168 220 270 324 397
#
# _framework density 22.847857000000001
#
# number of rings (size 3 to 8) (size 9 to 14) (size 15 to 20)
#    0.000    2.400    0.000    2.400    0.000   12.800 
#    0.000   24.000    0.000    0.000    0.000    0.000 
#    0.000    0.000    0.000    0.000    0.000    0.000 
#
# Total GULP energy -55865.081697 kJ/mol
# GULP energy per Si atom -5586.508170 kJ/mol
# Density = 2.279585 g / cm^3
# Si number density = 22.847857 Si / 1000 Ang^3
#
#
#
# Elastic Constant Matrix: (Units=GPa)
#
#
# Indices 1 2 3 4 5 6 
#
# 1 126.1264 48.5952 45.6716 0.0000 0.0000 0.0000
# 2 48.5952 123.7260 63.3909 0.0000 0.0000 0.0000
# 3 45.6716 63.3909 136.8745 0.0000 0.0000 0.0000
# 4 0.0000 0.0000 0.0000 45.7409 0.0000 0.0000
# 5 0.0000 0.0000 0.0000 0.0000 13.5770 0.0000
# 6 0.0000 0.0000 0.0000 0.0000 0.0000 46.1412
#
#
#
# Elastic Compliance Matrix: (Units=1/GPa)
#
#
# Indices 1 2 3 4 5 6 
#
# 1 0.009718 -0.002826 -0.001934 0.000000 0.000000 0.000000
# 2 -0.002826 0.011419 -0.004345 0.000000 0.000000 0.000000
# 3 -0.001934 -0.004345 0.009964 0.000000 0.000000 0.000000
# 4 0.000000 0.000000 0.000000 0.021862 0.000000 0.000000
# 5 0.000000 0.000000 0.000000 0.000000 0.073654 0.000000
# 6 0.000000 0.000000 0.000000 0.000000 0.000000 0.021673
#
#
# Mechanical properties :
#
#
# Convention : Reuss Voigt Hill
#
# Bulk Modulus (GPa) = 77.58088 78.00468 77.79278
# Shear Modulus (GPa) = 29.27475 36.36309 32.81892
#
# Velocity S-wave (km/s) = 3.58340 3.99373 3.79411
# Velocity P-wave (km/s) = 7.15193 7.44859 7.30177
#
# Compressibility (1/GPa) = 0.01288977
#
# Stress axis : x y z
#
# Youngs Moduli (GPa) = 102.90608 87.57574 100.36447
#
# Poissons Ratio (x) = 0.24749 0.19408
# Poissons Ratio (y) = 0.29081 0.43612
# Poissons Ratio (z) = 0.19899 0.38055
#
# Static dielectric constant tensor:
#      x y z
#    x 1.912140 0.000000 0.000000 
#    y 0.000000 1.933660 0.000000 
#    z 0.000000 0.000000 1.827240 
# 
# From -- ./inp_files/1818.got.cif
#   From: 2010.05.17/outbox.cif.g08.bks.cpg/sg41_1_cif.got.tgz:1818.got - 2010.06.03 18:54:24.
