data_PCOD9366938
_publ_section_title
;
Structure prediction by ZEFSAII (Michael W. Deem and Ramdas Pophale) SiO2 
 PCOD9366938
Probable space group: A B A 2
;
_chemical_formula_sum "Si O2"
_cell_formula_units_Z 60
_cell_length_a 5.572830
_cell_length_b 27.814844
_cell_length_c 15.759663
_cell_angle_alpha 90.000000
_cell_angle_beta 90.000000
_cell_angle_gamma 90.000000
_cell_volume 2442.864341
_symmetry_space_group_name_H-M "A B A 2"
_symmetry_group_IT_number 41
_symmetry_cell_setting 'orthorhombic'
loop_
_space_group_symop_operation_xyz
x,y,z
-x,-y,z
1/2-x,y,1/2+z
1/2+x,-y,1/2+z
x,1/2+y,1/2+z
-x,1/2-y,1/2+z
1/2-x,1/2+y,z
1/2+x,1/2-y,z
loop_
_atom_site_type_symbol
_atom_site_label
_atom_site_fract_x
_atom_site_fract_y
_atom_site_fract_z
Si Si1 0.840586 0.723920 0.535630
Si Si2 0.369631 0.133287 0.838281
Si Si3 0.125004 0.397871 0.263365
Si Si4 0.191914 0.041260 0.121722
Si Si5 0.314749 0.387772 0.081926
Si Si6 0.645971 0.258965 0.347254
Si Si7 0.000000 0.000000 0.770533
Si Si8 0.983634 0.552085 0.960041
O O1 0.595842 0.752070 0.562511
O O2 0.820766 0.668467 0.562723
O O3 0.847896 0.726973 0.432340
O O4 0.627373 0.127420 0.791713
O O5 0.362473 0.186058 0.877516
O O6 0.373598 0.090799 0.905759
O O7 0.121181 0.128015 0.787593
O O8 0.140270 0.400094 0.161114
O O9 0.119719 0.451440 0.306875
O O10 0.063748 0.092276 0.118189
O O11 0.301985 0.025084 0.210525
O O12 0.372250 0.041068 0.045253
O O13 0.000000 0.000000 0.102556
O O14 0.245896 0.418994 0.998233
O O15 0.396752 0.249138 0.299698
O O16 0.000000 0.500000 0.915119
#
# Coordination Sequence:
#
# PCOD9366938 Si02
#       8
#     8   8   8   8   8   8   4   8
#     4  10  24  43  73 109 136 180 242 318 370 427
#     4  12  30  46  72 109 155 196 250 302 385 449
#     4  12  28  48  73 107 152 208 244 300 368 460
#     4  12  21  42  72 110 145 197 243 316 366 438
#     4  12  26  45  81 105 148 191 271 306 374 443
#     4  10  21  45  72  98 136 190 236 295 378 438
#     4  12  24  46  70 106 154 212 244 294 378 442
#     4  12  25  43  67 111 147 197 245 317 365 446
#
# _framework density 24.561332
#
# number of rings (size 3 to 8) (size 9 to 14) (size 15 to 20)
#    0.000    0.533    4.667    3.200    9.333    0.000 
#    0.000    4.000    0.000    0.000    0.000    0.000 
#    0.000    0.000    0.000    0.000    0.000    0.000 
#
# Total GULP energy -167689.263654 kJ/mol
# GULP energy per Si atom -5589.642122 kJ/mol
# Density = 2.450543 g / cm^3
# Si number density = 24.561332 Si / 1000 Ang^3
#
#
#
# Elastic Constant Matrix: (Units=GPa)
#
#
# Indices 1 2 3 4 5 6 
#
# 1 183.7962 55.3545 24.3653 0.0000 0.0000 0.0000
# 2 55.3545 160.0192 14.1532 0.0000 0.0000 0.0000
# 3 24.3653 14.1532 53.2972 0.0000 0.0000 0.0000
# 4 0.0000 0.0000 0.0000 30.0240 0.0000 0.0000
# 5 0.0000 0.0000 0.0000 0.0000 -8.6497 0.0000
# 6 0.0000 0.0000 0.0000 0.0000 0.0000 44.4930
#
#
#
# Elastic Compliance Matrix: (Units=1/GPa)
#
#
# Indices 1 2 3 4 5 6 
#
# 1 0.006355 -0.001988 -0.002377 0.000000 0.000000 0.000000
# 2 -0.001988 0.007021 -0.000956 0.000000 0.000000 0.000000
# 3 -0.002377 -0.000956 0.020103 0.000000 0.000000 0.000000
# 4 0.000000 0.000000 0.000000 0.033307 0.000000 0.000000
# 5 0.000000 0.000000 0.000000 0.000000 -0.115611 0.000000
# 6 0.000000 0.000000 0.000000 0.000000 0.000000 0.022475
#
#
# Mechanical properties :
#
#
# Convention : Reuss Voigt Hill
#
# Bulk Modulus (GPa) = 43.78745 64.98430 54.38587
# Shear Modulus (GPa) = -617.67564 33.38943 -292.14311
#
# Velocity S-wave (km/s) = -15.87542 3.69105 -10.91799
# Velocity P-wave (km/s) = 17.83738 6.68435 11.69383
#
# Compressibility (1/GPa) = 0.02283759
#
# Stress axis : x y z
#
# Youngs Moduli (GPa) = 157.36458 142.42030 49.74314
#
# Poissons Ratio (x) = 0.28313 0.11825
# Poissons Ratio (y) = 0.31284 0.04754
# Poissons Ratio (z) = 0.37408 0.13612
#
# Static dielectric constant tensor:
#      x y z
#    x 2.059480 0.000000 0.000000 
#    y 0.000000 1.969870 0.000000 
#    z 0.000000 0.000000 1.948700 
# 
# From -- ./inp_files/9459.got.cif
#   From: 2010.05.17/outbox.cif.g08.bks.cpg/sg41_5_cif.got.tgz:9459.got - 2010.06.03 18:54:24.
