data_PCOD9366074
_publ_section_title
;
Structure prediction by ZEFSAII (Michael W. Deem and Ramdas Pophale) SiO2 
 PCOD9366074
Probable space group: A B A 2
;
_chemical_formula_sum "Si O2"
_cell_formula_units_Z 56
_cell_length_a 15.493423
_cell_length_b 10.609557
_cell_length_c 16.354040
_cell_angle_alpha 90.000000
_cell_angle_beta 90.000000
_cell_angle_gamma 90.000000
_cell_volume 2688.250184
_symmetry_space_group_name_H-M "A B A 2"
_symmetry_group_IT_number 41
_symmetry_cell_setting 'orthorhombic'
loop_
_space_group_symop_operation_xyz
x,y,z
-x,-y,z
1/2-x,y,1/2+z
1/2+x,-y,1/2+z
x,1/2+y,1/2+z
-x,1/2-y,1/2+z
1/2-x,1/2+y,z
1/2+x,1/2-y,z
loop_
_atom_site_type_symbol
_atom_site_label
_atom_site_fract_x
_atom_site_fract_y
_atom_site_fract_z
Si Si1 0.699111 0.974287 0.523450
Si Si2 0.150301 0.155316 0.241429
Si Si3 0.500000 0.500000 0.243669
Si Si4 0.937240 0.151660 0.832622
Si Si5 0.203263 0.057923 0.835524
Si Si6 0.268459 0.769687 0.619403
Si Si7 0.500000 0.000000 0.480516
Si Si8 0.597735 0.239162 0.762701
O O1 0.726766 0.970893 0.428355
O O2 0.744639 0.855361 0.567341
O O3 0.726747 0.104295 0.566599
O O4 0.592936 0.972976 0.522114
O O5 0.116651 0.219816 0.324739
O O6 0.222201 0.055237 0.267955
O O7 0.191831 0.262710 0.186233
O O8 0.069958 0.086746 0.199230
O O9 0.560633 0.602617 0.287710
O O10 0.979341 0.117430 0.919367
O O11 0.013466 0.172235 0.767717
O O12 0.872307 0.039027 0.814587
O O13 0.165137 0.199194 0.825492
O O14 0.355472 0.762441 0.674897
#
# Coordination Sequence:
#
# PCOD9366074 Si02
#       8
#     8   8   4   8   8   8   4   8
#     4  11  25  44  67  96 143 182 226 271 359 417
#     4  10  24  38  69  97 135 165 234 279 335 395
#     4  10  22  39  66 102 127 172 218 302 332 393
#     4  10  19  39  67  99 117 170 227 282 329 384
#     4  10  22  39  70  95 132 176 225 287 330 405
#     4  11  26  40  65 102 139 182 218 280 351 413
#     4  10  22  43  70  88 133 178 232 268 346 407
#     4  10  20  40  67  97 131 165 234 273 333 401
#
# _framework density 20.831394
#
# number of rings (size 3 to 8) (size 9 to 14) (size 15 to 20)
#    0.000    1.714    2.857    0.857   12.000    3.429 
#    0.000    0.000    0.000    0.000    0.000    0.000 
#    0.000    0.000    0.000    0.000    0.000    0.000 
#
# Total GULP energy -155907.273678 kJ/mol
# GULP energy per Si atom -5568.116917 kJ/mol
# Density = 2.078398 g / cm^3
# Si number density = 20.831394 Si / 1000 Ang^3
#
#
#
# Elastic Constant Matrix: (Units=GPa)
#
#
# Indices 1 2 3 4 5 6 
#
# 1 105.6962 54.3624 29.7289 0.0000 0.0000 0.0000
# 2 54.3624 129.6598 61.5468 0.0000 0.0000 0.0000
# 3 29.7289 61.5468 98.0623 0.0000 0.0000 0.0000
# 4 0.0000 0.0000 0.0000 28.5109 0.0000 0.0000
# 5 0.0000 0.0000 0.0000 0.0000 13.4720 0.0000
# 6 0.0000 0.0000 0.0000 0.0000 0.0000 38.3266
#
#
#
# Elastic Compliance Matrix: (Units=1/GPa)
#
#
# Indices 1 2 3 4 5 6 
#
# 1 0.012095 -0.004744 -0.000689 0.000000 0.000000 0.000000
# 2 -0.004744 0.012846 -0.006624 0.000000 0.000000 0.000000
# 3 -0.000689 -0.006624 0.014564 0.000000 0.000000 0.000000
# 4 0.000000 0.000000 0.000000 0.035074 0.000000 0.000000
# 5 0.000000 0.000000 0.000000 0.000000 0.074228 0.000000
# 6 0.000000 0.000000 0.000000 0.000000 0.000000 0.026092
#
#
# Mechanical properties :
#
#
# Convention : Reuss Voigt Hill
#
# Bulk Modulus (GPa) = 64.97735 69.41052 67.19394
# Shear Modulus (GPa) = 24.49260 28.58059 26.53660
#
# Velocity S-wave (km/s) = 3.43265 3.70806 3.57301
# Velocity P-wave (km/s) = 6.85350 7.19204 7.02481
#
# Compressibility (1/GPa) = 0.01538998
#
# Stress axis : x y z
#
# Youngs Moduli (GPa) = 82.68006 77.84639 68.66151
#
# Poissons Ratio (x) = 0.36928 0.04733
# Poissons Ratio (y) = 0.39221 0.45483
# Poissons Ratio (z) = 0.05700 0.51568
#
# Static dielectric constant tensor:
#      x y z
#    x 1.829190 0.000000 0.000000 
#    y 0.000000 1.803680 0.000000 
#    z 0.000000 0.000000 1.773270 
# 
# From -- ./inp_files/10613.got.cif
#   From: 2010.05.17/outbox.cif.g08.bks.cpg/sg41_6_cif.got.tgz:10613.got - 2010.06.03 18:54:24.
