data_PCOD9366726
_publ_section_title
;
Structure prediction by ZEFSAII (Michael W. Deem and Ramdas Pophale) SiO2 
 PCOD9366726
Probable space group: A B A 2
;
_chemical_formula_sum "Si O2"
_cell_formula_units_Z 52
_cell_length_a 12.335343
_cell_length_b 8.242945
_cell_length_c 25.795107
_cell_angle_alpha 90.000000
_cell_angle_beta 90.000000
_cell_angle_gamma 90.000000
_cell_volume 2622.834973
_symmetry_space_group_name_H-M "A B A 2"
_symmetry_group_IT_number 41
_symmetry_cell_setting 'orthorhombic'
loop_
_space_group_symop_operation_xyz
x,y,z
-x,-y,z
1/2-x,y,1/2+z
1/2+x,-y,1/2+z
x,1/2+y,1/2+z
-x,1/2-y,1/2+z
1/2-x,1/2+y,z
1/2+x,1/2-y,z
loop_
_atom_site_type_symbol
_atom_site_label
_atom_site_fract_x
_atom_site_fract_y
_atom_site_fract_z
Si Si1 0.877526 0.497130 0.433690
Si Si2 0.000000 0.000000 0.294434
Si Si3 0.585604 0.643211 0.820572
Si Si4 0.262941 0.252015 0.495154
Si Si5 0.126881 0.046389 0.679032
Si Si6 0.126850 0.503356 0.059616
Si Si7 0.210825 0.349507 0.742619
O O1 0.877821 0.568668 0.375803
O O2 0.809629 0.612290 0.469819
O O3 0.832270 0.320262 0.447393
O O4 0.000000 0.500000 0.451353
O O5 0.889906 0.039683 0.262004
O O6 0.028202 0.176338 0.322228
O O7 0.500000 0.500000 0.801974
O O8 0.696418 0.664633 0.787265
O O9 0.330370 0.326243 0.542959
O O10 0.183297 0.121843 0.519514
O O11 0.146641 0.066827 0.617792
O O12 0.154327 0.190685 0.718905
O O13 0.214487 0.913759 0.696117
O O14 0.000000 0.000000 0.684020
O O15 0.000000 0.500000 0.051756
#
# Coordination Sequence:
#
# PCOD9366726 Si02
#       7
#     8   4   8   8   8   8   8
#     4  10  23  41  64  96 129 168 222 272 333 402
#     4  12  26  42  70  96 136 194 222 282 354 386
#     4  11  26  46  67 100 137 177 232 287 337 409
#     4  10  21  40  66  92 129 171 210 274 337 399
#     4  11  24  40  67  94 132 174 223 278 335 400
#     4  10  21  40  63  95 127 168 215 270 337 398
#     4  12  23  44  64  94 134 173 230 279 332 411
#
# _framework density 19.825873999999999
#
# number of rings (size 3 to 8) (size 9 to 14) (size 15 to 20)
#    0.000    1.231    1.538    4.154    2.154    1.231 
#    6.923    0.000    3.385    0.000    0.000    0.000 
#    0.000    0.000    0.000    0.000    0.000    0.000 
#
# Total GULP energy -144750.129407 kJ/mol
# GULP energy per Si atom -5567.312669 kJ/mol
# Density = 1.978075 g / cm^3
# Si number density = 19.825874 Si / 1000 Ang^3
#
#
#
# Elastic Constant Matrix: (Units=GPa)
#
#
# Indices 1 2 3 4 5 6 
#
# 1 131.1795 38.9700 50.1878 0.0000 0.0000 0.0000
# 2 38.9700 88.4003 31.6554 0.0000 0.0000 0.0000
# 3 50.1878 31.6554 89.3236 0.0000 0.0000 0.0000
# 4 0.0000 0.0000 0.0000 17.8795 0.0000 0.0000
# 5 0.0000 0.0000 0.0000 0.0000 35.9216 0.0000
# 6 0.0000 0.0000 0.0000 0.0000 0.0000 -164.2419
#
#
#
# Elastic Compliance Matrix: (Units=1/GPa)
#
#
# Indices 1 2 3 4 5 6 
#
# 1 0.010292 -0.002825 -0.004781 0.000000 0.000000 0.000000
# 2 -0.002825 0.013732 -0.003279 0.000000 0.000000 0.000000
# 3 -0.004781 -0.003279 0.015044 0.000000 0.000000 0.000000
# 4 0.000000 0.000000 0.000000 0.055930 0.000000 0.000000
# 5 0.000000 0.000000 0.000000 0.000000 0.027838 0.000000
# 6 0.000000 0.000000 0.000000 0.000000 0.000000 -0.006089
#
#
# Mechanical properties :
#
#
# Convention : Reuss Voigt Hill
#
# Bulk Modulus (GPa) = 57.81562 61.16997 59.49280
# Shear Modulus (GPa) = 34.65402 -9.54881 12.55260
#
# Velocity S-wave (km/s) = 4.18535 -2.19700 2.51896
# Velocity P-wave (km/s) = 7.25129 4.94822 6.20750
#
# Compressibility (1/GPa) = 0.01729636
#
# Stress axis : x y z
#
# Youngs Moduli (GPa) = 97.16641 72.82422 66.47201
#
# Poissons Ratio (x) = 0.20571 0.31783
# Poissons Ratio (y) = 0.27447 0.21798
# Poissons Ratio (z) = 0.46460 0.23881
#
# Static dielectric constant tensor:
#      x y z
#    x 1.678870 0.000000 0.000000 
#    y 0.000000 1.699520 0.000000 
#    z 0.000000 0.000000 1.721660 
# 
# From -- ./inp_files/12501.got.cif
#   From: 2010.05.17/outbox.cif.g08.bks.cpg/sg41_7_cif.got.tgz:12501.got - 2010.06.03 18:54:24.
