data_PCOD9366055
_publ_section_title
;
Structure prediction by ZEFSAII (Michael W. Deem and Ramdas Pophale) SiO2 
 PCOD9366055
Probable space group: A B A 2
;
_chemical_formula_sum "Si O2"
_cell_formula_units_Z 60
_cell_length_a 12.828448
_cell_length_b 12.577939
_cell_length_c 17.474494
_cell_angle_alpha 90.000000
_cell_angle_beta 90.000000
_cell_angle_gamma 90.000000
_cell_volume 2819.604605
_symmetry_space_group_name_H-M "A B A 2"
_symmetry_group_IT_number 41
_symmetry_cell_setting 'orthorhombic'
loop_
_space_group_symop_operation_xyz
x,y,z
-x,-y,z
1/2-x,y,1/2+z
1/2+x,-y,1/2+z
x,1/2+y,1/2+z
-x,1/2-y,1/2+z
1/2-x,1/2+y,z
1/2+x,1/2-y,z
loop_
_atom_site_type_symbol
_atom_site_label
_atom_site_fract_x
_atom_site_fract_y
_atom_site_fract_z
Si Si1 0.248163 0.021653 0.942830
Si Si2 0.964530 0.609443 0.649447
Si Si3 0.500000 0.500000 0.618996
Si Si4 0.914585 0.343309 0.996711
Si Si5 0.100729 0.302018 0.191870
Si Si6 0.910275 0.082005 0.838771
Si Si7 0.767325 0.163576 0.070069
Si Si8 0.951920 0.341006 0.481867
O O1 0.160962 0.109647 0.967338
O O2 0.195682 0.973167 0.867300
O O3 0.356031 0.085490 0.934209
O O4 0.258910 0.928758 0.007893
O O5 0.009079 0.715414 0.687863
O O6 0.012765 0.614966 0.563741
O O7 0.000000 0.500000 0.686985
O O8 0.842078 0.611548 0.634367
O O9 0.567878 0.423005 0.566403
O O10 0.430368 0.420202 0.666150
O O11 0.836888 0.250709 0.025469
O O12 0.025194 0.285666 0.981225
O O13 0.121521 0.323751 0.281179
O O14 0.182146 0.276633 0.123312
O O15 0.968903 0.121292 0.915680
O O16 0.000000 0.000000 0.808786
#
# Coordination Sequence:
#
# PCOD9366055 Si02
#       8
#     8   8   4   8   8   8   8   8
#     4  11  20  38  66  90 124 172 218 266 317 397
#     4  11  20  40  66  92 124 169 219 268 320 385
#     4  12  22  38  60  96 136 164 204 274 328 370
#     4  11  23  36  63  96 126 161 224 270 314 375
#     4  12  24  39  64  98 135 163 215 272 326 402
#     4  10  21  40  64  90 126 169 211 260 333 391
#     4  11  22  36  66  93 122 165 223 260 326 381
#     4  10  19  38  64  94 119 168 220 266 311 385
#
# _framework density 21.279579999999999
#
# number of rings (size 3 to 8) (size 9 to 14) (size 15 to 20)
#    0.000    1.067    8.667    1.200    0.000    0.000 
#    0.000    5.333    1.467    0.000    0.000    0.000 
#    0.000    0.000    0.000    0.000    0.000    0.000 
#
# Total GULP energy -167100.414355 kJ/mol
# GULP energy per Si atom -5570.013812 kJ/mol
# Density = 2.123115 g / cm^3
# Si number density = 21.279580 Si / 1000 Ang^3
#
#
#
# Elastic Constant Matrix: (Units=GPa)
#
#
# Indices 1 2 3 4 5 6 
#
# 1 32.3703 13.0537 5.0519 0.0000 0.0000 0.0000
# 2 13.0537 109.9695 17.0408 0.0000 0.0000 0.0000
# 3 5.0519 17.0408 59.6415 0.0000 0.0000 0.0000
# 4 0.0000 0.0000 0.0000 4.3206 0.0000 0.0000
# 5 0.0000 0.0000 0.0000 0.0000 2.5907 0.0000
# 6 0.0000 0.0000 0.0000 0.0000 0.0000 38.4318
#
#
#
# Elastic Compliance Matrix: (Units=1/GPa)
#
#
# Indices 1 2 3 4 5 6 
#
# 1 0.032616 -0.003603 -0.001733 0.000000 0.000000 0.000000
# 2 -0.003603 0.009913 -0.002527 0.000000 0.000000 0.000000
# 3 -0.001733 -0.002527 0.017636 0.000000 0.000000 0.000000
# 4 0.000000 0.000000 0.000000 0.231451 0.000000 0.000000
# 5 0.000000 0.000000 0.000000 0.000000 0.385989 0.000000
# 6 0.000000 0.000000 0.000000 0.000000 0.000000 0.026020
#
#
# Mechanical properties :
#
#
# Convention : Reuss Voigt Hill
#
# Bulk Modulus (GPa) = 22.50341 30.25266 26.37804
# Shear Modulus (GPa) = 6.81047 20.19095 13.50071
#
# Velocity S-wave (km/s) = 1.79093 3.08367 2.52155
# Velocity P-wave (km/s) = 3.85677 5.18906 4.57170
#
# Compressibility (1/GPa) = 0.04443770
#
# Stress axis : x y z
#
# Youngs Moduli (GPa) = 30.65980 100.88056 56.70314
#
# Poissons Ratio (x) = 0.36348 0.09828
# Poissons Ratio (y) = 0.11047 0.14329
# Poissons Ratio (z) = 0.05314 0.25493
#
# Static dielectric constant tensor:
#      x y z
#    x 1.877820 0.000000 0.000000 
#    y 0.000000 1.902550 0.000000 
#    z 0.000000 0.000000 1.807080 
# 
# From -- ./inp_files/10382.got.cif
#   From: 2010.05.17/outbox.cif.g08.bks.cpg/sg41_6_cif.got.tgz:10382.got - 2010.06.03 18:54:24.
