data_PCOD9366162
_publ_section_title
;
Structure prediction by ZEFSAII (Michael W. Deem and Ramdas Pophale) SiO2 
 PCOD9366162
Probable space group: A B A 2
;
_chemical_formula_sum "Si O2"
_cell_formula_units_Z 52
_cell_length_a 10.381588
_cell_length_b 13.944907
_cell_length_c 17.759161
_cell_angle_alpha 90.000000
_cell_angle_beta 90.000000
_cell_angle_gamma 90.000000
_cell_volume 2570.998696
_symmetry_space_group_name_H-M "A B A 2"
_symmetry_group_IT_number 41
_symmetry_cell_setting 'orthorhombic'
loop_
_space_group_symop_operation_xyz
x,y,z
-x,-y,z
1/2-x,y,1/2+z
1/2+x,-y,1/2+z
x,1/2+y,1/2+z
-x,1/2-y,1/2+z
1/2-x,1/2+y,z
1/2+x,1/2-y,z
loop_
_atom_site_type_symbol
_atom_site_label
_atom_site_fract_x
_atom_site_fract_y
_atom_site_fract_z
Si Si1 0.095828 0.148130 0.236900
Si Si2 0.500000 0.000000 0.859576
Si Si3 0.648106 0.761223 0.289315
Si Si4 0.185722 0.236793 0.513143
Si Si5 0.258828 0.896870 0.893844
Si Si6 0.339667 0.097311 0.425812
Si Si7 0.560052 0.829630 0.573134
O O1 0.243058 0.183809 0.242006
O O2 0.077964 0.069009 0.302009
O O3 0.987295 0.229244 0.254260
O O4 0.060178 0.116835 0.152367
O O5 0.597112 0.063612 0.907732
O O6 0.721340 0.665263 0.318648
O O7 0.618790 0.826561 0.362734
O O8 0.210041 0.325151 0.457125
O O9 0.205248 0.142033 0.460583
O O10 0.306830 0.229541 0.568778
O O11 0.929051 0.396456 0.499358
O O12 0.173844 0.992226 0.892441
O O13 0.056728 0.257333 0.557956
#
# Coordination Sequence:
#
# PCOD9366162 Si02
#       7
#     8   4   8   8   8   8   8
#     4  11  22  41  61  88 127 160 200 244 306 364
#     4  10  22  36  62  88 122 166 200 242 304 364
#     4  10  22  37  63  89 117 164 197 248 296 358
#     4   9  22  36  59  88 115 157 195 243 307 341
#     4  10  20  35  61  91 118 150 208 251 292 353
#     4   9  21  36  60  86 117 150 203 249 289 348
#     4  10  22  39  61  87 124 156 196 249 307 356
#
# _framework density 20.225604000000001
#
# number of rings (size 3 to 8) (size 9 to 14) (size 15 to 20)
#    0.923    1.231    1.538    0.923    6.462    1.846 
#    0.000    0.000    0.000    1.846    0.000    0.000 
#    0.000    0.000    0.000    0.000    0.000    0.000 
#
# Total GULP energy -144816.174866 kJ/mol
# GULP energy per Si atom -5569.852879 kJ/mol
# Density = 2.017957 g / cm^3
# Si number density = 20.225604 Si / 1000 Ang^3
#
#
#
# Elastic Constant Matrix: (Units=GPa)
#
#
# Indices 1 2 3 4 5 6 
#
# 1 58.4391 0.2898 13.5974 0.0000 0.0000 0.0000
# 2 0.2898 67.4276 -0.6527 0.0000 0.0000 0.0000
# 3 13.5974 -0.6527 73.4675 0.0000 0.0000 0.0000
# 4 0.0000 0.0000 0.0000 6.9606 0.0000 0.0000
# 5 0.0000 0.0000 0.0000 0.0000 14.0606 0.0000
# 6 0.0000 0.0000 0.0000 0.0000 0.0000 24.7543
#
#
#
# Elastic Compliance Matrix: (Units=1/GPa)
#
#
# Indices 1 2 3 4 5 6 
#
# 1 0.017883 -0.000109 -0.003311 0.000000 0.000000 0.000000
# 2 -0.000109 0.014833 0.000152 0.000000 0.000000 0.000000
# 3 -0.003311 0.000152 0.014226 0.000000 0.000000 0.000000
# 4 0.000000 0.000000 0.000000 0.143667 0.000000 0.000000
# 5 0.000000 0.000000 0.000000 0.000000 0.071121 0.000000
# 6 0.000000 0.000000 0.000000 0.000000 0.000000 0.040397
#
#
# Mechanical properties :
#
#
# Convention : Reuss Voigt Hill
#
# Bulk Modulus (GPa) = 24.74909 25.08926 24.91917
# Shear Modulus (GPa) = 15.52172 21.56174 18.54173
#
# Velocity S-wave (km/s) = 2.77326 3.26860 3.03107
# Velocity P-wave (km/s) = 4.74528 5.16494 4.95955
#
# Compressibility (1/GPa) = 0.04040552
#
# Stress axis : x y z
#
# Youngs Moduli (GPa) = 55.92003 67.41883 70.29600
#
# Poissons Ratio (x) = 0.00734 0.23273
# Poissons Ratio (y) = 0.00609 -0.01068
# Poissons Ratio (z) = 0.18513 -0.01024
#
# Static dielectric constant tensor:
#      x y z
#    x 1.779370 0.000000 0.000000 
#    y 0.000000 1.718590 0.000000 
#    z 0.000000 0.000000 1.726560 
# 
# From -- ./inp_files/10054.got.cif
#   From: 2010.05.17/outbox.cif.g08.bks.cpg/sg41_6_cif.got.tgz:10054.got - 2010.06.03 18:54:24.
