data_PCOD9366861
_publ_section_title
;
Structure prediction by ZEFSAII (Michael W. Deem and Ramdas Pophale) SiO2 
 PCOD9366861
Probable space group: A B A 2
;
_chemical_formula_sum "Si O2"
_cell_formula_units_Z 40
_cell_length_a 9.998142
_cell_length_b 18.137472
_cell_length_c 7.767591
_cell_angle_alpha 90.000000
_cell_angle_beta 90.000000
_cell_angle_gamma 90.000000
_cell_volume 1408.582879
_symmetry_space_group_name_H-M "A B A 2"
_symmetry_group_IT_number 41
_symmetry_cell_setting 'orthorhombic'
loop_
_space_group_symop_operation_xyz
x,y,z
-x,-y,z
1/2-x,y,1/2+z
1/2+x,-y,1/2+z
x,1/2+y,1/2+z
-x,1/2-y,1/2+z
1/2-x,1/2+y,z
1/2+x,1/2-y,z
loop_
_atom_site_type_symbol
_atom_site_label
_atom_site_fract_x
_atom_site_fract_y
_atom_site_fract_z
Si Si1 0.658780 0.074888 0.562290
Si Si2 0.418295 0.135596 0.365248
Si Si3 0.936171 0.747156 0.158927
Si Si4 0.952777 0.144938 0.396201
Si Si5 0.170416 0.528067 0.861825
O O1 0.559017 0.094452 0.406174
O O2 0.625850 0.133881 0.714166
O O3 0.793347 0.045716 0.469297
O O4 0.634186 0.000084 0.672148
O O5 0.400817 0.184460 0.535978
O O6 0.437072 0.193122 0.209270
O O7 0.301124 0.078024 0.341911
O O8 0.938289 0.788770 0.343349
O O9 0.864179 0.682679 0.045500
O O10 0.050805 0.076909 0.432815
#
# Coordination Sequence:
#
# PCOD9366861 Si02
#       5
#     8   8   8   8   8
#     4  11  25  42  64  97 132 167 222 274 326 401
#     4  10  21  42  66  96 135 175 219 273 328 392
#     4   9  20  40  63  87 129 175 215 272 325 375
#     4  10  21  42  66  96 135 175 219 273 328 392
#     4  12  22  40  68  94 128 178 216 262 336 400
#
# _framework density 28.397335000000002
#
# number of rings (size 3 to 8) (size 9 to 14) (size 15 to 20)
#    0.000    1.600    0.000    6.000    0.000    1.600 
#    0.000   34.000    0.000    0.000    0.000    0.000 
#    0.000    0.000    0.000    0.000    0.000    0.000 
#
# Total GULP energy -111353.859816 kJ/mol
# GULP energy per Si atom -5567.692991 kJ/mol
# Density = 2.833270 g / cm^3
# Si number density = 28.397335 Si / 1000 Ang^3
#
#
#
# Elastic Constant Matrix: (Units=GPa)
#
#
# Indices 1 2 3 4 5 6 
#
# 1 120.3404 18.5427 45.7040 0.0000 0.0000 0.0000
# 2 18.5427 136.2262 36.1057 0.0000 0.0000 0.0000
# 3 45.7040 36.1057 125.5520 0.0000 0.0000 0.0000
# 4 0.0000 0.0000 0.0000 74.6708 0.0000 0.0000
# 5 0.0000 0.0000 0.0000 0.0000 21.5005 0.0000
# 6 0.0000 0.0000 0.0000 0.0000 0.0000 25.2225
#
#
#
# Elastic Compliance Matrix: (Units=1/GPa)
#
#
# Indices 1 2 3 4 5 6 
#
# 1 0.009665 -0.000415 -0.003399 0.000000 0.000000 0.000000
# 2 -0.000415 0.007964 -0.002139 0.000000 0.000000 0.000000
# 3 -0.003399 -0.002139 0.009817 0.000000 0.000000 0.000000
# 4 0.000000 0.000000 0.000000 0.013392 0.000000 0.000000
# 5 0.000000 0.000000 0.000000 0.000000 0.046511 0.000000
# 6 0.000000 0.000000 0.000000 0.000000 0.000000 0.039647
#
#
# Mechanical properties :
#
#
# Convention : Reuss Voigt Hill
#
# Bulk Modulus (GPa) = 64.34903 64.75814 64.55359
# Shear Modulus (GPa) = 34.70255 43.06318 38.88287
#
# Velocity S-wave (km/s) = 3.49955 3.89839 3.70434
# Velocity P-wave (km/s) = 6.24809 6.56636 6.40920
#
# Compressibility (1/GPa) = 0.01554025
#
# Stress axis : x y z
#
# Youngs Moduli (GPa) = 103.47136 125.56198 101.86069
#
# Poissons Ratio (x) = 0.05207 0.34621
# Poissons Ratio (y) = 0.04291 0.21792
# Poissons Ratio (z) = 0.35169 0.26862
#
# Static dielectric constant tensor:
#      x y z
#    x 2.433150 0.000000 0.000000 
#    y 0.000000 2.482240 0.000000 
#    z 0.000000 0.000000 2.287400 
# 
# From -- ./inp_files/2014.got.cif
#   From: 2010.05.17/outbox.cif.g08.bks.cpg/sg41_2_cif.got.tgz:2014.got - 2010.06.03 18:54:24.
