data_PCOD9366222
_publ_section_title
;
Structure prediction by ZEFSAII (Michael W. Deem and Ramdas Pophale) SiO2 
 PCOD9366222
Probable space group: A B A 2
;
_chemical_formula_sum "Si O2"
_cell_formula_units_Z 56
_cell_length_a 13.893390
_cell_length_b 13.395594
_cell_length_c 14.692353
_cell_angle_alpha 90.000000
_cell_angle_beta 90.000000
_cell_angle_gamma 90.000000
_cell_volume 2734.396928
_symmetry_space_group_name_H-M "A B A 2"
_symmetry_group_IT_number 41
_symmetry_cell_setting 'orthorhombic'
loop_
_space_group_symop_operation_xyz
x,y,z
-x,-y,z
1/2-x,y,1/2+z
1/2+x,-y,1/2+z
x,1/2+y,1/2+z
-x,1/2-y,1/2+z
1/2-x,1/2+y,z
1/2+x,1/2-y,z
loop_
_atom_site_type_symbol
_atom_site_label
_atom_site_fract_x
_atom_site_fract_y
_atom_site_fract_z
Si Si1 0.335423 0.820663 0.769370
Si Si2 0.812783 0.680898 0.103966
Si Si3 0.203676 0.984575 0.023305
Si Si4 0.825304 0.318719 0.439895
Si Si5 0.388652 0.529936 0.217205
Si Si6 0.553902 0.252778 0.245074
Si Si7 0.537674 0.109793 0.410058
O O1 0.263556 0.810097 0.685397
O O2 0.305173 0.752924 0.854725
O O3 0.441529 0.780164 0.744878
O O4 0.345398 0.941123 0.779690
O O5 0.797141 0.576669 0.052596
O O6 0.914010 0.701234 0.151562
O O7 0.791869 0.763038 0.029349
O O8 0.161866 0.027906 0.118333
O O9 0.120852 0.911179 0.983369
O O10 0.217469 0.070324 0.948220
O O11 0.941253 0.335999 0.445921
O O12 0.500000 0.500000 0.202022
O O13 0.389733 0.642180 0.254701
O O14 0.574053 0.176063 0.326568
O O15 0.500000 0.000000 0.379696
#
# Coordination Sequence:
#
# PCOD9366222 Si02
#       7
#     8   8   8   8   8   8   8
#     4   9  22  39  60  94 124 159 213 256 315 386
#     4  11  23  36  61  93 121 163 208 259 309 373
#     4  10  20  37  60  89 116 162 211 248 303 382
#     4  10  20  41  60  89 122 163 204 261 310 375
#     4   9  16  34  64  88 112 155 206 252 301 366
#     4  10  20  39  62  92 123 159 207 266 312 360
#     4   9  20  38  66  90 118 165 213 251 311 382
#
# _framework density 20.479835000000001
#
# number of rings (size 3 to 8) (size 9 to 14) (size 15 to 20)
#    0.000    2.286    1.429    1.286    6.000    0.000 
#   10.286    0.000    0.000    4.286    0.000    0.000 
#    0.000    0.000    0.000    0.000    0.000    0.000 
#
# Total GULP energy -156209.094923 kJ/mol
# GULP energy per Si atom -5578.896247 kJ/mol
# Density = 2.043322 g / cm^3
# Si number density = 20.479835 Si / 1000 Ang^3
#
#
#
# Elastic Constant Matrix: (Units=GPa)
#
#
# Indices 1 2 3 4 5 6 
#
# 1 21.2906 26.6112 11.4555 0.0000 0.0000 0.0000
# 2 26.6112 109.7205 46.2860 0.0000 0.0000 0.0000
# 3 11.4555 46.2860 63.0665 0.0000 0.0000 0.0000
# 4 0.0000 0.0000 0.0000 43.5658 0.0000 0.0000
# 5 0.0000 0.0000 0.0000 0.0000 26.2231 0.0000
# 6 0.0000 0.0000 0.0000 0.0000 0.0000 27.8033
#
#
#
# Elastic Compliance Matrix: (Units=1/GPa)
#
#
# Indices 1 2 3 4 5 6 
#
# 1 0.067407 -0.016199 -0.000355 0.000000 0.000000 0.000000
# 2 -0.016199 0.017094 -0.009603 0.000000 0.000000 0.000000
# 3 -0.000355 -0.009603 0.022969 0.000000 0.000000 0.000000
# 4 0.000000 0.000000 0.000000 0.022954 0.000000 0.000000
# 5 0.000000 0.000000 0.000000 0.000000 0.038134 0.000000
# 6 0.000000 0.000000 0.000000 0.000000 0.000000 0.035967
#
#
# Mechanical properties :
#
#
# Convention : Reuss Voigt Hill
#
# Bulk Modulus (GPa) = 18.13059 40.30922 29.21990
# Shear Modulus (GPa) = 18.16693 26.83345 22.50019
#
# Velocity S-wave (km/s) = 2.98159 3.62365 3.31819
# Velocity P-wave (km/s) = 4.55251 6.10188 5.38322
#
# Compressibility (1/GPa) = 0.05515541
#
# Stress axis : x y z
#
# Youngs Moduli (GPa) = 14.83519 58.49966 43.53706
#
# Poissons Ratio (x) = 0.94763 0.01546
# Poissons Ratio (y) = 0.24031 0.41810
# Poissons Ratio (z) = 0.00527 0.56180
#
# Static dielectric constant tensor:
#      x y z
#    x 1.744230 0.000000 0.000000 
#    y 0.000000 1.790710 0.000000 
#    z 0.000000 0.000000 1.709990 
# 
# From -- ./inp_files/8488.got.cif
#   From: 2010.05.17/outbox.cif.g08.bks.cpg/sg41_5_cif.got.tgz:8488.got - 2010.06.03 18:54:24.
