data_PCOD9366653
_publ_section_title
;
Structure prediction by ZEFSAII (Michael W. Deem and Ramdas Pophale) SiO2 
 PCOD9366653
Probable space group: A B A 2
;
_chemical_formula_sum "Si O2"
_cell_formula_units_Z 48
_cell_length_a 8.437336
_cell_length_b 11.322957
_cell_length_c 24.006921
_cell_angle_alpha 90.000000
_cell_angle_beta 90.000000
_cell_angle_gamma 90.000000
_cell_volume 2293.515427
_symmetry_space_group_name_H-M "A B A 2"
_symmetry_group_IT_number 41
_symmetry_cell_setting 'orthorhombic'
loop_
_space_group_symop_operation_xyz
x,y,z
-x,-y,z
1/2-x,y,1/2+z
1/2+x,-y,1/2+z
x,1/2+y,1/2+z
-x,1/2-y,1/2+z
1/2-x,1/2+y,z
1/2+x,1/2-y,z
loop_
_atom_site_type_symbol
_atom_site_label
_atom_site_fract_x
_atom_site_fract_y
_atom_site_fract_z
Si Si1 0.349757 0.185290 0.235980
Si Si2 0.445676 0.372742 0.424796
Si Si3 0.438923 0.621968 0.298166
Si Si4 0.590107 0.122773 0.459561
Si Si5 0.899597 0.684488 0.154340
Si Si6 0.398443 0.385676 0.092264
O O1 0.458086 0.278252 0.268613
O O2 0.245780 0.123682 0.283119
O O3 0.218989 0.244174 0.195504
O O4 0.471611 0.123802 0.194164
O O5 0.500000 0.500000 0.450876
O O6 0.522427 0.372793 0.363322
O O7 0.499514 0.247116 0.450297
O O8 0.255379 0.373838 0.426304
O O9 0.500000 0.500000 0.273923
O O10 0.619991 0.118033 0.525847
O O11 0.500000 0.000000 0.444814
O O12 0.776691 0.609708 0.118388
O O13 0.001188 0.774081 0.115587
O O14 0.500000 0.500000 0.107988
#
# Coordination Sequence:
#
# PCOD9366653 Si02
#       6
#     8   8   8   8   8   8
#     4   9  19  36  58  85 116 151 198 249 304 372
#     4  11  23  40  64  93 127 169 215 267 323 383
#     4  10  21  39  60  85 120 158 198 254 314 376
#     4  11  23  40  64  93 129 172 217 267 322 380
#     4   9  19  36  58  86 116 154 201 250 304 371
#     4  10  21  39  60  86 124 164 205 257 313 374
#
# _framework density 20.928571000000002
#
# number of rings (size 3 to 8) (size 9 to 14) (size 15 to 20)
#    0.000    2.000    0.000    3.000    0.000    8.667 
#    0.000   11.667    0.000    0.000    0.000    0.000 
#    0.000    0.000    0.000    0.000    0.000    0.000 
#
# Total GULP energy -133810.760476 kJ/mol
# GULP energy per Si atom -5575.448353 kJ/mol
# Density = 2.088094 g / cm^3
# Si number density = 20.928571 Si / 1000 Ang^3
#
#
#
# Elastic Constant Matrix: (Units=GPa)
#
#
# Indices 1 2 3 4 5 6 
#
# 1 171.5348 65.5967 50.7829 0.0000 0.0000 0.0000
# 2 65.5967 132.1365 29.3120 0.0000 0.0000 0.0000
# 3 50.7829 29.3120 76.6647 0.0000 0.0000 0.0000
# 4 0.0000 0.0000 0.0000 -3.9638 0.0000 0.0000
# 5 0.0000 0.0000 0.0000 0.0000 32.0828 0.0000
# 6 0.0000 0.0000 0.0000 0.0000 0.0000 37.3256
#
#
#
# Elastic Compliance Matrix: (Units=1/GPa)
#
#
# Indices 1 2 3 4 5 6 
#
# 1 0.008315 -0.003175 -0.004294 0.000000 0.000000 0.000000
# 2 -0.003175 0.009482 -0.001522 0.000000 0.000000 0.000000
# 3 -0.004294 -0.001522 0.016470 0.000000 0.000000 0.000000
# 4 0.000000 0.000000 0.000000 -0.252285 0.000000 0.000000
# 5 0.000000 0.000000 0.000000 0.000000 0.031169 0.000000
# 6 0.000000 0.000000 0.000000 0.000000 0.000000 0.026791
#
#
# Mechanical properties :
#
#
# Convention : Reuss Voigt Hill
#
# Bulk Modulus (GPa) = 61.40761 74.63546 68.02153
# Shear Modulus (GPa) = -36.59070 28.73189 -3.92940
#
# Velocity S-wave (km/s) = -4.18588 3.70923 -1.37172
# Velocity P-wave (km/s) = 2.45828 7.35417 5.48302
#
# Compressibility (1/GPa) = 0.01628463
#
# Stress axis : x y z
#
# Youngs Moduli (GPa) = 120.26081 105.46393 60.71636
#
# Poissons Ratio (x) = 0.33489 0.26071
# Poissons Ratio (y) = 0.38188 0.09240
# Poissons Ratio (z) = 0.51639 0.16051
#
# Static dielectric constant tensor:
#      x y z
#    x 1.713630 0.000000 0.000000 
#    y 0.000000 1.783520 0.000000 
#    z 0.000000 0.000000 1.771670 
# 
# From -- ./inp_files/11962.got.cif
#   From: 2010.05.17/outbox.cif.g08.bks.cpg/sg41_6_cif.got.tgz:11962.got - 2010.06.03 18:54:24.
