data_PCOD9366093
_publ_section_title
;
Structure prediction by ZEFSAII (Michael W. Deem and Ramdas Pophale) SiO2 
 PCOD9366093
Probable space group: A B A 2
;
_chemical_formula_sum "Si O2"
_cell_formula_units_Z 64
_cell_length_a 23.418919
_cell_length_b 10.944985
_cell_length_c 10.094224
_cell_angle_alpha 90.000000
_cell_angle_beta 90.000000
_cell_angle_gamma 90.000000
_cell_volume 2587.348641
_symmetry_space_group_name_H-M "A B A 2"
_symmetry_group_IT_number 41
_symmetry_cell_setting 'orthorhombic'
loop_
_space_group_symop_operation_xyz
x,y,z
-x,-y,z
1/2-x,y,1/2+z
1/2+x,-y,1/2+z
x,1/2+y,1/2+z
-x,1/2-y,1/2+z
1/2-x,1/2+y,z
1/2+x,1/2-y,z
loop_
_atom_site_type_symbol
_atom_site_label
_atom_site_fract_x
_atom_site_fract_y
_atom_site_fract_z
Si Si1 0.651667 0.540391 0.969710
Si Si2 0.565406 0.003966 0.815605
Si Si3 0.556599 0.064262 0.126909
Si Si4 0.830863 0.940140 0.700037
Si Si5 0.341008 0.206487 0.832939
Si Si6 0.738220 0.494485 0.445450
Si Si7 0.661832 0.682273 0.295427
Si Si8 0.616636 0.796035 0.567916
O O1 0.692074 0.481126 0.845454
O O2 0.640265 0.674769 0.917174
O O3 0.709465 0.533179 0.051665
O O4 0.609200 0.439627 0.028545
O O5 0.607542 0.102278 0.747302
O O6 0.500000 0.000000 0.764539
O O7 0.603740 0.882162 0.820796
O O8 0.560422 0.034479 0.971375
O O9 0.565303 0.210875 0.123761
O O10 0.500000 0.000000 0.177879
O O11 0.605630 0.995910 0.209257
O O12 0.809513 0.996067 0.566247
O O13 0.826821 0.794548 0.697907
O O14 0.333811 0.229509 0.675958
O O15 0.285452 0.138250 0.887311
O O16 0.713340 0.599693 0.346234
O O17 0.637383 0.745178 0.428368
#
# Coordination Sequence:
#
# PCOD9366093 Si02
#       8
#     8   8   8   8   8   8   8   8
#     4  11  26  38  65  91 131 175 211 277 332 379
#     4   9  19  39  65  92 124 166 212 267 334 392
#     4  10  19  40  69  90 123 174 214 265 337 400
#     4  11  21  43  62  88 128 168 224 259 321 411
#     4  11  22  40  62  92 131 165 216 273 326 393
#     4  11  24  40  60  94 124 172 219 264 327 391
#     4   9  20  39  63  87 124 168 218 265 315 399
#     4  10  21  41  60  90 134 161 214 278 315 390
#
# _framework density 24.735745000000001
#
# number of rings (size 3 to 8) (size 9 to 14) (size 15 to 20)
#    0.000    1.750    5.000    0.000    5.250    3.000 
#    0.000    0.000    0.000    0.000    0.000    0.000 
#    0.000    0.000    0.000    0.000    0.000    0.000 
#
# Total GULP energy -178204.094137 kJ/mol
# GULP energy per Si atom -5568.877942 kJ/mol
# Density = 2.467945 g / cm^3
# Si number density = 24.735745 Si / 1000 Ang^3
#
#
#
# Elastic Constant Matrix: (Units=GPa)
#
#
# Indices 1 2 3 4 5 6 
#
# 1 126.7585 45.0893 -19.9281 0.0000 0.0000 0.0000
# 2 45.0893 173.3631 20.6703 0.0000 0.0000 0.0000
# 3 -19.9281 20.6703 68.2316 0.0000 0.0000 0.0000
# 4 0.0000 0.0000 0.0000 44.9313 0.0000 0.0000
# 5 0.0000 0.0000 0.0000 0.0000 10.7123 0.0000
# 6 0.0000 0.0000 0.0000 0.0000 0.0000 20.6446
#
#
#
# Elastic Compliance Matrix: (Units=1/GPa)
#
#
# Indices 1 2 3 4 5 6 
#
# 1 0.009497 -0.002906 0.003654 0.000000 0.000000 0.000000
# 2 -0.002906 0.006873 -0.002931 0.000000 0.000000 0.000000
# 3 0.003654 -0.002931 0.016611 0.000000 0.000000 0.000000
# 4 0.000000 0.000000 0.000000 0.022256 0.000000 0.000000
# 5 0.000000 0.000000 0.000000 0.000000 0.093350 0.000000
# 6 0.000000 0.000000 0.000000 0.000000 0.000000 0.048439
#
#
# Mechanical properties :
#
#
# Convention : Reuss Voigt Hill
#
# Bulk Modulus (GPa) = 34.94502 51.11292 43.02897
# Shear Modulus (GPa) = 23.70444 36.75910 30.23177
#
# Velocity S-wave (km/s) = 3.09901 3.85914 3.49978
# Velocity P-wave (km/s) = 5.19261 6.36912 5.81072
#
# Compressibility (1/GPa) = 0.02861638
#
# Stress axis : x y z
#
# Youngs Moduli (GPa) = 105.29547 145.48752 60.20074
#
# Poissons Ratio (x) = 0.42275 -0.21998
# Poissons Ratio (y) = 0.30596 0.17644
# Poissons Ratio (z) = -0.38475 0.42641
#
# Static dielectric constant tensor:
#      x y z
#    x 2.105350 0.000000 0.000000 
#    y 0.000000 2.105470 0.000000 
#    z 0.000000 0.000000 2.156620 
# 
# From -- ./inp_files/6467.got.cif
#   From: 2010.05.17/outbox.cif.g08.bks.cpg/sg41_4_cif.got.tgz:6467.got - 2010.06.03 18:54:24.
