data_PCOD9366205
_publ_section_title
;
Structure prediction by ZEFSAII (Michael W. Deem and Ramdas Pophale) SiO2 
 PCOD9366205
Probable space group: A B A 2
;
_chemical_formula_sum "Si O2"
_cell_formula_units_Z 64
_cell_length_a 9.020590
_cell_length_b 18.449101
_cell_length_c 17.755668
_cell_angle_alpha 90.000000
_cell_angle_beta 90.000000
_cell_angle_gamma 90.000000
_cell_volume 2954.929802
_symmetry_space_group_name_H-M "A B A 2"
_symmetry_group_IT_number 41
_symmetry_cell_setting 'orthorhombic'
loop_
_space_group_symop_operation_xyz
x,y,z
-x,-y,z
1/2-x,y,1/2+z
1/2+x,-y,1/2+z
x,1/2+y,1/2+z
-x,1/2-y,1/2+z
1/2-x,1/2+y,z
1/2+x,1/2-y,z
loop_
_atom_site_type_symbol
_atom_site_label
_atom_site_fract_x
_atom_site_fract_y
_atom_site_fract_z
Si Si1 0.324556 0.289292 0.245640
Si Si2 0.586215 0.936041 0.928940
Si Si3 0.419756 0.189814 0.110142
Si Si4 0.089655 0.437332 0.657511
Si Si5 0.417941 0.307961 0.987736
Si Si6 0.838165 0.402416 0.530831
Si Si7 0.659540 0.595371 0.559478
Si Si8 0.906118 0.287004 0.844799
O O1 0.376867 0.231841 0.183966
O O2 0.357744 0.367951 0.206397
O O3 0.423671 0.289214 0.320418
O O4 0.172840 0.252774 0.274658
O O5 0.624538 0.868464 0.875208
O O6 0.500000 0.000000 0.886223
O O7 0.735730 0.953474 0.977288
O O8 0.461147 0.920625 0.994213
O O9 0.280911 0.147672 0.073869
O O10 0.557161 0.136470 0.120086
O O11 0.468359 0.249863 0.049726
O O12 0.237825 0.458934 0.609276
O O13 0.000000 0.500000 0.701608
O O14 0.963086 0.421045 0.593730
O O15 0.375212 0.264069 0.914989
O O16 0.558088 0.358680 0.972711
O O17 0.280339 0.351983 0.021701
#
# Coordination Sequence:
#
# PCOD9366205 Si02
#       8
#     8   8   8   8   8   8   8   8
#     4  12  25  38  59  93 128 166 214 270 336 397
#     4  11  23  39  60  89 129 170 213 265 334 410
#     4  11  20  36  66  89 126 156 213 276 327 375
#     4  11  23  39  60  89 129 170 213 265 334 410
#     4  11  20  36  66  89 126 156 213 276 327 375
#     4  10  20  36  64  95 118 161 214 273 326 387
#     4  10  20  36  64  95 118 161 214 273 326 387
#     4  12  25  38  59  93 128 166 214 270 336 397
#
# _framework density 21.658721
#
# number of rings (size 3 to 8) (size 9 to 14) (size 15 to 20)
#    0.000    1.000    5.000    4.500    0.000    0.500 
#    0.000    0.000    0.000    0.000    0.000    1.750 
#    0.000    0.000    0.000    0.000    0.000    0.000 
#
# Total GULP energy -178225.100702 kJ/mol
# GULP energy per Si atom -5569.534397 kJ/mol
# Density = 2.160943 g / cm^3
# Si number density = 21.658721 Si / 1000 Ang^3
#
#
#
# Elastic Constant Matrix: (Units=GPa)
#
#
# Indices 1 2 3 4 5 6 
#
# 1 114.7975 33.7478 4.0097 0.0000 0.0000 0.0000
# 2 33.7478 66.2965 20.8238 0.0000 0.0000 0.0000
# 3 4.0097 20.8238 56.0474 0.0000 0.0000 0.0000
# 4 0.0000 0.0000 0.0000 1.6801 0.0000 0.0000
# 5 0.0000 0.0000 0.0000 0.0000 -55.7498 0.0000
# 6 0.0000 0.0000 0.0000 0.0000 0.0000 26.1190
#
#
#
# Elastic Compliance Matrix: (Units=1/GPa)
#
#
# Indices 1 2 3 4 5 6 
#
# 1 0.010337 -0.005694 0.001376 0.000000 0.000000 0.000000
# 2 -0.005694 0.020213 -0.007103 0.000000 0.000000 0.000000
# 3 0.001376 -0.007103 0.020383 0.000000 0.000000 0.000000
# 4 0.000000 0.000000 0.000000 0.595190 0.000000 0.000000
# 5 0.000000 0.000000 0.000000 0.000000 -0.017937 0.000000
# 6 0.000000 0.000000 0.000000 0.000000 0.000000 0.038286
#
#
# Mechanical properties :
#
#
# Convention : Reuss Voigt Hill
#
# Bulk Modulus (GPa) = 35.59831 39.36710 37.48271
# Shear Modulus (GPa) = 7.15638 6.31388 6.73513
#
# Velocity S-wave (km/s) = 1.81971 1.70924 1.76534
# Velocity P-wave (km/s) = 4.57021 4.70222 4.63668
#
# Compressibility (1/GPa) = 0.02809122
#
# Stress axis : x y z
#
# Youngs Moduli (GPa) = 96.74112 49.47243 49.06166
#
# Poissons Ratio (x) = 0.28170 -0.06751
# Poissons Ratio (y) = 0.55086 0.34847
# Poissons Ratio (z) = -0.13313 0.35139
#
# Static dielectric constant tensor:
#      x y z
#    x 1.834060 0.000000 0.000000 
#    y 0.000000 2.150240 0.000000 
#    z 0.000000 0.000000 1.807720 
# 
# From -- ./inp_files/9844.got.cif
#   From: 2010.05.17/outbox.cif.g08.bks.cpg/sg41_5_cif.got.tgz:9844.got - 2010.06.03 18:54:24.
