data_PCOD9366350
_publ_section_title
;
Structure prediction by ZEFSAII (Michael W. Deem and Ramdas Pophale) SiO2 
 PCOD9366350
Probable space group: A B A 2
;
_chemical_formula_sum "Si O2"
_cell_formula_units_Z 48
_cell_length_a 14.689617
_cell_length_b 15.508817
_cell_length_c 8.268140
_cell_angle_alpha 90.000000
_cell_angle_beta 90.000000
_cell_angle_gamma 90.000000
_cell_volume 1883.635929
_symmetry_space_group_name_H-M "A B A 2"
_symmetry_group_IT_number 41
_symmetry_cell_setting 'orthorhombic'
loop_
_space_group_symop_operation_xyz
x,y,z
-x,-y,z
1/2-x,y,1/2+z
1/2+x,-y,1/2+z
x,1/2+y,1/2+z
-x,1/2-y,1/2+z
1/2-x,1/2+y,z
1/2+x,1/2-y,z
loop_
_atom_site_type_symbol
_atom_site_label
_atom_site_fract_x
_atom_site_fract_y
_atom_site_fract_z
Si Si1 0.728967 0.278477 0.715530
Si Si2 0.071843 0.169844 0.553194
Si Si3 0.573928 0.427814 0.898134
Si Si4 0.887396 0.256530 0.532793
Si Si5 0.767161 0.977614 0.102171
Si Si6 0.390298 0.007906 0.892437
O O1 0.642608 0.255427 0.600303
O O2 0.825234 0.234280 0.685047
O O3 0.746555 0.379313 0.664185
O O4 0.686823 0.263243 0.890182
O O5 0.062156 0.115818 0.722045
O O6 0.116334 0.111253 0.416534
O O7 0.971271 0.195130 0.502081
O O8 0.500000 0.500000 0.919636
O O9 0.567122 0.351249 0.029526
O O10 0.672549 0.468020 0.938441
O O11 0.836285 0.019250 0.232040
O O12 0.672624 0.022246 0.045260
O O13 0.500000 0.000000 0.896693
#
# Coordination Sequence:
#
# PCOD9366350 Si02
#       6
#     8   8   8   8   8   8
#     4   9  19  37  59  82 117 163 205 247 313 394
#     4  10  21  38  61  91 125 164 212 270 325 385
#     4  10  21  40  66  94 126 170 219 271 328 393
#     4  10  21  37  61  89 118 160 209 260 313 381
#     4  10  20  39  65  90 122 171 220 261 325 405
#     4  11  22  39  62  92 128 170 221 273 328 398
#
# _framework density 25.482631999999999
#
# number of rings (size 3 to 8) (size 9 to 14) (size 15 to 20)
#    0.000    2.000    0.000    6.000    0.000    8.000 
#    0.000    5.833    0.000    0.000    0.000    0.000 
#    0.000    0.000    0.000    0.000    0.000    0.000 
#
# Total GULP energy -133874.497267 kJ/mol
# GULP energy per Si atom -5578.104053 kJ/mol
# Density = 2.542463 g / cm^3
# Si number density = 25.482632 Si / 1000 Ang^3
#
#
#
# Elastic Constant Matrix: (Units=GPa)
#
#
# Indices 1 2 3 4 5 6 
#
# 1 193.8822 30.7268 62.2550 0.0000 0.0000 0.0000
# 2 30.7268 22.2556 12.1450 0.0000 0.0000 0.0000
# 3 62.2550 12.1450 108.7972 0.0000 0.0000 0.0000
# 4 0.0000 0.0000 0.0000 8.7441 0.0000 0.0000
# 5 0.0000 0.0000 0.0000 0.0000 43.4020 0.0000
# 6 0.0000 0.0000 0.0000 0.0000 0.0000 47.3927
#
#
#
# Elastic Compliance Matrix: (Units=1/GPa)
#
#
# Indices 1 2 3 4 5 6 
#
# 1 0.007621 -0.008671 -0.003393 0.000000 0.000000 0.000000
# 2 -0.008671 0.057712 -0.001481 0.000000 0.000000 0.000000
# 3 -0.003393 -0.001481 0.011298 0.000000 0.000000 0.000000
# 4 0.000000 0.000000 0.000000 0.114363 0.000000 0.000000
# 5 0.000000 0.000000 0.000000 0.000000 0.023040 0.000000
# 6 0.000000 0.000000 0.000000 0.000000 0.000000 0.021100
#
#
# Mechanical properties :
#
#
# Convention : Reuss Voigt Hill
#
# Bulk Modulus (GPa) = 20.18487 59.46541 39.82514
# Shear Modulus (GPa) = 17.93794 34.56164 26.24979
#
# Velocity S-wave (km/s) = 2.65604 3.68677 3.21301
# Velocity P-wave (km/s) = 4.16465 6.44277 5.42465
#
# Compressibility (1/GPa) = 0.04954207
#
# Stress axis : x y z
#
# Youngs Moduli (GPa) = 131.20831 17.32745 88.50864
#
# Poissons Ratio (x) = 0.15024 0.30033
# Poissons Ratio (y) = 1.13768 0.13107
# Poissons Ratio (z) = 0.44521 0.02566
#
# Static dielectric constant tensor:
#      x y z
#    x 1.934380 0.000000 0.000000 
#    y 0.000000 2.082230 0.000000 
#    z 0.000000 0.000000 2.120880 
# 
# From -- ./inp_files/2543.got.cif
#   From: 2010.05.17/outbox.cif.g08.bks.cpg/sg41_2_cif.got.tgz:2543.got - 2010.06.03 18:54:24.
