data_PCOD9366668
_publ_section_title
;
Structure prediction by ZEFSAII (Michael W. Deem and Ramdas Pophale) SiO2 
 PCOD9366668
Probable space group: A B A 2
;
_chemical_formula_sum "Si O2"
_cell_formula_units_Z 44
_cell_length_a 29.539938
_cell_length_b 13.437301
_cell_length_c 4.893211
_cell_angle_alpha 90.000000
_cell_angle_beta 90.000000
_cell_angle_gamma 90.000000
_cell_volume 1942.296683
_symmetry_space_group_name_H-M "A B A 2"
_symmetry_group_IT_number 41
_symmetry_cell_setting 'orthorhombic'
loop_
_space_group_symop_operation_xyz
x,y,z
-x,-y,z
1/2-x,y,1/2+z
1/2+x,-y,1/2+z
x,1/2+y,1/2+z
-x,1/2-y,1/2+z
1/2-x,1/2+y,z
1/2+x,1/2-y,z
loop_
_atom_site_type_symbol
_atom_site_label
_atom_site_fract_x
_atom_site_fract_y
_atom_site_fract_z
Si Si1 0.085406 0.387660 0.311900
Si Si2 0.854453 0.578718 0.828560
Si Si3 0.779163 0.441238 0.581299
Si Si4 0.974055 0.787082 0.160401
Si Si5 0.278435 0.794801 0.123224
Si Si6 0.000000 0.000000 0.061466
O O1 0.117696 0.378959 0.573423
O O2 0.070547 0.276362 0.224448
O O3 0.040494 0.448411 0.394307
O O4 0.109476 0.445506 0.064572
O O5 0.823153 0.493345 0.700261
O O6 0.820741 0.652219 0.988722
O O7 0.763933 0.466491 0.274800
O O8 0.785288 0.323109 0.601503
O O9 0.012954 0.737527 0.348714
O O10 0.977107 0.905173 0.212867
O O11 0.265329 0.819078 0.433691
#
# Coordination Sequence:
#
# PCOD9366668 Si02
#       6
#     8   8   8   8   8   4
#     4  11  25  41  66  97 128 168 217 266 329 390
#     4  12  23  40  62  96 132 163 208 270 320 374
#     4  10  21  39  64  93 127 171 215 250 308 388
#     4  10  22  43  67  92 120 162 217 259 312 389
#     4  10  21  39  62  87 123 169 208 254 315 374
#     4  10  24  48  70  88 128 178 214 272 336 382
#
# _framework density 22.653594999999999
#
# number of rings (size 3 to 8) (size 9 to 14) (size 15 to 20)
#    0.000    1.455    0.000    5.455    0.000    8.000 
#    0.000    9.091    0.000    0.000    0.000    0.000 
#    0.000    0.000    0.000    0.000    0.000    0.000 
#
# Total GULP energy -123029.412703 kJ/mol
# GULP energy per Si atom -5592.246032 kJ/mol
# Density = 2.260203 g / cm^3
# Si number density = 22.653595 Si / 1000 Ang^3
#
#
#
# Elastic Constant Matrix: (Units=GPa)
#
#
# Indices 1 2 3 4 5 6 
#
# 1 83.1274 25.7813 21.5660 0.0000 0.0000 0.0000
# 2 25.7813 127.0030 -2.2506 0.0000 0.0000 0.0000
# 3 21.5660 -2.2506 89.2428 0.0000 0.0000 0.0000
# 4 0.0000 0.0000 0.0000 30.3701 0.0000 0.0000
# 5 0.0000 0.0000 0.0000 0.0000 35.4785 0.0000
# 6 0.0000 0.0000 0.0000 0.0000 0.0000 -3.7809
#
#
#
# Elastic Compliance Matrix: (Units=1/GPa)
#
#
# Indices 1 2 3 4 5 6 
#
# 1 0.013801 -0.002862 -0.003407 0.000000 0.000000 0.000000
# 2 -0.002862 0.008471 0.000905 0.000000 0.000000 0.000000
# 3 -0.003407 0.000905 0.012052 0.000000 0.000000 0.000000
# 4 0.000000 0.000000 0.000000 0.032927 0.000000 0.000000
# 5 0.000000 0.000000 0.000000 0.000000 0.028186 0.000000
# 6 0.000000 0.000000 0.000000 0.000000 0.000000 -0.264488
#
#
# Mechanical properties :
#
#
# Convention : Reuss Voigt Hill
#
# Bulk Modulus (GPa) = 42.38085 43.28521 42.83303
# Shear Modulus (GPa) = -33.23200 29.36531 -1.93334
#
# Velocity S-wave (km/s) = -3.83425 3.60429 -0.92482
# Velocity P-wave (km/s) = 0.92366 6.03905 4.22001
#
# Compressibility (1/GPa) = 0.02359556
#
# Stress axis : x y z
#
# Youngs Moduli (GPa) = 72.45676 118.05188 82.97642
#
# Poissons Ratio (x) = 0.33787 0.28273
# Poissons Ratio (y) = 0.20737 -0.07511
# Poissons Ratio (z) = 0.24689 -0.10687
#
# Static dielectric constant tensor:
#      x y z
#    x 1.843220 0.000000 0.000000 
#    y 0.000000 1.855330 0.000000 
#    z 0.000000 0.000000 1.828870 
# 
# From -- ./inp_files/1106.got.cif
#   From: 2010.05.17/outbox.cif.g08.bks.cpg/sg41_1_cif.got.tgz:1106.got - 2010.06.03 18:54:24.
