data_PCOD9366478
_publ_section_title
;
Structure prediction by ZEFSAII (Michael W. Deem and Ramdas Pophale) SiO2 
 PCOD9366478
Probable space group: A B A 2
;
_chemical_formula_sum "Si O2"
_cell_formula_units_Z 60
_cell_length_a 21.421218
_cell_length_b 24.881254
_cell_length_c 5.289443
_cell_angle_alpha 90.000000
_cell_angle_beta 90.000000
_cell_angle_gamma 90.000000
_cell_volume 2819.203119
_symmetry_space_group_name_H-M "A B A 2"
_symmetry_group_IT_number 41
_symmetry_cell_setting 'orthorhombic'
loop_
_space_group_symop_operation_xyz
x,y,z
-x,-y,z
1/2-x,y,1/2+z
1/2+x,-y,1/2+z
x,1/2+y,1/2+z
-x,1/2-y,1/2+z
1/2-x,1/2+y,z
1/2+x,1/2-y,z
loop_
_atom_site_type_symbol
_atom_site_label
_atom_site_fract_x
_atom_site_fract_y
_atom_site_fract_z
Si Si1 0.785907 0.616301 0.976000
Si Si2 0.101467 0.029438 0.840855
Si Si3 0.947641 0.369397 0.095756
Si Si4 0.210666 0.581984 0.601815
Si Si5 0.888833 0.823408 0.089839
Si Si6 0.500000 0.500000 0.170786
Si Si7 0.785623 0.745574 0.006967
Si Si8 0.577252 0.074086 0.036503
O O1 0.746615 0.596895 0.734379
O O2 0.857914 0.599959 0.956181
O O3 0.784000 0.681119 0.992217
O O4 0.093081 0.074647 0.622809
O O5 0.161672 0.037086 0.012065
O O6 0.093872 0.968354 0.756221
O O7 0.040224 0.040829 0.006532
O O8 0.930050 0.335434 0.343583
O O9 0.925551 0.338224 0.844884
O O10 0.020668 0.385048 0.091313
O O11 0.236502 0.579188 0.885027
O O12 0.170393 0.636105 0.574647
O O13 0.854809 0.766148 0.072275
O O14 0.547607 0.534257 0.331922
O O15 0.739790 0.764411 0.233828
#
# Coordination Sequence:
#
# PCOD9366478 Si02
#       8
#     8   8   8   8   8   4   8   8
#     4  10  26  46  68  98 128 168 220 269 315 378
#     4  11  24  38  61  87 124 172 217 254 304 393
#     4  11  22  39  60  98 124 164 214 263 314 383
#     4  11  23  36  53  86 124 152 194 256 316 359
#     4  11  22  37  65  92 128 162 209 261 323 391
#     4  12  22  42  66  90 118 178 228 250 318 388
#     4  10  20  42  69  93 126 172 217 257 324 397
#     4  12  24  41  68  89 130 175 217 264 319 380
#
# _framework density 21.282612
#
# number of rings (size 3 to 8) (size 9 to 14) (size 15 to 20)
#    0.000    1.067    2.667    4.800    3.733    1.067 
#    0.000    1.333    0.000    0.000    0.000    0.000 
#    0.000    0.000    0.000    0.000    0.000    0.000 
#
# Total GULP energy -167635.371281 kJ/mol
# GULP energy per Si atom -5587.845709 kJ/mol
# Density = 2.123417 g / cm^3
# Si number density = 21.282612 Si / 1000 Ang^3
#
#
#
# Elastic Constant Matrix: (Units=GPa)
#
#
# Indices 1 2 3 4 5 6 
#
# 1 118.7835 13.5066 40.7155 0.0000 0.0000 0.0000
# 2 13.5066 9.6521 19.3548 0.0000 0.0000 0.0000
# 3 40.7155 19.3548 124.5654 0.0000 0.0000 0.0000
# 4 0.0000 0.0000 0.0000 65.3830 0.0000 0.0000
# 5 0.0000 0.0000 0.0000 0.0000 83.7710 0.0000
# 6 0.0000 0.0000 0.0000 0.0000 0.0000 42.8959
#
#
#
# Elastic Compliance Matrix: (Units=1/GPa)
#
#
# Indices 1 2 3 4 5 6 
#
# 1 0.010234 -0.011058 -0.001627 0.000000 0.000000 0.000000
# 2 -0.011058 0.162444 -0.021626 0.000000 0.000000 0.000000
# 3 -0.001627 -0.021626 0.011920 0.000000 0.000000 0.000000
# 4 0.000000 0.000000 0.000000 0.015295 0.000000 0.000000
# 5 0.000000 0.000000 0.000000 0.000000 0.011937 0.000000
# 6 0.000000 0.000000 0.000000 0.000000 0.000000 0.023312
#
#
# Mechanical properties :
#
#
# Convention : Reuss Voigt Hill
#
# Bulk Modulus (GPa) = 8.62250 44.46164 26.54207
# Shear Modulus (GPa) = 14.60186 50.37159 32.48672
#
# Velocity S-wave (km/s) = 2.62218 4.87025 3.91121
# Velocity P-wave (km/s) = 3.63703 7.24998 5.73542
#
# Compressibility (1/GPa) = 0.11597569
#
# Stress axis : x y z
#
# Youngs Moduli (GPa) = 97.71632 6.15596 83.89399
#
# Poissons Ratio (x) = 0.06808 0.13647
# Poissons Ratio (y) = 1.08059 1.81427
# Poissons Ratio (z) = 0.15896 0.13313
#
# Static dielectric constant tensor:
#      x y z
#    x 1.760510 0.000000 0.000000 
#    y 0.000000 1.785170 0.000000 
#    z 0.000000 0.000000 1.831710 
# 
# From -- ./inp_files/795.got.cif
#   From: 2010.05.17/outbox.cif.g08.bks.cpg/sg41_1_cif.got.tgz:795.got - 2010.06.03 18:54:24.
