data_PCOD9366314
_publ_section_title
;
Structure prediction by ZEFSAII (Michael W. Deem and Ramdas Pophale) SiO2 
 PCOD9366314
Probable space group: A B A 2
;
_chemical_formula_sum "Si O2"
_cell_formula_units_Z 48
_cell_length_a 8.427887
_cell_length_b 14.220392
_cell_length_c 16.658692
_cell_angle_alpha 90.000000
_cell_angle_beta 90.000000
_cell_angle_gamma 90.000000
_cell_volume 1996.508534
_symmetry_space_group_name_H-M "A B A 2"
_symmetry_group_IT_number 41
_symmetry_cell_setting 'orthorhombic'
loop_
_space_group_symop_operation_xyz
x,y,z
-x,-y,z
1/2-x,y,1/2+z
1/2+x,-y,1/2+z
x,1/2+y,1/2+z
-x,1/2-y,1/2+z
1/2-x,1/2+y,z
1/2+x,1/2-y,z
loop_
_atom_site_type_symbol
_atom_site_label
_atom_site_fract_x
_atom_site_fract_y
_atom_site_fract_z
Si Si1 0.331803 0.035066 0.093780
Si Si2 0.893705 0.588208 0.494255
Si Si3 0.224217 0.933077 0.834863
Si Si4 0.656995 0.187944 0.698630
Si Si5 0.127788 0.206648 0.084488
Si Si6 0.369530 0.108070 0.272133
O O1 0.274932 0.138025 0.066041
O O2 0.351293 0.051303 0.188495
O O3 0.500000 0.000000 0.061683
O O4 0.193120 0.964234 0.068300
O O5 0.765347 0.606367 0.424796
O O6 0.000000 0.500000 0.463277
O O7 0.003858 0.678640 0.513101
O O8 0.329867 0.890819 0.765375
O O9 0.048143 0.900058 0.805143
O O10 0.235193 0.046397 0.832907
O O11 0.487657 0.176795 0.656987
O O12 0.789827 0.202633 0.626899
O O13 0.666644 0.285671 0.748662
#
# Coordination Sequence:
#
# PCOD9366314 Si02
#       6
#     8   8   8   8   8   8
#     4  10  20  39  66  95 123 176 226 278 335 412
#     4  10  21  40  63  97 135 175 227 283 347 400
#     4  11  20  40  70  91 137 180 219 286 349 402
#     4  11  22  42  64 102 129 176 239 278 336 417
#     4  10  23  37  64  94 134 173 226 284 326 413
#     4  10  20  38  70  90 125 180 219 276 334 409
#
# _framework density 24.041971
#
# number of rings (size 3 to 8) (size 9 to 14) (size 15 to 20)
#    0.000    1.667    5.000    1.000    0.000    1.333 
#    3.000    3.333    0.000    0.000    0.000    0.000 
#    0.000    0.000    0.000    0.000    0.000    0.000 
#
# Total GULP energy -133632.134960 kJ/mol
# GULP energy per Si atom -5568.005623 kJ/mol
# Density = 2.398725 g / cm^3
# Si number density = 24.041971 Si / 1000 Ang^3
#
#
#
# Elastic Constant Matrix: (Units=GPa)
#
#
# Indices 1 2 3 4 5 6 
#
# 1 54.5135 -9.9563 2.1317 0.0000 0.0000 0.0000
# 2 -9.9563 70.2847 7.1863 0.0000 0.0000 0.0000
# 3 2.1317 7.1863 40.7689 0.0000 0.0000 0.0000
# 4 0.0000 0.0000 0.0000 20.2696 0.0000 0.0000
# 5 0.0000 0.0000 0.0000 0.0000 -15.9329 0.0000
# 6 0.0000 0.0000 0.0000 0.0000 0.0000 25.3697
#
#
#
# Elastic Compliance Matrix: (Units=1/GPa)
#
#
# Indices 1 2 3 4 5 6 
#
# 1 0.018920 0.002832 -0.001488 0.000000 0.000000 0.000000
# 2 0.002832 0.014913 -0.002777 0.000000 0.000000 0.000000
# 3 -0.001488 -0.002777 0.025096 0.000000 0.000000 0.000000
# 4 0.000000 0.000000 0.000000 0.049335 0.000000 0.000000
# 5 0.000000 0.000000 0.000000 0.000000 -0.062763 0.000000
# 6 0.000000 0.000000 0.000000 0.000000 0.000000 0.039417
#
#
# Mechanical properties :
#
#
# Convention : Reuss Voigt Hill
#
# Bulk Modulus (GPa) = 17.83729 18.25450 18.04590
# Shear Modulus (GPa) = 46.96131 17.02164 31.99148
#
# Velocity S-wave (km/s) = 4.42442 2.66371 3.65177
# Velocity P-wave (km/s) = 5.79102 4.13155 5.03019
#
# Compressibility (1/GPa) = 0.05606232
#
# Stress axis : x y z
#
# Youngs Moduli (GPa) = 52.85534 67.05575 39.84737
#
# Poissons Ratio (x) = -0.18992 0.05931
# Poissons Ratio (y) = -0.14970 0.11065
# Poissons Ratio (z) = 0.07867 0.18620
#
# Static dielectric constant tensor:
#      x y z
#    x 1.963060 0.000000 0.000000 
#    y 0.000000 2.009220 0.000000 
#    z 0.000000 0.000000 1.951180 
# 
# From -- ./inp_files/7329.got.cif
#   From: 2010.05.17/outbox.cif.g08.bks.cpg/sg41_4_cif.got.tgz:7329.got - 2010.06.03 18:54:24.
