data_PCOD9366109
_publ_section_title
;
Structure prediction by ZEFSAII (Michael W. Deem and Ramdas Pophale) SiO2 
 PCOD9366109
Probable space group: A B A 2
;
_chemical_formula_sum "Si O2"
_cell_formula_units_Z 56
_cell_length_a 31.915216
_cell_length_b 13.693813
_cell_length_c 5.492707
_cell_angle_alpha 90.000000
_cell_angle_beta 90.000000
_cell_angle_gamma 90.000000
_cell_volume 2400.538159
_symmetry_space_group_name_H-M "A B A 2"
_symmetry_group_IT_number 41
_symmetry_cell_setting 'orthorhombic'
loop_
_space_group_symop_operation_xyz
x,y,z
-x,-y,z
1/2-x,y,1/2+z
1/2+x,-y,1/2+z
x,1/2+y,1/2+z
-x,1/2-y,1/2+z
1/2-x,1/2+y,z
1/2+x,1/2-y,z
loop_
_atom_site_type_symbol
_atom_site_label
_atom_site_fract_x
_atom_site_fract_y
_atom_site_fract_z
Si Si1 0.909684 0.883064 0.593710
Si Si2 0.910669 0.582485 0.294969
Si Si3 0.822249 0.150710 0.033102
Si Si4 0.119405 0.793472 0.413953
Si Si5 0.525856 0.751604 0.895634
Si Si6 0.773092 0.460022 0.485433
Si Si7 0.838756 0.841061 0.277608
O O1 0.900216 0.779546 0.721889
O O2 0.947424 0.852131 0.419474
O O3 0.865653 0.907695 0.459341
O O4 0.919711 0.968162 0.782822
O O5 0.865068 0.604168 0.415908
O O6 0.945488 0.653620 0.403031
O O7 0.906967 0.616861 0.011841
O O8 0.813003 0.256936 0.918657
O O9 0.836346 0.169310 0.310280
O O10 0.785879 0.073441 0.001715
O O11 0.126840 0.723913 0.642133
O O12 0.503307 0.750449 0.634290
O O13 0.759467 0.439716 0.207949
O O14 0.812854 0.398482 0.577453
#
# Coordination Sequence:
#
# PCOD9366109 Si02
#       7
#     8   8   8   8   8   8   8
#     4  11  23  44  76 104 137 197 244 295 354 440
#     4  11  23  44  76 104 137 197 244 295 354 440
#     4  10  23  43  75 101 138 193 248 296 356 445
#     4  10  19  42  72 107 136 178 262 302 335 426
#     4  12  27  50  70 109 158 182 234 310 371 426
#     4  12  30  46  66 110 153 188 241 314 370 426
#     4  10  23  43  75 101 138 193 248 296 356 445
#
# _framework density 23.328104
#
# number of rings (size 3 to 8) (size 9 to 14) (size 15 to 20)
#    0.000    1.143    4.286    2.571   10.000    1.714 
#    0.000    4.286    0.000    0.000    0.000    0.000 
#    0.000    0.000    0.000    0.000    0.000    0.000 
#
# Total GULP energy -156356.786744 kJ/mol
# GULP energy per Si atom -5584.170955 kJ/mol
# Density = 2.327501 g / cm^3
# Si number density = 23.328104 Si / 1000 Ang^3
#
#
#
# Elastic Constant Matrix: (Units=GPa)
#
#
# Indices 1 2 3 4 5 6 
#
# 1 45.1758 21.2023 12.1647 0.0000 0.0000 0.0000
# 2 21.2023 92.0504 4.5754 0.0000 0.0000 0.0000
# 3 12.1647 4.5754 67.7045 0.0000 0.0000 0.0000
# 4 0.0000 0.0000 0.0000 29.6287 0.0000 0.0000
# 5 0.0000 0.0000 0.0000 0.0000 46.5808 0.0000
# 6 0.0000 0.0000 0.0000 0.0000 0.0000 30.3635
#
#
#
# Elastic Compliance Matrix: (Units=1/GPa)
#
#
# Indices 1 2 3 4 5 6 
#
# 1 0.025999 -0.005776 -0.004281 0.000000 0.000000 0.000000
# 2 -0.005776 0.012183 0.000214 0.000000 0.000000 0.000000
# 3 -0.004281 0.000214 0.015525 0.000000 0.000000 0.000000
# 4 0.000000 0.000000 0.000000 0.033751 0.000000 0.000000
# 5 0.000000 0.000000 0.000000 0.000000 0.021468 0.000000
# 6 0.000000 0.000000 0.000000 0.000000 0.000000 0.032934
#
#
# Mechanical properties :
#
#
# Convention : Reuss Voigt Hill
#
# Bulk Modulus (GPa) = 29.39222 31.20171 30.29696
# Shear Modulus (GPa) = 28.92074 32.44715 30.68395
#
# Velocity S-wave (km/s) = 3.52481 3.73353 3.63067
# Velocity P-wave (km/s) = 5.40301 5.65596 5.53093
#
# Compressibility (1/GPa) = 0.03402261
#
# Stress axis : x y z
#
# Youngs Moduli (GPa) = 38.46265 82.07954 64.41318
#
# Poissons Ratio (x) = 0.47407 0.27576
# Poissons Ratio (y) = 0.22215 -0.01381
# Poissons Ratio (z) = 0.16466 -0.01760
#
# Static dielectric constant tensor:
#      x y z
#    x 1.951890 0.000000 0.000000 
#    y 0.000000 1.845430 0.000000 
#    z 0.000000 0.000000 1.940450 
# 
# From -- ./inp_files/1339.got.cif
#   From: 2010.05.17/outbox.cif.g08.bks.cpg/sg41_1_cif.got.tgz:1339.got - 2010.06.03 18:54:24.
