data_PCOD9366923
_publ_section_title
;
Structure prediction by ZEFSAII (Michael W. Deem and Ramdas Pophale) SiO2 
 PCOD9366923
Probable space group: A B A 2
;
_chemical_formula_sum "Si O2"
_cell_formula_units_Z 48
_cell_length_a 9.862292
_cell_length_b 17.567366
_cell_length_c 12.318136
_cell_angle_alpha 90.000000
_cell_angle_beta 90.000000
_cell_angle_gamma 90.000000
_cell_volume 2134.172409
_symmetry_space_group_name_H-M "A B A 2"
_symmetry_group_IT_number 41
_symmetry_cell_setting 'orthorhombic'
loop_
_space_group_symop_operation_xyz
x,y,z
-x,-y,z
1/2-x,y,1/2+z
1/2+x,-y,1/2+z
x,1/2+y,1/2+z
-x,1/2-y,1/2+z
1/2-x,1/2+y,z
1/2+x,1/2-y,z
loop_
_atom_site_type_symbol
_atom_site_label
_atom_site_fract_x
_atom_site_fract_y
_atom_site_fract_z
Si Si1 0.273852 0.495253 0.205830
Si Si2 0.123421 0.831631 0.187481
Si Si3 0.000000 0.500000 0.887235
Si Si4 0.068798 0.835052 0.433077
Si Si5 0.297271 0.233284 0.018307
Si Si6 0.905561 0.900112 0.023114
Si Si7 0.000000 0.500000 0.330700
O O1 0.278705 0.404232 0.193009
O O2 0.376521 0.516548 0.304245
O O3 0.330910 0.535041 0.096846
O O4 0.126620 0.512258 0.251456
O O5 0.060052 0.823226 0.304659
O O6 0.009325 0.857970 0.102902
O O7 0.195317 0.755883 0.144968
O O8 0.041144 0.424694 0.953324
O O9 0.216575 0.804797 0.467519
O O10 0.949723 0.785220 0.484209
O O11 0.209275 0.159746 0.991167
O O12 0.985486 0.931377 0.918604
#
# Coordination Sequence:
#
# PCOD9366923 Si02
#       7
#     8   8   4   8   8   8   4
#     4  11  23  47  76 106 142 196 242 315 369 436
#     4  11  25  46  70 101 149 188 238 303 367 433
#     4  10  21  44  71  96 142 192 237 300 369 430
#     4  11  26  45  72 102 144 192 245 297 374 439
#     4  12  28  44  72 108 145 196 238 306 374 446
#     4  12  24  49  73 106 151 186 251 309 367 446
#     4  12  27  44  83 112 142 196 257 302 381 444
#
# _framework density 22.491154999999999
#
# number of rings (size 3 to 8) (size 9 to 14) (size 15 to 20)
#    0.000    0.667    6.667    1.000    7.000    2.667 
#    0.000    0.833    0.000    0.000    0.000    0.000 
#    0.000    0.000    0.000    0.000    0.000    0.000 
#
# Total GULP energy -134119.676092 kJ/mol
# GULP energy per Si atom -5588.319837 kJ/mol
# Density = 2.243996 g / cm^3
# Si number density = 22.491155 Si / 1000 Ang^3
#
#
#
# Elastic Constant Matrix: (Units=GPa)
#
#
# Indices 1 2 3 4 5 6 
#
# 1 78.1551 3.0816 -3.7211 0.0000 0.0000 0.0000
# 2 3.0816 99.4718 16.2866 0.0000 0.0000 0.0000
# 3 -3.7211 16.2866 35.3359 0.0000 0.0000 0.0000
# 4 0.0000 0.0000 0.0000 30.7764 0.0000 0.0000
# 5 0.0000 0.0000 0.0000 0.0000 5.7995 0.0000
# 6 0.0000 0.0000 0.0000 0.0000 0.0000 17.9155
#
#
#
# Elastic Compliance Matrix: (Units=1/GPa)
#
#
# Indices 1 2 3 4 5 6 
#
# 1 0.012901 -0.000673 0.001669 0.000000 0.000000 0.000000
# 2 -0.000673 0.010909 -0.005099 0.000000 0.000000 0.000000
# 3 0.001669 -0.005099 0.030826 0.000000 0.000000 0.000000
# 4 0.000000 0.000000 0.000000 0.032492 0.000000 0.000000
# 5 0.000000 0.000000 0.000000 0.000000 0.172427 0.000000
# 6 0.000000 0.000000 0.000000 0.000000 0.000000 0.055817
#
#
# Mechanical properties :
#
#
# Convention : Reuss Voigt Hill
#
# Bulk Modulus (GPa) = 21.53801 27.13966 24.33883
# Shear Modulus (GPa) = 14.74686 24.05267 19.39977
#
# Velocity S-wave (km/s) = 2.56339 3.27376 2.94011
# Velocity P-wave (km/s) = 4.28466 5.13644 4.72976
#
# Compressibility (1/GPa) = 0.04642955
#
# Stress axis : x y z
#
# Youngs Moduli (GPa) = 77.51301 91.66922 32.44047
#
# Poissons Ratio (x) = 0.06168 -0.05413
# Poissons Ratio (y) = 0.05216 0.16541
# Poissons Ratio (z) = -0.12935 0.46741
#
# Static dielectric constant tensor:
#      x y z
#    x 1.880270 0.000000 0.000000 
#    y 0.000000 1.899430 0.000000 
#    z 0.000000 0.000000 1.810920 
# 
# From -- ./inp_files/7333.got.cif
#   From: 2010.05.17/outbox.cif.g08.bks.cpg/sg41_4_cif.got.tgz:7333.got - 2010.06.03 18:54:24.
