data_PCOD9366514
_publ_section_title
;
Structure prediction by ZEFSAII (Michael W. Deem and Ramdas Pophale) SiO2 
 PCOD9366514
Probable space group: A B A 2
;
_chemical_formula_sum "Si O2"
_cell_formula_units_Z 48
_cell_length_a 13.310215
_cell_length_b 18.812513
_cell_length_c 7.957934
_cell_angle_alpha 90.000000
_cell_angle_beta 90.000000
_cell_angle_gamma 90.000000
_cell_volume 1992.655475
_symmetry_space_group_name_H-M "A B A 2"
_symmetry_group_IT_number 41
_symmetry_cell_setting 'orthorhombic'
loop_
_space_group_symop_operation_xyz
x,y,z
-x,-y,z
1/2-x,y,1/2+z
1/2+x,-y,1/2+z
x,1/2+y,1/2+z
-x,1/2-y,1/2+z
1/2-x,1/2+y,z
1/2+x,1/2-y,z
loop_
_atom_site_type_symbol
_atom_site_label
_atom_site_fract_x
_atom_site_fract_y
_atom_site_fract_z
Si Si1 0.044948 0.422078 0.409590
Si Si2 0.587870 0.322313 0.091427
Si Si3 0.783003 0.354008 0.264297
Si Si4 0.087392 0.442346 0.899881
Si Si5 0.278567 0.975637 0.231829
Si Si6 0.021423 0.173412 0.592691
O O1 0.162055 0.433999 0.379203
O O2 0.000000 0.500000 0.378869
O O3 0.987274 0.388759 0.567704
O O4 0.015032 0.369017 0.258580
O O5 0.660744 0.324832 0.927995
O O6 0.670240 0.327078 0.237042
O O7 0.520507 0.252537 0.097237
O O8 0.778224 0.439929 0.267900
O O9 0.858738 0.332828 0.112307
O O10 0.164792 0.448349 0.746086
O O11 0.000000 0.500000 0.887140
O O12 0.156188 0.462899 0.063858
O O13 0.032825 0.368164 0.941180
#
# Coordination Sequence:
#
# PCOD9366514 Si02
#       6
#     8   8   8   8   8   8
#     4  10  20  44  72  98 138 193 237 290 363 428
#     4  11  25  40  73 103 140 190 240 298 370 442
#     4  11  23  45  69 100 147 191 235 303 379 422
#     4  11  23  43  68 101 138 187 241 299 359 437
#     4  11  21  43  73  98 136 187 240 300 358 420
#     4  10  22  42  66  97 144 186 227 300 365 426
#
# _framework density 24.088459
#
# number of rings (size 3 to 8) (size 9 to 14) (size 15 to 20)
#    0.000    1.333    5.000    2.000    0.000    6.667 
#    3.000    0.000    0.000    0.000    0.000    0.000 
#    0.000    0.000    0.000    0.000    0.000    0.000 
#
# Total GULP energy -134272.697959 kJ/mol
# GULP energy per Si atom -5594.695748 kJ/mol
# Density = 2.403363 g / cm^3
# Si number density = 24.088459 Si / 1000 Ang^3
#
#
#
# Elastic Constant Matrix: (Units=GPa)
#
#
# Indices 1 2 3 4 5 6 
#
# 1 207.0128 55.4990 29.6695 0.0000 0.0000 0.0000
# 2 55.4990 88.1540 5.9318 0.0000 0.0000 0.0000
# 3 29.6695 5.9318 106.1757 0.0000 0.0000 0.0000
# 4 0.0000 0.0000 0.0000 18.2836 0.0000 0.0000
# 5 0.0000 0.0000 0.0000 0.0000 33.6323 0.0000
# 6 0.0000 0.0000 0.0000 0.0000 0.0000 19.7330
#
#
#
# Elastic Compliance Matrix: (Units=1/GPa)
#
#
# Indices 1 2 3 4 5 6 
#
# 1 0.006035 -0.003700 -0.001480 0.000000 0.000000 0.000000
# 2 -0.003700 0.013655 0.000271 0.000000 0.000000 0.000000
# 3 -0.001480 0.000271 0.009817 0.000000 0.000000 0.000000
# 4 0.000000 0.000000 0.000000 0.054694 0.000000 0.000000
# 5 0.000000 0.000000 0.000000 0.000000 0.029733 0.000000
# 6 0.000000 0.000000 0.000000 0.000000 0.000000 0.050677
#
#
# Mechanical properties :
#
#
# Convention : Reuss Voigt Hill
#
# Bulk Modulus (GPa) = 50.78866 64.83813 57.81339
# Shear Modulus (GPa) = 27.62595 35.01259 31.31927
#
# Velocity S-wave (km/s) = 3.39020 3.81662 3.60971
# Velocity P-wave (km/s) = 6.03776 6.81155 6.43629
#
# Compressibility (1/GPa) = 0.01968943
#
# Stress axis : x y z
#
# Youngs Moduli (GPa) = 165.71344 73.23490 101.86761
#
# Poissons Ratio (x) = 0.27094 0.15072
# Poissons Ratio (y) = 0.61307 -0.02760
# Poissons Ratio (z) = 0.24519 -0.01984
#
# Static dielectric constant tensor:
#      x y z
#    x 2.043600 0.000000 0.000000 
#    y 0.000000 1.800690 0.000000 
#    z 0.000000 0.000000 2.157690 
# 
# From -- ./inp_files/2526.got.cif
#   From: 2010.05.17/outbox.cif.g08.bks.cpg/sg41_2_cif.got.tgz:2526.got - 2010.06.03 18:54:24.
