data_PCOD9366538
_publ_section_title
;
Structure prediction by ZEFSAII (Michael W. Deem and Ramdas Pophale) SiO2 
 PCOD9366538
Probable space group: A B A 2
;
_chemical_formula_sum "Si O2"
_cell_formula_units_Z 56
_cell_length_a 14.961554
_cell_length_b 5.355845
_cell_length_c 28.341320
_cell_angle_alpha 90.000000
_cell_angle_beta 90.000000
_cell_angle_gamma 90.000000
_cell_volume 2271.039971
_symmetry_space_group_name_H-M "A B A 2"
_symmetry_group_IT_number 41
_symmetry_cell_setting 'orthorhombic'
loop_
_space_group_symop_operation_xyz
x,y,z
-x,-y,z
1/2-x,y,1/2+z
1/2+x,-y,1/2+z
x,1/2+y,1/2+z
-x,1/2-y,1/2+z
1/2-x,1/2+y,z
1/2+x,1/2-y,z
loop_
_atom_site_type_symbol
_atom_site_label
_atom_site_fract_x
_atom_site_fract_y
_atom_site_fract_z
Si Si1 0.500000 0.000000 0.757300
Si Si2 0.790917 0.572812 0.478358
Si Si3 0.000000 0.000000 0.819305
Si Si4 0.775424 0.549759 0.617679
Si Si5 0.030566 0.751018 0.008385
Si Si6 0.805822 0.594009 0.365974
Si Si7 0.205063 0.522884 0.728371
Si Si8 0.532060 0.751088 0.116167
O O1 0.489782 0.748767 0.788026
O O2 0.402225 0.024432 0.732448
O O3 0.788325 0.275375 0.486962
O O4 0.864769 0.709595 0.509638
O O5 0.811843 0.601411 0.423139
O O6 0.093944 0.955713 0.847017
O O7 0.791289 0.266957 0.598199
O O8 0.766645 0.491249 0.673165
O O9 0.862958 0.723978 0.613804
O O10 0.000000 0.500000 0.984323
O O11 0.995383 0.747785 0.062281
O O12 0.000000 0.000000 0.982866
O O13 0.739593 0.361848 0.353518
O O14 0.249488 0.773374 0.748882
O O15 0.500000 0.500000 0.139880
O O16 0.500000 0.000000 0.140868
#
# Coordination Sequence:
#
# PCOD9366538 Si02
#       8
#     4   8   4   8   8   8   8   8
#     4  12  26  42  66  98 121 164 213 240 318 390
#     4  10  21  38  59  86 116 156 203 244 303 359
#     4  12  26  42  66  98 121 164 213 240 318 390
#     4  10  21  38  59  86 116 156 203 244 303 359
#     4  10  21  36  55  85 120 157 201 250 304 356
#     4  10  23  43  63  92 129 160 203 259 305 363
#     4  10  23  43  63  92 129 160 203 259 305 363
#     4  10  21  36  55  85 120 157 201 250 304 356
#
# _framework density 24.658306
#
# number of rings (size 3 to 8) (size 9 to 14) (size 15 to 20)
#    0.000    1.714    0.000    3.429    2.000    4.571 
#    2.571    0.000    0.000    0.000    0.000    0.000 
#    0.000    0.000    0.000    0.000    0.000    0.000 
#
# Total GULP energy -156176.687637 kJ/mol
# GULP energy per Si atom -5577.738844 kJ/mol
# Density = 2.460218 g / cm^3
# Si number density = 24.658306 Si / 1000 Ang^3
#
#
#
# Elastic Constant Matrix: (Units=GPa)
#
#
# Indices 1 2 3 4 5 6 
#
# 1 123.1739 43.3224 19.1851 0.0000 0.0000 0.0000
# 2 43.3224 234.9054 25.9180 0.0000 0.0000 0.0000
# 3 19.1851 25.9180 75.2158 0.0000 0.0000 0.0000
# 4 0.0000 0.0000 0.0000 17.6693 0.0000 0.0000
# 5 0.0000 0.0000 0.0000 0.0000 16.0459 0.0000
# 6 0.0000 0.0000 0.0000 0.0000 0.0000 47.0119
#
#
#
# Elastic Compliance Matrix: (Units=1/GPa)
#
#
# Indices 1 2 3 4 5 6 
#
# 1 0.008903 -0.001446 -0.001773 0.000000 0.000000 0.000000
# 2 -0.001446 0.004660 -0.001237 0.000000 0.000000 0.000000
# 3 -0.001773 -0.001237 0.014173 0.000000 0.000000 0.000000
# 4 0.000000 0.000000 0.000000 0.056595 0.000000 0.000000
# 5 0.000000 0.000000 0.000000 0.000000 0.062321 0.000000
# 6 0.000000 0.000000 0.000000 0.000000 0.000000 0.021271
#
#
# Mechanical properties :
#
#
# Convention : Reuss Voigt Hill
#
# Bulk Modulus (GPa) = 53.12000 67.79401 60.45700
# Shear Modulus (GPa) = 27.30572 39.13672 33.22122
#
# Velocity S-wave (km/s) = 3.33132 3.98824 3.67449
# Velocity P-wave (km/s) = 6.03209 6.98292 6.52485
#
# Compressibility (1/GPa) = 0.01882530
#
# Stress axis : x y z
#
# Youngs Moduli (GPa) = 112.31630 214.58018 70.55463
#
# Poissons Ratio (x) = 0.31038 0.12506
# Poissons Ratio (y) = 0.16246 0.08727
# Poissons Ratio (z) = 0.19909 0.26541
#
# Static dielectric constant tensor:
#      x y z
#    x 2.186260 0.000000 0.000000 
#    y 0.000000 2.368250 0.000000 
#    z 0.000000 0.000000 1.949130 
# 
# From -- ./inp_files/12747.got.cif
#   From: 2010.05.17/outbox.cif.g08.bks.cpg/sg41_7_cif.got.tgz:12747.got - 2010.06.03 18:54:24.
