data_PCOD9366603
_publ_section_title
;
Structure prediction by ZEFSAII (Michael W. Deem and Ramdas Pophale) SiO2 
 PCOD9366603
Probable space group: A B A 2
;
_chemical_formula_sum "Si O2"
_cell_formula_units_Z 56
_cell_length_a 5.389519
_cell_length_b 15.049205
_cell_length_c 27.522089
_cell_angle_alpha 90.000000
_cell_angle_beta 90.000000
_cell_angle_gamma 90.000000
_cell_volume 2232.260942
_symmetry_space_group_name_H-M "A B A 2"
_symmetry_group_IT_number 41
_symmetry_cell_setting 'orthorhombic'
loop_
_space_group_symop_operation_xyz
x,y,z
-x,-y,z
1/2-x,y,1/2+z
1/2+x,-y,1/2+z
x,1/2+y,1/2+z
-x,1/2-y,1/2+z
1/2-x,1/2+y,z
1/2+x,1/2-y,z
loop_
_atom_site_type_symbol
_atom_site_label
_atom_site_fract_x
_atom_site_fract_y
_atom_site_fract_z
Si Si1 0.105488 0.789953 0.387810
Si Si2 0.000000 0.500000 0.610192
Si Si3 0.751199 0.519592 0.381426
Si Si4 0.580649 0.765881 0.251874
Si Si5 0.750999 0.456423 0.271722
Si Si6 0.595930 0.197895 0.004894
Si Si7 0.948139 0.704316 0.640327
Si Si8 0.500000 0.500000 0.546828
O O1 0.316631 0.718354 0.373843
O O2 0.230018 0.878653 0.368636
O O3 0.103573 0.797316 0.446011
O O4 0.031510 0.402958 0.636459
O O5 0.250633 0.510993 0.578781
O O6 0.500000 0.500000 0.409345
O O7 0.754852 0.467454 0.330411
O O8 0.000000 0.500000 0.409869
O O9 0.309017 0.793666 0.272463
O O10 0.741131 0.855532 0.257031
O O11 0.553304 0.735701 0.196523
O O12 0.500000 0.500000 0.253723
O O13 0.000000 0.500000 0.251725
O O14 0.365603 0.262178 0.019614
O O15 0.544472 0.095338 0.019793
O O16 0.689422 0.743921 0.619772
#
# Coordination Sequence:
#
# PCOD9366603 Si02
#       8
#     8   4   8   8   8   8   8   4
#     4  10  21  40  63  91 128 176 227 278 333 394
#     4  12  26  44  70 102 142 173 234 277 346 430
#     4  10  21  38  59  92 125 174 218 277 336 388
#     4  10  21  42  64  94 125 169 218 273 338 400
#     4  10  21  40  61  93 131 169 224 274 342 398
#     4  10  23  43  65 100 140 178 232 284 329 408
#     4  10  23  45  67 100 133 174 222 278 343 406
#     4  12  26  42  70 108 132 193 220 275 362 414
#
# _framework density 25.086673000000001
#
# number of rings (size 3 to 8) (size 9 to 14) (size 15 to 20)
#    0.000    1.714    0.000    3.429    1.000    3.429 
#   16.714   17.143    0.000    0.000    0.000    0.000 
#    0.000    0.000    0.000    0.000    0.000    0.000 
#
# Total GULP energy -156299.935146 kJ/mol
# GULP energy per Si atom -5582.140541 kJ/mol
# Density = 2.502957 g / cm^3
# Si number density = 25.086673 Si / 1000 Ang^3
#
#
#
# Elastic Constant Matrix: (Units=GPa)
#
#
# Indices 1 2 3 4 5 6 
#
# 1 223.9844 10.6463 30.4714 0.0000 0.0000 0.0000
# 2 10.6463 121.6099 32.0221 0.0000 0.0000 0.0000
# 3 30.4714 32.0221 76.9262 0.0000 0.0000 0.0000
# 4 0.0000 0.0000 0.0000 29.7975 0.0000 0.0000
# 5 0.0000 0.0000 0.0000 0.0000 52.3996 0.0000
# 6 0.0000 0.0000 0.0000 0.0000 0.0000 51.2291
#
#
#
# Elastic Compliance Matrix: (Units=1/GPa)
#
#
# Indices 1 2 3 4 5 6 
#
# 1 0.004720 0.000089 -0.001907 0.000000 0.000000 0.000000
# 2 0.000089 0.009237 -0.003880 0.000000 0.000000 0.000000
# 3 -0.001907 -0.003880 0.015370 0.000000 0.000000 0.000000
# 4 0.000000 0.000000 0.000000 0.033560 0.000000 0.000000
# 5 0.000000 0.000000 0.000000 0.000000 0.019084 0.000000
# 6 0.000000 0.000000 0.000000 0.000000 0.000000 0.019520
#
#
# Mechanical properties :
#
#
# Convention : Reuss Voigt Hill
#
# Bulk Modulus (GPa) = 55.77020 63.19999 59.48509
# Shear Modulus (GPa) = 42.06502 49.97730 46.02116
#
# Velocity S-wave (km/s) = 4.09930 4.46823 4.28774
# Velocity P-wave (km/s) = 6.68468 7.20191 6.94811
#
# Compressibility (1/GPa) = 0.01793072
#
# Stress axis : x y z
#
# Youngs Moduli (GPa) = 211.87600 108.26052 65.06218
#
# Poissons Ratio (x) = -0.00962 0.12404
# Poissons Ratio (y) = -0.01882 0.25246
# Poissons Ratio (z) = 0.40395 0.42008
#
# Static dielectric constant tensor:
#      x y z
#    x 1.935950 0.000000 0.000000 
#    y 0.000000 2.063220 0.000000 
#    z 0.000000 0.000000 1.994700 
# 
# From -- ./inp_files/12645.got.cif
#   From: 2010.05.17/outbox.cif.g08.bks.cpg/sg41_7_cif.got.tgz:12645.got - 2010.06.03 18:54:24.
