data_PCOD9366594
_publ_section_title
;
Structure prediction by ZEFSAII (Michael W. Deem and Ramdas Pophale) SiO2 
 PCOD9366594
Probable space group: A B A 2
;
_chemical_formula_sum "Si O2"
_cell_formula_units_Z 56
_cell_length_a 5.398107
_cell_length_b 16.343410
_cell_length_c 26.561864
_cell_angle_alpha 90.000000
_cell_angle_beta 90.000000
_cell_angle_gamma 90.000000
_cell_volume 2343.379969
_symmetry_space_group_name_H-M "A B A 2"
_symmetry_group_IT_number 41
_symmetry_cell_setting 'orthorhombic'
loop_
_space_group_symop_operation_xyz
x,y,z
-x,-y,z
1/2-x,y,1/2+z
1/2+x,-y,1/2+z
x,1/2+y,1/2+z
-x,1/2-y,1/2+z
1/2-x,1/2+y,z
1/2+x,1/2-y,z
loop_
_atom_site_type_symbol
_atom_site_label
_atom_site_fract_x
_atom_site_fract_y
_atom_site_fract_z
Si Si1 0.248558 0.528166 0.920150
Si Si2 0.750651 0.446823 0.699007
Si Si3 0.323364 0.697942 0.277876
Si Si4 0.775284 0.728840 0.021415
Si Si5 0.753158 0.795888 0.131227
Si Si6 0.132972 0.203720 0.395862
Si Si7 0.748889 0.538523 0.534653
O O1 0.500000 0.500000 0.894330
O O2 0.223444 0.624699 0.927042
O O3 0.000000 0.500000 0.892940
O O4 0.249835 0.483414 0.974770
O O5 0.500000 0.500000 0.703916
O O6 0.786392 0.382969 0.744859
O O7 0.730715 0.386970 0.650826
O O8 0.000000 0.500000 0.695070
O O9 0.585390 0.743494 0.267597
O O10 0.328491 0.678169 0.337193
O O11 0.525718 0.750367 0.993240
O O12 0.762671 0.786661 0.070663
O O13 0.763064 0.635645 0.038563
O O14 0.511038 0.745207 0.148253
O O15 0.340572 0.275235 0.400802
O O16 0.500000 0.500000 0.556202
O O17 0.000000 0.500000 0.555652
#
# Coordination Sequence:
#
# PCOD9366594 Si02
#       7
#     8   8   8   8   8   8   8
#     4  10  21  38  58  85 121 156 191 247 304 346
#     4  12  24  38  60  93 123 154 198 248 300 349
#     4  10  21  39  62  86 121 163 201 239 287 354
#     4  10  21  40  63  86 113 155 201 241 296 360
#     4  10  21  41  62  84 116 159 198 240 295 355
#     4  10  21  38  61  89 118 159 205 241 287 353
#     4  10  21  40  60  87 118 150 194 248 305 351
#
# _framework density 23.897103999999999
#
# number of rings (size 3 to 8) (size 9 to 14) (size 15 to 20)
#    0.000    1.714    0.000    4.286    0.000    1.143 
#    0.000   34.286    0.000    0.000    0.000    0.000 
#    0.000    0.000    0.000    0.000    0.000    0.000 
#
# Total GULP energy -156694.120423 kJ/mol
# GULP energy per Si atom -5596.218587 kJ/mol
# Density = 2.384271 g / cm^3
# Si number density = 23.897104 Si / 1000 Ang^3
#
#
#
# Elastic Constant Matrix: (Units=GPa)
#
#
# Indices 1 2 3 4 5 6 
#
# 1 268.2703 79.8308 -7.7837 0.0000 0.0000 0.0000
# 2 79.8308 136.0901 3.1977 0.0000 0.0000 0.0000
# 3 -7.7837 3.1977 54.9887 0.0000 0.0000 0.0000
# 4 0.0000 0.0000 0.0000 6.3385 0.0000 0.0000
# 5 0.0000 0.0000 0.0000 0.0000 -1.6072 0.0000
# 6 0.0000 0.0000 0.0000 0.0000 0.0000 55.4107
#
#
#
# Elastic Compliance Matrix: (Units=1/GPa)
#
#
# Indices 1 2 3 4 5 6 
#
# 1 0.004551 -0.002688 0.000801 0.000000 0.000000 0.000000
# 2 -0.002688 0.008946 -0.000901 0.000000 0.000000 0.000000
# 3 0.000801 -0.000901 0.018351 0.000000 0.000000 0.000000
# 4 0.000000 0.000000 0.000000 0.157766 0.000000 0.000000
# 5 0.000000 0.000000 0.000000 0.000000 -0.622210 0.000000
# 6 0.000000 0.000000 0.000000 0.000000 0.000000 0.018047
#
#
# Mechanical properties :
#
#
# Convention : Reuss Voigt Hill
#
# Bulk Modulus (GPa) = 38.06468 67.75987 52.91227
# Shear Modulus (GPa) = -12.49330 37.63536 12.57103
#
# Velocity S-wave (km/s) = -2.28895 3.97280 2.29606
# Velocity P-wave (km/s) = 2.99623 7.03282 5.40546
#
# Compressibility (1/GPa) = 0.02627107
#
# Stress axis : x y z
#
# Youngs Moduli (GPa) = 219.74218 111.77920 54.49218
#
# Poissons Ratio (x) = 0.30050 -0.04362
# Poissons Ratio (y) = 0.59074 0.04909
# Poissons Ratio (z) = -0.17590 0.10069
#
# Static dielectric constant tensor:
#      x y z
#    x 2.009480 0.000000 0.000000 
#    y 0.000000 1.864280 0.000000 
#    z 0.000000 0.000000 1.965480 
# 
# From -- ./inp_files/12626.got.cif
#   From: 2010.05.17/outbox.cif.g08.bks.cpg/sg41_7_cif.got.tgz:12626.got - 2010.06.03 18:54:24.
