data_PCOD9366520
_publ_section_title
;
Structure prediction by ZEFSAII (Michael W. Deem and Ramdas Pophale) SiO2 
 PCOD9366520
Probable space group: A B A 2
;
_chemical_formula_sum "Si O2"
_cell_formula_units_Z 44
_cell_length_a 19.432536
_cell_length_b 7.492066
_cell_length_c 11.991836
_cell_angle_alpha 90.000000
_cell_angle_beta 90.000000
_cell_angle_gamma 90.000000
_cell_volume 1745.889512
_symmetry_space_group_name_H-M "A B A 2"
_symmetry_group_IT_number 41
_symmetry_cell_setting 'orthorhombic'
loop_
_space_group_symop_operation_xyz
x,y,z
-x,-y,z
1/2-x,y,1/2+z
1/2+x,-y,1/2+z
x,1/2+y,1/2+z
-x,1/2-y,1/2+z
1/2-x,1/2+y,z
1/2+x,1/2-y,z
loop_
_atom_site_type_symbol
_atom_site_label
_atom_site_fract_x
_atom_site_fract_y
_atom_site_fract_z
Si Si1 0.784897 0.233869 0.918670
Si Si2 0.396986 0.396026 0.080017
Si Si3 0.000000 0.000000 0.920699
Si Si4 0.889770 0.481059 0.820106
Si Si5 0.112118 0.911398 0.765877
Si Si6 0.367030 0.807276 0.020532
O O1 0.812709 0.408560 0.852452
O O2 0.816011 0.088083 0.832670
O O3 0.834965 0.212420 0.025682
O O4 0.709130 0.218457 0.966710
O O5 0.395984 0.394252 0.212545
O O6 0.386364 0.606061 0.052256
O O7 0.465648 0.359184 0.008404
O O8 0.061186 0.039462 0.832527
O O9 0.921260 0.287481 0.789317
O O10 0.911374 0.587649 0.929047
O O11 0.127166 0.918100 0.635696
#
# Coordination Sequence:
#
# PCOD9366520 Si02
#       6
#     8   8   4   8   8   8
#     4   9  20  40  61  91 137 155 199 264 319 376
#     4  10  22  41  64  88 125 172 204 261 322 368
#     4  10  20  50  60  82 132 172 210 266 318 372
#     4   9  21  40  56  98 120 153 216 248 307 379
#     4   8  21  41  60  87 128 164 207 259 311 374
#     4  11  20  40  63  98 122 164 207 258 321 380
#
# _framework density 25.202051999999998
#
# number of rings (size 3 to 8) (size 9 to 14) (size 15 to 20)
#    1.091    1.455    0.000    1.091    2.545    0.000 
#   19.636    0.000    0.000    0.000    0.000    0.000 
#    0.000    0.000    0.000    0.000    0.000    0.000 
#
# Total GULP energy -122469.614706 kJ/mol
# GULP energy per Si atom -5566.800668 kJ/mol
# Density = 2.514469 g / cm^3
# Si number density = 25.202052 Si / 1000 Ang^3
#
#
#
# Elastic Constant Matrix: (Units=GPa)
#
#
# Indices 1 2 3 4 5 6 
#
# 1 88.5895 35.8077 44.2759 0.0000 0.0000 0.0000
# 2 35.8077 51.5944 45.9745 0.0000 0.0000 0.0000
# 3 44.2759 45.9745 261.1831 0.0000 0.0000 0.0000
# 4 0.0000 0.0000 0.0000 43.4070 0.0000 0.0000
# 5 0.0000 0.0000 0.0000 0.0000 13.1118 0.0000
# 6 0.0000 0.0000 0.0000 0.0000 0.0000 17.8403
#
#
#
# Elastic Compliance Matrix: (Units=1/GPa)
#
#
# Indices 1 2 3 4 5 6 
#
# 1 0.015862 -0.010215 -0.000891 0.000000 0.000000 0.000000
# 2 -0.010215 0.029566 -0.003473 0.000000 0.000000 0.000000
# 3 -0.000891 -0.003473 0.004591 0.000000 0.000000 0.000000
# 4 0.000000 0.000000 0.000000 0.023038 0.000000 0.000000
# 5 0.000000 0.000000 0.000000 0.000000 0.076267 0.000000
# 6 0.000000 0.000000 0.000000 0.000000 0.000000 0.056053
#
#
# Mechanical properties :
#
#
# Convention : Reuss Voigt Hill
#
# Bulk Modulus (GPa) = 47.93391 72.60925 60.27158
# Shear Modulus (GPa) = 20.70506 33.22576 26.96541
#
# Velocity S-wave (km/s) = 2.86940 3.63488 3.27459
# Velocity P-wave (km/s) = 5.48079 6.81835 6.18583
#
# Compressibility (1/GPa) = 0.02086206
#
# Stress axis : x y z
#
# Youngs Moduli (GPa) = 63.04341 33.82308 217.81621
#
# Poissons Ratio (x) = 0.34550 0.19405
# Poissons Ratio (y) = 0.64398 0.75640
# Poissons Ratio (z) = 0.05617 0.11746
#
# Static dielectric constant tensor:
#      x y z
#    x 2.067600 0.000000 0.000000 
#    y 0.000000 2.242400 0.000000 
#    z 0.000000 0.000000 1.984230 
# 
# From -- ./inp_files/5894.got.cif
#   From: 2010.05.17/outbox.cif.g08.bks.cpg/sg41_3_cif.got.tgz:5894.got - 2010.06.03 18:54:24.
