data_PCOD9366568
_publ_section_title
;
Structure prediction by ZEFSAII (Michael W. Deem and Ramdas Pophale) SiO2 
 PCOD9366568
Probable space group: A B A 2
;
_chemical_formula_sum "Si O2"
_cell_formula_units_Z 60
_cell_length_a 10.736726
_cell_length_b 21.513286
_cell_length_c 13.205637
_cell_angle_alpha 90.000000
_cell_angle_beta 90.000000
_cell_angle_gamma 90.000000
_cell_volume 3050.267841
_symmetry_space_group_name_H-M "A B A 2"
_symmetry_group_IT_number 41
_symmetry_cell_setting 'orthorhombic'
loop_
_space_group_symop_operation_xyz
x,y,z
-x,-y,z
1/2-x,y,1/2+z
1/2+x,-y,1/2+z
x,1/2+y,1/2+z
-x,1/2-y,1/2+z
1/2-x,1/2+y,z
1/2+x,1/2-y,z
loop_
_atom_site_type_symbol
_atom_site_label
_atom_site_fract_x
_atom_site_fract_y
_atom_site_fract_z
Si Si1 0.883694 0.183806 0.016690
Si Si2 0.373929 0.891600 0.705606
Si Si3 0.378630 0.084795 0.204635
Si Si4 0.629523 0.115168 0.945077
Si Si5 0.379847 0.105196 0.441805
Si Si6 0.500000 0.500000 0.074983
Si Si7 0.351726 0.458245 0.630531
Si Si8 0.868305 0.830399 0.526460
O O1 0.903063 0.167974 0.136278
O O2 0.869734 0.257252 0.007175
O O3 0.756482 0.152659 0.972724
O O4 0.003607 0.151979 0.963413
O O5 0.390560 0.889800 0.825163
O O6 0.231224 0.906064 0.682696
O O7 0.441591 0.948222 0.648209
O O8 0.371050 0.091734 0.323220
O O9 0.513663 0.060378 0.171363
O O10 0.353835 0.147567 0.143192
O O11 0.301323 0.025299 0.164684
O O12 0.646517 0.051319 0.009359
O O13 0.502649 0.144990 0.988662
O O14 0.411730 0.041240 0.501419
O O15 0.249816 0.136345 0.474483
#
# Coordination Sequence:
#
# PCOD9366568 Si02
#       8
#     8   8   8   8   8   4   8   8
#     4  10  23  42  60  85 121 160 204 244 288 357
#     4  10  21  38  61  86 118 158 193 243 303 353
#     4  10  21  37  60  88 118 156 192 240 301 357
#     4  10  22  40  61  88 120 156 196 246 302 348
#     4  11  23  41  64  88 121 161 197 243 303 357
#     4  10  22  38  60  94 122 150 198 248 298 364
#     4   9  19  36  59  87 117 150 195 239 293 368
#     4  11  24  39  59  91 120 151 206 254 285 343
#
# _framework density 19.670403
#
# number of rings (size 3 to 8) (size 9 to 14) (size 15 to 20)
#    0.000    1.867    0.000    3.200    0.000   10.667 
#    0.000    0.000    0.000    0.000    0.000    0.000 
#    0.000    0.000    0.000    0.000    0.000    0.000 
#
# Total GULP energy -167190.888037 kJ/mol
# GULP energy per Si atom -5573.029601 kJ/mol
# Density = 1.962563 g / cm^3
# Si number density = 19.670403 Si / 1000 Ang^3
#
#
#
# Elastic Constant Matrix: (Units=GPa)
#
#
# Indices 1 2 3 4 5 6 
#
# 1 91.8285 29.0077 35.7669 0.0000 0.0000 0.0000
# 2 29.0077 103.7481 56.3205 0.0000 0.0000 0.0000
# 3 35.7669 56.3205 197.8108 0.0000 0.0000 0.0000
# 4 0.0000 0.0000 0.0000 11.9538 0.0000 0.0000
# 5 0.0000 0.0000 0.0000 0.0000 -309.0108 0.0000
# 6 0.0000 0.0000 0.0000 0.0000 0.0000 21.9707
#
#
#
# Elastic Compliance Matrix: (Units=1/GPa)
#
#
# Indices 1 2 3 4 5 6 
#
# 1 0.012297 -0.002639 -0.001472 0.000000 0.000000 0.000000
# 2 -0.002639 0.011967 -0.002930 0.000000 0.000000 0.000000
# 3 -0.001472 -0.002930 0.006156 0.000000 0.000000 0.000000
# 4 0.000000 0.000000 0.000000 0.083656 0.000000 0.000000
# 5 0.000000 0.000000 0.000000 0.000000 -0.003236 0.000000
# 6 0.000000 0.000000 0.000000 0.000000 0.000000 0.045515
#
#
# Mechanical properties :
#
#
# Convention : Reuss Voigt Hill
#
# Bulk Modulus (GPa) = 61.20920 70.61975 65.91447
# Shear Modulus (GPa) = 28.42802 -36.86446 -4.21822
#
# Velocity S-wave (km/s) = 3.80573 -4.33379 -1.46598
# Velocity P-wave (km/s) = 7.10608 3.30713 5.54227
#
# Compressibility (1/GPa) = 0.01633741
#
# Stress axis : x y z
#
# Youngs Moduli (GPa) = 81.32140 83.56134 162.44925
#
# Poissons Ratio (x) = 0.22052 0.23913
# Poissons Ratio (y) = 0.21461 0.47600
# Poissons Ratio (z) = 0.11971 0.24485
#
# Static dielectric constant tensor:
#      x y z
#    x 2.877920 0.000000 0.000000 
#    y 0.000000 1.658810 0.000000 
#    z 0.000000 0.000000 1.682740 
# 
# From -- ./inp_files/5140.got.cif
#   From: 2010.05.17/outbox.cif.g08.bks.cpg/sg41_3_cif.got.tgz:5140.got - 2010.06.03 18:54:24.
