data_PCOD9366801
_publ_section_title
;
Structure prediction by ZEFSAII (Michael W. Deem and Ramdas Pophale) SiO2 
 PCOD9366801
Probable space group: A B A 2
;
_chemical_formula_sum "Si O2"
_cell_formula_units_Z 48
_cell_length_a 5.253310
_cell_length_b 14.261470
_cell_length_c 27.746623
_cell_angle_alpha 90.000000
_cell_angle_beta 90.000000
_cell_angle_gamma 90.000000
_cell_volume 2078.774858
_symmetry_space_group_name_H-M "A B A 2"
_symmetry_group_IT_number 41
_symmetry_cell_setting 'orthorhombic'
loop_
_space_group_symop_operation_xyz
x,y,z
-x,-y,z
1/2-x,y,1/2+z
1/2+x,-y,1/2+z
x,1/2+y,1/2+z
-x,1/2-y,1/2+z
1/2-x,1/2+y,z
1/2+x,1/2-y,z
loop_
_atom_site_type_symbol
_atom_site_label
_atom_site_fract_x
_atom_site_fract_y
_atom_site_fract_z
Si Si1 0.746579 0.448203 0.557590
Si Si2 0.549575 0.287963 0.717834
Si Si3 0.000000 0.500000 0.235721
Si Si4 0.000000 0.500000 0.800383
Si Si5 0.116280 0.687171 0.860653
Si Si6 0.513190 0.210476 0.610544
Si Si7 0.653419 0.310590 0.472938
O O1 0.500000 0.500000 0.578080
O O2 0.872949 0.385264 0.599460
O O3 0.636844 0.390951 0.512435
O O4 0.000000 0.500000 0.538871
O O5 0.803564 0.253758 0.743839
O O6 0.539279 0.399372 0.709825
O O7 0.549888 0.232923 0.666691
O O8 0.251770 0.484230 0.267531
O O9 0.937313 0.407325 0.831216
O O10 0.387449 0.738357 0.852608
O O11 0.121108 0.659365 0.917540
O O12 0.798314 0.217789 0.590287
O O13 0.430226 0.235232 0.480364
#
# Coordination Sequence:
#
# PCOD9366801 Si02
#       7
#     8   8   4   4   8   8   8
#     4  12  24  38  62 103 134 178 233 289 338 401
#     4  10  23  45  68  97 133 174 219 285 343 408
#     4  12  26  44  70 104 131 180 229 280 350 418
#     4  12  26  42  70 106 139 170 233 286 334 424
#     4  10  23  43  66 100 137 185 221 275 344 402
#     4  10  21  43  64  89 130 176 216 277 341 395
#     4  10  21  41  65  89 135 183 230 270 335 409
#
# _framework density 23.090525
#
# number of rings (size 3 to 8) (size 9 to 14) (size 15 to 20)
#    0.000    1.333    0.000    5.000    1.167    4.000 
#   19.500    0.000    0.000    0.000    0.000    0.000 
#    0.000    0.000    0.000    0.000    0.000    0.000 
#
# Total GULP energy -134137.253631 kJ/mol
# GULP energy per Si atom -5589.052235 kJ/mol
# Density = 2.303797 g / cm^3
# Si number density = 23.090525 Si / 1000 Ang^3
#
#
#
# Elastic Constant Matrix: (Units=GPa)
#
#
# Indices 1 2 3 4 5 6 
#
# 1 141.2674 3.9702 0.5705 0.0000 0.0000 0.0000
# 2 3.9702 91.8813 25.1558 0.0000 0.0000 0.0000
# 3 0.5705 25.1558 82.2789 0.0000 0.0000 0.0000
# 4 0.0000 0.0000 0.0000 11.9523 0.0000 0.0000
# 5 0.0000 0.0000 0.0000 0.0000 21.0495 0.0000
# 6 0.0000 0.0000 0.0000 0.0000 0.0000 43.9133
#
#
#
# Elastic Compliance Matrix: (Units=1/GPa)
#
#
# Indices 1 2 3 4 5 6 
#
# 1 0.007088 -0.000320 0.000049 0.000000 0.000000 0.000000
# 2 -0.000320 0.011892 -0.003634 0.000000 0.000000 0.000000
# 3 0.000049 -0.003634 0.013264 0.000000 0.000000 0.000000
# 4 0.000000 0.000000 0.000000 0.083666 0.000000 0.000000
# 5 0.000000 0.000000 0.000000 0.000000 0.047507 0.000000
# 6 0.000000 0.000000 0.000000 0.000000 0.000000 0.022772
#
#
# Mechanical properties :
#
#
# Convention : Reuss Voigt Hill
#
# Bulk Modulus (GPa) = 40.92518 41.64675 41.28596
# Shear Modulus (GPa) = 24.73489 34.43176 29.58333
#
# Velocity S-wave (km/s) = 3.27649 3.86575 3.58325
# Velocity P-wave (km/s) = 5.66358 6.16448 5.91933
#
# Compressibility (1/GPa) = 0.02443484
#
# Stress axis : x y z
#
# Youngs Moduli (GPa) = 141.09235 84.08821 75.38969
#
# Poissons Ratio (x) = 0.02687 -0.00366
# Poissons Ratio (y) = 0.04509 0.27394
# Poissons Ratio (z) = -0.00685 0.30555
#
# Static dielectric constant tensor:
#      x y z
#    x 2.000640 0.000000 0.000000 
#    y 0.000000 1.926800 0.000000 
#    z 0.000000 0.000000 1.914550 
# 
# From -- ./inp_files/12395.got.cif
#   From: 2010.05.17/outbox.cif.g08.bks.cpg/sg41_7_cif.got.tgz:12395.got - 2010.06.03 18:54:24.
