data_PCOD9366598
_publ_section_title
;
Structure prediction by ZEFSAII (Michael W. Deem and Ramdas Pophale) SiO2 
 PCOD9366598
Probable space group: A B A 2
;
_chemical_formula_sum "Si O2"
_cell_formula_units_Z 64
_cell_length_a 14.547642
_cell_length_b 12.721846
_cell_length_c 16.770969
_cell_angle_alpha 90.000000
_cell_angle_beta 90.000000
_cell_angle_gamma 90.000000
_cell_volume 3103.851218
_symmetry_space_group_name_H-M "A B A 2"
_symmetry_group_IT_number 41
_symmetry_cell_setting 'orthorhombic'
loop_
_space_group_symop_operation_xyz
x,y,z
-x,-y,z
1/2-x,y,1/2+z
1/2+x,-y,1/2+z
x,1/2+y,1/2+z
-x,1/2-y,1/2+z
1/2-x,1/2+y,z
1/2+x,1/2-y,z
loop_
_atom_site_type_symbol
_atom_site_label
_atom_site_fract_x
_atom_site_fract_y
_atom_site_fract_z
Si Si1 0.567277 0.403182 0.833250
Si Si2 0.578520 0.204248 0.237189
Si Si3 0.590745 0.438308 0.022322
Si Si4 0.078520 0.295752 0.058652
Si Si5 0.227215 0.456971 0.991126
Si Si6 0.590745 0.438307 0.273518
Si Si7 0.772785 0.543029 0.304714
Si Si8 0.932723 0.903181 0.462590
O O1 0.500000 0.500000 0.812909
O O2 0.511496 0.308294 0.794050
O O3 0.578657 0.406938 0.928361
O O4 0.666111 0.436327 0.800036
O O5 0.556226 0.165982 0.147920
O O6 0.604073 0.326107 0.234029
O O7 0.663799 0.136100 0.271083
O O8 0.500000 0.500000 0.047523
O O9 0.676548 0.516439 0.031473
O O10 0.604074 0.326108 0.061811
O O11 0.163799 0.363900 0.024758
O O12 0.988504 0.308295 0.001791
O O13 0.250001 0.935394 0.897920
O O14 0.166110 0.563673 0.995805
O O15 0.500000 0.500000 0.248319
O O16 0.676548 0.516439 0.264367
O O17 0.578659 0.406936 0.367479
O O18 0.000000 0.000000 0.482929
#
# Coordination Sequence:
#
# PCOD9366598 Si02
#       8
#     8   8   8   8   8   8   8   8
#     4   8  17  36  60  84 111 149 197 241 282 341
#     4  11  23  37  59  90 120 153 192 243 303 347
#     4  10  21  38  59  84 117 156 198 239 284 348
#     4  11  23  37  59  90 120 153 192 243 303 347
#     4   9  20  38  60  85 113 152 199 241 284 344
#     4  10  21  38  59  84 117 156 198 239 284 348
#     4   9  20  38  60  85 113 152 199 241 284 344
#     4   8  17  36  60  84 111 149 197 241 282 341
#
# _framework density 20.619546
#
# number of rings (size 3 to 8) (size 9 to 14) (size 15 to 20)
#    0.000    2.500    0.000    2.250    0.000   11.000 
#    0.000    2.500    0.000    0.000    0.000    0.000 
#    0.000    0.000    0.000    0.000    0.000    0.000 
#
# Total GULP energy -178404.014331 kJ/mol
# GULP energy per Si atom -5575.125448 kJ/mol
# Density = 2.057262 g / cm^3
# Si number density = 20.619546 Si / 1000 Ang^3
#
#
#
# Elastic Constant Matrix: (Units=GPa)
#
#
# Indices 1 2 3 4 5 6 
#
# 1 145.6679 42.3781 35.5906 0.0000 0.0000 0.0000
# 2 42.3781 90.8464 20.4023 0.0000 0.0000 0.0000
# 3 35.5906 20.4023 54.0553 0.0000 0.0000 0.0000
# 4 0.0000 0.0000 0.0000 -21.5322 0.0000 0.0000
# 5 0.0000 0.0000 0.0000 0.0000 3.9677 0.0000
# 6 0.0000 0.0000 0.0000 0.0000 0.0000 26.2258
#
#
#
# Elastic Compliance Matrix: (Units=1/GPa)
#
#
# Indices 1 2 3 4 5 6 
#
# 1 0.008916 -0.003104 -0.004699 0.000000 0.000000 0.000000
# 2 -0.003104 0.013108 -0.002904 0.000000 0.000000 0.000000
# 3 -0.004699 -0.002904 0.022689 0.000000 0.000000 0.000000
# 4 0.000000 0.000000 0.000000 -0.046442 0.000000 0.000000
# 5 0.000000 0.000000 0.000000 0.000000 0.252035 0.000000
# 6 0.000000 0.000000 0.000000 0.000000 0.000000 0.038130
#
#
# Mechanical properties :
#
#
# Convention : Reuss Voigt Hill
#
# Bulk Modulus (GPa) = 42.91827 54.14576 48.53201
# Shear Modulus (GPa) = 15.74228 14.54549 15.14389
#
# Velocity S-wave (km/s) = 2.76608 2.65886 2.71300
# Velocity P-wave (km/s) = 5.57325 5.97850 5.77943
#
# Compressibility (1/GPa) = 0.02330010
#
# Stress axis : x y z
#
# Youngs Moduli (GPa) = 112.15827 76.29178 44.07367
#
# Poissons Ratio (x) = 0.23680 0.20710
# Poissons Ratio (y) = 0.34812 0.12797
# Poissons Ratio (z) = 0.52702 0.22152
#
# Static dielectric constant tensor:
#      x y z
#    x 1.738980 0.000000 0.000000 
#    y 0.000000 1.729030 0.000000 
#    z 0.000000 0.000000 1.776240 
# 
# From -- ./inp_files/10433.got.cif
#   From: 2010.05.17/outbox.cif.g08.bks.cpg/sg41_6_cif.got.tgz:10433.got - 2010.06.03 18:54:24.
