data_PCOD9366756
_publ_section_title
;
Structure prediction by ZEFSAII (Michael W. Deem and Ramdas Pophale) SiO2 
 PCOD9366756
Probable space group: A B A 2
;
_chemical_formula_sum "Si O2"
_cell_formula_units_Z 40
_cell_length_a 18.344410
_cell_length_b 8.714113
_cell_length_c 10.968858
_cell_angle_alpha 90.000000
_cell_angle_beta 90.000000
_cell_angle_gamma 90.000000
_cell_volume 1753.429666
_symmetry_space_group_name_H-M "A B A 2"
_symmetry_group_IT_number 41
_symmetry_cell_setting 'orthorhombic'
loop_
_space_group_symop_operation_xyz
x,y,z
-x,-y,z
1/2-x,y,1/2+z
1/2+x,-y,1/2+z
x,1/2+y,1/2+z
-x,1/2-y,1/2+z
1/2-x,1/2+y,z
1/2+x,1/2-y,z
loop_
_atom_site_type_symbol
_atom_site_label
_atom_site_fract_x
_atom_site_fract_y
_atom_site_fract_z
Si Si1 0.424095 0.431211 0.474540
Si Si2 0.574302 0.905649 0.393506
Si Si3 0.195597 0.470501 0.539243
Si Si4 0.321465 0.928672 0.206008
Si Si5 0.812109 0.335096 0.898810
O O1 0.500000 0.500000 0.521241
O O2 0.436799 0.275696 0.400111
O O3 0.367465 0.397060 0.583414
O O4 0.384151 0.562411 0.396585
O O5 0.500000 0.000000 0.383862
O O6 0.617193 0.955547 0.517113
O O7 0.627077 0.957978 0.283503
O O8 0.242451 0.487008 0.661239
O O9 0.246605 0.552152 0.436167
O O10 0.186908 0.290749 0.508482
O O11 0.308623 0.775284 0.283228
#
# Coordination Sequence:
#
# PCOD9366756 Si02
#       5
#     8   8   8   8   8
#     4  11  23  42  67 100 140 179 227 284 339 405
#     4  11  24  46  72 100 139 181 227 284 341 402
#     4  10  21  40  66  98 131 171 225 280 329 398
#     4  10  23  44  69  98 134 182 226 274 344 406
#     4  10  22  40  65  96 131 173 225 278 333 399
#
# _framework density 22.812434
#
# number of rings (size 3 to 8) (size 9 to 14) (size 15 to 20)
#    0.000    1.600    0.000    5.400    0.000    9.600 
#    0.000   21.000    0.000    0.000    0.000    5.600 
#    0.000    0.000    0.000    0.000    0.000    0.000 
#
# Total GULP energy -111803.568180 kJ/mol
# GULP energy per Si atom -5590.178409 kJ/mol
# Density = 2.276051 g / cm^3
# Si number density = 22.812434 Si / 1000 Ang^3
#
#
#
# Elastic Constant Matrix: (Units=GPa)
#
#
# Indices 1 2 3 4 5 6 
#
# 1 93.7174 27.3423 17.1013 0.0000 0.0000 0.0000
# 2 27.3423 150.9855 27.4407 0.0000 0.0000 0.0000
# 3 17.1013 27.4407 88.8333 0.0000 0.0000 0.0000
# 4 0.0000 0.0000 0.0000 32.2960 0.0000 0.0000
# 5 0.0000 0.0000 0.0000 0.0000 38.0290 0.0000
# 6 0.0000 0.0000 0.0000 0.0000 0.0000 38.6176
#
#
#
# Elastic Compliance Matrix: (Units=1/GPa)
#
#
# Indices 1 2 3 4 5 6 
#
# 1 0.011493 -0.001779 -0.001663 0.000000 0.000000 0.000000
# 2 -0.001779 0.007292 -0.001910 0.000000 0.000000 0.000000
# 3 -0.001663 -0.001910 0.012167 0.000000 0.000000 0.000000
# 4 0.000000 0.000000 0.000000 0.030964 0.000000 0.000000
# 5 0.000000 0.000000 0.000000 0.000000 0.026296 0.000000
# 6 0.000000 0.000000 0.000000 0.000000 0.000000 0.025895
#
#
# Mechanical properties :
#
#
# Convention : Reuss Voigt Hill
#
# Bulk Modulus (GPa) = 49.38695 53.03387 51.21041
# Shear Modulus (GPa) = 38.00532 39.23198 38.61865
#
# Velocity S-wave (km/s) = 4.08608 4.15150 4.11892
# Velocity P-wave (km/s) = 6.63005 6.80281 6.71699
#
# Compressibility (1/GPa) = 0.02024826
#
# Stress axis : x y z
#
# Youngs Moduli (GPa) = 87.01050 137.12743 82.18793
#
# Poissons Ratio (x) = 0.24395 0.13667
# Poissons Ratio (y) = 0.15479 0.15699
# Poissons Ratio (z) = 0.14469 0.26194
#
# Static dielectric constant tensor:
#      x y z
#    x 1.837280 0.000000 0.000000 
#    y 0.000000 1.831890 0.000000 
#    z 0.000000 0.000000 1.917750 
# 
# From -- ./inp_files/6152.got.cif
#   From: 2010.05.17/outbox.cif.g08.bks.cpg/sg41_4_cif.got.tgz:6152.got - 2010.06.03 18:54:24.
