data_PCOD9366690
_publ_section_title
;
Structure prediction by ZEFSAII (Michael W. Deem and Ramdas Pophale) SiO2 
 PCOD9366690
Probable space group: A B A 2
;
_chemical_formula_sum "Si O2"
_cell_formula_units_Z 52
_cell_length_a 18.901175
_cell_length_b 8.440708
_cell_length_c 16.509936
_cell_angle_alpha 90.000000
_cell_angle_beta 90.000000
_cell_angle_gamma 90.000000
_cell_volume 2633.983617
_symmetry_space_group_name_H-M "A B A 2"
_symmetry_group_IT_number 41
_symmetry_cell_setting 'orthorhombic'
loop_
_space_group_symop_operation_xyz
x,y,z
-x,-y,z
1/2-x,y,1/2+z
1/2+x,-y,1/2+z
x,1/2+y,1/2+z
-x,1/2-y,1/2+z
1/2-x,1/2+y,z
1/2+x,1/2-y,z
loop_
_atom_site_type_symbol
_atom_site_label
_atom_site_fract_x
_atom_site_fract_y
_atom_site_fract_z
Si Si1 0.659071 0.144247 0.691260
Si Si2 0.689638 0.776578 0.732147
Si Si3 0.512981 0.190043 0.745555
Si Si4 0.585307 0.529520 0.032819
Si Si5 0.000000 0.000000 0.478736
Si Si6 0.586642 0.207684 0.102012
Si Si7 0.412782 0.763980 0.378486
O O1 0.729569 0.238032 0.712841
O O2 0.595940 0.211599 0.745662
O O3 0.623863 0.138124 0.601099
O O4 0.672305 0.959420 0.711702
O O5 0.646369 0.666903 0.667834
O O6 0.657117 0.756627 0.822468
O O7 0.476814 0.235206 0.660892
O O8 0.473681 0.292948 0.812321
O O9 0.500000 0.000000 0.756049
O O10 0.500000 0.500000 0.040027
O O11 0.615111 0.355153 0.049587
O O12 0.598103 0.603618 0.945680
O O13 0.946096 0.088788 0.538522
O O14 0.050798 0.114904 0.425879
#
# Coordination Sequence:
#
# PCOD9366690 Si02
#       7
#     8   8   8   8   4   8   8
#     4  11  20  42  67  83 126 175 212 244 320 387
#     4  10  24  42  60  91 127 168 209 251 318 397
#     4  11  17  40  69  87 119 171 211 261 309 372
#     4  11  19  40  68  93 117 161 213 269 310 370
#     4  12  20  34  64  92 124 158 214 274 310 356
#     4  10  21  39  64  92 122 166 216 253 310 378
#     4  11  22  38  63  96 124 153 214 272 319 364
#
# _framework density 19.741962000000001
#
# number of rings (size 3 to 8) (size 9 to 14) (size 15 to 20)
#    0.000    1.231    8.462    0.000    0.000    2.462 
#    8.308    6.154    0.000    0.000    0.000    0.000 
#    0.000    0.000    0.000    0.000    0.000    0.000 
#
# Total GULP energy -144801.722665 kJ/mol
# GULP energy per Si atom -5569.297026 kJ/mol
# Density = 1.969703 g / cm^3
# Si number density = 19.741962 Si / 1000 Ang^3
#
#
#
# Elastic Constant Matrix: (Units=GPa)
#
#
# Indices 1 2 3 4 5 6 
#
# 1 142.4425 10.5678 45.2912 0.0000 0.0000 0.0000
# 2 10.5678 26.1924 44.8507 0.0000 0.0000 0.0000
# 3 45.2912 44.8507 146.1683 0.0000 0.0000 0.0000
# 4 0.0000 0.0000 0.0000 21.7904 0.0000 0.0000
# 5 0.0000 0.0000 0.0000 0.0000 15.2664 0.0000
# 6 0.0000 0.0000 0.0000 0.0000 0.0000 25.4220
#
#
#
# Elastic Compliance Matrix: (Units=1/GPa)
#
#
# Indices 1 2 3 4 5 6 
#
# 1 0.007842 0.002101 -0.003074 0.000000 0.000000 0.000000
# 2 0.002101 0.081011 -0.025509 0.000000 0.000000 0.000000
# 3 -0.003074 -0.025509 0.015621 0.000000 0.000000 0.000000
# 4 0.000000 0.000000 0.000000 0.045892 0.000000 0.000000
# 5 0.000000 0.000000 0.000000 0.000000 0.065503 0.000000
# 6 0.000000 0.000000 0.000000 0.000000 0.000000 0.039336
#
#
# Mechanical properties :
#
#
# Convention : Reuss Voigt Hill
#
# Bulk Modulus (GPa) = 19.41391 57.35806 38.38599
# Shear Modulus (GPa) = 15.36852 26.76867 21.06860
#
# Velocity S-wave (km/s) = 2.79313 3.68629 3.27034
# Velocity P-wave (km/s) = 4.50081 6.87279 5.80915
#
# Compressibility (1/GPa) = 0.05150945
#
# Stress axis : x y z
#
# Youngs Moduli (GPa) = 127.51690 12.34399 64.01566
#
# Poissons Ratio (x) = -0.02593 0.19681
# Poissons Ratio (y) = -0.26785 1.63295
# Poissons Ratio (z) = 0.39205 0.31488
#
# Static dielectric constant tensor:
#      x y z
#    x 1.714560 0.000000 0.000000 
#    y 0.000000 1.749240 0.000000 
#    z 0.000000 0.000000 1.730420 
# 
# From -- ./inp_files/10555.got.cif
#   From: 2010.05.17/outbox.cif.g08.bks.cpg/sg41_6_cif.got.tgz:10555.got - 2010.06.03 18:54:24.
