data_PCOD9366716
_publ_section_title
;
Structure prediction by ZEFSAII (Michael W. Deem and Ramdas Pophale) SiO2 
 PCOD9366716
Probable space group: A B A 2
;
_chemical_formula_sum "Si O2"
_cell_formula_units_Z 64
_cell_length_a 9.254548
_cell_length_b 10.393685
_cell_length_c 33.432793
_cell_angle_alpha 90.000000
_cell_angle_beta 90.000000
_cell_angle_gamma 90.000000
_cell_volume 3215.862136
_symmetry_space_group_name_H-M "A B A 2"
_symmetry_group_IT_number 41
_symmetry_cell_setting 'orthorhombic'
loop_
_space_group_symop_operation_xyz
x,y,z
-x,-y,z
1/2-x,y,1/2+z
1/2+x,-y,1/2+z
x,1/2+y,1/2+z
-x,1/2-y,1/2+z
1/2-x,1/2+y,z
1/2+x,1/2-y,z
loop_
_atom_site_type_symbol
_atom_site_label
_atom_site_fract_x
_atom_site_fract_y
_atom_site_fract_z
Si Si1 0.602145 0.312467 0.841710
Si Si2 0.733041 0.251266 0.482606
Si Si3 0.199890 0.420671 0.312848
Si Si4 0.330343 0.985056 0.728323
Si Si5 0.519681 0.353996 0.928335
Si Si6 0.977832 0.148015 0.537927
Si Si7 0.762848 0.260981 0.677822
Si Si8 0.486436 0.654458 0.626441
O O1 0.455717 0.351712 0.818305
O O2 0.695998 0.445179 0.838119
O O3 0.684379 0.187972 0.825260
O O4 0.558668 0.282335 0.887495
O O5 0.847823 0.341235 0.459497
O O6 0.628869 0.189295 0.449240
O O7 0.617978 0.308685 0.513374
O O8 0.838591 0.165580 0.509900
O O9 0.236041 0.462522 0.267887
O O10 0.279640 0.114763 0.705976
O O11 0.500000 0.000000 0.738398
O O12 0.308474 0.859778 0.700508
O O13 0.500000 0.500000 0.916040
O O14 0.970728 0.206409 0.582429
O O15 0.000000 0.000000 0.545490
O O16 0.672781 0.303070 0.638866
O O17 0.914662 0.212694 0.661075
O O18 0.500000 0.500000 0.628241
#
# Coordination Sequence:
#
# PCOD9366716 Si02
#       8
#     8   8   8   8   8   8   8   8
#     4  11  25  46  68 100 136 174 229 270 338 392
#     4  10  22  38  64  93 127 171 214 266 324 389
#     4  11  26  45  68  98 133 176 220 281 328 399
#     4  12  27  44  69  97 132 170 222 275 333 395
#     4  11  21  40  65  92 131 169 216 275 323 387
#     4  10  21  40  61  95 129 168 215 259 326 390
#     4  12  24  44  67  99 129 173 220 267 334 388
#     4  11  23  40  67  95 135 172 213 277 323 392
#
# _framework density 19.901350999999998
#
# number of rings (size 3 to 8) (size 9 to 14) (size 15 to 20)
#    0.000    1.000    3.750    3.000    3.500    2.000 
#    0.000    0.000    2.750    0.000    0.000    0.000 
#    0.000    0.000    0.000    0.000    0.000    0.000 
#
# Total GULP energy -178599.964377 kJ/mol
# GULP energy per Si atom -5581.248887 kJ/mol
# Density = 1.985605 g / cm^3
# Si number density = 19.901351 Si / 1000 Ang^3
#
#
#
# Elastic Constant Matrix: (Units=GPa)
#
#
# Indices 1 2 3 4 5 6 
#
# 1 90.9958 26.2460 39.3800 0.0000 0.0000 0.0000
# 2 26.2460 89.4699 47.3406 0.0000 0.0000 0.0000
# 3 39.3800 47.3406 120.9103 0.0000 0.0000 0.0000
# 4 0.0000 0.0000 0.0000 26.9506 0.0000 0.0000
# 5 0.0000 0.0000 0.0000 0.0000 40.7425 0.0000
# 6 0.0000 0.0000 0.0000 0.0000 0.0000 20.2196
#
#
#
# Elastic Compliance Matrix: (Units=1/GPa)
#
#
# Indices 1 2 3 4 5 6 
#
# 1 0.013069 -0.001995 -0.003475 0.000000 0.000000 0.000000
# 2 -0.001995 0.014402 -0.004989 0.000000 0.000000 0.000000
# 3 -0.003475 -0.004989 0.011356 0.000000 0.000000 0.000000
# 4 0.000000 0.000000 0.000000 0.037105 0.000000 0.000000
# 5 0.000000 0.000000 0.000000 0.000000 0.024544 0.000000
# 6 0.000000 0.000000 0.000000 0.000000 0.000000 0.049457
#
#
# Mechanical properties :
#
#
# Convention : Reuss Voigt Hill
#
# Bulk Modulus (GPa) = 55.84098 58.58991 57.21545
# Shear Modulus (GPa) = 28.27710 30.14317 29.21014
#
# Velocity S-wave (km/s) = 3.77352 3.89605 3.83527
# Velocity P-wave (km/s) = 6.86336 7.05287 6.95876
#
# Compressibility (1/GPa) = 0.01790800
#
# Stress axis : x y z
#
# Youngs Moduli (GPa) = 76.51722 69.43469 88.05934
#
# Poissons Ratio (x) = 0.13851 0.30605
# Poissons Ratio (y) = 0.15264 0.43934
# Poissons Ratio (z) = 0.26593 0.34642
#
# Static dielectric constant tensor:
#      x y z
#    x 1.726980 0.000000 0.000000 
#    y 0.000000 1.681420 0.000000 
#    z 0.000000 0.000000 1.701520 
# 
# From -- ./inp_files/12697.got.cif
#   From: 2010.05.17/outbox.cif.g08.bks.cpg/sg41_7_cif.got.tgz:12697.got - 2010.06.03 18:54:24.
