data_PCOD9366596
_publ_section_title
;
Structure prediction by ZEFSAII (Michael W. Deem and Ramdas Pophale) SiO2 
 PCOD9366596
Probable space group: A B A 2
;
_chemical_formula_sum "Si O2"
_cell_formula_units_Z 64
_cell_length_a 8.734921
_cell_length_b 12.476423
_cell_length_c 25.461798
_cell_angle_alpha 90.000000
_cell_angle_beta 90.000000
_cell_angle_gamma 90.000000
_cell_volume 2774.841241
_symmetry_space_group_name_H-M "A B A 2"
_symmetry_group_IT_number 41
_symmetry_cell_setting 'orthorhombic'
loop_
_space_group_symop_operation_xyz
x,y,z
-x,-y,z
1/2-x,y,1/2+z
1/2+x,-y,1/2+z
x,1/2+y,1/2+z
-x,1/2-y,1/2+z
1/2-x,1/2+y,z
1/2+x,1/2-y,z
loop_
_atom_site_type_symbol
_atom_site_label
_atom_site_fract_x
_atom_site_fract_y
_atom_site_fract_z
Si Si1 0.654394 0.128140 0.472280
Si Si2 0.432057 0.879116 0.138609
Si Si3 0.646553 0.544883 0.199252
Si Si4 0.012618 0.368782 0.021368
Si Si5 0.445049 0.315079 0.300080
Si Si6 0.401108 0.606998 0.737427
Si Si7 0.291803 0.746597 0.373582
Si Si8 0.678859 0.372030 0.972960
O O1 0.829660 0.159104 0.489814
O O2 0.623114 0.178533 0.415332
O O3 0.488330 0.154457 0.499080
O O4 0.670651 0.000615 0.471795
O O5 0.261195 0.891034 0.161356
O O6 0.455203 0.833194 0.081363
O O7 0.529686 0.831864 0.186428
O O8 0.500000 0.000000 0.135499
O O9 0.500000 0.500000 0.169352
O O10 0.589305 0.611986 0.249753
O O11 0.739129 0.442033 0.221626
O O12 0.000000 0.500000 0.020965
O O13 0.840851 0.340085 0.001247
O O14 0.418909 0.191763 0.282819
O O15 0.603213 0.316464 0.331861
O O16 0.314474 0.329989 0.342895
O O17 0.500000 0.500000 0.748284
O O18 0.204264 0.666815 0.412907
#
# Coordination Sequence:
#
# PCOD9366596 Si02
#       8
#     8   8   8   8   8   8   8   8
#     4  10  22  41  61  92 128 163 213 263 309 385
#     4   8  17  38  62  87 118 163 201 248 318 384
#     4  10  21  38  58  92 129 158 204 265 316 379
#     4   9  18  38  66  91 122 164 211 258 321 380
#     4  12  24  37  62  90 123 169 214 263 319 387
#     4   9  20  40  61  84 124 165 205 257 319 385
#     4  12  23  39  60  88 125 163 213 264 316 373
#     4  10  22  41  63  91 127 167 209 262 317 376
#
# _framework density 23.064381999999998
#
# number of rings (size 3 to 8) (size 9 to 14) (size 15 to 20)
#    0.000    2.250    1.250    3.000    0.000    3.000 
#    9.000    1.250    0.000    0.000    0.000    0.000 
#    0.000    0.000    0.000    0.000    0.000    0.000 
#
# Total GULP energy -178284.588822 kJ/mol
# GULP energy per Si atom -5571.393401 kJ/mol
# Density = 2.301189 g / cm^3
# Si number density = 23.064382 Si / 1000 Ang^3
#
#
#
# Elastic Constant Matrix: (Units=GPa)
#
#
# Indices 1 2 3 4 5 6 
#
# 1 206.7322 54.3338 67.1066 0.0000 0.0000 0.0000
# 2 54.3338 43.1803 19.0078 0.0000 0.0000 0.0000
# 3 67.1066 19.0078 104.3241 0.0000 0.0000 0.0000
# 4 0.0000 0.0000 0.0000 21.0708 0.0000 0.0000
# 5 0.0000 0.0000 0.0000 0.0000 18.1153 0.0000
# 6 0.0000 0.0000 0.0000 0.0000 0.0000 33.7332
#
#
#
# Elastic Compliance Matrix: (Units=1/GPa)
#
#
# Indices 1 2 3 4 5 6 
#
# 1 0.008409 -0.008915 -0.003785 0.000000 0.000000 0.000000
# 2 -0.008915 0.034629 -0.000575 0.000000 0.000000 0.000000
# 3 -0.003785 -0.000575 0.012125 0.000000 0.000000 0.000000
# 4 0.000000 0.000000 0.000000 0.047459 0.000000 0.000000
# 5 0.000000 0.000000 0.000000 0.000000 0.055202 0.000000
# 6 0.000000 0.000000 0.000000 0.000000 0.000000 0.029644
#
#
# Mechanical properties :
#
#
# Convention : Reuss Voigt Hill
#
# Bulk Modulus (GPa) = 34.94803 70.57032 52.75917
# Shear Modulus (GPa) = 22.36588 28.83641 25.60115
#
# Velocity S-wave (km/s) = 3.11740 3.53973 3.33526
# Velocity P-wave (km/s) = 5.30499 6.88257 6.14462
#
# Compressibility (1/GPa) = 0.02861391
#
# Stress axis : x y z
#
# Youngs Moduli (GPa) = 118.92502 28.87738 82.47584
#
# Poissons Ratio (x) = 0.25743 0.31214
# Poissons Ratio (y) = 1.06017 0.04743
# Poissons Ratio (z) = 0.45009 0.01661
#
# Static dielectric constant tensor:
#      x y z
#    x 1.964300 0.000000 0.000000 
#    y 0.000000 1.937190 0.000000 
#    z 0.000000 0.000000 1.867160 
# 
# From -- ./inp_files/12043.got.cif
#   From: 2010.05.17/outbox.cif.g08.bks.cpg/sg41_7_cif.got.tgz:12043.got - 2010.06.03 18:54:24.
