data_PCOD9366113
_publ_section_title
;
Structure prediction by ZEFSAII (Michael W. Deem and Ramdas Pophale) SiO2 
 PCOD9366113
Probable space group: A B A 2
;
_chemical_formula_sum "Si O2"
_cell_formula_units_Z 48
_cell_length_a 9.212519
_cell_length_b 10.765200
_cell_length_c 16.833930
_cell_angle_alpha 90.000000
_cell_angle_beta 90.000000
_cell_angle_gamma 90.000000
_cell_volume 1669.498435
_symmetry_space_group_name_H-M "A B A 2"
_symmetry_group_IT_number 41
_symmetry_cell_setting 'orthorhombic'
loop_
_space_group_symop_operation_xyz
x,y,z
-x,-y,z
1/2-x,y,1/2+z
1/2+x,-y,1/2+z
x,1/2+y,1/2+z
-x,1/2-y,1/2+z
1/2-x,1/2+y,z
1/2+x,1/2-y,z
loop_
_atom_site_type_symbol
_atom_site_label
_atom_site_fract_x
_atom_site_fract_y
_atom_site_fract_z
Si Si1 0.761759 0.502350 0.000000
Si Si2 0.520009 0.672735 0.021214
Si Si3 0.422589 0.240453 0.694314
Si Si4 0.659309 0.417418 0.671673
Si Si5 0.729055 0.992693 0.332109
Si Si6 0.001333 0.718437 0.356800
O O1 0.689422 0.635699 0.016742
O O2 0.611387 0.421625 0.998139
O O3 0.825660 0.497428 0.911449
O O4 0.838231 0.458571 0.080109
O O5 0.503581 0.766582 0.946954
O O6 0.489591 0.690036 0.113151
O O7 0.494924 0.377662 0.693246
O O8 0.254901 0.210058 0.681087
O O9 0.469989 0.193049 0.782098
O O10 0.749770 0.498357 0.736967
O O11 0.648209 0.858592 0.340054
O O12 0.621081 0.109151 0.350707
#
# Coordination Sequence:
#
# PCOD9366113 Si02
#       6
#     8   8   8   8   8   8
#     4   8  15  30  51  71  95 135 180 214 251 310
#     4   8  15  30  51  73  99 133 171 210 259 317
#     4  10  20  32  50  80 108 134 170 220 276 316
#     4  10  20  32  50  76 106 138 178 222 264 316
#     4   8  15  30  51  71  95 135 180 214 251 310
#     4   8  15  30  51  73  99 133 171 210 259 317
#
# _framework density 28.751151
#
# number of rings (size 3 to 8) (size 9 to 14) (size 15 to 20)
#    0.000    3.333    0.000    2.000    0.000    2.667 
#    0.000    0.000    0.000    2.000    0.000   14.000 
#    0.000    0.000    0.000    0.000    0.000    0.000 
#
# Total GULP energy -133733.704666 kJ/mol
# GULP energy per Si atom -5572.237694 kJ/mol
# Density = 2.868571 g / cm^3
# Si number density = 28.751151 Si / 1000 Ang^3
#
#
#
# Elastic Constant Matrix: (Units=GPa)
#
#
# Indices 1 2 3 4 5 6 
#
# 1 78.9171 33.3894 49.3036 0.0000 0.0000 0.0000
# 2 33.3894 28.2918 21.5875 0.0000 0.0000 0.0000
# 3 49.3036 21.5875 328.2959 0.0000 0.0000 0.0000
# 4 0.0000 0.0000 0.0000 40.2163 0.0000 0.0000
# 5 0.0000 0.0000 0.0000 0.0000 35.3786 0.0000
# 6 0.0000 0.0000 0.0000 0.0000 0.0000 33.3723
#
#
#
# Elastic Compliance Matrix: (Units=1/GPa)
#
#
# Indices 1 2 3 4 5 6 
#
# 1 0.026532 -0.029765 -0.002027 0.000000 0.000000 0.000000
# 2 -0.029765 0.070606 -0.000173 0.000000 0.000000 0.000000
# 3 -0.002027 -0.000173 0.003362 0.000000 0.000000 0.000000
# 4 0.000000 0.000000 0.000000 0.024866 0.000000 0.000000
# 5 0.000000 0.000000 0.000000 0.000000 0.028266 0.000000
# 6 0.000000 0.000000 0.000000 0.000000 0.000000 0.029965
#
#
# Mechanical properties :
#
#
# Convention : Reuss Voigt Hill
#
# Bulk Modulus (GPa) = 27.34545 71.56289 49.45417
# Shear Modulus (GPa) = 19.25186 43.87506 31.56346
#
# Velocity S-wave (km/s) = 2.59048 3.91068 3.31692
# Velocity P-wave (km/s) = 4.29874 6.73318 5.64867
#
# Compressibility (1/GPa) = 0.03656916
#
# Stress axis : x y z
#
# Youngs Moduli (GPa) = 37.69101 14.16314 297.45606
#
# Poissons Ratio (x) = 0.42157 0.60302
# Poissons Ratio (y) = 1.12188 0.05135
# Poissons Ratio (z) = 0.07641 0.00245
#
# Static dielectric constant tensor:
#      x y z
#    x 2.200270 0.000000 0.000000 
#    y 0.000000 2.514030 0.000000 
#    z 0.000000 0.000000 2.299790 
# 
# From -- ./inp_files/7899.got.cif
#   From: 2010.05.17/outbox.cif.g08.bks.cpg/sg41_4_cif.got.tgz:7899.got - 2010.06.03 18:54:24.
