data_PCOD9366740
_publ_section_title
;
Structure prediction by ZEFSAII (Michael W. Deem and Ramdas Pophale) SiO2 
 PCOD9366740
Probable space group: A B A 2
;
_chemical_formula_sum "Si O2"
_cell_formula_units_Z 44
_cell_length_a 27.897560
_cell_length_b 13.267624
_cell_length_c 5.313836
_cell_angle_alpha 90.000000
_cell_angle_beta 90.000000
_cell_angle_gamma 90.000000
_cell_volume 1966.833163
_symmetry_space_group_name_H-M "A B A 2"
_symmetry_group_IT_number 41
_symmetry_cell_setting 'orthorhombic'
loop_
_space_group_symop_operation_xyz
x,y,z
-x,-y,z
1/2-x,y,1/2+z
1/2+x,-y,1/2+z
x,1/2+y,1/2+z
-x,1/2-y,1/2+z
1/2-x,1/2+y,z
1/2+x,1/2-y,z
loop_
_atom_site_type_symbol
_atom_site_label
_atom_site_fract_x
_atom_site_fract_y
_atom_site_fract_z
Si Si1 0.473992 0.790302 0.831490
Si Si2 0.769884 0.057232 0.164840
Si Si3 0.000000 0.000000 0.560420
Si Si4 0.088590 0.111750 0.813180
Si Si5 0.230556 0.716203 0.660931
Si Si6 0.353791 0.580199 0.309205
O O1 0.500243 0.764987 0.568934
O O2 0.423555 0.731574 0.812763
O O3 0.477025 0.908707 0.896326
O O4 0.734279 0.019461 0.381079
O O5 0.750849 0.170953 0.129845
O O6 0.820771 0.019173 0.269161
O O7 0.959390 0.948023 0.731730
O O8 0.125013 0.086828 0.587419
O O9 0.106821 0.081604 0.088545
O O10 0.234762 0.677104 0.378896
O O11 0.179191 0.679750 0.760147
#
# Coordination Sequence:
#
# PCOD9366740 Si02
#       6
#     8   8   4   8   8   8
#     4  10  22  44  73  97 134 182 228 269 348 421
#     4  10  21  40  65  91 131 180 224 264 344 412
#     4  10  24  50  74  96 146 190 224 290 374 406
#     4  11  25  43  70 107 134 177 230 290 342 415
#     4  10  21  40  65  89 131 184 214 269 345 404
#     4  12  23  42  66 101 139 169 234 287 326 409
#
# _framework density 22.370988000000001
#
# number of rings (size 3 to 8) (size 9 to 14) (size 15 to 20)
#    0.000    1.455    0.000    5.455    0.000    6.545 
#   19.636    0.000    0.000    0.000    0.000    0.000 
#    0.000    0.000    0.000    0.000    0.000    0.000 
#
# Total GULP energy -122493.362910 kJ/mol
# GULP energy per Si atom -5567.880132 kJ/mol
# Density = 2.232007 g / cm^3
# Si number density = 22.370988 Si / 1000 Ang^3
#
#
#
# Elastic Constant Matrix: (Units=GPa)
#
#
# Indices 1 2 3 4 5 6 
#
# 1 60.2701 17.4673 -7.1746 0.0000 0.0000 0.0000
# 2 17.4673 175.0240 -7.5458 0.0000 0.0000 0.0000
# 3 -7.1746 -7.5458 110.5571 0.0000 0.0000 0.0000
# 4 0.0000 0.0000 0.0000 -0.0216 0.0000 0.0000
# 5 0.0000 0.0000 0.0000 0.0000 44.6803 0.0000
# 6 0.0000 0.0000 0.0000 0.0000 0.0000 69.4055
#
#
#
# Elastic Compliance Matrix: (Units=1/GPa)
#
#
# Indices 1 2 3 4 5 6 
#
# 1 0.017196 -0.001673 0.001002 0.000000 0.000000 0.000000
# 2 -0.001673 0.005893 0.000294 0.000000 0.000000 0.000000
# 3 0.001002 0.000294 0.009130 0.000000 0.000000 0.000000
# 4 0.000000 0.000000 0.000000-46.337118 0.000000 0.000000
# 5 0.000000 0.000000 0.000000 0.000000 0.022381 0.000000
# 6 0.000000 0.000000 0.000000 0.000000 0.000000 0.014408
#
#
# Mechanical properties :
#
#
# Convention : Reuss Voigt Hill
#
# Bulk Modulus (GPa) = 31.78211 39.03832 35.41022
# Shear Modulus (GPa) = -0.10809 45.68647 22.78919
#
# Velocity S-wave (km/s) = -0.22005 4.52399 3.19516
# Velocity P-wave (km/s) = 3.76472 6.69156 5.42909
#
# Compressibility (1/GPa) = 0.03146424
#
# Stress axis : x y z
#
# Youngs Moduli (GPa) = 58.15279 169.68926 109.52722
#
# Poissons Ratio (x) = 0.28389 -0.10972
# Poissons Ratio (y) = 0.09729 -0.03216
# Poissons Ratio (z) = -0.05826 -0.04983
#
# Static dielectric constant tensor:
#      x y z
#    x 1.848420 0.000000 0.000000 
#    y 0.000000 1.810570 0.000000 
#    z 0.000000 0.000000 1.831710 
# 
# From -- ./inp_files/1125.got.cif
#   From: 2010.05.17/outbox.cif.g08.bks.cpg/sg41_1_cif.got.tgz:1125.got - 2010.06.03 18:54:24.
