data_PCOD9366275
_publ_section_title
;
Structure prediction by ZEFSAII (Michael W. Deem and Ramdas Pophale) SiO2 
 PCOD9366275
Probable space group: A B A 2
;
_chemical_formula_sum "Si O2"
_cell_formula_units_Z 52
_cell_length_a 14.002947
_cell_length_b 9.105830
_cell_length_c 17.760015
_cell_angle_alpha 90.000000
_cell_angle_beta 90.000000
_cell_angle_gamma 90.000000
_cell_volume 2264.552071
_symmetry_space_group_name_H-M "A B A 2"
_symmetry_group_IT_number 41
_symmetry_cell_setting 'orthorhombic'
loop_
_space_group_symop_operation_xyz
x,y,z
-x,-y,z
1/2-x,y,1/2+z
1/2+x,-y,1/2+z
x,1/2+y,1/2+z
-x,1/2-y,1/2+z
1/2-x,1/2+y,z
1/2+x,1/2-y,z
loop_
_atom_site_type_symbol
_atom_site_label
_atom_site_fract_x
_atom_site_fract_y
_atom_site_fract_z
Si Si1 0.841098 0.364261 0.535020
Si Si2 0.731082 0.451514 0.298179
Si Si3 0.332996 0.796043 0.695516
Si Si4 0.116190 0.808672 0.835032
Si Si5 0.686350 0.574693 0.572304
Si Si6 0.500000 0.000000 0.435140
Si Si7 0.452890 0.780095 0.163469
O O1 0.736602 0.430840 0.544222
O O2 0.831908 0.195986 0.508102
O O3 0.896535 0.343995 0.615082
O O4 0.908831 0.462707 0.485272
O O5 0.785192 0.342023 0.239281
O O6 0.664673 0.567704 0.253913
O O7 0.671415 0.342508 0.351496
O O8 0.810350 0.554518 0.336183
O O9 0.263899 0.852235 0.629252
O O10 0.435922 0.753522 0.664312
O O11 0.027959 0.859337 0.885205
O O12 0.081189 0.790334 0.749095
O O13 0.590085 0.576444 0.621040
#
# Coordination Sequence:
#
# PCOD9366275 Si02
#       7
#     8   8   8   8   8   4   8
#     4  10  23  42  66  93 139 186 236 290 361 432
#     4  10  20  38  61  96 140 181 221 296 364 411
#     4  11  19  36  63 100 141 173 232 297 357 412
#     4  11  23  41  65 102 134 184 237 294 357 429
#     4  10  20  39  67  98 133 183 241 290 354 424
#     4  12  26  44  68 102 148 192 236 294 382 434
#     4  10  22  38  71 101 136 185 243 294 355 435
#
# _framework density 22.962599000000001
#
# number of rings (size 3 to 8) (size 9 to 14) (size 15 to 20)
#    0.923    0.615    3.077    3.692    0.000    3.077 
#    0.000    0.000    0.000    5.538    0.000    0.000 
#    0.000    0.000    0.000    0.000    0.000    0.000 
#
# Total GULP energy -145187.413860 kJ/mol
# GULP energy per Si atom -5584.131302 kJ/mol
# Density = 2.291034 g / cm^3
# Si number density = 22.962599 Si / 1000 Ang^3
#
#
#
# Elastic Constant Matrix: (Units=GPa)
#
#
# Indices 1 2 3 4 5 6 
#
# 1 131.1772 29.5053 15.7882 0.0000 0.0000 0.0000
# 2 29.5053 112.8637 19.1887 0.0000 0.0000 0.0000
# 3 15.7882 19.1887 58.9997 0.0000 0.0000 0.0000
# 4 0.0000 0.0000 0.0000 9.1339 0.0000 0.0000
# 5 0.0000 0.0000 0.0000 0.0000 11.9715 0.0000
# 6 0.0000 0.0000 0.0000 0.0000 0.0000 30.9955
#
#
#
# Elastic Compliance Matrix: (Units=1/GPa)
#
#
# Indices 1 2 3 4 5 6 
#
# 1 0.008238 -0.001883 -0.001592 0.000000 0.000000 0.000000
# 2 -0.001883 0.009809 -0.002686 0.000000 0.000000 0.000000
# 3 -0.001592 -0.002686 0.018249 0.000000 0.000000 0.000000
# 4 0.000000 0.000000 0.000000 0.109482 0.000000 0.000000
# 5 0.000000 0.000000 0.000000 0.000000 0.083531 0.000000
# 6 0.000000 0.000000 0.000000 0.000000 0.000000 0.032263
#
#
# Mechanical properties :
#
#
# Convention : Reuss Voigt Hill
#
# Bulk Modulus (GPa) = 41.71272 48.00055 44.85663
# Shear Modulus (GPa) = 17.73758 26.32409 22.03083
#
# Velocity S-wave (km/s) = 2.78232 3.38951 3.10081
# Velocity P-wave (km/s) = 5.34104 6.02226 5.69185
#
# Compressibility (1/GPa) = 0.02397350
#
# Stress axis : x y z
#
# Youngs Moduli (GPa) = 121.38201 101.94463 54.79750
#
# Poissons Ratio (x) = 0.19197 0.08725
# Poissons Ratio (y) = 0.22857 0.14721
# Poissons Ratio (z) = 0.19326 0.27386
#
# Static dielectric constant tensor:
#      x y z
#    x 1.848600 0.000000 0.000000 
#    y 0.000000 1.917180 0.000000 
#    z 0.000000 0.000000 1.872530 
# 
# From -- ./inp_files/11515.got.cif
#   From: 2010.05.17/outbox.cif.g08.bks.cpg/sg41_6_cif.got.tgz:11515.got - 2010.06.03 18:54:24.
