data_PCOD9366720
_publ_section_title
;
Structure prediction by ZEFSAII (Michael W. Deem and Ramdas Pophale) SiO2 
 PCOD9366720
Probable space group: A B A 2
;
_chemical_formula_sum "Si O2"
_cell_formula_units_Z 64
_cell_length_a 27.818486
_cell_length_b 4.834802
_cell_length_c 17.795851
_cell_angle_alpha 90.000000
_cell_angle_beta 90.000000
_cell_angle_gamma 90.000000
_cell_volume 2393.486290
_symmetry_space_group_name_H-M "A B A 2"
_symmetry_group_IT_number 41
_symmetry_cell_setting 'orthorhombic'
loop_
_space_group_symop_operation_xyz
x,y,z
-x,-y,z
1/2-x,y,1/2+z
1/2+x,-y,1/2+z
x,1/2+y,1/2+z
-x,1/2-y,1/2+z
1/2-x,1/2+y,z
1/2+x,1/2-y,z
loop_
_atom_site_type_symbol
_atom_site_label
_atom_site_fract_x
_atom_site_fract_y
_atom_site_fract_z
Si Si1 0.401706 0.288215 0.582470
Si Si2 0.120913 0.181745 0.915560
Si Si3 0.541834 0.717435 0.126136
Si Si4 0.948149 0.611849 0.793478
Si Si5 0.645871 0.330550 0.225524
Si Si6 0.717657 0.260067 0.658939
Si Si7 0.249050 0.970661 0.001845
Si Si8 0.178183 0.683854 0.881256
O O1 0.390165 0.306283 0.495918
O O2 0.447821 0.485121 0.592967
O O3 0.364967 0.353820 0.651354
O O4 0.412880 0.968426 0.600691
O O5 0.076061 0.213420 0.859228
O O6 0.162484 0.367505 0.876987
O O7 0.137669 0.867575 0.920110
O O8 0.500000 0.500000 0.107737
O O9 0.540934 0.765157 0.215474
O O10 0.906156 0.398358 0.764611
O O11 0.000000 0.500000 0.818534
O O12 0.673489 0.604833 0.196303
O O13 0.677258 0.215929 0.295519
O O14 0.762978 0.060061 0.678035
O O15 0.720578 0.261128 0.566505
O O16 0.209534 0.224602 0.007835
O O17 0.274715 0.215882 0.934328
#
# Coordination Sequence:
#
# PCOD9366720 Si02
#       8
#     8   8   8   8   8   8   8   8
#     4  11  23  38  65  96 130 174 224 277 345 406
#     4  11  24  41  66  98 128 182 223 283 343 414
#     4  10  21  40  62  91 130 171 219 277 335 403
#     4   9  21  44  70  99 139 184 234 289 355 422
#     4  10  24  43  68 104 140 185 235 294 353 423
#     4  10  24  40  65  99 138 181 231 291 347 423
#     4  10  22  40  64  95 131 178 224 279 344 412
#     4  11  24  42  66  92 138 173 231 274 346 411
#
# _framework density 26.739236999999999
#
# number of rings (size 3 to 8) (size 9 to 14) (size 15 to 20)
#    0.000    1.750    0.000    2.625    7.000    6.000 
#    0.000    6.250    0.000    0.000    0.000    0.000 
#    0.000    0.000    0.000    0.000    0.000    0.000 
#
# Total GULP energy -178357.636468 kJ/mol
# GULP energy per Si atom -5573.676140 kJ/mol
# Density = 2.667838 g / cm^3
# Si number density = 26.739237 Si / 1000 Ang^3
#
#
#
# Elastic Constant Matrix: (Units=GPa)
#
#
# Indices 1 2 3 4 5 6 
#
# 1 85.9213 15.9811 27.9340 0.0000 0.0000 0.0000
# 2 15.9811 180.9240 36.4049 0.0000 0.0000 0.0000
# 3 27.9340 36.4049 109.9001 0.0000 0.0000 0.0000
# 4 0.0000 0.0000 0.0000 27.7028 0.0000 0.0000
# 5 0.0000 0.0000 0.0000 0.0000 19.4884 0.0000
# 6 0.0000 0.0000 0.0000 0.0000 0.0000 36.9208
#
#
#
# Elastic Compliance Matrix: (Units=1/GPa)
#
#
# Indices 1 2 3 4 5 6 
#
# 1 0.012730 -0.000507 -0.003068 0.000000 0.000000 0.000000
# 2 -0.000507 0.005942 -0.001839 0.000000 0.000000 0.000000
# 3 -0.003068 -0.001839 0.010488 0.000000 0.000000 0.000000
# 4 0.000000 0.000000 0.000000 0.036097 0.000000 0.000000
# 5 0.000000 0.000000 0.000000 0.000000 0.051312 0.000000
# 6 0.000000 0.000000 0.000000 0.000000 0.000000 0.027085
#
#
# Mechanical properties :
#
#
# Convention : Reuss Voigt Hill
#
# Bulk Modulus (GPa) = 54.54970 59.70948 57.12959
# Shear Modulus (GPa) = 31.13426 36.58410 33.85918
#
# Velocity S-wave (km/s) = 3.41598 3.70291 3.56233
# Velocity P-wave (km/s) = 6.00029 6.37658 6.19129
#
# Compressibility (1/GPa) = 0.01833191
#
# Stress axis : x y z
#
# Youngs Moduli (GPa) = 78.55304 168.29047 95.34489
#
# Poissons Ratio (x) = 0.08536 0.29249
# Poissons Ratio (y) = 0.03984 0.17538
# Poissons Ratio (z) = 0.24098 0.30956
#
# Static dielectric constant tensor:
#      x y z
#    x 2.339770 0.000000 0.000000 
#    y 0.000000 2.428320 0.000000 
#    z 0.000000 0.000000 2.245040 
# 
# From -- ./inp_files/10844.got.cif
#   From: 2010.05.17/outbox.cif.g08.bks.cpg/sg41_6_cif.got.tgz:10844.got - 2010.06.03 18:54:24.
