data_PCOD9366207
_publ_section_title
;
Structure prediction by ZEFSAII (Michael W. Deem and Ramdas Pophale) SiO2 
 PCOD9366207
Probable space group: A B A 2
;
_chemical_formula_sum "Si O2"
_cell_formula_units_Z 48
_cell_length_a 13.030899
_cell_length_b 16.592252
_cell_length_c 9.016086
_cell_angle_alpha 90.000000
_cell_angle_beta 90.000000
_cell_angle_gamma 90.000000
_cell_volume 1949.385626
_symmetry_space_group_name_H-M "A B A 2"
_symmetry_group_IT_number 41
_symmetry_cell_setting 'orthorhombic'
loop_
_space_group_symop_operation_xyz
x,y,z
-x,-y,z
1/2-x,y,1/2+z
1/2+x,-y,1/2+z
x,1/2+y,1/2+z
-x,1/2-y,1/2+z
1/2-x,1/2+y,z
1/2+x,1/2-y,z
loop_
_atom_site_type_symbol
_atom_site_label
_atom_site_fract_x
_atom_site_fract_y
_atom_site_fract_z
Si Si1 0.743538 0.917089 0.917600
Si Si2 0.311882 0.823691 0.252158
Si Si3 0.135318 0.201116 0.766075
Si Si4 0.823445 0.071948 0.031446
Si Si5 0.608165 0.909757 0.661009
Si Si6 0.485224 0.742211 0.051358
O O1 0.838196 0.890844 0.808692
O O2 0.638936 0.900791 0.831590
O O3 0.790671 0.878459 0.066860
O O4 0.742869 0.011556 0.950711
O O5 0.239245 0.749869 0.300903
O O6 0.235472 0.879572 0.157317
O O7 0.355931 0.870094 0.395918
O O8 0.398868 0.792125 0.141373
O O9 0.091138 0.218193 0.603650
O O10 0.051039 0.235941 0.882288
O O11 0.893813 0.002453 0.107365
O O12 0.519303 0.849419 0.614676
#
# Coordination Sequence:
#
# PCOD9366207 Si02
#       6
#     8   8   8   8   8   8
#     4   9  18  37  61  88 119 165 204 245 326 374
#     4  12  22  40  66  98 124 164 220 276 312 380
#     4  11  25  41  63  97 128 170 218 264 321 386
#     4  10  20  36  67  89 126 160 207 261 327 373
#     4   9  18  37  61  88 119 165 204 245 326 374
#     4  11  25  41  63  97 128 170 218 264 321 386
#
# _framework density 24.623142000000001
#
# number of rings (size 3 to 8) (size 9 to 14) (size 15 to 20)
#    1.000    0.667    5.000    0.000    2.333    1.333 
#    0.000    3.333    0.000    4.000    0.000    0.000 
#    0.000    0.000    0.000    0.000    0.000    0.000 
#
# Total GULP energy -133870.898578 kJ/mol
# GULP energy per Si atom -5577.954107 kJ/mol
# Density = 2.456710 g / cm^3
# Si number density = 24.623142 Si / 1000 Ang^3
#
#
#
# Elastic Constant Matrix: (Units=GPa)
#
#
# Indices 1 2 3 4 5 6 
#
# 1 59.2093 9.7707 14.2197 0.0000 0.0000 0.0000
# 2 9.7707 105.8921 25.2070 0.0000 0.0000 0.0000
# 3 14.2197 25.2070 107.8815 0.0000 0.0000 0.0000
# 4 0.0000 0.0000 0.0000 36.9431 0.0000 0.0000
# 5 0.0000 0.0000 0.0000 0.0000 41.2432 0.0000
# 6 0.0000 0.0000 0.0000 0.0000 0.0000 24.1273
#
#
#
# Elastic Compliance Matrix: (Units=1/GPa)
#
#
# Indices 1 2 3 4 5 6 
#
# 1 0.017569 -0.001133 -0.002051 0.000000 0.000000 0.000000
# 2 -0.001133 0.010073 -0.002204 0.000000 0.000000 0.000000
# 3 -0.002051 -0.002204 0.010055 0.000000 0.000000 0.000000
# 4 0.000000 0.000000 0.000000 0.027069 0.000000 0.000000
# 5 0.000000 0.000000 0.000000 0.000000 0.024246 0.000000
# 6 0.000000 0.000000 0.000000 0.000000 0.000000 0.041447
#
#
# Mechanical properties :
#
#
# Convention : Reuss Voigt Hill
#
# Bulk Modulus (GPa) = 37.14686 41.26418 39.20552
# Shear Modulus (GPa) = 33.28720 35.38176 34.33448
#
# Velocity S-wave (km/s) = 3.68076 3.79480 3.73822
# Velocity P-wave (km/s) = 5.76046 5.99961 5.88125
#
# Compressibility (1/GPa) = 0.02692017
#
# Stress axis : x y z
#
# Youngs Moduli (GPa) = 56.91918 99.27722 99.45499
#
# Poissons Ratio (x) = 0.11247 0.20398
# Poissons Ratio (y) = 0.06448 0.21922
# Poissons Ratio (z) = 0.11674 0.21883
#
# Static dielectric constant tensor:
#      x y z
#    x 1.974260 0.000000 0.000000 
#    y 0.000000 1.958750 0.000000 
#    z 0.000000 0.000000 1.996790 
# 
# From -- ./inp_files/2556.got.cif
#   From: 2010.05.17/outbox.cif.g08.bks.cpg/sg41_2_cif.got.tgz:2556.got - 2010.06.03 18:54:24.
