data_PCOD9366571
_publ_section_title
;
Structure prediction by ZEFSAII (Michael W. Deem and Ramdas Pophale) SiO2 
 PCOD9366571
Probable space group: A B A 2
;
_chemical_formula_sum "Si O2"
_cell_formula_units_Z 40
_cell_length_a 14.292336
_cell_length_b 5.005051
_cell_length_c 23.227208
_cell_angle_alpha 90.000000
_cell_angle_beta 90.000000
_cell_angle_gamma 90.000000
_cell_volume 1661.532091
_symmetry_space_group_name_H-M "A B A 2"
_symmetry_group_IT_number 41
_symmetry_cell_setting 'orthorhombic'
loop_
_space_group_symop_operation_xyz
x,y,z
-x,-y,z
1/2-x,y,1/2+z
1/2+x,-y,1/2+z
x,1/2+y,1/2+z
-x,1/2-y,1/2+z
1/2-x,1/2+y,z
1/2+x,1/2-y,z
loop_
_atom_site_type_symbol
_atom_site_label
_atom_site_fract_x
_atom_site_fract_y
_atom_site_fract_z
Si Si1 0.807015 0.634382 0.769530
Si Si2 0.112594 0.510417 0.647126
Si Si3 0.885113 0.496677 0.942128
Si Si4 0.389097 0.018653 0.369836
Si Si5 0.613585 0.979710 0.073530
O O1 0.785414 0.319870 0.778936
O O2 0.842345 0.615052 0.704365
O O3 0.872662 0.805988 0.811381
O O4 0.000000 0.500000 0.656409
O O5 0.859864 0.199167 0.622238
O O6 0.137202 0.310583 0.596317
O O7 0.000000 0.500000 0.943681
O O8 0.141789 0.731115 0.895573
O O9 0.852927 0.777234 0.917492
O O10 0.852621 0.489470 0.008036
O O11 0.500000 0.000000 0.371872
O O12 0.500000 0.000000 0.071111
#
# Coordination Sequence:
#
# PCOD9366571 Si02
#       5
#     8   8   8   8   8
#     4  12  26  42  60  84 124 166 202 250 304 356
#     4  10  21  37  61  88 115 154 203 248 295 360
#     4   9  17  32  58  91 119 144 187 251 309 354
#     4  10  21  37  61  88 115 154 203 248 295 360
#     4   9  17  32  58  91 119 144 187 251 309 354
#
# _framework density 24.074169000000001
#
# number of rings (size 3 to 8) (size 9 to 14) (size 15 to 20)
#    0.000    2.000    0.000    3.600    0.000   11.200 
#    0.000    0.000    0.000   24.000    0.000    0.000 
#    0.000    0.000    0.000    0.000    0.000    0.000 
#
# Total GULP energy -111446.129618 kJ/mol
# GULP energy per Si atom -5572.306481 kJ/mol
# Density = 2.401937 g / cm^3
# Si number density = 24.074169 Si / 1000 Ang^3
#
#
#
# Elastic Constant Matrix: (Units=GPa)
#
#
# Indices 1 2 3 4 5 6 
#
# 1 65.2579 -1.1682 21.9672 0.0000 0.0000 0.0000
# 2 -1.1682 129.3828 33.8309 0.0000 0.0000 0.0000
# 3 21.9672 33.8309 177.9757 0.0000 0.0000 0.0000
# 4 0.0000 0.0000 0.0000 23.1107 0.0000 0.0000
# 5 0.0000 0.0000 0.0000 0.0000 8.3612 0.0000
# 6 0.0000 0.0000 0.0000 0.0000 0.0000 3.9781
#
#
#
# Elastic Compliance Matrix: (Units=1/GPa)
#
#
# Indices 1 2 3 4 5 6 
#
# 1 0.016048 0.000697 -0.002113 0.000000 0.000000 0.000000
# 2 0.000697 0.008164 -0.001638 0.000000 0.000000 0.000000
# 3 -0.002113 -0.001638 0.006191 0.000000 0.000000 0.000000
# 4 0.000000 0.000000 0.000000 0.043270 0.000000 0.000000
# 5 0.000000 0.000000 0.000000 0.000000 0.119600 0.000000
# 6 0.000000 0.000000 0.000000 0.000000 0.000000 0.251378
#
#
# Mechanical properties :
#
#
# Convention : Reuss Voigt Hill
#
# Bulk Modulus (GPa) = 41.16113 53.54178 47.35146
# Shear Modulus (GPa) = 10.89667 28.28910 19.59288
#
# Velocity S-wave (km/s) = 2.12982 3.43166 2.85591
# Velocity P-wave (km/s) = 4.81486 6.16363 5.53052
#
# Compressibility (1/GPa) = 0.02429476
#
# Stress axis : x y z
#
# Youngs Moduli (GPa) = 62.31429 122.49536 161.52665
#
# Poissons Ratio (x) = -0.08544 0.34136
# Poissons Ratio (y) = -0.04346 0.26456
# Poissons Ratio (z) = 0.13169 0.20063
#
# Static dielectric constant tensor:
#      x y z
#    x 2.007030 0.000000 0.000000 
#    y 0.000000 1.936950 0.000000 
#    z 0.000000 0.000000 1.917420 
# 
# From -- ./inp_files/11615.got.cif
#   From: 2010.05.17/outbox.cif.g08.bks.cpg/sg41_6_cif.got.tgz:11615.got - 2010.06.03 18:54:24.
