data_PCOD9366391
_publ_section_title
;
Structure prediction by ZEFSAII (Michael W. Deem and Ramdas Pophale) SiO2 
 PCOD9366391
Probable space group: A B A 2
;
_chemical_formula_sum "Si O2"
_cell_formula_units_Z 56
_cell_length_a 10.145758
_cell_length_b 14.238057
_cell_length_c 14.868666
_cell_angle_alpha 90.000000
_cell_angle_beta 90.000000
_cell_angle_gamma 90.000000
_cell_volume 2147.866242
_symmetry_space_group_name_H-M "A B A 2"
_symmetry_group_IT_number 41
_symmetry_cell_setting 'orthorhombic'
loop_
_space_group_symop_operation_xyz
x,y,z
-x,-y,z
1/2-x,y,1/2+z
1/2+x,-y,1/2+z
x,1/2+y,1/2+z
-x,1/2-y,1/2+z
1/2-x,1/2+y,z
1/2+x,1/2-y,z
loop_
_atom_site_type_symbol
_atom_site_label
_atom_site_fract_x
_atom_site_fract_y
_atom_site_fract_z
Si Si1 0.718585 0.144355 0.056810
Si Si2 0.037015 0.101059 0.624156
Si Si3 0.031383 0.228113 0.783306
Si Si4 0.302268 0.640686 0.340550
Si Si5 0.200101 0.019694 0.170258
Si Si6 0.557478 0.103524 0.427197
Si Si7 0.180330 0.143084 0.036436
O O1 0.568192 0.110218 0.046303
O O2 0.802639 0.111787 0.972609
O O3 0.726704 0.254113 0.069728
O O4 0.774209 0.085859 0.142849
O O5 0.023240 0.196067 0.680113
O O6 0.191070 0.081652 0.608604
O O7 0.000000 0.000000 0.670091
O O8 0.946042 0.316483 0.816409
O O9 0.185137 0.213423 0.809842
O O10 0.950565 0.141801 0.827679
O O11 0.287941 0.552123 0.271788
O O12 0.269255 0.618447 0.443968
O O13 0.096017 0.076800 0.111873
O O14 0.455861 0.169866 0.479814
O O15 0.500000 0.000000 0.430245
#
# Coordination Sequence:
#
# PCOD9366391 Si02
#       7
#     8   8   8   8   8   8   8
#     4  11  22  40  62  97 133 174 229 284 355 420
#     4   9  20  37  62  89 124 179 223 281 341 423
#     4  10  20  40  63  97 132 178 235 289 358 423
#     4  10  22  40  65 100 138 177 240 290 356 429
#     4  10  22  42  62  96 136 175 230 284 351 424
#     4  11  22  40  67  99 134 180 236 302 361 436
#     4  11  23  40  67  99 135 180 229 295 353 426
#
# _framework density 26.072386999999999
#
# number of rings (size 3 to 8) (size 9 to 14) (size 15 to 20)
#    0.000    1.714    2.857    1.286    2.000    1.143 
#    2.571    0.000    0.000    0.000    3.714    0.000 
#    0.000    0.000    0.000    0.000    0.000    0.000 
#
# Total GULP energy -156074.572323 kJ/mol
# GULP energy per Si atom -5574.091869 kJ/mol
# Density = 2.601304 g / cm^3
# Si number density = 26.072387 Si / 1000 Ang^3
#
#
#
# Elastic Constant Matrix: (Units=GPa)
#
#
# Indices 1 2 3 4 5 6 
#
# 1 85.2078 -4.2663 12.2594 0.0000 0.0000 0.0000
# 2 -4.2663 155.7191 38.1399 0.0000 0.0000 0.0000
# 3 12.2594 38.1399 119.5903 0.0000 0.0000 0.0000
# 4 0.0000 0.0000 0.0000 33.9047 0.0000 0.0000
# 5 0.0000 0.0000 0.0000 0.0000 24.9894 0.0000
# 6 0.0000 0.0000 0.0000 0.0000 0.0000 26.2082
#
#
#
# Elastic Compliance Matrix: (Units=1/GPa)
#
#
# Indices 1 2 3 4 5 6 
#
# 1 0.011978 0.000682 -0.001445 0.000000 0.000000 0.000000
# 2 0.000682 0.007005 -0.002304 0.000000 0.000000 0.000000
# 3 -0.001445 -0.002304 0.009245 0.000000 0.000000 0.000000
# 4 0.000000 0.000000 0.000000 0.029494 0.000000 0.000000
# 5 0.000000 0.000000 0.000000 0.000000 0.040017 0.000000
# 6 0.000000 0.000000 0.000000 0.000000 0.000000 0.038156
#
#
# Mechanical properties :
#
#
# Convention : Reuss Voigt Hill
#
# Bulk Modulus (GPa) = 45.26235 50.30923 47.78579
# Shear Modulus (GPa) = 33.46855 37.97941 35.72398
#
# Velocity S-wave (km/s) = 3.58673 3.82080 3.70562
# Velocity P-wave (km/s) = 5.87799 6.22917 6.05613
#
# Compressibility (1/GPa) = 0.02209342
#
# Stress axis : x y z
#
# Youngs Moduli (GPa) = 83.48543 142.75920 108.16859
#
# Poissons Ratio (x) = -0.09739 0.15635
# Poissons Ratio (y) = -0.05695 0.24921
# Poissons Ratio (z) = 0.12068 0.32891
#
# Static dielectric constant tensor:
#      x y z
#    x 2.264820 0.000000 0.000000 
#    y 0.000000 2.025430 0.000000 
#    z 0.000000 0.000000 2.081660 
# 
# From -- ./inp_files/7970.got.cif
#   From: 2010.05.17/outbox.cif.g08.bks.cpg/sg41_4_cif.got.tgz:7970.got - 2010.06.03 18:54:24.
