data_PCOD9366280
_publ_section_title
;
Structure prediction by ZEFSAII (Michael W. Deem and Ramdas Pophale) SiO2 
 PCOD9366280
Probable space group: A B A 2
;
_chemical_formula_sum "Si O2"
_cell_formula_units_Z 52
_cell_length_a 26.564941
_cell_length_b 8.483818
_cell_length_c 11.494311
_cell_angle_alpha 90.000000
_cell_angle_beta 90.000000
_cell_angle_gamma 90.000000
_cell_volume 2590.497291
_symmetry_space_group_name_H-M "A B A 2"
_symmetry_group_IT_number 41
_symmetry_cell_setting 'orthorhombic'
loop_
_space_group_symop_operation_xyz
x,y,z
-x,-y,z
1/2-x,y,1/2+z
1/2+x,-y,1/2+z
x,1/2+y,1/2+z
-x,1/2-y,1/2+z
1/2-x,1/2+y,z
1/2+x,1/2-y,z
loop_
_atom_site_type_symbol
_atom_site_label
_atom_site_fract_x
_atom_site_fract_y
_atom_site_fract_z
Si Si1 0.856265 0.226169 0.560630
Si Si2 0.329421 0.507746 0.875387
Si Si3 0.233321 0.474798 0.160678
Si Si4 0.917006 0.205803 0.781232
Si Si5 0.000000 0.000000 0.673478
Si Si6 0.190437 0.269052 0.568696
Si Si7 0.091628 0.601051 0.016412
O O1 0.844186 0.355200 0.464079
O O2 0.805634 0.161361 0.621752
O O3 0.892637 0.282830 0.665493
O O4 0.883604 0.072285 0.506894
O O5 0.287870 0.547866 0.779274
O O6 0.379272 0.439331 0.812741
O O7 0.307639 0.360862 0.947807
O O8 0.287712 0.395774 0.159953
O O9 0.225212 0.614681 0.069071
O O10 0.970219 0.128561 0.749427
O O11 0.917995 0.320430 0.891499
O O12 0.041593 0.082255 0.591790
O O13 0.133626 0.207854 0.582109
#
# Coordination Sequence:
#
# PCOD9366280 Si02
#       7
#     8   8   8   8   4   8   8
#     4   9  19  37  59  86 118 151 195 243 291 358
#     4  10  21  38  60  85 117 157 195 241 298 354
#     4  10  21  36  56  83 116 153 192 243 297 350
#     4   9  20  38  60  86 118 154 195 245 299 354
#     4  10  20  38  62  90 122 154 202 258 308 358
#     4  10  21  38  58  85 117 154 200 241 291 363
#     4   9  20  39  62  87 119 158 202 253 304 358
#
# _framework density 20.073366
#
# number of rings (size 3 to 8) (size 9 to 14) (size 15 to 20)
#    0.000    2.462    0.000    1.846    0.000    6.154 
#    0.000    7.692    0.000    0.000    0.000    0.000 
#    0.000    0.000    0.000    0.000    0.000    0.000 
#
# Total GULP energy -145082.593954 kJ/mol
# GULP energy per Si atom -5580.099767 kJ/mol
# Density = 2.002768 g / cm^3
# Si number density = 20.073366 Si / 1000 Ang^3
#
#
#
# Elastic Constant Matrix: (Units=GPa)
#
#
# Indices 1 2 3 4 5 6 
#
# 1 115.9786 58.5930 61.0607 0.0000 0.0000 0.0000
# 2 58.5930 73.0859 56.4110 0.0000 0.0000 0.0000
# 3 61.0607 56.4110 102.1238 0.0000 0.0000 0.0000
# 4 0.0000 0.0000 0.0000 44.1126 0.0000 0.0000
# 5 0.0000 0.0000 0.0000 0.0000 27.9394 0.0000
# 6 0.0000 0.0000 0.0000 0.0000 0.0000 29.7331
#
#
#
# Elastic Compliance Matrix: (Units=1/GPa)
#
#
# Indices 1 2 3 4 5 6 
#
# 1 0.015450 -0.009163 -0.004176 0.000000 0.000000 0.000000
# 2 -0.009163 0.029286 -0.010698 0.000000 0.000000 0.000000
# 3 -0.004176 -0.010698 0.018199 0.000000 0.000000 0.000000
# 4 0.000000 0.000000 0.000000 0.022669 0.000000 0.000000
# 5 0.000000 0.000000 0.000000 0.000000 0.035792 0.000000
# 6 0.000000 0.000000 0.000000 0.000000 0.000000 0.033633
#
#
# Mechanical properties :
#
#
# Convention : Reuss Voigt Hill
#
# Bulk Modulus (GPa) = 67.29702 71.47972 69.38837
# Shear Modulus (GPa) = 24.03191 28.03194 26.03193
#
# Velocity S-wave (km/s) = 3.46382 3.74100 3.60507
# Velocity P-wave (km/s) = 7.04242 7.37202 7.20910
#
# Compressibility (1/GPa) = 0.01485950
#
# Stress axis : x y z
#
# Youngs Moduli (GPa) = 64.72390 34.14618 54.94904
#
# Poissons Ratio (x) = 0.31288 0.22949
# Poissons Ratio (y) = 0.59306 0.58786
# Poissons Ratio (z) = 0.27032 0.36531
#
# Static dielectric constant tensor:
#      x y z
#    x 1.728090 0.000000 0.000000 
#    y 0.000000 1.710610 0.000000 
#    z 0.000000 0.000000 1.724400 
# 
# From -- ./inp_files/6546.got.cif
#   From: 2010.05.17/outbox.cif.g08.bks.cpg/sg41_4_cif.got.tgz:6546.got - 2010.06.03 18:54:24.
