data_PCOD9366086
_publ_section_title
;
Structure prediction by ZEFSAII (Michael W. Deem and Ramdas Pophale) SiO2 
 PCOD9366086
Probable space group: A B A 2
;
_chemical_formula_sum "Si O2"
_cell_formula_units_Z 64
_cell_length_a 15.295959
_cell_length_b 23.106649
_cell_length_c 9.126076
_cell_angle_alpha 90.000000
_cell_angle_beta 90.000000
_cell_angle_gamma 90.000000
_cell_volume 3225.505296
_symmetry_space_group_name_H-M "A B A 2"
_symmetry_group_IT_number 41
_symmetry_cell_setting 'orthorhombic'
loop_
_space_group_symop_operation_xyz
x,y,z
-x,-y,z
1/2-x,y,1/2+z
1/2+x,-y,1/2+z
x,1/2+y,1/2+z
-x,1/2-y,1/2+z
1/2-x,1/2+y,z
1/2+x,1/2-y,z
loop_
_atom_site_type_symbol
_atom_site_label
_atom_site_fract_x
_atom_site_fract_y
_atom_site_fract_z
Si Si1 0.683664 0.086478 0.583370
Si Si2 0.507615 0.933519 0.690743
Si Si3 0.070616 0.053542 0.894234
Si Si4 0.485087 0.826594 0.893213
Si Si5 0.309721 0.461751 0.774447
Si Si6 0.687176 0.209687 0.712562
Si Si7 0.947389 0.132440 0.718230
Si Si8 0.640848 0.237579 0.385774
O O1 0.580217 0.083286 0.600157
O O2 0.711398 0.075417 0.418997
O O3 0.724903 0.035213 0.677012
O O4 0.716059 0.146118 0.653433
O O5 0.580364 0.928699 0.563809
O O6 0.508241 0.888572 0.821899
O O7 0.500000 0.000000 0.739603
O O8 0.031906 0.104776 0.796573
O O9 0.153774 0.023014 0.824188
O O10 0.000000 0.000000 0.896657
O O11 0.397085 0.801311 0.816249
O O12 0.567062 0.785501 0.858541
O O13 0.467376 0.835850 0.065635
O O14 0.383360 0.422875 0.693175
O O15 0.659807 0.239027 0.559691
O O16 0.767280 0.239634 0.797648
O O17 0.902761 0.177343 0.831022
#
# Coordination Sequence:
#
# PCOD9366086 Si02
#       8
#     8   8   8   8   8   8   8   8
#     4  11  19  35  60  97 118 156 212 266 315 371
#     4  10  19  40  66  87 127 166 213 261 322 386
#     4   9  18  38  60  83 120 176 198 247 324 383
#     4  11  26  38  66 102 123 171 222 268 330 393
#     4  11  21  34  61  93 126 158 209 262 323 374
#     4  11  22  40  66  95 124 167 211 272 329 378
#     4  11  20  38  61  90 126 160 214 263 319 391
#     4  12  23  43  67  92 132 167 221 273 326 393
#
# _framework density 19.841853
#
# number of rings (size 3 to 8) (size 9 to 14) (size 15 to 20)
#    0.000    1.250    6.250    2.250    3.500    1.500 
#    0.000    1.250    8.250    0.000    0.000    0.000 
#    0.000    0.000    0.000    0.000    0.000    0.000 
#
# Total GULP energy -178562.527532 kJ/mol
# GULP energy per Si atom -5580.078985 kJ/mol
# Density = 1.979669 g / cm^3
# Si number density = 19.841853 Si / 1000 Ang^3
#
#
#
# Elastic Constant Matrix: (Units=GPa)
#
#
# Indices 1 2 3 4 5 6 
#
# 1 71.9403 37.0527 43.6451 0.0000 0.0000 0.0000
# 2 37.0527 54.5723 39.4046 0.0000 0.0000 0.0000
# 3 43.6451 39.4046 101.2468 0.0000 0.0000 0.0000
# 4 0.0000 0.0000 0.0000 15.5782 0.0000 0.0000
# 5 0.0000 0.0000 0.0000 0.0000 27.3074 0.0000
# 6 0.0000 0.0000 0.0000 0.0000 0.0000 25.0912
#
#
#
# Elastic Compliance Matrix: (Units=1/GPa)
#
#
# Indices 1 2 3 4 5 6 
#
# 1 0.023330 -0.011931 -0.005413 0.000000 0.000000 0.000000
# 2 -0.011931 0.031589 -0.007151 0.000000 0.000000 0.000000
# 3 -0.005413 -0.007151 0.014993 0.000000 0.000000 0.000000
# 4 0.000000 0.000000 0.000000 0.064192 0.000000 0.000000
# 5 0.000000 0.000000 0.000000 0.000000 0.036620 0.000000
# 6 0.000000 0.000000 0.000000 0.000000 0.000000 0.039855
#
#
# Mechanical properties :
#
#
# Convention : Reuss Voigt Hill
#
# Bulk Modulus (GPa) = 47.79894 51.99601 49.89748
# Shear Modulus (GPa) = 18.75868 20.77250 19.76559
#
# Velocity S-wave (km/s) = 3.07809 3.23910 3.15962
# Velocity P-wave (km/s) = 6.06425 6.34438 6.20589
#
# Compressibility (1/GPa) = 0.02092097
#
# Stress axis : x y z
#
# Youngs Moduli (GPa) = 42.86363 31.65702 66.69595
#
# Poissons Ratio (x) = 0.37771 0.36105
# Poissons Ratio (y) = 0.51142 0.47692
# Poissons Ratio (z) = 0.23203 0.22637
#
# Static dielectric constant tensor:
#      x y z
#    x 1.727000 0.000000 0.000000 
#    y 0.000000 1.712840 0.000000 
#    z 0.000000 0.000000 1.716370 
# 
# From -- ./inp_files/3269.got.cif
#   From: 2010.05.17/outbox.cif.g08.bks.cpg/sg41_2_cif.got.tgz:3269.got - 2010.06.03 18:54:24.
