data_PCOD9366241
_publ_section_title
;
Structure prediction by ZEFSAII (Michael W. Deem and Ramdas Pophale) SiO2 
 PCOD9366241
Probable space group: A B A 2
;
_chemical_formula_sum "Si O2"
_cell_formula_units_Z 60
_cell_length_a 4.950570
_cell_length_b 26.353437
_cell_length_c 21.221852
_cell_angle_alpha 90.000000
_cell_angle_beta 90.000000
_cell_angle_gamma 90.000000
_cell_volume 2768.699045
_symmetry_space_group_name_H-M "A B A 2"
_symmetry_group_IT_number 41
_symmetry_cell_setting 'orthorhombic'
loop_
_space_group_symop_operation_xyz
x,y,z
-x,-y,z
1/2-x,y,1/2+z
1/2+x,-y,1/2+z
x,1/2+y,1/2+z
-x,1/2-y,1/2+z
1/2-x,1/2+y,z
1/2+x,1/2-y,z
loop_
_atom_site_type_symbol
_atom_site_label
_atom_site_fract_x
_atom_site_fract_y
_atom_site_fract_z
Si Si1 0.354511 0.551685 0.129080
Si Si2 0.582050 0.591619 0.449856
Si Si3 0.487814 0.600208 0.742341
Si Si4 0.441792 0.123397 0.523262
Si Si5 0.508764 0.060708 0.810921
Si Si6 0.125537 0.720283 0.073307
Si Si7 0.500000 0.500000 0.523376
Si Si8 0.610835 0.282219 0.725100
O O1 0.500000 0.500000 0.153595
O O2 0.155282 0.577800 0.179360
O O3 0.522307 0.593726 0.089073
O O4 0.179759 0.531224 0.071236
O O5 0.275038 0.598699 0.474030
O O6 0.599732 0.587144 0.375430
O O7 0.668128 0.537297 0.479307
O O8 0.786800 0.630126 0.483048
O O9 0.787895 0.579330 0.755475
O O10 0.472034 0.661104 0.744117
O O11 0.292698 0.578552 0.796037
O O12 0.272422 0.171529 0.546356
O O13 0.500000 0.000000 0.816456
O O14 0.320439 0.767146 0.055255
O O15 0.121199 0.716023 0.149036
O O16 0.400019 0.238916 0.745681
#
# Coordination Sequence:
#
# PCOD9366241 Si02
#       8
#     8   8   8   8   8   8   4   8
#     4  11  23  38  60  96 135 164 206 257 337 383
#     4  11  23  42  65  88 129 176 228 249 305 379
#     4  12  26  42  67  97 135 169 218 279 332 397
#     4  11  22  39  67  97 126 168 214 274 314 391
#     4  12  27  45  65  93 135 184 224 266 316 390
#     4  10  20  37  63  97 134 164 206 269 344 399
#     4  10  22  38  60  90 126 172 204 256 298 384
#     4  10  21  41  66  94 128 169 216 272 337 408
#
# _framework density 21.670828
#
# number of rings (size 3 to 8) (size 9 to 14) (size 15 to 20)
#    0.000    1.067    3.333    3.200    3.733    0.000 
#    0.000    0.000    0.000   16.000    0.000    0.000 
#    0.000    0.000    0.000    0.000    0.000    0.000 
#
# Total GULP energy -167452.910332 kJ/mol
# GULP energy per Si atom -5581.763678 kJ/mol
# Density = 2.162150 g / cm^3
# Si number density = 21.670828 Si / 1000 Ang^3
#
#
#
# Elastic Constant Matrix: (Units=GPa)
#
#
# Indices 1 2 3 4 5 6 
#
# 1 74.1106 0.9454 -6.9480 0.0000 0.0000 0.0000
# 2 0.9454 91.2194 1.5328 0.0000 0.0000 0.0000
# 3 -6.9480 1.5328 33.1753 0.0000 0.0000 0.0000
# 4 0.0000 0.0000 0.0000 16.0948 0.0000 0.0000
# 5 0.0000 0.0000 0.0000 0.0000 25.0896 0.0000
# 6 0.0000 0.0000 0.0000 0.0000 0.0000 28.7570
#
#
#
# Elastic Compliance Matrix: (Units=1/GPa)
#
#
# Indices 1 2 3 4 5 6 
#
# 1 0.013767 -0.000191 0.002892 0.000000 0.000000 0.000000
# 2 -0.000191 0.010974 -0.000547 0.000000 0.000000 0.000000
# 3 0.002892 -0.000547 0.030774 0.000000 0.000000 0.000000
# 4 0.000000 0.000000 0.000000 0.062132 0.000000 0.000000
# 5 0.000000 0.000000 0.000000 0.000000 0.039857 0.000000
# 6 0.000000 0.000000 0.000000 0.000000 0.000000 0.034774
#
#
# Mechanical properties :
#
#
# Convention : Reuss Voigt Hill
#
# Bulk Modulus (GPa) = 16.71627 21.06288 18.88957
# Shear Modulus (GPa) = 24.04876 27.51995 25.78435
#
# Velocity S-wave (km/s) = 3.33487 3.56744 3.45312
# Velocity P-wave (km/s) = 4.74963 5.16812 4.96329
#
# Compressibility (1/GPa) = 0.05982195
#
# Stress axis : x y z
#
# Youngs Moduli (GPa) = 72.63785 91.12652 32.49508
#
# Poissons Ratio (x) = 0.01743 -0.09398
# Poissons Ratio (y) = 0.01389 0.01778
# Poissons Ratio (z) = -0.21007 0.04986
#
# Static dielectric constant tensor:
#      x y z
#    x 1.821780 0.000000 0.000000 
#    y 0.000000 1.904400 0.000000 
#    z 0.000000 0.000000 1.781620 
# 
# From -- ./inp_files/11016.got.cif
#   From: 2010.05.17/outbox.cif.g08.bks.cpg/sg41_6_cif.got.tgz:11016.got - 2010.06.03 18:54:24.
