data_PCOD9366338
_publ_section_title
;
Structure prediction by ZEFSAII (Michael W. Deem and Ramdas Pophale) SiO2 
 PCOD9366338
Probable space group: A B A 2
;
_chemical_formula_sum "Si O2"
_cell_formula_units_Z 60
_cell_length_a 25.649458
_cell_length_b 12.484159
_cell_length_c 7.181581
_cell_angle_alpha 90.000000
_cell_angle_beta 90.000000
_cell_angle_gamma 90.000000
_cell_volume 2299.627783
_symmetry_space_group_name_H-M "A B A 2"
_symmetry_group_IT_number 41
_symmetry_cell_setting 'orthorhombic'
loop_
_space_group_symop_operation_xyz
x,y,z
-x,-y,z
1/2-x,y,1/2+z
1/2+x,-y,1/2+z
x,1/2+y,1/2+z
-x,1/2-y,1/2+z
1/2-x,1/2+y,z
1/2+x,1/2-y,z
loop_
_atom_site_type_symbol
_atom_site_label
_atom_site_fract_x
_atom_site_fract_y
_atom_site_fract_z
Si Si1 0.683517 0.597420 0.653890
Si Si2 0.965588 0.287113 0.675381
Si Si3 0.933025 0.824255 0.583150
Si Si4 0.321474 0.218916 0.182611
Si Si5 0.792770 0.329893 0.760610
Si Si6 0.932299 0.561593 0.128142
Si Si7 0.799111 0.048583 0.080628
Si Si8 0.000000 0.500000 0.471961
O O1 0.690771 0.725555 0.642759
O O2 0.629073 0.555090 0.584836
O O3 0.736061 0.549509 0.569650
O O4 0.681979 0.567572 0.872660
O O5 0.025261 0.247337 0.691434
O O6 0.971447 0.404736 0.585679
O O7 0.932777 0.287523 0.867470
O O8 0.944565 0.182429 0.565954
O O9 0.880337 0.819441 0.704880
O O10 0.952121 0.946389 0.559106
O O11 0.270506 0.168131 0.276891
O O12 0.312448 0.191159 0.966070
O O13 0.316111 0.347470 0.199090
O O14 0.814511 0.437388 0.671765
O O15 0.955359 0.553356 0.340065
#
# Coordination Sequence:
#
# PCOD9366338 Si02
#       8
#     8   8   8   8   8   8   8   4
#     4  10  23  39  66  98 139 181 235 278 349 420
#     4  12  26  48  75 106 139 187 247 300 360 434
#     4  12  25  49  74 104 146 189 241 300 359 424
#     4  10  23  41  65 101 140 180 236 285 345 431
#     4  10  20  39  64  97 139 183 230 284 342 420
#     4  12  25  50  72 104 145 190 233 307 358 424
#     4  10  20  39  63  95 141 185 226 287 338 420
#     4  12  28  46  78 100 142 188 238 310 364 422
#
# _framework density 26.091176999999998
#
# number of rings (size 3 to 8) (size 9 to 14) (size 15 to 20)
#    0.000    1.067    2.667    3.200    1.867    2.133 
#    0.000   10.667    0.000    0.000    0.000    0.000 
#    0.000    0.000    0.000    0.000    0.000    0.000 
#
# Total GULP energy -167867.503577 kJ/mol
# GULP energy per Si atom -5595.583453 kJ/mol
# Density = 2.603179 g / cm^3
# Si number density = 26.091177 Si / 1000 Ang^3
#
#
#
# Elastic Constant Matrix: (Units=GPa)
#
#
# Indices 1 2 3 4 5 6 
#
# 1 85.3178 4.3078 -7.1356 0.0000 0.0000 0.0000
# 2 4.3078 211.6930 34.4217 0.0000 0.0000 0.0000
# 3 -7.1356 34.4217 55.3779 0.0000 0.0000 0.0000
# 4 0.0000 0.0000 0.0000 38.7931 0.0000 0.0000
# 5 0.0000 0.0000 0.0000 0.0000 28.6356 0.0000
# 6 0.0000 0.0000 0.0000 0.0000 0.0000 15.8312
#
#
#
# Elastic Compliance Matrix: (Units=1/GPa)
#
#
# Indices 1 2 3 4 5 6 
#
# 1 0.011905 -0.000547 0.001874 0.000000 0.000000 0.000000
# 2 -0.000547 0.005280 -0.003352 0.000000 0.000000 0.000000
# 3 0.001874 -0.003352 0.020383 0.000000 0.000000 0.000000
# 4 0.000000 0.000000 0.000000 0.025778 0.000000 0.000000
# 5 0.000000 0.000000 0.000000 0.000000 0.034922 0.000000
# 6 0.000000 0.000000 0.000000 0.000000 0.000000 0.063166
#
#
# Mechanical properties :
#
#
# Convention : Reuss Voigt Hill
#
# Bulk Modulus (GPa) = 29.83515 46.17516 38.00515
# Shear Modulus (GPa) = 28.30339 38.03831 33.17085
#
# Velocity S-wave (km/s) = 3.29718 3.82239 3.56946
# Velocity P-wave (km/s) = 5.09461 6.10056 5.62014
#
# Compressibility (1/GPa) = 0.03351752
#
# Stress axis : x y z
#
# Youngs Moduli (GPa) = 83.99660 189.39149 49.06041
#
# Poissons Ratio (x) = 0.10359 -0.09194
# Poissons Ratio (y) = 0.04594 0.16447
# Poissons Ratio (z) = -0.15741 0.63493
#
# Static dielectric constant tensor:
#      x y z
#    x 2.068550 0.000000 0.000000 
#    y 0.000000 2.030930 0.000000 
#    z 0.000000 0.000000 2.099670 
# 
# From -- ./inp_files/3829.got.cif
#   From: 2010.05.17/outbox.cif.g08.bks.cpg/sg41_2_cif.got.tgz:3829.got - 2010.06.03 18:54:24.
