data_PCOD9366927
_publ_section_title
;
Structure prediction by ZEFSAII (Michael W. Deem and Ramdas Pophale) SiO2 
 PCOD9366927
Probable space group: A B A 2
;
_chemical_formula_sum "Si O2"
_cell_formula_units_Z 40
_cell_length_a 12.017132
_cell_length_b 7.881500
_cell_length_c 19.137747
_cell_angle_alpha 90.000000
_cell_angle_beta 90.000000
_cell_angle_gamma 90.000000
_cell_volume 1812.593926
_symmetry_space_group_name_H-M "A B A 2"
_symmetry_group_IT_number 41
_symmetry_cell_setting 'orthorhombic'
loop_
_space_group_symop_operation_xyz
x,y,z
-x,-y,z
1/2-x,y,1/2+z
1/2+x,-y,1/2+z
x,1/2+y,1/2+z
-x,1/2-y,1/2+z
1/2-x,1/2+y,z
1/2+x,1/2-y,z
loop_
_atom_site_type_symbol
_atom_site_label
_atom_site_fract_x
_atom_site_fract_y
_atom_site_fract_z
Si Si1 0.709433 0.833349 0.283590
Si Si2 0.914044 0.653708 0.015945
Si Si3 0.000000 0.500000 0.226748
Si Si4 0.869813 0.534967 0.868938
Si Si5 0.363567 0.717625 0.151768
Si Si6 0.500000 0.500000 0.063298
O O1 0.652488 0.660532 0.305490
O O2 0.775829 0.811592 0.211904
O O3 0.609599 0.964999 0.272210
O O4 0.792126 0.879937 0.347013
O O5 0.849250 0.617177 0.944622
O O6 0.000000 0.500000 0.027028
O O7 0.832971 0.675662 0.082279
O O8 0.987005 0.829169 0.017189
O O9 0.966375 0.668171 0.182397
O O10 0.000000 0.500000 0.869763
O O11 0.401124 0.538479 0.118457
#
# Coordination Sequence:
#
# PCOD9366927 Si02
#       6
#     8   8   4   8   8   4
#     4  12  26  45  71 110 147 204 244 315 375 456
#     4   9  20  45  73 107 146 195 244 310 375 448
#     4  12  24  43  72 103 148 192 258 296 382 447
#     4  11  26  48  72 107 154 194 252 308 387 462
#     4  10  21  44  73 109 138 192 254 310 372 439
#     4   8  20  39  76 109 140 194 238 318 364 445
#
# _framework density 22.067823000000001
#
# number of rings (size 3 to 8) (size 9 to 14) (size 15 to 20)
#    1.200    0.400    3.000    1.200    4.200    0.800 
#    7.200    0.000    0.000    0.000    0.000    0.000 
#    0.000    0.000    0.000    0.000    0.000    0.000 
#
# Total GULP energy -111397.423318 kJ/mol
# GULP energy per Si atom -5569.871166 kJ/mol
# Density = 2.201760 g / cm^3
# Si number density = 22.067823 Si / 1000 Ang^3
#
#
#
# Elastic Constant Matrix: (Units=GPa)
#
#
# Indices 1 2 3 4 5 6 
#
# 1 85.7124 16.9532 57.9884 0.0000 0.0000 0.0000
# 2 16.9532 75.2368 11.7881 0.0000 0.0000 0.0000
# 3 57.9884 11.7881 138.7049 0.0000 0.0000 0.0000
# 4 0.0000 0.0000 0.0000 39.2484 0.0000 0.0000
# 5 0.0000 0.0000 0.0000 0.0000 71.6626 0.0000
# 6 0.0000 0.0000 0.0000 0.0000 0.0000 23.0239
#
#
#
# Elastic Compliance Matrix: (Units=1/GPa)
#
#
# Indices 1 2 3 4 5 6 
#
# 1 0.016801 -0.002721 -0.006793 0.000000 0.000000 0.000000
# 2 -0.002721 0.013912 -0.000045 0.000000 0.000000 0.000000
# 3 -0.006793 -0.000045 0.010053 0.000000 0.000000 0.000000
# 4 0.000000 0.000000 0.000000 0.025479 0.000000 0.000000
# 5 0.000000 0.000000 0.000000 0.000000 0.013954 0.000000
# 6 0.000000 0.000000 0.000000 0.000000 0.000000 0.043433
#
#
# Mechanical properties :
#
#
# Convention : Reuss Voigt Hill
#
# Bulk Modulus (GPa) = 46.19319 52.56819 49.38069
# Shear Modulus (GPa) = 33.34116 40.98195 37.16156
#
# Velocity S-wave (km/s) = 3.89118 4.31407 4.10807
# Velocity P-wave (km/s) = 6.41609 6.97767 6.70276
#
# Compressibility (1/GPa) = 0.02164821
#
# Stress axis : x y z
#
# Youngs Moduli (GPa) = 59.52126 71.88254 99.47163
#
# Poissons Ratio (x) = 0.19563 0.67567
# Poissons Ratio (y) = 0.16199 0.00443
# Poissons Ratio (z) = 0.40430 0.00320
#
# Static dielectric constant tensor:
#      x y z
#    x 1.594410 0.000000 0.000000 
#    y 0.000000 1.991910 0.000000 
#    z 0.000000 0.000000 1.830910 
# 
# From -- ./inp_files/11359.got.cif
#   From: 2010.05.17/outbox.cif.g08.bks.cpg/sg41_6_cif.got.tgz:11359.got - 2010.06.03 18:54:24.
