data_PCOD9366147
_publ_section_title
;
Structure prediction by ZEFSAII (Michael W. Deem and Ramdas Pophale) SiO2 
 PCOD9366147
Probable space group: A B A 2
;
_chemical_formula_sum "Si O2"
_cell_formula_units_Z 52
_cell_length_a 20.059275
_cell_length_b 5.649297
_cell_length_c 16.434827
_cell_angle_alpha 90.000000
_cell_angle_beta 90.000000
_cell_angle_gamma 90.000000
_cell_volume 1862.407778
_symmetry_space_group_name_H-M "A B A 2"
_symmetry_group_IT_number 41
_symmetry_cell_setting 'orthorhombic'
loop_
_space_group_symop_operation_xyz
x,y,z
-x,-y,z
1/2-x,y,1/2+z
1/2+x,-y,1/2+z
x,1/2+y,1/2+z
-x,1/2-y,1/2+z
1/2-x,1/2+y,z
1/2+x,1/2-y,z
loop_
_atom_site_type_symbol
_atom_site_label
_atom_site_fract_x
_atom_site_fract_y
_atom_site_fract_z
Si Si1 0.095618 0.102825 0.553850
Si Si2 0.176993 0.721491 0.309334
Si Si3 0.967968 0.749619 0.356964
Si Si4 0.747311 0.441644 0.599444
Si Si5 0.619701 0.891571 0.488196
Si Si6 0.831736 0.775483 0.298065
Si Si7 0.500000 0.000000 0.197006
O O1 0.175743 0.077833 0.557856
O O2 0.083583 0.360590 0.513410
O O3 0.057195 0.099871 0.638972
O O4 0.079098 0.839546 0.518832
O O5 0.139795 0.682821 0.395494
O O6 0.160297 0.483911 0.260256
O O7 0.255795 0.724807 0.329076
O O8 0.157917 0.962520 0.263414
O O9 0.888634 0.777410 0.366717
O O10 0.976628 0.705743 0.259267
O O11 0.000000 0.500000 0.386930
O O12 0.000000 0.000000 0.378386
O O13 0.748236 0.692112 0.645931
O O14 0.808899 0.422616 0.536378
#
# Coordination Sequence:
#
# PCOD9366147 Si02
#       7
#     8   8   8   8   8   8   4
#     4  10  21  34  60  87 122 160 212 242 296 388
#     4  10  21  34  66  95 131 163 194 257 351 382
#     4  10  23  43  70  86 120 170 226 279 317 367
#     4   8  16  28  50  76 116 146 186 231 291 342
#     4  10  20  34  60  92 128 159 192 245 313 389
#     4  10  21  36  64  98 121 163 215 261 324 392
#     4  10  26  42  70  80 120 182 216 260 334 332
#
# _framework density 27.920845
#
# number of rings (size 3 to 8) (size 9 to 14) (size 15 to 20)
#    0.462    1.846    0.000    1.846   15.077    0.000 
#    0.000    0.000   37.231    0.000    0.000    0.000 
#    0.000    0.000    0.000    0.000    0.000    0.000 
#
# Total GULP energy -145101.263153 kJ/mol
# GULP energy per Si atom -5580.817814 kJ/mol
# Density = 2.785730 g / cm^3
# Si number density = 27.920845 Si / 1000 Ang^3
#
#
#
# Elastic Constant Matrix: (Units=GPa)
#
#
# Indices 1 2 3 4 5 6 
#
# 1 109.4011 48.5151 20.1813 0.0000 0.0000 0.0000
# 2 48.5151 361.6110 44.5558 0.0000 0.0000 0.0000
# 3 20.1813 44.5558 81.9327 0.0000 0.0000 0.0000
# 4 0.0000 0.0000 0.0000 22.0827 0.0000 0.0000
# 5 0.0000 0.0000 0.0000 0.0000 36.1544 0.0000
# 6 0.0000 0.0000 0.0000 0.0000 0.0000 32.4654
#
#
#
# Elastic Compliance Matrix: (Units=1/GPa)
#
#
# Indices 1 2 3 4 5 6 
#
# 1 0.009975 -0.001110 -0.001853 0.000000 0.000000 0.000000
# 2 -0.001110 0.003088 -0.001406 0.000000 0.000000 0.000000
# 3 -0.001853 -0.001406 0.013426 0.000000 0.000000 0.000000
# 4 0.000000 0.000000 0.000000 0.045284 0.000000 0.000000
# 5 0.000000 0.000000 0.000000 0.000000 0.027659 0.000000
# 6 0.000000 0.000000 0.000000 0.000000 0.000000 0.030802
#
#
# Mechanical properties :
#
#
# Convention : Reuss Voigt Hill
#
# Bulk Modulus (GPa) = 56.33635 86.60548 71.47091
# Shear Modulus (GPa) = 34.50931 47.45333 40.98132
#
# Velocity S-wave (km/s) = 3.51945 4.12705 3.83530
# Velocity P-wave (km/s) = 6.06105 7.33455 6.72800
#
# Compressibility (1/GPa) = 0.01775053
#
# Stress axis : x y z
#
# Youngs Moduli (GPa) = 100.25297 323.88621 74.48204
#
# Poissons Ratio (x) = 0.35948 0.13804
# Poissons Ratio (y) = 0.11127 0.10469
# Poissons Ratio (z) = 0.18581 0.45527
#
# Static dielectric constant tensor:
#      x y z
#    x 2.207690 0.000000 0.000000 
#    y 0.000000 2.258340 0.000000 
#    z 0.000000 0.000000 2.154560 
# 
# From -- ./inp_files/11701.got.cif
#   From: 2010.05.17/outbox.cif.g08.bks.cpg/sg41_6_cif.got.tgz:11701.got - 2010.06.03 18:54:24.
