data_PCOD9366248
_publ_section_title
;
Structure prediction by ZEFSAII (Michael W. Deem and Ramdas Pophale) SiO2 
 PCOD9366248
Probable space group: A B A 2
;
_chemical_formula_sum "Si O2"
_cell_formula_units_Z 56
_cell_length_a 5.323898
_cell_length_b 21.211181
_cell_length_c 22.590813
_cell_angle_alpha 90.000000
_cell_angle_beta 90.000000
_cell_angle_gamma 90.000000
_cell_volume 2551.093856
_symmetry_space_group_name_H-M "A B A 2"
_symmetry_group_IT_number 41
_symmetry_cell_setting 'orthorhombic'
loop_
_space_group_symop_operation_xyz
x,y,z
-x,-y,z
1/2-x,y,1/2+z
1/2+x,-y,1/2+z
x,1/2+y,1/2+z
-x,1/2-y,1/2+z
1/2-x,1/2+y,z
1/2+x,1/2-y,z
loop_
_atom_site_type_symbol
_atom_site_label
_atom_site_fract_x
_atom_site_fract_y
_atom_site_fract_z
Si Si1 0.500000 0.000000 0.345080
Si Si2 0.886072 0.070914 0.143717
Si Si3 0.375906 0.429473 0.277502
Si Si4 0.089850 0.720463 0.427730
Si Si5 0.378779 0.595480 0.394927
Si Si6 0.368100 0.590894 0.574246
Si Si7 0.500000 0.500000 0.478826
Si Si8 0.021184 0.270257 0.060186
O O1 0.398415 0.945523 0.301995
O O2 0.699293 0.964686 0.385254
O O3 0.878887 0.095042 0.211298
O O4 0.604917 0.071623 0.116533
O O5 0.104295 0.104699 0.106259
O O6 0.000000 0.000000 0.146099
O O7 0.500000 0.500000 0.277369
O O8 0.505809 0.391370 0.330468
O O9 0.307210 0.768442 0.404207
O O10 0.215384 0.653064 0.417661
O O11 0.056479 0.734460 0.497571
O O12 0.574317 0.562762 0.440545
O O13 0.318990 0.536512 0.525472
O O14 0.468300 0.656728 0.548326
O O15 0.283581 0.259783 0.092472
#
# Coordination Sequence:
#
# PCOD9366248 Si02
#       8
#     4   8   8   8   8   8   4   8
#     4  10  20  37  66 104 129 176 206 282 350 420
#     4  11  23  43  64  96 133 174 220 271 333 405
#     4   9  21  39  64  95 131 172 220 267 339 410
#     4  10  23  41  62  90 125 182 221 263 315 399
#     4  11  23  39  63  99 136 168 218 274 346 409
#     4  12  25  40  65  98 134 173 221 273 335 397
#     4  12  22  39  54 104 139 164 198 276 344 408
#     4  10  21  41  62  87 122 175 220 259 311 390
#
# _framework density 21.951367000000001
#
# number of rings (size 3 to 8) (size 9 to 14) (size 15 to 20)
#    0.000    1.429    3.571    2.571    8.000    4.571 
#    0.000    0.000    0.000    5.143    0.000    0.000 
#    0.000    0.000    0.000    0.000    0.000    0.000 
#
# Total GULP energy -155960.085115 kJ/mol
# GULP energy per Si atom -5570.003040 kJ/mol
# Density = 2.190140 g / cm^3
# Si number density = 21.951367 Si / 1000 Ang^3
#
#
#
# Elastic Constant Matrix: (Units=GPa)
#
#
# Indices 1 2 3 4 5 6 
#
# 1 107.3068 -0.3411 4.1898 0.0000 0.0000 0.0000
# 2 -0.3411 54.1595 17.7176 0.0000 0.0000 0.0000
# 3 4.1898 17.7176 75.9589 0.0000 0.0000 0.0000
# 4 0.0000 0.0000 0.0000 15.5189 0.0000 0.0000
# 5 0.0000 0.0000 0.0000 0.0000 15.5416 0.0000
# 6 0.0000 0.0000 0.0000 0.0000 0.0000 36.0621
#
#
#
# Elastic Compliance Matrix: (Units=1/GPa)
#
#
# Indices 1 2 3 4 5 6 
#
# 1 0.009342 0.000246 -0.000573 0.000000 0.000000 0.000000
# 2 0.000246 0.019996 -0.004678 0.000000 0.000000 0.000000
# 3 -0.000573 -0.004678 0.014288 0.000000 0.000000 0.000000
# 4 0.000000 0.000000 0.000000 0.064438 0.000000 0.000000
# 5 0.000000 0.000000 0.000000 0.000000 0.064343 0.000000
# 6 0.000000 0.000000 0.000000 0.000000 0.000000 0.027730
#
#
# Mechanical properties :
#
#
# Convention : Reuss Voigt Hill
#
# Bulk Modulus (GPa) = 29.74656 31.17308 30.45982
# Shear Modulus (GPa) = 22.58858 27.81511 25.20185
#
# Velocity S-wave (km/s) = 3.21133 3.56353 3.39200
# Velocity P-wave (km/s) = 5.22788 5.58243 5.40806
#
# Compressibility (1/GPa) = 0.03361733
#
# Stress axis : x y z
#
# Youngs Moduli (GPa) = 107.04099 50.01052 69.99032
#
# Poissons Ratio (x) = -0.01231 0.04009
# Poissons Ratio (y) = -0.02635 0.32739
# Poissons Ratio (z) = 0.06131 0.23393
#
# Static dielectric constant tensor:
#      x y z
#    x 1.962460 0.000000 0.000000 
#    y 0.000000 1.839280 0.000000 
#    z 0.000000 0.000000 1.859480 
# 
# From -- ./inp_files/11875.got.cif
#   From: 2010.05.17/outbox.cif.g08.bks.cpg/sg41_6_cif.got.tgz:11875.got - 2010.06.03 18:54:24.
