data_PCOD9366437
_publ_section_title
;
Structure prediction by ZEFSAII (Michael W. Deem and Ramdas Pophale) SiO2 
 PCOD9366437
Probable space group: A B A 2
;
_chemical_formula_sum "Si O2"
_cell_formula_units_Z 60
_cell_length_a 8.222869
_cell_length_b 23.340957
_cell_length_c 14.294614
_cell_angle_alpha 90.000000
_cell_angle_beta 90.000000
_cell_angle_gamma 90.000000
_cell_volume 2743.560001
_symmetry_space_group_name_H-M "A B A 2"
_symmetry_group_IT_number 41
_symmetry_cell_setting 'orthorhombic'
loop_
_space_group_symop_operation_xyz
x,y,z
-x,-y,z
1/2-x,y,1/2+z
1/2+x,-y,1/2+z
x,1/2+y,1/2+z
-x,1/2-y,1/2+z
1/2-x,1/2+y,z
1/2+x,1/2-y,z
loop_
_atom_site_type_symbol
_atom_site_label
_atom_site_fract_x
_atom_site_fract_y
_atom_site_fract_z
Si Si1 0.113806 0.415701 0.448350
Si Si2 0.500000 0.500000 0.476135
Si Si3 0.733489 0.399218 0.401648
Si Si4 0.224360 0.403226 0.245828
Si Si5 0.846143 0.397502 0.198312
Si Si6 0.245265 0.692497 0.062403
Si Si7 0.629582 0.180464 0.598245
Si Si8 0.767571 0.510289 0.600105
O O1 0.228653 0.411597 0.357169
O O2 0.165278 0.364524 0.516416
O O3 0.127698 0.470949 0.512836
O O4 0.924406 0.411149 0.421752
O O5 0.615805 0.453629 0.424862
O O6 0.603934 0.535129 0.552211
O O7 0.734801 0.389975 0.290204
O O8 0.705006 0.342812 0.466633
O O9 0.296163 0.346494 0.194667
O O10 0.313248 0.454919 0.192168
O O11 0.030820 0.411861 0.227033
O O12 0.857591 0.339256 0.141571
O O13 0.763396 0.445527 0.131581
O O14 0.202682 0.758963 0.067240
O O15 0.433272 0.684741 0.094094
#
# Coordination Sequence:
#
# PCOD9366437 Si02
#       8
#     8   4   8   8   8   8   8   8
#     4   9  23  42  66  94 132 173 217 269 328 392
#     4  12  22  40  58  92 128 172 216 260 320 390
#     4  10  24  43  62  95 131 174 214 269 330 397
#     4  10  20  41  65  94 128 168 216 261 329 388
#     4  11  22  41  63  94 131 170 213 269 326 387
#     4  11  22  44  65  93 130 166 220 274 336 388
#     4  10  23  41  68  95 123 172 218 275 328 394
#     4  11  21  38  62  92 129 174 210 263 321 391
#
# _framework density 21.869395999999998
#
# number of rings (size 3 to 8) (size 9 to 14) (size 15 to 20)
#    0.000    1.600    2.667    0.800    1.867    3.733 
#    7.200    2.667    0.000    0.000    0.000    0.000 
#    0.000    0.000    0.000    0.000    0.000    0.000 
#
# Total GULP energy -167142.683812 kJ/mol
# GULP energy per Si atom -5571.422794 kJ/mol
# Density = 2.181962 g / cm^3
# Si number density = 21.869396 Si / 1000 Ang^3
#
#
#
# Elastic Constant Matrix: (Units=GPa)
#
#
# Indices 1 2 3 4 5 6 
#
# 1 32.1604 38.5831 33.8916 0.0000 0.0000 0.0000
# 2 38.5831 121.1701 49.3078 0.0000 0.0000 0.0000
# 3 33.8916 49.3078 153.1546 0.0000 0.0000 0.0000
# 4 0.0000 0.0000 0.0000 84.7082 0.0000 0.0000
# 5 0.0000 0.0000 0.0000 0.0000 52.9985 0.0000
# 6 0.0000 0.0000 0.0000 0.0000 0.0000 33.2631
#
#
#
# Elastic Compliance Matrix: (Units=1/GPa)
#
#
# Indices 1 2 3 4 5 6 
#
# 1 0.057510 -0.015114 -0.007861 0.000000 0.000000 0.000000
# 2 -0.015114 0.013469 -0.000992 0.000000 0.000000 0.000000
# 3 -0.007861 -0.000992 0.008588 0.000000 0.000000 0.000000
# 4 0.000000 0.000000 0.000000 0.011805 0.000000 0.000000
# 5 0.000000 0.000000 0.000000 0.000000 0.018868 0.000000
# 6 0.000000 0.000000 0.000000 0.000000 0.000000 0.030063
#
#
# Mechanical properties :
#
#
# Convention : Reuss Voigt Hill
#
# Bulk Modulus (GPa) = 31.61069 61.11668 46.36368
# Shear Modulus (GPa) = 25.15336 46.50746 35.83041
#
# Velocity S-wave (km/s) = 3.39508 4.61651 4.05208
# Velocity P-wave (km/s) = 5.46393 7.51153 6.56801
#
# Compressibility (1/GPa) = 0.03163487
#
# Stress axis : x y z
#
# Youngs Moduli (GPa) = 17.38839 74.24486 116.43999
#
# Poissons Ratio (x) = 1.12211 0.91528
# Poissons Ratio (y) = 0.26280 0.11549
# Poissons Ratio (z) = 0.13668 0.07364
#
# Static dielectric constant tensor:
#      x y z
#    x 1.692640 0.000000 0.000000 
#    y 0.000000 1.771980 0.000000 
#    z 0.000000 0.000000 1.829360 
# 
# From -- ./inp_files/7556.got.cif
#   From: 2010.05.17/outbox.cif.g08.bks.cpg/sg41_4_cif.got.tgz:7556.got - 2010.06.03 18:54:24.
