data_PCOD9366997
_publ_section_title
;
Structure prediction by ZEFSAII (Michael W. Deem and Ramdas Pophale) SiO2 
 PCOD9366997
Probable space group: A B A 2
;
_chemical_formula_sum "Si O2"
_cell_formula_units_Z 64
_cell_length_a 24.507640
_cell_length_b 11.456255
_cell_length_c 11.250165
_cell_angle_alpha 90.000000
_cell_angle_beta 90.000000
_cell_angle_gamma 90.000000
_cell_volume 3158.661276
_symmetry_space_group_name_H-M "A B A 2"
_symmetry_group_IT_number 41
_symmetry_cell_setting 'orthorhombic'
loop_
_space_group_symop_operation_xyz
x,y,z
-x,-y,z
1/2-x,y,1/2+z
1/2+x,-y,1/2+z
x,1/2+y,1/2+z
-x,1/2-y,1/2+z
1/2-x,1/2+y,z
1/2+x,1/2-y,z
loop_
_atom_site_type_symbol
_atom_site_label
_atom_site_fract_x
_atom_site_fract_y
_atom_site_fract_z
Si Si1 0.207885 0.852676 0.735120
Si Si2 0.783158 0.339700 0.549348
Si Si3 0.437686 0.018287 0.723581
Si Si4 0.174494 0.432419 0.688611
Si Si5 0.109108 0.728806 0.852945
Si Si6 0.658910 0.297000 0.576460
Si Si7 0.156073 0.093438 0.817982
Si Si8 0.440184 0.468797 0.941722
O O1 0.203993 0.786398 0.608164
O O2 0.170665 0.767563 0.816078
O O3 0.272441 0.877719 0.754539
O O4 0.180341 0.977585 0.755639
O O5 0.808618 0.443161 0.630732
O O6 0.718171 0.350792 0.556530
O O7 0.802467 0.355263 0.414764
O O8 0.381829 0.949235 0.761241
O O9 0.420688 0.150960 0.754989
O O10 0.500000 0.000000 0.769687
O O11 0.439843 0.983585 0.584411
O O12 0.164545 0.343804 0.578209
O O13 0.075823 0.843182 0.889619
O O14 0.117833 0.660458 0.976460
O O15 0.641711 0.322892 0.710212
O O16 0.103385 0.058527 0.891224
O O17 0.500000 0.500000 0.899082
#
# Coordination Sequence:
#
# PCOD9366997 Si02
#       8
#     8   8   8   8   8   8   8   8
#     4  10  22  38  65  95 125 172 210 261 341 395
#     4  11  22  40  60  91 132 173 209 270 328 407
#     4  11  23  43  72  94 125 181 229 273 330 399
#     4  11  20  42  62  97 128 166 226 264 326 405
#     4  11  22  44  68  91 136 174 208 281 341 389
#     4  11  25  37  61  98 132 171 213 271 336 404
#     4  11  22  42  62  95 130 168 223 265 334 399
#     4  10  22  44  70  93 124 174 226 275 327 399
#
# _framework density 20.261748000000001
#
# number of rings (size 3 to 8) (size 9 to 14) (size 15 to 20)
#    0.000    1.250    5.000    0.750    5.250    1.000 
#    2.250    0.625    5.500    0.000    0.000    0.000 
#    0.000    0.000    0.000    0.000    0.000    0.000 
#
# Total GULP energy -178341.961798 kJ/mol
# GULP energy per Si atom -5573.186306 kJ/mol
# Density = 2.021563 g / cm^3
# Si number density = 20.261748 Si / 1000 Ang^3
#
#
#
# Elastic Constant Matrix: (Units=GPa)
#
#
# Indices 1 2 3 4 5 6 
#
# 1 115.5942 35.0902 0.2767 0.0000 0.0000 0.0000
# 2 35.0902 75.1959 35.2110 0.0000 0.0000 0.0000
# 3 0.2767 35.2110 39.8464 0.0000 0.0000 0.0000
# 4 0.0000 0.0000 0.0000 26.8168 0.0000 0.0000
# 5 0.0000 0.0000 0.0000 0.0000 16.0414 0.0000
# 6 0.0000 0.0000 0.0000 0.0000 0.0000 25.3960
#
#
#
# Elastic Compliance Matrix: (Units=1/GPa)
#
#
# Indices 1 2 3 4 5 6 
#
# 1 0.011358 -0.008978 0.007855 0.000000 0.000000 0.000000
# 2 -0.008978 0.029783 -0.026256 0.000000 0.000000 0.000000
# 3 0.007855 -0.026256 0.048243 0.000000 0.000000 0.000000
# 4 0.000000 0.000000 0.000000 0.037290 0.000000 0.000000
# 5 0.000000 0.000000 0.000000 0.000000 0.062339 0.000000
# 6 0.000000 0.000000 0.000000 0.000000 0.000000 0.039376
#
#
# Mechanical properties :
#
#
# Convention : Reuss Voigt Hill
#
# Bulk Modulus (GPa) = 28.88045 41.31024 35.09534
# Shear Modulus (GPa) = 16.96708 24.32141 20.64425
#
# Velocity S-wave (km/s) = 2.89692 3.46838 3.19545
# Velocity P-wave (km/s) = 5.04719 6.03921 5.56535
#
# Compressibility (1/GPa) = 0.03462550
#
# Stress axis : x y z
#
# Youngs Moduli (GPa) = 88.04695 33.57662 20.72831
#
# Poissons Ratio (x) = 0.30145 -0.16282
# Poissons Ratio (y) = 0.79049 0.54424
# Poissons Ratio (z) = -0.69159 0.88158
#
# Static dielectric constant tensor:
#      x y z
#    x 1.743150 0.000000 0.000000 
#    y 0.000000 1.769120 0.000000 
#    z 0.000000 0.000000 1.744270 
# 
# From -- ./inp_files/6476.got.cif
#   From: 2010.05.17/outbox.cif.g08.bks.cpg/sg41_4_cif.got.tgz:6476.got - 2010.06.03 18:54:24.
