data_PCOD9366373
_publ_section_title
;
Structure prediction by ZEFSAII (Michael W. Deem and Ramdas Pophale) SiO2 
 PCOD9366373
Probable space group: A B A 2
;
_chemical_formula_sum "Si O2"
_cell_formula_units_Z 52
_cell_length_a 9.566895
_cell_length_b 14.769638
_cell_length_c 16.637684
_cell_angle_alpha 90.000000
_cell_angle_beta 90.000000
_cell_angle_gamma 90.000000
_cell_volume 2350.897694
_symmetry_space_group_name_H-M "A B A 2"
_symmetry_group_IT_number 41
_symmetry_cell_setting 'orthorhombic'
loop_
_space_group_symop_operation_xyz
x,y,z
-x,-y,z
1/2-x,y,1/2+z
1/2+x,-y,1/2+z
x,1/2+y,1/2+z
-x,1/2-y,1/2+z
1/2-x,1/2+y,z
1/2+x,1/2-y,z
loop_
_atom_site_type_symbol
_atom_site_label
_atom_site_fract_x
_atom_site_fract_y
_atom_site_fract_z
Si Si1 0.071779 0.694225 0.707540
Si Si2 0.718935 0.057959 0.524972
Si Si3 0.500000 0.000000 0.660285
Si Si4 0.500000 0.000000 0.102595
Si Si5 0.867014 0.819442 0.632499
Si Si6 0.690012 0.260135 0.466123
Si Si7 0.500000 0.500000 0.894829
Si Si8 0.553943 0.298203 0.859839
O O1 0.045796 0.587158 0.710315
O O2 0.236179 0.705007 0.689374
O O3 0.983099 0.740634 0.635504
O O4 0.002936 0.744722 0.782930
O O5 0.625009 0.033740 0.602655
O O6 0.728912 0.163313 0.503462
O O7 0.636240 0.011232 0.451749
O O8 0.873634 0.029480 0.546288
O O9 0.443044 0.086092 0.152273
O O10 0.807715 0.827334 0.541706
O O11 0.788311 0.286253 0.391231
O O12 0.535482 0.244047 0.432759
O O13 0.518353 0.404504 0.850478
#
# Coordination Sequence:
#
# PCOD9366373 Si02
#       8
#     8   8   4   4   8   8   4   8
#     4  12  26  45  69  99 144 190 234 300 366 436
#     4  10  20  39  71 106 135 178 235 299 343 416
#     4  11  22  46  69  99 139 188 230 296 367 416
#     4  12  22  37  63 113 131 170 236 296 342 413
#     4  12  25  42  70 104 139 188 245 293 353 431
#     4  11  22  43  69 102 135 183 238 294 347 425
#     4   9  22  41  70  98 144 190 228 286 369 433
#     4  11  24  44  67 102 142 185 230 290 371 426
#
# _framework density 22.119209000000001
#
# number of rings (size 3 to 8) (size 9 to 14) (size 15 to 20)
#    0.000    0.923    3.077    4.615    2.154    0.615 
#    0.000   10.769    0.000    0.000    0.000    0.000 
#    0.000    0.000    0.000    0.000    0.000    0.000 
#
# Total GULP energy -145333.522577 kJ/mol
# GULP energy per Si atom -5589.750868 kJ/mol
# Density = 2.206886 g / cm^3
# Si number density = 22.119209 Si / 1000 Ang^3
#
#
#
# Elastic Constant Matrix: (Units=GPa)
#
#
# Indices 1 2 3 4 5 6 
#
# 1 134.8821 32.2436 14.7640 0.0000 0.0000 0.0000
# 2 32.2436 118.8031 41.7734 0.0000 0.0000 0.0000
# 3 14.7640 41.7734 86.8622 0.0000 0.0000 0.0000
# 4 0.0000 0.0000 0.0000 28.7513 0.0000 0.0000
# 5 0.0000 0.0000 0.0000 0.0000 10.8561 0.0000
# 6 0.0000 0.0000 0.0000 0.0000 0.0000 31.5694
#
#
#
# Elastic Compliance Matrix: (Units=1/GPa)
#
#
# Indices 1 2 3 4 5 6 
#
# 1 0.007938 -0.002022 -0.000377 0.000000 0.000000 0.000000
# 2 -0.002022 0.010645 -0.004776 0.000000 0.000000 0.000000
# 3 -0.000377 -0.004776 0.013873 0.000000 0.000000 0.000000
# 4 0.000000 0.000000 0.000000 0.034781 0.000000 0.000000
# 5 0.000000 0.000000 0.000000 0.000000 0.092114 0.000000
# 6 0.000000 0.000000 0.000000 0.000000 0.000000 0.031676
#
#
# Mechanical properties :
#
#
# Convention : Reuss Voigt Hill
#
# Bulk Modulus (GPa) = 55.22513 57.56769 56.39641
# Shear Modulus (GPa) = 23.65028 31.01980 27.33504
#
# Velocity S-wave (km/s) = 3.27344 3.74891 3.51922
# Velocity P-wave (km/s) = 6.26965 6.69491 6.48576
#
# Compressibility (1/GPa) = 0.01810770
#
# Stress axis : x y z
#
# Youngs Moduli (GPa) = 125.96846 93.93782 72.08079
#
# Poissons Ratio (x) = 0.18994 0.02717
# Poissons Ratio (y) = 0.25471 0.34425
# Poissons Ratio (z) = 0.04748 0.44863
#
# Static dielectric constant tensor:
#      x y z
#    x 1.931270 0.000000 0.000000 
#    y 0.000000 1.824880 0.000000 
#    z 0.000000 0.000000 1.863330 
# 
# From -- ./inp_files/11185.got.cif
#   From: 2010.05.17/outbox.cif.g08.bks.cpg/sg41_6_cif.got.tgz:11185.got - 2010.06.03 18:54:24.
