data_PCOD9366178
_publ_section_title
;
Structure prediction by ZEFSAII (Michael W. Deem and Ramdas Pophale) SiO2 
 PCOD9366178
Probable space group: A B A 2
;
_chemical_formula_sum "Si O2"
_cell_formula_units_Z 32
_cell_length_a 8.479108
_cell_length_b 14.906853
_cell_length_c 8.971633
_cell_angle_alpha 90.000000
_cell_angle_beta 90.000000
_cell_angle_gamma 90.000000
_cell_volume 1133.985850
_symmetry_space_group_name_H-M "A B A 2"
_symmetry_group_IT_number 41
_symmetry_cell_setting 'orthorhombic'
loop_
_space_group_symop_operation_xyz
x,y,z
-x,-y,z
1/2-x,y,1/2+z
1/2+x,-y,1/2+z
x,1/2+y,1/2+z
-x,1/2-y,1/2+z
1/2-x,1/2+y,z
1/2+x,1/2-y,z
loop_
_atom_site_type_symbol
_atom_site_label
_atom_site_fract_x
_atom_site_fract_y
_atom_site_fract_z
Si Si1 0.717237 0.972651 0.543330
Si Si2 0.379341 0.122377 0.267995
Si Si3 0.582455 0.640936 0.163952
Si Si4 0.086556 0.734827 0.895051
O O1 0.673495 0.962657 0.371150
O O2 0.866130 0.916585 0.602027
O O3 0.575903 0.913015 0.615913
O O4 0.712517 0.071764 0.608067
O O5 0.539991 0.171113 0.313493
O O6 0.245360 0.192506 0.328795
O O7 0.548254 0.666453 0.334560
O O8 0.592880 0.731491 0.064922
#
# Coordination Sequence:
#
# PCOD9366178 Si02
#       4
#     8   8   8   8
#     4   9  19  36  55  81 118 154 190 239 296 349
#     4  10  20  36  58  84 118 158 198 242 294 348
#     4   9  19  36  57  82 114 149 192 245 294 345
#     4  10  20  36  60  86 114 154 200 244 292 354
#
# _framework density 28.219048999999998
#
# number of rings (size 3 to 8) (size 9 to 14) (size 15 to 20)
#    0.000    2.500    0.000    1.500    0.000    2.000 
#    0.000    2.500    0.000   15.000    0.000    0.000 
#    0.000    0.000    0.000    0.000    0.000    0.000 
#
# Total GULP energy -89370.794418 kJ/mol
# GULP energy per Si atom -5585.674651 kJ/mol
# Density = 2.815482 g / cm^3
# Si number density = 28.219049 Si / 1000 Ang^3
#
#
#
# Elastic Constant Matrix: (Units=GPa)
#
#
# Indices 1 2 3 4 5 6 
#
# 1 58.9522 39.2601 11.9467 0.0000 0.0000 0.0000
# 2 39.2601 154.2053 44.6206 0.0000 0.0000 0.0000
# 3 11.9467 44.6206 138.5350 0.0000 0.0000 0.0000
# 4 0.0000 0.0000 0.0000 41.2306 0.0000 0.0000
# 5 0.0000 0.0000 0.0000 0.0000 28.4240 0.0000
# 6 0.0000 0.0000 0.0000 0.0000 0.0000 60.5144
#
#
#
# Elastic Compliance Matrix: (Units=1/GPa)
#
#
# Indices 1 2 3 4 5 6 
#
# 1 0.020427 -0.005173 -0.000095 0.000000 0.000000 0.000000
# 2 -0.005173 0.008461 -0.002279 0.000000 0.000000 0.000000
# 3 -0.000095 -0.002279 0.007961 0.000000 0.000000 0.000000
# 4 0.000000 0.000000 0.000000 0.024254 0.000000 0.000000
# 5 0.000000 0.000000 0.000000 0.000000 0.035181 0.000000
# 6 0.000000 0.000000 0.000000 0.000000 0.000000 0.016525
#
#
# Mechanical properties :
#
#
# Convention : Reuss Voigt Hill
#
# Bulk Modulus (GPa) = 45.96842 60.37193 53.17017
# Shear Modulus (GPa) = 36.99413 43.09149 40.04281
#
# Velocity S-wave (km/s) = 3.62465 3.91197 3.77105
# Velocity P-wave (km/s) = 5.81745 6.46878 6.15174
#
# Compressibility (1/GPa) = 0.02175407
#
# Stress axis : x y z
#
# Youngs Moduli (GPa) = 48.95403 118.18334 125.61661
#
# Poissons Ratio (x) = 0.61138 0.01198
# Poissons Ratio (y) = 0.25325 0.28631
# Poissons Ratio (z) = 0.00467 0.26937
#
# Static dielectric constant tensor:
#      x y z
#    x 2.269160 0.000000 0.000000 
#    y 0.000000 2.251710 0.000000 
#    z 0.000000 0.000000 2.245860 
# 
# From -- ./inp_files/1900.got.cif
#   From: 2010.05.17/outbox.cif.g08.bks.cpg/sg41_1_cif.got.tgz:1900.got - 2010.06.03 18:54:24.
