data_PCOD9366912
_publ_section_title
;
Structure prediction by ZEFSAII (Michael W. Deem and Ramdas Pophale) SiO2 
 PCOD9366912
Probable space group: A B A 2
;
_chemical_formula_sum "Si O2"
_cell_formula_units_Z 64
_cell_length_a 15.184054
_cell_length_b 10.832981
_cell_length_c 15.678849
_cell_angle_alpha 90.000000
_cell_angle_beta 90.000000
_cell_angle_gamma 90.000000
_cell_volume 2578.991428
_symmetry_space_group_name_H-M "A B A 2"
_symmetry_group_IT_number 41
_symmetry_cell_setting 'orthorhombic'
loop_
_space_group_symop_operation_xyz
x,y,z
-x,-y,z
1/2-x,y,1/2+z
1/2+x,-y,1/2+z
x,1/2+y,1/2+z
-x,1/2-y,1/2+z
1/2-x,1/2+y,z
1/2+x,1/2-y,z
loop_
_atom_site_type_symbol
_atom_site_label
_atom_site_fract_x
_atom_site_fract_y
_atom_site_fract_z
Si Si1 0.520916 0.146124 0.628680
Si Si2 0.468981 0.374100 0.859000
Si Si3 0.790644 0.968701 0.600588
Si Si4 0.206668 0.256552 0.373942
Si Si5 0.884695 0.204943 0.310484
Si Si6 0.104295 0.022996 0.421246
Si Si7 0.057860 0.392243 0.164057
Si Si8 0.307537 0.797764 0.561018
O O1 0.574680 0.168974 0.718230
O O2 0.444736 0.252237 0.628645
O O3 0.586382 0.198362 0.555427
O O4 0.500000 0.000000 0.622456
O O5 0.500000 0.500000 0.902094
O O6 0.363230 0.366991 0.864202
O O7 0.543688 0.270354 0.873036
O O8 0.482859 0.380239 0.756896
O O9 0.845994 0.977523 0.511732
O O10 0.781134 0.823082 0.615913
O O11 0.848288 0.043538 0.668488
O O12 0.710583 0.062386 0.589611
O O13 0.288865 0.229918 0.313036
O O14 0.134127 0.147801 0.374726
O O15 0.238846 0.270565 0.471332
O O16 0.859527 0.080279 0.358615
O O17 0.000000 0.000000 0.427223
O O18 0.000000 0.500000 0.119426
#
# Coordination Sequence:
#
# PCOD9366912 Si02
#       8
#     8   8   8   8   8   8   8   8
#     4  11  26  45  69 103 142 182 238 300 356 435
#     4  10  24  41  66  98 135 176 225 287 350 412
#     4  11  24  43  69  96 139 183 233 291 357 426
#     4  11  25  44  69 101 139 180 232 294 355 419
#     4  11  24  45  66 101 140 179 238 287 352 430
#     4  11  22  43  71  96 133 184 238 288 351 428
#     4  10  21  44  66  93 130 179 230 276 350 419
#     4  11  26  45  64 106 137 180 236 286 356 430
#
# _framework density 24.815905000000001
#
# number of rings (size 3 to 8) (size 9 to 14) (size 15 to 20)
#    0.000    1.250    3.750    0.750    8.750    0.500 
#    2.250    0.000    0.000    0.000    0.000    0.000 
#    0.000    0.000    0.000    0.000    0.000    0.000 
#
# Total GULP energy -178202.633361 kJ/mol
# GULP energy per Si atom -5568.832293 kJ/mol
# Density = 2.475942 g / cm^3
# Si number density = 24.815905 Si / 1000 Ang^3
#
#
#
# Elastic Constant Matrix: (Units=GPa)
#
#
# Indices 1 2 3 4 5 6 
#
# 1 99.6674 24.3137 -3.3275 0.0000 0.0000 0.0000
# 2 24.3137 124.8210 6.7883 0.0000 0.0000 0.0000
# 3 -3.3275 6.7883 49.1954 0.0000 0.0000 0.0000
# 4 0.0000 0.0000 0.0000 13.5906 0.0000 0.0000
# 5 0.0000 0.0000 0.0000 0.0000 29.2412 0.0000
# 6 0.0000 0.0000 0.0000 0.0000 0.0000 42.3536
#
#
#
# Elastic Compliance Matrix: (Units=1/GPa)
#
#
# Indices 1 2 3 4 5 6 
#
# 1 0.010583 -0.002116 0.001008 0.000000 0.000000 0.000000
# 2 -0.002116 0.008495 -0.001315 0.000000 0.000000 0.000000
# 3 0.001008 -0.001315 0.020577 0.000000 0.000000 0.000000
# 4 0.000000 0.000000 0.000000 0.073580 0.000000 0.000000
# 5 0.000000 0.000000 0.000000 0.000000 0.034198 0.000000
# 6 0.000000 0.000000 0.000000 0.000000 0.000000 0.023611
#
#
# Mechanical properties :
#
#
# Convention : Reuss Voigt Hill
#
# Bulk Modulus (GPa) = 28.72931 36.58142 32.65536
# Shear Modulus (GPa) = 26.66741 33.43103 30.04922
#
# Velocity S-wave (km/s) = 3.28168 3.67435 3.48355
# Velocity P-wave (km/s) = 5.09523 5.72488 5.41921
#
# Compressibility (1/GPa) = 0.03480766
#
# Stress axis : x y z
#
# Youngs Moduli (GPa) = 94.48857 117.71293 48.59846
#
# Poissons Ratio (x) = 0.24912 -0.04898
# Poissons Ratio (y) = 0.19997 0.06393
# Poissons Ratio (z) = -0.09523 0.15484
#
# Static dielectric constant tensor:
#      x y z
#    x 2.263530 0.000000 0.000000 
#    y 0.000000 2.127710 0.000000 
#    z 0.000000 0.000000 2.042720 
# 
# From -- ./inp_files/10430.got.cif
#   From: 2010.05.17/outbox.cif.g08.bks.cpg/sg41_6_cif.got.tgz:10430.got - 2010.06.03 18:54:24.
