data_PCOD9366681
_publ_section_title
;
Structure prediction by ZEFSAII (Michael W. Deem and Ramdas Pophale) SiO2 
 PCOD9366681
Probable space group: A B A 2
;
_chemical_formula_sum "Si O2"
_cell_formula_units_Z 48
_cell_length_a 14.015978
_cell_length_b 14.941736
_cell_length_c 9.899260
_cell_angle_alpha 90.000000
_cell_angle_beta 90.000000
_cell_angle_gamma 90.000000
_cell_volume 2073.133153
_symmetry_space_group_name_H-M "A B A 2"
_symmetry_group_IT_number 41
_symmetry_cell_setting 'orthorhombic'
loop_
_space_group_symop_operation_xyz
x,y,z
-x,-y,z
1/2-x,y,1/2+z
1/2+x,-y,1/2+z
x,1/2+y,1/2+z
-x,1/2-y,1/2+z
1/2-x,1/2+y,z
1/2+x,1/2-y,z
loop_
_atom_site_type_symbol
_atom_site_label
_atom_site_fract_x
_atom_site_fract_y
_atom_site_fract_z
Si Si1 0.093036 0.237361 0.647760
Si Si2 0.257568 0.797236 0.329803
Si Si3 0.989610 0.405734 0.699824
Si Si4 0.374701 0.928788 0.965458
Si Si5 0.042615 0.901854 0.761828
Si Si6 0.664978 0.876916 0.905162
O O1 0.190280 0.285543 0.697743
O O2 0.024019 0.320679 0.618879
O O3 0.104970 0.175625 0.517937
O O4 0.040706 0.173356 0.757194
O O5 0.201255 0.853038 0.440305
O O6 0.360113 0.848648 0.313258
O O7 0.255266 0.694855 0.379263
O O8 0.053911 0.418527 0.836961
O O9 0.000000 0.500000 0.626472
O O10 0.886563 0.387112 0.760862
O O11 0.320860 0.023636 0.956322
O O12 0.427414 0.921961 0.106403
O O13 0.000000 0.000000 0.810250
#
# Coordination Sequence:
#
# PCOD9366681 Si02
#       6
#     8   8   8   8   8   8
#     4  11  22  40  66  92 127 169 215 266 316 390
#     4  11  26  39  62 100 129 160 223 273 312 377
#     4   9  18  37  62  87 116 164 206 255 317 380
#     4  10  21  39  63  89 127 168 212 252 320 395
#     4  12  22  42  68  94 128 173 215 262 327 384
#     4  11  20  39  63  87 123 169 211 257 318 379
#
# _framework density 23.153361
#
# number of rings (size 3 to 8) (size 9 to 14) (size 15 to 20)
#    0.000    1.333    5.000    1.500    2.333    0.000 
#    0.000    0.833    0.000    0.000    0.000    0.000 
#    0.000    0.000    0.000    0.000    0.000    0.000 
#
# Total GULP energy -133748.665725 kJ/mol
# GULP energy per Si atom -5572.861072 kJ/mol
# Density = 2.310066 g / cm^3
# Si number density = 23.153361 Si / 1000 Ang^3
#
#
#
# Elastic Constant Matrix: (Units=GPa)
#
#
# Indices 1 2 3 4 5 6 
#
# 1 81.0504 38.2656 11.2257 0.0000 0.0000 0.0000
# 2 38.2656 166.8107 7.7632 0.0000 0.0000 0.0000
# 3 11.2257 7.7632 44.7384 0.0000 0.0000 0.0000
# 4 0.0000 0.0000 0.0000 15.7367 0.0000 0.0000
# 5 0.0000 0.0000 0.0000 0.0000 -45.6698 0.0000
# 6 0.0000 0.0000 0.0000 0.0000 0.0000 22.2926
#
#
#
# Elastic Compliance Matrix: (Units=1/GPa)
#
#
# Indices 1 2 3 4 5 6 
#
# 1 0.014232 -0.003124 -0.003029 0.000000 0.000000 0.000000
# 2 -0.003124 0.006729 -0.000384 0.000000 0.000000 0.000000
# 3 -0.003029 -0.000384 0.023179 0.000000 0.000000 0.000000
# 4 0.000000 0.000000 0.000000 0.063546 0.000000 0.000000
# 5 0.000000 0.000000 0.000000 0.000000 -0.021896 0.000000
# 6 0.000000 0.000000 0.000000 0.000000 0.000000 0.044858
#
#
# Mechanical properties :
#
#
# Convention : Reuss Voigt Hill
#
# Bulk Modulus (GPa) = 32.18866 45.23428 38.71147
# Shear Modulus (GPa) = 32.45128 14.16157 23.30642
#
# Velocity S-wave (km/s) = 3.74783 2.47582 3.17615
# Velocity P-wave (km/s) = 5.71497 5.26803 5.49604
#
# Compressibility (1/GPa) = 0.03106684
#
# Stress axis : x y z
#
# Youngs Moduli (GPa) = 70.26226 148.60416 43.14277
#
# Poissons Ratio (x) = 0.46422 0.13068
# Poissons Ratio (y) = 0.21949 0.01656
# Poissons Ratio (z) = 0.21283 0.05704
#
# Static dielectric constant tensor:
#      x y z
#    x 2.123930 0.000000 0.000000 
#    y 0.000000 1.879260 0.000000 
#    z 0.000000 0.000000 1.907980 
# 
# From -- ./inp_files/5521.got.cif
#   From: 2010.05.17/outbox.cif.g08.bks.cpg/sg41_3_cif.got.tgz:5521.got - 2010.06.03 18:54:24.
