data_PCOD9366183
_publ_section_title
;
Structure prediction by ZEFSAII (Michael W. Deem and Ramdas Pophale) SiO2 
 PCOD9366183
Probable space group: A B A 2
;
_chemical_formula_sum "Si O2"
_cell_formula_units_Z 40
_cell_length_a 5.421546
_cell_length_b 18.818760
_cell_length_c 16.517049
_cell_angle_alpha 90.000000
_cell_angle_beta 90.000000
_cell_angle_gamma 90.000000
_cell_volume 1685.181209
_symmetry_space_group_name_H-M "A B A 2"
_symmetry_group_IT_number 41
_symmetry_cell_setting 'orthorhombic'
loop_
_space_group_symop_operation_xyz
x,y,z
-x,-y,z
1/2-x,y,1/2+z
1/2+x,-y,1/2+z
x,1/2+y,1/2+z
-x,1/2-y,1/2+z
1/2-x,1/2+y,z
1/2+x,1/2-y,z
loop_
_atom_site_type_symbol
_atom_site_label
_atom_site_fract_x
_atom_site_fract_y
_atom_site_fract_z
Si Si1 0.937447 0.275289 0.854380
Si Si2 0.500000 0.000000 0.320182
Si Si3 0.137762 0.076097 0.423051
Si Si4 0.564725 0.421115 0.068057
Si Si5 0.500000 0.000000 0.722229
Si Si6 0.850284 0.719055 0.537720
O O1 0.673838 0.260163 0.813256
O O2 0.979076 0.358445 0.874512
O O3 0.883676 0.238720 0.942705
O O4 0.601224 0.937302 0.377477
O O5 0.252743 0.982120 0.269278
O O6 0.199740 0.099555 0.514544
O O7 0.000000 0.000000 0.423593
O O8 0.500000 0.500000 0.037974
O O9 0.356024 0.364985 0.048228
O O10 0.580330 0.434956 0.163456
O O11 0.106849 0.746985 0.574052
#
# Coordination Sequence:
#
# PCOD9366183 Si02
#       6
#     8   4   8   8   4   8
#     4  10  22  37  59  98 139 166 204 280 355 391
#     4  12  25  48  61 100 140 186 220 282 339 414
#     4  12  25  39  75 106 134 171 241 290 339 403
#     4  10  23  40  68 106 125 172 233 288 328 402
#     4  10  27  44  65  92 144 184 222 276 345 404
#     4  10  20  36  59  96 136 163 202 279 350 385
#
# _framework density 23.736318000000001
#
# number of rings (size 3 to 8) (size 9 to 14) (size 15 to 20)
#    0.600    0.800    6.000    0.000    9.800    1.600 
#    0.000    0.000    0.000    7.200    0.000    0.000 
#    0.000    0.000    0.000    0.000    0.000    0.000 
#
# Total GULP energy -111525.545889 kJ/mol
# GULP energy per Si atom -5576.277294 kJ/mol
# Density = 2.368229 g / cm^3
# Si number density = 23.736318 Si / 1000 Ang^3
#
#
#
# Elastic Constant Matrix: (Units=GPa)
#
#
# Indices 1 2 3 4 5 6 
#
# 1 196.0471 39.3113 35.8759 0.0000 0.0000 0.0000
# 2 39.3113 113.2101 0.9420 0.0000 0.0000 0.0000
# 3 35.8759 0.9420 66.4196 0.0000 0.0000 0.0000
# 4 0.0000 0.0000 0.0000 -82.3786 0.0000 0.0000
# 5 0.0000 0.0000 0.0000 0.0000 21.6917 0.0000
# 6 0.0000 0.0000 0.0000 0.0000 0.0000 41.0073
#
#
#
# Elastic Compliance Matrix: (Units=1/GPa)
#
#
# Indices 1 2 3 4 5 6 
#
# 1 0.006121 -0.002098 -0.003277 0.000000 0.000000 0.000000
# 2 -0.002098 0.009553 0.000998 0.000000 0.000000 0.000000
# 3 -0.003277 0.000998 0.016811 0.000000 0.000000 0.000000
# 4 0.000000 0.000000 0.000000 -0.012139 0.000000 0.000000
# 5 0.000000 0.000000 0.000000 0.000000 0.046101 0.000000
# 6 0.000000 0.000000 0.000000 0.000000 0.000000 0.024386
#
#
# Mechanical properties :
#
#
# Convention : Reuss Voigt Hill
#
# Bulk Modulus (GPa) = 42.13687 58.65946 50.39816
# Shear Modulus (GPa) = 46.51254 16.03394 31.27324
#
# Velocity S-wave (km/s) = 4.43148 2.60186 3.63371
# Velocity P-wave (km/s) = 6.63134 5.81316 6.23569
#
# Compressibility (1/GPa) = 0.02373219
#
# Stress axis : x y z
#
# Youngs Moduli (GPa) = 163.36802 104.67436 59.48332
#
# Poissons Ratio (x) = 0.21963 0.19490
# Poissons Ratio (y) = 0.34279 -0.05936
# Poissons Ratio (z) = 0.53528 -0.10445
#
# Static dielectric constant tensor:
#      x y z
#    x 1.983200 0.000000 0.000000 
#    y 0.000000 2.020100 0.000000 
#    z 0.000000 0.000000 1.944800 
# 
# From -- ./inp_files/10925.got.cif
#   From: 2010.05.17/outbox.cif.g08.bks.cpg/sg41_6_cif.got.tgz:10925.got - 2010.06.03 18:54:24.
