data_PCOD9366299
_publ_section_title
;
Structure prediction by ZEFSAII (Michael W. Deem and Ramdas Pophale) SiO2 
 PCOD9366299
Probable space group: A B A 2
;
_chemical_formula_sum "Si O2"
_cell_formula_units_Z 64
_cell_length_a 12.171307
_cell_length_b 23.143157
_cell_length_c 9.990260
_cell_angle_alpha 90.000000
_cell_angle_beta 90.000000
_cell_angle_gamma 90.000000
_cell_volume 2814.081101
_symmetry_space_group_name_H-M "A B A 2"
_symmetry_group_IT_number 41
_symmetry_cell_setting 'orthorhombic'
loop_
_space_group_symop_operation_xyz
x,y,z
-x,-y,z
1/2-x,y,1/2+z
1/2+x,-y,1/2+z
x,1/2+y,1/2+z
-x,1/2-y,1/2+z
1/2-x,1/2+y,z
1/2+x,1/2-y,z
loop_
_atom_site_type_symbol
_atom_site_label
_atom_site_fract_x
_atom_site_fract_y
_atom_site_fract_z
Si Si1 0.813737 0.441970 0.341790
Si Si2 0.498312 0.438016 0.066755
Si Si3 0.483926 0.681176 0.217585
Si Si4 0.257187 0.450438 0.957273
Si Si5 0.602739 0.291771 0.640618
Si Si6 0.941231 0.131799 0.483820
Si Si7 0.731871 0.319043 0.370242
Si Si8 0.092852 0.540484 0.082376
O O1 0.775726 0.509388 0.324746
O O2 0.736173 0.389095 0.383821
O O3 0.855614 0.421478 0.197747
O O4 0.912872 0.443571 0.448066
O O5 0.500000 0.500000 0.142574
O O6 0.525806 0.380917 0.147738
O O7 0.375670 0.433125 0.010136
O O8 0.549665 0.728048 0.133962
O O9 0.548327 0.671098 0.355183
O O10 0.364191 0.699682 0.268251
O O11 0.179067 0.395639 0.976836
O O12 0.191080 0.501598 0.030893
O O13 0.497042 0.333101 0.605777
O O14 0.692016 0.298859 0.518645
O O15 0.657881 0.300567 0.788522
O O16 0.021859 0.075914 0.475810
O O17 0.000000 0.500000 0.149069
#
# Coordination Sequence:
#
# PCOD9366299 Si02
#       8
#     8   8   8   8   8   8   8   8
#     4  11  22  40  69  99 138 188 242 285 355 456
#     4  10  24  41  61 102 139 182 229 294 366 444
#     4  11  26  42  69  98 139 175 243 303 367 444
#     4  10  22  37  66 103 146 179 230 288 385 417
#     4  11  25  48  71 105 136 190 254 305 367 447
#     4  10  23  45  65 102 137 188 237 302 364 446
#     4  11  25  45  78  98 139 196 242 307 367 432
#     4  10  20  38  65 101 140 184 236 286 350 448
#
# _framework density 22.742768999999999
#
# number of rings (size 3 to 8) (size 9 to 14) (size 15 to 20)
#    0.000    1.500    1.250    3.375    5.250    7.500 
#    0.000    0.000    0.000    0.000    0.000    0.000 
#    0.000    0.000    0.000    0.000    0.000    0.000 
#
# Total GULP energy -178276.543941 kJ/mol
# GULP energy per Si atom -5571.141998 kJ/mol
# Density = 2.269101 g / cm^3
# Si number density = 22.742769 Si / 1000 Ang^3
#
#
#
# Elastic Constant Matrix: (Units=GPa)
#
#
# Indices 1 2 3 4 5 6 
#
# 1 103.8456 17.6085 26.1217 0.0000 0.0000 0.0000
# 2 17.6085 75.2678 17.2993 0.0000 0.0000 0.0000
# 3 26.1217 17.2993 42.2324 0.0000 0.0000 0.0000
# 4 0.0000 0.0000 0.0000 28.8930 0.0000 0.0000
# 5 0.0000 0.0000 0.0000 0.0000 23.6613 0.0000
# 6 0.0000 0.0000 0.0000 0.0000 0.0000 35.8027
#
#
#
# Elastic Compliance Matrix: (Units=1/GPa)
#
#
# Indices 1 2 3 4 5 6 
#
# 1 0.011496 -0.001165 -0.006633 0.000000 0.000000 0.000000
# 2 -0.001165 0.014785 -0.005336 0.000000 0.000000 0.000000
# 3 -0.006633 -0.005336 0.029967 0.000000 0.000000 0.000000
# 4 0.000000 0.000000 0.000000 0.034610 0.000000 0.000000
# 5 0.000000 0.000000 0.000000 0.000000 0.042263 0.000000
# 6 0.000000 0.000000 0.000000 0.000000 0.000000 0.027931
#
#
# Mechanical properties :
#
#
# Convention : Reuss Voigt Hill
#
# Bulk Modulus (GPa) = 33.35567 38.15609 35.75588
# Shear Modulus (GPa) = 25.34050 28.35914 26.84982
#
# Velocity S-wave (km/s) = 3.34162 3.53505 3.43969
# Velocity P-wave (km/s) = 5.43938 5.78583 5.61528
#
# Compressibility (1/GPa) = 0.02997991
#
# Stress axis : x y z
#
# Youngs Moduli (GPa) = 86.98871 67.63733 33.37013
#
# Poissons Ratio (x) = 0.07878 0.22135
# Poissons Ratio (y) = 0.10132 0.17805
# Poissons Ratio (z) = 0.57702 0.36089
#
# Static dielectric constant tensor:
#      x y z
#    x 1.917730 0.000000 0.000000 
#    y 0.000000 1.926890 0.000000 
#    z 0.000000 0.000000 1.917370 
# 
# From -- ./inp_files/5196.got.cif
#   From: 2010.05.17/outbox.cif.g08.bks.cpg/sg41_3_cif.got.tgz:5196.got - 2010.06.03 18:54:24.
