data_PCOD9366627
_publ_section_title
;
Structure prediction by ZEFSAII (Michael W. Deem and Ramdas Pophale) SiO2 
 PCOD9366627
Probable space group: A B A 2
;
_chemical_formula_sum "Si O2"
_cell_formula_units_Z 64
_cell_length_a 6.900060
_cell_length_b 22.168565
_cell_length_c 14.916267
_cell_angle_alpha 90.000000
_cell_angle_beta 90.000000
_cell_angle_gamma 90.000000
_cell_volume 2281.658259
_symmetry_space_group_name_H-M "A B A 2"
_symmetry_group_IT_number 41
_symmetry_cell_setting 'orthorhombic'
loop_
_space_group_symop_operation_xyz
x,y,z
-x,-y,z
1/2-x,y,1/2+z
1/2+x,-y,1/2+z
x,1/2+y,1/2+z
-x,1/2-y,1/2+z
1/2-x,1/2+y,z
1/2+x,1/2-y,z
loop_
_atom_site_type_symbol
_atom_site_label
_atom_site_fract_x
_atom_site_fract_y
_atom_site_fract_z
Si Si1 0.332820 0.613643 0.219090
Si Si2 0.610215 0.244367 0.511902
Si Si3 0.864908 0.755056 0.146347
Si Si4 0.814471 0.613192 0.460059
Si Si5 0.874513 0.633906 0.249347
Si Si6 0.718158 0.509721 0.705939
Si Si7 0.105508 0.633546 0.922448
Si Si8 0.767310 0.488187 0.920697
O O1 0.393123 0.675006 0.172310
O O2 0.348909 0.546962 0.175929
O O3 0.423767 0.617967 0.318312
O O4 0.100421 0.620090 0.233003
O O5 0.362068 0.256762 0.533396
O O6 0.613453 0.260183 0.623418
O O7 0.587203 0.172230 0.498985
O O8 0.637683 0.295678 0.435176
O O9 0.839000 0.701659 0.218521
O O10 0.839160 0.625188 0.353942
O O11 0.584956 0.620798 0.480089
O O12 0.839042 0.541719 0.473421
O O13 0.752758 0.581806 0.197197
O O14 0.500000 0.500000 0.670093
O O15 0.717766 0.497870 0.815014
O O16 0.260456 0.581700 0.948749
O O17 0.000000 0.500000 0.926597
#
# Coordination Sequence:
#
# PCOD9366627 Si02
#       8
#     8   8   8   8   8   8   8   8
#     4  10  21  38  63  90 117 154 203 250 302 357
#     4  12  25  40  57  84 126 164 201 246 301 359
#     4  12  25  40  57  84 126 164 201 246 301 359
#     4  10  21  38  63  90 117 154 203 250 302 357
#     4  10  21  38  63  90 115 156 201 250 301 361
#     4   8  16  34  59  87 113 142 191 246 292 343
#     4  10  21  38  63  90 115 156 201 250 301 361
#     4   8  16  34  59  87 113 142 191 246 292 343
#
# _framework density 28.049776000000001
#
# number of rings (size 3 to 8) (size 9 to 14) (size 15 to 20)
#    0.000    2.000    2.500    0.750    3.500    2.000 
#    0.000    1.250    0.000    1.500    0.000    0.000 
#    0.000    0.000    0.000    0.000    0.000    0.000 
#
# Total GULP energy -178725.653746 kJ/mol
# GULP energy per Si atom -5585.176680 kJ/mol
# Density = 2.798593 g / cm^3
# Si number density = 28.049776 Si / 1000 Ang^3
#
#
#
# Elastic Constant Matrix: (Units=GPa)
#
#
# Indices 1 2 3 4 5 6 
#
# 1 145.9676 32.9899 12.4174 0.0000 0.0000 0.0000
# 2 32.9899 306.1947 65.4302 0.0000 0.0000 0.0000
# 3 12.4174 65.4302 40.9383 0.0000 0.0000 0.0000
# 4 0.0000 0.0000 0.0000 15.3551 0.0000 0.0000
# 5 0.0000 0.0000 0.0000 0.0000 28.2902 0.0000
# 6 0.0000 0.0000 0.0000 0.0000 0.0000 66.0547
#
#
#
# Elastic Compliance Matrix: (Units=1/GPa)
#
#
# Indices 1 2 3 4 5 6 
#
# 1 0.007075 -0.000461 -0.001409 0.000000 0.000000 0.000000
# 2 -0.000461 0.004990 -0.007835 0.000000 0.000000 0.000000
# 3 -0.001409 -0.007835 0.037377 0.000000 0.000000 0.000000
# 4 0.000000 0.000000 0.000000 0.065125 0.000000 0.000000
# 5 0.000000 0.000000 0.000000 0.000000 0.035348 0.000000
# 6 0.000000 0.000000 0.000000 0.000000 0.000000 0.015139
#
#
# Mechanical properties :
#
#
# Convention : Reuss Voigt Hill
#
# Bulk Modulus (GPa) = 33.29856 79.41950 56.35903
# Shear Modulus (GPa) = 25.71028 47.42422 36.56725
#
# Velocity S-wave (km/s) = 3.03082 4.11629 3.61453
# Velocity P-wave (km/s) = 4.91374 7.13912 6.12829
#
# Compressibility (1/GPa) = 0.03003133
#
# Stress axis : x y z
#
# Youngs Moduli (GPa) = 141.34429 200.40518 26.75435
#
# Poissons Ratio (x) = 0.09243 0.03769
# Poissons Ratio (y) = 0.06519 0.20963
# Poissons Ratio (z) = 0.19913 1.57023
#
# Static dielectric constant tensor:
#      x y z
#    x 2.475740 0.000000 0.000000 
#    y 0.000000 2.099320 0.000000 
#    z 0.000000 0.000000 2.135560 
# 
# From -- ./inp_files/9839.got.cif
#   From: 2010.05.17/outbox.cif.g08.bks.cpg/sg41_5_cif.got.tgz:9839.got - 2010.06.03 18:54:24.
