data_PCOD9366069
_publ_section_title
;
Structure prediction by ZEFSAII (Michael W. Deem and Ramdas Pophale) SiO2 
 PCOD9366069
Probable space group: A B A 2
;
_chemical_formula_sum "Si O2"
_cell_formula_units_Z 48
_cell_length_a 26.825144
_cell_length_b 5.362644
_cell_length_c 14.129611
_cell_angle_alpha 90.000000
_cell_angle_beta 90.000000
_cell_angle_gamma 90.000000
_cell_volume 2032.596787
_symmetry_space_group_name_H-M "A B A 2"
_symmetry_group_IT_number 41
_symmetry_cell_setting 'orthorhombic'
loop_
_space_group_symop_operation_xyz
x,y,z
-x,-y,z
1/2-x,y,1/2+z
1/2+x,-y,1/2+z
x,1/2+y,1/2+z
-x,1/2-y,1/2+z
1/2-x,1/2+y,z
1/2+x,1/2-y,z
loop_
_atom_site_type_symbol
_atom_site_label
_atom_site_fract_x
_atom_site_fract_y
_atom_site_fract_z
Si Si1 0.753882 0.490534 0.189900
Si Si2 0.108819 0.837410 0.419117
Si Si3 0.605156 0.890985 0.623179
Si Si4 0.281135 0.527654 0.396705
Si Si5 0.500000 0.000000 0.966047
Si Si6 0.000000 0.500000 0.591024
Si Si7 0.635929 0.379797 0.720858
O O1 0.754001 0.741568 0.132229
O O2 0.718470 0.478618 0.281067
O O3 0.807794 0.464339 0.235688
O O4 0.108693 0.657959 0.510990
O O5 0.160770 0.996650 0.426921
O O6 0.112674 0.686549 0.321455
O O7 0.054945 0.976456 0.417857
O O8 0.613069 0.620764 0.669652
O O9 0.549695 0.975439 0.650266
O O10 0.636580 0.129448 0.656541
O O11 0.252496 0.784131 0.421736
O O12 0.496184 0.250808 0.028417
#
# Coordination Sequence:
#
# PCOD9366069 Si02
#       7
#     8   8   8   8   4   4   8
#     4  10  19  39  65  95 136 190 221 285 373 395
#     4  11  25  49  75 104 155 183 248 299 361 433
#     4  11  27  45  72 108 135 196 238 296 359 438
#     4  10  21  38  71  97 134 200 223 287 376 402
#     4  10  24  43  78 109 136 206 230 297 366 433
#     4  10  22  51  70  97 160 176 234 313 362 403
#     4  12  25  43  75 103 143 187 241 299 357 426
#
# _framework density 23.615113000000001
#
# number of rings (size 3 to 8) (size 9 to 14) (size 15 to 20)
#    0.000    1.333    3.333    3.000    2.333    8.667 
#    0.000    8.333    0.000    0.000    0.000    0.000 
#    0.000    0.000    0.000    0.000    0.000    0.000 
#
# Total GULP energy -133983.169884 kJ/mol
# GULP energy per Si atom -5582.632078 kJ/mol
# Density = 2.356136 g / cm^3
# Si number density = 23.615113 Si / 1000 Ang^3
#
#
#
# Elastic Constant Matrix: (Units=GPa)
#
#
# Indices 1 2 3 4 5 6 
#
# 1 140.7378 30.2920 4.4007 0.0000 0.0000 0.0000
# 2 30.2920 205.4339 49.2493 0.0000 0.0000 0.0000
# 3 4.4007 49.2493 95.1389 0.0000 0.0000 0.0000
# 4 0.0000 0.0000 0.0000 -168.4500 0.0000 0.0000
# 5 0.0000 0.0000 0.0000 0.0000 9.2326 0.0000
# 6 0.0000 0.0000 0.0000 0.0000 0.0000 167.5423
#
#
#
# Elastic Compliance Matrix: (Units=1/GPa)
#
#
# Indices 1 2 3 4 5 6 
#
# 1 0.007344 -0.001143 0.000252 0.000000 0.000000 0.000000
# 2 -0.001143 0.005735 -0.002916 0.000000 0.000000 0.000000
# 3 0.000252 -0.002916 0.012009 0.000000 0.000000 0.000000
# 4 0.000000 0.000000 0.000000 -0.005936 0.000000 0.000000
# 5 0.000000 0.000000 0.000000 0.000000 0.108311 0.000000
# 6 0.000000 0.000000 0.000000 0.000000 0.000000 0.005969
#
#
# Mechanical properties :
#
#
# Convention : Reuss Voigt Hill
#
# Bulk Modulus (GPa) = 57.22996 67.68831 62.45913
# Shear Modulus (GPa) = 34.04365 25.48955 29.76660
#
# Velocity S-wave (km/s) = 3.80097 3.28895 3.55419
# Velocity P-wave (km/s) = 6.59926 6.56873 6.58401
#
# Compressibility (1/GPa) = 0.01747337
#
# Stress axis : x y z
#
# Youngs Moduli (GPa) = 136.17288 174.35535 83.27216
#
# Poissons Ratio (x) = 0.19934 -0.02100
# Poissons Ratio (y) = 0.15569 0.24283
# Poissons Ratio (z) = -0.03434 0.50844
#
# Static dielectric constant tensor:
#      x y z
#    x 1.894680 0.000000 0.000000 
#    y 0.000000 2.125080 0.000000 
#    z 0.000000 0.000000 1.861960 
# 
# From -- ./inp_files/9233.got.cif
#   From: 2010.05.17/outbox.cif.g08.bks.cpg/sg41_5_cif.got.tgz:9233.got - 2010.06.03 18:54:24.
