data_PCOD9366289
_publ_section_title
;
Structure prediction by ZEFSAII (Michael W. Deem and Ramdas Pophale) SiO2 
 PCOD9366289
Probable space group: A B A 2
;
_chemical_formula_sum "Si O2"
_cell_formula_units_Z 36
_cell_length_a 16.514881
_cell_length_b 12.943959
_cell_length_c 7.567546
_cell_angle_alpha 90.000000
_cell_angle_beta 90.000000
_cell_angle_gamma 90.000000
_cell_volume 1617.698739
_symmetry_space_group_name_H-M "A B A 2"
_symmetry_group_IT_number 41
_symmetry_cell_setting 'orthorhombic'
loop_
_space_group_symop_operation_xyz
x,y,z
-x,-y,z
1/2-x,y,1/2+z
1/2+x,-y,1/2+z
x,1/2+y,1/2+z
-x,1/2-y,1/2+z
1/2-x,1/2+y,z
1/2+x,1/2-y,z
loop_
_atom_site_type_symbol
_atom_site_label
_atom_site_fract_x
_atom_site_fract_y
_atom_site_fract_z
Si Si1 0.819105 0.123849 0.283140
Si Si2 0.000000 0.000000 0.912141
Si Si3 0.789154 0.347603 0.229294
Si Si4 0.634879 0.912676 0.599927
Si Si5 0.351855 0.440452 0.667157
O O1 0.826486 0.235948 0.196061
O O2 0.854222 0.029240 0.171277
O O3 0.722493 0.102102 0.284191
O O4 0.854196 0.120734 0.482068
O O5 0.067502 0.950149 0.783108
O O6 0.042132 0.086162 0.037627
O O7 0.691037 0.345076 0.229029
O O8 0.818820 0.383467 0.420732
O O9 0.824316 0.442515 0.115431
#
# Coordination Sequence:
#
# PCOD9366289 Si02
#       5
#     8   4   8   8   8
#     4  11  21  39  66  88 114 161 212 253 294 358
#     4  10  22  40  56  88 136 160 192 258 318 370
#     4  10  20  38  63  90 114 154 211 250 289 360
#     4  10  21  38  62  90 122 158 201 255 307 361
#     4  10  21  38  61  90 122 158 202 253 305 361
#
# _framework density 22.253833
#
# number of rings (size 3 to 8) (size 9 to 14) (size 15 to 20)
#    0.000    1.778    0.000    9.333    0.000    0.889 
#    0.000   17.778    0.000    0.000    0.000    0.000 
#    0.000    0.000    0.000    0.000    0.000    0.000 
#
# Total GULP energy -100228.033014 kJ/mol
# GULP energy per Si atom -5568.224056 kJ/mol
# Density = 2.220318 g / cm^3
# Si number density = 22.253833 Si / 1000 Ang^3
#
#
#
# Elastic Constant Matrix: (Units=GPa)
#
#
# Indices 1 2 3 4 5 6 
#
# 1 107.9847 -0.8710 13.6821 0.0000 0.0000 0.0000
# 2 -0.8710 103.3174 -1.7432 0.0000 0.0000 0.0000
# 3 13.6821 -1.7432 43.2663 0.0000 0.0000 0.0000
# 4 0.0000 0.0000 0.0000 29.0411 0.0000 0.0000
# 5 0.0000 0.0000 0.0000 0.0000 47.5373 0.0000
# 6 0.0000 0.0000 0.0000 0.0000 0.0000 7.7236
#
#
#
# Elastic Compliance Matrix: (Units=1/GPa)
#
#
# Indices 1 2 3 4 5 6 
#
# 1 0.009647 0.000030 -0.003050 0.000000 0.000000 0.000000
# 2 0.000030 0.009686 0.000381 0.000000 0.000000 0.000000
# 3 -0.003050 0.000381 0.024092 0.000000 0.000000 0.000000
# 4 0.000000 0.000000 0.000000 0.034434 0.000000 0.000000
# 5 0.000000 0.000000 0.000000 0.000000 0.021036 0.000000
# 6 0.000000 0.000000 0.000000 0.000000 0.000000 0.129473
#
#
# Mechanical properties :
#
#
# Convention : Reuss Voigt Hill
#
# Bulk Modulus (GPa) = 26.21412 30.74493 28.47952
# Shear Modulus (GPa) = 20.29533 33.09377 26.69455
#
# Velocity S-wave (km/s) = 3.02320 3.86048 3.46721
# Velocity P-wave (km/s) = 4.89811 5.80660 5.37160
#
# Compressibility (1/GPa) = 0.03814738
#
# Stress axis : x y z
#
# Youngs Moduli (GPa) = 103.65701 103.24616 41.50696
#
# Poissons Ratio (x) = -0.00308 0.12658
# Poissons Ratio (y) = -0.00310 -0.01581
# Poissons Ratio (z) = 0.31611 -0.03931
#
# Static dielectric constant tensor:
#      x y z
#    x 1.887230 0.000000 0.000000 
#    y 0.000000 1.891820 0.000000 
#    z 0.000000 0.000000 1.912720 
# 
# From -- ./inp_files/2944.got.cif
#   From: 2010.05.17/outbox.cif.g08.bks.cpg/sg41_2_cif.got.tgz:2944.got - 2010.06.03 18:54:24.
