data_PCOD9366195
_publ_section_title
;
Structure prediction by ZEFSAII (Michael W. Deem and Ramdas Pophale) SiO2 
 PCOD9366195
Probable space group: A B A 2
;
_chemical_formula_sum "Si O2"
_cell_formula_units_Z 32
_cell_length_a 9.714102
_cell_length_b 10.533849
_cell_length_c 11.909807
_cell_angle_alpha 90.000000
_cell_angle_beta 90.000000
_cell_angle_gamma 90.000000
_cell_volume 1218.693435
_symmetry_space_group_name_H-M "A B A 2"
_symmetry_group_IT_number 41
_symmetry_cell_setting 'orthorhombic'
loop_
_space_group_symop_operation_xyz
x,y,z
-x,-y,z
1/2-x,y,1/2+z
1/2+x,-y,1/2+z
x,1/2+y,1/2+z
-x,1/2-y,1/2+z
1/2-x,1/2+y,z
1/2+x,1/2-y,z
loop_
_atom_site_type_symbol
_atom_site_label
_atom_site_fract_x
_atom_site_fract_y
_atom_site_fract_z
Si Si1 0.854983 0.216233 0.464290
Si Si2 0.289049 0.020903 0.410785
Si Si3 0.000000 0.000000 0.731282
Si Si4 0.000000 0.500000 0.614998
Si Si5 0.101184 0.249452 0.611178
O O1 0.758292 0.229021 0.576153
O O2 0.010303 0.249330 0.496331
O O3 0.838977 0.071561 0.425547
O O4 0.063905 0.114590 0.661863
O O5 0.291446 0.171764 0.386520
O O6 0.379851 0.955994 0.314708
O O7 0.371050 0.016337 0.529716
O O8 0.961635 0.629684 0.677534
#
# Coordination Sequence:
#
# PCOD9366195 Si02
#       5
#     8   8   4   4   8
#     4  10  20  40  62  82 112 158 194 224 282 358
#     4   9  19  35  56  82 115 148 186 232 281 334
#     4  11  22  36  56  91 122 144 186 249 288 320
#     4   7  16  36  56  75 108 152 186 217 274 348
#     4  10  20  36  62  88 112 148 194 238 282 338
#
# _framework density 26.257628
#
# number of rings (size 3 to 8) (size 9 to 14) (size 15 to 20)
#    0.000    2.500    0.000    3.000    0.000    2.000 
#    0.000    2.500    0.000    6.000    0.000    0.000 
#    0.000    0.000    0.000    0.000    0.000    0.000 
#
# Total GULP energy -89325.200735 kJ/mol
# GULP energy per Si atom -5582.825046 kJ/mol
# Density = 2.619786 g / cm^3
# Si number density = 26.257628 Si / 1000 Ang^3
#
#
#
# Elastic Constant Matrix: (Units=GPa)
#
#
# Indices 1 2 3 4 5 6 
#
# 1 71.7268 5.6868 6.9549 0.0000 0.0000 0.0000
# 2 5.6868 122.6231 25.5683 0.0000 0.0000 0.0000
# 3 6.9549 25.5683 42.5084 0.0000 0.0000 0.0000
# 4 0.0000 0.0000 0.0000 14.9618 0.0000 0.0000
# 5 0.0000 0.0000 0.0000 0.0000 19.4105 0.0000
# 6 0.0000 0.0000 0.0000 0.0000 0.0000 33.5461
#
#
#
# Elastic Compliance Matrix: (Units=1/GPa)
#
#
# Indices 1 2 3 4 5 6 
#
# 1 0.014171 -0.000199 -0.002199 0.000000 0.000000 0.000000
# 2 -0.000199 0.009327 -0.005578 0.000000 0.000000 0.000000
# 3 -0.002199 -0.005578 0.027240 0.000000 0.000000 0.000000
# 4 0.000000 0.000000 0.000000 0.066837 0.000000 0.000000
# 5 0.000000 0.000000 0.000000 0.000000 0.051518 0.000000
# 6 0.000000 0.000000 0.000000 0.000000 0.000000 0.029810
#
#
# Mechanical properties :
#
#
# Convention : Reuss Voigt Hill
#
# Bulk Modulus (GPa) = 28.74663 34.80871 31.77767
# Shear Modulus (GPa) = 22.07999 26.82689 24.45344
#
# Velocity S-wave (km/s) = 2.90297 3.19984 3.05501
# Velocity P-wave (km/s) = 4.71254 5.19012 4.95708
#
# Compressibility (1/GPa) = 0.03478669
#
# Stress axis : x y z
#
# Youngs Moduli (GPa) = 70.56781 107.21198 36.71133
#
# Poissons Ratio (x) = 0.02130 0.08073
# Poissons Ratio (y) = 0.01402 0.20477
# Poissons Ratio (z) = 0.15518 0.59800
#
# Static dielectric constant tensor:
#      x y z
#    x 2.008460 0.000000 0.000000 
#    y 0.000000 2.227080 0.000000 
#    z 0.000000 0.000000 2.080550 
# 
# From -- ./inp_files/7700.got.cif
#   From: 2010.05.17/outbox.cif.g08.bks.cpg/sg41_4_cif.got.tgz:7700.got - 2010.06.03 18:54:24.
