data_PCOD9366454
_publ_section_title
;
Structure prediction by ZEFSAII (Michael W. Deem and Ramdas Pophale) SiO2 
 PCOD9366454
Probable space group: A B A 2
;
_chemical_formula_sum "Si O2"
_cell_formula_units_Z 48
_cell_length_a 15.670503
_cell_length_b 10.969003
_cell_length_c 13.811713
_cell_angle_alpha 90.000000
_cell_angle_beta 90.000000
_cell_angle_gamma 90.000000
_cell_volume 2374.092508
_symmetry_space_group_name_H-M "A B A 2"
_symmetry_group_IT_number 41
_symmetry_cell_setting 'orthorhombic'
loop_
_space_group_symop_operation_xyz
x,y,z
-x,-y,z
1/2-x,y,1/2+z
1/2+x,-y,1/2+z
x,1/2+y,1/2+z
-x,1/2-y,1/2+z
1/2-x,1/2+y,z
1/2+x,1/2-y,z
loop_
_atom_site_type_symbol
_atom_site_label
_atom_site_fract_x
_atom_site_fract_y
_atom_site_fract_z
Si Si1 0.154075 0.496476 0.073240
Si Si2 0.085581 0.750001 0.109460
Si Si3 0.500000 0.500000 0.921351
Si Si4 0.345926 0.503527 0.073238
Si Si5 0.389281 0.750001 0.181018
Si Si6 0.054593 0.250000 0.377257
Si Si7 0.500000 0.000000 0.921354
O O1 0.133004 0.622430 0.130221
O O2 0.250000 0.500000 0.033802
O O3 0.145909 0.374238 0.135856
O O4 0.082486 0.488477 0.990114
O O5 0.133002 0.877574 0.130220
O O6 0.990966 0.750000 0.154537
O O7 0.077776 0.750001 0.990979
O O8 0.494579 0.376205 0.861522
O O9 0.417514 0.511525 0.990112
O O10 0.354090 0.625767 0.135852
O O11 0.373601 0.749998 0.295929
O O12 0.005419 0.123795 0.361524
#
# Coordination Sequence:
#
# PCOD9366454 Si02
#       7
#     8   8   4   8   8   8   4
#     4  11  21  39  68  88 122 167 210 255 314 373
#     4  10  21  42  59  90 120 164 204 252 314 372
#     4  10  20  42  60  92 118 166 204 260 312 374
#     4  11  21  39  68  88 122 167 210 255 314 373
#     4  12  21  39  63  93 125 166 206 262 312 381
#     4  10  22  35  66  87 125 160 206 250 318 369
#     4  10  20  42  60  92 118 166 204 260 312 374
#
# _framework density 20.218253000000001
#
# number of rings (size 3 to 8) (size 9 to 14) (size 15 to 20)
#    0.000    1.333    6.667    1.000    4.667    0.000 
#    0.000    6.667   14.667    0.000    0.000    0.000 
#    0.000    0.000    0.000    0.000    0.000    0.000 
#
# Total GULP energy -133805.389437 kJ/mol
# GULP energy per Si atom -5575.224560 kJ/mol
# Density = 2.017224 g / cm^3
# Si number density = 20.218253 Si / 1000 Ang^3
#
#
#
# Elastic Constant Matrix: (Units=GPa)
#
#
# Indices 1 2 3 4 5 6 
#
# 1 126.0763 12.5320 11.4712 0.0000 0.0000 0.0000
# 2 12.5320 207.5674 19.2275 0.0000 0.0000 0.0000
# 3 11.4712 19.2275 64.3045 0.0000 0.0000 0.0000
# 4 0.0000 0.0000 0.0000 -10.8515 0.0000 0.0000
# 5 0.0000 0.0000 0.0000 0.0000 -29.4566 0.0000
# 6 0.0000 0.0000 0.0000 0.0000 0.0000 35.9551
#
#
#
# Elastic Compliance Matrix: (Units=1/GPa)
#
#
# Indices 1 2 3 4 5 6 
#
# 1 0.008089 -0.000365 -0.001334 0.000000 0.000000 0.000000
# 2 -0.000365 0.004971 -0.001421 0.000000 0.000000 0.000000
# 3 -0.001334 -0.001421 0.016214 0.000000 0.000000 0.000000
# 4 0.000000 0.000000 0.000000 -0.092153 0.000000 0.000000
# 5 0.000000 0.000000 0.000000 0.000000 -0.033948 0.000000
# 6 0.000000 0.000000 0.000000 0.000000 0.000000 0.027812
#
#
# Mechanical properties :
#
#
# Convention : Reuss Voigt Hill
#
# Bulk Modulus (GPa) = 43.41343 53.82329 48.61836
# Shear Modulus (GPa) = -90.75143 22.77722 -33.98710
#
# Velocity S-wave (km/s) = -6.70696 3.36008 -4.10446
# Velocity P-wave (km/s) = 6.20151 6.46006 1.27939
#
# Compressibility (1/GPa) = 0.02303434
#
# Stress axis : x y z
#
# Youngs Moduli (GPa) = 123.61944 201.15034 61.67515
#
# Poissons Ratio (x) = 0.07339 0.08227
# Poissons Ratio (y) = 0.04510 0.08767
# Poissons Ratio (z) = 0.16490 0.28592
#
# Static dielectric constant tensor:
#      x y z
#    x 1.759570 0.000000 0.000000 
#    y 0.000000 1.780650 0.000000 
#    z 0.000000 0.000000 1.695580 
# 
# From -- ./inp_files/8370.got.cif
#   From: 2010.05.17/outbox.cif.g08.bks.cpg/sg41_5_cif.got.tgz:8370.got - 2010.06.03 18:54:24.
