data_PCOD9366460
_publ_section_title
;
Structure prediction by ZEFSAII (Michael W. Deem and Ramdas Pophale) SiO2 
 PCOD9366460
Probable space group: A B A 2
;
_chemical_formula_sum "Si O2"
_cell_formula_units_Z 60
_cell_length_a 5.680012
_cell_length_b 28.410889
_cell_length_c 15.165867
_cell_angle_alpha 90.000000
_cell_angle_beta 90.000000
_cell_angle_gamma 90.000000
_cell_volume 2447.379510
_symmetry_space_group_name_H-M "A B A 2"
_symmetry_group_IT_number 41
_symmetry_cell_setting 'orthorhombic'
loop_
_space_group_symop_operation_xyz
x,y,z
-x,-y,z
1/2-x,y,1/2+z
1/2+x,-y,1/2+z
x,1/2+y,1/2+z
-x,1/2-y,1/2+z
1/2-x,1/2+y,z
1/2+x,1/2-y,z
loop_
_atom_site_type_symbol
_atom_site_label
_atom_site_fract_x
_atom_site_fract_y
_atom_site_fract_z
Si Si1 0.412722 0.739175 0.431620
Si Si2 0.545870 0.054994 0.884774
Si Si3 0.380865 0.456092 0.737306
Si Si4 0.000000 0.000000 0.105892
Si Si5 0.231515 0.636944 0.950165
Si Si6 0.052573 0.272781 0.233200
Si Si7 0.611953 0.590015 0.027538
Si Si8 0.989781 0.128438 0.641937
O O1 0.666825 0.745738 0.477826
O O2 0.372800 0.684200 0.410884
O O3 0.434875 0.767237 0.339629
O O4 0.711588 0.069977 0.804622
O O5 0.500000 0.000000 0.873081
O O6 0.335142 0.091474 0.893304
O O7 0.684812 0.063075 0.975323
O O8 0.500000 0.500000 0.786279
O O9 0.218548 0.482174 0.664348
O O10 0.557725 0.418642 0.694975
O O11 0.062088 0.046902 0.050687
O O12 0.507530 0.630836 0.966346
O O13 0.131008 0.635380 0.050934
O O14 0.314012 0.255143 0.203868
O O15 0.009820 0.325577 0.200731
O O16 0.724019 0.615348 0.111355
#
# Coordination Sequence:
#
# PCOD9366460 Si02
#       8
#     8   8   8   4   8   8   8   8
#     4  10  25  46  73 104 141 188 238 299 369 431
#     4  11  25  41  64 105 139 182 238 290 358 435
#     4  11  24  41  66 100 141 181 234 290 356 427
#     4  10  20  42  64  94 138 180 230 282 352 424
#     4  11  25  44  71 100 140 185 240 298 360 441
#     4  10  24  46  72 104 139 188 236 300 365 428
#     4  10  23  41  70  95 136 185 232 290 361 426
#     4  10  25  44  68 101 137 184 245 292 360 433
#
# _framework density 24.516017000000002
#
# number of rings (size 3 to 8) (size 9 to 14) (size 15 to 20)
#    0.000    1.600    0.667    1.600   12.133    5.867 
#    0.000    0.000    0.000    0.000    0.000    0.000 
#    0.000    0.000    0.000    0.000    0.000    0.000 
#
# Total GULP energy -167588.795666 kJ/mol
# GULP energy per Si atom -5586.293189 kJ/mol
# Density = 2.446022 g / cm^3
# Si number density = 24.516017 Si / 1000 Ang^3
#
#
#
# Elastic Constant Matrix: (Units=GPa)
#
#
# Indices 1 2 3 4 5 6 
#
# 1 95.0132 20.2332 -4.6239 0.0000 0.0000 0.0000
# 2 20.2332 106.6070 19.8061 0.0000 0.0000 0.0000
# 3 -4.6239 19.8061 65.3405 0.0000 0.0000 0.0000
# 4 0.0000 0.0000 0.0000 35.3305 0.0000 0.0000
# 5 0.0000 0.0000 0.0000 0.0000 30.0967 0.0000
# 6 0.0000 0.0000 0.0000 0.0000 0.0000 30.7506
#
#
#
# Elastic Compliance Matrix: (Units=1/GPa)
#
#
# Indices 1 2 3 4 5 6 
#
# 1 0.011107 -0.002389 0.001510 0.000000 0.000000 0.000000
# 2 -0.002389 0.010454 -0.003338 0.000000 0.000000 0.000000
# 3 0.001510 -0.003338 0.016423 0.000000 0.000000 0.000000
# 4 0.000000 0.000000 0.000000 0.028304 0.000000 0.000000
# 5 0.000000 0.000000 0.000000 0.000000 0.033226 0.000000
# 6 0.000000 0.000000 0.000000 0.000000 0.000000 0.032520
#
#
# Mechanical properties :
#
#
# Convention : Reuss Voigt Hill
#
# Bulk Modulus (GPa) = 33.83967 37.53238 35.68602
# Shear Modulus (GPa) = 33.26308 34.67191 33.96750
#
# Velocity S-wave (km/s) = 3.68746 3.76474 3.72630
# Velocity P-wave (km/s) = 5.65357 5.85152 5.75339
#
# Compressibility (1/GPa) = 0.02955112
#
# Stress axis : x y z
#
# Youngs Moduli (GPa) = 90.03344 95.66005 60.89008
#
# Poissons Ratio (x) = 0.22849 -0.09195
# Poissons Ratio (y) = 0.21505 0.20324
# Poissons Ratio (z) = -0.13595 0.31929
#
# Static dielectric constant tensor:
#      x y z
#    x 2.044840 0.000000 0.000000 
#    y 0.000000 1.991270 0.000000 
#    z 0.000000 0.000000 1.939660 
# 
# From -- ./inp_files/9464.got.cif
#   From: 2010.05.17/outbox.cif.g08.bks.cpg/sg41_5_cif.got.tgz:9464.got - 2010.06.03 18:54:24.
