data_PCOD9366281
_publ_section_title
;
Structure prediction by ZEFSAII (Michael W. Deem and Ramdas Pophale) SiO2 
 PCOD9366281
Probable space group: A B A 2
;
_chemical_formula_sum "Si O2"
_cell_formula_units_Z 52
_cell_length_a 26.606661
_cell_length_b 11.538051
_cell_length_c 8.462353
_cell_angle_alpha 90.000000
_cell_angle_beta 90.000000
_cell_angle_gamma 90.000000
_cell_volume 2597.849383
_symmetry_space_group_name_H-M "A B A 2"
_symmetry_group_IT_number 41
_symmetry_cell_setting 'orthorhombic'
loop_
_space_group_symop_operation_xyz
x,y,z
-x,-y,z
1/2-x,y,1/2+z
1/2+x,-y,1/2+z
x,1/2+y,1/2+z
-x,1/2-y,1/2+z
1/2-x,1/2+y,z
1/2+x,1/2-y,z
loop_
_atom_site_type_symbol
_atom_site_label
_atom_site_fract_x
_atom_site_fract_y
_atom_site_fract_z
Si Si1 0.915482 0.377669 0.819890
Si Si2 0.908498 0.641584 0.510537
Si Si3 0.310156 0.911127 0.341665
Si Si4 0.328926 0.216927 0.603857
Si Si5 0.000000 0.000000 0.134097
Si Si6 0.355312 0.902762 0.838543
Si Si7 0.733772 0.497253 0.136313
O O1 0.878428 0.346256 0.672996
O O2 0.890732 0.492110 0.898229
O O3 0.968564 0.413220 0.745845
O O4 0.916934 0.267002 0.933259
O O5 0.866977 0.575472 0.402578
O O6 0.883461 0.648602 0.684312
O O7 0.959480 0.570086 0.531413
O O8 0.307759 0.790311 0.250717
O O9 0.275329 0.912005 0.496151
O O10 0.288295 0.001641 0.214132
O O11 0.343553 0.304864 0.465807
O O12 0.287203 0.121556 0.564558
O O13 0.304743 0.963359 0.773507
#
# Coordination Sequence:
#
# PCOD9366281 Si02
#       7
#     8   8   8   8   4   8   8
#     4   9  20  38  59  85 117 153 197 250 303 358
#     4   9  20  39  63  88 120 159 200 251 307 360
#     4  10  21  38  58  87 121 158 203 241 289 359
#     4  10  21  38  60  86 118 157 198 247 303 355
#     4  10  20  38  62  90 122 154 202 258 308 358
#     4   9  19  37  59  84 115 151 197 246 295 358
#     4  10  21  36  56  83 118 157 196 245 293 346
#
# _framework density 20.016556000000001
#
# number of rings (size 3 to 8) (size 9 to 14) (size 15 to 20)
#    0.000    2.462    0.000    1.846    0.000    6.154 
#    0.000    7.692    0.000    1.846    0.000    0.000 
#    0.000    0.000    0.000    0.000    0.000    0.000 
#
# Total GULP energy -145070.172765 kJ/mol
# GULP energy per Si atom -5579.622029 kJ/mol
# Density = 1.997100 g / cm^3
# Si number density = 20.016556 Si / 1000 Ang^3
#
#
#
# Elastic Constant Matrix: (Units=GPa)
#
#
# Indices 1 2 3 4 5 6 
#
# 1 122.9224 70.3699 59.6537 0.0000 0.0000 0.0000
# 2 70.3699 112.0550 59.1679 0.0000 0.0000 0.0000
# 3 59.6537 59.1679 71.6853 0.0000 0.0000 0.0000
# 4 0.0000 0.0000 0.0000 44.1084 0.0000 0.0000
# 5 0.0000 0.0000 0.0000 0.0000 29.5990 0.0000
# 6 0.0000 0.0000 0.0000 0.0000 0.0000 29.9082
#
#
#
# Elastic Compliance Matrix: (Units=1/GPa)
#
#
# Indices 1 2 3 4 5 6 
#
# 1 0.015102 -0.005048 -0.008401 0.000000 0.000000 0.000000
# 2 -0.005048 0.017506 -0.010248 0.000000 0.000000 0.000000
# 3 -0.008401 -0.010248 0.029399 0.000000 0.000000 0.000000
# 4 0.000000 0.000000 0.000000 0.022671 0.000000 0.000000
# 5 0.000000 0.000000 0.000000 0.000000 0.033785 0.000000
# 6 0.000000 0.000000 0.000000 0.000000 0.000000 0.033436
#
#
# Mechanical properties :
#
#
# Convention : Reuss Voigt Hill
#
# Bulk Modulus (GPa) = 68.43159 76.11619 72.27389
# Shear Modulus (GPa) = 24.49026 28.55452 26.52239
#
# Velocity S-wave (km/s) = 3.50165 3.78106 3.64404
# Velocity P-wave (km/s) = 7.11410 7.56115 7.34103
#
# Compressibility (1/GPa) = 0.01461313
#
# Stress axis : x y z
#
# Youngs Moduli (GPa) = 66.21669 57.12453 34.01490
#
# Poissons Ratio (x) = 0.28838 0.28574
# Poissons Ratio (y) = 0.33428 0.34858
# Poissons Ratio (z) = 0.55625 0.58541
#
# Static dielectric constant tensor:
#      x y z
#    x 1.729550 0.000000 0.000000 
#    y 0.000000 1.721740 0.000000 
#    z 0.000000 0.000000 1.709500 
# 
# From -- ./inp_files/3779.got.cif
#   From: 2010.05.17/outbox.cif.g08.bks.cpg/sg41_2_cif.got.tgz:3779.got - 2010.06.03 18:54:24.
