data_PCOD9366556
_publ_section_title
;
Structure prediction by ZEFSAII (Michael W. Deem and Ramdas Pophale) SiO2 
 PCOD9366556
Probable space group: A B A 2
;
_chemical_formula_sum "Si O2"
_cell_formula_units_Z 60
_cell_length_a 5.255365
_cell_length_b 35.888225
_cell_length_c 13.734558
_cell_angle_alpha 90.000000
_cell_angle_beta 90.000000
_cell_angle_gamma 90.000000
_cell_volume 2590.416222
_symmetry_space_group_name_H-M "A B A 2"
_symmetry_group_IT_number 41
_symmetry_cell_setting 'orthorhombic'
loop_
_space_group_symop_operation_xyz
x,y,z
-x,-y,z
1/2-x,y,1/2+z
1/2+x,-y,1/2+z
x,1/2+y,1/2+z
-x,1/2-y,1/2+z
1/2-x,1/2+y,z
1/2+x,1/2-y,z
loop_
_atom_site_type_symbol
_atom_site_label
_atom_site_fract_x
_atom_site_fract_y
_atom_site_fract_z
Si Si1 0.256993 0.575822 0.906020
Si Si2 0.181027 0.834292 0.963825
Si Si3 0.667179 0.773325 0.705960
Si Si4 0.500000 0.000000 0.836226
Si Si5 0.258795 0.410298 0.523723
Si Si6 0.253607 0.478752 0.148879
Si Si7 0.182540 0.654861 0.835709
Si Si8 0.666151 0.743960 0.491819
O O1 0.545899 0.575171 0.945982
O O2 0.236957 0.609805 0.826277
O O3 0.149893 0.534475 0.883538
O O4 0.048374 0.588844 0.985907
O O5 0.176922 0.868193 0.038416
O O6 0.400944 0.842047 0.883302
O O7 0.908558 0.832190 0.910325
O O8 0.279417 0.798224 0.019068
O O9 0.405421 0.752789 0.733231
O O10 0.690607 0.815273 0.747481
O O11 0.673543 0.769966 0.586795
O O12 0.294117 0.981375 0.763849
O O13 0.244961 0.436892 0.614869
O O14 0.500000 0.500000 0.106554
O O15 0.000000 0.500000 0.118288
O O16 0.411483 0.745171 0.432407
#
# Coordination Sequence:
#
# PCOD9366556 Si02
#       8
#     8   8   8   4   8   8   8   8
#     4  10  23  39  65  91 120 162 206 259 304 369
#     4  10  21  38  61  86 117 152 203 256 290 356
#     4  10  21  37  56  85 120 158 199 240 303 370
#     4  10  26  38  62  94 130 154 212 244 320 370
#     4  10  22  41  63  89 118 162 207 247 313 358
#     4  10  23  40  57  91 124 158 198 247 309 369
#     4  10  21  39  59  88 121 155 202 250 307 349
#     4  10  21  37  55  87 116 152 199 238 300 353
#
# _framework density 23.162302
#
# number of rings (size 3 to 8) (size 9 to 14) (size 15 to 20)
#    0.400    1.600    0.000    2.400    4.667    3.200 
#    4.800    2.667    0.000    0.000    0.000    0.000 
#    0.000    0.000    0.000    0.000    0.000    0.000 
#
# Total GULP energy -167242.056793 kJ/mol
# GULP energy per Si atom -5574.735226 kJ/mol
# Density = 2.310958 g / cm^3
# Si number density = 23.162302 Si / 1000 Ang^3
#
#
#
# Elastic Constant Matrix: (Units=GPa)
#
#
# Indices 1 2 3 4 5 6 
#
# 1 161.6733 4.1485 -0.7305 0.0000 0.0000 0.0000
# 2 4.1485 70.0507 0.6931 0.0000 0.0000 0.0000
# 3 -0.7305 0.6931 27.1103 0.0000 0.0000 0.0000
# 4 0.0000 0.0000 0.0000 145.9707 0.0000 0.0000
# 5 0.0000 0.0000 0.0000 0.0000 -90.6209 0.0000
# 6 0.0000 0.0000 0.0000 0.0000 0.0000 29.5513
#
#
#
# Elastic Compliance Matrix: (Units=1/GPa)
#
#
# Indices 1 2 3 4 5 6 
#
# 1 0.006196 -0.000369 0.000176 0.000000 0.000000 0.000000
# 2 -0.000369 0.014301 -0.000376 0.000000 0.000000 0.000000
# 3 0.000176 -0.000376 0.036901 0.000000 0.000000 0.000000
# 4 0.000000 0.000000 0.000000 0.006851 0.000000 0.000000
# 5 0.000000 0.000000 0.000000 0.000000 -0.011035 0.000000
# 6 0.000000 0.000000 0.000000 0.000000 0.000000 0.033840
#
#
# Mechanical properties :
#
#
# Convention : Reuss Voigt Hill
#
# Bulk Modulus (GPa) = 17.77412 29.67293 23.72353
# Shear Modulus (GPa) = 46.75434 33.96176 40.35805
#
# Velocity S-wave (km/s) = 4.49771 3.83332 4.17874
# Velocity P-wave (km/s) = 5.88752 5.69484 5.79198
#
# Compressibility (1/GPa) = 0.05626157
#
# Stress axis : x y z
#
# Youngs Moduli (GPa) = 161.40564 69.92554 27.09974
#
# Poissons Ratio (x) = 0.02578 -0.00478
# Poissons Ratio (y) = 0.05950 0.01018
# Poissons Ratio (z) = -0.02847 0.02626
#
# Static dielectric constant tensor:
#      x y z
#    x 2.014660 0.000000 0.000000 
#    y 0.000000 1.661620 0.000000 
#    z 0.000000 0.000000 1.881420 
# 
# From -- ./inp_files/9475.got.cif
#   From: 2010.05.17/outbox.cif.g08.bks.cpg/sg41_5_cif.got.tgz:9475.got - 2010.06.03 18:54:24.
