data_PCOD9366020
_publ_section_title
;
Structure prediction by ZEFSAII (Michael W. Deem and Ramdas Pophale) SiO2 
 PCOD9366020
Probable space group: A B A 2
;
_chemical_formula_sum "Si O2"
_cell_formula_units_Z 56
_cell_length_a 7.669842
_cell_length_b 21.119725
_cell_length_c 19.052963
_cell_angle_alpha 90.000000
_cell_angle_beta 90.000000
_cell_angle_gamma 90.000000
_cell_volume 3086.293332
_symmetry_space_group_name_H-M "A B A 2"
_symmetry_group_IT_number 41
_symmetry_cell_setting 'orthorhombic'
loop_
_space_group_symop_operation_xyz
x,y,z
-x,-y,z
1/2-x,y,1/2+z
1/2+x,-y,1/2+z
x,1/2+y,1/2+z
-x,1/2-y,1/2+z
1/2-x,1/2+y,z
1/2+x,1/2-y,z
loop_
_atom_site_type_symbol
_atom_site_label
_atom_site_fract_x
_atom_site_fract_y
_atom_site_fract_z
Si Si1 0.127226 0.311061 0.013440
Si Si2 0.850096 0.947653 0.747179
Si Si3 0.349459 0.615331 0.605626
Si Si4 0.500000 0.500000 0.520009
Si Si5 0.367307 0.408688 0.402131
Si Si6 0.524888 0.426106 0.897411
Si Si7 0.540039 0.334688 0.023844
Si Si8 0.500000 0.000000 0.785135
O O1 0.328728 0.331002 0.029813
O O2 0.106985 0.236044 0.008907
O O3 0.992689 0.337895 0.071313
O O4 0.075378 0.343982 0.939314
O O5 0.872398 0.895256 0.688052
O O6 0.861616 0.923841 0.827328
O O7 0.666723 0.983064 0.739563
O O8 0.000000 0.000000 0.740197
O O9 0.389454 0.547982 0.567605
O O10 0.155318 0.639482 0.588144
O O11 0.382383 0.458274 0.467246
O O12 0.463947 0.440870 0.337298
O O13 0.168245 0.402266 0.379127
O O14 0.500000 0.500000 0.917179
O O15 0.587555 0.382664 0.960635
#
# Coordination Sequence:
#
# PCOD9366020 Si02
#       8
#     8   8   8   4   8   8   8   4
#     4  10  22  38  64  88 119 155 205 253 298 355
#     4  11  23  38  57  88 127 159 191 248 310 360
#     4  11  22  39  60  86 124 159 202 248 304 356
#     4   9  18  32  58  92 117 154 192 254 299 348
#     4   9  18  33  59  91 116 148 196 248 294 350
#     4  10  19  37  61  91 120 149 195 252 303 354
#     4  11  22  39  66  90 117 160 208 250 301 357
#     4  11  20  36  60  86 125 158 194 240 313 366
#
# _framework density 18.144743999999999
#
# number of rings (size 3 to 8) (size 9 to 14) (size 15 to 20)
#    0.000    1.714    5.000    0.857    4.000    1.143 
#    3.857    0.000    9.429    0.000    0.000    0.000 
#    0.000    0.000    0.000    0.000    0.000    0.000 
#
# Total GULP energy -156121.707784 kJ/mol
# GULP energy per Si atom -5575.775278 kJ/mol
# Density = 1.810345 g / cm^3
# Si number density = 18.144744 Si / 1000 Ang^3
#
#
#
# Elastic Constant Matrix: (Units=GPa)
#
#
# Indices 1 2 3 4 5 6 
#
# 1 83.7012 1.8274 14.4431 0.0000 0.0000 0.0000
# 2 1.8274 88.5751 30.5286 0.0000 0.0000 0.0000
# 3 14.4431 30.5286 37.8066 0.0000 0.0000 0.0000
# 4 0.0000 0.0000 0.0000 14.0992 0.0000 0.0000
# 5 0.0000 0.0000 0.0000 0.0000 24.3666 0.0000
# 6 0.0000 0.0000 0.0000 0.0000 0.0000 19.3410
#
#
#
# Elastic Compliance Matrix: (Units=1/GPa)
#
#
# Indices 1 2 3 4 5 6 
#
# 1 0.013043 0.002007 -0.006603 0.000000 0.000000 0.000000
# 2 0.002007 0.015952 -0.013648 0.000000 0.000000 0.000000
# 3 -0.006603 -0.013648 0.039994 0.000000 0.000000 0.000000
# 4 0.000000 0.000000 0.000000 0.070926 0.000000 0.000000
# 5 0.000000 0.000000 0.000000 0.000000 0.041040 0.000000
# 6 0.000000 0.000000 0.000000 0.000000 0.000000 0.051704
#
#
# Mechanical properties :
#
#
# Convention : Reuss Voigt Hill
#
# Bulk Modulus (GPa) = 30.76924 33.74235 32.25580
# Shear Modulus (GPa) = 17.85835 22.44694 20.15265
#
# Velocity S-wave (km/s) = 3.14063 3.52107 3.33627
# Velocity P-wave (km/s) = 5.49052 5.93019 5.71459
#
# Compressibility (1/GPa) = 0.03249999
#
# Stress axis : x y z
#
# Youngs Moduli (GPa) = 76.67025 62.68616 25.00389
#
# Poissons Ratio (x) = -0.12580 0.16511
# Poissons Ratio (y) = -0.15386 0.34126
# Poissons Ratio (z) = 0.50627 0.85555
#
# Static dielectric constant tensor:
#      x y z
#    x 1.626240 0.000000 0.000000 
#    y 0.000000 1.637700 0.000000 
#    z 0.000000 0.000000 1.616080 
# 
# From -- ./inp_files/9818.got.cif
#   From: 2010.05.17/outbox.cif.g08.bks.cpg/sg41_5_cif.got.tgz:9818.got - 2010.06.03 18:54:24.
