data_PCOD9366834
_publ_section_title
;
Structure prediction by ZEFSAII (Michael W. Deem and Ramdas Pophale) SiO2 
 PCOD9366834
Probable space group: A B A 2
;
_chemical_formula_sum "Si O2"
_cell_formula_units_Z 64
_cell_length_a 10.363016
_cell_length_b 21.567855
_cell_length_c 13.425001
_cell_angle_alpha 90.000000
_cell_angle_beta 90.000000
_cell_angle_gamma 90.000000
_cell_volume 3000.595479
_symmetry_space_group_name_H-M "A B A 2"
_symmetry_group_IT_number 41
_symmetry_cell_setting 'orthorhombic'
loop_
_space_group_symop_operation_xyz
x,y,z
-x,-y,z
1/2-x,y,1/2+z
1/2+x,-y,1/2+z
x,1/2+y,1/2+z
-x,1/2-y,1/2+z
1/2-x,1/2+y,z
1/2+x,1/2-y,z
loop_
_atom_site_type_symbol
_atom_site_label
_atom_site_fract_x
_atom_site_fract_y
_atom_site_fract_z
Si Si1 0.773821 0.768445 0.266610
Si Si2 0.397347 0.945301 0.367163
Si Si3 0.042179 0.804231 0.360957
Si Si4 0.782833 0.975398 0.693289
Si Si5 0.798560 0.085478 0.081295
Si Si6 0.435877 0.637661 0.733814
Si Si7 0.117139 0.795624 0.588902
Si Si8 0.011952 0.569983 0.754383
O O1 0.671011 0.716215 0.300648
O O2 0.688755 0.830203 0.282035
O O3 0.814649 0.759364 0.150886
O O4 0.909211 0.770557 0.326152
O O5 0.341974 0.919838 0.468571
O O6 0.460983 0.886189 0.313303
O O7 0.500000 0.000000 0.390610
O O8 0.303015 0.980386 0.290039
O O9 0.074239 0.788079 0.475271
O O10 0.013210 0.876162 0.334212
O O11 0.896702 0.926796 0.683412
O O12 0.654051 0.934872 0.706409
O O13 0.778672 0.022635 0.603333
O O14 0.714234 0.146333 0.095089
O O15 0.914053 0.081903 0.162269
O O16 0.494665 0.684786 0.655113
O O17 0.000000 0.500000 0.795674
#
# Coordination Sequence:
#
# PCOD9366834 Si02
#       8
#     8   8   8   8   8   8   8   8
#     4  12  27  53  73 101 149 189 248 310 353 447
#     4  10  22  41  67 103 140 189 233 295 367 435
#     4  12  28  49  76 108 140 197 243 305 372 428
#     4  10  21  41  71 102 143 183 227 291 360 436
#     4  11  23  41  70 104 142 185 235 292 363 437
#     4  11  24  48  68  99 146 185 239 300 366 425
#     4  12  28  44  75 106 135 189 250 299 367 430
#     4  10  22  43  69 105 143 182 228 296 360 437
#
# _framework density 21.329098999999999
#
# number of rings (size 3 to 8) (size 9 to 14) (size 15 to 20)
#    0.000    1.000    5.000    1.125    7.000    1.000 
#    4.500    0.000    0.000    0.000    0.000    0.000 
#    0.000    0.000    0.000    0.000    0.000    0.000 
#
# Total GULP energy -178675.355279 kJ/mol
# GULP energy per Si atom -5583.604852 kJ/mol
# Density = 2.128055 g / cm^3
# Si number density = 21.329099 Si / 1000 Ang^3
#
#
#
# Elastic Constant Matrix: (Units=GPa)
#
#
# Indices 1 2 3 4 5 6 
#
# 1 111.6450 30.5971 44.5892 0.0000 0.0000 0.0000
# 2 30.5971 65.4292 16.7820 0.0000 0.0000 0.0000
# 3 44.5892 16.7820 85.8753 0.0000 0.0000 0.0000
# 4 0.0000 0.0000 0.0000 32.6643 0.0000 0.0000
# 5 0.0000 0.0000 0.0000 0.0000 26.1139 0.0000
# 6 0.0000 0.0000 0.0000 0.0000 0.0000 37.4050
#
#
#
# Elastic Compliance Matrix: (Units=1/GPa)
#
#
# Indices 1 2 3 4 5 6 
#
# 1 0.012378 -0.004358 -0.005575 0.000000 0.000000 0.000000
# 2 -0.004358 0.017625 -0.001181 0.000000 0.000000 0.000000
# 3 -0.005575 -0.001181 0.014771 0.000000 0.000000 0.000000
# 4 0.000000 0.000000 0.000000 0.030614 0.000000 0.000000
# 5 0.000000 0.000000 0.000000 0.000000 0.038294 0.000000
# 6 0.000000 0.000000 0.000000 0.000000 0.000000 0.026734
#
#
# Mechanical properties :
#
#
# Convention : Reuss Voigt Hill
#
# Bulk Modulus (GPa) = 44.35891 49.65399 47.00645
# Shear Modulus (GPa) = 29.38398 30.63540 30.00969
#
# Velocity S-wave (km/s) = 3.71569 3.79399 3.75505
# Velocity P-wave (km/s) = 6.26506 6.52096 6.39429
#
# Compressibility (1/GPa) = 0.02254338
#
# Stress axis : x y z
#
# Youngs Moduli (GPa) = 80.78757 56.73808 67.70231
#
# Poissons Ratio (x) = 0.24729 0.37747
# Poissons Ratio (y) = 0.35211 0.07997
# Poissons Ratio (z) = 0.45042 0.06702
#
# Static dielectric constant tensor:
#      x y z
#    x 1.869270 0.000000 0.000000 
#    y 0.000000 1.789070 0.000000 
#    z 0.000000 0.000000 1.737340 
# 
# From -- ./inp_files/5181.got.cif
#   From: 2010.05.17/outbox.cif.g08.bks.cpg/sg41_3_cif.got.tgz:5181.got - 2010.06.03 18:54:24.
