data_PCOD9366895
_publ_section_title
;
Structure prediction by ZEFSAII (Michael W. Deem and Ramdas Pophale) SiO2 
 PCOD9366895
Probable space group: A B A 2
;
_chemical_formula_sum "Si O2"
_cell_formula_units_Z 48
_cell_length_a 8.697099
_cell_length_b 22.374801
_cell_length_c 10.456514
_cell_angle_alpha 90.000000
_cell_angle_beta 90.000000
_cell_angle_gamma 90.000000
_cell_volume 2034.794328
_symmetry_space_group_name_H-M "A B A 2"
_symmetry_group_IT_number 41
_symmetry_cell_setting 'orthorhombic'
loop_
_space_group_symop_operation_xyz
x,y,z
-x,-y,z
1/2-x,y,1/2+z
1/2+x,-y,1/2+z
x,1/2+y,1/2+z
-x,1/2-y,1/2+z
1/2-x,1/2+y,z
1/2+x,1/2-y,z
loop_
_atom_site_type_symbol
_atom_site_label
_atom_site_fract_x
_atom_site_fract_y
_atom_site_fract_z
Si Si1 0.555465 0.665993 0.744270
Si Si2 0.275487 0.614406 0.613913
Si Si3 0.677780 0.017676 0.116440
Si Si4 0.115482 0.442277 0.394249
Si Si5 0.346888 0.778333 0.807121
Si Si6 0.851511 0.826209 0.364499
O O1 0.454023 0.625923 0.650656
O O2 0.552951 0.625574 0.874434
O O3 0.458433 0.727965 0.746825
O O4 0.730896 0.684491 0.718555
O O5 0.236051 0.545802 0.629819
O O6 0.182199 0.652708 0.718986
O O7 0.271757 0.631045 0.465964
O O8 0.500000 0.000000 0.087051
O O9 0.688406 0.047438 0.254522
O O10 0.761425 0.053704 0.005912
O O11 0.000000 0.500000 0.407408
O O12 0.466302 0.820028 0.880187
O O13 0.229048 0.737997 0.888660
#
# Coordination Sequence:
#
# PCOD9366895 Si02
#       6
#     8   8   8   8   8   8
#     4  10  21  43  68  97 138 176 229 278 344 399
#     4  11  22  43  69  97 140 178 225 286 342 414
#     4  11  24  44  69 102 137 178 224 282 350 407
#     4  11  24  46  70 101 140 179 225 287 346 416
#     4   9  22  42  66 100 132 182 229 281 335 410
#     4  10  23  40  68  96 135 180 226 282 341 402
#
# _framework density 23.589607999999998
#
# number of rings (size 3 to 8) (size 9 to 14) (size 15 to 20)
#    0.000    1.667    3.333    1.000    4.667    6.000 
#    3.000    8.333    0.000    0.000    0.000    0.000 
#    0.000    0.000    0.000    0.000    0.000    0.000 
#
# Total GULP energy -133842.954612 kJ/mol
# GULP energy per Si atom -5576.789776 kJ/mol
# Density = 2.353592 g / cm^3
# Si number density = 23.589608 Si / 1000 Ang^3
#
#
#
# Elastic Constant Matrix: (Units=GPa)
#
#
# Indices 1 2 3 4 5 6 
#
# 1 122.4862 28.2649 47.9628 0.0000 0.0000 0.0000
# 2 28.2649 94.3817 3.5280 0.0000 0.0000 0.0000
# 3 47.9628 3.5280 70.8996 0.0000 0.0000 0.0000
# 4 0.0000 0.0000 0.0000 8.8463 0.0000 0.0000
# 5 0.0000 0.0000 0.0000 0.0000 11.1121 0.0000
# 6 0.0000 0.0000 0.0000 0.0000 0.0000 20.4324
#
#
#
# Elastic Compliance Matrix: (Units=1/GPa)
#
#
# Indices 1 2 3 4 5 6 
#
# 1 0.012058 -0.003312 -0.007992 0.000000 0.000000 0.000000
# 2 -0.003312 0.011525 0.001667 0.000000 0.000000 0.000000
# 3 -0.007992 0.001667 0.019428 0.000000 0.000000 0.000000
# 4 0.000000 0.000000 0.000000 0.113042 0.000000 0.000000
# 5 0.000000 0.000000 0.000000 0.000000 0.089992 0.000000
# 6 0.000000 0.000000 0.000000 0.000000 0.000000 0.048942
#
#
# Mechanical properties :
#
#
# Convention : Reuss Voigt Hill
#
# Bulk Modulus (GPa) = 42.12937 49.69764 45.91351
# Shear Modulus (GPa) = 15.51955 21.94561 18.73258
#
# Velocity S-wave (km/s) = 2.56773 3.05340 2.82104
# Velocity P-wave (km/s) = 5.16615 5.79175 5.48787
#
# Compressibility (1/GPa) = 0.02373641
#
# Stress axis : x y z
#
# Youngs Moduli (GPa) = 82.93121 86.76853 51.47144
#
# Poissons Ratio (x) = 0.28741 0.41138
# Poissons Ratio (y) = 0.27470 -0.08582
# Poissons Ratio (z) = 0.66282 -0.14467
#
# Static dielectric constant tensor:
#      x y z
#    x 1.956700 0.000000 0.000000 
#    y 0.000000 2.198530 0.000000 
#    z 0.000000 0.000000 1.885440 
# 
# From -- ./inp_files/4488.got.cif
#   From: 2010.05.17/outbox.cif.g08.bks.cpg/sg41_3_cif.got.tgz:4488.got - 2010.06.03 18:54:24.
