data_PCOD9366934
_publ_section_title
;
Structure prediction by ZEFSAII (Michael W. Deem and Ramdas Pophale) SiO2 
 PCOD9366934
Probable space group: A B A 2
;
_chemical_formula_sum "Si O2"
_cell_formula_units_Z 60
_cell_length_a 28.691827
_cell_length_b 8.633014
_cell_length_c 11.540416
_cell_angle_alpha 90.000000
_cell_angle_beta 90.000000
_cell_angle_gamma 90.000000
_cell_volume 2858.525778
_symmetry_space_group_name_H-M "A B A 2"
_symmetry_group_IT_number 41
_symmetry_cell_setting 'orthorhombic'
loop_
_space_group_symop_operation_xyz
x,y,z
-x,-y,z
1/2-x,y,1/2+z
1/2+x,-y,1/2+z
x,1/2+y,1/2+z
-x,1/2-y,1/2+z
1/2-x,1/2+y,z
1/2+x,1/2-y,z
loop_
_atom_site_type_symbol
_atom_site_label
_atom_site_fract_x
_atom_site_fract_y
_atom_site_fract_z
Si Si1 0.833601 0.445744 0.661900
Si Si2 0.668310 0.119755 0.041308
Si Si3 0.934790 0.722206 0.038133
Si Si4 0.580957 0.810854 0.796532
Si Si5 0.184162 0.532970 0.279256
Si Si6 0.000000 0.000000 0.405339
Si Si7 0.394816 0.968151 0.455766
Si Si8 0.770702 0.638520 0.821540
O O1 0.819335 0.289767 0.594007
O O2 0.870175 0.390657 0.760593
O O3 0.862426 0.548460 0.569506
O O4 0.791306 0.537795 0.716194
O O5 0.614376 0.139687 0.003682
O O6 0.672581 0.999820 0.146150
O O7 0.703210 0.085099 0.937789
O O8 0.933934 0.724994 0.177601
O O9 0.977744 0.632950 0.984746
O O10 0.931299 0.899059 0.992892
O O11 0.586599 0.690079 0.901514
O O12 0.541616 0.932968 0.828472
O O13 0.137697 0.539146 0.354730
O O14 0.215911 0.391285 0.325492
O O15 0.213963 0.686357 0.299856
#
# Coordination Sequence:
#
# PCOD9366934 Si02
#       8
#     8   8   8   8   8   4   8   8
#     4  10  22  43  68  95 130 174 217 266 329 383
#     4  10  22  46  65  91 138 169 217 269 330 383
#     4  10  23  44  68  96 130 168 216 269 332 396
#     4  10  23  44  65  96 134 165 215 272 327 394
#     4  12  24  41  65  95 129 178 218 267 318 380
#     4  12  26  40  70 102 124 164 224 274 320 396
#     4  10  21  45  68  88 134 177 208 262 332 386
#     4  12  26  39  64  98 132 171 226 273 311 378
#
# _framework density 20.989840999999998
#
# number of rings (size 3 to 8) (size 9 to 14) (size 15 to 20)
#    0.000    1.600    5.333    1.600    1.867    6.933 
#    0.000    0.000    0.000    0.000    0.000    0.000 
#    0.000    0.000    0.000    0.000    0.000    0.000 
#
# Total GULP energy -167713.346107 kJ/mol
# GULP energy per Si atom -5590.444870 kJ/mol
# Density = 2.094207 g / cm^3
# Si number density = 20.989841 Si / 1000 Ang^3
#
#
#
# Elastic Constant Matrix: (Units=GPa)
#
#
# Indices 1 2 3 4 5 6 
#
# 1 22.9890 10.0503 15.5153 0.0000 0.0000 0.0000
# 2 10.0503 34.5377 20.0823 0.0000 0.0000 0.0000
# 3 15.5153 20.0823 84.5033 0.0000 0.0000 0.0000
# 4 0.0000 0.0000 0.0000 34.5349 0.0000 0.0000
# 5 0.0000 0.0000 0.0000 0.0000 12.7574 0.0000
# 6 0.0000 0.0000 0.0000 0.0000 0.0000 33.5562
#
#
#
# Elastic Compliance Matrix: (Units=1/GPa)
#
#
# Indices 1 2 3 4 5 6 
#
# 1 0.053248 -0.011383 -0.007071 0.000000 0.000000 0.000000
# 2 -0.011383 0.036030 -0.006472 0.000000 0.000000 0.000000
# 3 -0.007071 -0.006472 0.014670 0.000000 0.000000 0.000000
# 4 0.000000 0.000000 0.000000 0.028956 0.000000 0.000000
# 5 0.000000 0.000000 0.000000 0.000000 0.078386 0.000000
# 6 0.000000 0.000000 0.000000 0.000000 0.000000 0.029801
#
#
# Mechanical properties :
#
#
# Convention : Reuss Voigt Hill
#
# Bulk Modulus (GPa) = 18.48631 25.92508 22.20570
# Shear Modulus (GPa) = 16.18244 22.59516 19.38880
#
# Velocity S-wave (km/s) = 2.77964 3.28454 3.04258
# Velocity P-wave (km/s) = 4.37358 5.17323 4.79012
#
# Compressibility (1/GPa) = 0.05409407
#
# Stress axis : x y z
#
# Youngs Moduli (GPa) = 18.78003 27.75480 68.16442
#
# Poissons Ratio (x) = 0.31594 0.48202
# Poissons Ratio (y) = 0.21378 0.44119
# Poissons Ratio (z) = 0.13280 0.17964
#
# Static dielectric constant tensor:
#      x y z
#    x 1.744650 0.000000 0.000000 
#    y 0.000000 1.770140 0.000000 
#    z 0.000000 0.000000 1.753950 
# 
# From -- ./inp_files/6639.got.cif
#   From: 2010.05.17/outbox.cif.g08.bks.cpg/sg41_4_cif.got.tgz:6639.got - 2010.06.03 18:54:24.
