data_PCOD9366875
_publ_section_title
;
Structure prediction by ZEFSAII (Michael W. Deem and Ramdas Pophale) SiO2 
 PCOD9366875
Probable space group: A B A 2
;
_chemical_formula_sum "Si O2"
_cell_formula_units_Z 60
_cell_length_a 28.528674
_cell_length_b 17.549893
_cell_length_c 5.286699
_cell_angle_alpha 90.000000
_cell_angle_beta 90.000000
_cell_angle_gamma 90.000000
_cell_volume 2646.918953
_symmetry_space_group_name_H-M "A B A 2"
_symmetry_group_IT_number 41
_symmetry_cell_setting 'orthorhombic'
loop_
_space_group_symop_operation_xyz
x,y,z
-x,-y,z
1/2-x,y,1/2+z
1/2+x,-y,1/2+z
x,1/2+y,1/2+z
-x,1/2-y,1/2+z
1/2-x,1/2+y,z
1/2+x,1/2-y,z
loop_
_atom_site_type_symbol
_atom_site_label
_atom_site_fract_x
_atom_site_fract_y
_atom_site_fract_z
Si Si1 0.774983 0.437023 0.118510
Si Si2 0.116394 0.346500 0.935878
Si Si3 0.397461 0.492223 0.172865
Si Si4 0.220424 0.378303 0.123229
Si Si5 0.565270 0.777794 0.149625
Si Si6 0.466999 0.852167 0.286467
Si Si7 0.000000 0.000000 0.092500
Si Si8 0.626539 0.922440 0.154847
O O1 0.736686 0.418245 0.330358
O O2 0.782008 0.529002 0.135184
O O3 0.821403 0.395367 0.212525
O O4 0.117282 0.403735 0.693380
O O5 0.095396 0.263432 0.870284
O O6 0.167275 0.348953 0.067924
O O7 0.072470 0.380755 0.093657
O O8 0.368712 0.529292 0.399173
O O9 0.451781 0.510088 0.240601
O O10 0.389812 0.529006 0.898036
O O11 0.245590 0.356231 0.387439
O O12 0.512269 0.806457 0.190216
O O13 0.593196 0.853261 0.087668
O O14 0.559912 0.710648 0.950259
O O15 0.488103 0.924554 0.432606
#
# Coordination Sequence:
#
# PCOD9366875 Si02
#       8
#     8   8   8   8   8   8   4   8
#     4  10  21  42  71 104 138 180 240 304 361 423
#     4  12  27  46  74 104 148 197 244 303 366 444
#     4  12  27  43  72 105 146 186 250 287 360 421
#     4  10  24  42  72 106 141 180 244 309 363 422
#     4  12  28  45  70 104 153 196 234 299 367 449
#     4  12  27  49  69 108 149 200 248 297 372 440
#     4  12  26  44  72 106 144 188 254 302 344 436
#     4  12  27  46  72 106 145 189 239 296 364 433
#
# _framework density 22.667864999999999
#
# number of rings (size 3 to 8) (size 9 to 14) (size 15 to 20)
#    0.000    0.533    5.333    1.600   11.200    0.533 
#    0.000    1.333    0.000    0.000    0.000    0.000 
#    0.000    0.000    0.000    0.000    0.000    0.000 
#
# Total GULP energy -167510.156269 kJ/mol
# GULP energy per Si atom -5583.671876 kJ/mol
# Density = 2.261627 g / cm^3
# Si number density = 22.667865 Si / 1000 Ang^3
#
#
#
# Elastic Constant Matrix: (Units=GPa)
#
#
# Indices 1 2 3 4 5 6 
#
# 1 139.0882 16.9286 27.6460 0.0000 0.0000 0.0000
# 2 16.9286 75.1720 40.9859 0.0000 0.0000 0.0000
# 3 27.6460 40.9859 78.3524 0.0000 0.0000 0.0000
# 4 0.0000 0.0000 0.0000 13.8272 0.0000 0.0000
# 5 0.0000 0.0000 0.0000 0.0000 37.7228 0.0000
# 6 0.0000 0.0000 0.0000 0.0000 0.0000 20.7332
#
#
#
# Elastic Compliance Matrix: (Units=1/GPa)
#
#
# Indices 1 2 3 4 5 6 
#
# 1 0.007739 -0.000355 -0.002545 0.000000 0.000000 0.000000
# 2 -0.000355 0.018627 -0.009618 0.000000 0.000000 0.000000
# 3 -0.002545 -0.009618 0.018692 0.000000 0.000000 0.000000
# 4 0.000000 0.000000 0.000000 0.072321 0.000000 0.000000
# 5 0.000000 0.000000 0.000000 0.000000 0.026509 0.000000
# 6 0.000000 0.000000 0.000000 0.000000 0.000000 0.048232
#
#
# Mechanical properties :
#
#
# Convention : Reuss Voigt Hill
#
# Bulk Modulus (GPa) = 49.94731 51.52593 50.73662
# Shear Modulus (GPa) = 22.33834 28.26012 25.29923
#
# Velocity S-wave (km/s) = 3.14261 3.53470 3.34441
# Velocity P-wave (km/s) = 5.93719 6.28005 6.11103
#
# Compressibility (1/GPa) = 0.02002110
#
# Stress axis : x y z
#
# Youngs Moduli (GPa) = 129.22024 53.68534 53.49861
#
# Poissons Ratio (x) = 0.01907 0.13614
# Poissons Ratio (y) = 0.04591 0.51457
# Poissons Ratio (z) = 0.32883 0.51637
#
# Static dielectric constant tensor:
#      x y z
#    x 1.897390 0.000000 0.000000 
#    y 0.000000 1.887400 0.000000 
#    z 0.000000 0.000000 1.889550 
# 
# From -- ./inp_files/1190.got.cif
#   From: 2010.05.17/outbox.cif.g08.bks.cpg/sg41_1_cif.got.tgz:1190.got - 2010.06.03 18:54:24.
