data_PCOD9366868
_publ_section_title
;
Structure prediction by ZEFSAII (Michael W. Deem and Ramdas Pophale) SiO2 
 PCOD9366868
Probable space group: A B A 2
;
_chemical_formula_sum "Si O2"
_cell_formula_units_Z 64
_cell_length_a 29.212129
_cell_length_b 8.048908
_cell_length_c 11.618039
_cell_angle_alpha 90.000000
_cell_angle_beta 90.000000
_cell_angle_gamma 90.000000
_cell_volume 2731.700003
_symmetry_space_group_name_H-M "A B A 2"
_symmetry_group_IT_number 41
_symmetry_cell_setting 'orthorhombic'
loop_
_space_group_symop_operation_xyz
x,y,z
-x,-y,z
1/2-x,y,1/2+z
1/2+x,-y,1/2+z
x,1/2+y,1/2+z
-x,1/2-y,1/2+z
1/2-x,1/2+y,z
1/2+x,1/2-y,z
loop_
_atom_site_type_symbol
_atom_site_label
_atom_site_fract_x
_atom_site_fract_y
_atom_site_fract_z
Si Si1 0.157389 0.107111 0.250000
Si Si2 0.687355 0.883574 0.489567
Si Si3 0.111931 0.359491 0.904928
Si Si4 0.215312 0.749979 0.953843
Si Si5 0.467131 0.756763 0.045701
Si Si6 0.562170 0.106088 0.507745
Si Si7 0.363935 0.147143 0.090228
Si Si8 0.413269 0.914839 0.247383
O O1 0.179558 0.094111 0.125414
O O2 0.195587 0.145145 0.346821
O O3 0.122480 0.262067 0.249967
O O4 0.128799 0.944879 0.288357
O O5 0.642398 0.798460 0.438617
O O6 0.730769 0.765844 0.467302
O O7 0.699875 0.060836 0.436521
O O8 0.058947 0.320402 0.930651
O O9 0.124403 0.499368 0.000477
O O10 0.189385 0.683928 0.069304
O O11 0.451044 0.869717 0.151348
O O12 0.520949 0.734259 0.031411
O O13 0.448230 0.569499 0.066870
O O14 0.608449 0.192764 0.547230
O O15 0.564567 0.071804 0.371899
O O16 0.384818 0.076243 0.207323
#
# Coordination Sequence:
#
# PCOD9366868 Si02
#       8
#     8   8   8   8   8   8   8   8
#     4  11  24  45  70  97 132 181 224 267 348 394
#     4  12  25  45  69  99 142 168 226 279 333 399
#     4  10  21  43  65  99 132 175 220 281 325 401
#     4  11  25  44  69 102 133 174 221 282 326 409
#     4  10  24  43  66 101 139 169 234 278 329 407
#     4  11  23  44  65 100 138 176 222 285 330 403
#     4  10  21  42  68  95 133 174 223 273 334 393
#     4  11  23  44  69  92 135 179 220 277 336 400
#
# _framework density 23.428633000000001
#
# number of rings (size 3 to 8) (size 9 to 14) (size 15 to 20)
#    0.000    1.250    5.000    2.250    0.000    7.000 
#    4.500    0.000    0.000    0.000    0.000    0.000 
#    0.000    0.000    0.000    0.000    0.000    0.000 
#
# Total GULP energy -179227.775400 kJ/mol
# GULP energy per Si atom -5600.867981 kJ/mol
# Density = 2.337531 g / cm^3
# Si number density = 23.428633 Si / 1000 Ang^3
#
#
#
# Elastic Constant Matrix: (Units=GPa)
#
#
# Indices 1 2 3 4 5 6 
#
# 1 71.7399 -5.9173 14.1809 0.0000 0.0000 0.0000
# 2 -5.9173 82.1992 19.0354 0.0000 0.0000 0.0000
# 3 14.1809 19.0354 119.0423 0.0000 0.0000 0.0000
# 4 0.0000 0.0000 0.0000 33.7025 0.0000 0.0000
# 5 0.0000 0.0000 0.0000 0.0000 25.5312 0.0000
# 6 0.0000 0.0000 0.0000 0.0000 0.0000 39.7555
#
#
#
# Elastic Compliance Matrix: (Units=1/GPa)
#
#
# Indices 1 2 3 4 5 6 
#
# 1 0.014450 0.001494 -0.001960 0.000000 0.000000 0.000000
# 2 0.001494 0.012788 -0.002223 0.000000 0.000000 0.000000
# 3 -0.001960 -0.002223 0.008989 0.000000 0.000000 0.000000
# 4 0.000000 0.000000 0.000000 0.029671 0.000000 0.000000
# 5 0.000000 0.000000 0.000000 0.000000 0.039168 0.000000
# 6 0.000000 0.000000 0.000000 0.000000 0.000000 0.025154
#
#
# Mechanical properties :
#
#
# Convention : Reuss Voigt Hill
#
# Bulk Modulus (GPa) = 32.41566 36.39774 34.40670
# Shear Modulus (GPa) = 34.27451 36.17668 35.22560
#
# Velocity S-wave (km/s) = 3.82898 3.93380 3.88174
# Velocity P-wave (km/s) = 5.78049 6.01683 5.89985
#
# Compressibility (1/GPa) = 0.03084929
#
# Stress axis : x y z
#
# Youngs Moduli (GPa) = 69.20425 78.19904 111.24291
#
# Poissons Ratio (x) = -0.11684 0.21807
# Poissons Ratio (y) = -0.10340 0.24727
# Poissons Ratio (z) = 0.13566 0.17382
#
# Static dielectric constant tensor:
#      x y z
#    x 1.838490 0.000000 0.000000 
#    y 0.000000 1.900950 0.000000 
#    z 0.000000 0.000000 1.893530 
# 
# From -- ./inp_files/6689.got.cif
#   From: 2010.05.17/outbox.cif.g08.bks.cpg/sg41_4_cif.got.tgz:6689.got - 2010.06.03 18:54:24.
