data_PCOD9366038
_publ_section_title
;
Structure prediction by ZEFSAII (Michael W. Deem and Ramdas Pophale) SiO2 
 PCOD9366038
Probable space group: A B A 2
;
_chemical_formula_sum "Si O2"
_cell_formula_units_Z 60
_cell_length_a 12.595881
_cell_length_b 8.205387
_cell_length_c 26.254158
_cell_angle_alpha 90.000000
_cell_angle_beta 90.000000
_cell_angle_gamma 90.000000
_cell_volume 2713.474299
_symmetry_space_group_name_H-M "A B A 2"
_symmetry_group_IT_number 41
_symmetry_cell_setting 'orthorhombic'
loop_
_space_group_symop_operation_xyz
x,y,z
-x,-y,z
1/2-x,y,1/2+z
1/2+x,-y,1/2+z
x,1/2+y,1/2+z
-x,1/2-y,1/2+z
1/2-x,1/2+y,z
1/2+x,1/2-y,z
loop_
_atom_site_type_symbol
_atom_site_label
_atom_site_fract_x
_atom_site_fract_y
_atom_site_fract_z
Si Si1 0.881277 0.732357 0.638310
Si Si2 0.194186 0.969490 0.580288
Si Si3 0.500000 0.500000 0.075284
Si Si4 0.929975 0.162860 0.252347
Si Si5 0.720173 0.512256 0.334722
Si Si6 0.581373 0.692376 0.834370
Si Si7 0.569077 0.659315 0.419312
Si Si8 0.663726 0.333436 0.015243
O O1 0.867260 0.913885 0.618242
O O2 0.786387 0.616633 0.615483
O O3 0.890408 0.728303 0.698697
O O4 0.983840 0.650520 0.612736
O O5 0.223385 0.094863 0.533011
O O6 0.142079 0.819928 0.551608
O O7 0.595233 0.482374 0.036100
O O8 0.831277 0.105555 0.286700
O O9 0.005764 0.280954 0.285631
O O10 0.000000 0.000000 0.243326
O O11 0.846964 0.530846 0.336690
O O12 0.672852 0.331273 0.331879
O O13 0.662871 0.588152 0.384117
O O14 0.510988 0.736434 0.883715
O O15 0.500000 0.500000 0.437508
O O16 0.626368 0.772670 0.460826
#
# Coordination Sequence:
#
# PCOD9366038 Si02
#       8
#     8   8   4   8   8   8   8   8
#     4  10  19  38  58  87 116 160 197 252 301 361
#     4   9  22  38  61  86 122 155 211 246 301 362
#     4  10  22  36  60  84 120 156 196 248 302 352
#     4   9  18  35  62  83 119 159 197 241 310 362
#     4   9  19  37  58  85 116 154 197 247 300 364
#     4   9  19  39  60  86 116 158 199 249 303 368
#     4   9  20  37  60  87 119 160 202 243 311 361
#     4  10  21  41  59  90 118 159 199 254 300 361
#
# _framework density 22.111874
#
# number of rings (size 3 to 8) (size 9 to 14) (size 15 to 20)
#    0.000    2.667    0.667    1.600    1.867    4.267 
#    9.600    2.000    2.933    0.000    0.000    0.000 
#    0.000    0.000    0.000    0.000    0.000    0.000 
#
# Total GULP energy -167245.343491 kJ/mol
# GULP energy per Si atom -5574.844783 kJ/mol
# Density = 2.206155 g / cm^3
# Si number density = 22.111874 Si / 1000 Ang^3
#
#
#
# Elastic Constant Matrix: (Units=GPa)
#
#
# Indices 1 2 3 4 5 6 
#
# 1 39.4032 22.7413 21.0702 0.0000 0.0000 0.0000
# 2 22.7413 52.9476 15.1057 0.0000 0.0000 0.0000
# 3 21.0702 15.1057 114.2522 0.0000 0.0000 0.0000
# 4 0.0000 0.0000 0.0000 -8.0482 0.0000 0.0000
# 5 0.0000 0.0000 0.0000 0.0000 2.8328 0.0000
# 6 0.0000 0.0000 0.0000 0.0000 0.0000 40.9386
#
#
#
# Elastic Compliance Matrix: (Units=1/GPa)
#
#
# Indices 1 2 3 4 5 6 
#
# 1 0.036099 -0.014139 -0.004788 0.000000 0.000000 0.000000
# 2 -0.014139 0.025165 -0.000720 0.000000 0.000000 0.000000
# 3 -0.004788 -0.000720 0.009731 0.000000 0.000000 0.000000
# 4 0.000000 0.000000 0.000000 -0.124251 0.000000 0.000000
# 5 0.000000 0.000000 0.000000 0.000000 0.353002 0.000000
# 6 0.000000 0.000000 0.000000 0.000000 0.000000 0.024427
#
#
# Mechanical properties :
#
#
# Convention : Reuss Voigt Hill
#
# Bulk Modulus (GPa) = 31.54420 36.04858 33.79639
# Shear Modulus (GPa) = 13.36785 16.99037 15.17911
#
# Velocity S-wave (km/s) = 2.46144 2.77498 2.62290
# Velocity P-wave (km/s) = 4.73022 5.15806 4.94876
#
# Compressibility (1/GPa) = 0.03170155
#
# Stress axis : x y z
#
# Youngs Moduli (GPa) = 27.70166 39.73845 102.76750
#
# Poissons Ratio (x) = 0.56185 0.49205
# Poissons Ratio (y) = 0.39166 0.07396
# Poissons Ratio (z) = 0.13263 0.02860
#
# Static dielectric constant tensor:
#      x y z
#    x 1.991180 0.000000 0.000000 
#    y 0.000000 1.868870 0.000000 
#    z 0.000000 0.000000 1.764890 
# 
# From -- ./inp_files/12212.got.cif
#   From: 2010.05.17/outbox.cif.g08.bks.cpg/sg41_7_cif.got.tgz:12212.got - 2010.06.03 18:54:24.
