data_PCOD9366602
_publ_section_title
;
Structure prediction by ZEFSAII (Michael W. Deem and Ramdas Pophale) SiO2 
 PCOD9366602
Probable space group: A B A 2
;
_chemical_formula_sum "Si O2"
_cell_formula_units_Z 64
_cell_length_a 9.255521
_cell_length_b 27.763647
_cell_length_c 10.717524
_cell_angle_alpha 90.000000
_cell_angle_beta 90.000000
_cell_angle_gamma 90.000000
_cell_volume 2754.050181
_symmetry_space_group_name_H-M "A B A 2"
_symmetry_group_IT_number 41
_symmetry_cell_setting 'orthorhombic'
loop_
_space_group_symop_operation_xyz
x,y,z
-x,-y,z
1/2-x,y,1/2+z
1/2+x,-y,1/2+z
x,1/2+y,1/2+z
-x,1/2-y,1/2+z
1/2-x,1/2+y,z
1/2+x,1/2-y,z
loop_
_atom_site_type_symbol
_atom_site_label
_atom_site_fract_x
_atom_site_fract_y
_atom_site_fract_z
Si Si1 0.021235 0.743119 0.559540
Si Si2 0.181916 0.149507 0.814578
Si Si3 0.373848 0.632707 0.083721
Si Si4 0.670885 0.492718 0.692509
Si Si5 0.314348 0.415928 0.100466
Si Si6 0.330537 0.004285 0.465016
Si Si7 0.137916 0.830623 0.717605
Si Si8 0.842902 0.241838 0.304909
O O1 0.085291 0.689736 0.574261
O O2 0.890136 0.740736 0.659295
O O3 0.101598 0.787638 0.623371
O O4 0.031210 0.755677 0.411279
O O5 0.271343 0.127139 0.702112
O O6 0.229225 0.205881 0.822715
O O7 0.011056 0.150942 0.778955
O O8 0.197530 0.125501 0.948673
O O9 0.521884 0.602777 0.099034
O O10 0.242247 0.531194 0.072252
O O11 0.500000 0.500000 0.670614
O O12 0.765836 0.541911 0.695551
O O13 0.684599 0.472919 0.830411
O O14 0.215483 0.371647 0.138558
O O15 0.283420 0.447517 0.975370
O O16 0.500000 0.000000 0.495440
O O17 0.242904 0.805206 0.819469
#
# Coordination Sequence:
#
# PCOD9366602 Si02
#       8
#     8   8   8   8   8   8   8   8
#     4  10  22  36  61  87 130 181 228 287 342 403
#     4  10  25  41  60  89 132 188 232 291 342 398
#     4  11  22  45  61  90 140 181 236 282 348 400
#     4   9  21  44  73 104 140 175 218 274 348 426
#     4  10  24  41  71 103 136 173 230 287 347 413
#     4   9  21  44  70 105 138 174 213 276 350 422
#     4  11  22  39  63  98 130 178 239 298 339 399
#     4  10  21  38  59  88 124 180 239 280 350 404
#
# _framework density 23.238500999999999
#
# number of rings (size 3 to 8) (size 9 to 14) (size 15 to 20)
#    0.750    1.250    2.500    0.000    3.500    3.500 
#    6.750    0.000    0.000    0.000    0.000    0.000 
#    0.000    0.000    0.000    0.000    0.000    0.000 
#
# Total GULP energy -178320.326063 kJ/mol
# GULP energy per Si atom -5572.510189 kJ/mol
# Density = 2.318561 g / cm^3
# Si number density = 23.238501 Si / 1000 Ang^3
#
#
#
# Elastic Constant Matrix: (Units=GPa)
#
#
# Indices 1 2 3 4 5 6 
#
# 1 54.0281 11.8499 54.9120 0.0000 0.0000 0.0000
# 2 11.8499 87.5953 18.7270 0.0000 0.0000 0.0000
# 3 54.9120 18.7270 129.8614 0.0000 0.0000 0.0000
# 4 0.0000 0.0000 0.0000 27.4253 0.0000 0.0000
# 5 0.0000 0.0000 0.0000 0.0000 32.9177 0.0000
# 6 0.0000 0.0000 0.0000 0.0000 0.0000 26.0379
#
#
#
# Elastic Compliance Matrix: (Units=1/GPa)
#
#
# Indices 1 2 3 4 5 6 
#
# 1 0.032651 -0.001512 -0.013589 0.000000 0.000000 0.000000
# 2 -0.001512 0.011849 -0.001069 0.000000 0.000000 0.000000
# 3 -0.013589 -0.001069 0.013601 0.000000 0.000000 0.000000
# 4 0.000000 0.000000 0.000000 0.036463 0.000000 0.000000
# 5 0.000000 0.000000 0.000000 0.000000 0.030379 0.000000
# 6 0.000000 0.000000 0.000000 0.000000 0.000000 0.038405
#
#
# Mechanical properties :
#
#
# Convention : Reuss Voigt Hill
#
# Bulk Modulus (GPa) = 38.81778 49.16251 43.99014
# Shear Modulus (GPa) = 24.47673 29.67591 27.07632
#
# Velocity S-wave (km/s) = 3.24895 3.57741 3.41713
# Velocity P-wave (km/s) = 5.55109 6.18590 5.87707
#
# Compressibility (1/GPa) = 0.02576139
#
# Stress axis : x y z
#
# Youngs Moduli (GPa) = 30.62652 84.39314 73.52558
#
# Poissons Ratio (x) = 0.12760 0.99911
# Poissons Ratio (y) = 0.04631 0.07863
# Poissons Ratio (z) = 0.41617 0.09025
#
# Static dielectric constant tensor:
#      x y z
#    x 1.925940 0.000000 0.000000 
#    y 0.000000 1.965680 0.000000 
#    z 0.000000 0.000000 1.926450 
# 
# From -- ./inp_files/5209.got.cif
#   From: 2010.05.17/outbox.cif.g08.bks.cpg/sg41_3_cif.got.tgz:5209.got - 2010.06.03 18:54:24.
