data_PCOD9366820
_publ_section_title
;
Structure prediction by ZEFSAII (Michael W. Deem and Ramdas Pophale) SiO2 
 PCOD9366820
Probable space group: A B A 2
;
_chemical_formula_sum "Si O2"
_cell_formula_units_Z 64
_cell_length_a 13.263038
_cell_length_b 21.960466
_cell_length_c 10.701895
_cell_angle_alpha 90.000000
_cell_angle_beta 90.000000
_cell_angle_gamma 90.000000
_cell_volume 3117.060640
_symmetry_space_group_name_H-M "A B A 2"
_symmetry_group_IT_number 41
_symmetry_cell_setting 'orthorhombic'
loop_
_space_group_symop_operation_xyz
x,y,z
-x,-y,z
1/2-x,y,1/2+z
1/2+x,-y,1/2+z
x,1/2+y,1/2+z
-x,1/2-y,1/2+z
1/2-x,1/2+y,z
1/2+x,1/2-y,z
loop_
_atom_site_type_symbol
_atom_site_label
_atom_site_fract_x
_atom_site_fract_y
_atom_site_fract_z
Si Si1 0.349181 0.880871 0.611790
Si Si2 0.472424 0.822510 0.407693
Si Si3 0.072511 0.558382 0.330816
Si Si4 0.750014 0.510919 0.955691
Si Si5 0.841470 0.734459 0.946804
Si Si6 0.801951 0.210809 0.723718
Si Si7 0.580059 0.103761 0.868611
Si Si8 0.073462 0.558519 0.057721
O O1 0.389021 0.829948 0.516250
O O2 0.314450 0.940634 0.536719
O O3 0.255592 0.852016 0.687923
O O4 0.431361 0.891116 0.719996
O O5 0.527945 0.887866 0.413650
O O6 0.557585 0.772598 0.425155
O O7 0.408993 0.807334 0.283180
O O8 0.178960 0.529340 0.368024
O O9 0.069910 0.587983 0.193156
O O10 0.000000 0.500000 0.336116
O O11 0.837983 0.549937 0.888319
O O12 0.813976 0.464500 0.038598
O O13 0.761482 0.744406 0.833728
O O14 0.870692 0.663489 0.929998
O O15 0.808634 0.744775 0.090536
O O16 0.476102 0.093189 0.942007
O O17 0.000000 0.500000 0.068439
#
# Coordination Sequence:
#
# PCOD9366820 Si02
#       8
#     8   8   8   8   8   8   8   8
#     4  11  21  40  68  95 130 175 221 269 324 403
#     4  12  26  44  66 101 137 173 226 278 342 400
#     4  11  23  41  64  93 129 172 215 272 330 396
#     4  11  20  41  64  98 127 173 217 268 328 398
#     4  11  25  43  74  98 132 182 220 284 338 402
#     4  11  23  46  72 100 134 177 233 272 339 416
#     4  10  21  41  67  98 126 171 222 268 328 394
#     4   9  21  39  64  95 126 167 216 270 329 386
#
# _framework density 20.532164000000002
#
# number of rings (size 3 to 8) (size 9 to 14) (size 15 to 20)
#    0.000    1.250    3.750    2.250    7.000    0.000 
#   13.500    0.000    0.000    0.000    0.000    0.000 
#    0.000    0.000    0.000    0.000    0.000    0.000 
#
# Total GULP energy -178474.136641 kJ/mol
# GULP energy per Si atom -5577.316770 kJ/mol
# Density = 2.048543 g / cm^3
# Si number density = 20.532164 Si / 1000 Ang^3
#
#
#
# Elastic Constant Matrix: (Units=GPa)
#
#
# Indices 1 2 3 4 5 6 
#
# 1 99.5906 31.6877 45.6935 0.0000 0.0000 0.0000
# 2 31.6877 22.7978 18.4203 0.0000 0.0000 0.0000
# 3 45.6935 18.4203 134.3562 0.0000 0.0000 0.0000
# 4 0.0000 0.0000 0.0000 8.9212 0.0000 0.0000
# 5 0.0000 0.0000 0.0000 0.0000 33.8402 0.0000
# 6 0.0000 0.0000 0.0000 0.0000 0.0000 33.7521
#
#
#
# Elastic Compliance Matrix: (Units=1/GPa)
#
#
# Indices 1 2 3 4 5 6 
#
# 1 0.019169 -0.024039 -0.003223 0.000000 0.000000 0.000000
# 2 -0.024039 0.079475 -0.002721 0.000000 0.000000 0.000000
# 3 -0.003223 -0.002721 0.008912 0.000000 0.000000 0.000000
# 4 0.000000 0.000000 0.000000 0.112093 0.000000 0.000000
# 5 0.000000 0.000000 0.000000 0.000000 0.029551 0.000000
# 6 0.000000 0.000000 0.000000 0.000000 0.000000 0.029628
#
#
# Mechanical properties :
#
#
# Convention : Reuss Voigt Hill
#
# Bulk Modulus (GPa) = 21.01285 49.81640 35.41462
# Shear Modulus (GPa) = 14.09814 26.03224 20.06519
#
# Velocity S-wave (km/s) = 2.62322 3.56459 3.12950
# Velocity P-wave (km/s) = 4.40810 6.42316 5.50856
#
# Compressibility (1/GPa) = 0.04758993
#
# Stress axis : x y z
#
# Youngs Moduli (GPa) = 52.16806 12.58256 112.20653
#
# Poissons Ratio (x) = 0.30247 0.36169
# Poissons Ratio (y) = 1.25408 0.30526
# Poissons Ratio (z) = 0.16816 0.03423
#
# Static dielectric constant tensor:
#      x y z
#    x 1.763910 0.000000 0.000000 
#    y 0.000000 1.717550 0.000000 
#    z 0.000000 0.000000 1.795680 
# 
# From -- ./inp_files/5193.got.cif
#   From: 2010.05.17/outbox.cif.g08.bks.cpg/sg41_3_cif.got.tgz:5193.got - 2010.06.03 18:54:24.
