data_PCOD9366141
_publ_section_title
;
Structure prediction by ZEFSAII (Michael W. Deem and Ramdas Pophale) SiO2 
 PCOD9366141
Probable space group: A B A 2
;
_chemical_formula_sum "Si O2"
_cell_formula_units_Z 64
_cell_length_a 9.575417
_cell_length_b 20.854178
_cell_length_c 14.311844
_cell_angle_alpha 90.000000
_cell_angle_beta 90.000000
_cell_angle_gamma 90.000000
_cell_volume 2857.895641
_symmetry_space_group_name_H-M "A B A 2"
_symmetry_group_IT_number 41
_symmetry_cell_setting 'orthorhombic'
loop_
_space_group_symop_operation_xyz
x,y,z
-x,-y,z
1/2-x,y,1/2+z
1/2+x,-y,1/2+z
x,1/2+y,1/2+z
-x,1/2-y,1/2+z
1/2-x,1/2+y,z
1/2+x,1/2-y,z
loop_
_atom_site_type_symbol
_atom_site_label
_atom_site_fract_x
_atom_site_fract_y
_atom_site_fract_z
Si Si1 0.715642 0.307548 0.185770
Si Si2 0.211183 0.081471 0.037811
Si Si3 0.343965 0.669039 0.402106
Si Si4 0.050217 0.232647 0.930139
Si Si5 0.380757 0.444361 0.805254
Si Si6 0.530859 0.189110 0.221242
Si Si7 0.584839 0.610818 0.000726
Si Si8 0.157127 0.472302 0.663185
O O1 0.679347 0.361604 0.111294
O O2 0.674686 0.333129 0.290063
O O3 0.642571 0.238132 0.177276
O O4 0.881637 0.302531 0.173627
O O5 0.246124 0.020304 0.097923
O O6 0.312738 0.104106 0.956828
O O7 0.061236 0.071804 0.991062
O O8 0.491727 0.696187 0.437076
O O9 0.214223 0.716255 0.433764
O O10 0.000358 0.213865 0.826047
O O11 0.959770 0.184624 0.993297
O O12 0.500000 0.500000 0.806460
O O13 0.430510 0.384996 0.738329
O O14 0.343084 0.413394 0.906078
O O15 0.237935 0.468015 0.759103
O O16 0.647575 0.591607 0.100000
O O17 0.000000 0.500000 0.673863
#
# Coordination Sequence:
#
# PCOD9366141 Si02
#       8
#     8   8   8   8   8   8   8   8
#     4  10  20  35  55  84 118 149 192 246 293 353
#     4  10  20  34  58  85 110 151 203 240 290 363
#     4   9  18  33  52  79 113 146 184 236 288 344
#     4   8  16  33  55  79 109 148 192 232 287 352
#     4  11  21  39  65  87 118 161 202 249 302 360
#     4   9  20  35  56  86 117 155 198 240 298 356
#     4   9  20  39  60  82 114 157 199 239 292 359
#     4  10  22  38  57  86 116 151 204 250 295 361
#
# _framework density 22.394102
#
# number of rings (size 3 to 8) (size 9 to 14) (size 15 to 20)
#    0.000    2.500    0.000    2.625    0.000    6.000 
#    0.000    4.375    0.000    0.000    0.000    0.000 
#    0.000    0.000    0.000    0.000    0.000    0.000 
#
# Total GULP energy -178473.322231 kJ/mol
# GULP energy per Si atom -5577.291320 kJ/mol
# Density = 2.234313 g / cm^3
# Si number density = 22.394102 Si / 1000 Ang^3
#
#
#
# Elastic Constant Matrix: (Units=GPa)
#
#
# Indices 1 2 3 4 5 6 
#
# 1 52.5662 6.3786 17.8963 0.0000 0.0000 0.0000
# 2 6.3786 46.2455 2.7902 0.0000 0.0000 0.0000
# 3 17.8963 2.7902 66.9368 0.0000 0.0000 0.0000
# 4 0.0000 0.0000 0.0000 15.4521 0.0000 0.0000
# 5 0.0000 0.0000 0.0000 0.0000 23.6755 0.0000
# 6 0.0000 0.0000 0.0000 0.0000 0.0000 18.5036
#
#
#
# Elastic Compliance Matrix: (Units=1/GPa)
#
#
# Indices 1 2 3 4 5 6 
#
# 1 0.021234 -0.002593 -0.005569 0.000000 0.000000 0.000000
# 2 -0.002593 0.021995 -0.000224 0.000000 0.000000 0.000000
# 3 -0.005569 -0.000224 0.016438 0.000000 0.000000 0.000000
# 4 0.000000 0.000000 0.000000 0.064716 0.000000 0.000000
# 5 0.000000 0.000000 0.000000 0.000000 0.042238 0.000000
# 6 0.000000 0.000000 0.000000 0.000000 0.000000 0.054044
#
#
# Mechanical properties :
#
#
# Convention : Reuss Voigt Hill
#
# Bulk Modulus (GPa) = 23.31234 24.43097 23.87166
# Shear Modulus (GPa) = 19.86224 20.77180 20.31702
#
# Velocity S-wave (km/s) = 2.98139 3.04889 3.01532
# Velocity P-wave (km/s) = 4.72061 4.82986 4.77555
#
# Compressibility (1/GPa) = 0.04289573
#
# Stress axis : x y z
#
# Youngs Moduli (GPa) = 47.09365 45.46517 60.83559
#
# Poissons Ratio (x) = 0.11788 0.33880
# Poissons Ratio (y) = 0.12211 0.01360
# Poissons Ratio (z) = 0.26227 0.01017
#
# Static dielectric constant tensor:
#      x y z
#    x 1.866670 0.000000 0.000000 
#    y 0.000000 1.907060 0.000000 
#    z 0.000000 0.000000 1.867660 
# 
# From -- ./inp_files/7571.got.cif
#   From: 2010.05.17/outbox.cif.g08.bks.cpg/sg41_4_cif.got.tgz:7571.got - 2010.06.03 18:54:24.
