data_PCOD9366588
_publ_section_title
;
Structure prediction by ZEFSAII (Michael W. Deem and Ramdas Pophale) SiO2 
 PCOD9366588
Probable space group: A B A 2
;
_chemical_formula_sum "Si O2"
_cell_formula_units_Z 56
_cell_length_a 5.440283
_cell_length_b 14.818640
_cell_length_c 26.389660
_cell_angle_alpha 90.000000
_cell_angle_beta 90.000000
_cell_angle_gamma 90.000000
_cell_volume 2127.470929
_symmetry_space_group_name_H-M "A B A 2"
_symmetry_group_IT_number 41
_symmetry_cell_setting 'orthorhombic'
loop_
_space_group_symop_operation_xyz
x,y,z
-x,-y,z
1/2-x,y,1/2+z
1/2+x,-y,1/2+z
x,1/2+y,1/2+z
-x,1/2-y,1/2+z
1/2-x,1/2+y,z
1/2+x,1/2-y,z
loop_
_atom_site_type_symbol
_atom_site_label
_atom_site_fract_x
_atom_site_fract_y
_atom_site_fract_z
Si Si1 0.211738 0.793691 0.377450
Si Si2 0.000000 0.500000 0.602049
Si Si3 0.753534 0.507209 0.398689
Si Si4 0.459169 0.730382 0.254215
Si Si5 0.753174 0.449478 0.289722
Si Si6 0.654259 0.202187 0.000235
Si Si7 0.474595 0.794564 0.635485
Si Si8 0.500000 0.500000 0.537714
O O1 0.454553 0.744049 0.358768
O O2 0.246560 0.898670 0.370480
O O3 0.180478 0.788020 0.438768
O O4 0.968708 0.596297 0.631165
O O5 0.249184 0.514477 0.569743
O O6 0.500000 0.500000 0.427005
O O7 0.762264 0.439463 0.351453
O O8 0.000000 0.500000 0.430520
O O9 0.737595 0.700646 0.271972
O O10 0.271099 0.646111 0.263652
O O11 0.505964 0.734932 0.194252
O O12 0.500000 0.500000 0.277975
O O13 0.000000 0.500000 0.274098
O O14 0.433507 0.270668 0.015808
O O15 0.565858 0.100359 0.013596
O O16 0.224002 0.750587 0.613931
#
# Coordination Sequence:
#
# PCOD9366588 Si02
#       8
#     8   4   8   8   8   8   8   4
#     4  10  21  40  63  89 120 162 212 260 316 372
#     4  12  26  42  66 102 131 172 215 248 328 396
#     4  10  21  38  57  88 122 158 206 255 321 372
#     4  10  21  40  63  89 120 162 212 260 316 372
#     4  10  21  38  57  88 122 158 206 255 321 372
#     4  10  23  43  65  96 132 167 215 268 314 375
#     4  10  23  43  65  96 132 167 215 268 314 375
#     4  12  26  42  66 102 131 172 215 248 328 396
#
# _framework density 26.322334999999999
#
# number of rings (size 3 to 8) (size 9 to 14) (size 15 to 20)
#    0.000    1.714    0.000    3.429    2.000    3.429 
#    2.571   17.143    0.000    0.000    0.000    0.000 
#    0.000    0.000    0.000    0.000    0.000    0.000 
#
# Total GULP energy -156324.373701 kJ/mol
# GULP energy per Si atom -5583.013346 kJ/mol
# Density = 2.626242 g / cm^3
# Si number density = 26.322335 Si / 1000 Ang^3
#
#
#
# Elastic Constant Matrix: (Units=GPa)
#
#
# Indices 1 2 3 4 5 6 
#
# 1 272.9114 46.8344 30.3661 0.0000 0.0000 0.0000
# 2 46.8344 102.8317 -15.2777 0.0000 0.0000 0.0000
# 3 30.3661 -15.2777 42.4739 0.0000 0.0000 0.0000
# 4 0.0000 0.0000 0.0000 21.5046 0.0000 0.0000
# 5 0.0000 0.0000 0.0000 0.0000 24.5899 0.0000
# 6 0.0000 0.0000 0.0000 0.0000 0.0000 50.3226
#
#
#
# Elastic Compliance Matrix: (Units=1/GPa)
#
#
# Indices 1 2 3 4 5 6 
#
# 1 0.004610 -0.002735 -0.004280 0.000000 0.000000 0.000000
# 2 -0.002735 0.011897 0.006235 0.000000 0.000000 0.000000
# 3 -0.004280 0.006235 0.028846 0.000000 0.000000 0.000000
# 4 0.000000 0.000000 0.000000 0.046502 0.000000 0.000000
# 5 0.000000 0.000000 0.000000 0.000000 0.040667 0.000000
# 6 0.000000 0.000000 0.000000 0.000000 0.000000 0.019872
#
#
# Mechanical properties :
#
#
# Convention : Reuss Voigt Hill
#
# Bulk Modulus (GPa) = 22.83502 60.22917 41.53210
# Shear Modulus (GPa) = 29.66462 43.03636 36.35049
#
# Velocity S-wave (km/s) = 3.36069 4.04787 3.72018
# Velocity P-wave (km/s) = 4.87370 6.69164 5.85367
#
# Compressibility (1/GPa) = 0.04379239
#
# Stress axis : x y z
#
# Youngs Moduli (GPa) = 216.93004 84.05677 34.66669
#
# Poissons Ratio (x) = 0.22992 0.14836
# Poissons Ratio (y) = 0.59337 -0.21614
# Poissons Ratio (z) = 0.92837 -0.52408
#
# Static dielectric constant tensor:
#      x y z
#    x 1.403750 0.000000 0.000000 
#    y 0.000000 2.294100 0.000000 
#    z 0.000000 0.000000 2.116600 
# 
# From -- ./inp_files/12646.got.cif
#   From: 2010.05.17/outbox.cif.g08.bks.cpg/sg41_7_cif.got.tgz:12646.got - 2010.06.03 18:54:24.
