data_PCOD9366502
_publ_section_title
;
Structure prediction by ZEFSAII (Michael W. Deem and Ramdas Pophale) SiO2 
 PCOD9366502
Probable space group: A B A 2
;
_chemical_formula_sum "Si O2"
_cell_formula_units_Z 40
_cell_length_a 11.172310
_cell_length_b 8.300503
_cell_length_c 17.131417
_cell_angle_alpha 90.000000
_cell_angle_beta 90.000000
_cell_angle_gamma 90.000000
_cell_volume 1588.695535
_symmetry_space_group_name_H-M "A B A 2"
_symmetry_group_IT_number 41
_symmetry_cell_setting 'orthorhombic'
loop_
_space_group_symop_operation_xyz
x,y,z
-x,-y,z
1/2-x,y,1/2+z
1/2+x,-y,1/2+z
x,1/2+y,1/2+z
-x,1/2-y,1/2+z
1/2-x,1/2+y,z
1/2+x,1/2-y,z
loop_
_atom_site_type_symbol
_atom_site_label
_atom_site_fract_x
_atom_site_fract_y
_atom_site_fract_z
Si Si1 0.413717 0.156623 0.501860
Si Si2 0.000000 0.000000 0.516498
Si Si3 0.136163 0.981619 0.251453
Si Si4 0.000000 0.000000 0.755918
Si Si5 0.160597 0.864032 0.635647
Si Si6 0.298904 0.681306 0.846133
O O1 0.488630 0.321600 0.479291
O O2 0.354518 0.202832 0.584938
O O3 0.308640 0.147970 0.437462
O O4 0.500000 0.000000 0.502892
O O5 0.882529 0.002724 0.572385
O O6 0.183336 0.142713 0.294359
O O7 0.219931 0.912440 0.181558
O O8 0.154825 0.855812 0.322230
O O9 0.000000 0.000000 0.228079
O O10 0.895006 0.938889 0.808917
O O11 0.053461 0.867466 0.698224
#
# Coordination Sequence:
#
# PCOD9366502 Si02
#       6
#     8   4   8   4   8   8
#     4  10  20  43  85 128 167 208 267 346 423 493
#     4   7  18  40  80 120 167 200 266 347 408 482
#     4  11  27  48  79 113 165 223 272 341 415 488
#     4   9  18  44  78 108 165 198 256 349 388 492
#     4   8  19  44  74 116 157 207 273 332 405 496
#     4  11  25  46  80 119 158 214 283 329 419 505
#
# _framework density 25.177887999999999
#
# number of rings (size 3 to 8) (size 9 to 14) (size 15 to 20)
#    1.200    1.200    1.000    0.000    7.000    0.000 
#    3.600    4.000    0.000    2.400    0.000    0.000 
#    0.000    0.000    0.000    0.000    0.000    0.000 
#
# Total GULP energy -111590.076274 kJ/mol
# GULP energy per Si atom -5579.503814 kJ/mol
# Density = 2.512058 g / cm^3
# Si number density = 25.177888 Si / 1000 Ang^3
#
#
#
# Elastic Constant Matrix: (Units=GPa)
#
#
# Indices 1 2 3 4 5 6 
#
# 1 138.4538 36.9635 66.7779 0.0000 0.0000 0.0000
# 2 36.9635 136.8941 49.3782 0.0000 0.0000 0.0000
# 3 66.7779 49.3782 148.7206 0.0000 0.0000 0.0000
# 4 0.0000 0.0000 0.0000 10.0290 0.0000 0.0000
# 5 0.0000 0.0000 0.0000 0.0000 -7.9954 0.0000
# 6 0.0000 0.0000 0.0000 0.0000 0.0000 -11.6692
#
#
#
# Elastic Compliance Matrix: (Units=1/GPa)
#
#
# Indices 1 2 3 4 5 6 
#
# 1 0.009376 -0.001151 -0.003828 0.000000 0.000000 0.000000
# 2 -0.001151 0.008440 -0.002285 0.000000 0.000000 0.000000
# 3 -0.003828 -0.002285 0.009202 0.000000 0.000000 0.000000
# 4 0.000000 0.000000 0.000000 0.099711 0.000000 0.000000
# 5 0.000000 0.000000 0.000000 0.000000 -0.125071 0.000000
# 6 0.000000 0.000000 0.000000 0.000000 0.000000 -0.085696
#
#
# Mechanical properties :
#
#
# Convention : Reuss Voigt Hill
#
# Bulk Modulus (GPa) = 80.06930 81.14529 80.60730
# Shear Modulus (GPa) = -76.51534 16.13613 -30.18961
#
# Velocity S-wave (km/s) = -5.51868 2.53432 -3.46649
# Velocity P-wave (km/s) = 2.95590 6.39237 4.00781
#
# Compressibility (1/GPa) = 0.01248918
#
# Stress axis : x y z
#
# Youngs Moduli (GPa) = 106.65370 118.48235 108.67652
#
# Poissons Ratio (x) = 0.13637 0.41600
# Poissons Ratio (y) = 0.12276 0.24838
# Poissons Ratio (z) = 0.40826 0.27079
#
# Static dielectric constant tensor:
#      x y z
#    x 2.013030 0.000000 0.000000 
#    y 0.000000 2.211920 0.000000 
#    z 0.000000 0.000000 1.976370 
# 
# From -- ./inp_files/9917.got.cif
#   From: 2010.05.17/outbox.cif.g08.bks.cpg/sg41_5_cif.got.tgz:9917.got - 2010.06.03 18:54:24.
