data_PCOD9366087
_publ_section_title
;
Structure prediction by ZEFSAII (Michael W. Deem and Ramdas Pophale) SiO2 
 PCOD9366087
Probable space group: A B A 2
;
_chemical_formula_sum "Si O2"
_cell_formula_units_Z 48
_cell_length_a 15.241697
_cell_length_b 9.993643
_cell_length_c 17.510813
_cell_angle_alpha 90.000000
_cell_angle_beta 90.000000
_cell_angle_gamma 90.000000
_cell_volume 2667.248411
_symmetry_space_group_name_H-M "A B A 2"
_symmetry_group_IT_number 41
_symmetry_cell_setting 'orthorhombic'
loop_
_space_group_symop_operation_xyz
x,y,z
-x,-y,z
1/2-x,y,1/2+z
1/2+x,-y,1/2+z
x,1/2+y,1/2+z
-x,1/2-y,1/2+z
1/2-x,1/2+y,z
1/2+x,1/2-y,z
loop_
_atom_site_type_symbol
_atom_site_label
_atom_site_fract_x
_atom_site_fract_y
_atom_site_fract_z
Si Si1 0.096886 0.357470 0.755720
Si Si2 0.583841 0.097992 0.933810
Si Si3 0.254887 0.491648 0.539295
Si Si4 0.420633 0.649169 0.182886
Si Si5 0.766002 0.260647 0.147140
Si Si6 0.431749 0.611101 0.005000
O O1 0.107025 0.384107 0.844828
O O2 0.102286 0.501305 0.713496
O O3 0.168019 0.264748 0.715887
O O4 0.000084 0.302472 0.735407
O O5 0.500000 0.000000 0.940731
O O6 0.562126 0.245863 0.965031
O O7 0.666300 0.040633 0.981561
O O8 0.282673 0.601482 0.602325
O O9 0.228908 0.357331 0.584708
O O10 0.167359 0.553298 0.500951
O O11 0.332673 0.734835 0.179869
O O12 0.450531 0.636166 0.095042
O O13 0.500000 0.500000 0.976610
#
# Coordination Sequence:
#
# PCOD9366087 Si02
#       6
#     8   8   8   8   8   8
#     4  11  22  44  65  92 131 173 208 270 332 378
#     4  12  27  41  65 102 133 168 221 272 332 384
#     4  11  23  41  64 102 126 170 220 269 320 390
#     4  10  19  40  66  90 120 172 216 248 319 390
#     4  11  21  41  71  94 123 169 228 261 318 392
#     4  11  22  43  69  92 131 178 218 265 323 392
#
# _framework density 17.996074
#
# number of rings (size 3 to 8) (size 9 to 14) (size 15 to 20)
#    0.000    1.000   10.000    0.000    4.667    1.333 
#    3.000    0.000    0.000    0.000    0.000    0.000 
#    0.000    0.000    0.000    0.000    0.000    0.000 
#
# Total GULP energy -133963.784481 kJ/mol
# GULP energy per Si atom -5581.824353 kJ/mol
# Density = 1.795511 g / cm^3
# Si number density = 17.996074 Si / 1000 Ang^3
#
#
#
# Elastic Constant Matrix: (Units=GPa)
#
#
# Indices 1 2 3 4 5 6 
#
# 1 118.5487 33.8319 36.2122 0.0000 0.0000 0.0000
# 2 33.8319 92.2786 29.5727 0.0000 0.0000 0.0000
# 3 36.2122 29.5727 94.9118 0.0000 0.0000 0.0000
# 4 0.0000 0.0000 0.0000 26.2066 0.0000 0.0000
# 5 0.0000 0.0000 0.0000 0.0000 23.7574 0.0000
# 6 0.0000 0.0000 0.0000 0.0000 0.0000 36.2770
#
#
#
# Elastic Compliance Matrix: (Units=1/GPa)
#
#
# Indices 1 2 3 4 5 6 
#
# 1 0.010141 -0.002753 -0.003011 0.000000 0.000000 0.000000
# 2 -0.002753 0.012786 -0.002934 0.000000 0.000000 0.000000
# 3 -0.003011 -0.002934 0.012599 0.000000 0.000000 0.000000
# 4 0.000000 0.000000 0.000000 0.038158 0.000000 0.000000
# 5 0.000000 0.000000 0.000000 0.000000 0.042092 0.000000
# 6 0.000000 0.000000 0.000000 0.000000 0.000000 0.027566
#
#
# Mechanical properties :
#
#
# Convention : Reuss Voigt Hill
#
# Bulk Modulus (GPa) = 55.15583 56.10808 55.63196
# Shear Modulus (GPa) = 29.97939 30.98969 30.48454
#
# Velocity S-wave (km/s) = 4.08595 4.15423 4.12023
# Velocity P-wave (km/s) = 7.27842 7.36586 7.32227
#
# Compressibility (1/GPa) = 0.01813045
#
# Stress axis : x y z
#
# Youngs Moduli (GPa) = 98.61131 78.20957 79.37084
#
# Poissons Ratio (x) = 0.21530 0.23901
# Poissons Ratio (y) = 0.27146 0.23284
# Poissons Ratio (z) = 0.29695 0.22944
#
# Static dielectric constant tensor:
#      x y z
#    x 1.646840 0.000000 0.000000 
#    y 0.000000 1.608230 0.000000 
#    z 0.000000 0.000000 1.594530 
# 
# From -- ./inp_files/10304.got.cif
#   From: 2010.05.17/outbox.cif.g08.bks.cpg/sg41_6_cif.got.tgz:10304.got - 2010.06.03 18:54:24.
