data_PCOD9366212
_publ_section_title
;
Structure prediction by ZEFSAII (Michael W. Deem and Ramdas Pophale) SiO2 
 PCOD9366212
Probable space group: A B A 2
;
_chemical_formula_sum "Si O2"
_cell_formula_units_Z 52
_cell_length_a 26.020100
_cell_length_b 8.554102
_cell_length_c 12.596112
_cell_angle_alpha 90.000000
_cell_angle_beta 90.000000
_cell_angle_gamma 90.000000
_cell_volume 2803.624842
_symmetry_space_group_name_H-M "A B A 2"
_symmetry_group_IT_number 41
_symmetry_cell_setting 'orthorhombic'
loop_
_space_group_symop_operation_xyz
x,y,z
-x,-y,z
1/2-x,y,1/2+z
1/2+x,-y,1/2+z
x,1/2+y,1/2+z
-x,1/2-y,1/2+z
1/2-x,1/2+y,z
1/2+x,1/2-y,z
loop_
_atom_site_type_symbol
_atom_site_label
_atom_site_fract_x
_atom_site_fract_y
_atom_site_fract_z
Si Si1 0.500000 0.000000 0.703120
Si Si2 0.688981 0.745174 0.094204
Si Si3 0.810154 0.316091 0.341084
Si Si4 0.027298 0.747715 0.871397
Si Si5 0.929918 0.255123 0.094850
Si Si6 0.234128 0.968837 0.467321
Si Si7 0.925820 0.919660 0.817080
O O1 0.469356 0.116861 0.780996
O O2 0.537219 0.106009 0.632716
O O3 0.698301 0.773921 0.218324
O O4 0.629142 0.706659 0.079225
O O5 0.726731 0.614386 0.048402
O O6 0.701222 0.902461 0.028917
O O7 0.800254 0.163315 0.412352
O O8 0.769260 0.443923 0.380369
O O9 0.868273 0.377958 0.351119
O O10 0.968405 0.809680 0.873223
O O11 0.059906 0.901801 0.841006
O O12 0.046137 0.687222 0.984832
O O13 0.931243 0.378867 0.191651
#
# Coordination Sequence:
#
# PCOD9366212 Si02
#       7
#     4   8   8   8   8   8   8
#     4  10  22  36  56  84 108 144 186 220 270 326
#     4  10  21  37  56  83 109 142 184 223 272 327
#     4  10  20  38  57  80 113 143 179 230 269 319
#     4  10  20  37  56  79 111 142 179 225 269 321
#     4  10  21  37  57  81 111 142 180 225 268 322
#     4  10  21  36  58  81 108 145 183 223 275 322
#     4   9  20  37  56  80 110 143 180 220 272 325
#
# _framework density 18.547418
#
# number of rings (size 3 to 8) (size 9 to 14) (size 15 to 20)
#    0.000    2.154    0.000    2.769    0.000    6.154 
#    0.000   15.385    0.000    0.000    0.000    0.000 
#    0.000    0.000    0.000    0.000    0.000    0.000 
#
# Total GULP energy -145204.413048 kJ/mol
# GULP energy per Si atom -5584.785117 kJ/mol
# Density = 1.850520 g / cm^3
# Si number density = 18.547418 Si / 1000 Ang^3
#
#
#
# Elastic Constant Matrix: (Units=GPa)
#
#
# Indices 1 2 3 4 5 6 
#
# 1 100.6570 28.1531 60.5236 0.0000 0.0000 0.0000
# 2 28.1531 53.0808 11.0247 0.0000 0.0000 0.0000
# 3 60.5236 11.0247 74.5302 0.0000 0.0000 0.0000
# 4 0.0000 0.0000 0.0000 11.3923 0.0000 0.0000
# 5 0.0000 0.0000 0.0000 0.0000 174.8599 0.0000
# 6 0.0000 0.0000 0.0000 0.0000 0.0000 15.6045
#
#
#
# Elastic Compliance Matrix: (Units=1/GPa)
#
#
# Indices 1 2 3 4 5 6 
#
# 1 0.022552 -0.008416 -0.017069 0.000000 0.000000 0.000000
# 2 -0.008416 0.022577 0.003495 0.000000 0.000000 0.000000
# 3 -0.017069 0.003495 0.026761 0.000000 0.000000 0.000000
# 4 0.000000 0.000000 0.000000 0.087778 0.000000 0.000000
# 5 0.000000 0.000000 0.000000 0.000000 0.005719 0.000000
# 6 0.000000 0.000000 0.000000 0.000000 0.000000 0.064084
#
#
# Mechanical properties :
#
#
# Convention : Reuss Voigt Hill
#
# Bulk Modulus (GPa) = 35.82908 47.51898 41.67403
# Shear Modulus (GPa) = 17.68318 48.94246 33.31282
#
# Velocity S-wave (km/s) = 3.09107 5.14247 4.24263
# Velocity P-wave (km/s) = 5.66561 7.80615 6.82038
#
# Compressibility (1/GPa) = 0.02791029
#
# Stress axis : x y z
#
# Youngs Moduli (GPa) = 44.34245 44.29279 37.36729
#
# Poissons Ratio (x) = 0.37277 0.63781
# Poissons Ratio (y) = 0.37318 -0.13059
# Poissons Ratio (z) = 0.75687 -0.15479
#
# Static dielectric constant tensor:
#      x y z
#    x 1.618500 0.000000 0.000000 
#    y 0.000000 1.619780 0.000000 
#    z 0.000000 0.000000 1.629650 
# 
# From -- ./inp_files/6538.got.cif
#   From: 2010.05.17/outbox.cif.g08.bks.cpg/sg41_4_cif.got.tgz:6538.got - 2010.06.03 18:54:24.
