data_PCOD9366933
_publ_section_title
;
Structure prediction by ZEFSAII (Michael W. Deem and Ramdas Pophale) SiO2 
 PCOD9366933
Probable space group: A B A 2
;
_chemical_formula_sum "Si O2"
_cell_formula_units_Z 64
_cell_length_a 11.026610
_cell_length_b 18.105794
_cell_length_c 14.125289
_cell_angle_alpha 90.000000
_cell_angle_beta 90.000000
_cell_angle_gamma 90.000000
_cell_volume 2820.050797
_symmetry_space_group_name_H-M "A B A 2"
_symmetry_group_IT_number 41
_symmetry_cell_setting 'orthorhombic'
loop_
_space_group_symop_operation_xyz
x,y,z
-x,-y,z
1/2-x,y,1/2+z
1/2+x,-y,1/2+z
x,1/2+y,1/2+z
-x,1/2-y,1/2+z
1/2-x,1/2+y,z
1/2+x,1/2-y,z
loop_
_atom_site_type_symbol
_atom_site_label
_atom_site_fract_x
_atom_site_fract_y
_atom_site_fract_z
Si Si1 0.096488 0.892497 0.210130
Si Si2 0.493899 0.675735 0.530135
Si Si3 0.674961 0.450895 0.241636
Si Si4 0.224120 0.063253 0.536649
Si Si5 0.356015 0.774886 0.389332
Si Si6 0.678304 0.353210 0.885780
Si Si7 0.973029 0.267959 0.241419
Si Si8 0.258117 0.394467 0.013037
O O1 0.094393 0.810563 0.253856
O O2 0.156712 0.887825 0.106245
O O3 0.956588 0.918744 0.213062
O O4 0.163702 0.961254 0.260455
O O5 0.398763 0.608419 0.515912
O O6 0.462933 0.737202 0.451525
O O7 0.467253 0.710147 0.632839
O O8 0.630656 0.647205 0.527659
O O9 0.757050 0.439463 0.149002
O O10 0.728996 0.405728 0.328293
O O11 0.336542 0.104834 0.484821
O O12 0.226275 0.979875 0.500773
O O13 0.242675 0.723153 0.411377
O O14 0.389931 0.762553 0.280061
O O15 0.327331 0.855866 0.426302
O O16 0.576877 0.331863 0.810414
#
# Coordination Sequence:
#
# PCOD9366933 Si02
#       8
#     8   8   8   8   8   8   8   8
#     4  10  23  40  72  95 130 182 223 279 336 414
#     4  11  24  45  69  99 143 181 227 287 351 417
#     4  10  21  45  67  98 134 177 233 271 343 414
#     4  10  24  46  70  95 137 183 223 285 347 408
#     4  11  25  41  66 103 132 185 227 285 344 411
#     4  11  24  41  67  96 135 176 225 284 338 409
#     4  12  24  42  67 103 137 175 231 287 349 405
#     4  11  24  46  69 100 134 180 232 281 351 425
#
# _framework density 22.694626
#
# number of rings (size 3 to 8) (size 9 to 14) (size 15 to 20)
#    0.000    1.250    3.750    1.125    3.500    4.000 
#    4.500    0.000    0.000    0.000    0.000    0.000 
#    0.000    0.000    0.000    0.000    0.000    0.000 
#
# Total GULP energy -178863.988062 kJ/mol
# GULP energy per Si atom -5589.499627 kJ/mol
# Density = 2.264297 g / cm^3
# Si number density = 22.694626 Si / 1000 Ang^3
#
#
#
# Elastic Constant Matrix: (Units=GPa)
#
#
# Indices 1 2 3 4 5 6 
#
# 1 51.3055 29.9128 1.2780 0.0000 0.0000 0.0000
# 2 29.9128 137.0699 46.9417 0.0000 0.0000 0.0000
# 3 1.2780 46.9417 82.9596 0.0000 0.0000 0.0000
# 4 0.0000 0.0000 0.0000 37.2647 0.0000 0.0000
# 5 0.0000 0.0000 0.0000 0.0000 33.6655 0.0000
# 6 0.0000 0.0000 0.0000 0.0000 0.0000 22.2010
#
#
#
# Elastic Compliance Matrix: (Units=1/GPa)
#
#
# Indices 1 2 3 4 5 6 
#
# 1 0.022949 -0.006062 0.003076 0.000000 0.000000 0.000000
# 2 -0.006062 0.010650 -0.005933 0.000000 0.000000 0.000000
# 3 0.003076 -0.005933 0.015364 0.000000 0.000000 0.000000
# 4 0.000000 0.000000 0.000000 0.026835 0.000000 0.000000
# 5 0.000000 0.000000 0.000000 0.000000 0.029704 0.000000
# 6 0.000000 0.000000 0.000000 0.000000 0.000000 0.045043
#
#
# Mechanical properties :
#
#
# Convention : Reuss Voigt Hill
#
# Bulk Modulus (GPa) = 32.12727 47.51113 39.81920
# Shear Modulus (GPa) = 27.97103 31.50640 29.73871
#
# Velocity S-wave (km/s) = 3.51450 3.73000 3.62385
# Velocity P-wave (km/s) = 5.53679 6.28736 5.92398
#
# Compressibility (1/GPa) = 0.03112620
#
# Stress axis : x y z
#
# Youngs Moduli (GPa) = 43.57561 93.89498 65.08837
#
# Poissons Ratio (x) = 0.56916 -0.20024
# Poissons Ratio (y) = 0.26414 0.38616
# Poissons Ratio (z) = -0.13406 0.55707
#
# Static dielectric constant tensor:
#      x y z
#    x 1.891910 0.000000 0.000000 
#    y 0.000000 1.824200 0.000000 
#    z 0.000000 0.000000 1.810160 
# 
# From -- ./inp_files/8108.got.cif
#   From: 2010.05.17/outbox.cif.g08.bks.cpg/sg41_5_cif.got.tgz:8108.got - 2010.06.03 18:54:24.
