data_PCOD9366865
_publ_section_title
;
Structure prediction by ZEFSAII (Michael W. Deem and Ramdas Pophale) SiO2 
 PCOD9366865
Probable space group: A B A 2
;
_chemical_formula_sum "Si O2"
_cell_formula_units_Z 36
_cell_length_a 4.899277
_cell_length_b 12.872351
_cell_length_c 23.110524
_cell_angle_alpha 90.000000
_cell_angle_beta 90.000000
_cell_angle_gamma 90.000000
_cell_volume 1457.470123
_symmetry_space_group_name_H-M "A B A 2"
_symmetry_group_IT_number 41
_symmetry_cell_setting 'orthorhombic'
loop_
_space_group_symop_operation_xyz
x,y,z
-x,-y,z
1/2-x,y,1/2+z
1/2+x,-y,1/2+z
x,1/2+y,1/2+z
-x,1/2-y,1/2+z
1/2-x,1/2+y,z
1/2+x,1/2-y,z
loop_
_atom_site_type_symbol
_atom_site_label
_atom_site_fract_x
_atom_site_fract_y
_atom_site_fract_z
Si Si1 0.752449 0.681582 0.367570
Si Si2 0.598528 0.816179 0.158445
Si Si3 0.418427 0.178460 0.023220
Si Si4 0.729183 0.066819 0.255548
Si Si5 0.000000 0.000000 0.441364
O O1 0.551088 0.777018 0.381193
O O2 0.702580 0.658807 0.299573
O O3 0.673490 0.577272 0.401338
O O4 0.914506 0.788025 0.167636
O O5 0.582822 0.848236 0.091484
O O6 0.449046 0.893573 0.201483
O O7 0.216693 0.274537 0.012239
O O8 0.348520 0.079804 0.984524
O O9 0.500000 0.000000 0.289593
O O10 0.000000 0.000000 0.243110
#
# Coordination Sequence:
#
# PCOD9366865 Si02
#       5
#     8   8   8   8   4
#     4  12  27  46  71 102 141 185 234 292 354 419
#     4  10  21  42  67  96 138 180 225 284 352 416
#     4  10  24  45  68 102 137 179 231 284 348 415
#     4  12  24  42  69 104 141 182 238 289 354 425
#     4  12  26  46  74 102 138 188 236 294 346 422
#
# _framework density 24.700332
#
# number of rings (size 3 to 8) (size 9 to 14) (size 15 to 20)
#    0.000    0.889    1.111    5.333    1.556    2.667 
#    0.000    0.000    0.000    0.000    0.000    0.000 
#    0.000    0.000    0.000    0.000    0.000    0.000 
#
# Total GULP energy -100773.951583 kJ/mol
# GULP energy per Si atom -5598.552866 kJ/mol
# Density = 2.464411 g / cm^3
# Si number density = 24.700332 Si / 1000 Ang^3
#
#
#
# Elastic Constant Matrix: (Units=GPa)
#
#
# Indices 1 2 3 4 5 6 
#
# 1 82.5795 0.4413 5.1129 0.0000 0.0000 0.0000
# 2 0.4413 101.5387 51.9434 0.0000 0.0000 0.0000
# 3 5.1129 51.9434 128.3641 0.0000 0.0000 0.0000
# 4 0.0000 0.0000 0.0000 28.8668 0.0000 0.0000
# 5 0.0000 0.0000 0.0000 0.0000 24.8480 0.0000
# 6 0.0000 0.0000 0.0000 0.0000 0.0000 27.9819
#
#
#
# Elastic Compliance Matrix: (Units=1/GPa)
#
#
# Indices 1 2 3 4 5 6 
#
# 1 0.012144 0.000245 -0.000583 0.000000 0.000000 0.000000
# 2 0.000245 0.012424 -0.005037 0.000000 0.000000 0.000000
# 3 -0.000583 -0.005037 0.009852 0.000000 0.000000 0.000000
# 4 0.000000 0.000000 0.000000 0.034642 0.000000 0.000000
# 5 0.000000 0.000000 0.000000 0.000000 0.040245 0.000000
# 6 0.000000 0.000000 0.000000 0.000000 0.000000 0.035737
#
#
# Mechanical properties :
#
#
# Convention : Reuss Voigt Hill
#
# Bulk Modulus (GPa) = 42.24625 47.49752 44.87189
# Shear Modulus (GPa) = 30.54652 33.33831 31.94242
#
# Velocity S-wave (km/s) = 3.52047 3.67783 3.60001
# Velocity P-wave (km/s) = 5.80220 6.10790 5.95701
#
# Compressibility (1/GPa) = 0.02367074
#
# Stress axis : x y z
#
# Youngs Moduli (GPa) = 82.34294 80.48724 101.50256
#
# Poissons Ratio (x) = -0.01976 0.05918
# Poissons Ratio (y) = -0.02021 0.51131
# Poissons Ratio (z) = 0.04801 0.40544
#
# Static dielectric constant tensor:
#      x y z
#    x 1.888080 0.000000 0.000000 
#    y 0.000000 1.989930 0.000000 
#    z 0.000000 0.000000 1.982130 
# 
# From -- ./inp_files/11799.got.cif
#   From: 2010.05.17/outbox.cif.g08.bks.cpg/sg41_6_cif.got.tgz:11799.got - 2010.06.03 18:54:24.
