data_PCOD9366372
_publ_section_title
;
Structure prediction by ZEFSAII (Michael W. Deem and Ramdas Pophale) SiO2 
 PCOD9366372
Probable space group: A B A 2
;
_chemical_formula_sum "Si O2"
_cell_formula_units_Z 64
_cell_length_a 13.934194
_cell_length_b 23.711630
_cell_length_c 8.149825
_cell_angle_alpha 90.000000
_cell_angle_beta 90.000000
_cell_angle_gamma 90.000000
_cell_volume 2692.722167
_symmetry_space_group_name_H-M "A B A 2"
_symmetry_group_IT_number 41
_symmetry_cell_setting 'orthorhombic'
loop_
_space_group_symop_operation_xyz
x,y,z
-x,-y,z
1/2-x,y,1/2+z
1/2+x,-y,1/2+z
x,1/2+y,1/2+z
-x,1/2-y,1/2+z
1/2-x,1/2+y,z
1/2+x,1/2-y,z
loop_
_atom_site_type_symbol
_atom_site_label
_atom_site_fract_x
_atom_site_fract_y
_atom_site_fract_z
Si Si1 0.525734 0.114687 0.828180
Si Si2 0.631772 0.821212 0.990520
Si Si3 0.696293 0.662271 0.481557
Si Si4 0.567507 0.888736 0.471484
Si Si5 0.630391 0.950474 0.980957
Si Si6 0.183122 0.215552 0.844997
Si Si7 0.315501 0.008889 0.328753
Si Si8 0.368083 0.382003 0.833366
O O1 0.485805 0.111340 0.645340
O O2 0.473472 0.168290 0.916687
O O3 0.637860 0.121864 0.855346
O O4 0.477254 0.061401 0.919998
O O5 0.663463 0.886223 0.025444
O O6 0.643946 0.787510 0.159352
O O7 0.703009 0.796809 0.853722
O O8 0.668540 0.725357 0.433605
O O9 0.664664 0.640828 0.657949
O O10 0.810328 0.656739 0.460433
O O11 0.634578 0.834964 0.446160
O O12 0.625380 0.945941 0.436556
O O13 0.482161 0.881982 0.340425
O O14 0.645757 0.985609 0.144135
O O15 0.703868 0.974212 0.845866
O O16 0.334874 0.945064 0.377324
#
# Coordination Sequence:
#
# PCOD9366372 Si02
#       8
#     8   8   8   8   8   8   8   8
#     4  10  24  41  67  94 142 169 233 283 336 417
#     4  10  20  40  65 106 130 170 223 295 331 403
#     4  12  27  48  63  99 137 194 223 283 351 418
#     4  12  23  44  69 104 131 182 234 291 345 405
#     4  10  20  39  71 100 134 169 229 286 347 408
#     4  12  23  40  74  98 143 174 233 284 341 415
#     4  12  22  43  71 103 135 181 222 295 354 414
#     4  12  28  47  68  96 146 179 235 278 356 428
#
# _framework density 23.767769000000001
#
# number of rings (size 3 to 8) (size 9 to 14) (size 15 to 20)
#    0.750    0.000    2.500    5.625    0.000    3.000 
#    0.000    5.625    0.000    0.000    0.000    0.000 
#    0.000    0.000    0.000    0.000    0.000    0.000 
#
# Total GULP energy -179032.154594 kJ/mol
# GULP energy per Si atom -5594.754831 kJ/mol
# Density = 2.371367 g / cm^3
# Si number density = 23.767769 Si / 1000 Ang^3
#
#
#
# Elastic Constant Matrix: (Units=GPa)
#
#
# Indices 1 2 3 4 5 6 
#
# 1 68.1032 27.3162 -18.7431 0.0000 0.0000 0.0000
# 2 27.3162 131.9523 11.4441 0.0000 0.0000 0.0000
# 3 -18.7431 11.4441 81.3338 0.0000 0.0000 0.0000
# 4 0.0000 0.0000 0.0000 21.1068 0.0000 0.0000
# 5 0.0000 0.0000 0.0000 0.0000 42.4273 0.0000
# 6 0.0000 0.0000 0.0000 0.0000 0.0000 7.0447
#
#
#
# Elastic Compliance Matrix: (Units=1/GPa)
#
#
# Indices 1 2 3 4 5 6 
#
# 1 0.017575 -0.004039 0.004618 0.000000 0.000000 0.000000
# 2 -0.004039 0.008600 -0.002141 0.000000 0.000000 0.000000
# 3 0.004618 -0.002141 0.013661 0.000000 0.000000 0.000000
# 4 0.000000 0.000000 0.000000 0.047378 0.000000 0.000000
# 5 0.000000 0.000000 0.000000 0.000000 0.023570 0.000000
# 6 0.000000 0.000000 0.000000 0.000000 0.000000 0.141950
#
#
# Mechanical properties :
#
#
# Convention : Reuss Voigt Hill
#
# Bulk Modulus (GPa) = 27.23850 35.71373 31.47612
# Shear Modulus (GPa) = 18.65022 31.54057 25.09539
#
# Velocity S-wave (km/s) = 2.80426 3.64680 3.25292
# Velocity P-wave (km/s) = 4.68725 5.72633 5.23265
#
# Compressibility (1/GPa) = 0.03671274
#
# Stress axis : x y z
#
# Youngs Moduli (GPa) = 56.90042 116.27564 73.20370
#
# Poissons Ratio (x) = 0.46961 -0.33807
# Poissons Ratio (y) = 0.22981 0.15672
# Poissons Ratio (z) = -0.26278 0.24893
#
# Static dielectric constant tensor:
#      x y z
#    x 1.891760 0.000000 0.000000 
#    y 0.000000 2.019350 0.000000 
#    z 0.000000 0.000000 1.904250 
# 
# From -- ./inp_files/2800.got.cif
#   From: 2010.05.17/outbox.cif.g08.bks.cpg/sg41_2_cif.got.tgz:2800.got - 2010.06.03 18:54:24.
