data_PCOD9366030
_publ_section_title
;
Structure prediction by ZEFSAII (Michael W. Deem and Ramdas Pophale) SiO2 
 PCOD9366030
Probable space group: A B A 2
;
_chemical_formula_sum "Si O2"
_cell_formula_units_Z 52
_cell_length_a 17.210568
_cell_length_b 9.181630
_cell_length_c 13.868381
_cell_angle_alpha 90.000000
_cell_angle_beta 90.000000
_cell_angle_gamma 90.000000
_cell_volume 2191.496370
_symmetry_space_group_name_H-M "A B A 2"
_symmetry_group_IT_number 41
_symmetry_cell_setting 'orthorhombic'
loop_
_space_group_symop_operation_xyz
x,y,z
-x,-y,z
1/2-x,y,1/2+z
1/2+x,-y,1/2+z
x,1/2+y,1/2+z
-x,1/2-y,1/2+z
1/2-x,1/2+y,z
1/2+x,1/2-y,z
loop_
_atom_site_type_symbol
_atom_site_label
_atom_site_fract_x
_atom_site_fract_y
_atom_site_fract_z
Si Si1 0.500000 0.000000 0.545581
Si Si2 0.178796 0.711316 0.791170
Si Si3 0.668798 0.105445 0.849096
Si Si4 0.768964 0.892304 0.604928
Si Si5 0.851552 0.379155 0.441396
Si Si6 0.883314 0.518798 0.238670
Si Si7 0.413867 0.767257 0.663511
O O1 0.573159 0.956524 0.482332
O O2 0.475987 0.861924 0.609103
O O3 0.246765 0.818014 0.831467
O O4 0.166030 0.568430 0.855456
O O5 0.208324 0.651339 0.688479
O O6 0.105436 0.817567 0.774491
O O7 0.638079 0.204102 0.936802
O O8 0.617301 0.144046 0.755335
O O9 0.818018 0.023441 0.653653
O O10 0.720682 0.918001 0.509335
O O11 0.836374 0.768773 0.599624
O O12 0.846516 0.433409 0.331013
O O13 0.940077 0.393461 0.198552
#
# Coordination Sequence:
#
# PCOD9366030 Si02
#       7
#     4   8   8   8   8   8   8
#     4  12  24  40  72 106 146 206 248 310 392 458
#     4  11  17  38  66 103 136 178 228 306 371 409
#     4  10  19  37  65  98 140 180 234 288 365 441
#     4   9  20  39  71 100 138 180 244 306 354 435
#     4  11  23  42  68 105 142 190 249 302 377 448
#     4   9  21  43  67 101 141 183 239 305 367 433
#     4   8  20  41  65  96 140 188 238 297 363 435
#
# _framework density 23.728081
#
# number of rings (size 3 to 8) (size 9 to 14) (size 15 to 20)
#    0.923    1.231    3.077    0.923    2.154    2.462 
#    0.000    6.154    0.000    7.385    0.000    0.000 
#    0.000    0.000    0.000    0.000    0.000    0.000 
#
# Total GULP energy -145033.224529 kJ/mol
# GULP energy per Si atom -5578.200943 kJ/mol
# Density = 2.367408 g / cm^3
# Si number density = 23.728081 Si / 1000 Ang^3
#
#
#
# Elastic Constant Matrix: (Units=GPa)
#
#
# Indices 1 2 3 4 5 6 
#
# 1 54.2639 22.9661 29.4161 0.0000 0.0000 0.0000
# 2 22.9661 181.7659 24.6362 0.0000 0.0000 0.0000
# 3 29.4161 24.6362 82.4138 0.0000 0.0000 0.0000
# 4 0.0000 0.0000 0.0000 18.2383 0.0000 0.0000
# 5 0.0000 0.0000 0.0000 0.0000 5.7180 0.0000
# 6 0.0000 0.0000 0.0000 0.0000 0.0000 32.8845
#
#
#
# Elastic Compliance Matrix: (Units=1/GPa)
#
#
# Indices 1 2 3 4 5 6 
#
# 1 0.023467 -0.001907 -0.007806 0.000000 0.000000 0.000000
# 2 -0.001907 0.005889 -0.001080 0.000000 0.000000 0.000000
# 3 -0.007806 -0.001080 0.015243 0.000000 0.000000 0.000000
# 4 0.000000 0.000000 0.000000 0.054830 0.000000 0.000000
# 5 0.000000 0.000000 0.000000 0.000000 0.174888 0.000000
# 6 0.000000 0.000000 0.000000 0.000000 0.000000 0.030410
#
#
# Mechanical properties :
#
#
# Convention : Reuss Voigt Hill
#
# Bulk Modulus (GPa) = 43.45316 52.49781 47.97548
# Shear Modulus (GPa) = 14.97083 27.46316 21.21700
#
# Velocity S-wave (km/s) = 2.51456 3.40577 2.99352
# Velocity P-wave (km/s) = 5.17527 6.13502 5.67547
#
# Compressibility (1/GPa) = 0.02301328
#
# Stress axis : x y z
#
# Youngs Moduli (GPa) = 42.61260 169.81168 65.60433
#
# Poissons Ratio (x) = 0.32384 0.51212
# Poissons Ratio (y) = 0.08126 0.07083
# Poissons Ratio (z) = 0.33264 0.18334
#
# Static dielectric constant tensor:
#      x y z
#    x 1.959860 0.000000 0.000000 
#    y 0.000000 2.018820 0.000000 
#    z 0.000000 0.000000 1.879140 
# 
# From -- ./inp_files/8967.got.cif
#   From: 2010.05.17/outbox.cif.g08.bks.cpg/sg41_5_cif.got.tgz:8967.got - 2010.06.03 18:54:24.
