data_PCOD9366229
_publ_section_title
;
Structure prediction by ZEFSAII (Michael W. Deem and Ramdas Pophale) SiO2 
 PCOD9366229
Probable space group: A B A 2
;
_chemical_formula_sum "Si O2"
_cell_formula_units_Z 48
_cell_length_a 17.080322
_cell_length_b 9.612157
_cell_length_c 13.253564
_cell_angle_alpha 90.000000
_cell_angle_beta 90.000000
_cell_angle_gamma 90.000000
_cell_volume 2175.953394
_symmetry_space_group_name_H-M "A B A 2"
_symmetry_group_IT_number 41
_symmetry_cell_setting 'orthorhombic'
loop_
_space_group_symop_operation_xyz
x,y,z
-x,-y,z
1/2-x,y,1/2+z
1/2+x,-y,1/2+z
x,1/2+y,1/2+z
-x,1/2-y,1/2+z
1/2-x,1/2+y,z
1/2+x,1/2-y,z
loop_
_atom_site_type_symbol
_atom_site_label
_atom_site_fract_x
_atom_site_fract_y
_atom_site_fract_z
Si Si1 0.474218 0.836015 0.210660
Si Si2 0.971331 0.349946 0.008477
Si Si3 0.117735 0.373644 0.387830
Si Si4 0.692510 0.416232 0.620944
Si Si5 0.779317 0.691292 0.001264
Si Si6 0.876859 0.319759 0.328043
O O1 0.394348 0.826048 0.271925
O O2 0.547244 0.763845 0.267590
O O3 0.500000 0.000000 0.211479
O O4 0.468641 0.799282 0.094308
O O5 0.947685 0.221533 0.940173
O O6 0.000000 0.500000 0.966574
O O7 0.890791 0.379101 0.069463
O O8 0.200366 0.346128 0.438716
O O9 0.102238 0.537693 0.386479
O O10 0.705917 0.572818 0.584021
O O11 0.759102 0.328852 0.564167
O O12 0.682795 0.371641 0.738419
O O13 0.842157 0.716846 0.911922
#
# Coordination Sequence:
#
# PCOD9366229 Si02
#       6
#     8   8   8   8   8   8
#     4   8  17  36  59  84 113 159 198 247 310 367
#     4   9  19  37  61  88 119 160 204 257 315 373
#     4  10  20  37  62  89 123 157 213 253 311 382
#     4  10  23  38  62  89 125 165 206 257 317 379
#     4  11  22  39  60  94 124 165 209 260 313 384
#     4  10  21  39  61  88 121 168 206 257 316 380
#
# _framework density 22.059296
#
# number of rings (size 3 to 8) (size 9 to 14) (size 15 to 20)
#    0.000    2.333    1.667    1.000    4.667    0.000 
#    0.000    0.000    3.667    0.000    0.000    0.000 
#    0.000    0.000    0.000    0.000    0.000    0.000 
#
# Total GULP energy -133778.850602 kJ/mol
# GULP energy per Si atom -5574.118775 kJ/mol
# Density = 2.200909 g / cm^3
# Si number density = 22.059296 Si / 1000 Ang^3
#
#
#
# Elastic Constant Matrix: (Units=GPa)
#
#
# Indices 1 2 3 4 5 6 
#
# 1 38.8651 3.5479 32.0161 0.0000 0.0000 0.0000
# 2 3.5479 65.3742 34.4386 0.0000 0.0000 0.0000
# 3 32.0161 34.4386 106.4731 0.0000 0.0000 0.0000
# 4 0.0000 0.0000 0.0000 33.6232 0.0000 0.0000
# 5 0.0000 0.0000 0.0000 0.0000 45.8546 0.0000
# 6 0.0000 0.0000 0.0000 0.0000 0.0000 23.5038
#
#
#
# Elastic Compliance Matrix: (Units=1/GPa)
#
#
# Indices 1 2 3 4 5 6 
#
# 1 0.035232 0.004422 -0.012024 0.000000 0.000000 0.000000
# 2 0.004422 0.018993 -0.007473 0.000000 0.000000 0.000000
# 3 -0.012024 -0.007473 0.015425 0.000000 0.000000 0.000000
# 4 0.000000 0.000000 0.000000 0.029741 0.000000 0.000000
# 5 0.000000 0.000000 0.000000 0.000000 0.021808 0.000000
# 6 0.000000 0.000000 0.000000 0.000000 0.000000 0.042546
#
#
# Mechanical properties :
#
#
# Convention : Reuss Voigt Hill
#
# Bulk Modulus (GPa) = 25.31678 38.96860 32.14269
# Shear Modulus (GPa) = 24.14727 29.97699 27.06213
#
# Velocity S-wave (km/s) = 3.31214 3.69036 3.50636
# Velocity P-wave (km/s) = 5.11162 5.98850 5.56735
#
# Compressibility (1/GPa) = 0.03949950
#
# Stress axis : x y z
#
# Youngs Moduli (GPa) = 28.38349 52.65007 64.83017
#
# Poissons Ratio (x) = -0.23284 0.77955
# Poissons Ratio (y) = -0.12552 0.48448
# Poissons Ratio (z) = 0.34130 0.39346
#
# Static dielectric constant tensor:
#      x y z
#    x 1.891050 0.000000 0.000000 
#    y 0.000000 1.813340 0.000000 
#    z 0.000000 0.000000 1.897360 
# 
# From -- ./inp_files/5917.got.cif
#   From: 2010.05.17/outbox.cif.g08.bks.cpg/sg41_3_cif.got.tgz:5917.got - 2010.06.03 18:54:24.
