data_PCOD9366584
_publ_section_title
;
Structure prediction by ZEFSAII (Michael W. Deem and Ramdas Pophale) SiO2 
 PCOD9366584
Probable space group: A B A 2
;
_chemical_formula_sum "Si O2"
_cell_formula_units_Z 64
_cell_length_a 8.894203
_cell_length_b 31.017875
_cell_length_c 10.926142
_cell_angle_alpha 90.000000
_cell_angle_beta 90.000000
_cell_angle_gamma 90.000000
_cell_volume 3014.296154
_symmetry_space_group_name_H-M "A B A 2"
_symmetry_group_IT_number 41
_symmetry_cell_setting 'orthorhombic'
loop_
_space_group_symop_operation_xyz
x,y,z
-x,-y,z
1/2-x,y,1/2+z
1/2+x,-y,1/2+z
x,1/2+y,1/2+z
-x,1/2-y,1/2+z
1/2-x,1/2+y,z
1/2+x,1/2-y,z
loop_
_atom_site_type_symbol
_atom_site_label
_atom_site_fract_x
_atom_site_fract_y
_atom_site_fract_z
Si Si1 0.859718 0.901594 0.165790
Si Si2 0.022791 0.399906 0.919629
Si Si3 0.108645 0.960253 0.078610
Si Si4 0.578921 0.304903 0.170317
Si Si5 0.790841 0.738968 0.560763
Si Si6 0.506504 0.192633 0.947989
Si Si7 0.801413 0.563536 0.315445
Si Si8 0.952221 0.950354 0.649614
O O1 0.844117 0.850660 0.137629
O O2 0.718412 0.933230 0.146633
O O3 0.907323 0.905633 0.308577
O O4 0.001591 0.918399 0.087280
O O5 0.995851 0.356257 0.993844
O O6 0.188374 0.399223 0.859526
O O7 0.013159 0.438378 0.015660
O O8 0.217496 0.957341 0.196917
O O9 0.174497 0.963263 0.941022
O O10 0.000000 0.000000 0.099571
O O11 0.509780 0.310942 0.303618
O O12 0.431408 0.291589 0.093051
O O13 0.696923 0.265138 0.164922
O O14 0.662867 0.713519 0.488323
O O15 0.869620 0.777809 0.489254
O O16 0.961138 0.575371 0.257336
O O17 0.000000 0.000000 0.674346
#
# Coordination Sequence:
#
# PCOD9366584 Si02
#       8
#     8   8   8   8   8   8   8   8
#     4  10  25  42  65  98 133 175 221 288 336 405
#     4  10  24  43  65  93 135 172 226 276 334 404
#     4  11  24  45  68  96 138 177 233 278 345 402
#     4  10  21  41  62  96 132 170 218 273 334 401
#     4  10  21  37  66  93 131 169 216 265 338 402
#     4  10  21  39  63  95 129 170 217 270 328 399
#     4  11  24  45  66  97 129 180 225 280 335 409
#     4  12  25  42  68  96 130 175 226 276 340 398
#
# _framework density 21.232154000000001
#
# number of rings (size 3 to 8) (size 9 to 14) (size 15 to 20)
#    0.000    1.500    1.250    2.625    3.500    4.000 
#    0.000    1.250    0.000    0.000    0.000    0.000 
#    0.000    0.000    0.000    0.000    0.000    0.000 
#
# Total GULP energy -178381.059261 kJ/mol
# GULP energy per Si atom -5574.408102 kJ/mol
# Density = 2.118383 g / cm^3
# Si number density = 21.232154 Si / 1000 Ang^3
#
#
#
# Elastic Constant Matrix: (Units=GPa)
#
#
# Indices 1 2 3 4 5 6 
#
# 1 101.8536 33.4826 25.9263 0.0000 0.0000 0.0000
# 2 33.4826 73.8233 19.3378 0.0000 0.0000 0.0000
# 3 25.9263 19.3378 86.8035 0.0000 0.0000 0.0000
# 4 0.0000 0.0000 0.0000 23.0710 0.0000 0.0000
# 5 0.0000 0.0000 0.0000 0.0000 23.8447 0.0000
# 6 0.0000 0.0000 0.0000 0.0000 0.0000 27.9258
#
#
#
# Elastic Compliance Matrix: (Units=1/GPa)
#
#
# Indices 1 2 3 4 5 6 
#
# 1 0.012038 -0.004798 -0.002527 0.000000 0.000000 0.000000
# 2 -0.004798 0.016298 -0.002198 0.000000 0.000000 0.000000
# 3 -0.002527 -0.002198 0.012765 0.000000 0.000000 0.000000
# 4 0.000000 0.000000 0.000000 0.043344 0.000000 0.000000
# 5 0.000000 0.000000 0.000000 0.000000 0.041938 0.000000
# 6 0.000000 0.000000 0.000000 0.000000 0.000000 0.035809
#
#
# Mechanical properties :
#
#
# Convention : Reuss Voigt Hill
#
# Bulk Modulus (GPa) = 45.33978 46.66373 46.00176
# Shear Modulus (GPa) = 26.51263 27.21723 26.86493
#
# Velocity S-wave (km/s) = 3.53753 3.58423 3.56096
# Velocity P-wave (km/s) = 6.17140 6.25736 6.21453
#
# Compressibility (1/GPa) = 0.02205569
#
# Stress axis : x y z
#
# Youngs Moduli (GPa) = 83.06687 61.35815 78.34215
#
# Poissons Ratio (x) = 0.29441 0.19795
# Poissons Ratio (y) = 0.39857 0.17217
# Poissons Ratio (z) = 0.20989 0.13484
#
# Static dielectric constant tensor:
#      x y z
#    x 1.815430 0.000000 0.000000 
#    y 0.000000 1.824880 0.000000 
#    z 0.000000 0.000000 1.748190 
# 
# From -- ./inp_files/4627.got.cif
#   From: 2010.05.17/outbox.cif.g08.bks.cpg/sg41_3_cif.got.tgz:4627.got - 2010.06.03 18:54:24.
