data_PCOD9366847
_publ_section_title
;
Structure prediction by ZEFSAII (Michael W. Deem and Ramdas Pophale) SiO2 
 PCOD9366847
Probable space group: A B A 2
;
_chemical_formula_sum "Si O2"
_cell_formula_units_Z 48
_cell_length_a 15.913871
_cell_length_b 24.324680
_cell_length_c 5.344357
_cell_angle_alpha 90.000000
_cell_angle_beta 90.000000
_cell_angle_gamma 90.000000
_cell_volume 2068.799631
_symmetry_space_group_name_H-M "A B A 2"
_symmetry_group_IT_number 41
_symmetry_cell_setting 'orthorhombic'
loop_
_space_group_symop_operation_xyz
x,y,z
-x,-y,z
1/2-x,y,1/2+z
1/2+x,-y,1/2+z
x,1/2+y,1/2+z
-x,1/2-y,1/2+z
1/2-x,1/2+y,z
1/2+x,1/2-y,z
loop_
_atom_site_type_symbol
_atom_site_label
_atom_site_fract_x
_atom_site_fract_y
_atom_site_fract_z
Si Si1 0.806549 0.678362 0.395180
Si Si2 0.268130 0.618230 0.401093
Si Si3 0.443341 0.920511 0.404221
Si Si4 0.951228 0.765392 0.363083
Si Si5 0.201021 0.500829 0.401660
Si Si6 0.454843 0.103872 0.905429
O O1 0.750967 0.675732 0.647014
O O2 0.873043 0.627909 0.396630
O O3 0.864053 0.732949 0.387365
O O4 0.249631 0.651047 0.650869
O O5 0.203830 0.566992 0.400931
O O6 0.357476 0.587990 0.400972
O O7 0.391465 0.976741 0.405139
O O8 0.498458 0.914989 0.154861
O O9 0.496362 0.913969 0.657313
O O10 0.946499 0.830148 0.406270
O O11 0.011245 0.743628 0.585947
O O12 0.249288 0.482116 0.150467
#
# Coordination Sequence:
#
# PCOD9366847 Si02
#       6
#     8   8   8   8   8   8
#     4  12  24  39  65  99 129 174 222 264 327 396
#     4  10  23  44  66  93 132 173 220 281 328 400
#     4  12  23  41  67 100 132 175 219 279 337 393
#     4  12  23  44  64  94 141 174 215 278 331 384
#     4  10  21  42  64  91 132 171 213 277 339 377
#     4  12  24  42  70  97 131 182 223 269 341 402
#
# _framework density 23.201861999999998
#
# number of rings (size 3 to 8) (size 9 to 14) (size 15 to 20)
#    0.000    0.667    3.333    5.000    0.000    1.333 
#    0.000   20.000    0.000    0.000    0.000    0.000 
#    0.000    0.000    0.000    0.000    0.000    0.000 
#
# Total GULP energy -134438.329636 kJ/mol
# GULP energy per Si atom -5601.597068 kJ/mol
# Density = 2.314905 g / cm^3
# Si number density = 23.201862 Si / 1000 Ang^3
#
#
#
# Elastic Constant Matrix: (Units=GPa)
#
#
# Indices 1 2 3 4 5 6 
#
# 1 96.4255 -0.7029 72.4617 0.0000 0.0000 0.0000
# 2 -0.7029 60.1668 -9.9935 0.0000 0.0000 0.0000
# 3 72.4617 -9.9935 229.0157 0.0000 0.0000 0.0000
# 4 0.0000 0.0000 0.0000 12.6547 0.0000 0.0000
# 5 0.0000 0.0000 0.0000 0.0000 56.4356 0.0000
# 6 0.0000 0.0000 0.0000 0.0000 0.0000 49.6187
#
#
#
# Elastic Compliance Matrix: (Units=1/GPa)
#
#
# Indices 1 2 3 4 5 6 
#
# 1 0.013625 -0.000561 -0.004335 0.000000 0.000000 0.000000
# 2 -0.000561 0.016765 0.000909 0.000000 0.000000 0.000000
# 3 -0.004335 0.000909 0.005778 0.000000 0.000000 0.000000
# 4 0.000000 0.000000 0.000000 0.079022 0.000000 0.000000
# 5 0.000000 0.000000 0.000000 0.000000 0.017719 0.000000
# 6 0.000000 0.000000 0.000000 0.000000 0.000000 0.020154
#
#
# Mechanical properties :
#
#
# Convention : Reuss Voigt Hill
#
# Bulk Modulus (GPa) = 35.46995 56.57096 46.02046
# Shear Modulus (GPa) = 29.33678 45.33129 37.33403
#
# Velocity S-wave (km/s) = 3.55972 4.42495 4.01571
# Velocity P-wave (km/s) = 5.67593 7.10929 6.43266
#
# Compressibility (1/GPa) = 0.02819288
#
# Stress axis : x y z
#
# Youngs Moduli (GPa) = 73.39697 59.64846 173.07304
#
# Poissons Ratio (x) = 0.03346 0.75033
# Poissons Ratio (y) = 0.04117 -0.15733
# Poissons Ratio (z) = 0.31820 -0.05422
#
# Static dielectric constant tensor:
#      x y z
#    x 2.171660 0.000000 0.000000 
#    y 0.000000 1.874840 0.000000 
#    z 0.000000 0.000000 1.926200 
# 
# From -- ./inp_files/300.got.cif
#   From: 2010.05.17/outbox.cif.g08.bks.cpg/sg41_1_cif.got.tgz:300.got - 2010.06.03 18:54:24.
