data_PCOD9366881
_publ_section_title
;
Structure prediction by ZEFSAII (Michael W. Deem and Ramdas Pophale) SiO2 
 PCOD9366881
Probable space group: A B A 2
;
_chemical_formula_sum "Si O2"
_cell_formula_units_Z 44
_cell_length_a 11.985976
_cell_length_b 14.600947
_cell_length_c 13.785109
_cell_angle_alpha 90.000000
_cell_angle_beta 90.000000
_cell_angle_gamma 90.000000
_cell_volume 2412.485061
_symmetry_space_group_name_H-M "A B A 2"
_symmetry_group_IT_number 41
_symmetry_cell_setting 'orthorhombic'
loop_
_space_group_symop_operation_xyz
x,y,z
-x,-y,z
1/2-x,y,1/2+z
1/2+x,-y,1/2+z
x,1/2+y,1/2+z
-x,1/2-y,1/2+z
1/2-x,1/2+y,z
1/2+x,1/2-y,z
loop_
_atom_site_type_symbol
_atom_site_label
_atom_site_fract_x
_atom_site_fract_y
_atom_site_fract_z
Si Si1 0.820764 0.246814 0.529020
Si Si2 0.254748 0.400537 0.383590
Si Si3 0.018174 0.311751 0.868157
Si Si4 0.000000 0.000000 0.609377
Si Si5 0.318895 0.081648 0.965705
Si Si6 0.915729 0.673360 0.224758
O O1 0.748627 0.165189 0.478595
O O2 0.757111 0.341694 0.515231
O O3 0.850230 0.224914 0.638970
O O4 0.933384 0.241597 0.462973
O O5 0.381245 0.381892 0.346538
O O6 0.245875 0.506576 0.409729
O O7 0.168569 0.365928 0.304708
O O8 0.996651 0.242674 0.780868
O O9 0.906221 0.365062 0.896756
O O10 0.023402 0.911254 0.673492
O O11 0.895149 0.975856 0.540800
#
# Coordination Sequence:
#
# PCOD9366881 Si02
#       6
#     8   8   8   4   8   8
#     4  10  24  40  63  98 127 168 215 274 312 382
#     4  10  23  40  62  99 123 164 219 265 317 385
#     4  10  21  43  61  92 127 172 205 268 322 381
#     4  12  24  40  70  90 132 178 216 250 346 388
#     4  12  20  45  67  86 136 171 207 271 324 378
#     4  12  24  40  66  98 126 174 216 265 328 389
#
# _framework density 18.238454000000001
#
# number of rings (size 3 to 8) (size 9 to 14) (size 15 to 20)
#    1.091    0.000    7.273    0.000    5.091    1.455 
#    0.000    0.000    0.000    0.000    0.000    0.000 
#    0.000    0.000    0.000    0.000    0.000    0.000 
#
# Total GULP energy -122697.876777 kJ/mol
# GULP energy per Si atom -5577.176217 kJ/mol
# Density = 1.819694 g / cm^3
# Si number density = 18.238454 Si / 1000 Ang^3
#
#
#
# Elastic Constant Matrix: (Units=GPa)
#
#
# Indices 1 2 3 4 5 6 
#
# 1 14.4094 7.9544 -1.9634 0.0000 0.0000 0.0000
# 2 7.9544 95.6160 13.4059 0.0000 0.0000 0.0000
# 3 -1.9634 13.4059 44.5843 0.0000 0.0000 0.0000
# 4 0.0000 0.0000 0.0000 40.7294 0.0000 0.0000
# 5 0.0000 0.0000 0.0000 0.0000 13.4719 0.0000
# 6 0.0000 0.0000 0.0000 0.0000 0.0000 40.2904
#
#
#
# Elastic Compliance Matrix: (Units=1/GPa)
#
#
# Indices 1 2 3 4 5 6 
#
# 1 0.073933 -0.006898 0.005330 0.000000 0.000000 0.000000
# 2 -0.006898 0.011562 -0.003780 0.000000 0.000000 0.000000
# 3 0.005330 -0.003780 0.023801 0.000000 0.000000 0.000000
# 4 0.000000 0.000000 0.000000 0.024552 0.000000 0.000000
# 5 0.000000 0.000000 0.000000 0.000000 0.074228 0.000000
# 6 0.000000 0.000000 0.000000 0.000000 0.000000 0.024820
#
#
# Mechanical properties :
#
#
# Convention : Reuss Voigt Hill
#
# Bulk Modulus (GPa) = 10.14203 21.48928 15.81566
# Shear Modulus (GPa) = 18.08580 27.91253 22.99916
#
# Velocity S-wave (km/s) = 3.15243 3.91630 3.55495
# Velocity P-wave (km/s) = 4.33858 5.67960 5.05377
#
# Compressibility (1/GPa) = 0.09859957
#
# Stress axis : x y z
#
# Youngs Moduli (GPa) = 13.52575 86.48740 42.01526
#
# Poissons Ratio (x) = 0.59658 -0.22394
# Poissons Ratio (y) = 0.09330 0.15884
# Poissons Ratio (z) = -0.07209 0.32696
#
# Static dielectric constant tensor:
#      x y z
#    x 1.621260 0.000000 0.000000 
#    y 0.000000 1.620460 0.000000 
#    z 0.000000 0.000000 1.616030 
# 
# From -- ./inp_files/7821.got.cif
#   From: 2010.05.17/outbox.cif.g08.bks.cpg/sg41_4_cif.got.tgz:7821.got - 2010.06.03 18:54:24.
