data_PCOD9366070
_publ_section_title
;
Structure prediction by ZEFSAII (Michael W. Deem and Ramdas Pophale) SiO2 
 PCOD9366070
Probable space group: A B A 2
;
_chemical_formula_sum "Si O2"
_cell_formula_units_Z 36
_cell_length_a 17.010884
_cell_length_b 10.124769
_cell_length_c 9.346828
_cell_angle_alpha 90.000000
_cell_angle_beta 90.000000
_cell_angle_gamma 90.000000
_cell_volume 1609.816066
_symmetry_space_group_name_H-M "A B A 2"
_symmetry_group_IT_number 41
_symmetry_cell_setting 'orthorhombic'
loop_
_space_group_symop_operation_xyz
x,y,z
-x,-y,z
1/2-x,y,1/2+z
1/2+x,-y,1/2+z
x,1/2+y,1/2+z
-x,1/2-y,1/2+z
1/2-x,1/2+y,z
1/2+x,1/2-y,z
loop_
_atom_site_type_symbol
_atom_site_label
_atom_site_fract_x
_atom_site_fract_y
_atom_site_fract_z
Si Si1 0.820694 0.461499 0.095750
Si Si2 0.336085 0.046954 0.766709
Si Si3 0.446126 0.735987 0.548685
Si Si4 0.583291 0.177824 0.263763
Si Si5 0.500000 0.000000 0.833125
O O1 0.735675 0.477678 0.163534
O O2 0.881005 0.554881 0.180402
O O3 0.815315 0.494882 0.928245
O O4 0.861507 0.316654 0.102546
O O5 0.352948 0.204183 0.763462
O O6 0.421040 0.979673 0.740923
O O7 0.437525 0.849933 0.429623
O O8 0.509119 0.733922 0.674582
O O9 0.478205 0.618976 0.440801
#
# Coordination Sequence:
#
# PCOD9366070 Si02
#       5
#     8   8   8   8   4
#     4  10  21  40  58  90 133 160 205 276 307 368
#     4  10  22  38  61  89 123 166 208 253 323 371
#     4  10  19  39  66  87 123 171 208 255 323 371
#     4  10  20  39  63  89 122 174 207 260 322 376
#     4   8  16  40  58  78 126 160 190 264 298 366
#
# _framework density 22.362804000000001
#
# number of rings (size 3 to 8) (size 9 to 14) (size 15 to 20)
#    0.000    2.667    4.444    0.000    0.000    5.333 
#   16.000    0.000    0.000    0.000    0.000    0.000 
#    0.000    0.000    0.000    0.000    0.000    0.000 
#
# Total GULP energy -100417.986742 kJ/mol
# GULP energy per Si atom -5578.777041 kJ/mol
# Density = 2.231191 g / cm^3
# Si number density = 22.362804 Si / 1000 Ang^3
#
#
#
# Elastic Constant Matrix: (Units=GPa)
#
#
# Indices 1 2 3 4 5 6 
#
# 1 178.2835 3.3941 89.3733 0.0000 0.0000 0.0000
# 2 3.3941 25.6692 18.6306 0.0000 0.0000 0.0000
# 3 89.3733 18.6306 146.9114 0.0000 0.0000 0.0000
# 4 0.0000 0.0000 0.0000 29.7418 0.0000 0.0000
# 5 0.0000 0.0000 0.0000 0.0000 54.2326 0.0000
# 6 0.0000 0.0000 0.0000 0.0000 0.0000 20.3989
#
#
#
# Elastic Compliance Matrix: (Units=1/GPa)
#
#
# Indices 1 2 3 4 5 6 
#
# 1 0.008250 0.002811 -0.005375 0.000000 0.000000 0.000000
# 2 0.002811 0.043864 -0.007272 0.000000 0.000000 0.000000
# 3 -0.005375 -0.007272 0.010999 0.000000 0.000000 0.000000
# 4 0.000000 0.000000 0.000000 0.033623 0.000000 0.000000
# 5 0.000000 0.000000 0.000000 0.000000 0.018439 0.000000
# 6 0.000000 0.000000 0.000000 0.000000 0.000000 0.049022
#
#
# Mechanical properties :
#
#
# Convention : Reuss Voigt Hill
#
# Bulk Modulus (GPa) = 23.02093 63.73999 43.38046
# Shear Modulus (GPa) = 25.20777 36.83906 31.02342
#
# Velocity S-wave (km/s) = 3.36105 4.06314 3.72866
# Velocity P-wave (km/s) = 5.03774 7.11173 6.16261
#
# Compressibility (1/GPa) = 0.04343874
#
# Stress axis : x y z
#
# Youngs Moduli (GPa) = 121.20855 22.79784 90.91555
#
# Poissons Ratio (x) = -0.06408 0.48871
# Poissons Ratio (y) = -0.34067 0.66117
# Poissons Ratio (z) = 0.65155 0.16580
#
# Static dielectric constant tensor:
#      x y z
#    x 1.843270 0.000000 0.000000 
#    y 0.000000 1.941230 0.000000 
#    z 0.000000 0.000000 1.865970 
# 
# From -- ./inp_files/5346.got.cif
#   From: 2010.05.17/outbox.cif.g08.bks.cpg/sg41_3_cif.got.tgz:5346.got - 2010.06.03 18:54:24.
