data_PCOD9366666
_publ_section_title
;
Structure prediction by ZEFSAII (Michael W. Deem and Ramdas Pophale) SiO2 
 PCOD9366666
Probable space group: A B A 2
;
_chemical_formula_sum "Si O2"
_cell_formula_units_Z 44
_cell_length_a 7.652276
_cell_length_b 19.073755
_cell_length_c 11.938475
_cell_angle_alpha 90.000000
_cell_angle_beta 90.000000
_cell_angle_gamma 90.000000
_cell_volume 1742.511608
_symmetry_space_group_name_H-M "A B A 2"
_symmetry_group_IT_number 41
_symmetry_cell_setting 'orthorhombic'
loop_
_space_group_symop_operation_xyz
x,y,z
-x,-y,z
1/2-x,y,1/2+z
1/2+x,-y,1/2+z
x,1/2+y,1/2+z
-x,1/2-y,1/2+z
1/2-x,1/2+y,z
1/2+x,1/2-y,z
loop_
_atom_site_type_symbol
_atom_site_label
_atom_site_fract_x
_atom_site_fract_y
_atom_site_fract_z
Si Si1 0.921748 0.354915 0.563750
Si Si2 0.580234 0.646177 0.309175
Si Si3 0.742988 0.477405 0.638844
Si Si4 0.402771 0.380673 0.657563
Si Si5 0.075580 0.728013 0.998498
Si Si6 0.000000 0.000000 0.338288
O O1 0.863201 0.435097 0.551388
O O2 0.760259 0.310074 0.515270
O O3 0.083254 0.311618 0.514232
O O4 0.960766 0.352471 0.697058
O O5 0.777888 0.640818 0.262014
O O6 0.520007 0.710810 0.382780
O O7 0.527475 0.577782 0.384775
O O8 0.582064 0.426053 0.670583
O O9 0.704665 0.555943 0.597350
O O10 0.837339 0.491896 0.755337
O O11 0.460873 0.310358 0.595146
#
# Coordination Sequence:
#
# PCOD9366666 Si02
#       6
#     8   8   8   8   8   4
#     4  10  22  39  56  84 119 156 205 252 305 371
#     4  10  21  39  62  87 122 160 202 259 309 370
#     4   8  16  34  62  87 121 162 196 255 310 359
#     4   9  18  36  61  91 122 155 202 254 310 373
#     4  11  23  38  61  87 117 163 203 250 318 379
#     4   8  16  34  60  90 118 160 208 246 304 358
#
# _framework density 25.250909
#
# number of rings (size 3 to 8) (size 9 to 14) (size 15 to 20)
#    0.000    2.545    0.000    1.091    0.000    5.818 
#    0.000    9.091    0.000   24.000    0.000    0.000 
#    0.000    0.000    0.000    0.000    0.000    0.000 
#
# Total GULP energy -122583.639371 kJ/mol
# GULP energy per Si atom -5571.983608 kJ/mol
# Density = 2.519344 g / cm^3
# Si number density = 25.250909 Si / 1000 Ang^3
#
#
#
# Elastic Constant Matrix: (Units=GPa)
#
#
# Indices 1 2 3 4 5 6 
#
# 1 92.0856 14.2903 10.8979 0.0000 0.0000 0.0000
# 2 14.2903 112.1572 14.6257 0.0000 0.0000 0.0000
# 3 10.8979 14.6257 70.5788 0.0000 0.0000 0.0000
# 4 0.0000 0.0000 0.0000 6.4900 0.0000 0.0000
# 5 0.0000 0.0000 0.0000 0.0000 30.0903 0.0000
# 6 0.0000 0.0000 0.0000 0.0000 0.0000 44.3356
#
#
#
# Elastic Compliance Matrix: (Units=1/GPa)
#
#
# Indices 1 2 3 4 5 6 
#
# 1 0.011226 -0.001238 -0.001477 0.000000 0.000000 0.000000
# 2 -0.001238 0.009300 -0.001736 0.000000 0.000000 0.000000
# 3 -0.001477 -0.001736 0.014756 0.000000 0.000000 0.000000
# 4 0.000000 0.000000 0.000000 0.154083 0.000000 0.000000
# 5 0.000000 0.000000 0.000000 0.000000 0.033233 0.000000
# 6 0.000000 0.000000 0.000000 0.000000 0.000000 0.022555
#
#
# Mechanical properties :
#
#
# Convention : Reuss Voigt Hill
#
# Bulk Modulus (GPa) = 37.90573 39.38326 38.64450
# Shear Modulus (GPa) = 19.02227 31.85035 25.43631
#
# Velocity S-wave (km/s) = 2.74766 3.55541 3.17731
# Velocity P-wave (km/s) = 5.01103 5.69958 5.36636
#
# Compressibility (1/GPa) = 0.02638123
#
# Stress axis : x y z
#
# Youngs Moduli (GPa) = 89.07625 107.52506 67.76727
#
# Poissons Ratio (x) = 0.13309 0.10009
# Poissons Ratio (y) = 0.11026 0.11765
# Poissons Ratio (z) = 0.13156 0.18667
#
# Static dielectric constant tensor:
#      x y z
#    x 2.153300 0.000000 0.000000 
#    y 0.000000 2.039570 0.000000 
#    z 0.000000 0.000000 1.956910 
# 
# From -- ./inp_files/4473.got.cif
#   From: 2010.05.17/outbox.cif.g08.bks.cpg/sg41_3_cif.got.tgz:4473.got - 2010.06.03 18:54:24.
