data_PCOD9366177
_publ_section_title
;
Structure prediction by ZEFSAII (Michael W. Deem and Ramdas Pophale) SiO2 
 PCOD9366177
Probable space group: A B A 2
;
_chemical_formula_sum "Si O2"
_cell_formula_units_Z 44
_cell_length_a 13.768854
_cell_length_b 13.397472
_cell_length_c 12.331430
_cell_angle_alpha 90.000000
_cell_angle_beta 90.000000
_cell_angle_gamma 90.000000
_cell_volume 2274.752206
_symmetry_space_group_name_H-M "A B A 2"
_symmetry_group_IT_number 41
_symmetry_cell_setting 'orthorhombic'
loop_
_space_group_symop_operation_xyz
x,y,z
-x,-y,z
1/2-x,y,1/2+z
1/2+x,-y,1/2+z
x,1/2+y,1/2+z
-x,1/2-y,1/2+z
1/2-x,1/2+y,z
1/2+x,1/2-y,z
loop_
_atom_site_type_symbol
_atom_site_label
_atom_site_fract_x
_atom_site_fract_y
_atom_site_fract_z
Si Si1 0.500000 0.000000 0.868940
Si Si2 0.752001 0.829941 0.423056
Si Si3 0.786839 0.205799 0.613699
Si Si4 0.653157 0.491835 0.556778
Si Si5 0.619099 0.325929 0.722761
Si Si6 0.933337 0.794271 0.284322
O O1 0.475155 0.094464 0.794915
O O2 0.412576 0.978813 0.953539
O O3 0.704580 0.740592 0.489673
O O4 0.763588 0.922340 0.504542
O O5 0.691200 0.859898 0.318289
O O6 0.858372 0.791760 0.385342
O O7 0.681668 0.241149 0.658579
O O8 0.865937 0.266790 0.682561
O O9 0.807433 0.088596 0.617884
O O10 0.599411 0.416338 0.639686
O O11 0.522971 0.281077 0.776145
#
# Coordination Sequence:
#
# PCOD9366177 Si02
#       6
#     4   8   8   8   8   8
#     4  10  20  36  60  82 112 154 190 230 284 338
#     4   9  21  37  55  82 114 151 190 232 284 338
#     4  10  21  37  57  82 114 149 188 233 281 338
#     4  10  20  36  58  84 115 153 190 231 284 337
#     4  10  21  36  58  85 115 149 189 236 281 335
#     4  10  21  36  58  86 112 146 192 235 284 337
#
# _framework density 19.342766999999998
#
# number of rings (size 3 to 8) (size 9 to 14) (size 15 to 20)
#    0.000    2.182    0.000    2.182    0.000   11.636 
#    0.000    0.000    0.000   12.000    0.000    0.000 
#    0.000    0.000    0.000    0.000    0.000    0.000 
#
# Total GULP energy -122644.208357 kJ/mol
# GULP energy per Si atom -5574.736744 kJ/mol
# Density = 1.929874 g / cm^3
# Si number density = 19.342767 Si / 1000 Ang^3
#
#
#
# Elastic Constant Matrix: (Units=GPa)
#
#
# Indices 1 2 3 4 5 6 
#
# 1 68.1244 44.5234 16.3056 0.0000 0.0000 0.0000
# 2 44.5234 134.0011 52.8863 0.0000 0.0000 0.0000
# 3 16.3056 52.8863 69.0752 0.0000 0.0000 0.0000
# 4 0.0000 0.0000 0.0000 16.2842 0.0000 0.0000
# 5 0.0000 0.0000 0.0000 0.0000 12.2642 0.0000
# 6 0.0000 0.0000 0.0000 0.0000 0.0000 21.2646
#
#
#
# Elastic Compliance Matrix: (Units=1/GPa)
#
#
# Indices 1 2 3 4 5 6 
#
# 1 0.018763 -0.006429 0.000493 0.000000 0.000000 0.000000
# 2 -0.006429 0.012897 -0.008357 0.000000 0.000000 0.000000
# 3 0.000493 -0.008357 0.020759 0.000000 0.000000 0.000000
# 4 0.000000 0.000000 0.000000 0.061409 0.000000 0.000000
# 5 0.000000 0.000000 0.000000 0.000000 0.081538 0.000000
# 6 0.000000 0.000000 0.000000 0.000000 0.000000 0.047027
#
#
# Mechanical properties :
#
#
# Convention : Reuss Voigt Hill
#
# Bulk Modulus (GPa) = 41.95794 55.40348 48.68071
# Shear Modulus (GPa) = 17.92621 20.46162 19.19391
#
# Velocity S-wave (km/s) = 3.04759 3.25598 3.15350
# Velocity P-wave (km/s) = 5.84145 6.54526 6.20334
#
# Compressibility (1/GPa) = 0.02383339
#
# Stress axis : x y z
#
# Youngs Moduli (GPa) = 53.29768 77.53892 48.17246
#
# Poissons Ratio (x) = 0.49847 -0.02375
# Poissons Ratio (y) = 0.34263 0.40256
# Poissons Ratio (z) = -0.02627 0.64797
#
# Static dielectric constant tensor:
#      x y z
#    x 1.701300 0.000000 0.000000 
#    y 0.000000 1.686670 0.000000 
#    z 0.000000 0.000000 1.682590 
# 
# From -- ./inp_files/5471.got.cif
#   From: 2010.05.17/outbox.cif.g08.bks.cpg/sg41_3_cif.got.tgz:5471.got - 2010.06.03 18:54:24.
