data_PCOD9366762
_publ_section_title
;
Structure prediction by ZEFSAII (Michael W. Deem and Ramdas Pophale) SiO2 
 PCOD9366762
Probable space group: A B A 2
;
_chemical_formula_sum "Si O2"
_cell_formula_units_Z 56
_cell_length_a 20.735650
_cell_length_b 6.751766
_cell_length_c 14.342769
_cell_angle_alpha 90.000000
_cell_angle_beta 90.000000
_cell_angle_gamma 90.000000
_cell_volume 2008.020027
_symmetry_space_group_name_H-M "A B A 2"
_symmetry_group_IT_number 41
_symmetry_cell_setting 'orthorhombic'
loop_
_space_group_symop_operation_xyz
x,y,z
-x,-y,z
1/2-x,y,1/2+z
1/2+x,-y,1/2+z
x,1/2+y,1/2+z
-x,1/2-y,1/2+z
1/2-x,1/2+y,z
1/2+x,1/2-y,z
loop_
_atom_site_type_symbol
_atom_site_label
_atom_site_fract_x
_atom_site_fract_y
_atom_site_fract_z
Si Si1 0.558628 0.106988 0.914700
Si Si2 0.874999 0.183175 0.231680
Si Si3 0.735433 0.432305 0.993689
Si Si4 0.260870 0.327486 0.640527
Si Si5 0.353695 0.252087 0.922716
Si Si6 0.490121 0.765726 0.600974
Si Si7 0.895895 0.715620 0.227792
O O1 0.598954 0.225675 0.836578
O O2 0.500000 0.000000 0.859363
O O3 0.602860 0.930699 0.958105
O O4 0.520945 0.208790 0.000110
O O5 0.799529 0.204608 0.211765
O O6 0.918980 0.266901 0.146612
O O7 0.886881 0.950018 0.225836
O O8 0.667952 0.547303 0.975755
O O9 0.785567 0.368398 0.911488
O O10 0.773049 0.675485 0.019916
O O11 0.740649 0.428408 0.111157
O O12 0.330197 0.363405 0.684877
O O13 0.392519 0.331811 0.835616
O O14 0.540197 0.671314 0.673326
O O15 0.500000 0.000000 0.602466
#
# Coordination Sequence:
#
# PCOD9366762 Si02
#       7
#     8   8   8   8   8   8   8
#     4  11  24  43  75 102 142 187 244 300 362 440
#     4  10  22  43  68 102 139 182 232 295 360 428
#     4  10  23  38  64  98 138 176 227 284 356 420
#     4  11  21  40  65  97 138 179 230 287 353 423
#     4  10  23  40  65 102 137 179 234 288 358 435
#     4  10  23  46  75  98 139 193 237 291 369 432
#     4  10  21  40  67  96 135 183 224 287 354 431
#
# _framework density 27.888169000000001
#
# number of rings (size 3 to 8) (size 9 to 14) (size 15 to 20)
#    0.000    1.714    1.429    3.000    8.000    0.000 
#    0.000    0.714    6.286    0.000    0.000    0.000 
#    0.000    0.000    0.000    0.000    0.000    0.000 
#
# Total GULP energy -155991.061489 kJ/mol
# GULP energy per Si atom -5571.109339 kJ/mol
# Density = 2.782469 g / cm^3
# Si number density = 27.888169 Si / 1000 Ang^3
#
#
#
# Elastic Constant Matrix: (Units=GPa)
#
#
# Indices 1 2 3 4 5 6 
#
# 1 161.4610 17.9217 66.1104 0.0000 0.0000 0.0000
# 2 17.9217 166.5936 22.2671 0.0000 0.0000 0.0000
# 3 66.1104 22.2671 149.9162 0.0000 0.0000 0.0000
# 4 0.0000 0.0000 0.0000 24.1034 0.0000 0.0000
# 5 0.0000 0.0000 0.0000 0.0000 37.1309 0.0000
# 6 0.0000 0.0000 0.0000 0.0000 0.0000 39.6276
#
#
#
# Elastic Compliance Matrix: (Units=1/GPa)
#
#
# Indices 1 2 3 4 5 6 
#
# 1 0.007581 -0.000376 -0.003287 0.000000 0.000000 0.000000
# 2 -0.000376 0.006143 -0.000747 0.000000 0.000000 0.000000
# 3 -0.003287 -0.000747 0.008231 0.000000 0.000000 0.000000
# 4 0.000000 0.000000 0.000000 0.041488 0.000000 0.000000
# 5 0.000000 0.000000 0.000000 0.000000 0.026932 0.000000
# 6 0.000000 0.000000 0.000000 0.000000 0.000000 0.025235
#
#
# Mechanical properties :
#
#
# Convention : Reuss Voigt Hill
#
# Bulk Modulus (GPa) = 76.13250 76.72993 76.43121
# Shear Modulus (GPa) = 38.81748 44.95047 41.88398
#
# Velocity S-wave (km/s) = 3.73486 4.01909 3.87958
# Velocity P-wave (km/s) = 6.77919 7.00790 6.89449
#
# Compressibility (1/GPa) = 0.01313500
#
# Stress axis : x y z
#
# Youngs Moduli (GPa) = 131.90538 162.79005 121.49312
#
# Poissons Ratio (x) = 0.06124 0.39938
# Poissons Ratio (y) = 0.04962 0.09070
# Poissons Ratio (z) = 0.43361 0.12153
#
# Static dielectric constant tensor:
#      x y z
#    x 2.159900 0.000000 0.000000 
#    y 0.000000 2.606350 0.000000 
#    z 0.000000 0.000000 2.210310 
# 
# From -- ./inp_files/9015.got.cif
#   From: 2010.05.17/outbox.cif.g08.bks.cpg/sg41_5_cif.got.tgz:9015.got - 2010.06.03 18:54:24.
