data_PCOD9366739
_publ_section_title
;
Structure prediction by ZEFSAII (Michael W. Deem and Ramdas Pophale) SiO2 
 PCOD9366739
Probable space group: A B A 2
;
_chemical_formula_sum "Si O2"
_cell_formula_units_Z 64
_cell_length_a 8.266067
_cell_length_b 19.045839
_cell_length_c 17.120764
_cell_angle_alpha 90.000000
_cell_angle_beta 90.000000
_cell_angle_gamma 90.000000
_cell_volume 2695.393463
_symmetry_space_group_name_H-M "A B A 2"
_symmetry_group_IT_number 41
_symmetry_cell_setting 'orthorhombic'
loop_
_space_group_symop_operation_xyz
x,y,z
-x,-y,z
1/2-x,y,1/2+z
1/2+x,-y,1/2+z
x,1/2+y,1/2+z
-x,1/2-y,1/2+z
1/2-x,1/2+y,z
1/2+x,1/2-y,z
loop_
_atom_site_type_symbol
_atom_site_label
_atom_site_fract_x
_atom_site_fract_y
_atom_site_fract_z
Si Si1 0.256136 0.035487 0.023030
Si Si2 0.870136 0.679991 0.007475
Si Si3 0.389932 0.306331 0.774005
Si Si4 0.568164 0.106915 0.561167
Si Si5 0.086735 0.646910 0.720440
Si Si6 0.828027 0.279849 0.379807
Si Si7 0.561076 0.875911 0.145902
Si Si8 0.566551 0.399906 0.389018
O O1 0.381924 0.059398 0.090790
O O2 0.105465 0.090462 0.022392
O O3 0.176800 0.962529 0.047670
O O4 0.337980 0.040814 0.937649
O O5 0.882550 0.751451 0.961888
O O6 0.916904 0.620329 0.943823
O O7 0.686859 0.667618 0.032890
O O8 0.994242 0.675535 0.078666
O O9 0.432314 0.230625 0.734603
O O10 0.526934 0.319390 0.838382
O O11 0.230842 0.284935 0.823422
O O12 0.416544 0.367780 0.710255
O O13 0.524454 0.121381 0.650518
O O14 0.274636 0.640844 0.693103
O O15 0.048508 0.597766 0.795836
O O16 0.677053 0.329787 0.391764
#
# Coordination Sequence:
#
# PCOD9366739 Si02
#       8
#     8   8   8   8   8   8   8   8
#     4   9  22  44  62  87 123 165 215 267 314 369
#     4  11  24  37  61  94 122 165 211 257 320 384
#     4  11  21  39  62  90 132 162 203 260 314 387
#     4  10  23  41  64  90 127 163 218 268 312 376
#     4  10  21  41  63  90 128 171 206 262 324 380
#     4  11  22  39  60  93 132 162 205 259 317 388
#     4  10  22  38  61  89 127 162 209 257 327 375
#     4  10  21  40  65  89 128 169 210 255 328 374
#
# _framework density 23.744215000000001
#
# number of rings (size 3 to 8) (size 9 to 14) (size 15 to 20)
#    0.000    1.750    5.000    0.000    3.500    7.000 
#    0.000    5.000    0.000    4.500    0.000    0.000 
#    0.000    0.000    0.000    0.000    0.000    0.000 
#
# Total GULP energy -178570.576292 kJ/mol
# GULP energy per Si atom -5580.330509 kJ/mol
# Density = 2.369017 g / cm^3
# Si number density = 23.744215 Si / 1000 Ang^3
#
#
#
# Elastic Constant Matrix: (Units=GPa)
#
#
# Indices 1 2 3 4 5 6 
#
# 1 84.6914 4.3088 38.8659 0.0000 0.0000 0.0000
# 2 4.3088 44.5243 16.0353 0.0000 0.0000 0.0000
# 3 38.8659 16.0353 136.7564 0.0000 0.0000 0.0000
# 4 0.0000 0.0000 0.0000 2.2079 0.0000 0.0000
# 5 0.0000 0.0000 0.0000 0.0000 51.6607 0.0000
# 6 0.0000 0.0000 0.0000 0.0000 0.0000 36.8996
#
#
#
# Elastic Compliance Matrix: (Units=1/GPa)
#
#
# Indices 1 2 3 4 5 6 
#
# 1 0.013579 0.000079 -0.003868 0.000000 0.000000 0.000000
# 2 0.000079 0.023450 -0.002772 0.000000 0.000000 0.000000
# 3 -0.003868 -0.002772 0.008737 0.000000 0.000000 0.000000
# 4 0.000000 0.000000 0.000000 0.452917 0.000000 0.000000
# 5 0.000000 0.000000 0.000000 0.000000 0.019357 0.000000
# 6 0.000000 0.000000 0.000000 0.000000 0.000000 0.027101
#
#
# Mechanical properties :
#
#
# Convention : Reuss Voigt Hill
#
# Bulk Modulus (GPa) = 30.63434 42.71023 36.67228
# Shear Modulus (GPa) = 8.78511 31.93777 20.36144
#
# Velocity S-wave (km/s) = 1.92560 3.67151 2.93154
# Velocity P-wave (km/s) = 4.22773 6.00000 5.19007
#
# Compressibility (1/GPa) = 0.03264311
#
# Stress axis : x y z
#
# Youngs Moduli (GPa) = 73.64428 42.64321 114.45979
#
# Poissons Ratio (x) = -0.00337 0.44277
# Poissons Ratio (y) = -0.00583 0.31730
# Poissons Ratio (z) = 0.28488 0.11821
#
# Static dielectric constant tensor:
#      x y z
#    x 1.915380 0.000000 0.000000 
#    y 0.000000 1.962440 0.000000 
#    z 0.000000 0.000000 1.942530 
# 
# From -- ./inp_files/9841.got.cif
#   From: 2010.05.17/outbox.cif.g08.bks.cpg/sg41_5_cif.got.tgz:9841.got - 2010.06.03 18:54:24.
