data_PCOD9366796
_publ_section_title
;
Structure prediction by ZEFSAII (Michael W. Deem and Ramdas Pophale) SiO2 
 PCOD9366796
Probable space group: A B A 2
;
_chemical_formula_sum "Si O2"
_cell_formula_units_Z 64
_cell_length_a 27.697631
_cell_length_b 8.103583
_cell_length_c 12.112783
_cell_angle_alpha 90.000000
_cell_angle_beta 90.000000
_cell_angle_gamma 90.000000
_cell_volume 2718.714771
_symmetry_space_group_name_H-M "A B A 2"
_symmetry_group_IT_number 41
_symmetry_cell_setting 'orthorhombic'
loop_
_space_group_symop_operation_xyz
x,y,z
-x,-y,z
1/2-x,y,1/2+z
1/2+x,-y,1/2+z
x,1/2+y,1/2+z
-x,1/2-y,1/2+z
1/2-x,1/2+y,z
1/2+x,1/2-y,z
loop_
_atom_site_type_symbol
_atom_site_label
_atom_site_fract_x
_atom_site_fract_y
_atom_site_fract_z
Si Si1 0.812687 0.580894 0.339630
Si Si2 0.653570 0.105657 0.918506
Si Si3 0.754240 0.800943 0.935070
Si Si4 0.019970 0.749730 0.309705
Si Si5 0.085986 0.281245 0.599676
Si Si6 0.813649 0.879610 0.619716
Si Si7 0.431471 0.084417 0.874897
Si Si8 0.593754 0.441411 0.937731
O O1 0.791528 0.762983 0.356379
O O2 0.781825 0.474768 0.428730
O O3 0.802178 0.487877 0.226237
O O4 0.868783 0.559089 0.370365
O O5 0.704798 0.180030 0.884789
O O6 0.621971 0.268230 0.945852
O O7 0.621494 0.984480 0.843042
O O8 0.666402 0.007161 0.028827
O O9 0.731321 0.791409 0.058263
O O10 0.046102 0.753611 0.192207
O O11 0.044229 0.598906 0.374969
O O12 0.962796 0.783951 0.305546
O O13 0.039580 0.912262 0.373087
O O14 0.140074 0.238008 0.641790
O O15 0.073560 0.164142 0.495686
O O16 0.084835 0.465999 0.552001
#
# Coordination Sequence:
#
# PCOD9366796 Si02
#       8
#     8   8   8   8   8   8   8   8
#     4  11  23  38  61  92 130 171 220 272 329 403
#     4   9  21  42  61  90 134 170 215 280 329 400
#     4  11  22  39  60  89 130 173 217 271 331 394
#     4  10  21  43  66  95 129 176 220 274 352 398
#     4  11  22  42  70  95 133 172 221 282 334 397
#     4  11  22  40  62  92 126 173 218 271 339 405
#     4   9  22  42  66  91 135 169 221 281 335 400
#     4  10  21  41  64  95 130 165 222 282 328 403
#
# _framework density 23.540534000000001
#
# number of rings (size 3 to 8) (size 9 to 14) (size 15 to 20)
#    0.000    1.750    3.750    0.000    1.750    2.500 
#    2.250    2.500    0.000    0.000    0.000    0.000 
#    0.000    0.000    0.000    0.000    0.000    0.000 
#
# Total GULP energy -178458.724284 kJ/mol
# GULP energy per Si atom -5576.835134 kJ/mol
# Density = 2.348695 g / cm^3
# Si number density = 23.540534 Si / 1000 Ang^3
#
#
#
# Elastic Constant Matrix: (Units=GPa)
#
#
# Indices 1 2 3 4 5 6 
#
# 1 105.9964 35.4640 32.1380 0.0000 0.0000 0.0000
# 2 35.4640 61.4658 4.2778 0.0000 0.0000 0.0000
# 3 32.1380 4.2778 63.7733 0.0000 0.0000 0.0000
# 4 0.0000 0.0000 0.0000 6.8668 0.0000 0.0000
# 5 0.0000 0.0000 0.0000 0.0000 22.1876 0.0000
# 6 0.0000 0.0000 0.0000 0.0000 0.0000 52.3214
#
#
#
# Elastic Compliance Matrix: (Units=1/GPa)
#
#
# Indices 1 2 3 4 5 6 
#
# 1 0.013954 -0.007597 -0.006522 0.000000 0.000000 0.000000
# 2 -0.007597 0.020482 0.002455 0.000000 0.000000 0.000000
# 3 -0.006522 0.002455 0.018803 0.000000 0.000000 0.000000
# 4 0.000000 0.000000 0.000000 0.145628 0.000000 0.000000
# 5 0.000000 0.000000 0.000000 0.000000 0.045070 0.000000
# 6 0.000000 0.000000 0.000000 0.000000 0.000000 0.019113
#
#
# Mechanical properties :
#
#
# Convention : Reuss Voigt Hill
#
# Bulk Modulus (GPa) = 33.43507 41.66612 37.55060
# Shear Modulus (GPa) = 16.87210 26.89887 21.88549
#
# Velocity S-wave (km/s) = 2.68008 3.38400 3.05240
# Velocity P-wave (km/s) = 4.87966 5.74515 5.33000
#
# Compressibility (1/GPa) = 0.02990872
#
# Stress axis : x y z
#
# Youngs Moduli (GPa) = 71.66639 48.82435 53.18392
#
# Poissons Ratio (x) = 0.37091 0.34687
# Poissons Ratio (y) = 0.54444 -0.13054
# Poissons Ratio (z) = 0.46742 -0.11984
#
# Static dielectric constant tensor:
#      x y z
#    x 1.975320 0.000000 0.000000 
#    y 0.000000 2.021430 0.000000 
#    z 0.000000 0.000000 1.849690 
# 
# From -- ./inp_files/6691.got.cif
#   From: 2010.05.17/outbox.cif.g08.bks.cpg/sg41_4_cif.got.tgz:6691.got - 2010.06.03 18:54:24.
