data_PCOD9366228
_publ_section_title
;
Structure prediction by ZEFSAII (Michael W. Deem and Ramdas Pophale) SiO2 
 PCOD9366228
Probable space group: A B A 2
;
_chemical_formula_sum "Si O2"
_cell_formula_units_Z 60
_cell_length_a 17.907740
_cell_length_b 9.048993
_cell_length_c 17.555139
_cell_angle_alpha 90.000000
_cell_angle_beta 90.000000
_cell_angle_gamma 90.000000
_cell_volume 2844.757854
_symmetry_space_group_name_H-M "A B A 2"
_symmetry_group_IT_number 41
_symmetry_cell_setting 'orthorhombic'
loop_
_space_group_symop_operation_xyz
x,y,z
-x,-y,z
1/2-x,y,1/2+z
1/2+x,-y,1/2+z
x,1/2+y,1/2+z
-x,1/2-y,1/2+z
1/2-x,1/2+y,z
1/2+x,1/2-y,z
loop_
_atom_site_type_symbol
_atom_site_label
_atom_site_fract_x
_atom_site_fract_y
_atom_site_fract_z
Si Si1 0.554978 0.130347 0.753280
Si Si2 0.452680 0.804355 0.165737
Si Si3 0.221370 0.320773 0.564789
Si Si4 0.500000 0.500000 0.535086
Si Si5 0.918961 0.998550 0.089217
Si Si6 0.305392 0.526274 0.312618
Si Si7 0.195884 0.836515 0.724130
Si Si8 0.833474 0.474858 0.986576
O O1 0.502918 0.272401 0.740468
O O2 0.631125 0.099423 0.796502
O O3 0.500000 0.000000 0.780573
O O4 0.571322 0.100035 0.664033
O O5 0.498168 0.866560 0.095199
O O6 0.412254 0.660843 0.128449
O O7 0.381945 0.899241 0.191514
O O8 0.154344 0.438825 0.550168
O O9 0.247292 0.321949 0.652900
O O10 0.291866 0.378614 0.516493
O O11 0.192183 0.160819 0.540006
O O12 0.577127 0.495305 0.489729
O O13 0.000000 0.000000 0.048018
O O14 0.317376 0.677007 0.264380
O O15 0.230157 0.450340 0.283912
O O16 0.308068 0.560400 0.401285
#
# Coordination Sequence:
#
# PCOD9366228 Si02
#       8
#     8   8   8   4   8   8   8   8
#     4   9  17  35  62  85 113 161 214 264 313 390
#     4  10  20  37  62 101 124 165 228 289 321 383
#     4  12  23  45  68  98 131 185 229 283 340 399
#     4  12  26  40  64 104 148 172 224 290 346 402
#     4   9  17  36  66  95 117 159 230 276 325 393
#     4  12  25  41  65  98 133 178 215 272 347 404
#     4  12  22  41  69  95 124 174 233 275 319 401
#     4  12  28  43  64 101 147 177 220 285 353 413
#
# _framework density 21.091425999999998
#
# number of rings (size 3 to 8) (size 9 to 14) (size 15 to 20)
#    0.000    1.333    5.333    4.000    0.933    0.000 
#    0.000    0.000    0.000    0.000    3.467    0.000 
#    0.000    0.000    0.000    0.000    0.000    0.000 
#
# Total GULP energy -167293.578131 kJ/mol
# GULP energy per Si atom -5576.452604 kJ/mol
# Density = 2.104342 g / cm^3
# Si number density = 21.091426 Si / 1000 Ang^3
#
#
#
# Elastic Constant Matrix: (Units=GPa)
#
#
# Indices 1 2 3 4 5 6 
#
# 1 97.5596 -5.2789 6.5505 0.0000 0.0000 0.0000
# 2 -5.2789 37.4071 4.4761 0.0000 0.0000 0.0000
# 3 6.5505 4.4761 68.3674 0.0000 0.0000 0.0000
# 4 0.0000 0.0000 0.0000 18.1101 0.0000 0.0000
# 5 0.0000 0.0000 0.0000 0.0000 12.2583 0.0000
# 6 0.0000 0.0000 0.0000 0.0000 0.0000 27.7025
#
#
#
# Elastic Compliance Matrix: (Units=1/GPa)
#
#
# Indices 1 2 3 4 5 6 
#
# 1 0.010411 0.001601 -0.001102 0.000000 0.000000 0.000000
# 2 0.001601 0.027190 -0.001934 0.000000 0.000000 0.000000
# 3 -0.001102 -0.001934 0.014859 0.000000 0.000000 0.000000
# 4 0.000000 0.000000 0.000000 0.055218 0.000000 0.000000
# 5 0.000000 0.000000 0.000000 0.000000 0.081577 0.000000
# 6 0.000000 0.000000 0.000000 0.000000 0.000000 0.036098
#
#
# Mechanical properties :
#
#
# Convention : Reuss Voigt Hill
#
# Bulk Modulus (GPa) = 20.16516 23.86993 22.01754
# Shear Modulus (GPa) = 20.42877 24.78661 22.60769
#
# Velocity S-wave (km/s) = 3.11558 3.43184 3.27753
# Velocity P-wave (km/s) = 4.74595 5.20051 4.97842
#
# Compressibility (1/GPa) = 0.04959048
#
# Stress axis : x y z
#
# Youngs Moduli (GPa) = 96.05421 36.77791 67.29900
#
# Poissons Ratio (x) = -0.05888 0.07418
# Poissons Ratio (y) = -0.15379 0.13013
# Poissons Ratio (z) = 0.10588 0.07111
#
# Static dielectric constant tensor:
#      x y z
#    x 1.896100 0.000000 0.000000 
#    y 0.000000 1.911960 0.000000 
#    z 0.000000 0.000000 1.730080 
# 
# From -- ./inp_files/10582.got.cif
#   From: 2010.05.17/outbox.cif.g08.bks.cpg/sg41_6_cif.got.tgz:10582.got - 2010.06.03 18:54:24.
