data_PCOD9366085
_publ_section_title
;
Structure prediction by ZEFSAII (Michael W. Deem and Ramdas Pophale) SiO2 
 PCOD9366085
Probable space group: A B A 2
;
_chemical_formula_sum "Si O2"
_cell_formula_units_Z 48
_cell_length_a 14.164054
_cell_length_b 11.516121
_cell_length_c 13.099391
_cell_angle_alpha 90.000000
_cell_angle_beta 90.000000
_cell_angle_gamma 90.000000
_cell_volume 2136.706635
_symmetry_space_group_name_H-M "A B A 2"
_symmetry_group_IT_number 41
_symmetry_cell_setting 'orthorhombic'
loop_
_space_group_symop_operation_xyz
x,y,z
-x,-y,z
1/2-x,y,1/2+z
1/2+x,-y,1/2+z
x,1/2+y,1/2+z
-x,1/2-y,1/2+z
1/2-x,1/2+y,z
1/2+x,1/2-y,z
loop_
_atom_site_type_symbol
_atom_site_label
_atom_site_fract_x
_atom_site_fract_y
_atom_site_fract_z
Si Si1 0.149610 0.004746 0.811740
Si Si2 0.118890 0.674516 0.130355
Si Si3 0.910569 0.073880 0.113766
Si Si4 0.018593 0.339573 0.393441
Si Si5 0.047224 0.382636 0.992393
Si Si6 0.230642 0.519210 0.004418
O O1 0.154490 0.074057 0.706647
O O2 0.070318 0.081818 0.867679
O O3 0.102536 0.876230 0.816113
O O4 0.238120 0.011187 0.886421
O O5 0.122476 0.806814 0.169185
O O6 0.181651 0.642528 0.030842
O O7 0.011494 0.648591 0.095238
O O8 0.820446 0.998868 0.078799
O O9 0.945476 0.126081 0.005497
O O10 0.000000 0.000000 0.155196
O O11 0.976655 0.212657 0.408130
O O12 0.000000 0.500000 0.953820
O O13 0.154396 0.415527 0.017360
#
# Coordination Sequence:
#
# PCOD9366085 Si02
#       6
#     8   8   8   8   8   8
#     4  10  20  39  65  96 127 184 227 267 342 411
#     4  10  23  38  66 100 133 179 233 284 334 414
#     4  10  19  40  64  91 127 181 224 276 347 398
#     4   9  18  36  67  86 126 176 221 266 327 409
#     4   9  20  38  62  96 129 174 222 282 339 395
#     4  10  21  38  66  91 139 177 227 277 350 397
#
# _framework density 22.464476999999999
#
# number of rings (size 3 to 8) (size 9 to 14) (size 15 to 20)
#    0.000    2.333    3.333    0.000    9.333    0.000 
#    3.000    0.833    7.333    0.000    0.000    0.000 
#    0.000    0.000    0.000    0.000    0.000    0.000 
#
# Total GULP energy -133660.414044 kJ/mol
# GULP energy per Si atom -5569.183918 kJ/mol
# Density = 2.241335 g / cm^3
# Si number density = 22.464477 Si / 1000 Ang^3
#
#
#
# Elastic Constant Matrix: (Units=GPa)
#
#
# Indices 1 2 3 4 5 6 
#
# 1 101.2162 16.0550 17.4697 0.0000 0.0000 0.0000
# 2 16.0550 108.2951 11.7381 0.0000 0.0000 0.0000
# 3 17.4697 11.7381 52.7448 0.0000 0.0000 0.0000
# 4 0.0000 0.0000 0.0000 27.2128 0.0000 0.0000
# 5 0.0000 0.0000 0.0000 0.0000 5.8284 0.0000
# 6 0.0000 0.0000 0.0000 0.0000 0.0000 19.7787
#
#
#
# Elastic Compliance Matrix: (Units=1/GPa)
#
#
# Indices 1 2 3 4 5 6 
#
# 1 0.010635 -0.001224 -0.003250 0.000000 0.000000 0.000000
# 2 -0.001224 0.009603 -0.001732 0.000000 0.000000 0.000000
# 3 -0.003250 -0.001732 0.020421 0.000000 0.000000 0.000000
# 4 0.000000 0.000000 0.000000 0.036747 0.000000 0.000000
# 5 0.000000 0.000000 0.000000 0.000000 0.171573 0.000000
# 6 0.000000 0.000000 0.000000 0.000000 0.000000 0.050560
#
#
# Mechanical properties :
#
#
# Convention : Reuss Voigt Hill
#
# Bulk Modulus (GPa) = 35.40164 39.19798 37.29981
# Shear Modulus (GPa) = 15.55852 25.03020 20.29436
#
# Velocity S-wave (km/s) = 2.63455 3.34160 3.00892
# Velocity P-wave (km/s) = 5.00476 5.68992 5.35830
#
# Compressibility (1/GPa) = 0.02824728
#
# Stress axis : x y z
#
# Youngs Moduli (GPa) = 94.02920 104.13150 48.96917
#
# Poissons Ratio (x) = 0.12750 0.15915
# Poissons Ratio (y) = 0.11513 0.08480
# Poissons Ratio (z) = 0.30559 0.18032
#
# Static dielectric constant tensor:
#      x y z
#    x 1.898860 0.000000 0.000000 
#    y 0.000000 1.971700 0.000000 
#    z 0.000000 0.000000 1.989440 
# 
# From -- ./inp_files/8350.got.cif
#   From: 2010.05.17/outbox.cif.g08.bks.cpg/sg41_5_cif.got.tgz:8350.got - 2010.06.03 18:54:24.
