data_PCOD9366871
_publ_section_title
;
Structure prediction by ZEFSAII (Michael W. Deem and Ramdas Pophale) SiO2 
 PCOD9366871
Probable space group: A B A 2
;
_chemical_formula_sum "Si O2"
_cell_formula_units_Z 48
_cell_length_a 15.709618
_cell_length_b 9.155742
_cell_length_c 14.973828
_cell_angle_alpha 90.000000
_cell_angle_beta 90.000000
_cell_angle_gamma 90.000000
_cell_volume 2153.733737
_symmetry_space_group_name_H-M "A B A 2"
_symmetry_group_IT_number 41
_symmetry_cell_setting 'orthorhombic'
loop_
_space_group_symop_operation_xyz
x,y,z
-x,-y,z
1/2-x,y,1/2+z
1/2+x,-y,1/2+z
x,1/2+y,1/2+z
-x,1/2-y,1/2+z
1/2-x,1/2+y,z
1/2+x,1/2-y,z
loop_
_atom_site_type_symbol
_atom_site_label
_atom_site_fract_x
_atom_site_fract_y
_atom_site_fract_z
Si Si1 0.378702 0.585506 0.035510
Si Si2 0.439825 0.756980 0.538321
Si Si3 0.150415 0.054699 0.682520
Si Si4 0.574542 0.907736 0.353651
Si Si5 0.302597 0.733074 0.195398
Si Si6 0.453349 0.154749 0.834733
O O1 0.393356 0.413120 0.051065
O O2 0.461250 0.692733 0.052267
O O3 0.310452 0.640784 0.104525
O O4 0.357273 0.609166 0.931325
O O5 0.405041 0.634448 0.606798
O O6 0.427910 0.693878 0.437636
O O7 0.096872 0.001359 0.767985
O O8 0.211088 0.177317 0.727823
O O9 0.194835 0.900400 0.663465
O O10 0.531845 0.763349 0.317959
O O11 0.500000 0.000000 0.403086
O O12 0.376249 0.681413 0.264960
O O13 0.500000 0.000000 0.828573
#
# Coordination Sequence:
#
# PCOD9366871 Si02
#       6
#     8   8   8   8   8   8
#     4  10  21  42  69  96 129 165 213 265 325 375
#     4  10  22  42  67  99 127 165 214 270 316 384
#     4  12  27  43  65  94 137 173 216 263 328 386
#     4  11  21  45  69  97 127 168 211 277 319 380
#     4  12  27  44  63  97 133 177 212 266 326 388
#     4  11  25  41  71  99 129 164 223 266 324 380
#
# _framework density 22.286877
#
# number of rings (size 3 to 8) (size 9 to 14) (size 15 to 20)
#    0.000    1.000    5.000    2.000   11.667    1.333 
#    0.000    3.333    0.000    0.000    0.000    0.000 
#    0.000    0.000    0.000    0.000    0.000    0.000 
#
# Total GULP energy -133739.385785 kJ/mol
# GULP energy per Si atom -5572.474408 kJ/mol
# Density = 2.223615 g / cm^3
# Si number density = 22.286877 Si / 1000 Ang^3
#
#
#
# Elastic Constant Matrix: (Units=GPa)
#
#
# Indices 1 2 3 4 5 6 
#
# 1 30.0697 23.6520 17.5393 0.0000 0.0000 0.0000
# 2 23.6520 151.0792 21.5488 0.0000 0.0000 0.0000
# 3 17.5393 21.5488 101.9925 0.0000 0.0000 0.0000
# 4 0.0000 0.0000 0.0000 21.2894 0.0000 0.0000
# 5 0.0000 0.0000 0.0000 0.0000 8.1024 0.0000
# 6 0.0000 0.0000 0.0000 0.0000 0.0000 34.0133
#
#
#
# Elastic Compliance Matrix: (Units=1/GPa)
#
#
# Indices 1 2 3 4 5 6 
#
# 1 0.041088 -0.005593 -0.005884 0.000000 0.000000 0.000000
# 2 -0.005593 0.007586 -0.000641 0.000000 0.000000 0.000000
# 3 -0.005884 -0.000641 0.010952 0.000000 0.000000 0.000000
# 4 0.000000 0.000000 0.000000 0.046972 0.000000 0.000000
# 5 0.000000 0.000000 0.000000 0.000000 0.123421 0.000000
# 6 0.000000 0.000000 0.000000 0.000000 0.000000 0.029400
#
#
# Mechanical properties :
#
#
# Convention : Reuss Voigt Hill
#
# Bulk Modulus (GPa) = 28.25702 45.40240 36.82971
# Shear Modulus (GPa) = 16.92329 27.37444 22.14886
#
# Velocity S-wave (km/s) = 2.75860 3.50848 3.15589
# Velocity P-wave (km/s) = 4.78046 6.06866 5.46266
#
# Compressibility (1/GPa) = 0.03538943
#
# Stress axis : x y z
#
# Youngs Moduli (GPa) = 24.33822 131.82009 91.30831
#
# Poissons Ratio (x) = 0.73729 0.53726
# Poissons Ratio (y) = 0.13613 0.05852
# Poissons Ratio (z) = 0.14321 0.08449
#
# Static dielectric constant tensor:
#      x y z
#    x 1.947650 0.000000 0.000000 
#    y 0.000000 1.887820 0.000000 
#    z 0.000000 0.000000 1.845360 
# 
# From -- ./inp_files/8709.got.cif
#   From: 2010.05.17/outbox.cif.g08.bks.cpg/sg41_5_cif.got.tgz:8709.got - 2010.06.03 18:54:24.
