data_PCOD9366271
_publ_section_title
;
Structure prediction by ZEFSAII (Michael W. Deem and Ramdas Pophale) SiO2 
 PCOD9366271
Probable space group: A B A 2
;
_chemical_formula_sum "Si O2"
_cell_formula_units_Z 64
_cell_length_a 19.135081
_cell_length_b 9.428447
_cell_length_c 18.924978
_cell_angle_alpha 90.000000
_cell_angle_beta 90.000000
_cell_angle_gamma 90.000000
_cell_volume 3414.332818
_symmetry_space_group_name_H-M "A B A 2"
_symmetry_group_IT_number 41
_symmetry_cell_setting 'orthorhombic'
loop_
_space_group_symop_operation_xyz
x,y,z
-x,-y,z
1/2-x,y,1/2+z
1/2+x,-y,1/2+z
x,1/2+y,1/2+z
-x,1/2-y,1/2+z
1/2-x,1/2+y,z
1/2+x,1/2-y,z
loop_
_atom_site_type_symbol
_atom_site_label
_atom_site_fract_x
_atom_site_fract_y
_atom_site_fract_z
Si Si1 0.971540 0.343082 0.068990
Si Si2 0.704921 0.497386 0.398578
Si Si3 0.509190 0.333195 0.928847
Si Si4 0.317958 0.549822 0.566249
Si Si5 0.545612 0.362087 0.166943
Si Si6 0.331366 0.188083 0.413873
Si Si7 0.561400 0.385681 0.334148
Si Si8 0.319049 0.715341 0.082852
O O1 0.889107 0.363821 0.076671
O O2 0.000000 0.500000 0.055131
O O3 0.004040 0.274502 0.138767
O O4 0.996252 0.245773 0.003507
O O5 0.691345 0.463277 0.481405
O O6 0.703429 0.665391 0.390516
O O7 0.781300 0.433624 0.383778
O O8 0.638333 0.437511 0.356441
O O9 0.500000 0.500000 0.938457
O O10 0.586826 0.311793 0.897243
O O11 0.455791 0.258313 0.875612
O O12 0.254372 0.639639 0.598205
O O13 0.319835 0.386344 0.592832
O O14 0.500000 0.500000 0.147267
O O15 0.556338 0.364145 0.250578
O O16 0.619442 0.355826 0.127239
O O17 0.331256 0.186451 0.499513
O O18 0.500000 0.500000 0.354490
#
# Coordination Sequence:
#
# PCOD9366271 Si02
#       8
#     8   8   8   8   8   8   8   8
#     4  12  21  40  67  94 123 165 210 262 318 376
#     4  10  20  38  61  90 125 162 206 257 321 386
#     4  12  24  37  66  99 126 156 214 272 311 375
#     4  10  21  35  65  91 122 161 204 265 324 374
#     4  11  25  41  63  91 128 172 214 264 315 384
#     4  10  21  36  63  93 123 158 204 264 319 375
#     4  11  23  44  64  85 128 175 213 258 325 383
#     4  10  21  39  57  95 125 159 207 260 319 383
#
# _framework density 18.744510999999999
#
# number of rings (size 3 to 8) (size 9 to 14) (size 15 to 20)
#    0.000    1.250    5.000    1.500    3.500    1.500 
#    0.000    2.500    0.000    0.000    0.000    0.000 
#    0.000    0.000    0.000    0.000    0.000    0.000 
#
# Total GULP energy -178660.003690 kJ/mol
# GULP energy per Si atom -5583.125115 kJ/mol
# Density = 1.870185 g / cm^3
# Si number density = 18.744511 Si / 1000 Ang^3
#
#
#
# Elastic Constant Matrix: (Units=GPa)
#
#
# Indices 1 2 3 4 5 6 
#
# 1 95.7390 21.6092 23.4677 0.0000 0.0000 0.0000
# 2 21.6092 102.7243 44.5894 0.0000 0.0000 0.0000
# 3 23.4677 44.5894 52.0249 0.0000 0.0000 0.0000
# 4 0.0000 0.0000 0.0000 16.5808 0.0000 0.0000
# 5 0.0000 0.0000 0.0000 0.0000 17.9732 0.0000
# 6 0.0000 0.0000 0.0000 0.0000 0.0000 38.4749
#
#
#
# Elastic Compliance Matrix: (Units=1/GPa)
#
#
# Indices 1 2 3 4 5 6 
#
# 1 0.011748 -0.000272 -0.005066 0.000000 0.000000 0.000000
# 2 -0.000272 0.015508 -0.013169 0.000000 0.000000 0.000000
# 3 -0.005066 -0.013169 0.032794 0.000000 0.000000 0.000000
# 4 0.000000 0.000000 0.000000 0.060311 0.000000 0.000000
# 5 0.000000 0.000000 0.000000 0.000000 0.055639 0.000000
# 6 0.000000 0.000000 0.000000 0.000000 0.000000 0.025991
#
#
# Mechanical properties :
#
#
# Convention : Reuss Voigt Hill
#
# Bulk Modulus (GPa) = 43.41133 47.75787 45.58460
# Shear Modulus (GPa) = 20.26885 25.32723 22.79804
#
# Velocity S-wave (km/s) = 3.29191 3.67983 3.49126
# Velocity P-wave (km/s) = 6.13667 6.60216 6.37366
#
# Compressibility (1/GPa) = 0.02303546
#
# Stress axis : x y z
#
# Youngs Moduli (GPa) = 85.11835 64.48135 30.49369
#
# Poissons Ratio (x) = 0.01756 0.15448
# Poissons Ratio (y) = 0.02318 0.40157
# Poissons Ratio (z) = 0.43122 0.84916
#
# Static dielectric constant tensor:
#      x y z
#    x 1.679650 0.000000 0.000000 
#    y 0.000000 1.648830 0.000000 
#    z 0.000000 0.000000 1.626120 
# 
# From -- ./inp_files/11649.got.cif
#   From: 2010.05.17/outbox.cif.g08.bks.cpg/sg41_6_cif.got.tgz:11649.got - 2010.06.03 18:54:24.
