data_PCOD9366497
_publ_section_title
;
Structure prediction by ZEFSAII (Michael W. Deem and Ramdas Pophale) SiO2 
 PCOD9366497
Probable space group: A B A 2
;
_chemical_formula_sum "Si O2"
_cell_formula_units_Z 32
_cell_length_a 9.073429
_cell_length_b 13.703475
_cell_length_c 9.131080
_cell_angle_alpha 90.000000
_cell_angle_beta 90.000000
_cell_angle_gamma 90.000000
_cell_volume 1135.335728
_symmetry_space_group_name_H-M "A B A 2"
_symmetry_group_IT_number 41
_symmetry_cell_setting 'orthorhombic'
loop_
_space_group_symop_operation_xyz
x,y,z
-x,-y,z
1/2-x,y,1/2+z
1/2+x,-y,1/2+z
x,1/2+y,1/2+z
-x,1/2-y,1/2+z
1/2-x,1/2+y,z
1/2+x,1/2-y,z
loop_
_atom_site_type_symbol
_atom_site_label
_atom_site_fract_x
_atom_site_fract_y
_atom_site_fract_z
Si Si1 0.337043 0.282228 0.237880
Si Si2 0.042329 0.888942 0.782295
Si Si3 0.406251 0.087667 0.708702
Si Si4 0.665379 0.877370 0.028345
O O1 0.436231 0.202698 0.330119
O O2 0.463559 0.343505 0.155500
O O3 0.266227 0.217268 0.109238
O O4 0.284828 0.548477 0.095963
O O5 0.990607 0.891141 0.609508
O O6 0.210181 0.852720 0.801108
O O7 0.000000 0.000000 0.834062
O O8 0.500000 0.000000 0.773588
O O9 0.338095 0.129927 0.857453
#
# Coordination Sequence:
#
# PCOD9366497 Si02
#       4
#     8   8   8   8
#     4  10  22  43  70 110 149 204 254 325 393 470
#     4  10  20  43  71 106 154 202 262 324 395 477
#     4  12  25  48  81 112 157 208 269 333 407 486
#     4  10  24  46  73 114 155 205 262 334 395 484
#
# _framework density 28.185496000000001
#
# number of rings (size 3 to 8) (size 9 to 14) (size 15 to 20)
#    1.500    0.000    2.500    2.250    0.000    4.000 
#    0.000    5.000    0.000    0.000    0.000    0.000 
#    0.000    0.000    0.000    0.000    0.000    0.000 
#
# Total GULP energy -89202.858962 kJ/mol
# GULP energy per Si atom -5575.178685 kJ/mol
# Density = 2.812134 g / cm^3
# Si number density = 28.185496 Si / 1000 Ang^3
#
#
#
# Elastic Constant Matrix: (Units=GPa)
#
#
# Indices 1 2 3 4 5 6 
#
# 1 204.6415 44.1712 31.0413 0.0000 0.0000 0.0000
# 2 44.1712 124.5237 -0.6517 0.0000 0.0000 0.0000
# 3 31.0413 -0.6517 135.2511 0.0000 0.0000 0.0000
# 4 0.0000 0.0000 0.0000 10.5450 0.0000 0.0000
# 5 0.0000 0.0000 0.0000 0.0000 35.5059 0.0000
# 6 0.0000 0.0000 0.0000 0.0000 0.0000 44.1900
#
#
#
# Elastic Compliance Matrix: (Units=1/GPa)
#
#
# Indices 1 2 3 4 5 6 
#
# 1 0.005502 -0.001958 -0.001272 0.000000 0.000000 0.000000
# 2 -0.001958 0.008728 0.000492 0.000000 0.000000 0.000000
# 3 -0.001272 0.000492 0.007688 0.000000 0.000000 0.000000
# 4 0.000000 0.000000 0.000000 0.094832 0.000000 0.000000
# 5 0.000000 0.000000 0.000000 0.000000 0.028164 0.000000
# 6 0.000000 0.000000 0.000000 0.000000 0.000000 0.022630
#
#
# Mechanical properties :
#
#
# Convention : Reuss Voigt Hill
#
# Bulk Modulus (GPa) = 60.82781 68.17088 64.49935
# Shear Modulus (GPa) = 28.01088 44.03855 36.02471
#
# Velocity S-wave (km/s) = 3.15589 3.95708 3.57897
# Velocity P-wave (km/s) = 5.90826 6.71692 6.32553
#
# Compressibility (1/GPa) = 0.01643985
#
# Stress axis : x y z
#
# Youngs Moduli (GPa) = 181.74220 114.57551 130.07255
#
# Poissons Ratio (x) = 0.22439 0.16549
# Poissons Ratio (y) = 0.35593 -0.06393
# Poissons Ratio (z) = 0.23122 -0.05632
#
# Static dielectric constant tensor:
#      x y z
#    x 2.490550 0.000000 0.000000 
#    y 0.000000 2.621800 0.000000 
#    z 0.000000 0.000000 2.148680 
# 
# From -- ./inp_files/4740.got.cif
#   From: 2010.05.17/outbox.cif.g08.bks.cpg/sg41_3_cif.got.tgz:4740.got - 2010.06.03 18:54:24.
