data_PCOD9366279
_publ_section_title
;
Structure prediction by ZEFSAII (Michael W. Deem and Ramdas Pophale) SiO2 
 PCOD9366279
Probable space group: A B A 2
;
_chemical_formula_sum "Si O2"
_cell_formula_units_Z 64
_cell_length_a 11.462989
_cell_length_b 31.968139
_cell_length_c 8.641716
_cell_angle_alpha 90.000000
_cell_angle_beta 90.000000
_cell_angle_gamma 90.000000
_cell_volume 3166.760507
_symmetry_space_group_name_H-M "A B A 2"
_symmetry_group_IT_number 41
_symmetry_cell_setting 'orthorhombic'
loop_
_space_group_symop_operation_xyz
x,y,z
-x,-y,z
1/2-x,y,1/2+z
1/2+x,-y,1/2+z
x,1/2+y,1/2+z
-x,1/2-y,1/2+z
1/2-x,1/2+y,z
1/2+x,1/2-y,z
loop_
_atom_site_type_symbol
_atom_site_label
_atom_site_fract_x
_atom_site_fract_y
_atom_site_fract_z
Si Si1 0.603054 0.028505 0.053670
Si Si2 0.867211 0.110293 0.695721
Si Si3 0.501309 0.251291 0.463890
Si Si4 0.225312 0.513972 0.341492
Si Si5 0.113356 0.796833 0.210727
Si Si6 0.878569 0.704057 0.211705
Si Si7 0.390114 0.387787 0.068045
Si Si8 0.577159 0.457758 0.122688
O O1 0.564894 0.074850 0.100446
O O2 0.500000 0.000000 0.990277
O O3 0.645481 0.006844 0.211918
O O4 0.709911 0.023062 0.935887
O O5 0.896803 0.157562 0.646366
O O6 0.733499 0.101182 0.647177
O O7 0.881756 0.108844 0.881299
O O8 0.601813 0.241471 0.588503
O O9 0.481966 0.289228 0.344289
O O10 0.394418 0.260408 0.580709
O O11 0.526095 0.213819 0.343525
O O12 0.325330 0.540422 0.255919
O O13 0.148470 0.539921 0.461704
O O14 0.245799 0.796524 0.273054
O O15 0.090486 0.840088 0.122808
O O16 0.490193 0.418856 0.125981
O O17 0.500000 0.500000 0.128120
#
# Coordination Sequence:
#
# PCOD9366279 Si02
#       8
#     8   8   8   8   8   8   8   8
#     4  11  21  37  59  86 119 160 198 246 293 352
#     4  11  22  36  60  98 122 153 207 260 306 352
#     4  10  20  38  62  87 122 158 193 242 325 367
#     4  10  22  38  59  86 120 169 204 242 298 361
#     4  10  21  38  64  91 119 155 201 258 301 370
#     4  10  21  37  62  92 122 157 196 258 302 372
#     4  11  23  38  63  94 126 156 206 262 306 356
#     4  11  22  40  63  88 123 168 204 254 304 360
#
# _framework density 20.209928999999999
#
# number of rings (size 3 to 8) (size 9 to 14) (size 15 to 20)
#    0.000    1.500    1.250    5.250    5.250    1.000 
#    0.000    0.000   11.000    0.000    0.000    0.000 
#    0.000    0.000    0.000    0.000    0.000    0.000 
#
# Total GULP energy -178293.729786 kJ/mol
# GULP energy per Si atom -5571.679056 kJ/mol
# Density = 2.016393 g / cm^3
# Si number density = 20.209929 Si / 1000 Ang^3
#
#
#
# Elastic Constant Matrix: (Units=GPa)
#
#
# Indices 1 2 3 4 5 6 
#
# 1 67.6667 50.5416 20.6854 0.0000 0.0000 0.0000
# 2 50.5416 87.4403 20.5957 0.0000 0.0000 0.0000
# 3 20.6854 20.5957 74.6532 0.0000 0.0000 0.0000
# 4 0.0000 0.0000 0.0000 19.7169 0.0000 0.0000
# 5 0.0000 0.0000 0.0000 0.0000 26.2257 0.0000
# 6 0.0000 0.0000 0.0000 0.0000 0.0000 35.5045
#
#
#
# Elastic Compliance Matrix: (Units=1/GPa)
#
#
# Indices 1 2 3 4 5 6 
#
# 1 0.026775 -0.014683 -0.003368 0.000000 0.000000 0.000000
# 2 -0.014683 0.020283 -0.001527 0.000000 0.000000 0.000000
# 3 -0.003368 -0.001527 0.014750 0.000000 0.000000 0.000000
# 4 0.000000 0.000000 0.000000 0.050718 0.000000 0.000000
# 5 0.000000 0.000000 0.000000 0.000000 0.038130 0.000000
# 6 0.000000 0.000000 0.000000 0.000000 0.000000 0.028165
#
#
# Mechanical properties :
#
#
# Convention : Reuss Voigt Hill
#
# Bulk Modulus (GPa) = 44.14813 45.93396 45.04104
# Shear Modulus (GPa) = 22.17011 25.48526 23.82769
#
# Velocity S-wave (km/s) = 3.31568 3.55495 3.43739
# Velocity P-wave (km/s) = 6.04570 6.29507 6.17165
#
# Compressibility (1/GPa) = 0.02265102
#
# Stress axis : x y z
#
# Youngs Moduli (GPa) = 37.34844 49.30236 67.79696
#
# Poissons Ratio (x) = 0.72390 0.22835
# Poissons Ratio (y) = 0.54838 0.10355
# Poissons Ratio (z) = 0.12580 0.07530
#
# Static dielectric constant tensor:
#      x y z
#    x 1.712370 0.000000 0.000000 
#    y 0.000000 1.735830 0.000000 
#    z 0.000000 0.000000 1.773120 
# 
# From -- ./inp_files/2230.got.cif
#   From: 2010.05.17/outbox.cif.g08.bks.cpg/sg41_2_cif.got.tgz:2230.got - 2010.06.03 18:54:24.
