data_PCOD9366994
_publ_section_title
;
Structure prediction by ZEFSAII (Michael W. Deem and Ramdas Pophale) SiO2 
 PCOD9366994
Probable space group: A B A 2
;
_chemical_formula_sum "Si O2"
_cell_formula_units_Z 40
_cell_length_a 5.398661
_cell_length_b 19.327497
_cell_length_c 18.137704
_cell_angle_alpha 90.000000
_cell_angle_beta 90.000000
_cell_angle_gamma 90.000000
_cell_volume 1892.535271
_symmetry_space_group_name_H-M "A B A 2"
_symmetry_group_IT_number 41
_symmetry_cell_setting 'orthorhombic'
loop_
_space_group_symop_operation_xyz
x,y,z
-x,-y,z
1/2-x,y,1/2+z
1/2+x,-y,1/2+z
x,1/2+y,1/2+z
-x,1/2-y,1/2+z
1/2-x,1/2+y,z
1/2+x,1/2-y,z
loop_
_atom_site_type_symbol
_atom_site_label
_atom_site_fract_x
_atom_site_fract_y
_atom_site_fract_z
Si Si1 0.014584 0.789102 0.381060
Si Si2 0.500000 0.000000 0.464394
Si Si3 0.000076 0.210757 0.559553
Si Si4 0.829743 0.938881 0.352974
Si Si5 0.500000 0.500000 0.213691
Si Si6 0.813925 0.061737 0.596380
O O1 0.779692 0.741803 0.358511
O O2 0.964341 0.866057 0.352384
O O3 0.006696 0.792630 0.470280
O O4 0.601724 0.941204 0.408606
O O5 0.316331 0.960495 0.519951
O O6 0.765809 0.258400 0.581691
O O7 0.950393 0.134079 0.588828
O O8 0.799948 0.966591 0.269856
O O9 0.000000 0.000000 0.386326
O O10 0.611287 0.558377 0.160915
O O11 0.000000 0.000000 0.613842
#
# Coordination Sequence:
#
# PCOD9366994 Si02
#       6
#     8   4   8   8   4   8
#     4  10  22  38  63  99 139 169 219 284 343 400
#     4  11  22  36  72  97 128 164 248 275 336 390
#     4  10  23  39  64  99 135 173 220 282 344 402
#     4  10  23  41  64  98 125 181 221 281 331 411
#     4   9  26  42  66  93 136 174 232 271 352 390
#     4  11  24  43  66  98 131 180 225 288 329 416
#
# _framework density 21.135669
#
# number of rings (size 3 to 8) (size 9 to 14) (size 15 to 20)
#    0.600    1.200    0.000    3.000   18.200    0.000 
#    0.000    2.000    0.000    0.000    0.000    0.000 
#    0.000    0.000    0.000    0.000    0.000    0.000 
#
# Total GULP energy -111616.115812 kJ/mol
# GULP energy per Si atom -5580.805791 kJ/mol
# Density = 2.108756 g / cm^3
# Si number density = 21.135669 Si / 1000 Ang^3
#
#
#
# Elastic Constant Matrix: (Units=GPa)
#
#
# Indices 1 2 3 4 5 6 
#
# 1 75.6060 30.3607 36.3742 0.0000 0.0000 0.0000
# 2 30.3607 134.8293 22.9472 0.0000 0.0000 0.0000
# 3 36.3742 22.9472 97.1937 0.0000 0.0000 0.0000
# 4 0.0000 0.0000 0.0000 13.9276 0.0000 0.0000
# 5 0.0000 0.0000 0.0000 0.0000 6.8384 0.0000
# 6 0.0000 0.0000 0.0000 0.0000 0.0000 40.3363
#
#
#
# Elastic Compliance Matrix: (Units=1/GPa)
#
#
# Indices 1 2 3 4 5 6 
#
# 1 0.017144 -0.002884 -0.005735 0.000000 0.000000 0.000000
# 2 -0.002884 0.008213 -0.000860 0.000000 0.000000 0.000000
# 3 -0.005735 -0.000860 0.012638 0.000000 0.000000 0.000000
# 4 0.000000 0.000000 0.000000 0.071800 0.000000 0.000000
# 5 0.000000 0.000000 0.000000 0.000000 0.146234 0.000000
# 6 0.000000 0.000000 0.000000 0.000000 0.000000 0.024792
#
#
# Mechanical properties :
#
#
# Convention : Reuss Voigt Hill
#
# Bulk Modulus (GPa) = 52.53034 54.11036 53.32035
# Shear Modulus (GPa) = 16.33332 26.75025 21.54179
#
# Velocity S-wave (km/s) = 2.78292 3.56145 3.19598
# Velocity P-wave (km/s) = 5.93582 6.52449 6.23710
#
# Compressibility (1/GPa) = 0.01903662
#
# Stress axis : x y z
#
# Youngs Moduli (GPa) = 58.33003 121.76458 79.12675
#
# Poissons Ratio (x) = 0.35121 0.45379
# Poissons Ratio (y) = 0.16825 0.06801
# Poissons Ratio (z) = 0.33452 0.10466
#
# Static dielectric constant tensor:
#      x y z
#    x 1.857680 0.000000 0.000000 
#    y 0.000000 1.742930 0.000000 
#    z 0.000000 0.000000 1.739900 
# 
# From -- ./inp_files/9380.got.cif
#   From: 2010.05.17/outbox.cif.g08.bks.cpg/sg41_5_cif.got.tgz:9380.got - 2010.06.03 18:54:24.
