data_PCOD9366998
_publ_section_title
;
Structure prediction by ZEFSAII (Michael W. Deem and Ramdas Pophale) SiO2 
 PCOD9366998
Probable space group: A B A 2
;
_chemical_formula_sum "Si O2"
_cell_formula_units_Z 52
_cell_length_a 8.570595
_cell_length_b 19.885983
_cell_length_c 12.996456
_cell_angle_alpha 90.000000
_cell_angle_beta 90.000000
_cell_angle_gamma 90.000000
_cell_volume 2215.047164
_symmetry_space_group_name_H-M "A B A 2"
_symmetry_group_IT_number 41
_symmetry_cell_setting 'orthorhombic'
loop_
_space_group_symop_operation_xyz
x,y,z
-x,-y,z
1/2-x,y,1/2+z
1/2+x,-y,1/2+z
x,1/2+y,1/2+z
-x,1/2-y,1/2+z
1/2-x,1/2+y,z
1/2+x,1/2-y,z
loop_
_atom_site_type_symbol
_atom_site_label
_atom_site_fract_x
_atom_site_fract_y
_atom_site_fract_z
Si Si1 0.007619 0.868402 0.901200
Si Si2 0.050091 0.812149 0.595199
Si Si3 0.000000 0.000000 0.292241
Si Si4 0.325381 0.666581 0.107048
Si Si5 0.297424 0.107978 0.818517
Si Si6 0.476798 0.287120 0.363732
Si Si7 0.263147 0.889287 0.752675
O O1 0.876098 0.909879 0.842476
O O2 0.996919 0.792236 0.856329
O O3 0.168224 0.897875 0.860093
O O4 0.937876 0.860052 0.015606
O O5 0.102546 0.738973 0.637220
O O6 0.095943 0.805638 0.474891
O O7 0.145559 0.867103 0.661459
O O8 0.862005 0.821859 0.593475
O O9 0.868010 0.044423 0.234441
O O10 0.086277 0.053909 0.363081
O O11 0.329084 0.612963 0.198206
O O12 0.350392 0.180012 0.861410
O O13 0.375972 0.325837 0.278354
#
# Coordination Sequence:
#
# PCOD9366998 Si02
#       7
#     8   8   4   8   8   8   8
#     4  11  21  38  68 104 127 172 213 284 351 425
#     4  11  23  39  64 106 137 171 211 286 355 427
#     4  10  28  46  62  88 124 192 236 292 310 408
#     4  11  24  37  67 106 137 169 219 275 358 432
#     4  11  22  44  62  88 136 169 226 273 339 392
#     4  10  22  38  66 103 138 163 213 274 354 429
#     4  11  24  42  68  92 139 186 228 280 346 395
#
# _framework density 23.475797
#
# number of rings (size 3 to 8) (size 9 to 14) (size 15 to 20)
#    0.000    1.231    3.077    2.769   10.769    0.615 
#    0.000    4.615    0.000    0.000    0.000    0.000 
#    0.000    0.000    0.000    0.000    0.000    0.000 
#
# Total GULP energy -145076.037820 kJ/mol
# GULP energy per Si atom -5579.847608 kJ/mol
# Density = 2.342237 g / cm^3
# Si number density = 23.475797 Si / 1000 Ang^3
#
#
#
# Elastic Constant Matrix: (Units=GPa)
#
#
# Indices 1 2 3 4 5 6 
#
# 1 119.6262 31.5131 24.0206 0.0000 0.0000 0.0000
# 2 31.5131 72.7948 24.9963 0.0000 0.0000 0.0000
# 3 24.0206 24.9963 75.0045 0.0000 0.0000 0.0000
# 4 0.0000 0.0000 0.0000 4.0083 0.0000 0.0000
# 5 0.0000 0.0000 0.0000 0.0000 36.2684 0.0000
# 6 0.0000 0.0000 0.0000 0.0000 0.0000 31.9060
#
#
#
# Elastic Compliance Matrix: (Units=1/GPa)
#
#
# Indices 1 2 3 4 5 6 
#
# 1 0.009675 -0.003528 -0.001923 0.000000 0.000000 0.000000
# 2 -0.003528 0.016799 -0.004469 0.000000 0.000000 0.000000
# 3 -0.001923 -0.004469 0.015438 0.000000 0.000000 0.000000
# 4 0.000000 0.000000 0.000000 0.249484 0.000000 0.000000
# 5 0.000000 0.000000 0.000000 0.000000 0.027572 0.000000
# 6 0.000000 0.000000 0.000000 0.000000 0.000000 0.031342
#
#
# Mechanical properties :
#
#
# Convention : Reuss Voigt Hill
#
# Bulk Modulus (GPa) = 45.30490 47.60951 46.45720
# Shear Modulus (GPa) = 13.24484 26.89623 20.07053
#
# Velocity S-wave (km/s) = 2.37785 3.38849 2.92712
# Velocity P-wave (km/s) = 5.18453 5.96938 5.59074
#
# Compressibility (1/GPa) = 0.02207267
#
# Stress axis : x y z
#
# Youngs Moduli (GPa) = 103.36092 59.52738 64.77730
#
# Poissons Ratio (x) = 0.21002 0.12454
# Poissons Ratio (y) = 0.36467 0.28947
# Poissons Ratio (z) = 0.19873 0.26601
#
# Static dielectric constant tensor:
#      x y z
#    x 1.963110 0.000000 0.000000 
#    y 0.000000 1.878200 0.000000 
#    z 0.000000 0.000000 1.975400 
# 
# From -- ./inp_files/7402.got.cif
#   From: 2010.05.17/outbox.cif.g08.bks.cpg/sg41_4_cif.got.tgz:7402.got - 2010.06.03 18:54:24.
