data_PCOD9366612
_publ_section_title
;
Structure prediction by ZEFSAII (Michael W. Deem and Ramdas Pophale) SiO2 
 PCOD9366612
Probable space group: A B A 2
;
_chemical_formula_sum "Si O2"
_cell_formula_units_Z 40
_cell_length_a 8.706786
_cell_length_b 13.518301
_cell_length_c 14.815020
_cell_angle_alpha 90.000000
_cell_angle_beta 90.000000
_cell_angle_gamma 90.000000
_cell_volume 1743.741986
_symmetry_space_group_name_H-M "A B A 2"
_symmetry_group_IT_number 41
_symmetry_cell_setting 'orthorhombic'
loop_
_space_group_symop_operation_xyz
x,y,z
-x,-y,z
1/2-x,y,1/2+z
1/2+x,-y,1/2+z
x,1/2+y,1/2+z
-x,1/2-y,1/2+z
1/2-x,1/2+y,z
1/2+x,1/2-y,z
loop_
_atom_site_type_symbol
_atom_site_label
_atom_site_fract_x
_atom_site_fract_y
_atom_site_fract_z
Si Si1 0.000000 0.000000 0.668751
Si Si2 0.199089 0.832658 0.758615
Si Si3 0.541189 0.364034 0.509212
Si Si4 0.458814 0.135966 0.813891
Si Si5 0.500000 0.000000 0.654352
Si Si6 0.199090 0.832658 0.064490
O O1 0.101341 0.928839 0.731054
O O2 0.912490 0.928573 0.596592
O O3 0.356144 0.859265 0.808432
O O4 0.250002 0.789644 0.661553
O O5 0.102527 0.747322 0.805243
O O6 0.591598 0.403649 0.411551
O O7 0.602530 0.252679 0.517860
O O8 0.356146 0.359265 0.514674
O O9 0.412493 0.071428 0.726511
O O10 0.601342 0.071161 0.592049
#
# Coordination Sequence:
#
# PCOD9366612 Si02
#       6
#     4   8   8   8   4   8
#     4  10  21  38  61  86 120 162 200 236 291 364
#     4  10  22  40  64  90 121 161 202 244 300 365
#     4  11  23  41  63  93 123 155 200 256 303 349
#     4  11  23  41  63  93 123 155 200 256 303 349
#     4  10  21  38  61  86 120 162 200 236 291 364
#     4  10  22  40  64  90 121 161 202 244 300 365
#
# _framework density 22.939174999999999
#
# number of rings (size 3 to 8) (size 9 to 14) (size 15 to 20)
#    0.000    1.600    0.000    6.600    0.000   14.400 
#    0.000    8.000    0.000    0.000    0.000    2.800 
#    0.000    0.000    0.000    0.000    0.000    0.000 
#
# Total GULP energy -111740.670530 kJ/mol
# GULP energy per Si atom -5587.033526 kJ/mol
# Density = 2.288696 g / cm^3
# Si number density = 22.939175 Si / 1000 Ang^3
#
#
#
# Elastic Constant Matrix: (Units=GPa)
#
#
# Indices 1 2 3 4 5 6 
#
# 1 62.4868 55.5972 16.2473 0.0000 0.0000 0.0000
# 2 55.5972 153.3714 19.3400 0.0000 0.0000 0.0000
# 3 16.2473 19.3400 76.1048 0.0000 0.0000 0.0000
# 4 0.0000 0.0000 0.0000 -4.3121 0.0000 0.0000
# 5 0.0000 0.0000 0.0000 0.0000 6.9142 0.0000
# 6 0.0000 0.0000 0.0000 0.0000 0.0000 43.8499
#
#
#
# Elastic Compliance Matrix: (Units=1/GPa)
#
#
# Indices 1 2 3 4 5 6 
#
# 1 0.024287 -0.008420 -0.003045 0.000000 0.000000 0.000000
# 2 -0.008420 0.009655 -0.000656 0.000000 0.000000 0.000000
# 3 -0.003045 -0.000656 0.013957 0.000000 0.000000 0.000000
# 4 0.000000 0.000000 0.000000 -0.231904 0.000000 0.000000
# 5 0.000000 0.000000 0.000000 0.000000 0.144631 0.000000
# 6 0.000000 0.000000 0.000000 0.000000 0.000000 0.022805
#
#
# Mechanical properties :
#
#
# Convention : Reuss Voigt Hill
#
# Bulk Modulus (GPa) = 42.27241 52.70357 47.48799
# Shear Modulus (GPa) = 321.38271 22.67561 172.02916
#
# Velocity S-wave (km/s) = 11.84932 3.14747 8.66928
# Velocity P-wave (km/s) = 14.34142 6.01947 10.99796
#
# Compressibility (1/GPa) = 0.02365609
#
# Stress axis : x y z
#
# Youngs Moduli (GPa) = 41.17466 103.57223 71.65078
#
# Poissons Ratio (x) = 0.87208 0.21819
# Poissons Ratio (y) = 0.34669 0.04701
# Poissons Ratio (z) = 0.12538 0.06795
#
# Static dielectric constant tensor:
#      x y z
#    x 1.876920 0.000000 0.000000 
#    y 0.000000 1.853520 0.000000 
#    z 0.000000 0.000000 1.835780 
# 
# From -- ./inp_files/7755.got.cif
#   From: 2010.05.17/outbox.cif.g08.bks.cpg/sg41_4_cif.got.tgz:7755.got - 2010.06.03 18:54:24.
