data_PCOD9366397
_publ_section_title
;
Structure prediction by ZEFSAII (Michael W. Deem and Ramdas Pophale) SiO2 
 PCOD9366397
Probable space group: A B A 2
;
_chemical_formula_sum "Si O2"
_cell_formula_units_Z 64
_cell_length_a 30.639266
_cell_length_b 13.159931
_cell_length_c 7.500120
_cell_angle_alpha 90.000000
_cell_angle_beta 90.000000
_cell_angle_gamma 90.000000
_cell_volume 3024.128084
_symmetry_space_group_name_H-M "A B A 2"
_symmetry_group_IT_number 41
_symmetry_cell_setting 'orthorhombic'
loop_
_space_group_symop_operation_xyz
x,y,z
-x,-y,z
1/2-x,y,1/2+z
1/2+x,-y,1/2+z
x,1/2+y,1/2+z
-x,1/2-y,1/2+z
1/2-x,1/2+y,z
1/2+x,1/2-y,z
loop_
_atom_site_type_symbol
_atom_site_label
_atom_site_fract_x
_atom_site_fract_y
_atom_site_fract_z
Si Si1 0.462806 0.934724 0.580950
Si Si2 0.571478 0.766864 0.034697
Si Si3 0.101002 0.777819 0.436426
Si Si4 0.105989 0.598482 0.710845
Si Si5 0.230827 0.699072 0.109076
Si Si6 0.703101 0.437828 0.304227
Si Si7 0.012726 0.386476 0.967087
Si Si8 0.801946 0.166210 0.419072
O O1 0.438706 0.848042 0.469597
O O2 0.488823 0.884769 0.749076
O O3 0.500000 0.000000 0.483387
O O4 0.426414 0.004914 0.675365
O O5 0.595437 0.839672 0.893032
O O6 0.523557 0.815554 0.052350
O O7 0.593921 0.750176 0.227305
O O8 0.099398 0.675452 0.549026
O O9 0.061508 0.849051 0.501082
O O10 0.147579 0.829729 0.473262
O O11 0.155970 0.561998 0.712526
O O12 0.257430 0.601944 0.182567
O O13 0.201884 0.758576 0.249901
O O14 0.202604 0.651679 0.951598
O O15 0.267768 0.780384 0.051592
O O16 0.710973 0.550823 0.376753
O O17 0.000000 0.500000 0.019012
#
# Coordination Sequence:
#
# PCOD9366397 Si02
#       8
#     8   8   8   8   8   8   8   8
#     4  10  20  41  64  92 129 172 219 278 332 392
#     4  11  23  41  65  90 130 181 218 278 340 390
#     4  11  25  42  64 101 133 174 230 285 326 412
#     4  12  23  44  66  96 135 174 224 277 338 396
#     4  10  23  42  67 102 127 175 223 264 347 403
#     4  11  22  40  70  93 131 178 210 276 335 393
#     4  10  20  40  65  90 129 178 220 274 337 387
#     4  11  22  44  67  98 139 168 222 280 335 405
#
# _framework density 21.163125000000001
#
# number of rings (size 3 to 8) (size 9 to 14) (size 15 to 20)
#    0.000    1.250    3.750    3.750    1.750    0.000 
#    2.250    0.000    0.000    0.000    0.000    0.000 
#    0.000    0.000    0.000    0.000    0.000    0.000 
#
# Total GULP energy -178680.457395 kJ/mol
# GULP energy per Si atom -5583.764294 kJ/mol
# Density = 2.111496 g / cm^3
# Si number density = 21.163125 Si / 1000 Ang^3
#
#
#
# Elastic Constant Matrix: (Units=GPa)
#
#
# Indices 1 2 3 4 5 6 
#
# 1 91.7443 25.4015 -2.4102 0.0000 0.0000 0.0000
# 2 25.4015 119.1653 8.3831 0.0000 0.0000 0.0000
# 3 -2.4102 8.3831 29.9817 0.0000 0.0000 0.0000
# 4 0.0000 0.0000 0.0000 25.5649 0.0000 0.0000
# 5 0.0000 0.0000 0.0000 0.0000 -6.7732 0.0000
# 6 0.0000 0.0000 0.0000 0.0000 0.0000 -28.2370
#
#
#
# Elastic Compliance Matrix: (Units=1/GPa)
#
#
# Indices 1 2 3 4 5 6 
#
# 1 0.011664 -0.002604 0.001666 0.000000 0.000000 0.000000
# 2 -0.002604 0.009141 -0.002765 0.000000 0.000000 0.000000
# 3 0.001666 -0.002765 0.034261 0.000000 0.000000 0.000000
# 4 0.000000 0.000000 0.000000 0.039116 0.000000 0.000000
# 5 0.000000 0.000000 0.000000 0.000000 -0.147640 0.000000
# 6 0.000000 0.000000 0.000000 0.000000 0.000000 -0.035415
#
#
# Mechanical properties :
#
#
# Convention : Reuss Voigt Hill
#
# Bulk Modulus (GPa) = 20.98191 33.73779 27.35985
# Shear Modulus (GPa) = -76.24402 12.07873 -32.08265
#
# Velocity S-wave (km/s) = -6.00875 2.39162 -3.89777
# Velocity P-wave (km/s) = 6.18095 4.85827 2.70197
#
# Compressibility (1/GPa) = 0.04766010
#
# Stress axis : x y z
#
# Youngs Moduli (GPa) = 85.73035 109.39455 29.18792
#
# Poissons Ratio (x) = 0.28482 -0.04862
# Poissons Ratio (y) = 0.22321 0.08071
# Poissons Ratio (z) = -0.14280 0.30250
#
# Static dielectric constant tensor:
#      x y z
#    x 1.810260 0.000000 0.000000 
#    y 0.000000 1.769960 0.000000 
#    z 0.000000 0.000000 1.793470 
# 
# From -- ./inp_files/3975.got.cif
#   From: 2010.05.17/outbox.cif.g08.bks.cpg/sg41_2_cif.got.tgz:3975.got - 2010.06.03 18:54:24.
