data_PCOD9366764
_publ_section_title
;
Structure prediction by ZEFSAII (Michael W. Deem and Ramdas Pophale) SiO2 
 PCOD9366764
Probable space group: A B A 2
;
_chemical_formula_sum "Si O2"
_cell_formula_units_Z 44
_cell_length_a 10.189188
_cell_length_b 14.765698
_cell_length_c 11.225235
_cell_angle_alpha 90.000000
_cell_angle_beta 90.000000
_cell_angle_gamma 90.000000
_cell_volume 1688.841914
_symmetry_space_group_name_H-M "A B A 2"
_symmetry_group_IT_number 41
_symmetry_cell_setting 'orthorhombic'
loop_
_space_group_symop_operation_xyz
x,y,z
-x,-y,z
1/2-x,y,1/2+z
1/2+x,-y,1/2+z
x,1/2+y,1/2+z
-x,1/2-y,1/2+z
1/2-x,1/2+y,z
1/2+x,1/2-y,z
loop_
_atom_site_type_symbol
_atom_site_label
_atom_site_fract_x
_atom_site_fract_y
_atom_site_fract_z
Si Si1 0.203417 0.373393 0.254990
Si Si2 0.103418 0.567804 0.949473
Si Si3 0.138858 0.761017 0.964374
Si Si4 0.146550 0.502324 0.583537
Si Si5 0.382313 0.201172 0.619497
Si Si6 0.500000 0.500000 0.680156
O O1 0.220776 0.333767 0.386555
O O2 0.313819 0.414413 0.164745
O O3 0.116964 0.289154 0.204018
O O4 0.113134 0.461153 0.258474
O O5 0.241679 0.521502 0.983870
O O6 0.000000 0.500000 0.887931
O O7 0.042506 0.575475 0.084026
O O8 0.105059 0.667156 0.896483
O O9 0.245006 0.723524 0.055730
O O10 0.005261 0.794476 0.027268
O O11 0.000000 0.500000 0.533113
O O12 0.138556 0.596611 0.658778
#
# Coordination Sequence:
#
# PCOD9366764 Si02
#       6
#     8   8   8   8   8   4
#     4  11  23  45  72 101 143 185 240 295 359 430
#     4   8  16  38  71 100 137 185 231 284 360 422
#     4  11  23  42  71 108 138 190 237 301 356 435
#     4  10  21  40  68 104 137 184 227 293 351 418
#     4  11  24  45  70 102 146 184 240 299 360 422
#     4   8  16  40  72  90 132 182 224 282 354 404
#
# _framework density 26.053355
#
# number of rings (size 3 to 8) (size 9 to 14) (size 15 to 20)
#    0.545    1.455    1.818    1.091    0.000    2.909 
#    4.909    8.182    2.000    0.000    0.000    0.000 
#    0.000    0.000    0.000    0.000    0.000    0.000 
#
# Total GULP energy -122544.650817 kJ/mol
# GULP energy per Si atom -5570.211401 kJ/mol
# Density = 2.599406 g / cm^3
# Si number density = 26.053355 Si / 1000 Ang^3
#
#
#
# Elastic Constant Matrix: (Units=GPa)
#
#
# Indices 1 2 3 4 5 6 
#
# 1 138.2296 25.2270 7.0291 0.0000 0.0000 0.0000
# 2 25.2270 171.0191 43.6595 0.0000 0.0000 0.0000
# 3 7.0291 43.6595 39.7118 0.0000 0.0000 0.0000
# 4 0.0000 0.0000 0.0000 36.6471 0.0000 0.0000
# 5 0.0000 0.0000 0.0000 0.0000 18.3486 0.0000
# 6 0.0000 0.0000 0.0000 0.0000 0.0000 39.9722
#
#
#
# Elastic Compliance Matrix: (Units=1/GPa)
#
#
# Indices 1 2 3 4 5 6 
#
# 1 0.007435 -0.001058 -0.000153 0.000000 0.000000 0.000000
# 2 -0.001058 0.008279 -0.008915 0.000000 0.000000 0.000000
# 3 -0.000153 -0.008915 0.035010 0.000000 0.000000 0.000000
# 4 0.000000 0.000000 0.000000 0.027287 0.000000 0.000000
# 5 0.000000 0.000000 0.000000 0.000000 0.054500 0.000000
# 6 0.000000 0.000000 0.000000 0.000000 0.000000 0.025017
#
#
# Mechanical properties :
#
#
# Convention : Reuss Voigt Hill
#
# Bulk Modulus (GPa) = 32.81666 55.64352 44.23009
# Shear Modulus (GPa) = 26.60446 37.19657 31.90051
#
# Velocity S-wave (km/s) = 3.19902 3.78260 3.50298
# Velocity P-wave (km/s) = 5.12525 6.36249 5.77709
#
# Compressibility (1/GPa) = 0.03047233
#
# Stress axis : x y z
#
# Youngs Moduli (GPa) = 134.49620 120.78397 28.56336
#
# Poissons Ratio (x) = 0.12774 0.00438
# Poissons Ratio (y) = 0.14225 0.25464
# Poissons Ratio (z) = 0.02061 1.07680
#
# Static dielectric constant tensor:
#      x y z
#    x 2.090310 0.000000 0.000000 
#    y 0.000000 2.238720 0.000000 
#    z 0.000000 0.000000 2.153310 
# 
# From -- ./inp_files/7260.got.cif
#   From: 2010.05.17/outbox.cif.g08.bks.cpg/sg41_4_cif.got.tgz:7260.got - 2010.06.03 18:54:24.
