data_PCOD9366169
_publ_section_title
;
Structure prediction by ZEFSAII (Michael W. Deem and Ramdas Pophale) SiO2 
 PCOD9366169
Probable space group: A B A 2
;
_chemical_formula_sum "Si O2"
_cell_formula_units_Z 64
_cell_length_a 5.307654
_cell_length_b 30.079052
_cell_length_c 17.977066
_cell_angle_alpha 90.000000
_cell_angle_beta 90.000000
_cell_angle_gamma 90.000000
_cell_volume 2870.024217
_symmetry_space_group_name_H-M "A B A 2"
_symmetry_group_IT_number 41
_symmetry_cell_setting 'orthorhombic'
loop_
_space_group_symop_operation_xyz
x,y,z
-x,-y,z
1/2-x,y,1/2+z
1/2+x,-y,1/2+z
x,1/2+y,1/2+z
-x,1/2-y,1/2+z
1/2-x,1/2+y,z
1/2+x,1/2-y,z
loop_
_atom_site_type_symbol
_atom_site_label
_atom_site_fract_x
_atom_site_fract_y
_atom_site_fract_z
Si Si1 0.900194 0.807405 0.983040
Si Si2 0.792330 0.117863 0.530533
Si Si3 0.395119 0.263970 0.352329
Si Si4 0.492827 0.138134 0.885082
Si Si5 0.077346 0.405269 0.730405
Si Si6 0.704677 0.274065 0.143518
Si Si7 0.740528 0.027962 0.623430
Si Si8 0.411440 0.634863 0.668849
O O1 0.956144 0.765959 0.926626
O O2 0.747677 0.840857 0.927882
O O3 0.772930 0.784332 0.054438
O O4 0.107049 0.839833 0.021602
O O5 0.871028 0.108819 0.446802
O O6 0.727483 0.072358 0.572520
O O7 0.022087 0.133878 0.581842
O O8 0.659254 0.256955 0.311543
O O9 0.359971 0.316010 0.366883
O O10 0.482015 0.109081 0.811411
O O11 0.188398 0.453159 0.707018
O O12 0.322405 0.374825 0.709432
O O13 0.819456 0.398488 0.683534
O O14 0.413067 0.263548 0.157250
O O15 0.797944 0.317548 0.186263
O O16 0.500000 0.000000 0.601105
O O17 0.000000 0.000000 0.618110
#
# Coordination Sequence:
#
# PCOD9366169 Si02
#       8
#     8   8   8   8   8   8   8   8
#     4  11  22  37  65 105 143 185 239 300 356 414
#     4  11  23  43  75 106 135 182 239 307 363 425
#     4  10  20  36  55  97 135 186 228 281 328 405
#     4  11  24  40  69 104 142 188 242 289 345 415
#     4  11  26  47  71  98 142 191 231 289 372 452
#     4  12  22  35  60  92 133 182 246 303 347 389
#     4  11  25  48  77 106 138 181 235 294 376 458
#     4  11  24  44  64  96 138 191 242 286 359 435
#
# _framework density 22.299465000000001
#
# number of rings (size 3 to 8) (size 9 to 14) (size 15 to 20)
#    0.000    1.000    2.500    6.000    3.500    0.000 
#    0.000    8.750    0.000    0.000    0.000    0.000 
#    0.000    0.000    0.000    0.000    0.000    0.000 
#
# Total GULP energy -178468.905977 kJ/mol
# GULP energy per Si atom -5577.153312 kJ/mol
# Density = 2.224871 g / cm^3
# Si number density = 22.299465 Si / 1000 Ang^3
#
#
#
# Elastic Constant Matrix: (Units=GPa)
#
#
# Indices 1 2 3 4 5 6 
#
# 1 103.1779 17.0938 24.6480 0.0000 0.0000 0.0000
# 2 17.0938 90.2442 22.8075 0.0000 0.0000 0.0000
# 3 24.6480 22.8075 82.6852 0.0000 0.0000 0.0000
# 4 0.0000 0.0000 0.0000 33.8704 0.0000 0.0000
# 5 0.0000 0.0000 0.0000 0.0000 26.5209 0.0000
# 6 0.0000 0.0000 0.0000 0.0000 0.0000 39.8741
#
#
#
# Elastic Compliance Matrix: (Units=1/GPa)
#
#
# Indices 1 2 3 4 5 6 
#
# 1 0.010574 -0.001297 -0.002794 0.000000 0.000000 0.000000
# 2 -0.001297 0.012070 -0.002943 0.000000 0.000000 0.000000
# 3 -0.002794 -0.002943 0.013739 0.000000 0.000000 0.000000
# 4 0.000000 0.000000 0.000000 0.029524 0.000000 0.000000
# 5 0.000000 0.000000 0.000000 0.000000 0.037706 0.000000
# 6 0.000000 0.000000 0.000000 0.000000 0.000000 0.025079
#
#
# Mechanical properties :
#
#
# Convention : Reuss Voigt Hill
#
# Bulk Modulus (GPa) = 44.81201 45.02287 44.91744
# Shear Modulus (GPa) = 33.28901 34.15694 33.72297
#
# Velocity S-wave (km/s) = 3.86789 3.91799 3.89302
# Velocity P-wave (km/s) = 6.33140 6.37977 6.35563
#
# Compressibility (1/GPa) = 0.02231544
#
# Stress axis : x y z
#
# Youngs Moduli (GPa) = 94.56800 82.84705 72.78633
#
# Poissons Ratio (x) = 0.10743 0.20340
# Poissons Ratio (y) = 0.12263 0.21420
# Poissons Ratio (z) = 0.26427 0.24381
#
# Static dielectric constant tensor:
#      x y z
#    x 1.951360 0.000000 0.000000 
#    y 0.000000 1.849990 0.000000 
#    z 0.000000 0.000000 1.879190 
# 
# From -- ./inp_files/9503.got.cif
#   From: 2010.05.17/outbox.cif.g08.bks.cpg/sg41_5_cif.got.tgz:9503.got - 2010.06.03 18:54:24.
