data_PCOD9366809
_publ_section_title
;
Structure prediction by ZEFSAII (Michael W. Deem and Ramdas Pophale) SiO2 
 PCOD9366809
Probable space group: A B A 2
;
_chemical_formula_sum "Si O2"
_cell_formula_units_Z 60
_cell_length_a 21.476604
_cell_length_b 28.334996
_cell_length_c 5.041518
_cell_angle_alpha 90.000000
_cell_angle_beta 90.000000
_cell_angle_gamma 90.000000
_cell_volume 3067.962785
_symmetry_space_group_name_H-M "A B A 2"
_symmetry_group_IT_number 41
_symmetry_cell_setting 'orthorhombic'
loop_
_space_group_symop_operation_xyz
x,y,z
-x,-y,z
1/2-x,y,1/2+z
1/2+x,-y,1/2+z
x,1/2+y,1/2+z
-x,1/2-y,1/2+z
1/2-x,1/2+y,z
1/2+x,1/2-y,z
loop_
_atom_site_type_symbol
_atom_site_label
_atom_site_fract_x
_atom_site_fract_y
_atom_site_fract_z
Si Si1 0.468508 0.096392 0.328220
Si Si2 0.000000 0.500000 0.620195
Si Si3 0.611086 0.108711 0.318218
Si Si4 0.707633 0.300516 0.317196
Si Si5 0.208237 0.810196 0.851344
Si Si6 0.709664 0.961447 0.660965
Si Si7 0.388927 0.618857 0.314528
Si Si8 0.622884 0.046310 0.824335
O O1 0.537665 0.115054 0.269221
O O2 0.436328 0.123939 0.570184
O O3 0.476191 0.042866 0.436635
O O4 0.426125 0.100514 0.069718
O O5 0.056738 0.480547 0.796216
O O6 0.651581 0.155376 0.288159
O O7 0.619344 0.088676 0.613759
O O8 0.632529 0.068061 0.113255
O O9 0.761379 0.310281 0.532935
O O10 0.691478 0.245099 0.332121
O O11 0.648910 0.333514 0.368928
O O12 0.263399 0.819067 0.641014
O O13 0.731511 0.957825 0.358170
O O14 0.661907 0.919874 0.728293
O O15 0.675681 0.010198 0.732500
#
# Coordination Sequence:
#
# PCOD9366809 Si02
#       8
#     8   4   8   8   8   8   8   8
#     4  11  24  37  63  86 124 162 212 243 299 353
#     4  10  22  42  60  86 116 174 216 250 276 374
#     4  11  24  40  60  93 120 157 203 259 291 363
#     4  10  21  41  66  92 118 158 206 253 304 374
#     4  10  22  41  68  90 118 158 202 250 313 372
#     4  12  25  38  55  86 122 155 194 248 307 355
#     4  12  23  40  61  90 120 164 201 251 303 361
#     4  11  24  38  61  84 120 162 203 250 297 354
#
# _framework density 19.556951999999999
#
# number of rings (size 3 to 8) (size 9 to 14) (size 15 to 20)
#    0.000    1.067    1.333    5.600    3.733    4.267 
#    0.000    1.333    0.000    0.000    0.000    0.000 
#    0.000    0.000    0.000    0.000    0.000    0.000 
#
# Total GULP energy -167883.869847 kJ/mol
# GULP energy per Si atom -5596.128995 kJ/mol
# Density = 1.951244 g / cm^3
# Si number density = 19.556952 Si / 1000 Ang^3
#
#
#
# Elastic Constant Matrix: (Units=GPa)
#
#
# Indices 1 2 3 4 5 6 
#
# 1 57.9238 48.6525 -12.6782 0.0000 0.0000 0.0000
# 2 48.6525 67.8869 -6.9220 0.0000 0.0000 0.0000
# 3 -12.6782 -6.9220 42.8019 0.0000 0.0000 0.0000
# 4 0.0000 0.0000 0.0000 14.4029 0.0000 0.0000
# 5 0.0000 0.0000 0.0000 0.0000 26.8757 0.0000
# 6 0.0000 0.0000 0.0000 0.0000 0.0000 25.9530
#
#
#
# Elastic Compliance Matrix: (Units=1/GPa)
#
#
# Indices 1 2 3 4 5 6 
#
# 1 0.046208 -0.032252 0.008471 0.000000 0.000000 0.000000
# 2 -0.032252 0.037489 -0.003491 0.000000 0.000000 0.000000
# 3 0.008471 -0.003491 0.025308 0.000000 0.000000 0.000000
# 4 0.000000 0.000000 0.000000 0.069431 0.000000 0.000000
# 5 0.000000 0.000000 0.000000 0.000000 0.037208 0.000000
# 6 0.000000 0.000000 0.000000 0.000000 0.000000 0.038531
#
#
# Mechanical properties :
#
#
# Convention : Reuss Voigt Hill
#
# Bulk Modulus (GPa) = 18.36146 25.19080 21.77613
# Shear Modulus (GPa) = 15.29648 22.75033 19.02341
#
# Velocity S-wave (km/s) = 2.79973 3.41440 3.12223
# Velocity P-wave (km/s) = 4.45650 5.33412 4.91494
#
# Compressibility (1/GPa) = 0.05446190
#
# Stress axis : x y z
#
# Youngs Moduli (GPa) = 21.64116 26.67468 39.51290
#
# Poissons Ratio (x) = 0.86032 -0.33473
# Poissons Ratio (y) = 0.69798 0.13792
# Poissons Ratio (z) = -0.18333 0.09311
#
# Static dielectric constant tensor:
#      x y z
#    x 1.675320 0.000000 0.000000 
#    y 0.000000 1.665120 0.000000 
#    z 0.000000 0.000000 1.673870 
# 
# From -- ./inp_files/565.got.cif
#   From: 2010.05.17/outbox.cif.g08.bks.cpg/sg41_1_cif.got.tgz:565.got - 2010.06.03 18:54:24.
