data_PCOD9366566
_publ_section_title
;
Structure prediction by ZEFSAII (Michael W. Deem and Ramdas Pophale) SiO2 
 PCOD9366566
Probable space group: A B A 2
;
_chemical_formula_sum "Si O2"
_cell_formula_units_Z 56
_cell_length_a 16.741798
_cell_length_b 13.941770
_cell_length_c 10.758051
_cell_angle_alpha 90.000000
_cell_angle_beta 90.000000
_cell_angle_gamma 90.000000
_cell_volume 2511.039880
_symmetry_space_group_name_H-M "A B A 2"
_symmetry_group_IT_number 41
_symmetry_cell_setting 'orthorhombic'
loop_
_space_group_symop_operation_xyz
x,y,z
-x,-y,z
1/2-x,y,1/2+z
1/2+x,-y,1/2+z
x,1/2+y,1/2+z
-x,1/2-y,1/2+z
1/2-x,1/2+y,z
1/2+x,1/2-y,z
loop_
_atom_site_type_symbol
_atom_site_label
_atom_site_fract_x
_atom_site_fract_y
_atom_site_fract_z
Si Si1 0.447732 0.203690 0.825180
Si Si2 0.854000 0.492213 0.349690
Si Si3 0.500000 0.500000 0.403954
Si Si4 0.854000 0.007788 0.573676
Si Si5 0.219818 0.156182 0.403925
Si Si6 0.219818 0.343818 0.519441
Si Si7 0.052268 0.796310 0.098185
Si Si8 0.000000 0.000000 0.019411
O O1 0.469900 0.091982 0.832118
O O2 0.351027 0.197816 0.816485
O O3 0.500000 0.246543 0.711683
O O4 0.463778 0.250000 0.961683
O O5 0.885978 0.500000 0.211683
O O6 0.782434 0.415734 0.343946
O O7 0.820883 0.590908 0.410714
O O8 0.926012 0.462768 0.438016
O O9 0.573987 0.537233 0.485350
O O10 0.782434 0.084266 0.579419
O O11 0.820883 0.909092 0.512652
O O12 0.260318 0.250000 0.461683
O O13 0.148973 0.302184 0.606880
O O14 0.030099 0.908018 0.091247
#
# Coordination Sequence:
#
# PCOD9366566 Si02
#       8
#     8   8   4   8   8   8   8   4
#     4  10  22  40  64  92 125 164 209 257 311 371
#     4  10  21  37  59  86 121 162 209 258 309 366
#     4  10  22  38  58  88 123 162 205 254 313 372
#     4  10  21  37  59  86 121 162 209 258 309 366
#     4   9  21  39  58  87 121 158 206 258 311 371
#     4   9  21  39  58  87 121 158 206 258 311 371
#     4  10  22  40  64  92 125 164 209 257 311 371
#     4  10  22  38  58  88 123 162 205 254 313 372
#
# _framework density 22.301518000000002
#
# number of rings (size 3 to 8) (size 9 to 14) (size 15 to 20)
#    0.000    2.286    0.000    0.857    0.000   16.000 
#    0.000    0.000    0.000    0.000    0.000    0.000 
#    0.000    0.000    0.000    0.000    0.000    0.000 
#
# Total GULP energy -156216.892653 kJ/mol
# GULP energy per Si atom -5579.174738 kJ/mol
# Density = 2.225076 g / cm^3
# Si number density = 22.301518 Si / 1000 Ang^3
#
#
#
# Elastic Constant Matrix: (Units=GPa)
#
#
# Indices 1 2 3 4 5 6 
#
# 1 73.3063 16.7090 34.0254 0.0000 0.0000 0.0000
# 2 16.7090 75.4031 -16.3433 0.0000 0.0000 0.0000
# 3 34.0254 -16.3433 67.3538 0.0000 0.0000 0.0000
# 4 0.0000 0.0000 0.0000 1.7829 0.0000 0.0000
# 5 0.0000 0.0000 0.0000 0.0000 -286.8071 0.0000
# 6 0.0000 0.0000 0.0000 0.0000 0.0000 -1.1286
#
#
#
# Elastic Compliance Matrix: (Units=1/GPa)
#
#
# Indices 1 2 3 4 5 6 
#
# 1 0.021100 -0.007374 -0.012449 0.000000 0.000000 0.000000
# 2 -0.007374 0.016575 0.007747 0.000000 0.000000 0.000000
# 3 -0.012449 0.007747 0.023015 0.000000 0.000000 0.000000
# 4 0.000000 0.000000 0.000000 0.560876 0.000000 0.000000
# 5 0.000000 0.000000 0.000000 0.000000 -0.003487 0.000000
# 6 0.000000 0.000000 0.000000 0.000000 0.000000 -0.886033
#
#
# Mechanical properties :
#
#
# Convention : Reuss Voigt Hill
#
# Bulk Modulus (GPa) = 27.36716 31.64947 29.50831
# Shear Modulus (GPa) = -21.58690 -45.11908 -33.35299
#
# Velocity S-wave (km/s) = -3.11458 -4.50281 -3.87143
# Velocity P-wave (km/s) = 0.79752 3.57929 2.59301
#
# Compressibility (1/GPa) = 0.03654014
#
# Stress axis : x y z
#
# Youngs Moduli (GPa) = 47.39300 60.33112 43.44907
#
# Poissons Ratio (x) = 0.44487 0.54088
# Poissons Ratio (y) = 0.34947 -0.33660
# Poissons Ratio (z) = 0.58997 -0.46739
#
# Static dielectric constant tensor:
#      x y z
#    x 1.815370 0.000000 0.000000 
#    y 0.000000 1.775570 0.000000 
#    z 0.000000 0.000000 1.853310 
# 
# From -- ./inp_files/5641.got.cif
#   From: 2010.05.17/outbox.cif.g08.bks.cpg/sg41_3_cif.got.tgz:5641.got - 2010.06.03 18:54:24.
