data_PCOD9366040
_publ_section_title
;
Structure prediction by ZEFSAII (Michael W. Deem and Ramdas Pophale) SiO2 
 PCOD9366040
Probable space group: A B A 2
;
_chemical_formula_sum "Si O2"
_cell_formula_units_Z 40
_cell_length_a 9.631343
_cell_length_b 11.434064
_cell_length_c 16.286378
_cell_angle_alpha 90.000000
_cell_angle_beta 90.000000
_cell_angle_gamma 90.000000
_cell_volume 1793.543766
_symmetry_space_group_name_H-M "A B A 2"
_symmetry_group_IT_number 41
_symmetry_cell_setting 'orthorhombic'
loop_
_space_group_symop_operation_xyz
x,y,z
-x,-y,z
1/2-x,y,1/2+z
1/2+x,-y,1/2+z
x,1/2+y,1/2+z
-x,1/2-y,1/2+z
1/2-x,1/2+y,z
1/2+x,1/2-y,z
loop_
_atom_site_type_symbol
_atom_site_label
_atom_site_fract_x
_atom_site_fract_y
_atom_site_fract_z
Si Si1 0.871982 0.428502 0.609460
Si Si2 0.021232 0.359622 0.918326
Si Si3 0.217319 0.867916 0.680302
Si Si4 0.484987 0.761214 0.740293
Si Si5 0.230600 0.752554 0.004785
O O1 0.780545 0.503014 0.673696
O O2 0.948196 0.333467 0.665420
O O3 0.787733 0.372399 0.535872
O O4 0.000000 0.500000 0.573255
O O5 0.177869 0.315724 0.935577
O O6 0.000000 0.500000 0.929845
O O7 0.981419 0.321522 0.826370
O O8 0.924424 0.279865 0.977716
O O9 0.320896 0.778465 0.727469
O O10 0.067027 0.858868 0.722585
O O11 0.237879 0.830712 0.585029
#
# Coordination Sequence:
#
# PCOD9366040 Si02
#       5
#     8   8   8   8   8
#     4   9  18  36  59  81 110 153 200 248 301 368
#     4  12  24  39  59  90 127 162 202 262 324 374
#     4  10  19  38  60  81 110 153 203 248 298 367
#     4  10  21  36  58  82 112 152 195 244 304 366
#     4  11  23  37  60  88 119 158 205 256 313 375
#
# _framework density 22.302216999999999
#
# number of rings (size 3 to 8) (size 9 to 14) (size 15 to 20)
#    0.000    1.600    0.000    7.800    0.000    0.000 
#    0.000    3.000    0.000    9.600    0.000    0.000 
#    0.000    0.000    0.000    0.000    0.000    0.000 
#
# Total GULP energy -111476.768160 kJ/mol
# GULP energy per Si atom -5573.838408 kJ/mol
# Density = 2.225146 g / cm^3
# Si number density = 22.302217 Si / 1000 Ang^3
#
#
#
# Elastic Constant Matrix: (Units=GPa)
#
#
# Indices 1 2 3 4 5 6 
#
# 1 54.6199 21.4299 3.6945 0.0000 0.0000 0.0000
# 2 21.4299 46.6172 -7.6855 0.0000 0.0000 0.0000
# 3 3.6945 -7.6855 65.0566 0.0000 0.0000 0.0000
# 4 0.0000 0.0000 0.0000 13.7659 0.0000 0.0000
# 5 0.0000 0.0000 0.0000 0.0000 35.3847 0.0000
# 6 0.0000 0.0000 0.0000 0.0000 0.0000 29.8050
#
#
#
# Elastic Compliance Matrix: (Units=1/GPa)
#
#
# Indices 1 2 3 4 5 6 
#
# 1 0.022753 -0.010885 -0.002578 0.000000 0.000000 0.000000
# 2 -0.010885 0.027084 0.003818 0.000000 0.000000 0.000000
# 3 -0.002578 0.003818 0.015969 0.000000 0.000000 0.000000
# 4 0.000000 0.000000 0.000000 0.072643 0.000000 0.000000
# 5 0.000000 0.000000 0.000000 0.000000 0.028261 0.000000
# 6 0.000000 0.000000 0.000000 0.000000 0.000000 0.033551
#
#
# Mechanical properties :
#
#
# Convention : Reuss Voigt Hill
#
# Bulk Modulus (GPa) = 21.49777 22.35240 21.92509
# Shear Modulus (GPa) = 21.27141 25.71477 23.49309
#
# Velocity S-wave (km/s) = 3.09168 3.39929 3.24913
# Velocity P-wave (km/s) = 4.73338 5.04491 4.89163
#
# Compressibility (1/GPa) = 0.04651644
#
# Stress axis : x y z
#
# Youngs Moduli (GPa) = 43.94970 36.92162 62.62276
#
# Poissons Ratio (x) = 0.40188 0.16144
# Poissons Ratio (y) = 0.47838 -0.23908
# Poissons Ratio (z) = 0.11330 -0.14096
#
# Static dielectric constant tensor:
#      x y z
#    x 1.967280 0.000000 0.000000 
#    y 0.000000 2.016430 0.000000 
#    z 0.000000 0.000000 1.806060 
# 
# From -- ./inp_files/7189.got.cif
#   From: 2010.05.17/outbox.cif.g08.bks.cpg/sg41_4_cif.got.tgz:7189.got - 2010.06.03 18:54:24.
