data_PCOD9366430
_publ_section_title
;
Structure prediction by ZEFSAII (Michael W. Deem and Ramdas Pophale) SiO2 
 PCOD9366430
Probable space group: A B A 2
;
_chemical_formula_sum "Si O2"
_cell_formula_units_Z 52
_cell_length_a 23.461959
_cell_length_b 5.310142
_cell_length_c 18.544276
_cell_angle_alpha 90.000000
_cell_angle_beta 90.000000
_cell_angle_gamma 90.000000
_cell_volume 2310.363361
_symmetry_space_group_name_H-M "A B A 2"
_symmetry_group_IT_number 41
_symmetry_cell_setting 'orthorhombic'
loop_
_space_group_symop_operation_xyz
x,y,z
-x,-y,z
1/2-x,y,1/2+z
1/2+x,-y,1/2+z
x,1/2+y,1/2+z
-x,1/2-y,1/2+z
1/2-x,1/2+y,z
1/2+x,1/2-y,z
loop_
_atom_site_type_symbol
_atom_site_label
_atom_site_fract_x
_atom_site_fract_y
_atom_site_fract_z
Si Si1 0.723671 0.779369 0.068180
Si Si2 0.000000 0.000000 0.000327
Si Si3 0.231137 0.136767 0.232175
Si Si4 0.595706 0.862472 0.039165
Si Si5 0.436992 0.389174 0.673552
Si Si6 0.107636 0.891390 0.242191
Si Si7 0.561754 0.619949 0.400207
O O1 0.757361 0.545188 0.035205
O O2 0.745006 0.808306 0.151353
O O3 0.655965 0.745122 0.061455
O O4 0.955630 0.862771 0.946727
O O5 0.039512 0.812365 0.046296
O O6 0.231417 0.413686 0.266928
O O7 0.169157 0.015225 0.230950
O O8 0.583516 0.102341 0.090582
O O9 0.595497 0.945106 0.956256
O O10 0.500000 0.500000 0.682088
O O11 0.431526 0.114201 0.708256
O O12 0.398925 0.615620 0.707421
O O13 0.093797 0.851058 0.325884
O O14 0.500000 0.500000 0.383744
#
# Coordination Sequence:
#
# PCOD9366430 Si02
#       7
#     8   4   8   8   8   8   8
#     4  10  21  39  66  97 132 179 234 291 360 423
#     4  10  24  44  74 100 150 198 248 298 380 448
#     4  10  20  41  63  94 127 176 226 283 352 416
#     4  11  25  43  71 101 144 190 244 302 363 442
#     4  12  25  40  65 106 137 176 231 297 358 423
#     4  12  26  43  71  99 140 183 234 298 356 425
#     4  10  24  45  67 100 140 195 234 287 364 439
#
# _framework density 22.507283999999999
#
# number of rings (size 3 to 8) (size 9 to 14) (size 15 to 20)
#    0.000    1.231    0.000    7.385   11.846    0.000 
#    0.000    1.538    0.000    0.000    0.000    0.000 
#    0.000    0.000    0.000    0.000    0.000    0.000 
#
# Total GULP energy -145232.946726 kJ/mol
# GULP energy per Si atom -5585.882566 kJ/mol
# Density = 2.245606 g / cm^3
# Si number density = 22.507284 Si / 1000 Ang^3
#
#
#
# Elastic Constant Matrix: (Units=GPa)
#
#
# Indices 1 2 3 4 5 6 
#
# 1 91.3185 1.7189 31.6725 0.0000 0.0000 0.0000
# 2 1.7189 128.1749 20.0836 0.0000 0.0000 0.0000
# 3 31.6725 20.0836 97.2621 0.0000 0.0000 0.0000
# 4 0.0000 0.0000 0.0000 14.7044 0.0000 0.0000
# 5 0.0000 0.0000 0.0000 0.0000 33.8698 0.0000
# 6 0.0000 0.0000 0.0000 0.0000 0.0000 35.6421
#
#
#
# Elastic Compliance Matrix: (Units=1/GPa)
#
#
# Indices 1 2 3 4 5 6 
#
# 1 0.012374 0.000481 -0.004129 0.000000 0.000000 0.000000
# 2 0.000481 0.008081 -0.001825 0.000000 0.000000 0.000000
# 3 -0.004129 -0.001825 0.012003 0.000000 0.000000 0.000000
# 4 0.000000 0.000000 0.000000 0.068007 0.000000 0.000000
# 5 0.000000 0.000000 0.000000 0.000000 0.029525 0.000000
# 6 0.000000 0.000000 0.000000 0.000000 0.000000 0.028057
#
#
# Mechanical properties :
#
#
# Convention : Reuss Voigt Hill
#
# Bulk Modulus (GPa) = 46.48610 47.07837 46.78223
# Shear Modulus (GPa) = 28.38280 34.39529 31.38905
#
# Velocity S-wave (km/s) = 3.55498 3.91344 3.73851
# Velocity P-wave (km/s) = 6.12773 6.43291 6.28218
#
# Compressibility (1/GPa) = 0.02151181
#
# Stress axis : x y z
#
# Youngs Moduli (GPa) = 80.81725 123.74087 83.31340
#
# Poissons Ratio (x) = -0.05952 0.34397
# Poissons Ratio (y) = -0.03887 0.15208
# Poissons Ratio (z) = 0.33367 0.22587
#
# Static dielectric constant tensor:
#      x y z
#    x 1.691140 0.000000 0.000000 
#    y 0.000000 2.005610 0.000000 
#    z 0.000000 0.000000 1.837500 
# 
# From -- ./inp_files/11702.got.cif
#   From: 2010.05.17/outbox.cif.g08.bks.cpg/sg41_6_cif.got.tgz:11702.got - 2010.06.03 18:54:24.
