data_PCOD9366916
_publ_section_title
;
Structure prediction by ZEFSAII (Michael W. Deem and Ramdas Pophale) SiO2 
 PCOD9366916
Probable space group: A B A 2
;
_chemical_formula_sum "Si O2"
_cell_formula_units_Z 32
_cell_length_a 14.964517
_cell_length_b 8.225235
_cell_length_c 12.421945
_cell_angle_alpha 90.000000
_cell_angle_beta 90.000000
_cell_angle_gamma 90.000000
_cell_volume 1528.975832
_symmetry_space_group_name_H-M "A B A 2"
_symmetry_group_IT_number 41
_symmetry_cell_setting 'orthorhombic'
loop_
_space_group_symop_operation_xyz
x,y,z
-x,-y,z
1/2-x,y,1/2+z
1/2+x,-y,1/2+z
x,1/2+y,1/2+z
-x,1/2-y,1/2+z
1/2-x,1/2+y,z
1/2+x,1/2-y,z
loop_
_atom_site_type_symbol
_atom_site_label
_atom_site_fract_x
_atom_site_fract_y
_atom_site_fract_z
Si Si1 0.417710 0.623262 0.514870
Si Si2 0.858099 0.716924 0.298620
Si Si3 0.967063 0.680097 0.703298
Si Si4 0.693033 0.886771 0.221494
O O1 0.500000 0.500000 0.494796
O O2 0.368599 0.685780 0.409327
O O3 0.457991 0.780132 0.577192
O O4 0.347152 0.559336 0.605178
O O5 0.792962 0.821207 0.221793
O O6 0.818764 0.536261 0.302266
O O7 0.956834 0.703764 0.250047
O O8 0.872493 0.736293 0.751909
O O9 0.000000 0.500000 0.725125
#
# Coordination Sequence:
#
# PCOD9366916 Si02
#       4
#     8   8   8   8
#     4  10  23  46  69 101 145 189 240 304 361 430
#     4  12  22  43  72  95 142 197 231 302 369 418
#     4  10  21  44  67  98 140 181 237 303 350 426
#     4  10  24  43  64 108 145 178 248 303 342 446
#
# _framework density 20.929041999999999
#
# number of rings (size 3 to 8) (size 9 to 14) (size 15 to 20)
#    1.500    0.000    2.500    3.000    0.000    4.000 
#    4.500    0.000    0.000    0.000    0.000    0.000 
#    0.000    0.000    0.000    0.000    0.000    0.000 
#
# Total GULP energy -89142.296106 kJ/mol
# GULP energy per Si atom -5571.393507 kJ/mol
# Density = 2.088141 g / cm^3
# Si number density = 20.929042 Si / 1000 Ang^3
#
#
#
# Elastic Constant Matrix: (Units=GPa)
#
#
# Indices 1 2 3 4 5 6 
#
# 1 70.6367 -0.8402 33.3420 0.0000 0.0000 0.0000
# 2 -0.8402 84.3722 20.5890 0.0000 0.0000 0.0000
# 3 33.3420 20.5890 81.7924 0.0000 0.0000 0.0000
# 4 0.0000 0.0000 0.0000 29.3777 0.0000 0.0000
# 5 0.0000 0.0000 0.0000 0.0000 21.3903 0.0000
# 6 0.0000 0.0000 0.0000 0.0000 0.0000 40.0428
#
#
#
# Elastic Compliance Matrix: (Units=1/GPa)
#
#
# Indices 1 2 3 4 5 6 
#
# 1 0.017867 0.002083 -0.007808 0.000000 0.000000 0.000000
# 2 0.002083 0.012871 -0.004089 0.000000 0.000000 0.000000
# 3 -0.007808 -0.004089 0.016438 0.000000 0.000000 0.000000
# 4 0.000000 0.000000 0.000000 0.034039 0.000000 0.000000
# 5 0.000000 0.000000 0.000000 0.000000 0.046750 0.000000
# 6 0.000000 0.000000 0.000000 0.000000 0.000000 0.024973
#
#
# Mechanical properties :
#
#
# Convention : Reuss Voigt Hill
#
# Bulk Modulus (GPa) = 36.29913 38.10920 37.20417
# Shear Modulus (GPa) = 27.51043 30.40954 28.95998
#
# Velocity S-wave (km/s) = 3.62948 3.81594 3.72388
# Velocity P-wave (km/s) = 5.91149 6.13706 6.02533
#
# Compressibility (1/GPa) = 0.02754887
#
# Stress axis : x y z
#
# Youngs Moduli (GPa) = 55.96857 77.69504 60.83405
#
# Poissons Ratio (x) = -0.16186 0.47498
# Poissons Ratio (y) = -0.11660 0.24876
# Poissons Ratio (z) = 0.43699 0.31770
#
# Static dielectric constant tensor:
#      x y z
#    x 1.742300 0.000000 0.000000 
#    y 0.000000 1.783370 0.000000 
#    z 0.000000 0.000000 1.759750 
# 
# From -- ./inp_files/5269.got.cif
#   From: 2010.05.17/outbox.cif.g08.bks.cpg/sg41_3_cif.got.tgz:5269.got - 2010.06.03 18:54:24.
