data_PCOD9366179
_publ_section_title
;
Structure prediction by ZEFSAII (Michael W. Deem and Ramdas Pophale) SiO2 
 PCOD9366179
Probable space group: A B A 2
;
_chemical_formula_sum "Si O2"
_cell_formula_units_Z 64
_cell_length_a 22.090856
_cell_length_b 8.771169
_cell_length_c 15.803994
_cell_angle_alpha 90.000000
_cell_angle_beta 90.000000
_cell_angle_gamma 90.000000
_cell_volume 3062.223463
_symmetry_space_group_name_H-M "A B A 2"
_symmetry_group_IT_number 41
_symmetry_cell_setting 'orthorhombic'
loop_
_space_group_symop_operation_xyz
x,y,z
-x,-y,z
1/2-x,y,1/2+z
1/2+x,-y,1/2+z
x,1/2+y,1/2+z
-x,1/2-y,1/2+z
1/2-x,1/2+y,z
1/2+x,1/2-y,z
loop_
_atom_site_type_symbol
_atom_site_label
_atom_site_fract_x
_atom_site_fract_y
_atom_site_fract_z
Si Si1 0.692594 0.525971 0.422660
Si Si2 0.775064 0.895765 0.601574
Si Si3 0.724974 0.733236 0.826695
Si Si4 0.552460 0.625677 0.433228
Si Si5 0.868244 0.055250 0.727700
Si Si6 0.430613 0.268990 0.247331
Si Si7 0.810820 0.104394 0.179761
Si Si8 0.027322 0.826290 0.618845
O O1 0.718495 0.454718 0.507548
O O2 0.732562 0.673376 0.401891
O O3 0.705889 0.405350 0.346828
O O4 0.621437 0.560979 0.433399
O O5 0.800532 0.724614 0.603718
O O6 0.819518 0.997288 0.659624
O O7 0.710958 0.941201 0.644908
O O8 0.665385 0.634638 0.805945
O O9 0.768134 0.693939 0.747521
O O10 0.500000 0.500000 0.435298
O O11 0.545353 0.701324 0.341254
O O12 0.542723 0.716123 0.521904
O O13 0.913640 0.164045 0.677560
O O14 0.902705 0.900969 0.752459
O O15 0.376956 0.383530 0.219903
O O16 0.478911 0.270267 0.171546
O O17 0.000000 0.000000 0.615875
#
# Coordination Sequence:
#
# PCOD9366179 Si02
#       8
#     8   8   8   8   8   8   8   8
#     4  12  23  40  60  94 129 159 207 267 316 382
#     4  10  20  36  58  85 121 159 201 249 308 374
#     4  11  23  37  63  91 127 160 204 255 324 380
#     4  11  24  39  63  93 125 165 216 265 314 380
#     4   9  19  38  61  88 113 164 208 246 311 384
#     4  10  20  38  66  87 127 161 215 260 316 367
#     4  10  20  37  59  88 119 162 200 247 313 376
#     4   9  19  39  63  87 115 167 208 254 307 379
#
# _framework density 20.899847000000001
#
# number of rings (size 3 to 8) (size 9 to 14) (size 15 to 20)
#    0.000    1.750    2.500    3.000    3.500    0.000 
#    0.000    0.000    0.000    3.750    0.000    0.000 
#    0.000    0.000    0.000    0.000    0.000    0.000 
#
# Total GULP energy -178468.570108 kJ/mol
# GULP energy per Si atom -5577.142816 kJ/mol
# Density = 2.085228 g / cm^3
# Si number density = 20.899847 Si / 1000 Ang^3
#
#
#
# Elastic Constant Matrix: (Units=GPa)
#
#
# Indices 1 2 3 4 5 6 
#
# 1 107.9107 23.8523 48.9449 0.0000 0.0000 0.0000
# 2 23.8523 32.6218 10.6162 0.0000 0.0000 0.0000
# 3 48.9449 10.6162 112.9643 0.0000 0.0000 0.0000
# 4 0.0000 0.0000 0.0000 25.8703 0.0000 0.0000
# 5 0.0000 0.0000 0.0000 0.0000 22.5041 0.0000
# 6 0.0000 0.0000 0.0000 0.0000 0.0000 18.4556
#
#
#
# Elastic Compliance Matrix: (Units=1/GPa)
#
#
# Indices 1 2 3 4 5 6 
#
# 1 0.013336 -0.008119 -0.005015 0.000000 0.000000 0.000000
# 2 -0.008119 0.036564 0.000082 0.000000 0.000000 0.000000
# 3 -0.005015 0.000082 0.011018 0.000000 0.000000 0.000000
# 4 0.000000 0.000000 0.000000 0.038654 0.000000 0.000000
# 5 0.000000 0.000000 0.000000 0.000000 0.044436 0.000000
# 6 0.000000 0.000000 0.000000 0.000000 0.000000 0.054184
#
#
# Mechanical properties :
#
#
# Convention : Reuss Voigt Hill
#
# Bulk Modulus (GPa) = 28.72515 46.70260 37.71388
# Shear Modulus (GPa) = 21.19515 24.70489 22.95002
#
# Velocity S-wave (km/s) = 3.18799 3.44184 3.31735
# Velocity P-wave (km/s) = 5.22734 6.17976 5.72340
#
# Compressibility (1/GPa) = 0.03481269
#
# Stress axis : x y z
#
# Youngs Moduli (GPa) = 74.98322 27.34908 90.76296
#
# Poissons Ratio (x) = 0.22205 0.45520
# Poissons Ratio (y) = 0.60879 -0.00740
# Poissons Ratio (z) = 0.37606 -0.00223
#
# Static dielectric constant tensor:
#      x y z
#    x 1.788490 0.000000 0.000000 
#    y 0.000000 1.805300 0.000000 
#    z 0.000000 0.000000 1.788100 
# 
# From -- ./inp_files/9144.got.cif
#   From: 2010.05.17/outbox.cif.g08.bks.cpg/sg41_5_cif.got.tgz:9144.got - 2010.06.03 18:54:24.
