data_PCOD9366247
_publ_section_title
;
Structure prediction by ZEFSAII (Michael W. Deem and Ramdas Pophale) SiO2 
 PCOD9366247
Probable space group: A B A 2
;
_chemical_formula_sum "Si O2"
_cell_formula_units_Z 56
_cell_length_a 17.192354
_cell_length_b 17.178133
_cell_length_c 7.733622
_cell_angle_alpha 90.000000
_cell_angle_beta 90.000000
_cell_angle_gamma 90.000000
_cell_volume 2283.990256
_symmetry_space_group_name_H-M "A B A 2"
_symmetry_group_IT_number 41
_symmetry_cell_setting 'orthorhombic'
loop_
_space_group_symop_operation_xyz
x,y,z
-x,-y,z
1/2-x,y,1/2+z
1/2+x,-y,1/2+z
x,1/2+y,1/2+z
-x,1/2-y,1/2+z
1/2-x,1/2+y,z
1/2+x,1/2-y,z
loop_
_atom_site_type_symbol
_atom_site_label
_atom_site_fract_x
_atom_site_fract_y
_atom_site_fract_z
Si Si1 0.867996 0.286334 0.301660
Si Si2 0.117995 0.556790 0.742638
Si Si3 0.522340 0.170950 0.669984
Si Si4 0.203455 0.199393 0.420314
Si Si5 0.582724 0.453298 0.873928
Si Si6 0.912843 0.535708 0.054929
Si Si7 0.912557 0.688172 0.281446
O O1 0.910025 0.202973 0.296365
O O2 0.795468 0.293873 0.427773
O O3 0.922306 0.360271 0.346109
O O4 0.836150 0.299934 0.107795
O O5 0.173945 0.622623 0.820131
O O6 0.131414 0.532726 0.546229
O O7 0.031108 0.598000 0.727078
O O8 0.121128 0.483438 0.869297
O O9 0.463383 0.243629 0.692911
O O10 0.559600 0.166750 0.478483
O O11 0.171059 0.273578 0.315890
O O12 0.500000 0.500000 0.890061
O O13 0.585998 0.618141 0.647119
O O14 0.626024 0.482878 0.703658
O O15 0.000000 0.500000 0.044377
#
# Coordination Sequence:
#
# PCOD9366247 Si02
#       7
#     8   8   8   8   8   8   8
#     4  11  21  41  68 100 141 185 240 297 358 423
#     4  11  22  40  66 101 136 181 235 283 363 426
#     4  10  20  37  66 102 133 176 237 299 350 414
#     4  10  23  42  69 100 135 190 240 294 356 436
#     4  11  22  39  65 100 136 182 226 295 351 430
#     4  11  22  38  62  95 139 174 220 287 352 411
#     4  10  23  39  67 101 138 177 235 304 351 419
#
# _framework density 24.518492999999999
#
# number of rings (size 3 to 8) (size 9 to 14) (size 15 to 20)
#    0.000    1.429    1.429    5.571    4.000    1.143 
#    0.000    0.000    9.429    0.000    0.000    0.000 
#    0.000    0.000    0.000    0.000    0.000    0.000 
#
# Total GULP energy -156529.313322 kJ/mol
# GULP energy per Si atom -5590.332619 kJ/mol
# Density = 2.446269 g / cm^3
# Si number density = 24.518493 Si / 1000 Ang^3
#
#
#
# Elastic Constant Matrix: (Units=GPa)
#
#
# Indices 1 2 3 4 5 6 
#
# 1 70.0476 23.1206 -0.7059 0.0000 0.0000 0.0000
# 2 23.1206 122.3266 37.9073 0.0000 0.0000 0.0000
# 3 -0.7059 37.9073 157.8262 0.0000 0.0000 0.0000
# 4 0.0000 0.0000 0.0000 43.7333 0.0000 0.0000
# 5 0.0000 0.0000 0.0000 0.0000 21.5506 0.0000
# 6 0.0000 0.0000 0.0000 0.0000 0.0000 20.6053
#
#
#
# Elastic Compliance Matrix: (Units=1/GPa)
#
#
# Indices 1 2 3 4 5 6 
#
# 1 0.015325 -0.003152 0.000826 0.000000 0.000000 0.000000
# 2 -0.003152 0.009481 -0.002291 0.000000 0.000000 0.000000
# 3 0.000826 -0.002291 0.006890 0.000000 0.000000 0.000000
# 4 0.000000 0.000000 0.000000 0.022866 0.000000 0.000000
# 5 0.000000 0.000000 0.000000 0.000000 0.046402 0.000000
# 6 0.000000 0.000000 0.000000 0.000000 0.000000 0.048531
#
#
# Mechanical properties :
#
#
# Convention : Reuss Voigt Hill
#
# Bulk Modulus (GPa) = 44.52394 52.31604 48.41999
# Shear Modulus (GPa) = 30.08108 36.50308 33.29208
#
# Velocity S-wave (km/s) = 3.50647 3.86268 3.68888
# Velocity P-wave (km/s) = 5.88155 6.42475 6.15914
#
# Compressibility (1/GPa) = 0.02245983
#
# Stress axis : x y z
#
# Youngs Moduli (GPa) = 65.25357 105.47781 145.13604
#
# Poissons Ratio (x) = 0.33251 -0.11984
# Poissons Ratio (y) = 0.20570 0.33254
# Poissons Ratio (z) = -0.05388 0.24167
#
# Static dielectric constant tensor:
#      x y z
#    x 2.008850 0.000000 0.000000 
#    y 0.000000 1.970450 0.000000 
#    z 0.000000 0.000000 2.009780 
# 
# From -- ./inp_files/3188.got.cif
#   From: 2010.05.17/outbox.cif.g08.bks.cpg/sg41_2_cif.got.tgz:3188.got - 2010.06.03 18:54:24.
