data_PCOD9366068
_publ_section_title
;
Structure prediction by ZEFSAII (Michael W. Deem and Ramdas Pophale) SiO2 
 PCOD9366068
Probable space group: A B A 2
;
_chemical_formula_sum "Si O2"
_cell_formula_units_Z 64
_cell_length_a 8.547069
_cell_length_b 18.658467
_cell_length_c 18.621131
_cell_angle_alpha 90.000000
_cell_angle_beta 90.000000
_cell_angle_gamma 90.000000
_cell_volume 2969.608681
_symmetry_space_group_name_H-M "A B A 2"
_symmetry_group_IT_number 41
_symmetry_cell_setting 'orthorhombic'
loop_
_space_group_symop_operation_xyz
x,y,z
-x,-y,z
1/2-x,y,1/2+z
1/2+x,-y,1/2+z
x,1/2+y,1/2+z
-x,1/2-y,1/2+z
1/2-x,1/2+y,z
1/2+x,1/2-y,z
loop_
_atom_site_type_symbol
_atom_site_label
_atom_site_fract_x
_atom_site_fract_y
_atom_site_fract_z
Si Si1 0.096718 0.754962 0.196160
Si Si2 0.256910 0.479849 0.664420
Si Si3 0.536063 0.306089 0.537183
Si Si4 0.084119 0.427921 0.395534
Si Si5 0.619639 0.145735 0.251088
Si Si6 0.129244 0.160059 0.999345
Si Si7 0.569393 0.392925 0.159727
Si Si8 0.360205 0.451589 0.508872
O O1 0.097514 0.719588 0.116104
O O2 0.248771 0.800286 0.218898
O O3 0.040329 0.690564 0.246463
O O4 0.961996 0.816276 0.194447
O O5 0.376789 0.427582 0.704505
O O6 0.207489 0.558302 0.691837
O O7 0.307088 0.489158 0.582343
O O8 0.093794 0.435717 0.665489
O O9 0.450280 0.237609 0.505024
O O10 0.686706 0.329255 0.492327
O O11 0.419284 0.373350 0.535046
O O12 0.152387 0.380618 0.331161
O O13 0.219599 0.445097 0.453014
O O14 0.000000 0.500000 0.368279
O O15 0.951548 0.384263 0.437412
O O16 0.098120 0.121286 0.075573
O O17 0.500000 0.500000 0.478148
#
# Coordination Sequence:
#
# PCOD9366068 Si02
#       8
#     8   8   8   8   8   8   8   8
#     4  10  21  43  67 105 135 176 228 295 344 407
#     4  10  19  39  65 100 127 178 227 286 349 407
#     4  11  22  39  71 108 130 167 234 298 348 403
#     4  12  27  49  64  94 146 189 228 283 357 427
#     4  11  25  44  69  95 147 185 225 284 347 424
#     4  11  22  39  69  96 134 176 217 292 348 411
#     4   9  18  34  68  97 129 169 227 283 349 398
#     4  12  24  41  69 101 134 174 238 295 344 417
#
# _framework density 21.551659000000001
#
# number of rings (size 3 to 8) (size 9 to 14) (size 15 to 20)
#    0.000    1.250    2.500    4.500    1.750    2.500 
#    9.000    0.000    0.000    0.000    0.000    0.000 
#    0.000    0.000    0.000    0.000    0.000    0.000 
#
# Total GULP energy -178861.831739 kJ/mol
# GULP energy per Si atom -5589.432242 kJ/mol
# Density = 2.150261 g / cm^3
# Si number density = 21.551659 Si / 1000 Ang^3
#
#
#
# Elastic Constant Matrix: (Units=GPa)
#
#
# Indices 1 2 3 4 5 6 
#
# 1 66.2149 35.1499 12.6429 0.0000 0.0000 0.0000
# 2 35.1499 119.0350 16.3545 0.0000 0.0000 0.0000
# 3 12.6429 16.3545 38.3892 0.0000 0.0000 0.0000
# 4 0.0000 0.0000 0.0000 12.6345 0.0000 0.0000
# 5 0.0000 0.0000 0.0000 0.0000 3.0808 0.0000
# 6 0.0000 0.0000 0.0000 0.0000 0.0000 41.1944
#
#
#
# Elastic Compliance Matrix: (Units=1/GPa)
#
#
# Indices 1 2 3 4 5 6 
#
# 1 0.018468 -0.004905 -0.003993 0.000000 0.000000 0.000000
# 2 -0.004905 0.010226 -0.002741 0.000000 0.000000 0.000000
# 3 -0.003993 -0.002741 0.028532 0.000000 0.000000 0.000000
# 4 0.000000 0.000000 0.000000 0.079148 0.000000 0.000000
# 5 0.000000 0.000000 0.000000 0.000000 0.324594 0.000000
# 6 0.000000 0.000000 0.000000 0.000000 0.000000 0.024275
#
#
# Mechanical properties :
#
#
# Convention : Reuss Voigt Hill
#
# Bulk Modulus (GPa) = 29.45633 39.10377 34.28005
# Shear Modulus (GPa) = 9.61839 22.01473 15.81656
#
# Velocity S-wave (km/s) = 2.11486 3.19954 2.71198
# Velocity P-wave (km/s) = 4.43407 5.64207 5.07415
#
# Compressibility (1/GPa) = 0.03394856
#
# Stress axis : x y z
#
# Youngs Moduli (GPa) = 54.14627 97.79098 35.04878
#
# Poissons Ratio (x) = 0.47967 0.13994
# Poissons Ratio (y) = 0.26559 0.09607
# Poissons Ratio (z) = 0.21619 0.26805
#
# Static dielectric constant tensor:
#      x y z
#    x 1.831640 0.000000 0.000000 
#    y 0.000000 1.792790 0.000000 
#    z 0.000000 0.000000 1.750910 
# 
# From -- ./inp_files/9840.got.cif
#   From: 2010.05.17/outbox.cif.g08.bks.cpg/sg41_5_cif.got.tgz:9840.got - 2010.06.03 18:54:24.
