data_PCOD9366204
_publ_section_title
;
Structure prediction by ZEFSAII (Michael W. Deem and Ramdas Pophale) SiO2 
 PCOD9366204
Probable space group: A B A 2
;
_chemical_formula_sum "Si O2"
_cell_formula_units_Z 52
_cell_length_a 18.997180
_cell_length_b 5.111642
_cell_length_c 21.709414
_cell_angle_alpha 90.000000
_cell_angle_beta 90.000000
_cell_angle_gamma 90.000000
_cell_volume 2108.131358
_symmetry_space_group_name_H-M "A B A 2"
_symmetry_group_IT_number 41
_symmetry_cell_setting 'orthorhombic'
loop_
_space_group_symop_operation_xyz
x,y,z
-x,-y,z
1/2-x,y,1/2+z
1/2+x,-y,1/2+z
x,1/2+y,1/2+z
-x,1/2-y,1/2+z
1/2-x,1/2+y,z
1/2+x,1/2-y,z
loop_
_atom_site_type_symbol
_atom_site_label
_atom_site_fract_x
_atom_site_fract_y
_atom_site_fract_z
Si Si1 0.793776 0.817780 0.075350
Si Si2 0.000000 0.000000 0.974800
Si Si3 0.296866 0.745126 0.221989
Si Si4 0.609166 0.774830 0.034642
Si Si5 0.450036 0.741161 0.662074
Si Si6 0.085224 0.984934 0.281803
Si Si7 0.581458 0.604517 0.418444
O O1 0.727728 0.016538 0.060834
O O2 0.808072 0.803022 0.148305
O O3 0.853049 0.988845 0.041011
O O4 0.064929 0.093635 0.933947
O O5 0.973251 0.219673 0.019999
O O6 0.253508 0.002007 0.237631
O O7 0.369804 0.731113 0.258949
O O8 0.600717 0.847049 0.106367
O O9 0.622171 0.958657 0.974282
O O10 0.500000 0.500000 0.674685
O O11 0.404738 0.798798 0.722841
O O12 0.500000 0.000000 0.650696
O O13 0.111278 0.918811 0.350184
O O14 0.000000 0.000000 0.285233
O O15 0.500000 0.500000 0.414802
#
# Coordination Sequence:
#
# PCOD9366204 Si02
#       7
#     8   4   8   8   8   8   8
#     4  10  23  40  64  91 126 170 218 269 334 393
#     4  10  20  36  64  92 130 176 200 264 346 400
#     4  10  22  44  66  94 133 179 218 275 349 410
#     4  11  21  39  62  92 129 168 218 269 328 403
#     4  11  23  36  62  99 128 157 215 280 328 385
#     4  10  22  43  66 101 133 176 229 287 335 409
#     4   9  21  39  60  91 135 174 213 260 346 398
#
# _framework density 24.666391000000001
#
# number of rings (size 3 to 8) (size 9 to 14) (size 15 to 20)
#    0.000    1.846    2.308    1.385    3.231    2.462 
#    5.538    1.538    0.000    0.000    0.000    0.000 
#    0.000    0.000    0.000    0.000    0.000    0.000 
#
# Total GULP energy -144832.927707 kJ/mol
# GULP energy per Si atom -5570.497220 kJ/mol
# Density = 2.461025 g / cm^3
# Si number density = 24.666391 Si / 1000 Ang^3
#
#
#
# Elastic Constant Matrix: (Units=GPa)
#
#
# Indices 1 2 3 4 5 6 
#
# 1 70.9803 4.9864 20.7942 0.0000 0.0000 0.0000
# 2 4.9864 97.4931 5.3890 0.0000 0.0000 0.0000
# 3 20.7942 5.3890 177.7772 0.0000 0.0000 0.0000
# 4 0.0000 0.0000 0.0000 9.7161 0.0000 0.0000
# 5 0.0000 0.0000 0.0000 0.0000 13.0920 0.0000
# 6 0.0000 0.0000 0.0000 0.0000 0.0000 47.9008
#
#
#
# Elastic Compliance Matrix: (Units=1/GPa)
#
#
# Indices 1 2 3 4 5 6 
#
# 1 0.014630 -0.000655 -0.001691 0.000000 0.000000 0.000000
# 2 -0.000655 0.010304 -0.000236 0.000000 0.000000 0.000000
# 3 -0.001691 -0.000236 0.005830 0.000000 0.000000 0.000000
# 4 0.000000 0.000000 0.000000 0.102922 0.000000 0.000000
# 5 0.000000 0.000000 0.000000 0.000000 0.076383 0.000000
# 6 0.000000 0.000000 0.000000 0.000000 0.000000 0.020876
#
#
# Mechanical properties :
#
#
# Convention : Reuss Voigt Hill
#
# Bulk Modulus (GPa) = 39.06283 45.39886 42.23084
# Shear Modulus (GPa) = 20.43803 35.14717 27.79260
#
# Velocity S-wave (km/s) = 2.88163 3.77888 3.36034
# Velocity P-wave (km/s) = 5.19062 6.12250 5.67572
#
# Compressibility (1/GPa) = 0.02559979
#
# Stress axis : x y z
#
# Youngs Moduli (GPa) = 68.35307 97.05293 171.52660
#
# Poissons Ratio (x) = 0.06355 0.29012
# Poissons Ratio (y) = 0.04476 0.04044
# Poissons Ratio (z) = 0.11561 0.02288
#
# Static dielectric constant tensor:
#      x y z
#    x 2.193220 0.000000 0.000000 
#    y 0.000000 2.241640 0.000000 
#    z 0.000000 0.000000 1.966800 
# 
# From -- ./inp_files/11694.got.cif
#   From: 2010.05.17/outbox.cif.g08.bks.cpg/sg41_6_cif.got.tgz:11694.got - 2010.06.03 18:54:24.
