data_PCOD9366166
_publ_section_title
;
Structure prediction by ZEFSAII (Michael W. Deem and Ramdas Pophale) SiO2 
 PCOD9366166
Probable space group: A B A 2
;
_chemical_formula_sum "Si O2"
_cell_formula_units_Z 48
_cell_length_a 9.118939
_cell_length_b 14.366911
_cell_length_c 16.153108
_cell_angle_alpha 90.000000
_cell_angle_beta 90.000000
_cell_angle_gamma 90.000000
_cell_volume 2116.234590
_symmetry_space_group_name_H-M "A B A 2"
_symmetry_group_IT_number 41
_symmetry_cell_setting 'orthorhombic'
loop_
_space_group_symop_operation_xyz
x,y,z
-x,-y,z
1/2-x,y,1/2+z
1/2+x,-y,1/2+z
x,1/2+y,1/2+z
-x,1/2-y,1/2+z
1/2-x,1/2+y,z
1/2+x,1/2-y,z
loop_
_atom_site_type_symbol
_atom_site_label
_atom_site_fract_x
_atom_site_fract_y
_atom_site_fract_z
Si Si1 0.334313 0.652312 0.690630
Si Si2 0.331239 0.488283 0.241056
Si Si3 0.416585 0.586070 0.411025
Si Si4 0.343574 0.774023 0.475392
Si Si5 0.823263 0.194677 0.318874
Si Si6 0.406075 0.260075 0.588734
O O1 0.294581 0.544892 0.696235
O O2 0.346909 0.705124 0.778833
O O3 0.476398 0.679940 0.638805
O O4 0.187344 0.696399 0.649969
O O5 0.500000 0.500000 0.210572
O O6 0.336476 0.533837 0.334425
O O7 0.298475 0.379620 0.246415
O O8 0.500000 0.500000 0.454829
O O9 0.331683 0.660019 0.467544
O O10 0.535258 0.654201 0.366458
O O11 0.309077 0.807937 0.383653
O O12 0.495679 0.793855 0.520271
O O13 0.215682 0.812112 0.534391
#
# Coordination Sequence:
#
# PCOD9366166 Si02
#       6
#     8   8   8   8   8   8
#     4  11  21  42  63  91 132 177 219 275 325 412
#     4   9  19  36  65  94 119 166 225 274 325 373
#     4   9  18  35  63  95 123 167 218 281 324 378
#     4  11  19  39  62  98 127 174 219 273 331 406
#     4  10  20  35  71  88 119 164 236 274 320 378
#     4  10  24  35  63  92 135 182 201 256 360 399
#
# _framework density 22.681794
#
# number of rings (size 3 to 8) (size 9 to 14) (size 15 to 20)
#    0.000    2.333    3.333    2.000    0.000    0.000 
#    0.000    4.167   25.667    0.000    0.000    0.000 
#    0.000    0.000    0.000    0.000    0.000    0.000 
#
# Total GULP energy -133876.648515 kJ/mol
# GULP energy per Si atom -5578.193688 kJ/mol
# Density = 2.263017 g / cm^3
# Si number density = 22.681794 Si / 1000 Ang^3
#
#
#
# Elastic Constant Matrix: (Units=GPa)
#
#
# Indices 1 2 3 4 5 6 
#
# 1 103.0627 21.1819 18.9487 0.0000 0.0000 0.0000
# 2 21.1819 67.3953 -13.0445 0.0000 0.0000 0.0000
# 3 18.9487 -13.0445 37.0744 0.0000 0.0000 0.0000
# 4 0.0000 0.0000 0.0000 10.8637 0.0000 0.0000
# 5 0.0000 0.0000 0.0000 0.0000 25.1767 0.0000
# 6 0.0000 0.0000 0.0000 0.0000 0.0000 30.6474
#
#
#
# Elastic Compliance Matrix: (Units=1/GPa)
#
#
# Indices 1 2 3 4 5 6 
#
# 1 0.012341 -0.005472 -0.008233 0.000000 0.000000 0.000000
# 2 -0.005472 0.018349 0.009253 0.000000 0.000000 0.000000
# 3 -0.008233 0.009253 0.034436 0.000000 0.000000 0.000000
# 4 0.000000 0.000000 0.000000 0.092050 0.000000 0.000000
# 5 0.000000 0.000000 0.000000 0.000000 0.039719 0.000000
# 6 0.000000 0.000000 0.000000 0.000000 0.000000 0.032629
#
#
# Mechanical properties :
#
#
# Convention : Reuss Voigt Hill
#
# Bulk Modulus (GPa) = 17.78692 29.07831 23.43262
# Shear Modulus (GPa) = 19.44240 25.36730 22.40485
#
# Velocity S-wave (km/s) = 2.93094 3.34788 3.14632
# Velocity P-wave (km/s) = 4.39464 5.27184 4.85310
#
# Compressibility (1/GPa) = 0.05622108
#
# Stress axis : x y z
#
# Youngs Moduli (GPa) = 81.02938 54.50001 29.03918
#
# Poissons Ratio (x) = 0.29824 0.23908
# Poissons Ratio (y) = 0.44342 -0.26869
# Poissons Ratio (z) = 0.66711 -0.50428
#
# Static dielectric constant tensor:
#      x y z
#    x 1.873810 0.000000 0.000000 
#    y 0.000000 1.844380 0.000000 
#    z 0.000000 0.000000 1.945620 
# 
# From -- ./inp_files/9646.got.cif
#   From: 2010.05.17/outbox.cif.g08.bks.cpg/sg41_5_cif.got.tgz:9646.got - 2010.06.03 18:54:24.
