data_PCOD9366219
_publ_section_title
;
Structure prediction by ZEFSAII (Michael W. Deem and Ramdas Pophale) SiO2 
 PCOD9366219
Probable space group: A B A 2
;
_chemical_formula_sum "Si O2"
_cell_formula_units_Z 64
_cell_length_a 10.662911
_cell_length_b 8.888481
_cell_length_c 30.705619
_cell_angle_alpha 90.000000
_cell_angle_beta 90.000000
_cell_angle_gamma 90.000000
_cell_volume 2910.188965
_symmetry_space_group_name_H-M "A B A 2"
_symmetry_group_IT_number 41
_symmetry_cell_setting 'orthorhombic'
loop_
_space_group_symop_operation_xyz
x,y,z
-x,-y,z
1/2-x,y,1/2+z
1/2+x,-y,1/2+z
x,1/2+y,1/2+z
-x,1/2-y,1/2+z
1/2-x,1/2+y,z
1/2+x,1/2-y,z
loop_
_atom_site_type_symbol
_atom_site_label
_atom_site_fract_x
_atom_site_fract_y
_atom_site_fract_z
Si Si1 0.765679 0.516364 0.796160
Si Si2 0.365574 0.915673 0.622526
Si Si3 0.628822 0.414622 0.581860
Si Si4 0.660029 0.888536 0.978702
Si Si5 0.900462 0.767602 0.844957
Si Si6 0.616683 0.586195 0.217779
Si Si7 0.902389 0.718556 0.946236
Si Si8 0.954502 0.171004 0.767046
O O1 0.845160 0.607799 0.830752
O O2 0.684573 0.396930 0.822305
O O3 0.849305 0.463237 0.755892
O O4 0.693724 0.640915 0.765105
O O5 0.378304 0.754617 0.599395
O O6 0.313968 0.883990 0.672570
O O7 0.500000 0.000000 0.615049
O O8 0.253161 0.009292 0.601031
O O9 0.500000 0.500000 0.594058
O O10 0.641788 0.419475 0.529570
O O11 0.795638 0.817130 0.969523
O O12 0.544307 0.780562 0.964449
O O13 0.641730 0.044572 0.952078
O O14 0.908088 0.772328 0.896215
O O15 0.029201 0.786122 0.818309
O O16 0.500000 0.500000 0.196795
O O17 0.553500 0.731240 0.240363
O O18 0.000000 0.000000 0.759974
#
# Coordination Sequence:
#
# PCOD9366219 Si02
#       8
#     8   8   8   8   8   8   8   8
#     4  10  20  37  60  86 131 175 214 273 339 403
#     4  11  27  44  76 108 141 186 243 304 363 451
#     4  12  25  49  72 104 147 185 239 300 383 444
#     4  11  26  47  70 103 136 185 228 300 363 431
#     4  10  21  36  59  91 123 173 222 271 328 399
#     4  10  22  41  60  98 129 173 230 282 351 414
#     4  11  24  45  69 101 142 177 241 289 353 427
#     4   9  20  36  58  86 130 173 221 273 332 407
#
# _framework density 21.991699000000001
#
# number of rings (size 3 to 8) (size 9 to 14) (size 15 to 20)
#    0.000    1.500    1.250    3.000    3.500    7.000 
#   11.250    0.000    0.000    0.000    0.000    0.000 
#    0.000    0.000    0.000    0.000    0.000    0.000 
#
# Total GULP energy -178254.590938 kJ/mol
# GULP energy per Si atom -5570.455967 kJ/mol
# Density = 2.194165 g / cm^3
# Si number density = 21.991699 Si / 1000 Ang^3
#
#
#
# Elastic Constant Matrix: (Units=GPa)
#
#
# Indices 1 2 3 4 5 6 
#
# 1 71.1245 15.3633 31.4989 0.0000 0.0000 0.0000
# 2 15.3633 87.0135 35.7545 0.0000 0.0000 0.0000
# 3 31.4989 35.7545 133.4527 0.0000 0.0000 0.0000
# 4 0.0000 0.0000 0.0000 45.3819 0.0000 0.0000
# 5 0.0000 0.0000 0.0000 0.0000 39.8867 0.0000
# 6 0.0000 0.0000 0.0000 0.0000 0.0000 44.2301
#
#
#
# Elastic Compliance Matrix: (Units=1/GPa)
#
#
# Indices 1 2 3 4 5 6 
#
# 1 0.015855 -0.001418 -0.003362 0.000000 0.000000 0.000000
# 2 -0.001418 0.013041 -0.003159 0.000000 0.000000 0.000000
# 3 -0.003362 -0.003159 0.009133 0.000000 0.000000 0.000000
# 4 0.000000 0.000000 0.000000 0.022035 0.000000 0.000000
# 5 0.000000 0.000000 0.000000 0.000000 0.025071 0.000000
# 6 0.000000 0.000000 0.000000 0.000000 0.000000 0.022609
#
#
# Mechanical properties :
#
#
# Convention : Reuss Voigt Hill
#
# Bulk Modulus (GPa) = 45.14565 50.75822 47.95193
# Shear Modulus (GPa) = 38.16578 39.83134 38.99856
#
# Velocity S-wave (km/s) = 4.17041 4.26044 4.21566
# Velocity P-wave (km/s) = 6.61535 6.87986 6.74890
#
# Compressibility (1/GPa) = 0.02215053
#
# Stress axis : x y z
#
# Youngs Moduli (GPa) = 63.07061 76.68144 109.48865
#
# Poissons Ratio (x) = 0.10872 0.36815
# Poissons Ratio (y) = 0.08942 0.34591
# Poissons Ratio (z) = 0.21207 0.24226
#
# Static dielectric constant tensor:
#      x y z
#    x 3.075160 0.000000 0.000000 
#    y 0.000000 1.833650 0.000000 
#    z 0.000000 0.000000 1.773480 
# 
# From -- ./inp_files/12709.got.cif
#   From: 2010.05.17/outbox.cif.g08.bks.cpg/sg41_7_cif.got.tgz:12709.got - 2010.06.03 18:54:24.
