data_PCOD9366519
_publ_section_title
;
Structure prediction by ZEFSAII (Michael W. Deem and Ramdas Pophale) SiO2 
 PCOD9366519
Probable space group: A B A 2
;
_chemical_formula_sum "Si O2"
_cell_formula_units_Z 48
_cell_length_a 23.615388
_cell_length_b 10.617449
_cell_length_c 9.079633
_cell_angle_alpha 90.000000
_cell_angle_beta 90.000000
_cell_angle_gamma 90.000000
_cell_volume 2276.583394
_symmetry_space_group_name_H-M "A B A 2"
_symmetry_group_IT_number 41
_symmetry_cell_setting 'orthorhombic'
loop_
_space_group_symop_operation_xyz
x,y,z
-x,-y,z
1/2-x,y,1/2+z
1/2+x,-y,1/2+z
x,1/2+y,1/2+z
-x,1/2-y,1/2+z
1/2-x,1/2+y,z
1/2+x,1/2-y,z
loop_
_atom_site_type_symbol
_atom_site_label
_atom_site_fract_x
_atom_site_fract_y
_atom_site_fract_z
Si Si1 0.395106 0.440006 0.930470
Si Si2 0.700902 0.193318 0.250718
Si Si3 0.365265 0.046330 0.745922
Si Si4 0.462329 0.213158 0.782989
Si Si5 0.569614 0.280920 0.937741
Si Si6 0.692569 0.656207 0.428104
O O1 0.338284 0.403330 0.841942
O O2 0.436489 0.326404 0.882705
O O3 0.425443 0.572161 0.893485
O O4 0.377850 0.463715 0.100663
O O5 0.665546 0.320148 0.218053
O O6 0.757930 0.222337 0.337597
O O7 0.713942 0.135584 0.092653
O O8 0.425275 0.088784 0.815108
O O9 0.323719 0.973607 0.852263
O O10 0.527361 0.209486 0.828610
O O11 0.452614 0.233006 0.607009
O O12 0.633065 0.229072 0.928097
#
# Coordination Sequence:
#
# PCOD9366519 Si02
#       6
#     8   8   8   8   8   8
#     4  10  20  47  70  95 137 180 224 278 341 392
#     4  11  25  46  66 101 138 175 235 278 335 406
#     4  10  24  45  69 100 135 179 224 281 337 404
#     4  10  23  45  69 102 138 176 227 280 337 411
#     4  11  24  44  70 103 137 177 230 277 341 405
#     4  12  25  45  69  99 135 182 224 282 340 400
#
# _framework density 21.084226999999998
#
# number of rings (size 3 to 8) (size 9 to 14) (size 15 to 20)
#    0.000    1.333    5.000    1.500    4.667    3.333 
#    6.000    0.000    0.000    0.000    0.000    0.000 
#    0.000    0.000    0.000    0.000    0.000    0.000 
#
# Total GULP energy -133985.086673 kJ/mol
# GULP energy per Si atom -5582.711945 kJ/mol
# Density = 2.103624 g / cm^3
# Si number density = 21.084227 Si / 1000 Ang^3
#
#
#
# Elastic Constant Matrix: (Units=GPa)
#
#
# Indices 1 2 3 4 5 6 
#
# 1 135.5585 15.2036 59.9490 0.0000 0.0000 0.0000
# 2 15.2036 70.0057 54.5059 0.0000 0.0000 0.0000
# 3 59.9490 54.5059 110.0523 0.0000 0.0000 0.0000
# 4 0.0000 0.0000 0.0000 28.8275 0.0000 0.0000
# 5 0.0000 0.0000 0.0000 0.0000 39.9917 0.0000
# 6 0.0000 0.0000 0.0000 0.0000 0.0000 29.2179
#
#
#
# Elastic Compliance Matrix: (Units=1/GPa)
#
#
# Indices 1 2 3 4 5 6 
#
# 1 0.010202 0.003436 -0.007259 0.000000 0.000000 0.000000
# 2 0.003436 0.024408 -0.013960 0.000000 0.000000 0.000000
# 3 -0.007259 -0.013960 0.019955 0.000000 0.000000 0.000000
# 4 0.000000 0.000000 0.000000 0.034689 0.000000 0.000000
# 5 0.000000 0.000000 0.000000 0.000000 0.025005 0.000000
# 6 0.000000 0.000000 0.000000 0.000000 0.000000 0.034226
#
#
# Mechanical properties :
#
#
# Convention : Reuss Voigt Hill
#
# Bulk Modulus (GPa) = 52.63662 63.88150 58.25906
# Shear Modulus (GPa) = 26.26279 32.00461 29.13370
#
# Velocity S-wave (km/s) = 3.53315 3.90030 3.72126
# Velocity P-wave (km/s) = 6.45472 7.11668 6.79377
#
# Compressibility (1/GPa) = 0.01899818
#
# Stress axis : x y z
#
# Youngs Moduli (GPa) = 98.02232 40.97074 50.11260
#
# Poissons Ratio (x) = -0.14079 0.36378
# Poissons Ratio (y) = -0.33684 0.69959
# Poissons Ratio (z) = 0.71156 0.57197
#
# Static dielectric constant tensor:
#      x y z
#    x 1.793980 0.000000 0.000000 
#    y 0.000000 1.778760 0.000000 
#    z 0.000000 0.000000 1.768430 
# 
# From -- ./inp_files/3605.got.cif
#   From: 2010.05.17/outbox.cif.g08.bks.cpg/sg41_2_cif.got.tgz:3605.got - 2010.06.03 18:54:24.
