data_PCOD9366915
_publ_section_title
;
Structure prediction by ZEFSAII (Michael W. Deem and Ramdas Pophale) SiO2 
 PCOD9366915
Probable space group: A B A 2
;
_chemical_formula_sum "Si O2"
_cell_formula_units_Z 60
_cell_length_a 25.220530
_cell_length_b 8.453783
_cell_length_c 12.410030
_cell_angle_alpha 90.000000
_cell_angle_beta 90.000000
_cell_angle_gamma 90.000000
_cell_volume 2645.928693
_symmetry_space_group_name_H-M "A B A 2"
_symmetry_group_IT_number 41
_symmetry_cell_setting 'orthorhombic'
loop_
_space_group_symop_operation_xyz
x,y,z
-x,-y,z
1/2-x,y,1/2+z
1/2+x,-y,1/2+z
x,1/2+y,1/2+z
-x,1/2-y,1/2+z
1/2-x,1/2+y,z
1/2+x,1/2-y,z
loop_
_atom_site_type_symbol
_atom_site_label
_atom_site_fract_x
_atom_site_fract_y
_atom_site_fract_z
Si Si1 0.648007 0.472280 0.183050
Si Si2 0.845484 0.269911 0.287400
Si Si3 0.338388 0.323878 0.969211
Si Si4 0.777633 0.201817 0.752722
Si Si5 0.500000 0.000000 0.213100
Si Si6 0.566170 0.735376 0.582860
Si Si7 0.421632 0.038659 0.405679
Si Si8 0.159426 0.507284 0.088187
O O1 0.627370 0.602612 0.266066
O O2 0.696003 0.371417 0.230097
O O3 0.601420 0.350094 0.157851
O O4 0.667761 0.567158 0.076158
O O5 0.783578 0.229516 0.278240
O O6 0.867834 0.357037 0.390813
O O7 0.858062 0.384317 0.188136
O O8 0.304405 0.362942 0.862490
O O9 0.399526 0.367117 0.938907
O O10 0.326344 0.141121 0.000272
O O11 0.794818 0.099925 0.646243
O O12 0.481530 0.854046 0.140466
O O13 0.547499 0.965585 0.295176
O O14 0.546894 0.855442 0.490698
O O15 0.610105 0.601078 0.552492
#
# Coordination Sequence:
#
# PCOD9366915 Si02
#       8
#     8   8   8   8   4   8   8   8
#     4   9  22  41  63  98 137 172 226 272 324 407
#     4  11  21  42  64  95 144 176 223 280 324 397
#     4  10  22  43  67  96 137 183 218 277 336 390
#     4  11  21  41  63  98 137 186 227 263 327 393
#     4  12  24  50  74  94 140 164 224 312 346 402
#     4  10  23  46  71  97 126 175 225 274 356 415
#     4  11  24  46  71 100 132 179 228 285 352 412
#     4  10  21  44  67  94 139 176 222 274 331 402
#
# _framework density 22.676348999999998
#
# number of rings (size 3 to 8) (size 9 to 14) (size 15 to 20)
#    0.000    1.600    2.667    1.600    1.867    1.067 
#   28.800    0.000    0.000    0.000    0.000    0.000 
#    0.000    0.000    0.000    0.000    0.000    0.000 
#
# Total GULP energy -167388.820700 kJ/mol
# GULP energy per Si atom -5579.627357 kJ/mol
# Density = 2.262474 g / cm^3
# Si number density = 22.676349 Si / 1000 Ang^3
#
#
#
# Elastic Constant Matrix: (Units=GPa)
#
#
# Indices 1 2 3 4 5 6 
#
# 1 43.9807 6.2034 14.4558 0.0000 0.0000 0.0000
# 2 6.2034 92.2777 10.1403 0.0000 0.0000 0.0000
# 3 14.4558 10.1403 68.4092 0.0000 0.0000 0.0000
# 4 0.0000 0.0000 0.0000 34.1141 0.0000 0.0000
# 5 0.0000 0.0000 0.0000 0.0000 21.6178 0.0000
# 6 0.0000 0.0000 0.0000 0.0000 0.0000 15.3591
#
#
#
# Elastic Compliance Matrix: (Units=1/GPa)
#
#
# Indices 1 2 3 4 5 6 
#
# 1 0.024543 -0.001098 -0.005024 0.000000 0.000000 0.000000
# 2 -0.001098 0.011065 -0.001408 0.000000 0.000000 0.000000
# 3 -0.005024 -0.001408 0.015888 0.000000 0.000000 0.000000
# 4 0.000000 0.000000 0.000000 0.029313 0.000000 0.000000
# 5 0.000000 0.000000 0.000000 0.000000 0.046258 0.000000
# 6 0.000000 0.000000 0.000000 0.000000 0.000000 0.065108
#
#
# Mechanical properties :
#
#
# Convention : Reuss Voigt Hill
#
# Bulk Modulus (GPa) = 27.44427 29.58518 28.51473
# Shear Modulus (GPa) = 22.79133 25.80940 24.30036
#
# Velocity S-wave (km/s) = 3.17372 3.37733 3.27711
# Velocity P-wave (km/s) = 5.05558 5.31822 5.18856
#
# Compressibility (1/GPa) = 0.03643748
#
# Stress axis : x y z
#
# Youngs Moduli (GPa) = 40.74429 90.37169 62.93967
#
# Poissons Ratio (x) = 0.09922 0.31618
# Poissons Ratio (y) = 0.04473 0.08863
# Poissons Ratio (z) = 0.20468 0.12726
#
# Static dielectric constant tensor:
#      x y z
#    x 1.903830 0.000000 0.000000 
#    y 0.000000 1.890360 0.000000 
#    z 0.000000 0.000000 1.879160 
# 
# From -- ./inp_files/6577.got.cif
#   From: 2010.05.17/outbox.cif.g08.bks.cpg/sg41_4_cif.got.tgz:6577.got - 2010.06.03 18:54:24.
