data_PCOD9366002
_publ_section_title
;
Structure prediction by ZEFSAII (Michael W. Deem and Ramdas Pophale) SiO2 
 PCOD9366002
Probable space group: A B A 2
;
_chemical_formula_sum "Si O2"
_cell_formula_units_Z 60
_cell_length_a 14.368980
_cell_length_b 9.030830
_cell_length_c 20.880090
_cell_angle_alpha 90.000000
_cell_angle_beta 90.000000
_cell_angle_gamma 90.000000
_cell_volume 2709.480150
_symmetry_space_group_name_H-M "A B A 2"
_symmetry_group_IT_number 41
_symmetry_cell_setting 'orthorhombic'
loop_
_space_group_symop_operation_xyz
x,y,z
-x,-y,z
1/2-x,y,1/2+z
1/2+x,-y,1/2+z
x,1/2+y,1/2+z
-x,1/2-y,1/2+z
1/2-x,1/2+y,z
1/2+x,1/2-y,z
loop_
_atom_site_type_symbol
_atom_site_label
_atom_site_fract_x
_atom_site_fract_y
_atom_site_fract_z
Si Si1 0.376195 0.698985 0.205450
Si Si2 0.496788 0.341121 0.936060
Si Si3 0.703187 0.296988 0.445740
Si Si4 0.028768 0.662464 0.578393
Si Si5 0.863029 0.105914 0.386975
Si Si6 0.668869 0.798179 0.089591
Si Si7 0.000000 0.500000 0.781420
Si Si8 0.736183 0.550658 0.676955
O O1 0.396381 0.715604 0.129218
O O2 0.468744 0.642640 0.239936
O O3 0.301619 0.567786 0.211493
O O4 0.330033 0.854488 0.223513
O O5 0.500000 0.500000 0.901463
O O6 0.388625 0.304028 0.941638
O O7 0.546192 0.196521 0.909518
O O8 0.550640 0.361942 0.004008
O O9 0.781334 0.227379 0.399102
O O10 0.673303 0.462859 0.425859
O O11 0.723877 0.295844 0.522108
O O12 0.000000 0.500000 0.602803
O O13 0.939841 0.768831 0.577538
O O14 0.907483 0.041648 0.321724
O O15 0.702398 0.668359 0.137208
O O16 0.681500 0.952551 0.125347
#
# Coordination Sequence:
#
# PCOD9366002 Si02
#       8
#     8   8   8   8   8   8   4   8
#     4  11  23  43  66  93 132 181 227 289 345 417
#     4  10  22  40  66 103 139 178 225 289 356 428
#     4  11  23  39  65 101 142 181 229 288 360 423
#     4  10  19  36  63  94 136 175 212 274 356 408
#     4  12  25  45  68 100 137 187 241 287 352 413
#     4  10  20  35  61 100 138 174 209 286 351 430
#     4  12  26  48  72  86 142 192 244 292 336 408
#     4  10  22  37  63 100 129 167 232 275 359 417
#
# _framework density 22.144469999999998
#
# number of rings (size 3 to 8) (size 9 to 14) (size 15 to 20)
#    0.000    1.333    3.333    1.600    5.600    1.600 
#    0.000    0.000    5.867    0.000    0.000    0.000 
#    0.000    0.000    0.000    0.000    0.000    0.000 
#
# Total GULP energy -167329.359663 kJ/mol
# GULP energy per Si atom -5577.645322 kJ/mol
# Density = 2.209407 g / cm^3
# Si number density = 22.144470 Si / 1000 Ang^3
#
#
#
# Elastic Constant Matrix: (Units=GPa)
#
#
# Indices 1 2 3 4 5 6 
#
# 1 72.4680 11.8116 20.9609 0.0000 0.0000 0.0000
# 2 11.8116 117.0848 18.4483 0.0000 0.0000 0.0000
# 3 20.9609 18.4483 48.4611 0.0000 0.0000 0.0000
# 4 0.0000 0.0000 0.0000 10.2145 0.0000 0.0000
# 5 0.0000 0.0000 0.0000 0.0000 20.0239 0.0000
# 6 0.0000 0.0000 0.0000 0.0000 0.0000 37.6185
#
#
#
# Elastic Compliance Matrix: (Units=1/GPa)
#
#
# Indices 1 2 3 4 5 6 
#
# 1 0.015806 -0.000550 -0.006627 0.000000 0.000000 0.000000
# 2 -0.000550 0.009105 -0.003228 0.000000 0.000000 0.000000
# 3 -0.006627 -0.003228 0.024730 0.000000 0.000000 0.000000
# 4 0.000000 0.000000 0.000000 0.097900 0.000000 0.000000
# 5 0.000000 0.000000 0.000000 0.000000 0.049940 0.000000
# 6 0.000000 0.000000 0.000000 0.000000 0.000000 0.026583
#
#
# Mechanical properties :
#
#
# Convention : Reuss Voigt Hill
#
# Bulk Modulus (GPa) = 34.68576 37.82843 36.25709
# Shear Modulus (GPa) = 19.64757 26.02426 22.83592
#
# Velocity S-wave (km/s) = 2.98190 3.43184 3.21475
# Velocity P-wave (km/s) = 5.24910 5.72914 5.49436
#
# Compressibility (1/GPa) = 0.02883028
#
# Stress axis : x y z
#
# Youngs Moduli (GPa) = 63.26836 109.83022 40.43619
#
# Poissons Ratio (x) = 0.06044 0.26797
# Poissons Ratio (y) = 0.03482 0.13053
# Poissons Ratio (z) = 0.41928 0.35454
#
# Static dielectric constant tensor:
#      x y z
#    x 1.854170 0.000000 0.000000 
#    y 0.000000 1.860720 0.000000 
#    z 0.000000 0.000000 1.864660 
# 
# From -- ./inp_files/12210.got.cif
#   From: 2010.05.17/outbox.cif.g08.bks.cpg/sg41_7_cif.got.tgz:12210.got - 2010.06.03 18:54:24.
