data_PCOD9366822
_publ_section_title
;
Structure prediction by ZEFSAII (Michael W. Deem and Ramdas Pophale) SiO2 
 PCOD9366822
Probable space group: A B A 2
;
_chemical_formula_sum "Si O2"
_cell_formula_units_Z 64
_cell_length_a 8.367693
_cell_length_b 13.686262
_cell_length_c 22.820017
_cell_angle_alpha 90.000000
_cell_angle_beta 90.000000
_cell_angle_gamma 90.000000
_cell_volume 2613.403999
_symmetry_space_group_name_H-M "A B A 2"
_symmetry_group_IT_number 41
_symmetry_cell_setting 'orthorhombic'
loop_
_space_group_symop_operation_xyz
x,y,z
-x,-y,z
1/2-x,y,1/2+z
1/2+x,-y,1/2+z
x,1/2+y,1/2+z
-x,1/2-y,1/2+z
1/2-x,1/2+y,z
1/2+x,1/2-y,z
loop_
_atom_site_type_symbol
_atom_site_label
_atom_site_fract_x
_atom_site_fract_y
_atom_site_fract_z
Si Si1 0.364514 0.791432 0.540810
Si Si2 0.169047 0.128912 0.981188
Si Si3 0.531871 0.266462 0.164022
Si Si4 0.825944 0.026533 0.544248
Si Si5 0.705674 0.877311 0.850061
Si Si6 0.507080 0.763262 0.291268
Si Si7 0.829699 0.412037 0.165170
Si Si8 0.330710 0.461473 0.783960
O O1 0.496462 0.826573 0.494345
O O2 0.296566 0.687922 0.521306
O O3 0.444305 0.799426 0.604779
O O4 0.208507 0.859521 0.544090
O O5 0.226953 0.131892 0.914961
O O6 0.188146 0.019881 0.004628
O O7 0.469078 0.291020 0.229189
O O8 0.699804 0.324116 0.163540
O O9 0.496914 0.148915 0.163935
O O10 0.812524 0.978187 0.608110
O O11 0.000000 0.000000 0.520405
O O12 0.546433 0.815259 0.839152
O O13 0.835332 0.821542 0.808975
O O14 0.701841 0.988695 0.826751
O O15 0.366365 0.845964 0.283174
O O16 0.812185 0.482424 0.221478
O O17 0.500000 0.500000 0.809230
#
# Coordination Sequence:
#
# PCOD9366822 Si02
#       8
#     8   8   8   8   8   8   8   8
#     4  12  26  46  72 105 144 188 242 298 363 434
#     4  12  26  47  70 102 142 192 244 296 354 424
#     4  12  22  42  71 102 142 181 229 291 360 426
#     4  12  28  45  71 104 141 186 239 299 368 431
#     4  11  24  44  70  99 136 185 237 284 348 419
#     4  11  23  43  71 102 137 183 231 290 356 425
#     4  12  24  41  70 105 139 181 230 289 361 430
#     4  10  21  41  67  99 134 177 228 280 353 413
#
# _framework density 24.489134
#
# number of rings (size 3 to 8) (size 9 to 14) (size 15 to 20)
#    0.000    0.500    6.250    2.250    1.750    5.000 
#    0.000    0.625    0.000    0.000    0.000    0.000 
#    0.000    0.000    0.000    0.000    0.000    0.000 
#
# Total GULP energy -178903.062552 kJ/mol
# GULP energy per Si atom -5590.720705 kJ/mol
# Density = 2.443340 g / cm^3
# Si number density = 24.489134 Si / 1000 Ang^3
#
#
#
# Elastic Constant Matrix: (Units=GPa)
#
#
# Indices 1 2 3 4 5 6 
#
# 1 72.2142 27.6443 1.4259 0.0000 0.0000 0.0000
# 2 27.6443 97.8220 16.0659 0.0000 0.0000 0.0000
# 3 1.4259 16.0659 83.1482 0.0000 0.0000 0.0000
# 4 0.0000 0.0000 0.0000 4.2875 0.0000 0.0000
# 5 0.0000 0.0000 0.0000 0.0000 27.9192 0.0000
# 6 0.0000 0.0000 0.0000 0.0000 0.0000 49.5043
#
#
#
# Elastic Compliance Matrix: (Units=1/GPa)
#
#
# Indices 1 2 3 4 5 6 
#
# 1 0.015557 -0.004495 0.000602 0.000000 0.000000 0.000000
# 2 -0.004495 0.011857 -0.002214 0.000000 0.000000 0.000000
# 3 0.000602 -0.002214 0.012444 0.000000 0.000000 0.000000
# 4 0.000000 0.000000 0.000000 0.233238 0.000000 0.000000
# 5 0.000000 0.000000 0.000000 0.000000 0.035818 0.000000
# 6 0.000000 0.000000 0.000000 0.000000 0.000000 0.020200
#
#
# Mechanical properties :
#
#
# Convention : Reuss Voigt Hill
#
# Bulk Modulus (GPa) = 36.17559 38.16184 37.16871
# Shear Modulus (GPa) = 14.26364 30.21208 22.23786
#
# Velocity S-wave (km/s) = 2.41601 3.51621 3.01669
# Velocity P-wave (km/s) = 4.75258 5.66586 5.22919
#
# Compressibility (1/GPa) = 0.02764295
#
# Stress axis : x y z
#
# Youngs Moduli (GPa) = 64.28157 84.34168 80.35899
#
# Poissons Ratio (x) = 0.37912 -0.04836
# Poissons Ratio (y) = 0.28895 0.17790
# Poissons Ratio (z) = -0.03868 0.18672
#
# Static dielectric constant tensor:
#      x y z
#    x 1.982550 0.000000 0.000000 
#    y 0.000000 1.952200 0.000000 
#    z 0.000000 0.000000 1.918360 
# 
# From -- ./inp_files/12057.got.cif
#   From: 2010.05.17/outbox.cif.g08.bks.cpg/sg41_7_cif.got.tgz:12057.got - 2010.06.03 18:54:24.
