data_PCOD9366288
_publ_section_title
;
Structure prediction by ZEFSAII (Michael W. Deem and Ramdas Pophale) SiO2 
 PCOD9366288
Probable space group: A B A 2
;
_chemical_formula_sum "Si O2"
_cell_formula_units_Z 64
_cell_length_a 22.123167
_cell_length_b 8.187044
_cell_length_c 16.993784
_cell_angle_alpha 90.000000
_cell_angle_beta 90.000000
_cell_angle_gamma 90.000000
_cell_volume 3077.970945
_symmetry_space_group_name_H-M "A B A 2"
_symmetry_group_IT_number 41
_symmetry_cell_setting 'orthorhombic'
loop_
_space_group_symop_operation_xyz
x,y,z
-x,-y,z
1/2-x,y,1/2+z
1/2+x,-y,1/2+z
x,1/2+y,1/2+z
-x,1/2-y,1/2+z
1/2-x,1/2+y,z
1/2+x,1/2-y,z
loop_
_atom_site_type_symbol
_atom_site_label
_atom_site_fract_x
_atom_site_fract_y
_atom_site_fract_z
Si Si1 0.314242 0.091442 0.948990
Si Si2 0.781210 0.655440 0.247002
Si Si3 0.465521 0.333054 0.609573
Si Si4 0.819104 0.031960 0.911038
Si Si5 0.160662 0.495879 0.778569
Si Si6 0.649759 0.486475 0.622308
Si Si7 0.063598 0.563925 0.493732
Si Si8 0.079981 0.348300 0.651901
O O1 0.321379 0.286819 0.948740
O O2 0.347961 0.023554 0.871465
O O3 0.242987 0.053405 0.937698
O O4 0.338093 0.015448 0.029437
O O5 0.814733 0.560864 0.317884
O O6 0.710806 0.646219 0.268832
O O7 0.807180 0.837926 0.247639
O O8 0.792503 0.554465 0.167837
O O9 0.500000 0.500000 0.591557
O O10 0.402760 0.386657 0.647364
O O11 0.450055 0.239251 0.530041
O O12 0.511968 0.222141 0.658740
O O13 0.879431 0.940727 0.937020
O O14 0.103780 0.452430 0.725029
O O15 0.624682 0.307010 0.642699
O O16 0.079204 0.452729 0.571050
O O17 0.000000 0.500000 0.459298
#
# Coordination Sequence:
#
# PCOD9366288 Si02
#       8
#     8   8   8   8   8   8   8   8
#     4  10  23  38  62  93 131 164 210 265 327 380
#     4  10  22  37  61  90 132 163 210 261 324 375
#     4   9  21  38  61  91 123 160 214 269 309 379
#     4  10  22  41  59  93 133 169 210 270 323 390
#     4  10  21  40  59  90 126 169 204 265 318 386
#     4  11  21  38  62  93 121 162 208 260 318 383
#     4  10  20  38  63  88 125 170 213 263 318 383
#     4  10  20  38  64  85 121 160 214 255 317 377
#
# _framework density 20.792919000000001
#
# number of rings (size 3 to 8) (size 9 to 14) (size 15 to 20)
#    0.000    2.000    1.250    1.500    3.500    2.000 
#    0.000    1.875    2.750    5.250    0.000    0.000 
#    0.000    0.000    0.000    0.000    0.000    0.000 
#
# Total GULP energy -178731.114335 kJ/mol
# GULP energy per Si atom -5585.347323 kJ/mol
# Density = 2.074559 g / cm^3
# Si number density = 20.792919 Si / 1000 Ang^3
#
#
#
# Elastic Constant Matrix: (Units=GPa)
#
#
# Indices 1 2 3 4 5 6 
#
# 1 78.3934 26.2049 36.5103 0.0000 0.0000 0.0000
# 2 26.2049 57.2130 18.7295 0.0000 0.0000 0.0000
# 3 36.5103 18.7295 87.3785 0.0000 0.0000 0.0000
# 4 0.0000 0.0000 0.0000 11.9874 0.0000 0.0000
# 5 0.0000 0.0000 0.0000 0.0000 35.2803 0.0000
# 6 0.0000 0.0000 0.0000 0.0000 0.0000 29.1393
#
#
#
# Elastic Compliance Matrix: (Units=1/GPa)
#
#
# Indices 1 2 3 4 5 6 
#
# 1 0.017609 -0.006084 -0.006054 0.000000 0.000000 0.000000
# 2 -0.006084 0.020899 -0.001938 0.000000 0.000000 0.000000
# 3 -0.006054 -0.001938 0.014389 0.000000 0.000000 0.000000
# 4 0.000000 0.000000 0.000000 0.083421 0.000000 0.000000
# 5 0.000000 0.000000 0.000000 0.000000 0.028344 0.000000
# 6 0.000000 0.000000 0.000000 0.000000 0.000000 0.034318
#
#
# Mechanical properties :
#
#
# Convention : Reuss Voigt Hill
#
# Bulk Modulus (GPa) = 40.40817 42.87493 41.64155
# Shear Modulus (GPa) = 21.24217 24.71742 22.97980
#
# Velocity S-wave (km/s) = 3.19972 3.45155 3.32802
# Velocity P-wave (km/s) = 5.75559 6.04558 5.90237
#
# Compressibility (1/GPa) = 0.02474747
#
# Stress axis : x y z
#
# Youngs Moduli (GPa) = 56.78835 47.84834 69.49585
#
# Poissons Ratio (x) = 0.29109 0.42072
# Poissons Ratio (y) = 0.34548 0.13467
# Poissons Ratio (z) = 0.34379 0.09272
#
# Static dielectric constant tensor:
#      x y z
#    x 1.765520 0.000000 0.000000 
#    y 0.000000 1.779820 0.000000 
#    z 0.000000 0.000000 1.719740 
# 
# From -- ./inp_files/10698.got.cif
#   From: 2010.05.17/outbox.cif.g08.bks.cpg/sg41_6_cif.got.tgz:10698.got - 2010.06.03 18:54:24.
