data_PCOD9366611
_publ_section_title
;
Structure prediction by ZEFSAII (Michael W. Deem and Ramdas Pophale) SiO2 
 PCOD9366611
Probable space group: A B A 2
;
_chemical_formula_sum "Si O2"
_cell_formula_units_Z 44
_cell_length_a 5.168896
_cell_length_b 22.328998
_cell_length_c 15.882420
_cell_angle_alpha 90.000000
_cell_angle_beta 90.000000
_cell_angle_gamma 90.000000
_cell_volume 1833.089650
_symmetry_space_group_name_H-M "A B A 2"
_symmetry_group_IT_number 41
_symmetry_cell_setting 'orthorhombic'
loop_
_space_group_symop_operation_xyz
x,y,z
-x,-y,z
1/2-x,y,1/2+z
1/2+x,-y,1/2+z
x,1/2+y,1/2+z
-x,1/2-y,1/2+z
1/2-x,1/2+y,z
1/2+x,1/2-y,z
loop_
_atom_site_type_symbol
_atom_site_label
_atom_site_fract_x
_atom_site_fract_y
_atom_site_fract_z
Si Si1 0.131793 0.872695 0.747260
Si Si2 0.149244 0.673837 0.837050
Si Si3 0.000000 0.000000 0.829286
Si Si4 0.471823 0.272803 0.492907
Si Si5 0.254048 0.394284 0.553383
Si Si6 0.741825 0.433549 0.466548
O O1 0.386769 0.849593 0.794567
O O2 0.204506 0.876907 0.649677
O O3 0.884648 0.830614 0.770268
O O4 0.064193 0.940576 0.777196
O O5 0.235851 0.626255 0.908597
O O6 0.064878 0.730524 0.894962
O O7 0.223634 0.016216 0.895726
O O8 0.760265 0.272612 0.532755
O O9 0.304067 0.332916 0.502186
O O10 0.489720 0.435002 0.522889
O O11 0.988069 0.425182 0.527482
#
# Coordination Sequence:
#
# PCOD9366611 Si02
#       6
#     8   8   4   8   8   8
#     4  11  23  39  62  89 129 156 195 253 310 351
#     4  10  21  40  60  86 119 159 194 250 306 348
#     4  10  22  38  62  90 116 168 212 238 282 368
#     4  11  21  38  64  87 113 158 210 240 284 370
#     4  11  23  41  60  90 126 158 191 259 318 340
#     4  10  21  38  61  83 119 160 204 240 291 364
#
# _framework density 24.00319
#
# number of rings (size 3 to 8) (size 9 to 14) (size 15 to 20)
#    0.000    1.455    0.000    8.727    0.000    8.000 
#    0.000    5.455    0.000    0.000    0.000    0.000 
#    0.000    0.000    0.000    0.000    0.000    0.000 
#
# Total GULP energy -122770.494232 kJ/mol
# GULP energy per Si atom -5580.477011 kJ/mol
# Density = 2.394856 g / cm^3
# Si number density = 24.003190 Si / 1000 Ang^3
#
#
#
# Elastic Constant Matrix: (Units=GPa)
#
#
# Indices 1 2 3 4 5 6 
#
# 1 197.8666 -0.2647 22.7470 0.0000 0.0000 0.0000
# 2 -0.2647 30.8081 -14.9062 0.0000 0.0000 0.0000
# 3 22.7470 -14.9062 102.8757 0.0000 0.0000 0.0000
# 4 0.0000 0.0000 0.0000 20.4818 0.0000 0.0000
# 5 0.0000 0.0000 0.0000 0.0000 27.2056 0.0000
# 6 0.0000 0.0000 0.0000 0.0000 0.0000 26.5399
#
#
#
# Elastic Compliance Matrix: (Units=1/GPa)
#
#
# Indices 1 2 3 4 5 6 
#
# 1 0.005194 -0.000550 -0.001228 0.000000 0.000000 0.000000
# 2 -0.000550 0.034964 0.005188 0.000000 0.000000 0.000000
# 3 -0.001228 0.005188 0.010744 0.000000 0.000000 0.000000
# 4 0.000000 0.000000 0.000000 0.048824 0.000000 0.000000
# 5 0.000000 0.000000 0.000000 0.000000 0.036757 0.000000
# 6 0.000000 0.000000 0.000000 0.000000 0.000000 0.037679
#
#
# Mechanical properties :
#
#
# Convention : Reuss Voigt Hill
#
# Bulk Modulus (GPa) = 17.32438 38.52252 27.92345
# Shear Modulus (GPa) = 26.79768 36.44375 31.62071
#
# Velocity S-wave (km/s) = 3.34491 3.90075 3.63348
# Velocity P-wave (km/s) = 4.70650 6.03088 5.40938
#
# Compressibility (1/GPa) = 0.05772212
#
# Stress axis : x y z
#
# Youngs Moduli (GPa) = 192.51619 28.60065 93.07778
#
# Poissons Ratio (x) = 0.01572 0.11432
# Poissons Ratio (y) = 0.10581 -0.48286
# Poissons Ratio (z) = 0.23644 -0.14837
#
# Static dielectric constant tensor:
#      x y z
#    x 2.033370 0.000000 0.000000 
#    y 0.000000 2.114100 0.000000 
#    z 0.000000 0.000000 1.879450 
# 
# From -- ./inp_files/6930.got.cif
#   From: 2010.05.17/outbox.cif.g08.bks.cpg/sg41_4_cif.got.tgz:6930.got - 2010.06.03 18:54:24.
