data_PCOD9366354
_publ_section_title
;
Structure prediction by ZEFSAII (Michael W. Deem and Ramdas Pophale) SiO2 
 PCOD9366354
Probable space group: A B A 2
;
_chemical_formula_sum "Si O2"
_cell_formula_units_Z 56
_cell_length_a 9.041472
_cell_length_b 17.883912
_cell_length_c 14.453880
_cell_angle_alpha 90.000000
_cell_angle_beta 90.000000
_cell_angle_gamma 90.000000
_cell_volume 2337.147439
_symmetry_space_group_name_H-M "A B A 2"
_symmetry_group_IT_number 41
_symmetry_cell_setting 'orthorhombic'
loop_
_space_group_symop_operation_xyz
x,y,z
-x,-y,z
1/2-x,y,1/2+z
1/2+x,-y,1/2+z
x,1/2+y,1/2+z
-x,1/2-y,1/2+z
1/2-x,1/2+y,z
1/2+x,1/2-y,z
loop_
_atom_site_type_symbol
_atom_site_label
_atom_site_fract_x
_atom_site_fract_y
_atom_site_fract_z
Si Si1 0.117420 0.773212 0.927770
Si Si2 0.345348 0.041999 0.338094
Si Si3 0.153988 0.920262 0.568962
Si Si4 0.159045 0.653547 0.502034
Si Si5 0.144955 0.593104 0.143787
Si Si6 0.881973 0.649524 0.871871
Si Si7 0.620761 0.556603 0.211074
O O1 0.241182 0.726992 0.983740
O O2 0.219284 0.815751 0.853009
O O3 0.011969 0.830060 0.983003
O O4 0.999547 0.713173 0.894319
O O5 0.295638 0.088277 0.427966
O O6 0.373373 0.098518 0.253065
O O7 0.500000 0.000000 0.358581
O O8 0.233258 0.986775 0.282943
O O9 0.152440 0.904785 0.459921
O O10 0.293241 0.899002 0.631790
O O11 0.007135 0.877141 0.601267
O O12 0.147423 0.007533 0.602387
O O13 0.208152 0.628523 0.603139
O O14 0.953939 0.609739 0.784875
O O15 0.500000 0.500000 0.171560
#
# Coordination Sequence:
#
# PCOD9366354 Si02
#       7
#     8   8   8   8   8   8   8
#     4  10  24  40  59  91 125 172 230 257 294 394
#     4  11  21  40  66 100 130 161 210 269 336 396
#     4  10  21  39  64  96 128 158 205 265 332 387
#     4  11  22  41  64  88 128 175 212 264 325 375
#     4  10  20  39  65  95 127 161 202 264 332 396
#     4  11  22  42  63  88 131 174 211 264 320 370
#     4  11  23  38  66 101 129 159 212 270 327 397
#
# _framework density 23.960833999999998
#
# number of rings (size 3 to 8) (size 9 to 14) (size 15 to 20)
#    0.000    1.429    4.286    2.571    2.000    2.286 
#    0.000   10.000    0.000    0.000    0.000    0.000 
#    0.000    0.000    0.000    0.000    0.000    0.000 
#
# Total GULP energy -156185.325075 kJ/mol
# GULP energy per Si atom -5578.047324 kJ/mol
# Density = 2.390630 g / cm^3
# Si number density = 23.960834 Si / 1000 Ang^3
#
#
#
# Elastic Constant Matrix: (Units=GPa)
#
#
# Indices 1 2 3 4 5 6 
#
# 1 88.1903 6.2682 11.2294 0.0000 0.0000 0.0000
# 2 6.2682 26.0871 7.0536 0.0000 0.0000 0.0000
# 3 11.2294 7.0536 107.2957 0.0000 0.0000 0.0000
# 4 0.0000 0.0000 0.0000 -2.4079 0.0000 0.0000
# 5 0.0000 0.0000 0.0000 0.0000 28.1101 0.0000
# 6 0.0000 0.0000 0.0000 0.0000 0.0000 46.7610
#
#
#
# Elastic Compliance Matrix: (Units=1/GPa)
#
#
# Indices 1 2 3 4 5 6 
#
# 1 0.011652 -0.002515 -0.001054 0.000000 0.000000 0.000000
# 2 -0.002515 0.039570 -0.002338 0.000000 0.000000 0.000000
# 3 -0.001054 -0.002338 0.009584 0.000000 0.000000 0.000000
# 4 0.000000 0.000000 0.000000 -0.415292 0.000000 0.000000
# 5 0.000000 0.000000 0.000000 0.000000 0.035574 0.000000
# 6 0.000000 0.000000 0.000000 0.000000 0.000000 0.021385
#
#
# Mechanical properties :
#
#
# Convention : Reuss Voigt Hill
#
# Bulk Modulus (GPa) = 20.41162 30.07504 25.24333
# Shear Modulus (GPa) = -18.56099 27.62742 4.53322
#
# Velocity S-wave (km/s) = -2.78625 3.39930 1.37697
# Velocity P-wave (km/s) = 1.34674 5.29018 3.61748
#
# Compressibility (1/GPa) = 0.04899169
#
# Stress axis : x y z
#
# Youngs Moduli (GPa) = 85.82160 25.27198 104.33975
#
# Poissons Ratio (x) = 0.06355 0.10999
# Poissons Ratio (y) = 0.21582 0.24396
# Poissons Ratio (z) = 0.09047 0.05909
#
# Static dielectric constant tensor:
#      x y z
#    x 2.036550 0.000000 0.000000 
#    y 0.000000 2.051490 0.000000 
#    z 0.000000 0.000000 1.931870 
# 
# From -- ./inp_files/7465.got.cif
#   From: 2010.05.17/outbox.cif.g08.bks.cpg/sg41_4_cif.got.tgz:7465.got - 2010.06.03 18:54:24.
