data_PCOD9366105
_publ_section_title
;
Structure prediction by ZEFSAII (Michael W. Deem and Ramdas Pophale) SiO2 
 PCOD9366105
Probable space group: A B A 2
;
_chemical_formula_sum "Si O2"
_cell_formula_units_Z 64
_cell_length_a 9.293670
_cell_length_b 16.395066
_cell_length_c 21.067546
_cell_angle_alpha 90.000000
_cell_angle_beta 90.000000
_cell_angle_gamma 90.000000
_cell_volume 3210.069000
_symmetry_space_group_name_H-M "A B A 2"
_symmetry_group_IT_number 41
_symmetry_cell_setting 'orthorhombic'
loop_
_space_group_symop_operation_xyz
x,y,z
-x,-y,z
1/2-x,y,1/2+z
1/2+x,-y,1/2+z
x,1/2+y,1/2+z
-x,1/2-y,1/2+z
1/2-x,1/2+y,z
1/2+x,1/2-y,z
loop_
_atom_site_type_symbol
_atom_site_label
_atom_site_fract_x
_atom_site_fract_y
_atom_site_fract_z
Si Si1 0.121088 0.948973 0.724820
Si Si2 0.168293 0.524423 0.567050
Si Si3 0.359100 0.055176 0.425761
Si Si4 0.158587 0.532764 0.814298
Si Si5 0.301742 0.714148 0.279468
Si Si6 0.013247 0.665524 0.324929
Si Si7 0.733452 0.150999 0.618353
Si Si8 0.108038 0.188835 0.134122
O O1 0.026718 0.912485 0.782477
O O2 0.196482 0.878193 0.684965
O O3 0.249759 0.000826 0.754730
O O4 0.000000 0.000000 0.686889
O O5 0.199769 0.558884 0.496819
O O6 0.241978 0.436185 0.580540
O O7 0.182412 0.602613 0.613765
O O8 0.000000 0.500000 0.571076
O O9 0.245779 0.013841 0.378241
O O10 0.416466 0.137066 0.390700
O O11 0.500000 0.000000 0.429397
O O12 0.152847 0.629344 0.810426
O O13 0.000000 0.500000 0.813160
O O14 0.368544 0.783811 0.323097
O O15 0.355593 0.707090 0.207525
O O16 0.129950 0.716559 0.284914
O O17 0.564582 0.176833 0.624216
O O18 0.824578 0.231504 0.598402
#
# Coordination Sequence:
#
# PCOD9366105 Si02
#       8
#     8   8   8   8   8   8   8   8
#     4  12  21  39  61  93 125 166 216 259 344 412
#     4   9  22  42  64  87 122 183 226 258 328 403
#     4  10  19  42  64  81 120 168 220 257 316 398
#     4  11  22  36  60  91 121 163 208 273 332 390
#     4  11  22  35  57  89 128 153 201 262 339 387
#     4  11  22  36  59  94 121 166 201 269 335 390
#     4  11  24  38  65  95 128 171 218 272 339 404
#     4  11  22  41  60  94 134 167 214 280 328 394
#
# _framework density 19.937266000000001
#
# number of rings (size 3 to 8) (size 9 to 14) (size 15 to 20)
#    0.000    1.250    5.000    2.250    1.750    1.000 
#    0.000   10.625    0.000    0.000    0.000    0.000 
#    0.000    0.000    0.000    0.000    0.000    0.000 
#
# Total GULP energy -178293.287350 kJ/mol
# GULP energy per Si atom -5571.665230 kJ/mol
# Density = 1.989189 g / cm^3
# Si number density = 19.937266 Si / 1000 Ang^3
#
#
#
# Elastic Constant Matrix: (Units=GPa)
#
#
# Indices 1 2 3 4 5 6 
#
# 1 90.3699 35.8500 17.1140 0.0000 0.0000 0.0000
# 2 35.8500 114.7349 32.8631 0.0000 0.0000 0.0000
# 3 17.1140 32.8631 80.5369 0.0000 0.0000 0.0000
# 4 0.0000 0.0000 0.0000 13.5768 0.0000 0.0000
# 5 0.0000 0.0000 0.0000 0.0000 10.6177 0.0000
# 6 0.0000 0.0000 0.0000 0.0000 0.0000 33.5512
#
#
#
# Elastic Compliance Matrix: (Units=1/GPa)
#
#
# Indices 1 2 3 4 5 6 
#
# 1 0.012737 -0.003629 -0.001226 0.000000 0.000000 0.000000
# 2 -0.003629 0.010903 -0.003678 0.000000 0.000000 0.000000
# 3 -0.001226 -0.003678 0.014178 0.000000 0.000000 0.000000
# 4 0.000000 0.000000 0.000000 0.073655 0.000000 0.000000
# 5 0.000000 0.000000 0.000000 0.000000 0.094182 0.000000
# 6 0.000000 0.000000 0.000000 0.000000 0.000000 0.029805
#
#
# Mechanical properties :
#
#
# Convention : Reuss Voigt Hill
#
# Bulk Modulus (GPa) = 48.18551 50.81065 49.49808
# Shear Modulus (GPa) = 19.27200 24.87010 22.07105
#
# Velocity S-wave (km/s) = 3.11244 3.53571 3.33081
# Velocity P-wave (km/s) = 6.09405 6.49684 6.29867
#
# Compressibility (1/GPa) = 0.02075313
#
# Stress axis : x y z
#
# Youngs Moduli (GPa) = 78.50934 91.71766 70.53208
#
# Poissons Ratio (x) = 0.33282 0.08647
# Poissons Ratio (y) = 0.28489 0.25941
# Poissons Ratio (z) = 0.09625 0.33733
#
# Static dielectric constant tensor:
#      x y z
#    x 1.675710 0.000000 0.000000 
#    y 0.000000 1.778150 0.000000 
#    z 0.000000 0.000000 1.735320 
# 
# From -- ./inp_files/11268.got.cif
#   From: 2010.05.17/outbox.cif.g08.bks.cpg/sg41_6_cif.got.tgz:11268.got - 2010.06.03 18:54:24.
