data_PCOD9366059
_publ_section_title
;
Structure prediction by ZEFSAII (Michael W. Deem and Ramdas Pophale) SiO2 
 PCOD9366059
Probable space group: A B A 2
;
_chemical_formula_sum "Si O2"
_cell_formula_units_Z 48
_cell_length_a 13.420961
_cell_length_b 10.568885
_cell_length_c 15.026521
_cell_angle_alpha 90.000000
_cell_angle_beta 90.000000
_cell_angle_gamma 90.000000
_cell_volume 2131.430761
_symmetry_space_group_name_H-M "A B A 2"
_symmetry_group_IT_number 41
_symmetry_cell_setting 'orthorhombic'
loop_
_space_group_symop_operation_xyz
x,y,z
-x,-y,z
1/2-x,y,1/2+z
1/2+x,-y,1/2+z
x,1/2+y,1/2+z
-x,1/2-y,1/2+z
1/2-x,1/2+y,z
1/2+x,1/2-y,z
loop_
_atom_site_type_symbol
_atom_site_label
_atom_site_fract_x
_atom_site_fract_y
_atom_site_fract_z
Si Si1 0.629739 0.944547 0.790030
Si Si2 0.408962 0.100893 0.587840
Si Si3 0.668796 0.442155 0.904128
Si Si4 0.632636 0.727254 0.274111
Si Si5 0.002619 0.861180 0.634925
Si Si6 0.867148 0.673554 0.302047
O O1 0.641875 0.916548 0.684238
O O2 0.726028 0.954120 0.853738
O O3 0.587856 0.810039 0.822925
O O4 0.587385 0.086587 0.786356
O O5 0.332317 0.078718 0.508373
O O6 0.452215 0.243206 0.581162
O O7 0.500000 0.000000 0.582333
O O8 0.616121 0.325528 0.854285
O O9 0.620076 0.576404 0.881720
O O10 0.593468 0.798932 0.185431
O O11 0.751679 0.699398 0.275706
O O12 0.078630 0.884100 0.716952
O O13 0.000000 0.000000 0.590072
#
# Coordination Sequence:
#
# PCOD9366059 Si02
#       6
#     8   8   8   8   8   8
#     4   9  20  42  64  96 136 183 225 290 356 420
#     4  11  23  40  68 106 135 179 244 296 357 430
#     4  10  21  39  65  98 137 184 227 289 358 428
#     4  10  19  38  65  96 136 182 226 292 352 425
#     4  11  21  39  69 102 134 188 236 293 357 433
#     4   9  20  36  64  99 128 185 232 276 355 422
#
# _framework density 22.520084000000001
#
# number of rings (size 3 to 8) (size 9 to 14) (size 15 to 20)
#    0.000    2.000    3.333    0.000    2.333    0.000 
#    0.000   26.667    0.000    0.000    0.000    0.000 
#    0.000    0.000    0.000    0.000    0.000    0.000 
#
# Total GULP energy -133734.848496 kJ/mol
# GULP energy per Si atom -5572.285354 kJ/mol
# Density = 2.246883 g / cm^3
# Si number density = 22.520084 Si / 1000 Ang^3
#
#
#
# Elastic Constant Matrix: (Units=GPa)
#
#
# Indices 1 2 3 4 5 6 
#
# 1 51.6546 14.2451 31.5218 0.0000 0.0000 0.0000
# 2 14.2451 212.2244 48.0924 0.0000 0.0000 0.0000
# 3 31.5218 48.0924 77.3716 0.0000 0.0000 0.0000
# 4 0.0000 0.0000 0.0000 12.7020 0.0000 0.0000
# 5 0.0000 0.0000 0.0000 0.0000 10.5001 0.0000
# 6 0.0000 0.0000 0.0000 0.0000 0.0000 27.7518
#
#
#
# Elastic Compliance Matrix: (Units=1/GPa)
#
#
# Indices 1 2 3 4 5 6 
#
# 1 0.025870 0.000759 -0.011011 0.000000 0.000000 0.000000
# 2 0.000759 0.005507 -0.003732 0.000000 0.000000 0.000000
# 3 -0.011011 -0.003732 0.019730 0.000000 0.000000 0.000000
# 4 0.000000 0.000000 0.000000 0.078728 0.000000 0.000000
# 5 0.000000 0.000000 0.000000 0.000000 0.095238 0.000000
# 6 0.000000 0.000000 0.000000 0.000000 0.000000 0.036034
#
#
# Mechanical properties :
#
#
# Convention : Reuss Voigt Hill
#
# Bulk Modulus (GPa) = 43.21887 58.77437 50.99662
# Shear Modulus (GPa) = 16.84709 26.68352 21.76531
#
# Velocity S-wave (km/s) = 2.73809 3.44594 3.11221
# Velocity P-wave (km/s) = 5.40640 6.47981 5.96729
#
# Compressibility (1/GPa) = 0.02313804
#
# Stress axis : x y z
#
# Youngs Moduli (GPa) = 38.65555 181.59433 50.68329
#
# Poissons Ratio (x) = -0.13779 0.55808
# Poissons Ratio (y) = -0.02933 0.18915
# Poissons Ratio (z) = 0.42564 0.67772
#
# Static dielectric constant tensor:
#      x y z
#    x 2.036540 0.000000 0.000000 
#    y 0.000000 1.986230 0.000000 
#    z 0.000000 0.000000 1.744860 
# 
# From -- ./inp_files/5911.got.cif
#   From: 2010.05.17/outbox.cif.g08.bks.cpg/sg41_3_cif.got.tgz:5911.got - 2010.06.03 18:54:24.
