data_PCOD9366461
_publ_section_title
;
Structure prediction by ZEFSAII (Michael W. Deem and Ramdas Pophale) SiO2 
 PCOD9366461
Probable space group: A B A 2
;
_chemical_formula_sum "Si O2"
_cell_formula_units_Z 64
_cell_length_a 12.540976
_cell_length_b 17.861368
_cell_length_c 14.125362
_cell_angle_alpha 90.000000
_cell_angle_beta 90.000000
_cell_angle_gamma 90.000000
_cell_volume 3164.066785
_symmetry_space_group_name_H-M "A B A 2"
_symmetry_group_IT_number 41
_symmetry_cell_setting 'orthorhombic'
loop_
_space_group_symop_operation_xyz
x,y,z
-x,-y,z
1/2-x,y,1/2+z
1/2+x,-y,1/2+z
x,1/2+y,1/2+z
-x,1/2-y,1/2+z
1/2-x,1/2+y,z
1/2+x,1/2-y,z
loop_
_atom_site_type_symbol
_atom_site_label
_atom_site_fract_x
_atom_site_fract_y
_atom_site_fract_z
Si Si1 0.773535 0.493860 0.793470
Si Si2 0.286438 0.884493 0.035751
Si Si3 0.878023 0.336125 0.840424
Si Si4 0.612225 0.486573 0.623078
Si Si5 0.267889 0.765167 0.193825
Si Si6 0.225518 0.141063 0.536433
Si Si7 0.872459 0.495241 0.479573
Si Si8 0.372305 0.348172 0.340702
O O1 0.839813 0.417222 0.801463
O O2 0.707612 0.494501 0.696914
O O3 0.685387 0.495625 0.877282
O O4 0.845021 0.567658 0.805257
O O5 0.299684 0.835905 0.129753
O O6 0.372471 0.951256 0.042252
O O7 0.175259 0.930118 0.029666
O O8 0.308516 0.839948 0.939625
O O9 0.852542 0.271178 0.765213
O O10 0.003304 0.338042 0.859094
O O11 0.808173 0.326016 0.935408
O O12 0.500000 0.500000 0.671444
O O13 0.625716 0.407917 0.572485
O O14 0.244058 0.702327 0.115876
O O15 0.171038 0.791551 0.260966
O O16 0.323080 0.081050 0.525591
O O17 0.000000 0.500000 0.476883
#
# Coordination Sequence:
#
# PCOD9366461 Si02
#       8
#     8   8   8   8   8   8   8   8
#     4  10  20  42  64  98 123 160 219 275 309 391
#     4  10  23  42  64  94 131 164 221 265 310 391
#     4  11  24  43  68  92 127 172 213 269 327 376
#     4  11  20  38  66  91 124 168 208 264 326 372
#     4  12  24  44  60  94 134 170 212 264 310 390
#     4  10  23  42  64  94 131 164 221 265 310 391
#     4   9  20  40  68  97 127 166 211 275 327 367
#     4  11  24  43  68  92 127 172 213 269 327 376
#
# _framework density 20.227132999999998
#
# number of rings (size 3 to 8) (size 9 to 14) (size 15 to 20)
#    0.000    1.500    2.500    3.000    0.000    3.000 
#    0.000    6.250    0.000    0.000    0.000    0.000 
#    0.000    0.000    0.000    0.000    0.000    0.000 
#
# Total GULP energy -178628.558342 kJ/mol
# GULP energy per Si atom -5582.142448 kJ/mol
# Density = 2.018110 g / cm^3
# Si number density = 20.227133 Si / 1000 Ang^3
#
#
#
# Elastic Constant Matrix: (Units=GPa)
#
#
# Indices 1 2 3 4 5 6 
#
# 1 108.3415 30.5053 11.9944 0.0000 0.0000 0.0000
# 2 30.5053 81.9570 34.8406 0.0000 0.0000 0.0000
# 3 11.9944 34.8406 101.4367 0.0000 0.0000 0.0000
# 4 0.0000 0.0000 0.0000 46.9411 0.0000 0.0000
# 5 0.0000 0.0000 0.0000 0.0000 16.2189 0.0000
# 6 0.0000 0.0000 0.0000 0.0000 0.0000 12.6958
#
#
#
# Elastic Compliance Matrix: (Units=1/GPa)
#
#
# Indices 1 2 3 4 5 6 
#
# 1 0.010312 -0.003887 0.000116 0.000000 0.000000 0.000000
# 2 -0.003887 0.015753 -0.004951 0.000000 0.000000 0.000000
# 3 0.000116 -0.004951 0.011545 0.000000 0.000000 0.000000
# 4 0.000000 0.000000 0.000000 0.021303 0.000000 0.000000
# 5 0.000000 0.000000 0.000000 0.000000 0.061657 0.000000
# 6 0.000000 0.000000 0.000000 0.000000 0.000000 0.078766
#
#
# Mechanical properties :
#
#
# Convention : Reuss Voigt Hill
#
# Bulk Modulus (GPa) = 49.59095 49.60174 49.59634
# Shear Modulus (GPa) = 22.37102 29.46415 25.91759
#
# Velocity S-wave (km/s) = 3.32925 3.82077 3.58345
# Velocity P-wave (km/s) = 6.27286 6.63626 6.45712
#
# Compressibility (1/GPa) = 0.02016497
#
# Stress axis : x y z
#
# Youngs Moduli (GPa) = 96.97609 63.47902 86.61593
#
# Poissons Ratio (x) = 0.24677 -0.01004
# Poissons Ratio (y) = 0.37699 0.42885
# Poissons Ratio (z) = -0.01124 0.31429
#
# Static dielectric constant tensor:
#      x y z
#    x 1.687920 0.000000 0.000000 
#    y 0.000000 1.743670 0.000000 
#    z 0.000000 0.000000 1.735310 
# 
# From -- ./inp_files/8116.got.cif
#   From: 2010.05.17/outbox.cif.g08.bks.cpg/sg41_5_cif.got.tgz:8116.got - 2010.06.03 18:54:24.
