data_PCOD9366626
_publ_section_title
;
Structure prediction by ZEFSAII (Michael W. Deem and Ramdas Pophale) SiO2 
 PCOD9366626
Probable space group: A B A 2
;
_chemical_formula_sum "Si O2"
_cell_formula_units_Z 56
_cell_length_a 8.664708
_cell_length_b 21.130400
_cell_length_c 14.087833
_cell_angle_alpha 90.000000
_cell_angle_beta 90.000000
_cell_angle_gamma 90.000000
_cell_volume 2579.323677
_symmetry_space_group_name_H-M "A B A 2"
_symmetry_group_IT_number 41
_symmetry_cell_setting 'orthorhombic'
loop_
_space_group_symop_operation_xyz
x,y,z
-x,-y,z
1/2-x,y,1/2+z
1/2+x,-y,1/2+z
x,1/2+y,1/2+z
-x,1/2-y,1/2+z
1/2-x,1/2+y,z
1/2+x,1/2-y,z
loop_
_atom_site_type_symbol
_atom_site_label
_atom_site_fract_x
_atom_site_fract_y
_atom_site_fract_z
Si Si1 0.000000 0.000000 0.940701
Si Si2 0.500000 0.500000 0.248002
Si Si3 0.654830 0.825163 0.241915
Si Si4 0.249761 0.574398 0.864952
Si Si5 0.402928 0.901133 0.595677
Si Si6 0.448651 0.731027 0.348352
Si Si7 0.783253 0.697615 0.979645
Si Si8 0.211754 0.160879 0.052085
O O1 0.842172 0.988611 0.888009
O O2 0.042506 0.941203 0.005741
O O3 0.401966 0.549441 0.311525
O O4 0.394579 0.453811 0.179714
O O5 0.628464 0.889812 0.296755
O O6 0.545885 0.768584 0.270952
O O7 0.656874 0.837591 0.131229
O O8 0.817760 0.806948 0.292796
O O9 0.243052 0.617059 0.961839
O O10 0.266232 0.854745 0.557881
O O11 0.558471 0.860323 0.608600
O O12 0.566354 0.688994 0.412049
O O13 0.364284 0.784782 0.412850
O O14 0.814184 0.766832 0.023209
#
# Coordination Sequence:
#
# PCOD9366626 Si02
#       8
#     4   4   8   8   8   8   8   8
#     4   9  22  42  67  84 126 186 223 276 339 392
#     4  11  24  42  75  94 140 188 237 290 329 400
#     4  11  23  40  66  95 139 175 222 278 342 415
#     4  11  22  45  68  93 130 178 236 285 334 404
#     4  10  21  42  66  97 132 181 230 269 344 412
#     4  10  21  38  63 100 136 181 212 278 350 414
#     4  11  20  40  68  98 138 178 226 275 353 415
#     4  11  22  40  69  93 134 183 215 282 357 396
#
# _framework density 21.711116000000001
#
# number of rings (size 3 to 8) (size 9 to 14) (size 15 to 20)
#    0.000    1.429    5.714    0.857    2.000    1.143 
#    0.000    3.571    0.000    0.000    0.000    0.000 
#    0.000    0.000    0.000    0.000    0.000    0.000 
#
# Total GULP energy -155933.569128 kJ/mol
# GULP energy per Si atom -5569.056040 kJ/mol
# Density = 2.166170 g / cm^3
# Si number density = 21.711116 Si / 1000 Ang^3
#
#
#
# Elastic Constant Matrix: (Units=GPa)
#
#
# Indices 1 2 3 4 5 6 
#
# 1 51.2120 9.0861 4.9453 0.0000 0.0000 0.0000
# 2 9.0861 71.4597 17.9167 0.0000 0.0000 0.0000
# 3 4.9453 17.9167 81.8772 0.0000 0.0000 0.0000
# 4 0.0000 0.0000 0.0000 23.3424 0.0000 0.0000
# 5 0.0000 0.0000 0.0000 0.0000 14.5979 0.0000
# 6 0.0000 0.0000 0.0000 0.0000 0.0000 25.0772
#
#
#
# Elastic Compliance Matrix: (Units=1/GPa)
#
#
# Indices 1 2 3 4 5 6 
#
# 1 0.020014 -0.002372 -0.000690 0.000000 0.000000 0.000000
# 2 -0.002372 0.015087 -0.003158 0.000000 0.000000 0.000000
# 3 -0.000690 -0.003158 0.012946 0.000000 0.000000 0.000000
# 4 0.000000 0.000000 0.000000 0.042840 0.000000 0.000000
# 5 0.000000 0.000000 0.000000 0.000000 0.068503 0.000000
# 6 0.000000 0.000000 0.000000 0.000000 0.000000 0.039877
#
#
# Mechanical properties :
#
#
# Convention : Reuss Voigt Hill
#
# Bulk Modulus (GPa) = 28.08371 29.82725 28.95548
# Shear Modulus (GPa) = 22.36369 24.11023 23.23696
#
# Velocity S-wave (km/s) = 3.21293 3.33603 3.27506
# Velocity P-wave (km/s) = 5.16983 5.34854 5.25995
#
# Compressibility (1/GPa) = 0.03560783
#
# Stress axis : x y z
#
# Youngs Moduli (GPa) = 49.96479 66.28080 77.24292
#
# Poissons Ratio (x) = 0.15721 0.05328
# Poissons Ratio (y) = 0.11851 0.24395
# Poissons Ratio (z) = 0.03447 0.20933
#
# Static dielectric constant tensor:
#      x y z
#    x 1.894180 0.000000 0.000000 
#    y 0.000000 2.592570 0.000000 
#    z 0.000000 0.000000 1.836800 
# 
# From -- ./inp_files/7499.got.cif
#   From: 2010.05.17/outbox.cif.g08.bks.cpg/sg41_4_cif.got.tgz:7499.got - 2010.06.03 18:54:24.
