data_PCOD9366369
_publ_section_title
;
Structure prediction by ZEFSAII (Michael W. Deem and Ramdas Pophale) SiO2 
 PCOD9366369
Probable space group: A B A 2
;
_chemical_formula_sum "Si O2"
_cell_formula_units_Z 64
_cell_length_a 8.423695
_cell_length_b 24.821070
_cell_length_c 14.540394
_cell_angle_alpha 90.000000
_cell_angle_beta 90.000000
_cell_angle_gamma 90.000000
_cell_volume 3040.180072
_symmetry_space_group_name_H-M "A B A 2"
_symmetry_group_IT_number 41
_symmetry_cell_setting 'orthorhombic'
loop_
_space_group_symop_operation_xyz
x,y,z
-x,-y,z
1/2-x,y,1/2+z
1/2+x,-y,1/2+z
x,1/2+y,1/2+z
-x,1/2-y,1/2+z
1/2-x,1/2+y,z
1/2+x,1/2-y,z
loop_
_atom_site_type_symbol
_atom_site_label
_atom_site_fract_x
_atom_site_fract_y
_atom_site_fract_z
Si Si1 0.680640 0.983143 0.208330
Si Si2 0.303407 0.080609 0.551363
Si Si3 0.738115 0.677877 0.007687
Si Si4 0.132812 0.379689 0.840844
Si Si5 0.177699 0.669249 0.913330
Si Si6 0.447521 0.232690 0.462507
Si Si7 0.314252 0.498879 0.401655
Si Si8 0.658086 0.090009 0.633275
O O1 0.772778 0.974550 0.303519
O O2 0.767712 0.032281 0.156258
O O3 0.500000 0.000000 0.227203
O O4 0.696634 0.933277 0.139961
O O5 0.233563 0.133448 0.500779
O O6 0.484909 0.083128 0.586951
O O7 0.282661 0.031441 0.478040
O O8 0.835109 0.731776 0.028081
O O9 0.555053 0.691578 0.018311
O O10 0.770701 0.625628 0.067835
O O11 0.775140 0.664727 0.901007
O O12 0.207178 0.435437 0.880316
O O13 0.149202 0.380411 0.731814
O O14 0.945201 0.370200 0.861399
O O15 0.345114 0.698338 0.888955
O O16 0.068137 0.722179 0.925736
O O17 0.500000 0.500000 0.426395
#
# Coordination Sequence:
#
# PCOD9366369 Si02
#       8
#     8   8   8   8   8   8   8   8
#     4  11  26  40  59  96 138 174 224 275 320 412
#     4  12  23  38  69  95 129 182 215 267 345 408
#     4  10  20  40  66  88 130 172 217 281 346 391
#     4  10  22  40  67  94 137 174 217 276 332 406
#     4  10  20  39  68  90 125 171 213 272 348 391
#     4   9  20  39  65  93 121 166 223 282 335 407
#     4  11  22  42  65  96 135 175 217 273 333 400
#     4  11  24  43  65 101 136 176 230 279 335 416
#
# _framework density 21.051385
#
# number of rings (size 3 to 8) (size 9 to 14) (size 15 to 20)
#    0.000    1.500    2.500    3.000    3.500    3.000 
#    0.000    5.000    0.000    0.000    0.000    0.000 
#    0.000    0.000    0.000    0.000    0.000    0.000 
#
# Total GULP energy -178221.948245 kJ/mol
# GULP energy per Si atom -5569.435883 kJ/mol
# Density = 2.100347 g / cm^3
# Si number density = 21.051385 Si / 1000 Ang^3
#
#
#
# Elastic Constant Matrix: (Units=GPa)
#
#
# Indices 1 2 3 4 5 6 
#
# 1 83.4534 26.9393 20.2702 0.0000 0.0000 0.0000
# 2 26.9393 67.4429 43.3324 0.0000 0.0000 0.0000
# 3 20.2702 43.3324 96.7329 0.0000 0.0000 0.0000
# 4 0.0000 0.0000 0.0000 4.6057 0.0000 0.0000
# 5 0.0000 0.0000 0.0000 0.0000 29.4463 0.0000
# 6 0.0000 0.0000 0.0000 0.0000 0.0000 35.1720
#
#
#
# Elastic Compliance Matrix: (Units=1/GPa)
#
#
# Indices 1 2 3 4 5 6 
#
# 1 0.013781 -0.005124 -0.000592 0.000000 0.000000 0.000000
# 2 -0.005124 0.022725 -0.009106 0.000000 0.000000 0.000000
# 3 -0.000592 -0.009106 0.014541 0.000000 0.000000 0.000000
# 4 0.000000 0.000000 0.000000 0.217123 0.000000 0.000000
# 5 0.000000 0.000000 0.000000 0.000000 0.033960 0.000000
# 6 0.000000 0.000000 0.000000 0.000000 0.000000 0.028432
#
#
# Mechanical properties :
#
#
# Convention : Reuss Voigt Hill
#
# Bulk Modulus (GPa) = 46.72526 47.63474 47.18000
# Shear Modulus (GPa) = 13.61139 24.31730 18.96435
#
# Velocity S-wave (km/s) = 2.54555 3.40242 3.00469
# Velocity P-wave (km/s) = 5.55732 6.17351 5.87350
#
# Compressibility (1/GPa) = 0.02140170
#
# Stress axis : x y z
#
# Youngs Moduli (GPa) = 72.56548 44.00493 68.77097
#
# Poissons Ratio (x) = 0.22548 0.04074
# Poissons Ratio (y) = 0.37182 0.62623
# Poissons Ratio (z) = 0.04299 0.40071
#
# Static dielectric constant tensor:
#      x y z
#    x 1.805910 0.000000 0.000000 
#    y 0.000000 1.822250 0.000000 
#    z 0.000000 0.000000 1.753110 
# 
# From -- ./inp_files/7578.got.cif
#   From: 2010.05.17/outbox.cif.g08.bks.cpg/sg41_4_cif.got.tgz:7578.got - 2010.06.03 18:54:24.
