data_PCOD9366010
_publ_section_title
;
Structure prediction by ZEFSAII (Michael W. Deem and Ramdas Pophale) SiO2 
 PCOD9366010
Probable space group: A B A 2
;
_chemical_formula_sum "Si O2"
_cell_formula_units_Z 48
_cell_length_a 8.518302
_cell_length_b 13.855726
_cell_length_c 17.212284
_cell_angle_alpha 90.000000
_cell_angle_beta 90.000000
_cell_angle_gamma 90.000000
_cell_volume 2031.518693
_symmetry_space_group_name_H-M "A B A 2"
_symmetry_group_IT_number 41
_symmetry_cell_setting 'orthorhombic'
loop_
_space_group_symop_operation_xyz
x,y,z
-x,-y,z
1/2-x,y,1/2+z
1/2+x,-y,1/2+z
x,1/2+y,1/2+z
-x,1/2-y,1/2+z
1/2-x,1/2+y,z
1/2+x,1/2-y,z
loop_
_atom_site_type_symbol
_atom_site_label
_atom_site_fract_x
_atom_site_fract_y
_atom_site_fract_z
Si Si1 0.436944 0.169115 0.385190
Si Si2 0.729617 0.172559 0.137573
Si Si3 0.500000 0.000000 0.508758
Si Si4 0.578228 0.870615 0.624396
Si Si5 0.786024 0.941777 0.278288
Si Si6 0.719807 0.157436 0.817896
Si Si7 0.000000 0.500000 0.168017
O O1 0.488506 0.093786 0.452640
O O2 0.280618 0.124065 0.346227
O O3 0.596055 0.165159 0.336224
O O4 0.383264 0.281712 0.379626
O O5 0.669531 0.273876 0.106287
O O6 0.778459 0.191326 0.228017
O O7 0.897331 0.146836 0.102592
O O8 0.593340 0.091119 0.129995
O O9 0.369948 0.039729 0.571381
O O10 0.595140 0.897812 0.715207
O O11 0.634274 0.956997 0.223169
O O12 0.827804 0.045154 0.314242
#
# Coordination Sequence:
#
# PCOD9366010 Si02
#       7
#     8   8   4   8   8   8   4
#     4  12  23  45  70  97 150 189 243 296 383 434
#     4  11  22  42  71 110 141 185 249 314 362 445
#     4  12  27  48  66 104 151 202 228 318 383 458
#     4  12  26  42  73 106 149 190 251 305 386 440
#     4  11  20  43  69 108 138 193 246 311 353 450
#     4  11  22  39  71 107 133 189 247 305 355 442
#     4  10  19  36  66 102 143 174 236 308 361 406
#
# _framework density 23.627644
#
# number of rings (size 3 to 8) (size 9 to 14) (size 15 to 20)
#    0.000    0.667    6.667    4.000    0.000    1.333 
#    0.000    0.000    0.000    2.000    0.000    0.000 
#    0.000    0.000    0.000    0.000    0.000    0.000 
#
# Total GULP energy -133662.875927 kJ/mol
# GULP energy per Si atom -5569.286497 kJ/mol
# Density = 2.357387 g / cm^3
# Si number density = 23.627644 Si / 1000 Ang^3
#
#
#
# Elastic Constant Matrix: (Units=GPa)
#
#
# Indices 1 2 3 4 5 6 
#
# 1 107.6755 80.6954 26.9590 0.0000 0.0000 0.0000
# 2 80.6954 178.2943 37.4188 0.0000 0.0000 0.0000
# 3 26.9590 37.4188 73.2185 0.0000 0.0000 0.0000
# 4 0.0000 0.0000 0.0000 12.8771 0.0000 0.0000
# 5 0.0000 0.0000 0.0000 0.0000 11.8538 0.0000
# 6 0.0000 0.0000 0.0000 0.0000 0.0000 46.0364
#
#
#
# Elastic Compliance Matrix: (Units=1/GPa)
#
#
# Indices 1 2 3 4 5 6 
#
# 1 0.014365 -0.006039 -0.002203 0.000000 0.000000 0.000000
# 2 -0.006039 0.008821 -0.002285 0.000000 0.000000 0.000000
# 3 -0.002203 -0.002285 0.015636 0.000000 0.000000 0.000000
# 4 0.000000 0.000000 0.000000 0.077657 0.000000 0.000000
# 5 0.000000 0.000000 0.000000 0.000000 0.084361 0.000000
# 6 0.000000 0.000000 0.000000 0.000000 0.000000 0.021722
#
#
# Mechanical properties :
#
#
# Convention : Reuss Voigt Hill
#
# Bulk Modulus (GPa) = 56.27633 72.14831 64.21232
# Shear Modulus (GPa) = 20.03698 28.42780 24.23239
#
# Velocity S-wave (km/s) = 2.91526 3.47242 3.20597
# Velocity P-wave (km/s) = 5.93307 6.83219 6.39844
#
# Compressibility (1/GPa) = 0.01776946
#
# Stress axis : x y z
#
# Youngs Moduli (GPa) = 69.61604 113.36016 63.95340
#
# Poissons Ratio (x) = 0.68459 0.14087
# Poissons Ratio (y) = 0.42041 0.14611
# Poissons Ratio (z) = 0.15334 0.25899
#
# Static dielectric constant tensor:
#      x y z
#    x 1.922630 0.000000 0.000000 
#    y 0.000000 2.058160 0.000000 
#    z 0.000000 0.000000 1.943990 
# 
# From -- ./inp_files/9680.got.cif
#   From: 2010.05.17/outbox.cif.g08.bks.cpg/sg41_5_cif.got.tgz:9680.got - 2010.06.03 18:54:24.
