data_PCOD9366412
_publ_section_title
;
Structure prediction by ZEFSAII (Michael W. Deem and Ramdas Pophale) SiO2 
 PCOD9366412
Probable space group: A B A 2
;
_chemical_formula_sum "Si O2"
_cell_formula_units_Z 60
_cell_length_a 25.961362
_cell_length_b 12.443671
_cell_length_c 7.919288
_cell_angle_alpha 90.000000
_cell_angle_beta 90.000000
_cell_angle_gamma 90.000000
_cell_volume 2558.362793
_symmetry_space_group_name_H-M "A B A 2"
_symmetry_group_IT_number 41
_symmetry_cell_setting 'orthorhombic'
loop_
_space_group_symop_operation_xyz
x,y,z
-x,-y,z
1/2-x,y,1/2+z
1/2+x,-y,1/2+z
x,1/2+y,1/2+z
-x,1/2-y,1/2+z
1/2-x,1/2+y,z
1/2+x,1/2-y,z
loop_
_atom_site_type_symbol
_atom_site_label
_atom_site_fract_x
_atom_site_fract_y
_atom_site_fract_z
Si Si1 0.949661 0.797550 0.049440
Si Si2 0.500000 0.000000 0.526860
Si Si3 0.839959 0.330465 0.390725
Si Si4 0.091839 0.880613 0.994981
Si Si5 0.961376 0.340823 0.945630
Si Si6 0.305328 0.401022 0.440179
Si Si7 0.604560 0.498076 0.651744
Si Si8 0.700810 0.025933 0.589757
O O1 0.958525 0.832860 0.242798
O O2 0.890467 0.801344 0.001681
O O3 0.977329 0.892738 0.940414
O O4 0.981312 0.691297 0.005403
O O5 0.448165 0.949871 0.608470
O O6 0.811925 0.217778 0.361714
O O7 0.862497 0.399865 0.235815
O O8 0.804565 0.413059 0.494528
O O9 0.074880 0.758466 0.006524
O O10 0.084317 0.928947 0.806581
O O11 0.150217 0.906287 0.038702
O O12 0.938240 0.446247 0.030959
O O13 0.354552 0.430762 0.550588
O O14 0.302004 0.486390 0.289352
O O15 0.253041 0.413249 0.544181
#
# Coordination Sequence:
#
# PCOD9366412 Si02
#       8
#     8   4   8   8   8   8   8   8
#     4  11  22  42  63  96 133 182 223 281 345 396
#     4  10  20  40  68  88 136 174 218 274 342 396
#     4  11  24  47  70  98 141 174 226 288 337 411
#     4  10  22  42  68  91 133 178 220 278 337 394
#     4  11  24  39  65  97 134 177 228 279 334 409
#     4  12  27  44  72 103 133 182 230 276 344 406
#     4  11  23  44  67  99 134 179 227 276 340 400
#     4  11  24  45  71 100 135 178 226 282 339 398
#
# _framework density 23.452497999999999
#
# number of rings (size 3 to 8) (size 9 to 14) (size 15 to 20)
#    0.000    1.067    2.667    4.800    1.867    4.267 
#    2.400    0.000    0.000    0.000    0.000    0.000 
#    0.000    0.000    0.000    0.000    0.000    0.000 
#
# Total GULP energy -167742.685174 kJ/mol
# GULP energy per Si atom -5591.422839 kJ/mol
# Density = 2.339912 g / cm^3
# Si number density = 23.452498 Si / 1000 Ang^3
#
#
#
# Elastic Constant Matrix: (Units=GPa)
#
#
# Indices 1 2 3 4 5 6 
#
# 1 61.0431 34.2886 -8.2513 0.0000 0.0000 0.0000
# 2 34.2886 120.8719 8.3972 0.0000 0.0000 0.0000
# 3 -8.2513 8.3972 68.6550 0.0000 0.0000 0.0000
# 4 0.0000 0.0000 0.0000 26.1225 0.0000 0.0000
# 5 0.0000 0.0000 0.0000 0.0000 27.1812 0.0000
# 6 0.0000 0.0000 0.0000 0.0000 0.0000 16.7418
#
#
#
# Elastic Compliance Matrix: (Units=1/GPa)
#
#
# Indices 1 2 3 4 5 6 
#
# 1 0.020139 -0.005931 0.003146 0.000000 0.000000 0.000000
# 2 -0.005931 0.010091 -0.001947 0.000000 0.000000 0.000000
# 3 0.003146 -0.001947 0.015182 0.000000 0.000000 0.000000
# 4 0.000000 0.000000 0.000000 0.038281 0.000000 0.000000
# 5 0.000000 0.000000 0.000000 0.000000 0.036790 0.000000
# 6 0.000000 0.000000 0.000000 0.000000 0.000000 0.059731
#
#
# Mechanical properties :
#
#
# Convention : Reuss Voigt Hill
#
# Bulk Modulus (GPa) = 27.81922 35.49321 31.65621
# Shear Modulus (GPa) = 24.79404 28.41814 26.60609
#
# Velocity S-wave (km/s) = 3.25499 3.48477 3.37184
# Velocity P-wave (km/s) = 5.10042 5.59986 5.35597
#
# Compressibility (1/GPa) = 0.03594638
#
# Stress axis : x y z
#
# Youngs Moduli (GPa) = 49.65515 99.09708 65.86825
#
# Poissons Ratio (x) = 0.58779 -0.20721
# Poissons Ratio (y) = 0.29453 0.12825
# Poissons Ratio (z) = -0.15621 0.19295
#
# Static dielectric constant tensor:
#      x y z
#    x 1.929390 0.000000 0.000000 
#    y 0.000000 1.912050 0.000000 
#    z 0.000000 0.000000 1.985980 
# 
# From -- ./inp_files/3805.got.cif
#   From: 2010.05.17/outbox.cif.g08.bks.cpg/sg41_2_cif.got.tgz:3805.got - 2010.06.03 18:54:24.
