data_PCOD9366101
_publ_section_title
;
Structure prediction by ZEFSAII (Michael W. Deem and Ramdas Pophale) SiO2 
 PCOD9366101
Probable space group: A B A 2
;
_chemical_formula_sum "Si O2"
_cell_formula_units_Z 48
_cell_length_a 14.070310
_cell_length_b 16.767911
_cell_length_c 8.628966
_cell_angle_alpha 90.000000
_cell_angle_beta 90.000000
_cell_angle_gamma 90.000000
_cell_volume 2035.829410
_symmetry_space_group_name_H-M "A B A 2"
_symmetry_group_IT_number 41
_symmetry_cell_setting 'orthorhombic'
loop_
_space_group_symop_operation_xyz
x,y,z
-x,-y,z
1/2-x,y,1/2+z
1/2+x,-y,1/2+z
x,1/2+y,1/2+z
-x,1/2-y,1/2+z
1/2-x,1/2+y,z
1/2+x,1/2-y,z
loop_
_atom_site_type_symbol
_atom_site_label
_atom_site_fract_x
_atom_site_fract_y
_atom_site_fract_z
Si Si1 0.854183 0.206480 0.750000
Si Si2 0.457338 0.637225 0.127851
Si Si3 0.643712 0.220295 0.621031
Si Si4 0.144873 0.959201 0.618238
Si Si5 0.815908 0.477053 0.794071
Si Si6 0.876314 0.886769 0.793162
O O1 0.906693 0.279509 0.669251
O O2 0.746893 0.205717 0.689153
O O3 0.893499 0.121777 0.690746
O O4 0.855786 0.219036 0.934258
O O5 0.566450 0.653742 0.165787
O O6 0.404139 0.568567 0.221188
O O7 0.437474 0.620939 0.947545
O O8 0.617950 0.306682 0.692677
O O9 0.150280 0.969268 0.435666
O O10 0.254822 0.971529 0.673498
O O11 0.096798 0.037534 0.689758
O O12 0.734409 0.409908 0.841420
#
# Coordination Sequence:
#
# PCOD9366101 Si02
#       6
#     8   8   8   8   8   8
#     4  12  25  45  70 106 141 176 236 308 342 420
#     4  12  24  44  73 104 136 187 240 287 342 430
#     4  12  26  43  73 103 138 185 241 291 353 415
#     4  10  21  40  72  98 137 194 222 284 367 408
#     4  10  19  41  70  98 136 188 231 270 355 422
#     4  10  21  43  66  95 138 188 226 272 355 409
#
# _framework density 23.577615000000002
#
# number of rings (size 3 to 8) (size 9 to 14) (size 15 to 20)
#    1.000    0.000    3.333    4.000    0.000    0.000 
#    0.000    7.500    0.000    8.000    0.000    0.000 
#    0.000    0.000    0.000    0.000    0.000    0.000 
#
# Total GULP energy -134357.800703 kJ/mol
# GULP energy per Si atom -5598.241696 kJ/mol
# Density = 2.352395 g / cm^3
# Si number density = 23.577615 Si / 1000 Ang^3
#
#
#
# Elastic Constant Matrix: (Units=GPa)
#
#
# Indices 1 2 3 4 5 6 
#
# 1 89.4653 -9.7482 13.1620 0.0000 0.0000 0.0000
# 2 -9.7482 84.0672 45.8771 0.0000 0.0000 0.0000
# 3 13.1620 45.8771 131.6078 0.0000 0.0000 0.0000
# 4 0.0000 0.0000 0.0000 22.2737 0.0000 0.0000
# 5 0.0000 0.0000 0.0000 0.0000 66.5164 0.0000
# 6 0.0000 0.0000 0.0000 0.0000 0.0000 38.5709
#
#
#
# Elastic Compliance Matrix: (Units=1/GPa)
#
#
# Indices 1 2 3 4 5 6 
#
# 1 0.011747 0.002474 -0.002037 0.000000 0.000000 0.000000
# 2 0.002474 0.015211 -0.005550 0.000000 0.000000 0.000000
# 3 -0.002037 -0.005550 0.009737 0.000000 0.000000 0.000000
# 4 0.000000 0.000000 0.000000 0.044896 0.000000 0.000000
# 5 0.000000 0.000000 0.000000 0.000000 0.015034 0.000000
# 6 0.000000 0.000000 0.000000 0.000000 0.000000 0.025926
#
#
# Mechanical properties :
#
#
# Convention : Reuss Voigt Hill
#
# Bulk Modulus (GPa) = 37.78134 44.85800 41.31967
# Shear Modulus (GPa) = 35.31099 42.52882 38.91990
#
# Velocity S-wave (km/s) = 3.87415 4.25170 4.06731
# Velocity P-wave (km/s) = 6.00592 6.57036 6.29447
#
# Compressibility (1/GPa) = 0.02646810
#
# Stress axis : x y z
#
# Youngs Moduli (GPa) = 85.12974 65.74328 102.70493
#
# Poissons Ratio (x) = -0.16264 0.20922
# Poissons Ratio (y) = -0.21060 0.56998
# Poissons Ratio (z) = 0.17342 0.36485
#
# Static dielectric constant tensor:
#      x y z
#    x 0.670070 0.000000 0.000000 
#    y 0.000000 1.878420 0.000000 
#    z 0.000000 0.000000 1.812450 
# 
# From -- ./inp_files/2548.got.cif
#   From: 2010.05.17/outbox.cif.g08.bks.cpg/sg41_2_cif.got.tgz:2548.got - 2010.06.03 18:54:24.
